RYCKWQXGCGPPJB-AKFYOTOXNA-N
     RDKit          3D

 66 70  0  0  0  0  0  0  0  0999 V2000
  143.6337   83.2851  217.7765 H   0  0  0  0  0  0  0  0  0  0  0  0
  142.8650   82.5010  217.8420 C   0  0  0  0  0  0  0  0  0  0  0  0
  141.5170   82.8520  217.9330 C   0  0  0  0  0  0  0  0  0  0  0  0
  141.2256   83.9126  217.9442 H   0  0  0  0  0  0  0  0  0  0  0  0
  140.5360   81.8580  218.0100 C   0  0  0  0  0  0  0  0  0  0  0  0
  139.4762   82.1415  218.0899 H   0  0  0  0  0  0  0  0  0  0  0  0
  140.8950   80.5000  217.9860 C   0  0  0  0  0  0  0  0  0  0  0  0
  142.2660   80.1460  217.9230 C   0  0  0  0  0  0  0  0  0  0  0  0
  143.2390   81.1550  217.8340 C   0  0  0  0  0  0  0  0  0  0  0  0
  144.3023   80.8837  217.7575 H   0  0  0  0  0  0  0  0  0  0  0  0
  142.6990   78.7020  217.8580 C   0  0  0  0  0  0  0  0  0  0  0  0
  143.5570   78.5514  218.5297 H   0  0  0  0  0  0  0  0  0  0  0  0
  142.9799   78.4626  216.8218 H   0  0  0  0  0  0  0  0  0  0  0  0
  141.6070   77.8170  218.2670 N   0  0  0  0  0  0  0  0  0  0  0  0
  141.7730   76.8470  219.3140 C   0  0  0  0  0  0  0  0  0  0  0  0
  142.8030   75.9650  219.2540 N   0  0  0  0  0  0  0  0  0  0  0  0
  142.9750   75.0310  220.2240 C   0  0  0  0  0  0  0  0  0  0  0  0
  144.0850   74.1100  220.1650 N   0  0  0  0  0  0  0  0  0  0  0  0
  144.0840   73.0210  219.1780 C   0  0  0  0  0  0  0  0  0  0  0  0
  143.0474   72.7062  218.9875 H   0  0  0  0  0  0  0  0  0  0  0  0
  144.5474   73.3831  218.2484 H   0  0  0  0  0  0  0  0  0  0  0  0
  144.8850   71.8270  219.6970 C   0  0  0  0  0  0  0  0  0  0  0  0
  144.3600   71.3832  220.5557 H   0  0  0  0  0  0  0  0  0  0  0  0
  144.9836   71.0843  218.8916 H   0  0  0  0  0  0  0  0  0  0  0  0
  146.2230   72.2570  220.1170 N   0  0  0  0  0  0  0  0  0  0  0  0
  146.7290   71.4110  220.4680 H   0  0  0  0  0  0  0  0  0  0  0  0
  146.1200   73.2040  221.2310 C   0  0  0  0  0  0  0  0  0  0  0  0
  145.5803   72.7272  222.0625 H   0  0  0  0  0  0  0  0  0  0  0  0
  147.1334   73.4891  221.5500 H   0  0  0  0  0  0  0  0  0  0  0  0
  145.3650   74.4640  220.7970 C   0  0  0  0  0  0  0  0  0  0  0  0
  145.1709   75.0909  221.6798 H   0  0  0  0  0  0  0  0  0  0  0  0
  145.9802   75.0120  220.0682 H   0  0  0  0  0  0  0  0  0  0  0  0
  142.0940   74.9830  221.2580 N   0  0  0  0  0  0  0  0  0  0  0  0
  141.0540   75.8490  221.3310 C   0  0  0  0  0  0  0  0  0  0  0  0
  140.2440   75.7660  222.3450 N   0  0  0  0  0  0  0  0  0  0  0  0
  138.7840   75.7550  222.2800 C   0  0  0  0  0  0  0  0  0  0  0  0
  138.4590   74.9948  221.5544 H   0  0  0  0  0  0  0  0  0  0  0  0
  138.3837   75.5204  223.2774 H   0  0  0  0  0  0  0  0  0  0  0  0
  138.2590   77.1280  221.8430 C   0  0  0  0  0  0  0  0  0  0  0  0
  138.5764   77.3102  220.8057 H   0  0  0  0  0  0  0  0  0  0  0  0
  137.1636   77.1067  221.9408 H   0  0  0  0  0  0  0  0  0  0  0  0
  138.7760   78.2800  222.7230 C   0  0  0  0  0  0  0  0  0  0  0  0
  138.0009   79.0579  222.7865 H   0  0  0  0  0  0  0  0  0  0  0  0
  139.0069   77.8779  223.7205 H   0  0  0  0  0  0  0  0  0  0  0  0
  140.0080   78.8730  222.1630 N   0  0  0  0  0  0  0  0  0  0  0  0
  141.1580   78.6530  223.0610 C   0  0  0  0  0  0  0  0  0  0  0  0
  140.9027   79.0122  224.0689 H   0  0  0  0  0  0  0  0  0  0  0  0
  141.3865   77.5773  223.0851 H   0  0  0  0  0  0  0  0  0  0  0  0
  142.4010   79.4120  222.5530 C   0  0  0  0  0  0  0  0  0  0  0  0
  142.6143   80.2487  223.2346 H   0  0  0  0  0  0  0  0  0  0  0  0
  143.2490   78.7120  222.5222 H   0  0  0  0  0  0  0  0  0  0  0  0
  142.1910   79.9200  221.2500 O   0  0  0  0  0  0  0  0  0  0  0  0
  141.1450   80.8770  221.2710 C   0  0  0  0  0  0  0  0  0  0  0  0
  141.4732   81.7477  221.8577 H   0  0  0  0  0  0  0  0  0  0  0  0
  140.9219   81.1562  220.2307 H   0  0  0  0  0  0  0  0  0  0  0  0
  139.8520   80.3140  221.8980 C   0  0  0  0  0  0  0  0  0  0  0  0
  139.6469   80.8383  222.8430 H   0  0  0  0  0  0  0  0  0  0  0  0
  139.0159   80.4648  221.1993 H   0  0  0  0  0  0  0  0  0  0  0  0
  140.8910   76.7860  220.3490 N   0  0  0  0  0  0  0  0  0  0  0  0
  140.0800   77.4430  220.3590 H   0  0  0  0  0  0  0  0  0  0  0  0
  140.2890   78.0660  217.6900 C   0  0  0  0  0  0  0  0  0  0  0  0
  139.5804   77.3025  218.0435 H   0  0  0  0  0  0  0  0  0  0  0  0
  140.3467   78.0207  216.5924 H   0  0  0  0  0  0  0  0  0  0  0  0
  139.8130   79.4520  218.1290 C   0  0  0  0  0  0  0  0  0  0  0  0
  139.5046   79.4030  219.1837 H   0  0  0  0  0  0  0  0  0  0  0  0
  138.9740   79.7422  217.4795 H   0  0  0  0  0  0  0  0  0  0  0  0
  1  2  1  0
  2  3  2  0
  3  4  1  0
  3  5  1  0
  5  6  1  0
  5  7  2  0
  7  8  1  0
  8  9  2  0
  9 10  1  0
  8 11  1  0
 11 12  1  0
 11 13  1  0
 11 14  1  0
 14 15  1  0
 15 16  2  0
 16 17  1  0
 17 18  1  0
 18 19  1  0
 19 20  1  0
 19 21  1  0
 19 22  1  0
 22 23  1  0
 22 24  1  0
 22 25  1  0
 25 26  1  0
 25 27  1  0
 27 28  1  0
 27 29  1  0
 27 30  1  0
 30 31  1  0
 30 32  1  0
 17 33  2  0
 33 34  1  0
 34 35  2  0
 35 36  1  0
 36 37  1  0
 36 38  1  0
 36 39  1  0
 39 40  1  0
 39 41  1  0
 39 42  1  0
 42 43  1  0
 42 44  1  0
 42 45  1  0
 45 46  1  0
 46 47  1  0
 46 48  1  0
 46 49  1  0
 49 50  1  0
 49 51  1  0
 49 52  1  0
 52 53  1  0
 53 54  1  0
 53 55  1  0
 53 56  1  0
 56 57  1  0
 56 58  1  0
 34 59  1  0
 59 60  1  0
 14 61  1  0
 61 62  1  0
 61 63  1  0
 61 64  1  0
 64 65  1  0
 64 66  1  0
  9  2  1  0
 59 15  1  0
 64  7  1  0
 30 18  1  0
 56 45  1  0
M  END
>  <UniqueID>  (1) 
725

>  <SMILES>  (1) 
c1ccc2c(c1)CCN(c1nc(N3CCNCC3)n/c(=N/CCCN3CCOCC3)[nH]1)C2

>  <Energy>  (1) 
80.6995797965794

>  <Genealogy>  (1) 
c1ccc2c(c1)CCN(c1nc(N3CCNCC3)nc(=NCCCN3CCOCC3)[nH]1)C2 (tautomer)
c1ccc2c(c1)CCN(c1nc(N3CCNCC3)n/c(=N/CCCN3CCOCC3)[nH]1)C2 (cis-trans isomerization)
c1ccc2c(c1)CCN(c1nc(N3CCNCC3)n/c(=N/CCCN3CCOCC3)[nH]1)C2 (3D coordinates assigned)
c1ccc2c(c1)CCN(c1nc(N3CCNCC3)n/c(=N/CCCN3CCOCC3)[nH]1)C2 (nonaromatic ring conformer: 80.6995797965794 kcal/mol)

>  <smiles>  (1) 
c1ccc2c(c1)CCN(c1nc(NCCCN3CCOCC3)nc(N3CCNCC3)n1)C2

>  <score_type>  (1) 
oracle

>  <origin>  (1) 
autodockgpu

>  <m_score__min__energy>  (1) 
-8.7799999999999994

>  <m_primary>  (1) 
energy

>  <meeko>  (1) 
{"free_energy": -5.91, "intermolecular_energy": -8.0, "internal_energy": -2.72, "cluster_size": 2, "cluster_id": 6, "rank_in_cluster": 1}

>  <energy>  (1) 
-8.78

>  <cluster_rmsd>  (1) 
0.0

>  <rmsd>  (1) 
271.26

>  <cluster>  (1) 
1

$$$$
RYCKWQXGCGPPJB-AKFYOTOXNA-N
     RDKit          3D

 66 70  0  0  0  0  0  0  0  0999 V2000
  142.8916   81.2644  222.9941 H   0  0  0  0  0  0  0  0  0  0  0  0
  142.0890   80.5130  222.9600 C   0  0  0  0  0  0  0  0  0  0  0  0
  141.0130   80.6010  223.8450 C   0  0  0  0  0  0  0  0  0  0  0  0
  140.9714   81.4192  224.5791 H   0  0  0  0  0  0  0  0  0  0  0  0
  139.9880   79.6510  223.8000 C   0  0  0  0  0  0  0  0  0  0  0  0
  139.1471   79.7214  224.5057 H   0  0  0  0  0  0  0  0  0  0  0  0
  140.0240   78.6080  222.8610 C   0  0  0  0  0  0  0  0  0  0  0  0
  141.1310   78.5030  221.9820 C   0  0  0  0  0  0  0  0  0  0  0  0
  142.1470   79.4710  222.0310 C   0  0  0  0  0  0  0  0  0  0  0  0
  142.9948   79.4085  221.3329 H   0  0  0  0  0  0  0  0  0  0  0  0
  141.1960   77.4230  220.9320 C   0  0  0  0  0  0  0  0  0  0  0  0
  142.2117   77.0012  220.9104 H   0  0  0  0  0  0  0  0  0  0  0  0
  140.9446   77.8634  219.9559 H   0  0  0  0  0  0  0  0  0  0  0  0
  140.2390   76.3560  221.2270 N   0  0  0  0  0  0  0  0  0  0  0  0
  140.6470   74.9820  221.3290 C   0  0  0  0  0  0  0  0  0  0  0  0
  141.8700   74.6100  220.8750 N   0  0  0  0  0  0  0  0  0  0  0  0
  142.2740   73.3160  220.9490 C   0  0  0  0  0  0  0  0  0  0  0  0
  143.5850   72.9310  220.4840 N   0  0  0  0  0  0  0  0  0  0  0  0
  143.7190   71.9370  219.4090 C   0  0  0  0  0  0  0  0  0  0  0  0
  142.8823   71.2253  219.4675 H   0  0  0  0  0  0  0  0  0  0  0  0
  143.7070   72.4570  218.4397 H   0  0  0  0  0  0  0  0  0  0  0  0
  145.0390   71.1750  219.5460 C   0  0  0  0  0  0  0  0  0  0  0  0
  145.0083   70.5556  220.4545 H   0  0  0  0  0  0  0  0  0  0  0  0
  145.1786   70.5370  218.6608 H   0  0  0  0  0  0  0  0  0  0  0  0
  146.1600   72.1160  219.6390 N   0  0  0  0  0  0  0  0  0  0  0  0
  147.0360   71.5510  219.7360 H   0  0  0  0  0  0  0  0  0  0  0  0
  146.0280   72.9370  220.8460 C   0  0  0  0  0  0  0  0  0  0  0  0
  145.9889   72.2806  221.7278 H   0  0  0  0  0  0  0  0  0  0  0  0
  146.8940   73.6119  220.9137 H   0  0  0  0  0  0  0  0  0  0  0  0
  144.7490   73.7770  220.7860 C   0  0  0  0  0  0  0  0  0  0  0  0
  144.5948   74.2699  221.7572 H   0  0  0  0  0  0  0  0  0  0  0  0
  144.8563   74.5281  219.9895 H   0  0  0  0  0  0  0  0  0  0  0  0
  141.4310   72.3900  221.4780 N   0  0  0  0  0  0  0  0  0  0  0  0
  140.2030   72.7410  221.9290 C   0  0  0  0  0  0  0  0  0  0  0  0
  139.4370   71.8180  222.4350 N   0  0  0  0  0  0  0  0  0  0  0  0
  139.2840   71.5100  223.8550 C   0  0  0  0  0  0  0  0  0  0  0  0
  138.7705   72.3451  224.3540 H   0  0  0  0  0  0  0  0  0  0  0  0
  138.6936   70.5877  223.9591 H   0  0  0  0  0  0  0  0  0  0  0  0
  140.6570   71.2990  224.5060 C   0  0  0  0  0  0  0  0  0  0  0  0
  141.0371   70.3105  224.2088 H   0  0  0  0  0  0  0  0  0  0  0  0
  141.3119   72.1128  224.1614 H   0  0  0  0  0  0  0  0  0  0  0  0
  140.6130   71.3650  226.0420 C   0  0  0  0  0  0  0  0  0  0  0  0
  141.4137   72.0317  226.3948 H   0  0  0  0  0  0  0  0  0  0  0  0
  139.6265   71.7463  226.3444 H   0  0  0  0  0  0  0  0  0  0  0  0
  140.8000   70.0280  226.6440 N   0  0  0  0  0  0  0  0  0  0  0  0
  140.2780   68.9700  225.7570 C   0  0  0  0  0  0  0  0  0  0  0  0
  139.2365   69.2033  225.4909 H   0  0  0  0  0  0  0  0  0  0  0  0
  140.9025   68.9268  224.8525 H   0  0  0  0  0  0  0  0  0  0  0  0
  140.3260   67.5970  226.4590 C   0  0  0  0  0  0  0  0  0  0  0  0
  139.2995   67.2752  226.6889 H   0  0  0  0  0  0  0  0  0  0  0  0
  140.8157   66.8779  225.7858 H   0  0  0  0  0  0  0  0  0  0  0  0
  141.0690   67.6640  227.6610 O   0  0  0  0  0  0  0  0  0  0  0  0
  140.4240   68.5340  228.5760 C   0  0  0  0  0  0  0  0  0  0  0  0
  139.4622   68.0887  228.8704 H   0  0  0  0  0  0  0  0  0  0  0  0
  141.0873   68.6636  229.4439 H   0  0  0  0  0  0  0  0  0  0  0  0
  140.1610   69.9280  227.9680 C   0  0  0  0  0  0  0  0  0  0  0  0
  139.0768   70.0807  227.8619 H   0  0  0  0  0  0  0  0  0  0  0  0
  140.5824   70.6973  228.6318 H   0  0  0  0  0  0  0  0  0  0  0  0
  139.8060   74.0460  221.8510 N   0  0  0  0  0  0  0  0  0  0  0  0
  138.8530   74.3410  222.1570 H   0  0  0  0  0  0  0  0  0  0  0  0
  138.8790   76.7540  221.5830 C   0  0  0  0  0  0  0  0  0  0  0  0
  138.2583   75.8579  221.7308 H   0  0  0  0  0  0  0  0  0  0  0  0
  138.4443   77.3623  220.7761 H   0  0  0  0  0  0  0  0  0  0  0  0
  138.9260   77.5660  222.8780 C   0  0  0  0  0  0  0  0  0  0  0  0
  139.1017   76.8801  223.7198 H   0  0  0  0  0  0  0  0  0  0  0  0
  137.9647   78.0905  222.9824 H   0  0  0  0  0  0  0  0  0  0  0  0
  1  2  1  0
  2  3  2  0
  3  4  1  0
  3  5  1  0
  5  6  1  0
  5  7  2  0
  7  8  1  0
  8  9  2  0
  9 10  1  0
  8 11  1  0
 11 12  1  0
 11 13  1  0
 11 14  1  0
 14 15  1  0
 15 16  2  0
 16 17  1  0
 17 18  1  0
 18 19  1  0
 19 20  1  0
 19 21  1  0
 19 22  1  0
 22 23  1  0
 22 24  1  0
 22 25  1  0
 25 26  1  0
 25 27  1  0
 27 28  1  0
 27 29  1  0
 27 30  1  0
 30 31  1  0
 30 32  1  0
 17 33  2  0
 33 34  1  0
 34 35  2  0
 35 36  1  0
 36 37  1  0
 36 38  1  0
 36 39  1  0
 39 40  1  0
 39 41  1  0
 39 42  1  0
 42 43  1  0
 42 44  1  0
 42 45  1  0
 45 46  1  0
 46 47  1  0
 46 48  1  0
 46 49  1  0
 49 50  1  0
 49 51  1  0
 49 52  1  0
 52 53  1  0
 53 54  1  0
 53 55  1  0
 53 56  1  0
 56 57  1  0
 56 58  1  0
 34 59  1  0
 59 60  1  0
 14 61  1  0
 61 62  1  0
 61 63  1  0
 61 64  1  0
 64 65  1  0
 64 66  1  0
  9  2  1  0
 59 15  1  0
 64  7  1  0
 30 18  1  0
 56 45  1  0
M  END
>  <UniqueID>  (2) 
725

>  <SMILES>  (2) 
c1ccc2c(c1)CCN(c1nc(N3CCNCC3)n/c(=N/CCCN3CCOCC3)[nH]1)C2

>  <Energy>  (2) 
80.6995797965794

>  <Genealogy>  (2) 
c1ccc2c(c1)CCN(c1nc(N3CCNCC3)nc(=NCCCN3CCOCC3)[nH]1)C2 (tautomer)
c1ccc2c(c1)CCN(c1nc(N3CCNCC3)n/c(=N/CCCN3CCOCC3)[nH]1)C2 (cis-trans isomerization)
c1ccc2c(c1)CCN(c1nc(N3CCNCC3)n/c(=N/CCCN3CCOCC3)[nH]1)C2 (3D coordinates assigned)
c1ccc2c(c1)CCN(c1nc(N3CCNCC3)n/c(=N/CCCN3CCOCC3)[nH]1)C2 (nonaromatic ring conformer: 80.6995797965794 kcal/mol)

>  <smiles>  (2) 
c1ccc2c(c1)CCN(c1nc(NCCCN3CCOCC3)nc(N3CCNCC3)n1)C2

>  <score_type>  (2) 
oracle

>  <origin>  (2) 
autodockgpu

>  <m_score__min__energy>  (2) 
-8.7799999999999994

>  <m_primary>  (2) 
energy

>  <meeko>  (2) 
{"free_energy": -8.53, "intermolecular_energy": -10.62, "internal_energy": -0.81, "cluster_size": 11, "cluster_id": 1, "rank_in_cluster": 4}

>  <energy>  (2) 
-8.64

>  <cluster_rmsd>  (2) 
0.94

>  <rmsd>  (2) 
271.16

>  <cluster>  (2) 
1

$$$$
RYCKWQXGCGPPJB-AKFYOTOXNA-N
     RDKit          3D

 66 70  0  0  0  0  0  0  0  0999 V2000
  139.9682   66.8526  227.7982 H   0  0  0  0  0  0  0  0  0  0  0  0
  140.0660   67.7900  227.2310 C   0  0  0  0  0  0  0  0  0  0  0  0
  140.8990   68.8060  227.7010 C   0  0  0  0  0  0  0  0  0  0  0  0
  141.4543   68.6691  228.6406 H   0  0  0  0  0  0  0  0  0  0  0  0
  141.0300   69.9980  226.9810 C   0  0  0  0  0  0  0  0  0  0  0  0
  141.6804   70.7986  227.3630 H   0  0  0  0  0  0  0  0  0  0  0  0
  140.3360   70.1790  225.7730 C   0  0  0  0  0  0  0  0  0  0  0  0
  139.4690   69.1580  225.3110 C   0  0  0  0  0  0  0  0  0  0  0  0
  139.3560   67.9630  226.0400 C   0  0  0  0  0  0  0  0  0  0  0  0
  138.7041   67.1576  225.6708 H   0  0  0  0  0  0  0  0  0  0  0  0
  138.7310   69.2920  224.0020 C   0  0  0  0  0  0  0  0  0  0  0  0
  137.6940   68.9502  224.1353 H   0  0  0  0  0  0  0  0  0  0  0  0
  139.2402   68.6785  223.2441 H   0  0  0  0  0  0  0  0  0  0  0  0
  138.7240   70.6860  223.5530 N   0  0  0  0  0  0  0  0  0  0  0  0
  137.5010   71.3710  223.2400 C   0  0  0  0  0  0  0  0  0  0  0  0
  136.6290   71.6760  224.2330 N   0  0  0  0  0  0  0  0  0  0  0  0
  135.4610   72.3120  223.9620 C   0  0  0  0  0  0  0  0  0  0  0  0
  134.5480   72.6530  225.0270 N   0  0  0  0  0  0  0  0  0  0  0  0
  133.8890   73.9670  225.0350 C   0  0  0  0  0  0  0  0  0  0  0  0
  134.5548   74.7088  224.5699 H   0  0  0  0  0  0  0  0  0  0  0  0
  132.9474   73.8964  224.4708 H   0  0  0  0  0  0  0  0  0  0  0  0
  133.5760   74.4000  226.4680 C   0  0  0  0  0  0  0  0  0  0  0  0
  134.5176   74.5910  227.0035 H   0  0  0  0  0  0  0  0  0  0  0  0
  132.9664   75.3153  226.4409 H   0  0  0  0  0  0  0  0  0  0  0  0
  132.8280   73.3480  227.1640 N   0  0  0  0  0  0  0  0  0  0  0  0
  132.6420   73.6850  228.1360 H   0  0  0  0  0  0  0  0  0  0  0  0
  133.6450   72.1340  227.2650 C   0  0  0  0  0  0  0  0  0  0  0  0
  134.5795   72.3698  227.7953 H   0  0  0  0  0  0  0  0  0  0  0  0
  133.0783   71.3691  227.8162 H   0  0  0  0  0  0  0  0  0  0  0  0
  133.9790   71.5940  225.8720 C   0  0  0  0  0  0  0  0  0  0  0  0
  134.7090   70.7766  225.9671 H   0  0  0  0  0  0  0  0  0  0  0  0
  133.0538   71.2269  225.4038 H   0  0  0  0  0  0  0  0  0  0  0  0
  135.1690   72.6350  222.6740 N   0  0  0  0  0  0  0  0  0  0  0  0
  136.0230   72.3320  221.6670 C   0  0  0  0  0  0  0  0  0  0  0  0
  135.7000   72.6690  220.4520 N   0  0  0  0  0  0  0  0  0  0  0  0
  136.1340   71.9970  219.2290 C   0  0  0  0  0  0  0  0  0  0  0  0
  136.4023   70.9561  219.4627 H   0  0  0  0  0  0  0  0  0  0  0  0
  135.3125   72.0198  218.4979 H   0  0  0  0  0  0  0  0  0  0  0  0
  137.3520   72.7110  218.6320 C   0  0  0  0  0  0  0  0  0  0  0  0
  137.3037   72.6288  217.5361 H   0  0  0  0  0  0  0  0  0  0  0  0
  137.3162   73.7577  218.9683 H   0  0  0  0  0  0  0  0  0  0  0  0
  138.6910   72.1210  219.1090 C   0  0  0  0  0  0  0  0  0  0  0  0
  138.5436   71.0625  219.3695 H   0  0  0  0  0  0  0  0  0  0  0  0
  139.4246   72.2234  218.2958 H   0  0  0  0  0  0  0  0  0  0  0  0
  139.2040   72.8410  220.2930 N   0  0  0  0  0  0  0  0  0  0  0  0
  138.5850   74.1750  220.4120 C   0  0  0  0  0  0  0  0  0  0  0  0
  138.7126   74.7179  219.4638 H   0  0  0  0  0  0  0  0  0  0  0  0
  137.5162   74.0492  220.6398 H   0  0  0  0  0  0  0  0  0  0  0  0
  139.2420   74.9830  221.5500 C   0  0  0  0  0  0  0  0  0  0  0  0
  139.8348   75.8007  221.1141 H   0  0  0  0  0  0  0  0  0  0  0  0
  138.4480   75.3834  222.1975 H   0  0  0  0  0  0  0  0  0  0  0  0
  140.0900   74.1640  222.3330 O   0  0  0  0  0  0  0  0  0  0  0  0
  141.1630   73.6870  221.5390 C   0  0  0  0  0  0  0  0  0  0  0  0
  141.7943   74.5394  221.2477 H   0  0  0  0  0  0  0  0  0  0  0  0
  141.7273   72.9568  222.1376 H   0  0  0  0  0  0  0  0  0  0  0  0
  140.6710   72.9730  220.2610 C   0  0  0  0  0  0  0  0  0  0  0  0
  140.9651   73.5606  219.3788 H   0  0  0  0  0  0  0  0  0  0  0  0
  141.1235   71.9717  220.2088 H   0  0  0  0  0  0  0  0  0  0  0  0
  137.1960   71.6910  221.9510 N   0  0  0  0  0  0  0  0  0  0  0  0
  137.8570   71.4120  221.1940 H   0  0  0  0  0  0  0  0  0  0  0  0
  139.9910   71.4110  223.5950 C   0  0  0  0  0  0  0  0  0  0  0  0
  139.8516   72.4231  223.1873 H   0  0  0  0  0  0  0  0  0  0  0  0
  140.7444   70.8826  222.9924 H   0  0  0  0  0  0  0  0  0  0  0  0
  140.4580   71.5020  225.0480 C   0  0  0  0  0  0  0  0  0  0  0  0
  139.8442   72.2502  225.5709 H   0  0  0  0  0  0  0  0  0  0  0  0
  141.5204   71.7872  225.0434 H   0  0  0  0  0  0  0  0  0  0  0  0
  1  2  1  0
  2  3  2  0
  3  4  1  0
  3  5  1  0
  5  6  1  0
  5  7  2  0
  7  8  1  0
  8  9  2  0
  9 10  1  0
  8 11  1  0
 11 12  1  0
 11 13  1  0
 11 14  1  0
 14 15  1  0
 15 16  2  0
 16 17  1  0
 17 18  1  0
 18 19  1  0
 19 20  1  0
 19 21  1  0
 19 22  1  0
 22 23  1  0
 22 24  1  0
 22 25  1  0
 25 26  1  0
 25 27  1  0
 27 28  1  0
 27 29  1  0
 27 30  1  0
 30 31  1  0
 30 32  1  0
 17 33  2  0
 33 34  1  0
 34 35  2  0
 35 36  1  0
 36 37  1  0
 36 38  1  0
 36 39  1  0
 39 40  1  0
 39 41  1  0
 39 42  1  0
 42 43  1  0
 42 44  1  0
 42 45  1  0
 45 46  1  0
 46 47  1  0
 46 48  1  0
 46 49  1  0
 49 50  1  0
 49 51  1  0
 49 52  1  0
 52 53  1  0
 53 54  1  0
 53 55  1  0
 53 56  1  0
 56 57  1  0
 56 58  1  0
 34 59  1  0
 59 60  1  0
 14 61  1  0
 61 62  1  0
 61 63  1  0
 61 64  1  0
 64 65  1  0
 64 66  1  0
  9  2  1  0
 59 15  1  0
 64  7  1  0
 30 18  1  0
 56 45  1  0
M  END
>  <UniqueID>  (3) 
725

>  <SMILES>  (3) 
c1ccc2c(c1)CCN(c1nc(N3CCNCC3)n/c(=N/CCCN3CCOCC3)[nH]1)C2

>  <Energy>  (3) 
80.6995797965794

>  <Genealogy>  (3) 
c1ccc2c(c1)CCN(c1nc(N3CCNCC3)nc(=NCCCN3CCOCC3)[nH]1)C2 (tautomer)
c1ccc2c(c1)CCN(c1nc(N3CCNCC3)n/c(=N/CCCN3CCOCC3)[nH]1)C2 (cis-trans isomerization)
c1ccc2c(c1)CCN(c1nc(N3CCNCC3)n/c(=N/CCCN3CCOCC3)[nH]1)C2 (3D coordinates assigned)
c1ccc2c(c1)CCN(c1nc(N3CCNCC3)n/c(=N/CCCN3CCOCC3)[nH]1)C2 (nonaromatic ring conformer: 80.6995797965794 kcal/mol)

>  <smiles>  (3) 
c1ccc2c(c1)CCN(c1nc(NCCCN3CCOCC3)nc(N3CCNCC3)n1)C2

>  <score_type>  (3) 
oracle

>  <origin>  (3) 
autodockgpu

>  <m_score__min__energy>  (3) 
-8.7799999999999994

>  <m_primary>  (3) 
energy

>  <meeko>  (3) 
{"free_energy": -6.5, "intermolecular_energy": -8.59, "internal_energy": -2.28, "cluster_size": 3, "cluster_id": 3, "rank_in_cluster": 1}

>  <energy>  (3) 
-8.55

>  <cluster_rmsd>  (3) 
1.01

>  <rmsd>  (3) 
271.09

>  <cluster>  (3) 
1

$$$$
RYCKWQXGCGPPJB-AKFYOTOXNA-N
     RDKit          3D

 66 70  0  0  0  0  0  0  0  0999 V2000
  142.9978   81.2264  222.9894 H   0  0  0  0  0  0  0  0  0  0  0  0
  142.1840   80.4880  222.9400 C   0  0  0  0  0  0  0  0  0  0  0  0
  141.1280   80.5530  223.8490 C   0  0  0  0  0  0  0  0  0  0  0  0
  141.1132   81.3401  224.6173 H   0  0  0  0  0  0  0  0  0  0  0  0
  140.0880   79.6200  223.7860 C   0  0  0  0  0  0  0  0  0  0  0  0
  139.2631   79.6722  224.5118 H   0  0  0  0  0  0  0  0  0  0  0  0
  140.0890   78.6170  222.8030 C   0  0  0  0  0  0  0  0  0  0  0  0
  141.1780   78.5350  221.8980 C   0  0  0  0  0  0  0  0  0  0  0  0
  142.2090   79.4860  221.9670 C   0  0  0  0  0  0  0  0  0  0  0  0
  143.0420   79.4416  221.2499 H   0  0  0  0  0  0  0  0  0  0  0  0
  141.2060   77.4980  220.8030 C   0  0  0  0  0  0  0  0  0  0  0  0
  142.2146   77.0631  220.7435 H   0  0  0  0  0  0  0  0  0  0  0  0
  140.9418   77.9821  219.8512 H   0  0  0  0  0  0  0  0  0  0  0  0
  140.2390   76.4330  221.0730 N   0  0  0  0  0  0  0  0  0  0  0  0
  140.6290   75.0510  221.1090 C   0  0  0  0  0  0  0  0  0  0  0  0
  141.8860   74.6990  220.7410 N   0  0  0  0  0  0  0  0  0  0  0  0
  142.2750   73.3980  220.7550 C   0  0  0  0  0  0  0  0  0  0  0  0
  143.6220   73.0320  220.3840 N   0  0  0  0  0  0  0  0  0  0  0  0
  143.8470   72.0780  219.2880 C   0  0  0  0  0  0  0  0  0  0  0  0
  143.0119   71.3628  219.2531 H   0  0  0  0  0  0  0  0  0  0  0  0
  143.9103   72.6326  218.3401 H   0  0  0  0  0  0  0  0  0  0  0  0
  145.1550   71.3150  219.5040 C   0  0  0  0  0  0  0  0  0  0  0  0
  145.0539   70.6631  220.3843 H   0  0  0  0  0  0  0  0  0  0  0  0
  145.3687   70.7102  218.6104 H   0  0  0  0  0  0  0  0  0  0  0  0
  146.2600   72.2530  219.7210 N   0  0  0  0  0  0  0  0  0  0  0  0
  147.1280   71.6870  219.8680 H   0  0  0  0  0  0  0  0  0  0  0  0
  146.0270   73.0310  220.9420 C   0  0  0  0  0  0  0  0  0  0  0  0
  145.9212   72.3437  221.7943 H   0  0  0  0  0  0  0  0  0  0  0  0
  146.8810   73.7056  221.1019 H   0  0  0  0  0  0  0  0  0  0  0  0
  144.7530   73.8690  220.8100 C   0  0  0  0  0  0  0  0  0  0  0  0
  144.5183   74.3250  221.7832 H   0  0  0  0  0  0  0  0  0  0  0  0
  144.9201   74.6495  220.0531 H   0  0  0  0  0  0  0  0  0  0  0  0
  141.3830   72.4460  221.1350 N   0  0  0  0  0  0  0  0  0  0  0  0
  140.1200   72.7770  221.4980 C   0  0  0  0  0  0  0  0  0  0  0  0
  139.3070   71.8280  221.8610 N   0  0  0  0  0  0  0  0  0  0  0  0
  138.1620   71.9750  222.7580 C   0  0  0  0  0  0  0  0  0  0  0  0
  138.1269   73.0077  223.1352 H   0  0  0  0  0  0  0  0  0  0  0  0
  137.2408   71.7448  222.2026 H   0  0  0  0  0  0  0  0  0  0  0  0
  138.2850   71.0080  223.9420 C   0  0  0  0  0  0  0  0  0  0  0  0
  137.7299   71.4261  224.7947 H   0  0  0  0  0  0  0  0  0  0  0  0
  137.8751   70.0397  223.6188 H   0  0  0  0  0  0  0  0  0  0  0  0
  139.7410   70.7680  224.3760 C   0  0  0  0  0  0  0  0  0  0  0  0
  140.0615   69.7770  224.0221 H   0  0  0  0  0  0  0  0  0  0  0  0
  140.3679   71.5593  223.9392 H   0  0  0  0  0  0  0  0  0  0  0  0
  139.8800   70.8220  225.8470 N   0  0  0  0  0  0  0  0  0  0  0  0
  140.8270   71.8790  226.2510 C   0  0  0  0  0  0  0  0  0  0  0  0
  141.7762   71.7382  225.7133 H   0  0  0  0  0  0  0  0  0  0  0  0
  140.3905   72.8581  226.0046 H   0  0  0  0  0  0  0  0  0  0  0  0
  141.0920   71.8220  227.7700 C   0  0  0  0  0  0  0  0  0  0  0  0
  142.1200   71.4705  227.9422 H   0  0  0  0  0  0  0  0  0  0  0  0
  140.9528   72.8305  228.1866 H   0  0  0  0  0  0  0  0  0  0  0  0
  140.1890   70.9420  228.4130 O   0  0  0  0  0  0  0  0  0  0  0  0
  140.3920   69.6200  227.9440 C   0  0  0  0  0  0  0  0  0  0  0  0
  141.3871   69.2789  228.2655 H   0  0  0  0  0  0  0  0  0  0  0  0
  139.5968   68.9867  228.3642 H   0  0  0  0  0  0  0  0  0  0  0  0
  140.3080   69.5280  226.4050 C   0  0  0  0  0  0  0  0  0  0  0  0
  141.2970   69.2660  226.0010 H   0  0  0  0  0  0  0  0  0  0  0  0
  139.5760   68.7550  226.1283 H   0  0  0  0  0  0  0  0  0  0  0  0
  139.7390   74.0890  221.4810 N   0  0  0  0  0  0  0  0  0  0  0  0
  138.7640   74.3720  221.7200 H   0  0  0  0  0  0  0  0  0  0  0  0
  138.8930   76.8340  221.4720 C   0  0  0  0  0  0  0  0  0  0  0  0
  138.2624   75.9412  221.5952 H   0  0  0  0  0  0  0  0  0  0  0  0
  138.4510   77.4809  220.6999 H   0  0  0  0  0  0  0  0  0  0  0  0
  138.9780   77.5910  222.7990 C   0  0  0  0  0  0  0  0  0  0  0  0
  139.1608   76.8682  223.6078 H   0  0  0  0  0  0  0  0  0  0  0  0
  138.0267   78.1238  222.9446 H   0  0  0  0  0  0  0  0  0  0  0  0
  1  2  1  0
  2  3  2  0
  3  4  1  0
  3  5  1  0
  5  6  1  0
  5  7  2  0
  7  8  1  0
  8  9  2  0
  9 10  1  0
  8 11  1  0
 11 12  1  0
 11 13  1  0
 11 14  1  0
 14 15  1  0
 15 16  2  0
 16 17  1  0
 17 18  1  0
 18 19  1  0
 19 20  1  0
 19 21  1  0
 19 22  1  0
 22 23  1  0
 22 24  1  0
 22 25  1  0
 25 26  1  0
 25 27  1  0
 27 28  1  0
 27 29  1  0
 27 30  1  0
 30 31  1  0
 30 32  1  0
 17 33  2  0
 33 34  1  0
 34 35  2  0
 35 36  1  0
 36 37  1  0
 36 38  1  0
 36 39  1  0
 39 40  1  0
 39 41  1  0
 39 42  1  0
 42 43  1  0
 42 44  1  0
 42 45  1  0
 45 46  1  0
 46 47  1  0
 46 48  1  0
 46 49  1  0
 49 50  1  0
 49 51  1  0
 49 52  1  0
 52 53  1  0
 53 54  1  0
 53 55  1  0
 53 56  1  0
 56 57  1  0
 56 58  1  0
 34 59  1  0
 59 60  1  0
 14 61  1  0
 61 62  1  0
 61 63  1  0
 61 64  1  0
 64 65  1  0
 64 66  1  0
  9  2  1  0
 59 15  1  0
 64  7  1  0
 30 18  1  0
 56 45  1  0
M  END
>  <UniqueID>  (4) 
725

>  <SMILES>  (4) 
c1ccc2c(c1)CCN(c1nc(N3CCNCC3)n/c(=N/CCCN3CCOCC3)[nH]1)C2

>  <Energy>  (4) 
80.6995797965794

>  <Genealogy>  (4) 
c1ccc2c(c1)CCN(c1nc(N3CCNCC3)nc(=NCCCN3CCOCC3)[nH]1)C2 (tautomer)
c1ccc2c(c1)CCN(c1nc(N3CCNCC3)n/c(=N/CCCN3CCOCC3)[nH]1)C2 (cis-trans isomerization)
c1ccc2c(c1)CCN(c1nc(N3CCNCC3)n/c(=N/CCCN3CCOCC3)[nH]1)C2 (3D coordinates assigned)
c1ccc2c(c1)CCN(c1nc(N3CCNCC3)n/c(=N/CCCN3CCOCC3)[nH]1)C2 (nonaromatic ring conformer: 80.6995797965794 kcal/mol)

>  <smiles>  (4) 
c1ccc2c(c1)CCN(c1nc(NCCCN3CCOCC3)nc(N3CCNCC3)n1)C2

>  <score_type>  (4) 
oracle

>  <origin>  (4) 
autodockgpu

>  <m_score__min__energy>  (4) 
-8.7799999999999994

>  <m_primary>  (4) 
energy

>  <meeko>  (4) 
{"free_energy": -8.05, "intermolecular_energy": -10.14, "internal_energy": -0.83, "cluster_size": 11, "cluster_id": 1, "rank_in_cluster": 10}

>  <energy>  (4) 
-8.53

>  <cluster_rmsd>  (4) 
1.05

>  <rmsd>  (4) 
271.04

>  <cluster>  (4) 
1

$$$$
RYCKWQXGCGPPJB-AKFYOTOXNA-N
     RDKit          3D

 66 70  0  0  0  0  0  0  0  0999 V2000
  139.6399   66.3880  227.2206 H   0  0  0  0  0  0  0  0  0  0  0  0
  139.8560   67.3910  226.8240 C   0  0  0  0  0  0  0  0  0  0  0  0
  140.7720   68.2170  227.4770 C   0  0  0  0  0  0  0  0  0  0  0  0
  141.2736   67.8649  228.3905 H   0  0  0  0  0  0  0  0  0  0  0  0
  141.0540   69.4900  226.9740 C   0  0  0  0  0  0  0  0  0  0  0  0
  141.7704   70.1386  227.4995 H   0  0  0  0  0  0  0  0  0  0  0  0
  140.4290   69.9470  225.8020 C   0  0  0  0  0  0  0  0  0  0  0  0
  139.4780   69.1190  225.1550 C   0  0  0  0  0  0  0  0  0  0  0  0
  139.2130   67.8380  225.6660 C   0  0  0  0  0  0  0  0  0  0  0  0
  138.4950   67.1822  225.1518 H   0  0  0  0  0  0  0  0  0  0  0  0
  138.8080   69.5500  223.8740 C   0  0  0  0  0  0  0  0  0  0  0  0
  137.7368   69.3056  223.9265 H   0  0  0  0  0  0  0  0  0  0  0  0
  139.2788   69.0206  223.0325 H   0  0  0  0  0  0  0  0  0  0  0  0
  138.9630   70.9920  223.6700 N   0  0  0  0  0  0  0  0  0  0  0  0
  137.8310   71.8500  223.4540 C   0  0  0  0  0  0  0  0  0  0  0  0
  136.8180   71.8620  224.3560 N   0  0  0  0  0  0  0  0  0  0  0  0
  135.7320   72.6550  224.1690 C   0  0  0  0  0  0  0  0  0  0  0  0
  134.6670   72.6800  225.1440 N   0  0  0  0  0  0  0  0  0  0  0  0
  133.7160   73.8010  225.1640 C   0  0  0  0  0  0  0  0  0  0  0  0
  134.2267   74.7149  224.8264 H   0  0  0  0  0  0  0  0  0  0  0  0
  132.8757   73.5663  224.4941 H   0  0  0  0  0  0  0  0  0  0  0  0
  133.1750   74.0200  226.5770 C   0  0  0  0  0  0  0  0  0  0  0  0
  133.9890   74.3738  227.2268 H   0  0  0  0  0  0  0  0  0  0  0  0
  132.3703   74.7691  226.5408 H   0  0  0  0  0  0  0  0  0  0  0  0
  132.6370   72.7660  227.1140 N   0  0  0  0  0  0  0  0  0  0  0  0
  132.2850   72.9640  228.0800 H   0  0  0  0  0  0  0  0  0  0  0  0
  133.7060   71.7690  227.2290 C   0  0  0  0  0  0  0  0  0  0  0  0
  134.5028   72.1654  227.8754 H   0  0  0  0  0  0  0  0  0  0  0  0
  133.2889   70.8483  227.6630 H   0  0  0  0  0  0  0  0  0  0  0  0
  134.2890   71.4470  225.8500 C   0  0  0  0  0  0  0  0  0  0  0  0
  135.1802   70.8142  225.9737 H   0  0  0  0  0  0  0  0  0  0  0  0
  133.5259   70.9206  225.2579 H   0  0  0  0  0  0  0  0  0  0  0  0
  135.6660   73.4340  223.0580 N   0  0  0  0  0  0  0  0  0  0  0  0
  136.6640   73.4290  222.1410 C   0  0  0  0  0  0  0  0  0  0  0  0
  136.5560   74.1990  221.0980 N   0  0  0  0  0  0  0  0  0  0  0  0
  135.8200   73.8890  219.8730 C   0  0  0  0  0  0  0  0  0  0  0  0
  134.9774   73.2244  220.1145 H   0  0  0  0  0  0  0  0  0  0  0  0
  135.4476   74.8259  219.4331 H   0  0  0  0  0  0  0  0  0  0  0  0
  136.7380   73.1940  218.8610 C   0  0  0  0  0  0  0  0  0  0  0  0
  136.9270   72.1673  219.2075 H   0  0  0  0  0  0  0  0  0  0  0  0
  136.2262   73.2129  217.8875 H   0  0  0  0  0  0  0  0  0  0  0  0
  138.0900   73.9070  218.6820 C   0  0  0  0  0  0  0  0  0  0  0  0
  138.6436   73.4247  217.8629 H   0  0  0  0  0  0  0  0  0  0  0  0
  137.8963   74.9649  218.4513 H   0  0  0  0  0  0  0  0  0  0  0  0
  138.9010   73.8400  219.9160 N   0  0  0  0  0  0  0  0  0  0  0  0
  139.2580   75.1920  220.3900 C   0  0  0  0  0  0  0  0  0  0  0  0
  139.7323   75.7491  219.5686 H   0  0  0  0  0  0  0  0  0  0  0  0
  138.3422   75.7044  220.7198 H   0  0  0  0  0  0  0  0  0  0  0  0
  140.2370   75.1120  221.5790 C   0  0  0  0  0  0  0  0  0  0  0  0
  141.2275   75.4618  221.2524 H   0  0  0  0  0  0  0  0  0  0  0  0
  139.8507   75.7449  222.3915 H   0  0  0  0  0  0  0  0  0  0  0  0
  140.3510   73.7870  222.0590 O   0  0  0  0  0  0  0  0  0  0  0  0
  140.9100   72.9590  221.0530 C   0  0  0  0  0  0  0  0  0  0  0  0
  141.9470   73.2763  220.8690 H   0  0  0  0  0  0  0  0  0  0  0  0
  140.8664   71.9191  221.4091 H   0  0  0  0  0  0  0  0  0  0  0  0
  140.1230   73.0390  219.7270 C   0  0  0  0  0  0  0  0  0  0  0  0
  140.7522   73.5099  218.9574 H   0  0  0  0  0  0  0  0  0  0  0  0
  139.8444   72.0233  219.4097 H   0  0  0  0  0  0  0  0  0  0  0  0
  137.7530   72.6270  222.3390 N   0  0  0  0  0  0  0  0  0  0  0  0
  138.5200   72.5750  221.6340 H   0  0  0  0  0  0  0  0  0  0  0  0
  140.2960   71.5570  223.8600 C   0  0  0  0  0  0  0  0  0  0  0  0
  140.2783   72.6323  223.6288 H   0  0  0  0  0  0  0  0  0  0  0  0
  141.0125   71.0583  223.1907 H   0  0  0  0  0  0  0  0  0  0  0  0
  140.7150   71.3510  225.3170 C   0  0  0  0  0  0  0  0  0  0  0  0
  140.1629   72.0629  225.9482 H   0  0  0  0  0  0  0  0  0  0  0  0
  141.8007   71.5156  225.3821 H   0  0  0  0  0  0  0  0  0  0  0  0
  1  2  1  0
  2  3  2  0
  3  4  1  0
  3  5  1  0
  5  6  1  0
  5  7  2  0
  7  8  1  0
  8  9  2  0
  9 10  1  0
  8 11  1  0
 11 12  1  0
 11 13  1  0
 11 14  1  0
 14 15  1  0
 15 16  2  0
 16 17  1  0
 17 18  1  0
 18 19  1  0
 19 20  1  0
 19 21  1  0
 19 22  1  0
 22 23  1  0
 22 24  1  0
 22 25  1  0
 25 26  1  0
 25 27  1  0
 27 28  1  0
 27 29  1  0
 27 30  1  0
 30 31  1  0
 30 32  1  0
 17 33  2  0
 33 34  1  0
 34 35  2  0
 35 36  1  0
 36 37  1  0
 36 38  1  0
 36 39  1  0
 39 40  1  0
 39 41  1  0
 39 42  1  0
 42 43  1  0
 42 44  1  0
 42 45  1  0
 45 46  1  0
 46 47  1  0
 46 48  1  0
 46 49  1  0
 49 50  1  0
 49 51  1  0
 49 52  1  0
 52 53  1  0
 53 54  1  0
 53 55  1  0
 53 56  1  0
 56 57  1  0
 56 58  1  0
 34 59  1  0
 59 60  1  0
 14 61  1  0
 61 62  1  0
 61 63  1  0
 61 64  1  0
 64 65  1  0
 64 66  1  0
  9  2  1  0
 59 15  1  0
 64  7  1  0
 30 18  1  0
 56 45  1  0
M  END
>  <UniqueID>  (5) 
725

>  <SMILES>  (5) 
c1ccc2c(c1)CCN(c1nc(N3CCNCC3)n/c(=N/CCCN3CCOCC3)[nH]1)C2

>  <Energy>  (5) 
80.6995797965794

>  <Genealogy>  (5) 
c1ccc2c(c1)CCN(c1nc(N3CCNCC3)nc(=NCCCN3CCOCC3)[nH]1)C2 (tautomer)
c1ccc2c(c1)CCN(c1nc(N3CCNCC3)n/c(=N/CCCN3CCOCC3)[nH]1)C2 (cis-trans isomerization)
c1ccc2c(c1)CCN(c1nc(N3CCNCC3)n/c(=N/CCCN3CCOCC3)[nH]1)C2 (3D coordinates assigned)
c1ccc2c(c1)CCN(c1nc(N3CCNCC3)n/c(=N/CCCN3CCOCC3)[nH]1)C2 (nonaromatic ring conformer: 80.6995797965794 kcal/mol)

>  <smiles>  (5) 
c1ccc2c(c1)CCN(c1nc(NCCCN3CCOCC3)nc(N3CCNCC3)n1)C2

>  <score_type>  (5) 
oracle

>  <origin>  (5) 
autodockgpu

>  <m_score__min__energy>  (5) 
-8.7799999999999994

>  <m_primary>  (5) 
energy

>  <meeko>  (5) 
{"free_energy": -6.15, "intermolecular_energy": -8.24, "internal_energy": -2.58, "cluster_size": 3, "cluster_id": 3, "rank_in_cluster": 2}

>  <energy>  (5) 
-8.48

>  <cluster_rmsd>  (5) 
0.59

>  <rmsd>  (5) 
271.2

>  <cluster>  (5) 
1

$$$$
RYCKWQXGCGPPJB-AKFYOTOXNA-N
     RDKit          3D

 66 70  0  0  0  0  0  0  0  0999 V2000
  143.5386   81.7413  223.5308 H   0  0  0  0  0  0  0  0  0  0  0  0
  142.6770   81.0840  223.3420 C   0  0  0  0  0  0  0  0  0  0  0  0
  141.4860   81.2770  224.0430 C   0  0  0  0  0  0  0  0  0  0  0  0
  141.4118   82.0834  224.7874 H   0  0  0  0  0  0  0  0  0  0  0  0
  140.3860   80.4470  223.8010 C   0  0  0  0  0  0  0  0  0  0  0  0
  139.4527   80.5994  224.3629 H   0  0  0  0  0  0  0  0  0  0  0  0
  140.4650   79.4210  222.8460 C   0  0  0  0  0  0  0  0  0  0  0  0
  141.6850   79.2080  222.1550 C   0  0  0  0  0  0  0  0  0  0  0  0
  142.7760   80.0560  222.4000 C   0  0  0  0  0  0  0  0  0  0  0  0
  143.7157   79.9107  221.8469 H   0  0  0  0  0  0  0  0  0  0  0  0
  141.8070   78.1420  221.0940 C   0  0  0  0  0  0  0  0  0  0  0  0
  142.7613   77.6106  221.2241 H   0  0  0  0  0  0  0  0  0  0  0  0
  141.7691   78.6215  220.1047 H   0  0  0  0  0  0  0  0  0  0  0  0
  140.7050   77.1830  221.1950 N   0  0  0  0  0  0  0  0  0  0  0  0
  140.9420   75.7720  221.3170 C   0  0  0  0  0  0  0  0  0  0  0  0
  142.0950   75.2410  220.8390 N   0  0  0  0  0  0  0  0  0  0  0  0
  142.3370   73.9090  220.9300 C   0  0  0  0  0  0  0  0  0  0  0  0
  143.5770   73.3540  220.4400 N   0  0  0  0  0  0  0  0  0  0  0  0
  143.5550   72.2010  219.5290 C   0  0  0  0  0  0  0  0  0  0  0  0
  142.6796   71.5755  219.7581 H   0  0  0  0  0  0  0  0  0  0  0  0
  143.4991   72.5673  218.4933 H   0  0  0  0  0  0  0  0  0  0  0  0
  144.8260   71.3660  219.6900 C   0  0  0  0  0  0  0  0  0  0  0  0
  144.8288   70.8964  220.6847 H   0  0  0  0  0  0  0  0  0  0  0  0
  144.8481   70.5914  218.9093 H   0  0  0  0  0  0  0  0  0  0  0  0
  146.0120   72.2180  219.5530 N   0  0  0  0  0  0  0  0  0  0  0  0
  146.8530   71.6070  219.6760 H   0  0  0  0  0  0  0  0  0  0  0  0
  146.0360   73.2210  220.6220 C   0  0  0  0  0  0  0  0  0  0  0  0
  146.0261   72.7114  221.5968 H   0  0  0  0  0  0  0  0  0  0  0  0
  146.9481   73.8275  220.5203 H   0  0  0  0  0  0  0  0  0  0  0  0
  144.8160   74.1410  220.5220 C   0  0  0  0  0  0  0  0  0  0  0  0
  144.7760   74.7857  221.4124 H   0  0  0  0  0  0  0  0  0  0  0  0
  144.9076   74.7522  219.6120 H   0  0  0  0  0  0  0  0  0  0  0  0
  141.4020   73.1050  221.5020 N   0  0  0  0  0  0  0  0  0  0  0  0
  140.2400   73.6150  221.9770 C   0  0  0  0  0  0  0  0  0  0  0  0
  139.3800   72.8040  222.5220 N   0  0  0  0  0  0  0  0  0  0  0  0
  139.2920   71.3630  222.2920 C   0  0  0  0  0  0  0  0  0  0  0  0
  138.2337   71.0699  222.2283 H   0  0  0  0  0  0  0  0  0  0  0  0
  139.8085   71.1191  221.3519 H   0  0  0  0  0  0  0  0  0  0  0  0
  139.9600   70.5980  223.4400 C   0  0  0  0  0  0  0  0  0  0  0  0
  139.2433   69.8626  223.8342 H   0  0  0  0  0  0  0  0  0  0  0  0
  140.8617   70.1175  223.0326 H   0  0  0  0  0  0  0  0  0  0  0  0
  140.4090   71.5110  224.5940 C   0  0  0  0  0  0  0  0  0  0  0  0
  141.3126   72.0579  224.2868 H   0  0  0  0  0  0  0  0  0  0  0  0
  139.5895   72.2083  224.8227 H   0  0  0  0  0  0  0  0  0  0  0  0
  140.7100   70.7310  225.8130 N   0  0  0  0  0  0  0  0  0  0  0  0
  139.7540   69.6200  225.9800 C   0  0  0  0  0  0  0  0  0  0  0  0
  138.7288   70.0168  225.9411 H   0  0  0  0  0  0  0  0  0  0  0  0
  139.9124   68.8923  225.1704 H   0  0  0  0  0  0  0  0  0  0  0  0
  139.9720   68.9120  227.3330 C   0  0  0  0  0  0  0  0  0  0  0  0
  139.1234   69.1361  227.9961 H   0  0  0  0  0  0  0  0  0  0  0  0
  140.0472   67.8297  227.1517 H   0  0  0  0  0  0  0  0  0  0  0  0
  141.1680   69.3470  227.9510 O   0  0  0  0  0  0  0  0  0  0  0  0
  141.0750   70.7280  228.2560 C   0  0  0  0  0  0  0  0  0  0  0  0
  140.3009   70.8695  229.0246 H   0  0  0  0  0  0  0  0  0  0  0  0
  142.0604   71.0616  228.6133 H   0  0  0  0  0  0  0  0  0  0  0  0
  140.7080   71.5760  227.0190 C   0  0  0  0  0  0  0  0  0  0  0  0
  139.7069   72.0101  227.1584 H   0  0  0  0  0  0  0  0  0  0  0  0
  141.4488   72.3802  226.8987 H   0  0  0  0  0  0  0  0  0  0  0  0
  140.0060   74.9580  221.8810 N   0  0  0  0  0  0  0  0  0  0  0  0
  139.1070   75.3750  222.2050 H   0  0  0  0  0  0  0  0  0  0  0  0
  139.3560   77.7240  221.3380 C   0  0  0  0  0  0  0  0  0  0  0  0
  138.6270   76.9004  221.3529 H   0  0  0  0  0  0  0  0  0  0  0  0
  139.1284   78.3890  220.4919 H   0  0  0  0  0  0  0  0  0  0  0  0
  139.2750   78.5060  222.6500 C   0  0  0  0  0  0  0  0  0  0  0  0
  139.2359   77.7920  223.4859 H   0  0  0  0  0  0  0  0  0  0  0  0
  138.3709   79.1315  222.6145 H   0  0  0  0  0  0  0  0  0  0  0  0
  1  2  1  0
  2  3  2  0
  3  4  1  0
  3  5  1  0
  5  6  1  0
  5  7  2  0
  7  8  1  0
  8  9  2  0
  9 10  1  0
  8 11  1  0
 11 12  1  0
 11 13  1  0
 11 14  1  0
 14 15  1  0
 15 16  2  0
 16 17  1  0
 17 18  1  0
 18 19  1  0
 19 20  1  0
 19 21  1  0
 19 22  1  0
 22 23  1  0
 22 24  1  0
 22 25  1  0
 25 26  1  0
 25 27  1  0
 27 28  1  0
 27 29  1  0
 27 30  1  0
 30 31  1  0
 30 32  1  0
 17 33  2  0
 33 34  1  0
 34 35  2  0
 35 36  1  0
 36 37  1  0
 36 38  1  0
 36 39  1  0
 39 40  1  0
 39 41  1  0
 39 42  1  0
 42 43  1  0
 42 44  1  0
 42 45  1  0
 45 46  1  0
 46 47  1  0
 46 48  1  0
 46 49  1  0
 49 50  1  0
 49 51  1  0
 49 52  1  0
 52 53  1  0
 53 54  1  0
 53 55  1  0
 53 56  1  0
 56 57  1  0
 56 58  1  0
 34 59  1  0
 59 60  1  0
 14 61  1  0
 61 62  1  0
 61 63  1  0
 61 64  1  0
 64 65  1  0
 64 66  1  0
  9  2  1  0
 59 15  1  0
 64  7  1  0
 30 18  1  0
 56 45  1  0
M  END
>  <UniqueID>  (6) 
725

>  <SMILES>  (6) 
c1ccc2c(c1)CCN(c1nc(N3CCNCC3)n/c(=N/CCCN3CCOCC3)[nH]1)C2

>  <Energy>  (6) 
80.6995797965794

>  <Genealogy>  (6) 
c1ccc2c(c1)CCN(c1nc(N3CCNCC3)nc(=NCCCN3CCOCC3)[nH]1)C2 (tautomer)
c1ccc2c(c1)CCN(c1nc(N3CCNCC3)n/c(=N/CCCN3CCOCC3)[nH]1)C2 (cis-trans isomerization)
c1ccc2c(c1)CCN(c1nc(N3CCNCC3)n/c(=N/CCCN3CCOCC3)[nH]1)C2 (3D coordinates assigned)
c1ccc2c(c1)CCN(c1nc(N3CCNCC3)n/c(=N/CCCN3CCOCC3)[nH]1)C2 (nonaromatic ring conformer: 80.6995797965794 kcal/mol)

>  <smiles>  (6) 
c1ccc2c(c1)CCN(c1nc(NCCCN3CCOCC3)nc(N3CCNCC3)n1)C2

>  <score_type>  (6) 
oracle

>  <origin>  (6) 
autodockgpu

>  <m_score__min__energy>  (6) 
-8.7799999999999994

>  <m_primary>  (6) 
energy

>  <meeko>  (6) 
{"free_energy": -8.48, "intermolecular_energy": -10.57, "internal_energy": -0.84, "cluster_size": 11, "cluster_id": 1, "rank_in_cluster": 5}

>  <energy>  (6) 
-8.47

>  <cluster_rmsd>  (6) 
0.77

>  <rmsd>  (6) 
271.02

>  <cluster>  (6) 
1

$$$$
RYCKWQXGCGPPJB-AKFYOTOXNA-N
     RDKit          3D

 66 70  0  0  0  0  0  0  0  0999 V2000
  142.1513   67.8464  227.4029 H   0  0  0  0  0  0  0  0  0  0  0  0
  141.4150   68.2160  226.6740 C   0  0  0  0  0  0  0  0  0  0  0  0
  140.5210   67.3280  226.0750 C   0  0  0  0  0  0  0  0  0  0  0  0
  140.5561   66.2585  226.3298 H   0  0  0  0  0  0  0  0  0  0  0  0
  139.5800   67.7950  225.1510 C   0  0  0  0  0  0  0  0  0  0  0  0
  138.8839   67.0882  224.6757 H   0  0  0  0  0  0  0  0  0  0  0  0
  139.5180   69.1600  224.8260 C   0  0  0  0  0  0  0  0  0  0  0  0
  140.4450   70.0560  225.4150 C   0  0  0  0  0  0  0  0  0  0  0  0
  141.3760   69.5740  226.3490 C   0  0  0  0  0  0  0  0  0  0  0  0
  142.0796   70.2707  226.8282 H   0  0  0  0  0  0  0  0  0  0  0  0
  140.3940   71.5350  225.1260 C   0  0  0  0  0  0  0  0  0  0  0  0
  141.4167   71.9072  224.9663 H   0  0  0  0  0  0  0  0  0  0  0  0
  139.9311   72.0470  225.9825 H   0  0  0  0  0  0  0  0  0  0  0  0
  139.5930   71.8010  223.9290 N   0  0  0  0  0  0  0  0  0  0  0  0
  140.1160   72.5510  222.8220 C   0  0  0  0  0  0  0  0  0  0  0  0
  141.3000   72.1910  222.2670 N   0  0  0  0  0  0  0  0  0  0  0  0
  141.8210   72.8910  221.2270 C   0  0  0  0  0  0  0  0  0  0  0  0
  143.0710   72.4880  220.6260 N   0  0  0  0  0  0  0  0  0  0  0  0
  143.1030   71.3550  219.6900 C   0  0  0  0  0  0  0  0  0  0  0  0
  142.3250   70.6303  219.9720 H   0  0  0  0  0  0  0  0  0  0  0  0
  142.9212   71.7293  218.6718 H   0  0  0  0  0  0  0  0  0  0  0  0
  144.4680   70.6680  219.7280 C   0  0  0  0  0  0  0  0  0  0  0  0
  144.6039   70.1843  220.7066 H   0  0  0  0  0  0  0  0  0  0  0  0
  144.5127   69.9156  218.9268 H   0  0  0  0  0  0  0  0  0  0  0  0
  145.5370   71.6500  219.5210 N   0  0  0  0  0  0  0  0  0  0  0  0
  146.4480   71.1370  219.5610 H   0  0  0  0  0  0  0  0  0  0  0  0
  145.5360   72.6320  220.6100 C   0  0  0  0  0  0  0  0  0  0  0  0
  145.6626   72.1089  221.5693 H   0  0  0  0  0  0  0  0  0  0  0  0
  146.3633   73.3395  220.4519 H   0  0  0  0  0  0  0  0  0  0  0  0
  144.2170   73.4090  220.6300 C   0  0  0  0  0  0  0  0  0  0  0  0
  144.1777   74.0303  221.5369 H   0  0  0  0  0  0  0  0  0  0  0  0
  144.1655   74.0414  219.7314 H   0  0  0  0  0  0  0  0  0  0  0  0
  141.1440   73.9690  220.7510 N   0  0  0  0  0  0  0  0  0  0  0  0
  139.9650   74.3500  221.2980 C   0  0  0  0  0  0  0  0  0  0  0  0
  139.3520   75.3860  220.8010 N   0  0  0  0  0  0  0  0  0  0  0  0
  139.9900   76.5420  220.1750 C   0  0  0  0  0  0  0  0  0  0  0  0
  140.4461   76.2329  219.2229 H   0  0  0  0  0  0  0  0  0  0  0  0
  139.2292   77.3160  219.9958 H   0  0  0  0  0  0  0  0  0  0  0  0
  141.0760   77.1150  221.0930 C   0  0  0  0  0  0  0  0  0  0  0  0
  141.8239   76.3310  221.2826 H   0  0  0  0  0  0  0  0  0  0  0  0
  141.5129   77.9853  220.5814 H   0  0  0  0  0  0  0  0  0  0  0  0
  140.5260   77.6050  222.4450 C   0  0  0  0  0  0  0  0  0  0  0  0
  139.4268   77.5729  222.4175 H   0  0  0  0  0  0  0  0  0  0  0  0
  140.9150   76.9478  223.2367 H   0  0  0  0  0  0  0  0  0  0  0  0
  140.9600   78.9880  222.7320 N   0  0  0  0  0  0  0  0  0  0  0  0
  141.1920   79.7410  221.4840 C   0  0  0  0  0  0  0  0  0  0  0  0
  141.8857   79.1753  220.8446 H   0  0  0  0  0  0  0  0  0  0  0  0
  140.2289   79.8814  220.9714 H   0  0  0  0  0  0  0  0  0  0  0  0
  141.7990   81.1270  221.7880 C   0  0  0  0  0  0  0  0  0  0  0  0
  142.8467   81.1413  221.4532 H   0  0  0  0  0  0  0  0  0  0  0  0
  141.2116   81.8894  221.2553 H   0  0  0  0  0  0  0  0  0  0  0  0
  141.7530   81.4120  223.1720 O   0  0  0  0  0  0  0  0  0  0  0  0
  142.5580   80.4830  223.8800 C   0  0  0  0  0  0  0  0  0  0  0  0
  143.6101   80.6401  223.5999 H   0  0  0  0  0  0  0  0  0  0  0  0
  142.4010   80.6509  224.9557 H   0  0  0  0  0  0  0  0  0  0  0  0
  142.1730   79.0210  223.5670 C   0  0  0  0  0  0  0  0  0  0  0  0
  142.9994   78.5338  223.0287 H   0  0  0  0  0  0  0  0  0  0  0  0
  141.9774   78.4890  224.5097 H   0  0  0  0  0  0  0  0  0  0  0  0
  139.4480   73.6380  222.3440 N   0  0  0  0  0  0  0  0  0  0  0  0
  138.5610   73.9280  222.8090 H   0  0  0  0  0  0  0  0  0  0  0  0
  138.2980   71.1340  223.8280 C   0  0  0  0  0  0  0  0  0  0  0  0
  137.7848   71.4594  222.9111 H   0  0  0  0  0  0  0  0  0  0  0  0
  137.6755   71.3918  224.6975 H   0  0  0  0  0  0  0  0  0  0  0  0
  138.5260   69.6210  223.7810 C   0  0  0  0  0  0  0  0  0  0  0  0
  138.9088   69.3512  222.7857 H   0  0  0  0  0  0  0  0  0  0  0  0
  137.5645   69.1280  223.9872 H   0  0  0  0  0  0  0  0  0  0  0  0
  1  2  1  0
  2  3  2  0
  3  4  1  0
  3  5  1  0
  5  6  1  0
  5  7  2  0
  7  8  1  0
  8  9  2  0
  9 10  1  0
  8 11  1  0
 11 12  1  0
 11 13  1  0
 11 14  1  0
 14 15  1  0
 15 16  2  0
 16 17  1  0
 17 18  1  0
 18 19  1  0
 19 20  1  0
 19 21  1  0
 19 22  1  0
 22 23  1  0
 22 24  1  0
 22 25  1  0
 25 26  1  0
 25 27  1  0
 27 28  1  0
 27 29  1  0
 27 30  1  0
 30 31  1  0
 30 32  1  0
 17 33  2  0
 33 34  1  0
 34 35  2  0
 35 36  1  0
 36 37  1  0
 36 38  1  0
 36 39  1  0
 39 40  1  0
 39 41  1  0
 39 42  1  0
 42 43  1  0
 42 44  1  0
 42 45  1  0
 45 46  1  0
 46 47  1  0
 46 48  1  0
 46 49  1  0
 49 50  1  0
 49 51  1  0
 49 52  1  0
 52 53  1  0
 53 54  1  0
 53 55  1  0
 53 56  1  0
 56 57  1  0
 56 58  1  0
 34 59  1  0
 59 60  1  0
 14 61  1  0
 61 62  1  0
 61 63  1  0
 61 64  1  0
 64 65  1  0
 64 66  1  0
  9  2  1  0
 59 15  1  0
 64  7  1  0
 30 18  1  0
 56 45  1  0
M  END
>  <UniqueID>  (7) 
725

>  <SMILES>  (7) 
c1ccc2c(c1)CCN(c1nc(N3CCNCC3)n/c(=N/CCCN3CCOCC3)[nH]1)C2

>  <Energy>  (7) 
80.6995797965794

>  <Genealogy>  (7) 
c1ccc2c(c1)CCN(c1nc(N3CCNCC3)nc(=NCCCN3CCOCC3)[nH]1)C2 (tautomer)
c1ccc2c(c1)CCN(c1nc(N3CCNCC3)n/c(=N/CCCN3CCOCC3)[nH]1)C2 (cis-trans isomerization)
c1ccc2c(c1)CCN(c1nc(N3CCNCC3)n/c(=N/CCCN3CCOCC3)[nH]1)C2 (3D coordinates assigned)
c1ccc2c(c1)CCN(c1nc(N3CCNCC3)n/c(=N/CCCN3CCOCC3)[nH]1)C2 (nonaromatic ring conformer: 80.6995797965794 kcal/mol)

>  <smiles>  (7) 
c1ccc2c(c1)CCN(c1nc(NCCCN3CCOCC3)nc(N3CCNCC3)n1)C2

>  <score_type>  (7) 
oracle

>  <origin>  (7) 
autodockgpu

>  <m_score__min__energy>  (7) 
-8.7799999999999994

>  <m_primary>  (7) 
energy

>  <meeko>  (7) 
{"free_energy": -8.03, "intermolecular_energy": -10.12, "internal_energy": -0.92, "cluster_size": 2, "cluster_id": 2, "rank_in_cluster": 1}

>  <energy>  (7) 
-8.41

>  <cluster_rmsd>  (7) 
0.47

>  <rmsd>  (7) 
271.11

>  <cluster>  (7) 
1

$$$$
RYCKWQXGCGPPJB-AKFYOTOXNA-N
     RDKit          3D

 66 70  0  0  0  0  0  0  0  0999 V2000
  141.6875   68.1388  227.9764 H   0  0  0  0  0  0  0  0  0  0  0  0
  141.0740   68.3880  227.0980 C   0  0  0  0  0  0  0  0  0  0  0  0
  140.3990   67.3790  226.4110 C   0  0  0  0  0  0  0  0  0  0  0  0
  140.4848   66.3347  226.7457 H   0  0  0  0  0  0  0  0  0  0  0  0
  139.6130   67.6930  225.2970 C   0  0  0  0  0  0  0  0  0  0  0  0
  139.0901   66.8918  224.7542 H   0  0  0  0  0  0  0  0  0  0  0  0
  139.4870   69.0240  224.8670 C   0  0  0  0  0  0  0  0  0  0  0  0
  140.1960   70.0440  225.5490 C   0  0  0  0  0  0  0  0  0  0  0  0
  140.9720   69.7150  226.6720 C   0  0  0  0  0  0  0  0  0  0  0  0
  141.5032   70.5071  227.2201 H   0  0  0  0  0  0  0  0  0  0  0  0
  140.0630   71.4910  225.1470 C   0  0  0  0  0  0  0  0  0  0  0  0
  141.0580   71.9600  225.1521 H   0  0  0  0  0  0  0  0  0  0  0  0
  139.3986   71.9971  225.8628 H   0  0  0  0  0  0  0  0  0  0  0  0
  139.4850   71.6050  223.8070 N   0  0  0  0  0  0  0  0  0  0  0  0
  140.1370   72.3440  222.7630 C   0  0  0  0  0  0  0  0  0  0  0  0
  141.2610   71.8450  222.1890 N   0  0  0  0  0  0  0  0  0  0  0  0
  141.9030   72.5310  221.2090 C   0  0  0  0  0  0  0  0  0  0  0  0
  143.0860   71.9840  220.5860 N   0  0  0  0  0  0  0  0  0  0  0  0
  144.3940   72.6130  220.8170 C   0  0  0  0  0  0  0  0  0  0  0  0
  144.2545   73.6936  220.9678 H   0  0  0  0  0  0  0  0  0  0  0  0
  144.8532   72.1619  221.7090 H   0  0  0  0  0  0  0  0  0  0  0  0
  145.3160   72.3870  219.6180 C   0  0  0  0  0  0  0  0  0  0  0  0
  144.9253   72.9387  218.7502 H   0  0  0  0  0  0  0  0  0  0  0  0
  146.3250   72.7464  219.8685 H   0  0  0  0  0  0  0  0  0  0  0  0
  145.3840   70.9580  219.2930 N   0  0  0  0  0  0  0  0  0  0  0  0
  146.0180   70.8550  218.4670 H   0  0  0  0  0  0  0  0  0  0  0  0
  144.0600   70.4690  218.8970 C   0  0  0  0  0  0  0  0  0  0  0  0
  143.7012   71.0524  218.0363 H   0  0  0  0  0  0  0  0  0  0  0  0
  144.1395   69.4055  218.6277 H   0  0  0  0  0  0  0  0  0  0  0  0
  143.0670   70.6140  220.0530 C   0  0  0  0  0  0  0  0  0  0  0  0
  142.0547   70.3816  219.6907 H   0  0  0  0  0  0  0  0  0  0  0  0
  143.3544   69.9185  220.8553 H   0  0  0  0  0  0  0  0  0  0  0  0
  141.4110   73.7340  220.8130 N   0  0  0  0  0  0  0  0  0  0  0  0
  140.2950   74.2530  221.3800 C   0  0  0  0  0  0  0  0  0  0  0  0
  139.8600   75.4060  220.9600 N   0  0  0  0  0  0  0  0  0  0  0  0
  138.7190   76.1420  221.4990 C   0  0  0  0  0  0  0  0  0  0  0  0
  138.0645   76.4533  220.6715 H   0  0  0  0  0  0  0  0  0  0  0  0
  138.1673   75.4890  222.1913 H   0  0  0  0  0  0  0  0  0  0  0  0
  139.1970   77.3840  222.2600 C   0  0  0  0  0  0  0  0  0  0  0  0
  138.7825   78.2766  221.7686 H   0  0  0  0  0  0  0  0  0  0  0  0
  138.8486   77.2860  223.2988 H   0  0  0  0  0  0  0  0  0  0  0  0
  140.7290   77.5150  222.3010 C   0  0  0  0  0  0  0  0  0  0  0  0
  141.1144   76.9419  223.1571 H   0  0  0  0  0  0  0  0  0  0  0  0
  141.1352   77.1255  221.3559 H   0  0  0  0  0  0  0  0  0  0  0  0
  141.1460   78.9260  222.4400 N   0  0  0  0  0  0  0  0  0  0  0  0
  142.1930   79.0700  223.4690 C   0  0  0  0  0  0  0  0  0  0  0  0
  141.8452   78.6087  224.4051 H   0  0  0  0  0  0  0  0  0  0  0  0
  143.1077   78.5720  223.1149 H   0  0  0  0  0  0  0  0  0  0  0  0
  142.5060   80.5590  223.7240 C   0  0  0  0  0  0  0  0  0  0  0  0
  142.1319   80.8389  224.7198 H   0  0  0  0  0  0  0  0  0  0  0  0
  143.5952   80.7012  223.6650 H   0  0  0  0  0  0  0  0  0  0  0  0
  141.8930   81.3840  222.7520 O   0  0  0  0  0  0  0  0  0  0  0  0
  140.4830   81.2710  222.8470 C   0  0  0  0  0  0  0  0  0  0  0  0
  140.1582   81.6921  223.8099 H   0  0  0  0  0  0  0  0  0  0  0  0
  140.0431   81.8191  222.0008 H   0  0  0  0  0  0  0  0  0  0  0  0
  140.0070   79.8050  222.7600 C   0  0  0  0  0  0  0  0  0  0  0  0
  139.5741   79.5042  223.7254 H   0  0  0  0  0  0  0  0  0  0  0  0
  139.2481   79.7170  221.9686 H   0  0  0  0  0  0  0  0  0  0  0  0
  139.6560   73.5550  222.3650 N   0  0  0  0  0  0  0  0  0  0  0  0
  138.8160   73.9450  222.8460 H   0  0  0  0  0  0  0  0  0  0  0  0
  138.3010   70.8000  223.5160 C   0  0  0  0  0  0  0  0  0  0  0  0
  137.9463   71.0182  222.4979 H   0  0  0  0  0  0  0  0  0  0  0  0
  137.5009   71.0382  224.2324 H   0  0  0  0  0  0  0  0  0  0  0  0
  138.6740   69.3200  223.6250 C   0  0  0  0  0  0  0  0  0  0  0  0
  139.2635   69.0374  222.7403 H   0  0  0  0  0  0  0  0  0  0  0  0
  137.7409   68.7408  223.6868 H   0  0  0  0  0  0  0  0  0  0  0  0
  1  2  1  0
  2  3  2  0
  3  4  1  0
  3  5  1  0
  5  6  1  0
  5  7  2  0
  7  8  1  0
  8  9  2  0
  9 10  1  0
  8 11  1  0
 11 12  1  0
 11 13  1  0
 11 14  1  0
 14 15  1  0
 15 16  2  0
 16 17  1  0
 17 18  1  0
 18 19  1  0
 19 20  1  0
 19 21  1  0
 19 22  1  0
 22 23  1  0
 22 24  1  0
 22 25  1  0
 25 26  1  0
 25 27  1  0
 27 28  1  0
 27 29  1  0
 27 30  1  0
 30 31  1  0
 30 32  1  0
 17 33  2  0
 33 34  1  0
 34 35  2  0
 35 36  1  0
 36 37  1  0
 36 38  1  0
 36 39  1  0
 39 40  1  0
 39 41  1  0
 39 42  1  0
 42 43  1  0
 42 44  1  0
 42 45  1  0
 45 46  1  0
 46 47  1  0
 46 48  1  0
 46 49  1  0
 49 50  1  0
 49 51  1  0
 49 52  1  0
 52 53  1  0
 53 54  1  0
 53 55  1  0
 53 56  1  0
 56 57  1  0
 56 58  1  0
 34 59  1  0
 59 60  1  0
 14 61  1  0
 61 62  1  0
 61 63  1  0
 61 64  1  0
 64 65  1  0
 64 66  1  0
  9  2  1  0
 59 15  1  0
 64  7  1  0
 30 18  1  0
 56 45  1  0
M  END
>  <UniqueID>  (8) 
725

>  <SMILES>  (8) 
c1ccc2c(c1)CCN(c1nc(N3CCNCC3)n/c(=N/CCCN3CCOCC3)[nH]1)C2

>  <Energy>  (8) 
80.6995797965794

>  <Genealogy>  (8) 
c1ccc2c(c1)CCN(c1nc(N3CCNCC3)nc(=NCCCN3CCOCC3)[nH]1)C2 (tautomer)
c1ccc2c(c1)CCN(c1nc(N3CCNCC3)n/c(=N/CCCN3CCOCC3)[nH]1)C2 (cis-trans isomerization)
c1ccc2c(c1)CCN(c1nc(N3CCNCC3)n/c(=N/CCCN3CCOCC3)[nH]1)C2 (3D coordinates assigned)
c1ccc2c(c1)CCN(c1nc(N3CCNCC3)n/c(=N/CCCN3CCOCC3)[nH]1)C2 (nonaromatic ring conformer: 80.6995797965794 kcal/mol)

>  <smiles>  (8) 
c1ccc2c(c1)CCN(c1nc(NCCCN3CCOCC3)nc(N3CCNCC3)n1)C2

>  <score_type>  (8) 
oracle

>  <origin>  (8) 
autodockgpu

>  <m_score__min__energy>  (8) 
-8.7799999999999994

>  <m_primary>  (8) 
energy

>  <meeko>  (8) 
{"free_energy": -7.93, "intermolecular_energy": -10.02, "internal_energy": -0.81, "cluster_size": 2, "cluster_id": 2, "rank_in_cluster": 2}

>  <energy>  (8) 
-8.33

>  <cluster_rmsd>  (8) 
0.78

>  <rmsd>  (8) 
271.01

>  <cluster>  (8) 
1

$$$$
RYCKWQXGCGPPJB-AKFYOTOXNA-N
     RDKit          3D

 66 70  0  0  0  0  0  0  0  0999 V2000
  141.9911   80.9172  223.1199 H   0  0  0  0  0  0  0  0  0  0  0  0
  141.2580   80.1020  223.0310 C   0  0  0  0  0  0  0  0  0  0  0  0
  140.0970   80.1210  223.8050 C   0  0  0  0  0  0  0  0  0  0  0  0
  139.9187   80.9493  224.5065 H   0  0  0  0  0  0  0  0  0  0  0  0
  139.1600   79.0900  223.6910 C   0  0  0  0  0  0  0  0  0  0  0  0
  138.2517   79.1065  224.3113 H   0  0  0  0  0  0  0  0  0  0  0  0
  139.3700   78.0330  222.7900 C   0  0  0  0  0  0  0  0  0  0  0  0
  140.5630   78.0000  222.0260 C   0  0  0  0  0  0  0  0  0  0  0  0
  141.4900   79.0480  222.1430 C   0  0  0  0  0  0  0  0  0  0  0  0
  142.4046   79.0394  221.5319 H   0  0  0  0  0  0  0  0  0  0  0  0
  140.8160   76.9050  221.0200 C   0  0  0  0  0  0  0  0  0  0  0  0
  141.8591   76.5672  221.1088 H   0  0  0  0  0  0  0  0  0  0  0  0
  140.6274   77.3013  220.0114 H   0  0  0  0  0  0  0  0  0  0  0  0
  139.9220   75.7700  221.2540 N   0  0  0  0  0  0  0  0  0  0  0  0
  140.4250   74.4370  221.4360 C   0  0  0  0  0  0  0  0  0  0  0  0
  139.9360   73.6670  222.4400 N   0  0  0  0  0  0  0  0  0  0  0  0
  140.4040   72.4080  222.6400 C   0  0  0  0  0  0  0  0  0  0  0  0
  139.8640   71.5860  223.6970 N   0  0  0  0  0  0  0  0  0  0  0  0
  140.5560   71.5060  224.9920 C   0  0  0  0  0  0  0  0  0  0  0  0
  141.6380   71.6229  224.8321 H   0  0  0  0  0  0  0  0  0  0  0  0
  140.1807   72.3068  225.6461 H   0  0  0  0  0  0  0  0  0  0  0  0
  140.2890   70.1570  225.6590 C   0  0  0  0  0  0  0  0  0  0  0  0
  140.7696   69.3604  225.0720 H   0  0  0  0  0  0  0  0  0  0  0  0
  140.7009   70.1741  226.6788 H   0  0  0  0  0  0  0  0  0  0  0  0
  138.8470   69.9020  225.7310 N   0  0  0  0  0  0  0  0  0  0  0  0
  138.7150   68.9700  226.1880 H   0  0  0  0  0  0  0  0  0  0  0  0
  138.2840   69.8150  224.3800 C   0  0  0  0  0  0  0  0  0  0  0  0
  138.7979   69.0168  223.8243 H   0  0  0  0  0  0  0  0  0  0  0  0
  137.2094   69.5926  224.4559 H   0  0  0  0  0  0  0  0  0  0  0  0
  138.4640   71.1420  223.6380 C   0  0  0  0  0  0  0  0  0  0  0  0
  138.1714   71.0097  222.5859 H   0  0  0  0  0  0  0  0  0  0  0  0
  137.8316   71.9034  224.1178 H   0  0  0  0  0  0  0  0  0  0  0  0
  141.3800   71.9280  221.8250 N   0  0  0  0  0  0  0  0  0  0  0  0
  141.8870   72.6860  220.8220 C   0  0  0  0  0  0  0  0  0  0  0  0
  142.8150   72.1770  220.0640 N   0  0  0  0  0  0  0  0  0  0  0  0
  144.1550   71.7840  220.4930 C   0  0  0  0  0  0  0  0  0  0  0  0
  144.1718   71.6888  221.5887 H   0  0  0  0  0  0  0  0  0  0  0  0
  144.4117   70.8213  220.0268 H   0  0  0  0  0  0  0  0  0  0  0  0
  145.1830   72.8370  220.0610 C   0  0  0  0  0  0  0  0  0  0  0  0
  146.1486   72.5963  220.5297 H   0  0  0  0  0  0  0  0  0  0  0  0
  145.2395   72.8088  218.9628 H   0  0  0  0  0  0  0  0  0  0  0  0
  144.7870   74.2680  220.4630 C   0  0  0  0  0  0  0  0  0  0  0  0
  144.4251   74.2610  221.5017 H   0  0  0  0  0  0  0  0  0  0  0  0
  145.6719   74.9137  220.3629 H   0  0  0  0  0  0  0  0  0  0  0  0
  143.7220   74.7980  219.5860 N   0  0  0  0  0  0  0  0  0  0  0  0
  143.8690   74.2910  218.2080 C   0  0  0  0  0  0  0  0  0  0  0  0
  144.8893   74.4994  217.8535 H   0  0  0  0  0  0  0  0  0  0  0  0
  143.6786   73.2076  218.2076 H   0  0  0  0  0  0  0  0  0  0  0  0
  142.8560   74.9730  217.2650 C   0  0  0  0  0  0  0  0  0  0  0  0
  143.3966   75.6486  216.5857 H   0  0  0  0  0  0  0  0  0  0  0  0
  142.3286   74.1925  216.6970 H   0  0  0  0  0  0  0  0  0  0  0  0
  141.9010   75.7190  217.9940 O   0  0  0  0  0  0  0  0  0  0  0  0
  142.5440   76.7750  218.6870 C   0  0  0  0  0  0  0  0  0  0  0  0
  142.9463   77.4876  217.9519 H   0  0  0  0  0  0  0  0  0  0  0  0
  141.7993   77.2516  219.3414 H   0  0  0  0  0  0  0  0  0  0  0  0
  143.7020   76.2710  219.5760 C   0  0  0  0  0  0  0  0  0  0  0  0
  144.6567   76.6460  219.1787 H   0  0  0  0  0  0  0  0  0  0  0  0
  143.5566   76.6382  220.6027 H   0  0  0  0  0  0  0  0  0  0  0  0
  141.4090   73.9510  220.6280 N   0  0  0  0  0  0  0  0  0  0  0  0
  141.8040   74.5710  219.8880 H   0  0  0  0  0  0  0  0  0  0  0  0
  138.5070   76.0630  221.4640 C   0  0  0  0  0  0  0  0  0  0  0  0
  137.9475   75.1228  221.5776 H   0  0  0  0  0  0  0  0  0  0  0  0
  138.1072   76.6156  220.6010 H   0  0  0  0  0  0  0  0  0  0  0  0
  138.3620   76.9050  222.7340 C   0  0  0  0  0  0  0  0  0  0  0  0
  138.5090   76.2547  223.6089 H   0  0  0  0  0  0  0  0  0  0  0  0
  137.3563   77.3505  222.7310 H   0  0  0  0  0  0  0  0  0  0  0  0
  1  2  1  0
  2  3  2  0
  3  4  1  0
  3  5  1  0
  5  6  1  0
  5  7  2  0
  7  8  1  0
  8  9  2  0
  9 10  1  0
  8 11  1  0
 11 12  1  0
 11 13  1  0
 11 14  1  0
 14 15  1  0
 15 16  2  0
 16 17  1  0
 17 18  1  0
 18 19  1  0
 19 20  1  0
 19 21  1  0
 19 22  1  0
 22 23  1  0
 22 24  1  0
 22 25  1  0
 25 26  1  0
 25 27  1  0
 27 28  1  0
 27 29  1  0
 27 30  1  0
 30 31  1  0
 30 32  1  0
 17 33  2  0
 33 34  1  0
 34 35  2  0
 35 36  1  0
 36 37  1  0
 36 38  1  0
 36 39  1  0
 39 40  1  0
 39 41  1  0
 39 42  1  0
 42 43  1  0
 42 44  1  0
 42 45  1  0
 45 46  1  0
 46 47  1  0
 46 48  1  0
 46 49  1  0
 49 50  1  0
 49 51  1  0
 49 52  1  0
 52 53  1  0
 53 54  1  0
 53 55  1  0
 53 56  1  0
 56 57  1  0
 56 58  1  0
 34 59  1  0
 59 60  1  0
 14 61  1  0
 61 62  1  0
 61 63  1  0
 61 64  1  0
 64 65  1  0
 64 66  1  0
  9  2  1  0
 59 15  1  0
 64  7  1  0
 30 18  1  0
 56 45  1  0
M  END
>  <UniqueID>  (9) 
725

>  <SMILES>  (9) 
c1ccc2c(c1)CCN(c1nc(N3CCNCC3)n/c(=N/CCCN3CCOCC3)[nH]1)C2

>  <Energy>  (9) 
80.6995797965794

>  <Genealogy>  (9) 
c1ccc2c(c1)CCN(c1nc(N3CCNCC3)nc(=NCCCN3CCOCC3)[nH]1)C2 (tautomer)
c1ccc2c(c1)CCN(c1nc(N3CCNCC3)n/c(=N/CCCN3CCOCC3)[nH]1)C2 (cis-trans isomerization)
c1ccc2c(c1)CCN(c1nc(N3CCNCC3)n/c(=N/CCCN3CCOCC3)[nH]1)C2 (3D coordinates assigned)
c1ccc2c(c1)CCN(c1nc(N3CCNCC3)n/c(=N/CCCN3CCOCC3)[nH]1)C2 (nonaromatic ring conformer: 80.6995797965794 kcal/mol)

>  <smiles>  (9) 
c1ccc2c(c1)CCN(c1nc(NCCCN3CCOCC3)nc(N3CCNCC3)n1)C2

>  <score_type>  (9) 
oracle

>  <origin>  (9) 
autodockgpu

>  <m_score__min__energy>  (9) 
-8.7799999999999994

>  <m_primary>  (9) 
energy

>  <meeko>  (9) 
{"free_energy": -6.47, "intermolecular_energy": -8.56, "internal_energy": -2.53, "cluster_size": 1, "cluster_id": 4, "rank_in_cluster": 1}

>  <energy>  (9) 
-8.32

>  <cluster_rmsd>  (9) 
0.99

>  <rmsd>  (9) 
271.04

>  <cluster>  (9) 
1

$$$$
RYCKWQXGCGPPJB-AKFYOTOXNA-N
     RDKit          3D

 66 70  0  0  0  0  0  0  0  0999 V2000
  142.8081   81.5020  223.0724 H   0  0  0  0  0  0  0  0  0  0  0  0
  142.0100   80.7480  223.0050 C   0  0  0  0  0  0  0  0  0  0  0  0
  140.8650   80.8730  223.7930 C   0  0  0  0  0  0  0  0  0  0  0  0
  140.7645   81.7225  224.4845 H   0  0  0  0  0  0  0  0  0  0  0  0
  139.8450   79.9200  223.7050 C   0  0  0  0  0  0  0  0  0  0  0  0
  138.9488   80.0195  224.3350 H   0  0  0  0  0  0  0  0  0  0  0  0
  139.9570   78.8370  222.8180 C   0  0  0  0  0  0  0  0  0  0  0  0
  141.1330   78.6960  222.0400 C   0  0  0  0  0  0  0  0  0  0  0  0
  142.1440   79.6670  222.1310 C   0  0  0  0  0  0  0  0  0  0  0  0
  143.0472   79.5753  221.5098 H   0  0  0  0  0  0  0  0  0  0  0  0
  141.2840   77.5700  221.0480 C   0  0  0  0  0  0  0  0  0  0  0  0
  142.2972   77.1496  221.1303 H   0  0  0  0  0  0  0  0  0  0  0  0
  141.1163   77.9656  220.0354 H   0  0  0  0  0  0  0  0  0  0  0  0
  140.3030   76.5150  221.3100 N   0  0  0  0  0  0  0  0  0  0  0  0
  140.6980   75.1490  221.5060 C   0  0  0  0  0  0  0  0  0  0  0  0
  141.8300   74.6870  220.9170 N   0  0  0  0  0  0  0  0  0  0  0  0
  142.2190   73.3960  221.0770 C   0  0  0  0  0  0  0  0  0  0  0  0
  143.4360   72.9160  220.4660 N   0  0  0  0  0  0  0  0  0  0  0  0
  143.3880   71.7940  219.5180 C   0  0  0  0  0  0  0  0  0  0  0  0
  142.5632   71.1209  219.7950 H   0  0  0  0  0  0  0  0  0  0  0  0
  143.2291   72.1908  218.5044 H   0  0  0  0  0  0  0  0  0  0  0  0
  144.7040   71.0150  219.5440 C   0  0  0  0  0  0  0  0  0  0  0  0
  144.8106   70.5142  220.5176 H   0  0  0  0  0  0  0  0  0  0  0  0
  144.6950   70.2681  218.7365 H   0  0  0  0  0  0  0  0  0  0  0  0
  145.8360   71.9260  219.3410 N   0  0  0  0  0  0  0  0  0  0  0  0
  146.7100   71.3520  219.3720 H   0  0  0  0  0  0  0  0  0  0  0  0
  145.9050   72.8940  220.4400 C   0  0  0  0  0  0  0  0  0  0  0  0
  145.9996   72.3533  221.3932 H   0  0  0  0  0  0  0  0  0  0  0  0
  146.7774   73.5459  220.2856 H   0  0  0  0  0  0  0  0  0  0  0  0
  144.6410   73.7580  220.4740 C   0  0  0  0  0  0  0  0  0  0  0  0
  144.6471   74.3711  221.3873 H   0  0  0  0  0  0  0  0  0  0  0  0
  144.6286   74.4019  219.5823 H   0  0  0  0  0  0  0  0  0  0  0  0
  141.4530   72.5640  221.8310 N   0  0  0  0  0  0  0  0  0  0  0  0
  140.3150   73.0040  222.4190 C   0  0  0  0  0  0  0  0  0  0  0  0
  139.6200   72.1690  223.1370 N   0  0  0  0  0  0  0  0  0  0  0  0
  138.9950   70.9380  222.6590 C   0  0  0  0  0  0  0  0  0  0  0  0
  137.9544   71.1481  222.3710 H   0  0  0  0  0  0  0  0  0  0  0  0
  139.5593   70.5648  221.7917 H   0  0  0  0  0  0  0  0  0  0  0  0
  139.0090   69.8700  223.7580 C   0  0  0  0  0  0  0  0  0  0  0  0
  138.1514   70.0424  224.4249 H   0  0  0  0  0  0  0  0  0  0  0  0
  138.9548   68.8890  223.2633 H   0  0  0  0  0  0  0  0  0  0  0  0
  140.2970   69.8890  224.6010 C   0  0  0  0  0  0  0  0  0  0  0  0
  140.7415   68.8828  224.5988 H   0  0  0  0  0  0  0  0  0  0  0  0
  140.9893   70.6215  224.1604 H   0  0  0  0  0  0  0  0  0  0  0  0
  140.0200   70.2900  225.9970 N   0  0  0  0  0  0  0  0  0  0  0  0
  140.9250   71.3740  226.4260 C   0  0  0  0  0  0  0  0  0  0  0  0
  141.9659   71.0693  226.2422 H   0  0  0  0  0  0  0  0  0  0  0  0
  140.6861   72.2818  225.8526 H   0  0  0  0  0  0  0  0  0  0  0  0
  140.7430   71.6740  227.9280 C   0  0  0  0  0  0  0  0  0  0  0  0
  141.6357   71.3330  228.4728 H   0  0  0  0  0  0  0  0  0  0  0  0
  140.6034   72.7580  228.0525 H   0  0  0  0  0  0  0  0  0  0  0  0
  139.6050   71.0130  228.4470 O   0  0  0  0  0  0  0  0  0  0  0  0
  139.7850   69.6090  228.3600 C   0  0  0  0  0  0  0  0  0  0  0  0
  140.6050   69.3149  229.0316 H   0  0  0  0  0  0  0  0  0  0  0  0
  138.8384   69.1290  228.6490 H   0  0  0  0  0  0  0  0  0  0  0  0
  140.1290   69.1520  226.9260 C   0  0  0  0  0  0  0  0  0  0  0  0
  141.1569   68.7609  226.9046 H   0  0  0  0  0  0  0  0  0  0  0  0
  139.4250   68.3648  226.6183 H   0  0  0  0  0  0  0  0  0  0  0  0
  139.9320   74.3050  222.2530 N   0  0  0  0  0  0  0  0  0  0  0  0
  139.0430   74.6640  222.6640 H   0  0  0  0  0  0  0  0  0  0  0  0
  138.9190   76.9260  221.5330 C   0  0  0  0  0  0  0  0  0  0  0  0
  138.2862   76.0364  221.6680 H   0  0  0  0  0  0  0  0  0  0  0  0
  138.5542   77.4970  220.6665 H   0  0  0  0  0  0  0  0  0  0  0  0
  138.8600   77.7950  222.7910 C   0  0  0  0  0  0  0  0  0  0  0  0
  138.9647   77.1475  223.6740 H   0  0  0  0  0  0  0  0  0  0  0  0
  137.8941   78.3214  222.7928 H   0  0  0  0  0  0  0  0  0  0  0  0
  1  2  1  0
  2  3  2  0
  3  4  1  0
  3  5  1  0
  5  6  1  0
  5  7  2  0
  7  8  1  0
  8  9  2  0
  9 10  1  0
  8 11  1  0
 11 12  1  0
 11 13  1  0
 11 14  1  0
 14 15  1  0
 15 16  2  0
 16 17  1  0
 17 18  1  0
 18 19  1  0
 19 20  1  0
 19 21  1  0
 19 22  1  0
 22 23  1  0
 22 24  1  0
 22 25  1  0
 25 26  1  0
 25 27  1  0
 27 28  1  0
 27 29  1  0
 27 30  1  0
 30 31  1  0
 30 32  1  0
 17 33  2  0
 33 34  1  0
 34 35  2  0
 35 36  1  0
 36 37  1  0
 36 38  1  0
 36 39  1  0
 39 40  1  0
 39 41  1  0
 39 42  1  0
 42 43  1  0
 42 44  1  0
 42 45  1  0
 45 46  1  0
 46 47  1  0
 46 48  1  0
 46 49  1  0
 49 50  1  0
 49 51  1  0
 49 52  1  0
 52 53  1  0
 53 54  1  0
 53 55  1  0
 53 56  1  0
 56 57  1  0
 56 58  1  0
 34 59  1  0
 59 60  1  0
 14 61  1  0
 61 62  1  0
 61 63  1  0
 61 64  1  0
 64 65  1  0
 64 66  1  0
  9  2  1  0
 59 15  1  0
 64  7  1  0
 30 18  1  0
 56 45  1  0
M  END
>  <UniqueID>  (10) 
725

>  <SMILES>  (10) 
c1ccc2c(c1)CCN(c1nc(N3CCNCC3)n/c(=N/CCCN3CCOCC3)[nH]1)C2

>  <Energy>  (10) 
80.6995797965794

>  <Genealogy>  (10) 
c1ccc2c(c1)CCN(c1nc(N3CCNCC3)nc(=NCCCN3CCOCC3)[nH]1)C2 (tautomer)
c1ccc2c(c1)CCN(c1nc(N3CCNCC3)n/c(=N/CCCN3CCOCC3)[nH]1)C2 (cis-trans isomerization)
c1ccc2c(c1)CCN(c1nc(N3CCNCC3)n/c(=N/CCCN3CCOCC3)[nH]1)C2 (3D coordinates assigned)
c1ccc2c(c1)CCN(c1nc(N3CCNCC3)n/c(=N/CCCN3CCOCC3)[nH]1)C2 (nonaromatic ring conformer: 80.6995797965794 kcal/mol)

>  <smiles>  (10) 
c1ccc2c(c1)CCN(c1nc(NCCCN3CCOCC3)nc(N3CCNCC3)n1)C2

>  <score_type>  (10) 
oracle

>  <origin>  (10) 
autodockgpu

>  <m_score__min__energy>  (10) 
-8.7799999999999994

>  <m_primary>  (10) 
energy

>  <meeko>  (10) 
{"free_energy": -8.47, "intermolecular_energy": -10.55, "internal_energy": -0.85, "cluster_size": 11, "cluster_id": 1, "rank_in_cluster": 6}

>  <energy>  (10) 
-8.05

>  <cluster_rmsd>  (10) 
0.8

>  <rmsd>  (10) 
270.91

>  <cluster>  (10) 
1

$$$$
RYCKWQXGCGPPJB-AKFYOTOXNA-N
     RDKit          3D

 66 70  0  0  0  0  0  0  0  0999 V2000
  139.7298   66.4892  227.2655 H   0  0  0  0  0  0  0  0  0  0  0  0
  139.9150   67.4670  226.7970 C   0  0  0  0  0  0  0  0  0  0  0  0
  140.9240   68.2960  227.2890 C   0  0  0  0  0  0  0  0  0  0  0  0
  141.5303   67.9721  228.1478 H   0  0  0  0  0  0  0  0  0  0  0  0
  141.1660   69.5370  226.6930 C   0  0  0  0  0  0  0  0  0  0  0  0
  141.9565   70.1895  227.0921 H   0  0  0  0  0  0  0  0  0  0  0  0
  140.4070   69.9570  225.5880 C   0  0  0  0  0  0  0  0  0  0  0  0
  139.3640   69.1260  225.1070 C   0  0  0  0  0  0  0  0  0  0  0  0
  139.1400   67.8780  225.7100 C   0  0  0  0  0  0  0  0  0  0  0  0
  138.3484   67.2191  225.3236 H   0  0  0  0  0  0  0  0  0  0  0  0
  138.5460   69.5170  223.9020 C   0  0  0  0  0  0  0  0  0  0  0  0
  137.4853   69.3045  224.1012 H   0  0  0  0  0  0  0  0  0  0  0  0
  138.8949   68.9375  223.0345 H   0  0  0  0  0  0  0  0  0  0  0  0
  138.7040   70.9430  223.6100 N   0  0  0  0  0  0  0  0  0  0  0  0
  137.5730   71.8210  223.4980 C   0  0  0  0  0  0  0  0  0  0  0  0
  136.5730   71.7460  224.4120 N   0  0  0  0  0  0  0  0  0  0  0  0
  135.4870   72.5560  224.3210 C   0  0  0  0  0  0  0  0  0  0  0  0
  134.4370   72.4870  225.3090 N   0  0  0  0  0  0  0  0  0  0  0  0
  133.3860   73.5140  225.3350 C   0  0  0  0  0  0  0  0  0  0  0  0
  133.8049   74.4695  224.9864 H   0  0  0  0  0  0  0  0  0  0  0  0
  132.5634   73.1979  224.6767 H   0  0  0  0  0  0  0  0  0  0  0  0
  132.8440   73.6900  226.7540 C   0  0  0  0  0  0  0  0  0  0  0  0
  133.6290   74.1231  227.3914 H   0  0  0  0  0  0  0  0  0  0  0  0
  131.9717   74.3595  226.7238 H   0  0  0  0  0  0  0  0  0  0  0  0
  132.4330   72.3950  227.3050 N   0  0  0  0  0  0  0  0  0  0  0  0
  132.0770   72.5650  228.2740 H   0  0  0  0  0  0  0  0  0  0  0  0
  133.5920   71.5030  227.4110 C   0  0  0  0  0  0  0  0  0  0  0  0
  134.3562   71.9762  228.0451 H   0  0  0  0  0  0  0  0  0  0  0  0
  133.2680   70.5500  227.8547 H   0  0  0  0  0  0  0  0  0  0  0  0
  134.1860   71.2280  226.0260 C   0  0  0  0  0  0  0  0  0  0  0  0
  135.1345   70.6830  226.1416 H   0  0  0  0  0  0  0  0  0  0  0  0
  133.4692   70.6277  225.4465 H   0  0  0  0  0  0  0  0  0  0  0  0
  135.4080   73.4410  223.2930 N   0  0  0  0  0  0  0  0  0  0  0  0
  136.3920   73.5240  222.3650 C   0  0  0  0  0  0  0  0  0  0  0  0
  136.2720   74.3940  221.4040 N   0  0  0  0  0  0  0  0  0  0  0  0
  136.6460   75.8060  221.4710 C   0  0  0  0  0  0  0  0  0  0  0  0
  137.0029   76.1340  220.4835 H   0  0  0  0  0  0  0  0  0  0  0  0
  135.7661   76.3951  221.7688 H   0  0  0  0  0  0  0  0  0  0  0  0
  137.7580   76.0140  222.5050 C   0  0  0  0  0  0  0  0  0  0  0  0
  137.6497   77.0194  222.9380 H   0  0  0  0  0  0  0  0  0  0  0  0
  137.6518   75.2248  223.2639 H   0  0  0  0  0  0  0  0  0  0  0  0
  139.1700   75.8880  221.9070 C   0  0  0  0  0  0  0  0  0  0  0  0
  139.2609   76.5775  221.0547 H   0  0  0  0  0  0  0  0  0  0  0  0
  139.9017   76.1375  222.6895 H   0  0  0  0  0  0  0  0  0  0  0  0
  139.4360   74.5100  221.4420 N   0  0  0  0  0  0  0  0  0  0  0  0
  140.8610   74.1610  221.6070 C   0  0  0  0  0  0  0  0  0  0  0  0
  141.4797   74.9288  221.1194 H   0  0  0  0  0  0  0  0  0  0  0  0
  141.0910   74.1115  222.6815 H   0  0  0  0  0  0  0  0  0  0  0  0
  141.1630   72.7880  220.9710 C   0  0  0  0  0  0  0  0  0  0  0  0
  141.7762   72.9368  220.0700 H   0  0  0  0  0  0  0  0  0  0  0  0
  141.7002   72.1729  221.7079 H   0  0  0  0  0  0  0  0  0  0  0  0
  139.9700   72.1180  220.6120 O   0  0  0  0  0  0  0  0  0  0  0  0
  139.2870   72.8560  219.6130 C   0  0  0  0  0  0  0  0  0  0  0  0
  139.8920   72.8524  218.6943 H   0  0  0  0  0  0  0  0  0  0  0  0
  138.3091   72.3792  219.4507 H   0  0  0  0  0  0  0  0  0  0  0  0
  139.0360   74.3190  220.0370 C   0  0  0  0  0  0  0  0  0  0  0  0
  139.6253   74.9908  219.3955 H   0  0  0  0  0  0  0  0  0  0  0  0
  137.9653   74.5479  219.9312 H   0  0  0  0  0  0  0  0  0  0  0  0
  137.4810   72.7050  222.4660 N   0  0  0  0  0  0  0  0  0  0  0  0
  138.2370   72.7210  221.7480 H   0  0  0  0  0  0  0  0  0  0  0  0
  140.0630   71.4800  223.6030 C   0  0  0  0  0  0  0  0  0  0  0  0
  140.0389   72.5438  223.3241 H   0  0  0  0  0  0  0  0  0  0  0  0
  140.6779   70.9322  222.8737 H   0  0  0  0  0  0  0  0  0  0  0  0
  140.6590   71.3290  225.0030 C   0  0  0  0  0  0  0  0  0  0  0  0
  140.2071   72.0838  225.6634 H   0  0  0  0  0  0  0  0  0  0  0  0
  141.7474   71.4664  224.9226 H   0  0  0  0  0  0  0  0  0  0  0  0
  1  2  1  0
  2  3  2  0
  3  4  1  0
  3  5  1  0
  5  6  1  0
  5  7  2  0
  7  8  1  0
  8  9  2  0
  9 10  1  0
  8 11  1  0
 11 12  1  0
 11 13  1  0
 11 14  1  0
 14 15  1  0
 15 16  2  0
 16 17  1  0
 17 18  1  0
 18 19  1  0
 19 20  1  0
 19 21  1  0
 19 22  1  0
 22 23  1  0
 22 24  1  0
 22 25  1  0
 25 26  1  0
 25 27  1  0
 27 28  1  0
 27 29  1  0
 27 30  1  0
 30 31  1  0
 30 32  1  0
 17 33  2  0
 33 34  1  0
 34 35  2  0
 35 36  1  0
 36 37  1  0
 36 38  1  0
 36 39  1  0
 39 40  1  0
 39 41  1  0
 39 42  1  0
 42 43  1  0
 42 44  1  0
 42 45  1  0
 45 46  1  0
 46 47  1  0
 46 48  1  0
 46 49  1  0
 49 50  1  0
 49 51  1  0
 49 52  1  0
 52 53  1  0
 53 54  1  0
 53 55  1  0
 53 56  1  0
 56 57  1  0
 56 58  1  0
 34 59  1  0
 59 60  1  0
 14 61  1  0
 61 62  1  0
 61 63  1  0
 61 64  1  0
 64 65  1  0
 64 66  1  0
  9  2  1  0
 59 15  1  0
 64  7  1  0
 30 18  1  0
 56 45  1  0
M  END
>  <UniqueID>  (11) 
725

>  <SMILES>  (11) 
c1ccc2c(c1)CCN(c1nc(N3CCNCC3)n/c(=N/CCCN3CCOCC3)[nH]1)C2

>  <Energy>  (11) 
80.6995797965794

>  <Genealogy>  (11) 
c1ccc2c(c1)CCN(c1nc(N3CCNCC3)nc(=NCCCN3CCOCC3)[nH]1)C2 (tautomer)
c1ccc2c(c1)CCN(c1nc(N3CCNCC3)n/c(=N/CCCN3CCOCC3)[nH]1)C2 (cis-trans isomerization)
c1ccc2c(c1)CCN(c1nc(N3CCNCC3)n/c(=N/CCCN3CCOCC3)[nH]1)C2 (3D coordinates assigned)
c1ccc2c(c1)CCN(c1nc(N3CCNCC3)n/c(=N/CCCN3CCOCC3)[nH]1)C2 (nonaromatic ring conformer: 80.6995797965794 kcal/mol)

>  <smiles>  (11) 
c1ccc2c(c1)CCN(c1nc(NCCCN3CCOCC3)nc(N3CCNCC3)n1)C2

>  <score_type>  (11) 
oracle

>  <origin>  (11) 
autodockgpu

>  <m_score__min__energy>  (11) 
-8.7799999999999994

>  <m_primary>  (11) 
energy

>  <meeko>  (11) 
{"free_energy": -6.04, "intermolecular_energy": -8.13, "internal_energy": -2.88, "cluster_size": 3, "cluster_id": 3, "rank_in_cluster": 3}

>  <energy>  (11) 
-7.62

>  <cluster_rmsd>  (11) 
1.25

>  <rmsd>  (11) 
270.65

>  <cluster>  (11) 
1

$$$$
RYCKWQXGCGPPJB-AKFYOTOXNA-N
     RDKit          3D

 66 70  0  0  0  0  0  0  0  0999 V2000
  142.9209   81.3557  222.9207 H   0  0  0  0  0  0  0  0  0  0  0  0
  142.1160   80.6060  222.9110 C   0  0  0  0  0  0  0  0  0  0  0  0
  141.0630   80.7020  223.8220 C   0  0  0  0  0  0  0  0  0  0  0  0
  141.0417   81.5245  224.5521 H   0  0  0  0  0  0  0  0  0  0  0  0
  140.0350   79.7540  223.8080 C   0  0  0  0  0  0  0  0  0  0  0  0
  139.2122   79.8304  224.5341 H   0  0  0  0  0  0  0  0  0  0  0  0
  140.0450   78.7050  222.8740 C   0  0  0  0  0  0  0  0  0  0  0  0
  141.1300   78.5930  221.9690 C   0  0  0  0  0  0  0  0  0  0  0  0
  142.1490   79.5590  221.9870 C   0  0  0  0  0  0  0  0  0  0  0  0
  142.9790   79.4907  221.2684 H   0  0  0  0  0  0  0  0  0  0  0  0
  141.1680   77.5060  220.9240 C   0  0  0  0  0  0  0  0  0  0  0  0
  142.1821   77.0820  220.8804 H   0  0  0  0  0  0  0  0  0  0  0  0
  140.8944   77.9403  219.9511 H   0  0  0  0  0  0  0  0  0  0  0  0
  140.2160   76.4430  221.2500 N   0  0  0  0  0  0  0  0  0  0  0  0
  140.6240   75.0690  221.3500 C   0  0  0  0  0  0  0  0  0  0  0  0
  141.8500   74.6990  220.9040 N   0  0  0  0  0  0  0  0  0  0  0  0
  142.2550   73.4050  220.9760 C   0  0  0  0  0  0  0  0  0  0  0  0
  143.5700   73.0220  220.5200 N   0  0  0  0  0  0  0  0  0  0  0  0
  143.7140   72.0250  219.4500 C   0  0  0  0  0  0  0  0  0  0  0  0
  142.8791   71.3110  219.5059 H   0  0  0  0  0  0  0  0  0  0  0  0
  143.7068   72.5419  218.4790 H   0  0  0  0  0  0  0  0  0  0  0  0
  145.0340   71.2680  219.5970 C   0  0  0  0  0  0  0  0  0  0  0  0
  144.9998   70.6517  220.5075 H   0  0  0  0  0  0  0  0  0  0  0  0
  145.1802   70.6275  218.7148 H   0  0  0  0  0  0  0  0  0  0  0  0
  146.1520   72.2120  219.6930 N   0  0  0  0  0  0  0  0  0  0  0  0
  147.0290   71.6510  219.7980 H   0  0  0  0  0  0  0  0  0  0  0  0
  146.0100   73.0380  220.8960 C   0  0  0  0  0  0  0  0  0  0  0  0
  145.9675   72.3852  221.7803 H   0  0  0  0  0  0  0  0  0  0  0  0
  146.8735   73.7158  220.9658 H   0  0  0  0  0  0  0  0  0  0  0  0
  144.7290   73.8740  220.8250 C   0  0  0  0  0  0  0  0  0  0  0  0
  144.5676   74.3707  221.7931 H   0  0  0  0  0  0  0  0  0  0  0  0
  144.8383   74.6225  220.0263 H   0  0  0  0  0  0  0  0  0  0  0  0
  141.4090   72.4770  221.4950 N   0  0  0  0  0  0  0  0  0  0  0  0
  140.1760   72.8250  221.9380 C   0  0  0  0  0  0  0  0  0  0  0  0
  139.4070   71.9000  222.4330 N   0  0  0  0  0  0  0  0  0  0  0  0
  139.2940   71.5420  223.8460 C   0  0  0  0  0  0  0  0  0  0  0  0
  138.8450   72.3810  224.3978 H   0  0  0  0  0  0  0  0  0  0  0  0
  138.6607   70.6473  223.9381 H   0  0  0  0  0  0  0  0  0  0  0  0
  140.6770   71.2350  224.4310 C   0  0  0  0  0  0  0  0  0  0  0  0
  140.9417   70.1978  224.1779 H   0  0  0  0  0  0  0  0  0  0  0  0
  141.3840   71.9580  223.9981 H   0  0  0  0  0  0  0  0  0  0  0  0
  140.7350   71.3960  225.9600 C   0  0  0  0  0  0  0  0  0  0  0  0
  141.5961   72.0289  226.2208 H   0  0  0  0  0  0  0  0  0  0  0  0
  139.7949   71.8584  226.2953 H   0  0  0  0  0  0  0  0  0  0  0  0
  140.8770   70.0890  226.6350 N   0  0  0  0  0  0  0  0  0  0  0  0
  140.3140   69.0030  225.8090 C   0  0  0  0  0  0  0  0  0  0  0  0
  139.2799   69.2575  225.5336 H   0  0  0  0  0  0  0  0  0  0  0  0
  140.9317   68.8883  224.9061 H   0  0  0  0  0  0  0  0  0  0  0  0
  140.3180   67.6700  226.5860 C   0  0  0  0  0  0  0  0  0  0  0  0
  139.2821   67.3974  226.8361 H   0  0  0  0  0  0  0  0  0  0  0  0
  140.7799   66.8988  225.9520 H   0  0  0  0  0  0  0  0  0  0  0  0
  141.0680   67.7760  227.7800 O   0  0  0  0  0  0  0  0  0  0  0  0
  140.4580   68.7180  228.6470 C   0  0  0  0  0  0  0  0  0  0  0  0
  139.4822   68.3242  228.9677 H   0  0  0  0  0  0  0  0  0  0  0  0
  141.1294   68.8716  229.5047 H   0  0  0  0  0  0  0  0  0  0  0  0
  140.2420   70.0850  227.9640 C   0  0  0  0  0  0  0  0  0  0  0  0
  139.1635   70.2707  227.8532 H   0  0  0  0  0  0  0  0  0  0  0  0
  140.6942   70.8739  228.5831 H   0  0  0  0  0  0  0  0  0  0  0  0
  139.7790   74.1310  221.8610 N   0  0  0  0  0  0  0  0  0  0  0  0
  138.8240   74.4230  222.1610 H   0  0  0  0  0  0  0  0  0  0  0  0
  138.8660   76.8450  221.6360 C   0  0  0  0  0  0  0  0  0  0  0  0
  138.2477   75.9510  221.8045 H   0  0  0  0  0  0  0  0  0  0  0  0
  138.4120   77.4486  220.8362 H   0  0  0  0  0  0  0  0  0  0  0  0
  138.9470   77.6650  222.9250 C   0  0  0  0  0  0  0  0  0  0  0  0
  139.1433   76.9839  223.7662 H   0  0  0  0  0  0  0  0  0  0  0  0
  137.9894   78.1915  223.0505 H   0  0  0  0  0  0  0  0  0  0  0  0
  1  2  1  0
  2  3  2  0
  3  4  1  0
  3  5  1  0
  5  6  1  0
  5  7  2  0
  7  8  1  0
  8  9  2  0
  9 10  1  0
  8 11  1  0
 11 12  1  0
 11 13  1  0
 11 14  1  0
 14 15  1  0
 15 16  2  0
 16 17  1  0
 17 18  1  0
 18 19  1  0
 19 20  1  0
 19 21  1  0
 19 22  1  0
 22 23  1  0
 22 24  1  0
 22 25  1  0
 25 26  1  0
 25 27  1  0
 27 28  1  0
 27 29  1  0
 27 30  1  0
 30 31  1  0
 30 32  1  0
 17 33  2  0
 33 34  1  0
 34 35  2  0
 35 36  1  0
 36 37  1  0
 36 38  1  0
 36 39  1  0
 39 40  1  0
 39 41  1  0
 39 42  1  0
 42 43  1  0
 42 44  1  0
 42 45  1  0
 45 46  1  0
 46 47  1  0
 46 48  1  0
 46 49  1  0
 49 50  1  0
 49 51  1  0
 49 52  1  0
 52 53  1  0
 53 54  1  0
 53 55  1  0
 53 56  1  0
 56 57  1  0
 56 58  1  0
 34 59  1  0
 59 60  1  0
 14 61  1  0
 61 62  1  0
 61 63  1  0
 61 64  1  0
 64 65  1  0
 64 66  1  0
  9  2  1  0
 59 15  1  0
 64  7  1  0
 30 18  1  0
 56 45  1  0
M  END
>  <UniqueID>  (12) 
725

>  <SMILES>  (12) 
c1ccc2c(c1)CCN(c1nc(N3CCNCC3)n/c(=N/CCCN3CCOCC3)[nH]1)C2

>  <Energy>  (12) 
80.6995797965794

>  <Genealogy>  (12) 
c1ccc2c(c1)CCN(c1nc(N3CCNCC3)nc(=NCCCN3CCOCC3)[nH]1)C2 (tautomer)
c1ccc2c(c1)CCN(c1nc(N3CCNCC3)n/c(=N/CCCN3CCOCC3)[nH]1)C2 (cis-trans isomerization)
c1ccc2c(c1)CCN(c1nc(N3CCNCC3)n/c(=N/CCCN3CCOCC3)[nH]1)C2 (3D coordinates assigned)
c1ccc2c(c1)CCN(c1nc(N3CCNCC3)n/c(=N/CCCN3CCOCC3)[nH]1)C2 (nonaromatic ring conformer: 80.6995797965794 kcal/mol)

>  <smiles>  (12) 
c1ccc2c(c1)CCN(c1nc(NCCCN3CCOCC3)nc(N3CCNCC3)n1)C2

>  <score_type>  (12) 
oracle

>  <origin>  (12) 
autodockgpu

>  <m_score__min__energy>  (12) 
-8.7799999999999994

>  <m_primary>  (12) 
energy

>  <meeko>  (12) 
{"free_energy": -8.55, "intermolecular_energy": -10.64, "internal_energy": -0.82, "cluster_size": 11, "cluster_id": 1, "rank_in_cluster": 3}

>  <energy>  (12) 
-8.03

>  <cluster_rmsd>  (12) 
0.0

>  <rmsd>  (12) 
270.73

>  <cluster>  (12) 
2

$$$$
RYCKWQXGCGPPJB-AKFYOTOXNA-N
     RDKit          3D

 66 70  0  0  0  0  0  0  0  0999 V2000
  143.0641   81.4542  222.9374 H   0  0  0  0  0  0  0  0  0  0  0  0
  142.2370   80.7290  222.9460 C   0  0  0  0  0  0  0  0  0  0  0  0
  141.1800   80.8870  223.8440 C   0  0  0  0  0  0  0  0  0  0  0  0
  141.1779   81.7344  224.5454 H   0  0  0  0  0  0  0  0  0  0  0  0
  140.1230   79.9700  223.8540 C   0  0  0  0  0  0  0  0  0  0  0  0
  139.2975   80.0958  224.5700 H   0  0  0  0  0  0  0  0  0  0  0  0
  140.1090   78.8900  222.9560 C   0  0  0  0  0  0  0  0  0  0  0  0
  141.1970   78.7150  222.0640 C   0  0  0  0  0  0  0  0  0  0  0  0
  142.2450   79.6500  222.0580 C   0  0  0  0  0  0  0  0  0  0  0  0
  143.0780   79.5321  221.3493 H   0  0  0  0  0  0  0  0  0  0  0  0
  141.2100   77.5920  221.0570 C   0  0  0  0  0  0  0  0  0  0  0  0
  142.2112   77.1369  221.0364 H   0  0  0  0  0  0  0  0  0  0  0  0
  140.9565   78.0007  220.0677 H   0  0  0  0  0  0  0  0  0  0  0  0
  140.2240   76.5690  221.4110 N   0  0  0  0  0  0  0  0  0  0  0  0
  140.5890   75.1890  221.5610 C   0  0  0  0  0  0  0  0  0  0  0  0
  141.7460   74.7370  221.0140 N   0  0  0  0  0  0  0  0  0  0  0  0
  142.1070   73.4340  221.1310 C   0  0  0  0  0  0  0  0  0  0  0  0
  143.3510   72.9650  220.5660 N   0  0  0  0  0  0  0  0  0  0  0  0
  143.3520   71.8200  219.6440 C   0  0  0  0  0  0  0  0  0  0  0  0
  142.5331   71.1370  219.9140 H   0  0  0  0  0  0  0  0  0  0  0  0
  143.2142   72.1897  218.6172 H   0  0  0  0  0  0  0  0  0  0  0  0
  144.6810   71.0690  219.7250 C   0  0  0  0  0  0  0  0  0  0  0  0
  144.7693   70.5926  220.7125 H   0  0  0  0  0  0  0  0  0  0  0  0
  144.7095   70.3044  218.9347 H   0  0  0  0  0  0  0  0  0  0  0  0
  145.8010   71.9970  219.5330 N   0  0  0  0  0  0  0  0  0  0  0  0
  146.6850   71.4410  219.6020 H   0  0  0  0  0  0  0  0  0  0  0  0
  145.8190   72.9910  220.6110 C   0  0  0  0  0  0  0  0  0  0  0  0
  145.8957   72.4738  221.5788 H   0  0  0  0  0  0  0  0  0  0  0  0
  146.6830   73.6563  220.4664 H   0  0  0  0  0  0  0  0  0  0  0  0
  144.5390   73.8310  220.5890 C   0  0  0  0  0  0  0  0  0  0  0  0
  144.5070   74.4645  221.4877 H   0  0  0  0  0  0  0  0  0  0  0  0
  144.5402   74.4549  219.6830 H   0  0  0  0  0  0  0  0  0  0  0  0
  141.2890   72.5790  221.7990 N   0  0  0  0  0  0  0  0  0  0  0  0
  140.1250   73.0090  222.3440 C   0  0  0  0  0  0  0  0  0  0  0  0
  139.3810   72.1520  222.9800 N   0  0  0  0  0  0  0  0  0  0  0  0
  139.8580   71.0320  223.7900 C   0  0  0  0  0  0  0  0  0  0  0  0
  139.0344   70.6619  224.4182 H   0  0  0  0  0  0  0  0  0  0  0  0
  140.2113   70.2325  223.1222 H   0  0  0  0  0  0  0  0  0  0  0  0
  141.0170   71.4800  224.6880 C   0  0  0  0  0  0  0  0  0  0  0  0
  141.8560   70.7818  224.5515 H   0  0  0  0  0  0  0  0  0  0  0  0
  141.2832   72.5058  224.3932 H   0  0  0  0  0  0  0  0  0  0  0  0
  140.6450   71.5130  226.1810 C   0  0  0  0  0  0  0  0  0  0  0  0
  141.5074   71.8798  226.7569 H   0  0  0  0  0  0  0  0  0  0  0  0
  139.7795   72.1799  226.3081 H   0  0  0  0  0  0  0  0  0  0  0  0
  140.2740   70.1690  226.6730 N   0  0  0  0  0  0  0  0  0  0  0  0
  140.3310   70.1100  228.1460 C   0  0  0  0  0  0  0  0  0  0  0  0
  141.3191   70.4563  228.4833 H   0  0  0  0  0  0  0  0  0  0  0  0
  139.5401   70.7548  228.5567 H   0  0  0  0  0  0  0  0  0  0  0  0
  140.1030   68.6670  228.6430 C   0  0  0  0  0  0  0  0  0  0  0  0
  141.0473   68.2731  229.0470 H   0  0  0  0  0  0  0  0  0  0  0  0
  139.3261   68.6851  229.4215 H   0  0  0  0  0  0  0  0  0  0  0  0
  139.6650   67.8280  227.5920 O   0  0  0  0  0  0  0  0  0  0  0  0
  140.6760   67.7320  226.6020 C   0  0  0  0  0  0  0  0  0  0  0  0
  141.5430   67.2081  227.0307 H   0  0  0  0  0  0  0  0  0  0  0  0
  140.2590   67.1817  225.7457 H   0  0  0  0  0  0  0  0  0  0  0  0
  141.1320   69.1180  226.0980 C   0  0  0  0  0  0  0  0  0  0  0  0
  142.1747   69.2916  226.4023 H   0  0  0  0  0  0  0  0  0  0  0  0
  141.0544   69.1476  225.0011 H   0  0  0  0  0  0  0  0  0  0  0  0
  139.7710   74.3230  222.2210 N   0  0  0  0  0  0  0  0  0  0  0  0
  138.8650   74.6760  222.5990 H   0  0  0  0  0  0  0  0  0  0  0  0
  138.8840   77.0250  221.7710 C   0  0  0  0  0  0  0  0  0  0  0  0
  138.2372   76.1565  221.9644 H   0  0  0  0  0  0  0  0  0  0  0  0
  138.4552   77.6143  220.9471 H   0  0  0  0  0  0  0  0  0  0  0  0
  138.9800   77.8860  223.0320 C   0  0  0  0  0  0  0  0  0  0  0  0
  139.1488   77.2284  223.8975 H   0  0  0  0  0  0  0  0  0  0  0  0
  138.0379   78.4452  223.1306 H   0  0  0  0  0  0  0  0  0  0  0  0
  1  2  1  0
  2  3  2  0
  3  4  1  0
  3  5  1  0
  5  6  1  0
  5  7  2  0
  7  8  1  0
  8  9  2  0
  9 10  1  0
  8 11  1  0
 11 12  1  0
 11 13  1  0
 11 14  1  0
 14 15  1  0
 15 16  2  0
 16 17  1  0
 17 18  1  0
 18 19  1  0
 19 20  1  0
 19 21  1  0
 19 22  1  0
 22 23  1  0
 22 24  1  0
 22 25  1  0
 25 26  1  0
 25 27  1  0
 27 28  1  0
 27 29  1  0
 27 30  1  0
 30 31  1  0
 30 32  1  0
 17 33  2  0
 33 34  1  0
 34 35  2  0
 35 36  1  0
 36 37  1  0
 36 38  1  0
 36 39  1  0
 39 40  1  0
 39 41  1  0
 39 42  1  0
 42 43  1  0
 42 44  1  0
 42 45  1  0
 45 46  1  0
 46 47  1  0
 46 48  1  0
 46 49  1  0
 49 50  1  0
 49 51  1  0
 49 52  1  0
 52 53  1  0
 53 54  1  0
 53 55  1  0
 53 56  1  0
 56 57  1  0
 56 58  1  0
 34 59  1  0
 59 60  1  0
 14 61  1  0
 61 62  1  0
 61 63  1  0
 61 64  1  0
 64 65  1  0
 64 66  1  0
  9  2  1  0
 59 15  1  0
 64  7  1  0
 30 18  1  0
 56 45  1  0
M  END
>  <UniqueID>  (13) 
725

>  <SMILES>  (13) 
c1ccc2c(c1)CCN(c1nc(N3CCNCC3)n/c(=N/CCCN3CCOCC3)[nH]1)C2

>  <Energy>  (13) 
80.6995797965794

>  <Genealogy>  (13) 
c1ccc2c(c1)CCN(c1nc(N3CCNCC3)nc(=NCCCN3CCOCC3)[nH]1)C2 (tautomer)
c1ccc2c(c1)CCN(c1nc(N3CCNCC3)n/c(=N/CCCN3CCOCC3)[nH]1)C2 (cis-trans isomerization)
c1ccc2c(c1)CCN(c1nc(N3CCNCC3)n/c(=N/CCCN3CCOCC3)[nH]1)C2 (3D coordinates assigned)
c1ccc2c(c1)CCN(c1nc(N3CCNCC3)n/c(=N/CCCN3CCOCC3)[nH]1)C2 (nonaromatic ring conformer: 80.6995797965794 kcal/mol)

>  <smiles>  (13) 
c1ccc2c(c1)CCN(c1nc(NCCCN3CCOCC3)nc(N3CCNCC3)n1)C2

>  <score_type>  (13) 
oracle

>  <origin>  (13) 
autodockgpu

>  <m_score__min__energy>  (13) 
-8.7799999999999994

>  <m_primary>  (13) 
energy

>  <meeko>  (13) 
{"free_energy": -8.64, "intermolecular_energy": -10.73, "internal_energy": -0.81, "cluster_size": 11, "cluster_id": 1, "rank_in_cluster": 2}

>  <energy>  (13) 
-7.93

>  <cluster_rmsd>  (13) 
0.76

>  <rmsd>  (13) 
270.65

>  <cluster>  (13) 
2

$$$$
RYCKWQXGCGPPJB-AKFYOTOXNA-N
     RDKit          3D

 66 70  0  0  0  0  0  0  0  0999 V2000
  143.6579   81.5858  223.6380 H   0  0  0  0  0  0  0  0  0  0  0  0
  142.7750   80.9670  223.4200 C   0  0  0  0  0  0  0  0  0  0  0  0
  141.5860   81.1780  224.1190 C   0  0  0  0  0  0  0  0  0  0  0  0
  141.5346   81.9603  224.8906 H   0  0  0  0  0  0  0  0  0  0  0  0
  140.4590   80.3970  223.8410 C   0  0  0  0  0  0  0  0  0  0  0  0
  139.5276   80.5625  224.4023 H   0  0  0  0  0  0  0  0  0  0  0  0
  140.5090   79.4030  222.8500 C   0  0  0  0  0  0  0  0  0  0  0  0
  141.7250   79.1700  222.1610 C   0  0  0  0  0  0  0  0  0  0  0  0
  142.8450   79.9700  222.4430 C   0  0  0  0  0  0  0  0  0  0  0  0
  143.7832   79.8106  221.8912 H   0  0  0  0  0  0  0  0  0  0  0  0
  141.8180   78.1390  221.0650 C   0  0  0  0  0  0  0  0  0  0  0  0
  142.7518   77.5698  221.1828 H   0  0  0  0  0  0  0  0  0  0  0  0
  141.8052   78.6536  220.0929 H   0  0  0  0  0  0  0  0  0  0  0  0
  140.6820   77.2170  221.1250 N   0  0  0  0  0  0  0  0  0  0  0  0
  140.8670   75.7950  221.1980 C   0  0  0  0  0  0  0  0  0  0  0  0
  142.0430   75.2500  220.7980 N   0  0  0  0  0  0  0  0  0  0  0  0
  142.2380   73.9070  220.8460 C   0  0  0  0  0  0  0  0  0  0  0  0
  143.5010   73.3360  220.4410 N   0  0  0  0  0  0  0  0  0  0  0  0
  143.5270   72.2200  219.4840 C   0  0  0  0  0  0  0  0  0  0  0  0
  142.6194   71.6118  219.6122 H   0  0  0  0  0  0  0  0  0  0  0  0
  143.5690   72.6274  218.4631 H   0  0  0  0  0  0  0  0  0  0  0  0
  144.7580   71.3430  219.7180 C   0  0  0  0  0  0  0  0  0  0  0  0
  144.6623   70.8346  220.6888 H   0  0  0  0  0  0  0  0  0  0  0  0
  144.8277   70.6004  218.9095 H   0  0  0  0  0  0  0  0  0  0  0  0
  145.9730   72.1630  219.7190 N   0  0  0  0  0  0  0  0  0  0  0  0
  146.7840   71.5240  219.8880 H   0  0  0  0  0  0  0  0  0  0  0  0
  145.9310   73.1230  220.8260 C   0  0  0  0  0  0  0  0  0  0  0  0
  145.8239   72.5769  221.7748 H   0  0  0  0  0  0  0  0  0  0  0  0
  146.8639   73.7058  220.8271 H   0  0  0  0  0  0  0  0  0  0  0  0
  144.7480   74.0820  220.6600 C   0  0  0  0  0  0  0  0  0  0  0  0
  144.6482   74.6930  221.5692 H   0  0  0  0  0  0  0  0  0  0  0  0
  144.9336   74.7245  219.7867 H   0  0  0  0  0  0  0  0  0  0  0  0
  141.2330   73.1090  221.2940 N   0  0  0  0  0  0  0  0  0  0  0  0
  140.0480   73.6340  221.6890 C   0  0  0  0  0  0  0  0  0  0  0  0
  139.1210   72.8270  222.1160 N   0  0  0  0  0  0  0  0  0  0  0  0
  139.3370   71.5540  222.8010 C   0  0  0  0  0  0  0  0  0  0  0  0
  138.3784   71.1882  223.1977 H   0  0  0  0  0  0  0  0  0  0  0  0
  139.7503   70.8283  222.0851 H   0  0  0  0  0  0  0  0  0  0  0  0
  140.3280   71.7330  223.9580 C   0  0  0  0  0  0  0  0  0  0  0  0
  141.2803   72.1024  223.5497 H   0  0  0  0  0  0  0  0  0  0  0  0
  139.8805   72.4454  224.6667 H   0  0  0  0  0  0  0  0  0  0  0  0
  140.5980   70.4280  224.7270 C   0  0  0  0  0  0  0  0  0  0  0  0
  140.0218   69.6134  224.2639 H   0  0  0  0  0  0  0  0  0  0  0  0
  141.6764   70.2157  224.6829 H   0  0  0  0  0  0  0  0  0  0  0  0
  140.2040   70.5500  226.1470 N   0  0  0  0  0  0  0  0  0  0  0  0
  140.9510   71.6340  226.8140 C   0  0  0  0  0  0  0  0  0  0  0  0
  142.0287   71.4794  226.6570 H   0  0  0  0  0  0  0  0  0  0  0  0
  140.6366   72.5964  226.3840 H   0  0  0  0  0  0  0  0  0  0  0  0
  140.6570   71.6480  228.3280 C   0  0  0  0  0  0  0  0  0  0  0  0
  141.5543   71.3163  228.8710 H   0  0  0  0  0  0  0  0  0  0  0  0
  140.3837   72.6725  228.6207 H   0  0  0  0  0  0  0  0  0  0  0  0
  139.5800   70.7880  228.6470 O   0  0  0  0  0  0  0  0  0  0  0  0
  139.9290   69.4490  228.3410 C   0  0  0  0  0  0  0  0  0  0  0  0
  140.7418   69.1331  229.0115 H   0  0  0  0  0  0  0  0  0  0  0  0
  139.0317   68.8276  228.4774 H   0  0  0  0  0  0  0  0  0  0  0  0
  140.3990   69.2860  226.8800 C   0  0  0  0  0  0  0  0  0  0  0  0
  141.4658   69.0179  226.8677 H   0  0  0  0  0  0  0  0  0  0  0  0
  139.8108   68.4921  226.3965 H   0  0  0  0  0  0  0  0  0  0  0  0
  139.8620   74.9860  221.6370 N   0  0  0  0  0  0  0  0  0  0  0  0
  138.9490   75.4170  221.9000 H   0  0  0  0  0  0  0  0  0  0  0  0
  139.3520   77.8000  221.2770 C   0  0  0  0  0  0  0  0  0  0  0  0
  138.5943   77.0028  221.2587 H   0  0  0  0  0  0  0  0  0  0  0  0
  139.1542   78.5009  220.4526 H   0  0  0  0  0  0  0  0  0  0  0  0
  139.2890   78.5390  222.6150 C   0  0  0  0  0  0  0  0  0  0  0  0
  139.2181   77.7986  223.4254 H   0  0  0  0  0  0  0  0  0  0  0  0
  138.4081   79.1975  222.5954 H   0  0  0  0  0  0  0  0  0  0  0  0
  1  2  1  0
  2  3  2  0
  3  4  1  0
  3  5  1  0
  5  6  1  0
  5  7  2  0
  7  8  1  0
  8  9  2  0
  9 10  1  0
  8 11  1  0
 11 12  1  0
 11 13  1  0
 11 14  1  0
 14 15  1  0
 15 16  2  0
 16 17  1  0
 17 18  1  0
 18 19  1  0
 19 20  1  0
 19 21  1  0
 19 22  1  0
 22 23  1  0
 22 24  1  0
 22 25  1  0
 25 26  1  0
 25 27  1  0
 27 28  1  0
 27 29  1  0
 27 30  1  0
 30 31  1  0
 30 32  1  0
 17 33  2  0
 33 34  1  0
 34 35  2  0
 35 36  1  0
 36 37  1  0
 36 38  1  0
 36 39  1  0
 39 40  1  0
 39 41  1  0
 39 42  1  0
 42 43  1  0
 42 44  1  0
 42 45  1  0
 45 46  1  0
 46 47  1  0
 46 48  1  0
 46 49  1  0
 49 50  1  0
 49 51  1  0
 49 52  1  0
 52 53  1  0
 53 54  1  0
 53 55  1  0
 53 56  1  0
 56 57  1  0
 56 58  1  0
 34 59  1  0
 59 60  1  0
 14 61  1  0
 61 62  1  0
 61 63  1  0
 61 64  1  0
 64 65  1  0
 64 66  1  0
  9  2  1  0
 59 15  1  0
 64  7  1  0
 30 18  1  0
 56 45  1  0
M  END
>  <UniqueID>  (14) 
725

>  <SMILES>  (14) 
c1ccc2c(c1)CCN(c1nc(N3CCNCC3)n/c(=N/CCCN3CCOCC3)[nH]1)C2

>  <Energy>  (14) 
80.6995797965794

>  <Genealogy>  (14) 
c1ccc2c(c1)CCN(c1nc(N3CCNCC3)nc(=NCCCN3CCOCC3)[nH]1)C2 (tautomer)
c1ccc2c(c1)CCN(c1nc(N3CCNCC3)n/c(=N/CCCN3CCOCC3)[nH]1)C2 (cis-trans isomerization)
c1ccc2c(c1)CCN(c1nc(N3CCNCC3)n/c(=N/CCCN3CCOCC3)[nH]1)C2 (3D coordinates assigned)
c1ccc2c(c1)CCN(c1nc(N3CCNCC3)n/c(=N/CCCN3CCOCC3)[nH]1)C2 (nonaromatic ring conformer: 80.6995797965794 kcal/mol)

>  <smiles>  (14) 
c1ccc2c(c1)CCN(c1nc(NCCCN3CCOCC3)nc(N3CCNCC3)n1)C2

>  <score_type>  (14) 
oracle

>  <origin>  (14) 
autodockgpu

>  <m_score__min__energy>  (14) 
-8.7799999999999994

>  <m_primary>  (14) 
energy

>  <meeko>  (14) 
{"free_energy": -8.78, "intermolecular_energy": -10.87, "internal_energy": -0.81, "cluster_size": 11, "cluster_id": 1, "rank_in_cluster": 1}

>  <energy>  (14) 
-6.5

>  <cluster_rmsd>  (14) 
0.0

>  <rmsd>  (14) 
269.24

>  <cluster>  (14) 
3

$$$$
RYCKWQXGCGPPJB-AKFYOTOXNA-N
     RDKit          3D

 66 70  0  0  0  0  0  0  0  0999 V2000
  141.9448   68.1782  227.8894 H   0  0  0  0  0  0  0  0  0  0  0  0
  141.2460   68.4060  227.0710 C   0  0  0  0  0  0  0  0  0  0  0  0
  140.5500   67.3740  226.4410 C   0  0  0  0  0  0  0  0  0  0  0  0
  140.7040   66.3331  226.7616 H   0  0  0  0  0  0  0  0  0  0  0  0
  139.6570   67.6590  225.4030 C   0  0  0  0  0  0  0  0  0  0  0  0
  139.1194   66.8390  224.9043 H   0  0  0  0  0  0  0  0  0  0  0  0
  139.4420   68.9850  224.9930 C   0  0  0  0  0  0  0  0  0  0  0  0
  140.1710   70.0300  225.6150 C   0  0  0  0  0  0  0  0  0  0  0  0
  141.0560   69.7290  226.6630 C   0  0  0  0  0  0  0  0  0  0  0  0
  141.6032   70.5399  227.1660 H   0  0  0  0  0  0  0  0  0  0  0  0
  139.9480   71.4730  225.2350 C   0  0  0  0  0  0  0  0  0  0  0  0
  140.9209   71.9797  225.1537 H   0  0  0  0  0  0  0  0  0  0  0  0
  139.3323   71.9523  226.0103 H   0  0  0  0  0  0  0  0  0  0  0  0
  139.2480   71.5670  223.9520 N   0  0  0  0  0  0  0  0  0  0  0  0
  139.7760   72.3330  222.8590 C   0  0  0  0  0  0  0  0  0  0  0  0
  140.9960   72.0250  222.3510 N   0  0  0  0  0  0  0  0  0  0  0  0
  141.5230   72.7410  221.3250 C   0  0  0  0  0  0  0  0  0  0  0  0
  142.8120   72.3940  220.7750 N   0  0  0  0  0  0  0  0  0  0  0  0
  142.9320   71.2590  219.8490 C   0  0  0  0  0  0  0  0  0  0  0  0
  142.1775   70.5009  220.1059 H   0  0  0  0  0  0  0  0  0  0  0  0
  142.7730   71.6195  218.8220 H   0  0  0  0  0  0  0  0  0  0  0  0
  144.3250   70.6350  219.9440 C   0  0  0  0  0  0  0  0  0  0  0  0
  144.4455   70.1638  220.9307 H   0  0  0  0  0  0  0  0  0  0  0  0
  144.4348   69.8804  219.1513 H   0  0  0  0  0  0  0  0  0  0  0  0
  145.3550   71.6650  219.7700 N   0  0  0  0  0  0  0  0  0  0  0  0
  146.2860   71.1940  219.8480 H   0  0  0  0  0  0  0  0  0  0  0  0
  145.2670   72.6510  220.8510 C   0  0  0  0  0  0  0  0  0  0  0  0
  145.3808   72.1390  221.8179 H   0  0  0  0  0  0  0  0  0  0  0  0
  146.0662   73.3952  220.7193 H   0  0  0  0  0  0  0  0  0  0  0  0
  143.9130   73.3670  220.8160 C   0  0  0  0  0  0  0  0  0  0  0  0
  143.8107   73.9904  221.7165 H   0  0  0  0  0  0  0  0  0  0  0  0
  143.8666   73.9921  219.9120 H   0  0  0  0  0  0  0  0  0  0  0  0
  140.8150   73.7840  220.8150 N   0  0  0  0  0  0  0  0  0  0  0  0
  139.5990   74.1130  221.3150 C   0  0  0  0  0  0  0  0  0  0  0  0
  138.9580   75.1140  220.7860 N   0  0  0  0  0  0  0  0  0  0  0  0
  139.1740   76.5280  221.0880 C   0  0  0  0  0  0  0  0  0  0  0  0
  140.2536   76.7389  221.0843 H   0  0  0  0  0  0  0  0  0  0  0  0
  138.6679   77.1379  220.3251 H   0  0  0  0  0  0  0  0  0  0  0  0
  138.5960   76.8730  222.4660 C   0  0  0  0  0  0  0  0  0  0  0  0
  139.0853   76.2387  223.2198 H   0  0  0  0  0  0  0  0  0  0  0  0
  138.7845   77.9422  222.6428 H   0  0  0  0  0  0  0  0  0  0  0  0
  137.0750   76.6540  222.5540 C   0  0  0  0  0  0  0  0  0  0  0  0
  136.6722   77.2638  223.3762 H   0  0  0  0  0  0  0  0  0  0  0  0
  136.6259   76.9490  221.5942 H   0  0  0  0  0  0  0  0  0  0  0  0
  136.7500   75.2340  222.8040 N   0  0  0  0  0  0  0  0  0  0  0  0
  136.1640   74.6050  221.6040 C   0  0  0  0  0  0  0  0  0  0  0  0
  135.3112   75.2086  221.2598 H   0  0  0  0  0  0  0  0  0  0  0  0
  136.9345   74.5515  220.8207 H   0  0  0  0  0  0  0  0  0  0  0  0
  135.6780   73.1760  221.9200 C   0  0  0  0  0  0  0  0  0  0  0  0
  134.5782   73.1593  221.9045 H   0  0  0  0  0  0  0  0  0  0  0  0
  136.0867   72.4930  221.1608 H   0  0  0  0  0  0  0  0  0  0  0  0
  136.1280   72.7530  223.1920 O   0  0  0  0  0  0  0  0  0  0  0  0
  135.5640   73.5760  224.1990 C   0  0  0  0  0  0  0  0  0  0  0  0
  134.4766   73.4119  224.2225 H   0  0  0  0  0  0  0  0  0  0  0  0
  136.0311   73.3046  225.1572 H   0  0  0  0  0  0  0  0  0  0  0  0
  135.8350   75.0750  223.9480 C   0  0  0  0  0  0  0  0  0  0  0  0
  134.8856   75.5858  223.7296 H   0  0  0  0  0  0  0  0  0  0  0  0
  136.2960   75.5150  224.8446 H   0  0  0  0  0  0  0  0  0  0  0  0
  139.0780   73.3840  222.3470 N   0  0  0  0  0  0  0  0  0  0  0  0
  138.1600   73.6350  222.7760 H   0  0  0  0  0  0  0  0  0  0  0  0
  138.0750   70.7180  223.7640 C   0  0  0  0  0  0  0  0  0  0  0  0
  137.6224   70.9245  222.7829 H   0  0  0  0  0  0  0  0  0  0  0  0
  137.3342   70.9238  224.5507 H   0  0  0  0  0  0  0  0  0  0  0  0
  138.5120   69.2530  223.8310 C   0  0  0  0  0  0  0  0  0  0  0  0
  139.0307   68.9953  222.8958 H   0  0  0  0  0  0  0  0  0  0  0  0
  137.6105   68.6386  223.9723 H   0  0  0  0  0  0  0  0  0  0  0  0
  1  2  1  0
  2  3  2  0
  3  4  1  0
  3  5  1  0
  5  6  1  0
  5  7  2  0
  7  8  1  0
  8  9  2  0
  9 10  1  0
  8 11  1  0
 11 12  1  0
 11 13  1  0
 11 14  1  0
 14 15  1  0
 15 16  2  0
 16 17  1  0
 17 18  1  0
 18 19  1  0
 19 20  1  0
 19 21  1  0
 19 22  1  0
 22 23  1  0
 22 24  1  0
 22 25  1  0
 25 26  1  0
 25 27  1  0
 27 28  1  0
 27 29  1  0
 27 30  1  0
 30 31  1  0
 30 32  1  0
 17 33  2  0
 33 34  1  0
 34 35  2  0
 35 36  1  0
 36 37  1  0
 36 38  1  0
 36 39  1  0
 39 40  1  0
 39 41  1  0
 39 42  1  0
 42 43  1  0
 42 44  1  0
 42 45  1  0
 45 46  1  0
 46 47  1  0
 46 48  1  0
 46 49  1  0
 49 50  1  0
 49 51  1  0
 49 52  1  0
 52 53  1  0
 53 54  1  0
 53 55  1  0
 53 56  1  0
 56 57  1  0
 56 58  1  0
 34 59  1  0
 59 60  1  0
 14 61  1  0
 61 62  1  0
 61 63  1  0
 61 64  1  0
 64 65  1  0
 64 66  1  0
  9  2  1  0
 59 15  1  0
 64  7  1  0
 30 18  1  0
 56 45  1  0
M  END
>  <UniqueID>  (15) 
725

>  <SMILES>  (15) 
c1ccc2c(c1)CCN(c1nc(N3CCNCC3)n/c(=N/CCCN3CCOCC3)[nH]1)C2

>  <Energy>  (15) 
80.6995797965794

>  <Genealogy>  (15) 
c1ccc2c(c1)CCN(c1nc(N3CCNCC3)nc(=NCCCN3CCOCC3)[nH]1)C2 (tautomer)
c1ccc2c(c1)CCN(c1nc(N3CCNCC3)n/c(=N/CCCN3CCOCC3)[nH]1)C2 (cis-trans isomerization)
c1ccc2c(c1)CCN(c1nc(N3CCNCC3)n/c(=N/CCCN3CCOCC3)[nH]1)C2 (3D coordinates assigned)
c1ccc2c(c1)CCN(c1nc(N3CCNCC3)n/c(=N/CCCN3CCOCC3)[nH]1)C2 (nonaromatic ring conformer: 80.6995797965794 kcal/mol)

>  <smiles>  (15) 
c1ccc2c(c1)CCN(c1nc(NCCCN3CCOCC3)nc(N3CCNCC3)n1)C2

>  <score_type>  (15) 
oracle

>  <origin>  (15) 
autodockgpu

>  <m_score__min__energy>  (15) 
-8.7799999999999994

>  <m_primary>  (15) 
energy

>  <meeko>  (15) 
{"free_energy": -6.33, "intermolecular_energy": -8.42, "internal_energy": -2.71, "cluster_size": 1, "cluster_id": 5, "rank_in_cluster": 1}

>  <energy>  (15) 
-6.15

>  <cluster_rmsd>  (15) 
0.87

>  <rmsd>  (15) 
269.38

>  <cluster>  (15) 
3

$$$$
RYCKWQXGCGPPJB-AKFYOTOXNA-N
     RDKit          3D

 66 70  0  0  0  0  0  0  0  0999 V2000
  143.3033   83.2908  217.8217 H   0  0  0  0  0  0  0  0  0  0  0  0
  142.5850   82.4580  217.8430 C   0  0  0  0  0  0  0  0  0  0  0  0
  141.2150   82.7200  217.8610 C   0  0  0  0  0  0  0  0  0  0  0  0
  140.8550   83.7594  217.8586 H   0  0  0  0  0  0  0  0  0  0  0  0
  140.2980   81.6640  217.8820 C   0  0  0  0  0  0  0  0  0  0  0  0
  139.2192   81.8775  217.9049 H   0  0  0  0  0  0  0  0  0  0  0  0
  140.7460   80.3320  217.8740 C   0  0  0  0  0  0  0  0  0  0  0  0
  142.1380   80.0680  217.8850 C   0  0  0  0  0  0  0  0  0  0  0  0
  143.0460   81.1390  217.8520 C   0  0  0  0  0  0  0  0  0  0  0  0
  144.1273   80.9381  217.8331 H   0  0  0  0  0  0  0  0  0  0  0  0
  142.6670   78.6560  217.8400 C   0  0  0  0  0  0  0  0  0  0  0  0
  143.4955   78.5574  218.5569 H   0  0  0  0  0  0  0  0  0  0  0  0
  143.0185   78.4416  216.8200 H   0  0  0  0  0  0  0  0  0  0  0  0
  141.6140   77.6990  218.1870 N   0  0  0  0  0  0  0  0  0  0  0  0
  141.7860   76.7360  219.2380 C   0  0  0  0  0  0  0  0  0  0  0  0
  142.8320   75.8730  219.1930 N   0  0  0  0  0  0  0  0  0  0  0  0
  143.0100   74.9450  220.1680 C   0  0  0  0  0  0  0  0  0  0  0  0
  144.1370   74.0440  220.1250 N   0  0  0  0  0  0  0  0  0  0  0  0
  144.1860   72.9770  219.1150 C   0  0  0  0  0  0  0  0  0  0  0  0
  143.1616   72.6488  218.8851 H   0  0  0  0  0  0  0  0  0  0  0  0
  144.6715   73.3672  218.2084 H   0  0  0  0  0  0  0  0  0  0  0  0
  144.9920   71.7850  219.6340 C   0  0  0  0  0  0  0  0  0  0  0  0
  144.4485   71.3137  220.4661 H   0  0  0  0  0  0  0  0  0  0  0  0
  145.1290   71.0616  218.8167 H   0  0  0  0  0  0  0  0  0  0  0  0
  146.3080   72.2290  220.1050 N   0  0  0  0  0  0  0  0  0  0  0  0
  146.8170   71.3840  220.4540 H   0  0  0  0  0  0  0  0  0  0  0  0
  146.1530   73.1490  221.2360 C   0  0  0  0  0  0  0  0  0  0  0  0
  145.5957   72.6447  222.0391 H   0  0  0  0  0  0  0  0  0  0  0  0
  147.1504   73.4440  221.5940 H   0  0  0  0  0  0  0  0  0  0  0  0
  145.3900   74.4050  220.8050 C   0  0  0  0  0  0  0  0  0  0  0  0
  145.1572   75.0091  221.6943 H   0  0  0  0  0  0  0  0  0  0  0  0
  146.0183   74.9788  220.1078 H   0  0  0  0  0  0  0  0  0  0  0  0
  142.1180   74.8840  221.1920 N   0  0  0  0  0  0  0  0  0  0  0  0
  141.0630   75.7320  221.2500 C   0  0  0  0  0  0  0  0  0  0  0  0
  140.2420   75.6380  222.2560 N   0  0  0  0  0  0  0  0  0  0  0  0
  138.8330   76.0250  222.2540 C   0  0  0  0  0  0  0  0  0  0  0  0
  138.4331   75.9335  221.2334 H   0  0  0  0  0  0  0  0  0  0  0  0
  138.2795   75.3634  222.9366 H   0  0  0  0  0  0  0  0  0  0  0  0
  138.6780   77.4750  222.7300 C   0  0  0  0  0  0  0  0  0  0  0  0
  137.6929   77.5836  223.2073 H   0  0  0  0  0  0  0  0  0  0  0  0
  139.4999   77.6799  223.4317 H   0  0  0  0  0  0  0  0  0  0  0  0
  138.7840   78.4990  221.5870 C   0  0  0  0  0  0  0  0  0  0  0  0
  138.5752   77.9935  220.6326 H   0  0  0  0  0  0  0  0  0  0  0  0
  138.0538   79.3010  221.7707 H   0  0  0  0  0  0  0  0  0  0  0  0
  140.1330   79.1010  221.5280 N   0  0  0  0  0  0  0  0  0  0  0  0
  140.9250   78.7450  222.7210 C   0  0  0  0  0  0  0  0  0  0  0  0
  140.3544   79.0063  223.6244 H   0  0  0  0  0  0  0  0  0  0  0  0
  141.1313   77.6648  222.6989 H   0  0  0  0  0  0  0  0  0  0  0  0
  142.2670   79.5060  222.7320 C   0  0  0  0  0  0  0  0  0  0  0  0
  142.2465   80.2584  223.5342 H   0  0  0  0  0  0  0  0  0  0  0  0
  143.0774   78.7816  222.9010 H   0  0  0  0  0  0  0  0  0  0  0  0
  142.4960   80.1550  221.4960 O   0  0  0  0  0  0  0  0  0  0  0  0
  141.5020   81.1430  221.2810 C   0  0  0  0  0  0  0  0  0  0  0  0
  141.6209   81.9351  222.0349 H   0  0  0  0  0  0  0  0  0  0  0  0
  141.6323   81.5372  220.2624 H   0  0  0  0  0  0  0  0  0  0  0  0
  140.0740   80.5660  221.3870 C   0  0  0  0  0  0  0  0  0  0  0  0
  139.5711   80.9968  222.2654 H   0  0  0  0  0  0  0  0  0  0  0  0
  139.5131   80.8192  220.4752 H   0  0  0  0  0  0  0  0  0  0  0  0
  140.8930   76.6620  220.2640 N   0  0  0  0  0  0  0  0  0  0  0  0
  140.0710   77.3050  220.2620 H   0  0  0  0  0  0  0  0  0  0  0  0
  140.3160   77.8660  217.5390 C   0  0  0  0  0  0  0  0  0  0  0  0
  139.6400   77.0563  217.8512 H   0  0  0  0  0  0  0  0  0  0  0  0
  140.4366   77.8312  216.4462 H   0  0  0  0  0  0  0  0  0  0  0  0
  139.7280   79.2150  217.9540 C   0  0  0  0  0  0  0  0  0  0  0  0
  139.3655   79.1397  218.9898 H   0  0  0  0  0  0  0  0  0  0  0  0
  138.9093   79.4542  217.2594 H   0  0  0  0  0  0  0  0  0  0  0  0
  1  2  1  0
  2  3  2  0
  3  4  1  0
  3  5  1  0
  5  6  1  0
  5  7  2  0
  7  8  1  0
  8  9  2  0
  9 10  1  0
  8 11  1  0
 11 12  1  0
 11 13  1  0
 11 14  1  0
 14 15  1  0
 15 16  2  0
 16 17  1  0
 17 18  1  0
 18 19  1  0
 19 20  1  0
 19 21  1  0
 19 22  1  0
 22 23  1  0
 22 24  1  0
 22 25  1  0
 25 26  1  0
 25 27  1  0
 27 28  1  0
 27 29  1  0
 27 30  1  0
 30 31  1  0
 30 32  1  0
 17 33  2  0
 33 34  1  0
 34 35  2  0
 35 36  1  0
 36 37  1  0
 36 38  1  0
 36 39  1  0
 39 40  1  0
 39 41  1  0
 39 42  1  0
 42 43  1  0
 42 44  1  0
 42 45  1  0
 45 46  1  0
 46 47  1  0
 46 48  1  0
 46 49  1  0
 49 50  1  0
 49 51  1  0
 49 52  1  0
 52 53  1  0
 53 54  1  0
 53 55  1  0
 53 56  1  0
 56 57  1  0
 56 58  1  0
 34 59  1  0
 59 60  1  0
 14 61  1  0
 61 62  1  0
 61 63  1  0
 61 64  1  0
 64 65  1  0
 64 66  1  0
  9  2  1  0
 59 15  1  0
 64  7  1  0
 30 18  1  0
 56 45  1  0
M  END
>  <UniqueID>  (16) 
725

>  <SMILES>  (16) 
c1ccc2c(c1)CCN(c1nc(N3CCNCC3)n/c(=N/CCCN3CCOCC3)[nH]1)C2

>  <Energy>  (16) 
80.6995797965794

>  <Genealogy>  (16) 
c1ccc2c(c1)CCN(c1nc(N3CCNCC3)nc(=NCCCN3CCOCC3)[nH]1)C2 (tautomer)
c1ccc2c(c1)CCN(c1nc(N3CCNCC3)n/c(=N/CCCN3CCOCC3)[nH]1)C2 (cis-trans isomerization)
c1ccc2c(c1)CCN(c1nc(N3CCNCC3)n/c(=N/CCCN3CCOCC3)[nH]1)C2 (3D coordinates assigned)
c1ccc2c(c1)CCN(c1nc(N3CCNCC3)n/c(=N/CCCN3CCOCC3)[nH]1)C2 (nonaromatic ring conformer: 80.6995797965794 kcal/mol)

>  <smiles>  (16) 
c1ccc2c(c1)CCN(c1nc(NCCCN3CCOCC3)nc(N3CCNCC3)n1)C2

>  <score_type>  (16) 
oracle

>  <origin>  (16) 
autodockgpu

>  <m_score__min__energy>  (16) 
-8.7799999999999994

>  <m_primary>  (16) 
energy

>  <meeko>  (16) 
{"free_energy": -5.85, "intermolecular_energy": -7.94, "internal_energy": -2.84, "cluster_size": 2, "cluster_id": 6, "rank_in_cluster": 2}

>  <energy>  (16) 
-6.04

>  <cluster_rmsd>  (16) 
1.15

>  <rmsd>  (16) 
269.59

>  <cluster>  (16) 
3

$$$$
RYCKWQXGCGPPJB-AKFYOTOXNA-N
     RDKit          3D

 66 70  0  0  0  0  0  0  0  0999 V2000
  143.2981   81.9564  222.8916 H   0  0  0  0  0  0  0  0  0  0  0  0
  142.4720   81.2300  222.8950 C   0  0  0  0  0  0  0  0  0  0  0  0
  141.4580   81.3320  223.8480 C   0  0  0  0  0  0  0  0  0  0  0  0
  141.4885   82.1366  224.5974 H   0  0  0  0  0  0  0  0  0  0  0  0
  140.4030   80.4140  223.8530 C   0  0  0  0  0  0  0  0  0  0  0  0
  139.6122   80.4951  224.6133 H   0  0  0  0  0  0  0  0  0  0  0  0
  140.3460   79.3890  222.8940 C   0  0  0  0  0  0  0  0  0  0  0  0
  141.3920   79.2700  221.9440 C   0  0  0  0  0  0  0  0  0  0  0  0
  142.4390   80.2060  221.9450 C   0  0  0  0  0  0  0  0  0  0  0  0
  143.2383   80.1325  221.1929 H   0  0  0  0  0  0  0  0  0  0  0  0
  141.3570   78.2080  220.8730 C   0  0  0  0  0  0  0  0  0  0  0  0
  142.3555   77.7561  220.7796 H   0  0  0  0  0  0  0  0  0  0  0  0
  141.0589   78.6739  219.9222 H   0  0  0  0  0  0  0  0  0  0  0  0
  140.3870   77.1650  221.2110 N   0  0  0  0  0  0  0  0  0  0  0  0
  140.7580   75.7780  221.2610 C   0  0  0  0  0  0  0  0  0  0  0  0
  141.8680   75.3560  220.6050 N   0  0  0  0  0  0  0  0  0  0  0  0
  142.2320   74.0480  220.6270 C   0  0  0  0  0  0  0  0  0  0  0  0
  143.4270   73.6090  219.9450 N   0  0  0  0  0  0  0  0  0  0  0  0
  144.5870   73.1480  220.7210 C   0  0  0  0  0  0  0  0  0  0  0  0
  144.6206   73.6893  221.6780 H   0  0  0  0  0  0  0  0  0  0  0  0
  144.4886   72.0671  220.9000 H   0  0  0  0  0  0  0  0  0  0  0  0
  145.8830   73.4060  219.9510 C   0  0  0  0  0  0  0  0  0  0  0  0
  146.0508   74.4905  219.8752 H   0  0  0  0  0  0  0  0  0  0  0  0
  146.7191   72.9331  220.4870 H   0  0  0  0  0  0  0  0  0  0  0  0
  145.7940   72.8340  218.6030 N   0  0  0  0  0  0  0  0  0  0  0  0
  146.6970   73.0400  218.1150 H   0  0  0  0  0  0  0  0  0  0  0  0
  144.7240   73.4930  217.8470 C   0  0  0  0  0  0  0  0  0  0  0  0
  144.9232   74.5740  217.8050 H   0  0  0  0  0  0  0  0  0  0  0  0
  144.6956   73.0731  216.8307 H   0  0  0  0  0  0  0  0  0  0  0  0
  143.3690   73.2560  218.5190 C   0  0  0  0  0  0  0  0  0  0  0  0
  142.6072   73.8763  218.0242 H   0  0  0  0  0  0  0  0  0  0  0  0
  143.1112   72.1904  218.4288 H   0  0  0  0  0  0  0  0  0  0  0  0
  141.4650   73.1600  221.3120 N   0  0  0  0  0  0  0  0  0  0  0  0
  140.3480   73.5610  221.9670 C   0  0  0  0  0  0  0  0  0  0  0  0
  139.6520   72.6720  222.6130 N   0  0  0  0  0  0  0  0  0  0  0  0
  139.9630   71.2480  222.7210 C   0  0  0  0  0  0  0  0  0  0  0  0
  139.0821   70.6609  222.4222 H   0  0  0  0  0  0  0  0  0  0  0  0
  140.8124   71.0171  222.0613 H   0  0  0  0  0  0  0  0  0  0  0  0
  140.3420   70.8920  224.1630 C   0  0  0  0  0  0  0  0  0  0  0  0
  141.1497   70.1457  224.1387 H   0  0  0  0  0  0  0  0  0  0  0  0
  140.6559   71.8223  224.6590 H   0  0  0  0  0  0  0  0  0  0  0  0
  139.1660   70.3150  224.9710 C   0  0  0  0  0  0  0  0  0  0  0  0
  138.3866   71.0851  225.0687 H   0  0  0  0  0  0  0  0  0  0  0  0
  138.7788   69.4338  224.4384 H   0  0  0  0  0  0  0  0  0  0  0  0
  139.5960   69.8920  226.3200 N   0  0  0  0  0  0  0  0  0  0  0  0
  140.4570   70.9140  226.9460 C   0  0  0  0  0  0  0  0  0  0  0  0
  141.2855   71.1552  226.2638 H   0  0  0  0  0  0  0  0  0  0  0  0
  139.8529   71.8114  227.1452 H   0  0  0  0  0  0  0  0  0  0  0  0
  141.0340   70.3980  228.2810 C   0  0  0  0  0  0  0  0  0  0  0  0
  142.1130   70.2207  228.1611 H   0  0  0  0  0  0  0  0  0  0  0  0
  140.8499   71.1559  229.0567 H   0  0  0  0  0  0  0  0  0  0  0  0
  140.4090   69.1920  228.6750 O   0  0  0  0  0  0  0  0  0  0  0  0
  140.6850   68.1760  227.7260 C   0  0  0  0  0  0  0  0  0  0  0  0
  141.7613   67.9502  227.7515 H   0  0  0  0  0  0  0  0  0  0  0  0
  140.0846   67.2934  227.9917 H   0  0  0  0  0  0  0  0  0  0  0  0
  140.2990   68.5980  226.2910 C   0  0  0  0  0  0  0  0  0  0  0  0
  141.2096   68.6914  225.6811 H   0  0  0  0  0  0  0  0  0  0  0  0
  139.6360   67.8358  225.8558 H   0  0  0  0  0  0  0  0  0  0  0  0
  139.9900   74.8790  221.9380 N   0  0  0  0  0  0  0  0  0  0  0  0
  139.1170   75.2120  222.4020 H   0  0  0  0  0  0  0  0  0  0  0  0
  139.0660   77.5960  221.6590 C   0  0  0  0  0  0  0  0  0  0  0  0
  138.4281   76.7163  221.8300 H   0  0  0  0  0  0  0  0  0  0  0  0
  138.6000   78.2325  220.8924 H   0  0  0  0  0  0  0  0  0  0  0  0
  139.2210   78.3810  222.9640 C   0  0  0  0  0  0  0  0  0  0  0  0
  139.4294   77.6737  223.7803 H   0  0  0  0  0  0  0  0  0  0  0  0
  138.2850   78.9313  223.1403 H   0  0  0  0  0  0  0  0  0  0  0  0
  1  2  1  0
  2  3  2  0
  3  4  1  0
  3  5  1  0
  5  6  1  0
  5  7  2  0
  7  8  1  0
  8  9  2  0
  9 10  1  0
  8 11  1  0
 11 12  1  0
 11 13  1  0
 11 14  1  0
 14 15  1  0
 15 16  2  0
 16 17  1  0
 17 18  1  0
 18 19  1  0
 19 20  1  0
 19 21  1  0
 19 22  1  0
 22 23  1  0
 22 24  1  0
 22 25  1  0
 25 26  1  0
 25 27  1  0
 27 28  1  0
 27 29  1  0
 27 30  1  0
 30 31  1  0
 30 32  1  0
 17 33  2  0
 33 34  1  0
 34 35  2  0
 35 36  1  0
 36 37  1  0
 36 38  1  0
 36 39  1  0
 39 40  1  0
 39 41  1  0
 39 42  1  0
 42 43  1  0
 42 44  1  0
 42 45  1  0
 45 46  1  0
 46 47  1  0
 46 48  1  0
 46 49  1  0
 49 50  1  0
 49 51  1  0
 49 52  1  0
 52 53  1  0
 53 54  1  0
 53 55  1  0
 53 56  1  0
 56 57  1  0
 56 58  1  0
 34 59  1  0
 59 60  1  0
 14 61  1  0
 61 62  1  0
 61 63  1  0
 61 64  1  0
 64 65  1  0
 64 66  1  0
  9  2  1  0
 59 15  1  0
 64  7  1  0
 30 18  1  0
 56 45  1  0
M  END
>  <UniqueID>  (17) 
725

>  <SMILES>  (17) 
c1ccc2c(c1)CCN(c1nc(N3CCNCC3)n/c(=N/CCCN3CCOCC3)[nH]1)C2

>  <Energy>  (17) 
80.6995797965794

>  <Genealogy>  (17) 
c1ccc2c(c1)CCN(c1nc(N3CCNCC3)nc(=NCCCN3CCOCC3)[nH]1)C2 (tautomer)
c1ccc2c(c1)CCN(c1nc(N3CCNCC3)n/c(=N/CCCN3CCOCC3)[nH]1)C2 (cis-trans isomerization)
c1ccc2c(c1)CCN(c1nc(N3CCNCC3)n/c(=N/CCCN3CCOCC3)[nH]1)C2 (3D coordinates assigned)
c1ccc2c(c1)CCN(c1nc(N3CCNCC3)n/c(=N/CCCN3CCOCC3)[nH]1)C2 (nonaromatic ring conformer: 80.6995797965794 kcal/mol)

>  <smiles>  (17) 
c1ccc2c(c1)CCN(c1nc(NCCCN3CCOCC3)nc(N3CCNCC3)n1)C2

>  <score_type>  (17) 
oracle

>  <origin>  (17) 
autodockgpu

>  <m_score__min__energy>  (17) 
-8.7799999999999994

>  <m_primary>  (17) 
energy

>  <meeko>  (17) 
{"free_energy": -8.32, "intermolecular_energy": -10.41, "internal_energy": -0.73, "cluster_size": 11, "cluster_id": 1, "rank_in_cluster": 9}

>  <energy>  (17) 
-6.47

>  <cluster_rmsd>  (17) 
0.0

>  <rmsd>  (17) 
270.21

>  <cluster>  (17) 
4

$$$$
RYCKWQXGCGPPJB-AKFYOTOXNA-N
     RDKit          3D

 66 70  0  0  0  0  0  0  0  0999 V2000
  143.4581   81.4408  223.0404 H   0  0  0  0  0  0  0  0  0  0  0  0
  142.5930   80.7650  222.9710 C   0  0  0  0  0  0  0  0  0  0  0  0
  141.5200   80.9130  223.8510 C   0  0  0  0  0  0  0  0  0  0  0  0
  141.5424   81.7039  224.6152 H   0  0  0  0  0  0  0  0  0  0  0  0
  140.4170   80.0590  223.7640 C   0  0  0  0  0  0  0  0  0  0  0  0
  139.5793   80.1752  224.4674 H   0  0  0  0  0  0  0  0  0  0  0  0
  140.3710   79.0530  222.7840 C   0  0  0  0  0  0  0  0  0  0  0  0
  141.4730   78.8860  221.9100 C   0  0  0  0  0  0  0  0  0  0  0  0
  142.5690   79.7590  222.0020 C   0  0  0  0  0  0  0  0  0  0  0  0
  143.4142   79.6500  221.3065 H   0  0  0  0  0  0  0  0  0  0  0  0
  141.4550   77.8440  220.8190 C   0  0  0  0  0  0  0  0  0  0  0  0
  142.4303   77.3362  220.7884 H   0  0  0  0  0  0  0  0  0  0  0  0
  141.2534   78.3407  219.8585 H   0  0  0  0  0  0  0  0  0  0  0  0
  140.4050   76.8540  221.0670 N   0  0  0  0  0  0  0  0  0  0  0  0
  140.6910   75.4480  221.1180 C   0  0  0  0  0  0  0  0  0  0  0  0
  141.9210   74.9990  220.7600 N   0  0  0  0  0  0  0  0  0  0  0  0
  142.2120   73.6740  220.7880 C   0  0  0  0  0  0  0  0  0  0  0  0
  143.5290   73.2050  220.4270 N   0  0  0  0  0  0  0  0  0  0  0  0
  143.6800   72.1430  219.4210 C   0  0  0  0  0  0  0  0  0  0  0  0
  142.8094   71.4723  219.4690 H   0  0  0  0  0  0  0  0  0  0  0  0
  143.7489   72.6037  218.4245 H   0  0  0  0  0  0  0  0  0  0  0  0
  144.9520   71.3360  219.6820 C   0  0  0  0  0  0  0  0  0  0  0  0
  144.8396   70.7744  220.6211 H   0  0  0  0  0  0  0  0  0  0  0  0
  145.1135   70.6405  218.8452 H   0  0  0  0  0  0  0  0  0  0  0  0
  146.1080   72.2320  219.7890 N   0  0  0  0  0  0  0  0  0  0  0  0
  146.9500   71.6370  219.9720 H   0  0  0  0  0  0  0  0  0  0  0  0
  145.9440   73.1300  220.9360 C   0  0  0  0  0  0  0  0  0  0  0  0
  145.8238   72.5307  221.8506 H   0  0  0  0  0  0  0  0  0  0  0  0
  146.8347   73.7705  221.0165 H   0  0  0  0  0  0  0  0  0  0  0  0
  144.7110   74.0180  220.7500 C   0  0  0  0  0  0  0  0  0  0  0  0
  144.5233   74.5746  221.6800 H   0  0  0  0  0  0  0  0  0  0  0  0
  144.8988   74.7146  219.9196 H   0  0  0  0  0  0  0  0  0  0  0  0
  141.2500   72.7940  221.1730 N   0  0  0  0  0  0  0  0  0  0  0  0
  140.0140   73.2220  221.5270 C   0  0  0  0  0  0  0  0  0  0  0  0
  139.1310   72.3400  221.8960 N   0  0  0  0  0  0  0  0  0  0  0  0
  138.9490   71.8190  223.2490 C   0  0  0  0  0  0  0  0  0  0  0  0
  139.0763   72.6374  223.9729 H   0  0  0  0  0  0  0  0  0  0  0  0
  137.9385   71.3929  223.3348 H   0  0  0  0  0  0  0  0  0  0  0  0
  139.9790   70.7210  223.5410 C   0  0  0  0  0  0  0  0  0  0  0  0
  139.4477   69.8324  223.9126 H   0  0  0  0  0  0  0  0  0  0  0  0
  140.5162   70.5172  222.6030 H   0  0  0  0  0  0  0  0  0  0  0  0
  141.0260   71.1390  224.5880 C   0  0  0  0  0  0  0  0  0  0  0  0
  141.9231   70.5142  224.4665 H   0  0  0  0  0  0  0  0  0  0  0  0
  141.2666   72.2011  224.4327 H   0  0  0  0  0  0  0  0  0  0  0  0
  140.5080   70.9750  225.9630 N   0  0  0  0  0  0  0  0  0  0  0  0
  141.1270   71.9500  226.8820 C   0  0  0  0  0  0  0  0  0  0  0  0
  142.2217   71.8778  226.8013 H   0  0  0  0  0  0  0  0  0  0  0  0
  140.7899   72.9600  226.6058 H   0  0  0  0  0  0  0  0  0  0  0  0
  140.7070   71.6680  228.3390 C   0  0  0  0  0  0  0  0  0  0  0  0
  141.5750   71.2837  228.8947 H   0  0  0  0  0  0  0  0  0  0  0  0
  140.3454   72.6062  228.7852 H   0  0  0  0  0  0  0  0  0  0  0  0
  139.6640   70.7140  228.3950 O   0  0  0  0  0  0  0  0  0  0  0  0
  140.1220   69.4730  227.8860 C   0  0  0  0  0  0  0  0  0  0  0  0
  140.8951   69.0771  228.5610 H   0  0  0  0  0  0  0  0  0  0  0  0
  139.2584   68.7945  227.8239 H   0  0  0  0  0  0  0  0  0  0  0  0
  140.7210   69.6080  226.4690 C   0  0  0  0  0  0  0  0  0  0  0  0
  141.7999   69.3973  226.5075 H   0  0  0  0  0  0  0  0  0  0  0  0
  140.2261   68.8917  225.7967 H   0  0  0  0  0  0  0  0  0  0  0  0
  139.7310   74.5580  221.4950 N   0  0  0  0  0  0  0  0  0  0  0  0
  138.7780   74.9150  221.7270 H   0  0  0  0  0  0  0  0  0  0  0  0
  139.0820   77.3560  221.4280 C   0  0  0  0  0  0  0  0  0  0  0  0
  138.3836   76.5131  221.5366 H   0  0  0  0  0  0  0  0  0  0  0  0
  138.7105   78.0301  220.6422 H   0  0  0  0  0  0  0  0  0  0  0  0
  139.1870   78.1110  222.7540 C   0  0  0  0  0  0  0  0  0  0  0  0
  139.2946   77.3809  223.5697 H   0  0  0  0  0  0  0  0  0  0  0  0
  138.2739   78.7128  222.8728 H   0  0  0  0  0  0  0  0  0  0  0  0
  1  2  1  0
  2  3  2  0
  3  4  1  0
  3  5  1  0
  5  6  1  0
  5  7  2  0
  7  8  1  0
  8  9  2  0
  9 10  1  0
  8 11  1  0
 11 12  1  0
 11 13  1  0
 11 14  1  0
 14 15  1  0
 15 16  2  0
 16 17  1  0
 17 18  1  0
 18 19  1  0
 19 20  1  0
 19 21  1  0
 19 22  1  0
 22 23  1  0
 22 24  1  0
 22 25  1  0
 25 26  1  0
 25 27  1  0
 27 28  1  0
 27 29  1  0
 27 30  1  0
 30 31  1  0
 30 32  1  0
 17 33  2  0
 33 34  1  0
 34 35  2  0
 35 36  1  0
 36 37  1  0
 36 38  1  0
 36 39  1  0
 39 40  1  0
 39 41  1  0
 39 42  1  0
 42 43  1  0
 42 44  1  0
 42 45  1  0
 45 46  1  0
 46 47  1  0
 46 48  1  0
 46 49  1  0
 49 50  1  0
 49 51  1  0
 49 52  1  0
 52 53  1  0
 53 54  1  0
 53 55  1  0
 53 56  1  0
 56 57  1  0
 56 58  1  0
 34 59  1  0
 59 60  1  0
 14 61  1  0
 61 62  1  0
 61 63  1  0
 61 64  1  0
 64 65  1  0
 64 66  1  0
  9  2  1  0
 59 15  1  0
 64  7  1  0
 30 18  1  0
 56 45  1  0
M  END
>  <UniqueID>  (18) 
725

>  <SMILES>  (18) 
c1ccc2c(c1)CCN(c1nc(N3CCNCC3)n/c(=N/CCCN3CCOCC3)[nH]1)C2

>  <Energy>  (18) 
80.6995797965794

>  <Genealogy>  (18) 
c1ccc2c(c1)CCN(c1nc(N3CCNCC3)nc(=NCCCN3CCOCC3)[nH]1)C2 (tautomer)
c1ccc2c(c1)CCN(c1nc(N3CCNCC3)n/c(=N/CCCN3CCOCC3)[nH]1)C2 (cis-trans isomerization)
c1ccc2c(c1)CCN(c1nc(N3CCNCC3)n/c(=N/CCCN3CCOCC3)[nH]1)C2 (3D coordinates assigned)
c1ccc2c(c1)CCN(c1nc(N3CCNCC3)n/c(=N/CCCN3CCOCC3)[nH]1)C2 (nonaromatic ring conformer: 80.6995797965794 kcal/mol)

>  <smiles>  (18) 
c1ccc2c(c1)CCN(c1nc(NCCCN3CCOCC3)nc(N3CCNCC3)n1)C2

>  <score_type>  (18) 
oracle

>  <origin>  (18) 
autodockgpu

>  <m_score__min__energy>  (18) 
-8.7799999999999994

>  <m_primary>  (18) 
energy

>  <meeko>  (18) 
{"free_energy": -8.41, "intermolecular_energy": -10.5, "internal_energy": -0.87, "cluster_size": 11, "cluster_id": 1, "rank_in_cluster": 7}

>  <energy>  (18) 
-6.33

>  <cluster_rmsd>  (18) 
0.0

>  <rmsd>  (18) 
269.86

>  <cluster>  (18) 
5

$$$$
RYCKWQXGCGPPJB-AKFYOTOXNA-N
     RDKit          3D

 66 70  0  0  0  0  0  0  0  0999 V2000
  142.6406   81.0678  222.9544 H   0  0  0  0  0  0  0  0  0  0  0  0
  141.8220   80.3360  222.8880 C   0  0  0  0  0  0  0  0  0  0  0  0
  140.6610   80.5180  223.6410 C   0  0  0  0  0  0  0  0  0  0  0  0
  140.5672   81.3921  224.3021 H   0  0  0  0  0  0  0  0  0  0  0  0
  139.6170   79.5920  223.5570 C   0  0  0  0  0  0  0  0  0  0  0  0
  138.7093   79.7359  224.1615 H   0  0  0  0  0  0  0  0  0  0  0  0
  139.7190   78.4790  222.7060 C   0  0  0  0  0  0  0  0  0  0  0  0
  140.9100   78.2810  221.9630 C   0  0  0  0  0  0  0  0  0  0  0  0
  141.9450   79.2250  222.0500 C   0  0  0  0  0  0  0  0  0  0  0  0
  142.8596   79.0891  221.4541 H   0  0  0  0  0  0  0  0  0  0  0  0
  141.0520   77.1210  221.0090 C   0  0  0  0  0  0  0  0  0  0  0  0
  142.0504   76.6751  221.1288 H   0  0  0  0  0  0  0  0  0  0  0  0
  140.9196   77.4901  219.9813 H   0  0  0  0  0  0  0  0  0  0  0  0
  140.0350   76.1020  221.2780 N   0  0  0  0  0  0  0  0  0  0  0  0
  140.3860   74.7320  221.5250 C   0  0  0  0  0  0  0  0  0  0  0  0
  141.4640   74.1920  220.9020 N   0  0  0  0  0  0  0  0  0  0  0  0
  141.8100   72.8960  221.1090 C   0  0  0  0  0  0  0  0  0  0  0  0
  142.9710   72.3350  220.4600 N   0  0  0  0  0  0  0  0  0  0  0  0
  142.8570   71.0700  219.7190 C   0  0  0  0  0  0  0  0  0  0  0  0
  142.0841   70.4437  220.1884 H   0  0  0  0  0  0  0  0  0  0  0  0
  142.5837   71.2912  218.6767 H   0  0  0  0  0  0  0  0  0  0  0  0
  144.1900   70.3200  219.7330 C   0  0  0  0  0  0  0  0  0  0  0  0
  144.4093   69.9882  220.7586 H   0  0  0  0  0  0  0  0  0  0  0  0
  144.1190   69.4501  219.0635 H   0  0  0  0  0  0  0  0  0  0  0  0
  145.2700   71.1960  219.2660 N   0  0  0  0  0  0  0  0  0  0  0  0
  146.1580   70.6430  219.2980 H   0  0  0  0  0  0  0  0  0  0  0  0
  145.4240   72.3330  220.1790 C   0  0  0  0  0  0  0  0  0  0  0  0
  145.6298   71.9581  221.1925 H   0  0  0  0  0  0  0  0  0  0  0  0
  146.2581   72.9593  219.8295 H   0  0  0  0  0  0  0  0  0  0  0  0
  144.1470   73.1780  220.2040 C   0  0  0  0  0  0  0  0  0  0  0  0
  144.2296   73.9336  220.9991 H   0  0  0  0  0  0  0  0  0  0  0  0
  144.0263   73.6653  219.2252 H   0  0  0  0  0  0  0  0  0  0  0  0
  141.0540   72.1370  221.9460 N   0  0  0  0  0  0  0  0  0  0  0  0
  139.9690   72.6550  222.5710 C   0  0  0  0  0  0  0  0  0  0  0  0
  139.2840   71.8890  223.3690 N   0  0  0  0  0  0  0  0  0  0  0  0
  138.5180   70.7070  222.9770 C   0  0  0  0  0  0  0  0  0  0  0  0
  137.6336   70.6165  223.6248 H   0  0  0  0  0  0  0  0  0  0  0  0
  138.2071   70.8142  221.9273 H   0  0  0  0  0  0  0  0  0  0  0  0
  139.3780   69.4450  223.1160 C   0  0  0  0  0  0  0  0  0  0  0  0
  138.9671   68.6669  222.4559 H   0  0  0  0  0  0  0  0  0  0  0  0
  140.4074   69.7176  222.8402 H   0  0  0  0  0  0  0  0  0  0  0  0
  139.4180   68.8970  224.5530 C   0  0  0  0  0  0  0  0  0  0  0  0
  138.4389   68.4587  224.7966 H   0  0  0  0  0  0  0  0  0  0  0  0
  140.2108   68.1367  224.6124 H   0  0  0  0  0  0  0  0  0  0  0  0
  139.7230   69.9660  225.5280 N   0  0  0  0  0  0  0  0  0  0  0  0
  141.0420   70.5700  225.2570 C   0  0  0  0  0  0  0  0  0  0  0  0
  141.8004   69.7747  225.2093 H   0  0  0  0  0  0  0  0  0  0  0  0
  140.9939   71.1095  224.2996 H   0  0  0  0  0  0  0  0  0  0  0  0
  141.4240   71.5680  226.3700 C   0  0  0  0  0  0  0  0  0  0  0  0
  142.2491   71.1462  226.9626 H   0  0  0  0  0  0  0  0  0  0  0  0
  141.7290   72.5145  225.8998 H   0  0  0  0  0  0  0  0  0  0  0  0
  140.3270   71.8250  227.2240 O   0  0  0  0  0  0  0  0  0  0  0  0
  139.9530   70.6330  227.8960 C   0  0  0  0  0  0  0  0  0  0  0  0
  140.7679   70.3374  228.5731 H   0  0  0  0  0  0  0  0  0  0  0  0
  139.0250   70.8350  228.4509 H   0  0  0  0  0  0  0  0  0  0  0  0
  139.6760   69.4730  226.9150 C   0  0  0  0  0  0  0  0  0  0  0  0
  140.4382   68.6915  227.0501 H   0  0  0  0  0  0  0  0  0  0  0  0
  138.6775   69.0584  227.1178 H   0  0  0  0  0  0  0  0  0  0  0  0
  139.6300   73.9620  222.3560 N   0  0  0  0  0  0  0  0  0  0  0  0
  138.7810   74.3790  222.7940 H   0  0  0  0  0  0  0  0  0  0  0  0
  138.6590   76.5590  221.4530 C   0  0  0  0  0  0  0  0  0  0  0  0
  137.9972   75.6924  221.5981 H   0  0  0  0  0  0  0  0  0  0  0  0
  138.3330   77.1136  220.5608 H   0  0  0  0  0  0  0  0  0  0  0  0
  138.5940   77.4670  222.6820 C   0  0  0  0  0  0  0  0  0  0  0  0
  138.6587   76.8441  223.5863 H   0  0  0  0  0  0  0  0  0  0  0  0
  137.6437   78.0197  222.6433 H   0  0  0  0  0  0  0  0  0  0  0  0
  1  2  1  0
  2  3  2  0
  3  4  1  0
  3  5  1  0
  5  6  1  0
  5  7  2  0
  7  8  1  0
  8  9  2  0
  9 10  1  0
  8 11  1  0
 11 12  1  0
 11 13  1  0
 11 14  1  0
 14 15  1  0
 15 16  2  0
 16 17  1  0
 17 18  1  0
 18 19  1  0
 19 20  1  0
 19 21  1  0
 19 22  1  0
 22 23  1  0
 22 24  1  0
 22 25  1  0
 25 26  1  0
 25 27  1  0
 27 28  1  0
 27 29  1  0
 27 30  1  0
 30 31  1  0
 30 32  1  0
 17 33  2  0
 33 34  1  0
 34 35  2  0
 35 36  1  0
 36 37  1  0
 36 38  1  0
 36 39  1  0
 39 40  1  0
 39 41  1  0
 39 42  1  0
 42 43  1  0
 42 44  1  0
 42 45  1  0
 45 46  1  0
 46 47  1  0
 46 48  1  0
 46 49  1  0
 49 50  1  0
 49 51  1  0
 49 52  1  0
 52 53  1  0
 53 54  1  0
 53 55  1  0
 53 56  1  0
 56 57  1  0
 56 58  1  0
 34 59  1  0
 59 60  1  0
 14 61  1  0
 61 62  1  0
 61 63  1  0
 61 64  1  0
 64 65  1  0
 64 66  1  0
  9  2  1  0
 59 15  1  0
 64  7  1  0
 30 18  1  0
 56 45  1  0
M  END
>  <UniqueID>  (19) 
725

>  <SMILES>  (19) 
c1ccc2c(c1)CCN(c1nc(N3CCNCC3)n/c(=N/CCCN3CCOCC3)[nH]1)C2

>  <Energy>  (19) 
80.6995797965794

>  <Genealogy>  (19) 
c1ccc2c(c1)CCN(c1nc(N3CCNCC3)nc(=NCCCN3CCOCC3)[nH]1)C2 (tautomer)
c1ccc2c(c1)CCN(c1nc(N3CCNCC3)n/c(=N/CCCN3CCOCC3)[nH]1)C2 (cis-trans isomerization)
c1ccc2c(c1)CCN(c1nc(N3CCNCC3)n/c(=N/CCCN3CCOCC3)[nH]1)C2 (3D coordinates assigned)
c1ccc2c(c1)CCN(c1nc(N3CCNCC3)n/c(=N/CCCN3CCOCC3)[nH]1)C2 (nonaromatic ring conformer: 80.6995797965794 kcal/mol)

>  <smiles>  (19) 
c1ccc2c(c1)CCN(c1nc(NCCCN3CCOCC3)nc(N3CCNCC3)n1)C2

>  <score_type>  (19) 
oracle

>  <origin>  (19) 
autodockgpu

>  <m_score__min__energy>  (19) 
-8.7799999999999994

>  <m_primary>  (19) 
energy

>  <meeko>  (19) 
{"free_energy": -7.62, "intermolecular_energy": -9.71, "internal_energy": -0.97, "cluster_size": 11, "cluster_id": 1, "rank_in_cluster": 11}

>  <energy>  (19) 
-5.91

>  <cluster_rmsd>  (19) 
0.0

>  <rmsd>  (19) 
270.17

>  <cluster>  (19) 
6

$$$$
RYCKWQXGCGPPJB-AKFYOTOXNA-N
     RDKit          3D

 66 70  0  0  0  0  0  0  0  0999 V2000
  142.8374   81.4586  223.0242 H   0  0  0  0  0  0  0  0  0  0  0  0
  142.0310   80.7140  222.9520 C   0  0  0  0  0  0  0  0  0  0  0  0
  140.8740   80.8640  223.7160 C   0  0  0  0  0  0  0  0  0  0  0  0
  140.7715   81.7250  224.3929 H   0  0  0  0  0  0  0  0  0  0  0  0
  139.8440   79.9230  223.6240 C   0  0  0  0  0  0  0  0  0  0  0  0
  138.9381   80.0432  224.2363 H   0  0  0  0  0  0  0  0  0  0  0  0
  139.9580   78.8250  222.7550 C   0  0  0  0  0  0  0  0  0  0  0  0
  141.1460   78.6590  222.0010 C   0  0  0  0  0  0  0  0  0  0  0  0
  142.1670   79.6190  222.0950 C   0  0  0  0  0  0  0  0  0  0  0  0
  143.0791   79.5080  221.4903 H   0  0  0  0  0  0  0  0  0  0  0  0
  141.3010   77.5170  221.0270 C   0  0  0  0  0  0  0  0  0  0  0  0
  142.3075   77.0859  221.1328 H   0  0  0  0  0  0  0  0  0  0  0  0
  141.1560   77.9000  220.0060 H   0  0  0  0  0  0  0  0  0  0  0  0
  140.3030   76.4780  221.2870 N   0  0  0  0  0  0  0  0  0  0  0  0
  140.6780   75.1090  221.5090 C   0  0  0  0  0  0  0  0  0  0  0  0
  141.7940   74.6150  220.9160 N   0  0  0  0  0  0  0  0  0  0  0  0
  142.1630   73.3210  221.1010 C   0  0  0  0  0  0  0  0  0  0  0  0
  143.3630   72.8070  220.4850 N   0  0  0  0  0  0  0  0  0  0  0  0
  143.2850   71.6560  219.5750 C   0  0  0  0  0  0  0  0  0  0  0  0
  142.4575   71.0024  219.8880 H   0  0  0  0  0  0  0  0  0  0  0  0
  143.1127   72.0220  218.5521 H   0  0  0  0  0  0  0  0  0  0  0  0
  144.5920   70.8620  219.6030 C   0  0  0  0  0  0  0  0  0  0  0  0
  144.7096   70.3908  220.5900 H   0  0  0  0  0  0  0  0  0  0  0  0
  144.5598   70.0905  218.8195 H   0  0  0  0  0  0  0  0  0  0  0  0
  145.7310   71.7510  219.3520 N   0  0  0  0  0  0  0  0  0  0  0  0
  146.5980   71.1660  219.3860 H   0  0  0  0  0  0  0  0  0  0  0  0
  145.8310   72.7520  220.4180 C   0  0  0  0  0  0  0  0  0  0  0  0
  145.9353   72.2405  221.3862 H   0  0  0  0  0  0  0  0  0  0  0  0
  146.7087   73.3873  220.2281 H   0  0  0  0  0  0  0  0  0  0  0  0
  144.5790   73.6330  220.4460 C   0  0  0  0  0  0  0  0  0  0  0  0
  144.6087   74.2744  221.3392 H   0  0  0  0  0  0  0  0  0  0  0  0
  144.5593   74.2486  219.5346 H   0  0  0  0  0  0  0  0  0  0  0  0
  141.3940   72.5200  221.8850 N   0  0  0  0  0  0  0  0  0  0  0  0
  140.2710   72.9940  222.4780 C   0  0  0  0  0  0  0  0  0  0  0  0
  139.5730   72.1880  223.2250 N   0  0  0  0  0  0  0  0  0  0  0  0
  138.9280   70.9520  222.7860 C   0  0  0  0  0  0  0  0  0  0  0  0
  137.8388   71.1025  222.7554 H   0  0  0  0  0  0  0  0  0  0  0  0
  139.3013   70.6904  221.7849 H   0  0  0  0  0  0  0  0  0  0  0  0
  139.2530   69.8080  223.7530 C   0  0  0  0  0  0  0  0  0  0  0  0
  138.3938   69.6625  224.4243 H   0  0  0  0  0  0  0  0  0  0  0  0
  139.4578   68.9139  223.1458 H   0  0  0  0  0  0  0  0  0  0  0  0
  140.5030   70.0770  224.6090 C   0  0  0  0  0  0  0  0  0  0  0  0
  141.1351   69.1768  224.6124 H   0  0  0  0  0  0  0  0  0  0  0  0
  141.0431   70.9312  224.1746 H   0  0  0  0  0  0  0  0  0  0  0  0
  140.1400   70.4150  226.0010 N   0  0  0  0  0  0  0  0  0  0  0  0
  140.9760   71.5180  226.5140 C   0  0  0  0  0  0  0  0  0  0  0  0
  142.0367   71.2623  226.3741 H   0  0  0  0  0  0  0  0  0  0  0  0
  140.7284   72.4360  225.9609 H   0  0  0  0  0  0  0  0  0  0  0  0
  140.7060   71.7550  228.0140 C   0  0  0  0  0  0  0  0  0  0  0  0
  141.5840   71.4314  228.5923 H   0  0  0  0  0  0  0  0  0  0  0  0
  140.5139   72.8270  228.1686 H   0  0  0  0  0  0  0  0  0  0  0  0
  139.5730   71.0290  228.4500 O   0  0  0  0  0  0  0  0  0  0  0  0
  139.8170   69.6380  228.3240 C   0  0  0  0  0  0  0  0  0  0  0  0
  140.6144   69.3533  229.0262 H   0  0  0  0  0  0  0  0  0  0  0  0
  138.8788   69.1091  228.5476 H   0  0  0  0  0  0  0  0  0  0  0  0
  140.2510   69.2490  226.8950 C   0  0  0  0  0  0  0  0  0  0  0  0
  141.2945   68.9014  226.9129 H   0  0  0  0  0  0  0  0  0  0  0  0
  139.5972   68.4457  226.5245 H   0  0  0  0  0  0  0  0  0  0  0  0
  139.9090   74.2970  222.2860 N   0  0  0  0  0  0  0  0  0  0  0  0
  139.0310   74.6810  222.7010 H   0  0  0  0  0  0  0  0  0  0  0  0
  138.9200   76.9080  221.4790 C   0  0  0  0  0  0  0  0  0  0  0  0
  138.2744   76.0279  221.6158 H   0  0  0  0  0  0  0  0  0  0  0  0
  138.5767   77.4699  220.5979 H   0  0  0  0  0  0  0  0  0  0  0  0
  138.8500   77.7960  222.7230 C   0  0  0  0  0  0  0  0  0  0  0  0
  138.9315   77.1601  223.6169 H   0  0  0  0  0  0  0  0  0  0  0  0
  137.8908   78.3340  222.6997 H   0  0  0  0  0  0  0  0  0  0  0  0
  1  2  1  0
  2  3  2  0
  3  4  1  0
  3  5  1  0
  5  6  1  0
  5  7  2  0
  7  8  1  0
  8  9  2  0
  9 10  1  0
  8 11  1  0
 11 12  1  0
 11 13  1  0
 11 14  1  0
 14 15  1  0
 15 16  2  0
 16 17  1  0
 17 18  1  0
 18 19  1  0
 19 20  1  0
 19 21  1  0
 19 22  1  0
 22 23  1  0
 22 24  1  0
 22 25  1  0
 25 26  1  0
 25 27  1  0
 27 28  1  0
 27 29  1  0
 27 30  1  0
 30 31  1  0
 30 32  1  0
 17 33  2  0
 33 34  1  0
 34 35  2  0
 35 36  1  0
 36 37  1  0
 36 38  1  0
 36 39  1  0
 39 40  1  0
 39 41  1  0
 39 42  1  0
 42 43  1  0
 42 44  1  0
 42 45  1  0
 45 46  1  0
 46 47  1  0
 46 48  1  0
 46 49  1  0
 49 50  1  0
 49 51  1  0
 49 52  1  0
 52 53  1  0
 53 54  1  0
 53 55  1  0
 53 56  1  0
 56 57  1  0
 56 58  1  0
 34 59  1  0
 59 60  1  0
 14 61  1  0
 61 62  1  0
 61 63  1  0
 61 64  1  0
 64 65  1  0
 64 66  1  0
  9  2  1  0
 59 15  1  0
 64  7  1  0
 30 18  1  0
 56 45  1  0
M  END
>  <UniqueID>  (20) 
725

>  <SMILES>  (20) 
c1ccc2c(c1)CCN(c1nc(N3CCNCC3)n/c(=N/CCCN3CCOCC3)[nH]1)C2

>  <Energy>  (20) 
80.6995797965794

>  <Genealogy>  (20) 
c1ccc2c(c1)CCN(c1nc(N3CCNCC3)nc(=NCCCN3CCOCC3)[nH]1)C2 (tautomer)
c1ccc2c(c1)CCN(c1nc(N3CCNCC3)n/c(=N/CCCN3CCOCC3)[nH]1)C2 (cis-trans isomerization)
c1ccc2c(c1)CCN(c1nc(N3CCNCC3)n/c(=N/CCCN3CCOCC3)[nH]1)C2 (3D coordinates assigned)
c1ccc2c(c1)CCN(c1nc(N3CCNCC3)n/c(=N/CCCN3CCOCC3)[nH]1)C2 (nonaromatic ring conformer: 80.6995797965794 kcal/mol)

>  <smiles>  (20) 
c1ccc2c(c1)CCN(c1nc(NCCCN3CCOCC3)nc(N3CCNCC3)n1)C2

>  <score_type>  (20) 
oracle

>  <origin>  (20) 
autodockgpu

>  <m_score__min__energy>  (20) 
-8.7799999999999994

>  <m_primary>  (20) 
energy

>  <meeko>  (20) 
{"free_energy": -8.33, "intermolecular_energy": -10.42, "internal_energy": -0.88, "cluster_size": 11, "cluster_id": 1, "rank_in_cluster": 8}

>  <energy>  (20) 
-5.85

>  <cluster_rmsd>  (20) 
0.36

>  <rmsd>  (20) 
270.1

>  <cluster>  (20) 
6

$$$$
RYCKWQXGCGPPJB-JLFMESFVNA-N
     RDKit          3D

 66 70  0  0  0  0  0  0  0  0999 V2000
  141.4994   68.4922  228.3589 H   0  0  0  0  0  0  0  0  0  0  0  0
  140.9960   68.6460  227.3930 C   0  0  0  0  0  0  0  0  0  0  0  0
  140.3860   67.5710  226.7460 C   0  0  0  0  0  0  0  0  0  0  0  0
  140.4155   66.5692  227.1993 H   0  0  0  0  0  0  0  0  0  0  0  0
  139.7380   67.7640  225.5240 C   0  0  0  0  0  0  0  0  0  0  0  0
  139.2646   66.9110  225.0158 H   0  0  0  0  0  0  0  0  0  0  0  0
  139.6870   69.0400  224.9400 C   0  0  0  0  0  0  0  0  0  0  0  0
  140.3330   70.1250  225.5820 C   0  0  0  0  0  0  0  0  0  0  0  0
  140.9680   69.9180  226.8150 C   0  0  0  0  0  0  0  0  0  0  0  0
  141.4475   70.7629  227.3309 H   0  0  0  0  0  0  0  0  0  0  0  0
  140.3140   71.5170  224.9920 C   0  0  0  0  0  0  0  0  0  0  0  0
  141.3391   71.9159  224.9850 H   0  0  0  0  0  0  0  0  0  0  0  0
  139.6533   72.1437  225.6091 H   0  0  0  0  0  0  0  0  0  0  0  0
  139.7950   71.5140  223.6210 N   0  0  0  0  0  0  0  0  0  0  0  0
  140.2850   72.4710  222.6610 C   0  0  0  0  0  0  0  0  0  0  0  0
  141.4510   72.2290  222.0060 N   0  0  0  0  0  0  0  0  0  0  0  0
  141.9180   73.0980  221.0720 C   0  0  0  0  0  0  0  0  0  0  0  0
  143.1570   72.8400  220.3800 N   0  0  0  0  0  0  0  0  0  0  0  0
  143.2800   71.7040  219.4540 C   0  0  0  0  0  0  0  0  0  0  0  0
  142.5280   70.9462  219.7191 H   0  0  0  0  0  0  0  0  0  0  0  0
  143.1224   72.0791  218.4320 H   0  0  0  0  0  0  0  0  0  0  0  0
  144.6860   71.0570  219.5160 C   0  0  0  0  0  0  0  0  0  0  0  0
  144.6323   70.1830  220.1818 H   0  0  0  0  0  0  0  0  0  0  0  0
  144.9547   70.7961  218.4817 H   0  0  0  0  0  0  0  0  0  0  0  0
  145.7510   71.9480  220.0120 N   0  0  0  0  0  0  0  0  0  0  0  0
  145.8250   71.8420  221.0520 H   0  0  0  0  0  0  0  0  0  0  0  0
  145.4780   73.3560  219.7080 C   0  0  0  0  0  0  0  0  0  0  0  0
  146.3442   73.9673  220.0014 H   0  0  0  0  0  0  0  0  0  0  0  0
  145.2950   73.4651  218.6288 H   0  0  0  0  0  0  0  0  0  0  0  0
  144.2420   73.8240  220.4790 C   0  0  0  0  0  0  0  0  0  0  0  0
  144.5085   73.9605  221.5375 H   0  0  0  0  0  0  0  0  0  0  0  0
  143.8956   74.7729  220.0437 H   0  0  0  0  0  0  0  0  0  0  0  0
  141.2050   74.2180  220.7950 N   0  0  0  0  0  0  0  0  0  0  0  0
  140.0390   74.4770  221.4400 C   0  0  0  0  0  0  0  0  0  0  0  0
  139.3750   75.5690  221.1970 N   0  0  0  0  0  0  0  0  0  0  0  0
  139.9380   76.7560  220.5540 C   0  0  0  0  0  0  0  0  0  0  0  0
  140.1433   76.5327  219.4966 H   0  0  0  0  0  0  0  0  0  0  0  0
  139.2151   77.5814  220.6321 H   0  0  0  0  0  0  0  0  0  0  0  0
  141.2410   77.1690  221.2450 C   0  0  0  0  0  0  0  0  0  0  0  0
  141.9153   76.3004  221.2727 H   0  0  0  0  0  0  0  0  0  0  0  0
  141.6730   78.0011  220.6696 H   0  0  0  0  0  0  0  0  0  0  0  0
  141.0180   77.6660  222.6860 C   0  0  0  0  0  0  0  0  0  0  0  0
  140.0100   77.3719  223.0138 H   0  0  0  0  0  0  0  0  0  0  0  0
  141.7861   77.2137  223.3305 H   0  0  0  0  0  0  0  0  0  0  0  0
  141.1430   79.1370  222.7760 N   0  0  0  0  0  0  0  0  0  0  0  0
  142.1960   79.5460  223.7230 C   0  0  0  0  0  0  0  0  0  0  0  0
  141.9987   79.0953  224.7068 H   0  0  0  0  0  0  0  0  0  0  0  0
  143.1738   79.2056  223.3514 H   0  0  0  0  0  0  0  0  0  0  0  0
  142.2050   81.0840  223.8550 C   0  0  0  0  0  0  0  0  0  0  0  0
  141.7791   81.3564  224.8319 H   0  0  0  0  0  0  0  0  0  0  0  0
  143.2478   81.4209  223.7593 H   0  0  0  0  0  0  0  0  0  0  0  0
  141.4510   81.7230  222.8360 O   0  0  0  0  0  0  0  0  0  0  0  0
  141.8200   81.2090  221.5740 C   0  0  0  0  0  0  0  0  0  0  0  0
  141.3223   81.7933  220.7860 H   0  0  0  0  0  0  0  0  0  0  0  0
  142.9125   81.2801  221.4675 H   0  0  0  0  0  0  0  0  0  0  0  0
  141.4030   79.7290  221.4480 C   0  0  0  0  0  0  0  0  0  0  0  0
  140.4888   79.6635  220.8398 H   0  0  0  0  0  0  0  0  0  0  0  0
  142.2239   79.1732  220.9713 H   0  0  0  0  0  0  0  0  0  0  0  0
  139.5730   73.5970  222.3650 N   0  0  0  0  0  0  0  0  0  0  0  0
  138.6510   73.7790  222.8210 H   0  0  0  0  0  0  0  0  0  0  0  0
  138.6360   70.6610  223.3440 C   0  0  0  0  0  0  0  0  0  0  0  0
  138.3285   70.7852  222.2952 H   0  0  0  0  0  0  0  0  0  0  0  0
  137.7998   70.9441  224.0003 H   0  0  0  0  0  0  0  0  0  0  0  0
  139.0210   69.2060  223.5960 C   0  0  0  0  0  0  0  0  0  0  0  0
  139.7157   68.8777  222.8088 H   0  0  0  0  0  0  0  0  0  0  0  0
  138.1047   68.5975  223.5850 H   0  0  0  0  0  0  0  0  0  0  0  0
  1  2  1  0
  2  3  2  0
  3  4  1  0
  3  5  1  0
  5  6  1  0
  5  7  2  0
  7  8  1  0
  8  9  2  0
  9 10  1  0
  8 11  1  0
 11 12  1  0
 11 13  1  0
 11 14  1  0
 14 15  1  0
 15 16  2  0
 16 17  1  0
 17 18  1  0
 18 19  1  0
 19 20  1  0
 19 21  1  0
 19 22  1  0
 22 23  1  0
 22 24  1  0
 22 25  1  0
 25 26  1  0
 25 27  1  0
 27 28  1  0
 27 29  1  0
 27 30  1  0
 30 31  1  0
 30 32  1  0
 17 33  2  0
 33 34  1  0
 34 35  2  0
 35 36  1  0
 36 37  1  0
 36 38  1  0
 36 39  1  0
 39 40  1  0
 39 41  1  0
 39 42  1  0
 42 43  1  0
 42 44  1  0
 42 45  1  0
 45 46  1  0
 46 47  1  0
 46 48  1  0
 46 49  1  0
 49 50  1  0
 49 51  1  0
 49 52  1  0
 52 53  1  0
 53 54  1  0
 53 55  1  0
 53 56  1  0
 56 57  1  0
 56 58  1  0
 34 59  1  0
 59 60  1  0
 14 61  1  0
 61 62  1  0
 61 63  1  0
 61 64  1  0
 64 65  1  0
 64 66  1  0
  9  2  1  0
 59 15  1  0
 64  7  1  0
 30 18  1  0
 56 45  1  0
M  END
>  <UniqueID>  (21) 
726

>  <SMILES>  (21) 
c1ccc2c(c1)CCN(c1nc(N3CCNCC3)n/c(=N\CCCN3CCOCC3)[nH]1)C2

>  <Energy>  (21) 
83.3636785173553

>  <Genealogy>  (21) 
c1ccc2c(c1)CCN(c1nc(N3CCNCC3)nc(=NCCCN3CCOCC3)[nH]1)C2 (tautomer)
c1ccc2c(c1)CCN(c1nc(N3CCNCC3)n/c(=N\CCCN3CCOCC3)[nH]1)C2 (cis-trans isomerization)
c1ccc2c(c1)CCN(c1nc(N3CCNCC3)n/c(=N\CCCN3CCOCC3)[nH]1)C2 (3D coordinates assigned)
c1ccc2c(c1)CCN(c1nc(N3CCNCC3)n/c(=N\CCCN3CCOCC3)[nH]1)C2 (nonaromatic ring conformer: 83.3636785173553 kcal/mol)

>  <smiles>  (21) 
c1ccc2c(c1)CCN(c1nc(NCCCN3CCOCC3)nc(N3CCNCC3)n1)C2

>  <score_type>  (21) 
oracle

>  <origin>  (21) 
autodockgpu

>  <m_score__min__energy>  (21) 
-9.3100000000000005

>  <m_primary>  (21) 
energy

>  <meeko>  (21) 
{"free_energy": -9.1, "intermolecular_energy": -11.19, "internal_energy": -0.82, "cluster_size": 8, "cluster_id": 2, "rank_in_cluster": 3}

>  <energy>  (21) 
-9.31

>  <cluster_rmsd>  (21) 
0.0

>  <rmsd>  (21) 
271.5

>  <cluster>  (21) 
1

$$$$
RYCKWQXGCGPPJB-JLFMESFVNA-N
     RDKit          3D

 66 70  0  0  0  0  0  0  0  0999 V2000
  143.1806   81.7592  223.0646 H   0  0  0  0  0  0  0  0  0  0  0  0
  142.3800   81.0080  222.9950 C   0  0  0  0  0  0  0  0  0  0  0  0
  141.1890   81.1930  223.6970 C   0  0  0  0  0  0  0  0  0  0  0  0
  141.0542   82.0867  224.3240 H   0  0  0  0  0  0  0  0  0  0  0  0
  140.1670   80.2450  223.6050 C   0  0  0  0  0  0  0  0  0  0  0  0
  139.2327   80.3923  224.1665 H   0  0  0  0  0  0  0  0  0  0  0  0
  140.3250   79.1050  222.8000 C   0  0  0  0  0  0  0  0  0  0  0  0
  141.5460   78.9040  222.1110 C   0  0  0  0  0  0  0  0  0  0  0  0
  142.5580   79.8710  222.2040 C   0  0  0  0  0  0  0  0  0  0  0  0
  143.4982   79.7327  221.6500 H   0  0  0  0  0  0  0  0  0  0  0  0
  141.7700   77.6910  221.2370 C   0  0  0  0  0  0  0  0  0  0  0  0
  142.7358   77.2348  221.5000 H   0  0  0  0  0  0  0  0  0  0  0  0
  141.7632   78.0174  220.1866 H   0  0  0  0  0  0  0  0  0  0  0  0
  140.7090   76.6950  221.4150 N   0  0  0  0  0  0  0  0  0  0  0  0
  141.0050   75.2910  221.2790 C   0  0  0  0  0  0  0  0  0  0  0  0
  142.2420   74.9020  220.8700 N   0  0  0  0  0  0  0  0  0  0  0  0
  142.5570   73.5850  220.7640 C   0  0  0  0  0  0  0  0  0  0  0  0
  143.8680   73.1740  220.3270 N   0  0  0  0  0  0  0  0  0  0  0  0
  145.0300   73.2900  221.2220 C   0  0  0  0  0  0  0  0  0  0  0  0
  144.8220   74.0631  221.9764 H   0  0  0  0  0  0  0  0  0  0  0  0
  145.1961   72.3102  221.6936 H   0  0  0  0  0  0  0  0  0  0  0  0
  146.3170   73.6760  220.4510 C   0  0  0  0  0  0  0  0  0  0  0  0
  146.4578   74.7633  220.5408 H   0  0  0  0  0  0  0  0  0  0  0  0
  147.1362   73.0965  220.9016 H   0  0  0  0  0  0  0  0  0  0  0  0
  146.3000   73.3310  219.0170 N   0  0  0  0  0  0  0  0  0  0  0  0
  145.9170   74.1440  218.4780 H   0  0  0  0  0  0  0  0  0  0  0  0
  145.4670   72.1580  218.7410 C   0  0  0  0  0  0  0  0  0  0  0  0
  145.5699   71.8783  217.6821 H   0  0  0  0  0  0  0  0  0  0  0  0
  145.7933   71.3233  219.3789 H   0  0  0  0  0  0  0  0  0  0  0  0
  144.0020   72.4790  219.0410 C   0  0  0  0  0  0  0  0  0  0  0  0
  143.6036   73.1213  218.2418 H   0  0  0  0  0  0  0  0  0  0  0  0
  143.4401   71.5348  219.0929 H   0  0  0  0  0  0  0  0  0  0  0  0
  141.6210   72.6530  221.0750 N   0  0  0  0  0  0  0  0  0  0  0  0
  140.3800   73.0230  221.4830 C   0  0  0  0  0  0  0  0  0  0  0  0
  139.4740   72.1280  221.7470 N   0  0  0  0  0  0  0  0  0  0  0  0
  139.1070   71.6920  223.0940 C   0  0  0  0  0  0  0  0  0  0  0  0
  138.3427   72.3713  223.4995 H   0  0  0  0  0  0  0  0  0  0  0  0
  138.7114   70.6669  223.0427 H   0  0  0  0  0  0  0  0  0  0  0  0
  140.3340   71.7070  224.0110 C   0  0  0  0  0  0  0  0  0  0  0  0
  141.2254   71.9192  223.4025 H   0  0  0  0  0  0  0  0  0  0  0  0
  140.1686   72.4815  224.7745 H   0  0  0  0  0  0  0  0  0  0  0  0
  140.5450   70.3690  224.7440 C   0  0  0  0  0  0  0  0  0  0  0  0
  139.9292   69.5957  224.2615 H   0  0  0  0  0  0  0  0  0  0  0  0
  141.6124   70.1090  224.6890 H   0  0  0  0  0  0  0  0  0  0  0  0
  140.1630   70.4680  226.1700 N   0  0  0  0  0  0  0  0  0  0  0  0
  140.4900   69.2390  226.9170 C   0  0  0  0  0  0  0  0  0  0  0  0
  140.0129   68.3761  226.4294 H   0  0  0  0  0  0  0  0  0  0  0  0
  141.5808   69.0976  226.9292 H   0  0  0  0  0  0  0  0  0  0  0  0
  139.9720   69.3620  228.3660 C   0  0  0  0  0  0  0  0  0  0  0  0
  139.0883   68.7169  228.4800 H   0  0  0  0  0  0  0  0  0  0  0  0
  140.7874   69.0563  229.0381 H   0  0  0  0  0  0  0  0  0  0  0  0
  139.6110   70.6910  228.7060 O   0  0  0  0  0  0  0  0  0  0  0  0
  140.6490   71.5760  228.3450 C   0  0  0  0  0  0  0  0  0  0  0  0
  140.4132   72.5824  228.7213 H   0  0  0  0  0  0  0  0  0  0  0  0
  141.5908   71.2162  228.7850 H   0  0  0  0  0  0  0  0  0  0  0  0
  140.8060   71.6320  226.8110 C   0  0  0  0  0  0  0  0  0  0  0  0
  140.3379   72.5537  226.4350 H   0  0  0  0  0  0  0  0  0  0  0  0
  141.8787   71.6174  226.5680 H   0  0  0  0  0  0  0  0  0  0  0  0
  140.0760   74.3430  221.5970 N   0  0  0  0  0  0  0  0  0  0  0  0
  139.1360   74.6190  221.9590 H   0  0  0  0  0  0  0  0  0  0  0  0
  139.3340   77.1910  221.5210 C   0  0  0  0  0  0  0  0  0  0  0  0
  138.6410   76.3414  221.6101 H   0  0  0  0  0  0  0  0  0  0  0  0
  139.0776   77.7723  220.6230 H   0  0  0  0  0  0  0  0  0  0  0  0
  139.2210   78.0760  222.7590 C   0  0  0  0  0  0  0  0  0  0  0  0
  139.2857   77.4450  223.6577 H   0  0  0  0  0  0  0  0  0  0  0  0
  138.2562   78.6030  222.7223 H   0  0  0  0  0  0  0  0  0  0  0  0
  1  2  1  0
  2  3  2  0
  3  4  1  0
  3  5  1  0
  5  6  1  0
  5  7  2  0
  7  8  1  0
  8  9  2  0
  9 10  1  0
  8 11  1  0
 11 12  1  0
 11 13  1  0
 11 14  1  0
 14 15  1  0
 15 16  2  0
 16 17  1  0
 17 18  1  0
 18 19  1  0
 19 20  1  0
 19 21  1  0
 19 22  1  0
 22 23  1  0
 22 24  1  0
 22 25  1  0
 25 26  1  0
 25 27  1  0
 27 28  1  0
 27 29  1  0
 27 30  1  0
 30 31  1  0
 30 32  1  0
 17 33  2  0
 33 34  1  0
 34 35  2  0
 35 36  1  0
 36 37  1  0
 36 38  1  0
 36 39  1  0
 39 40  1  0
 39 41  1  0
 39 42  1  0
 42 43  1  0
 42 44  1  0
 42 45  1  0
 45 46  1  0
 46 47  1  0
 46 48  1  0
 46 49  1  0
 49 50  1  0
 49 51  1  0
 49 52  1  0
 52 53  1  0
 53 54  1  0
 53 55  1  0
 53 56  1  0
 56 57  1  0
 56 58  1  0
 34 59  1  0
 59 60  1  0
 14 61  1  0
 61 62  1  0
 61 63  1  0
 61 64  1  0
 64 65  1  0
 64 66  1  0
  9  2  1  0
 59 15  1  0
 64  7  1  0
 30 18  1  0
 56 45  1  0
M  END
>  <UniqueID>  (22) 
726

>  <SMILES>  (22) 
c1ccc2c(c1)CCN(c1nc(N3CCNCC3)n/c(=N\CCCN3CCOCC3)[nH]1)C2

>  <Energy>  (22) 
83.3636785173553

>  <Genealogy>  (22) 
c1ccc2c(c1)CCN(c1nc(N3CCNCC3)nc(=NCCCN3CCOCC3)[nH]1)C2 (tautomer)
c1ccc2c(c1)CCN(c1nc(N3CCNCC3)n/c(=N\CCCN3CCOCC3)[nH]1)C2 (cis-trans isomerization)
c1ccc2c(c1)CCN(c1nc(N3CCNCC3)n/c(=N\CCCN3CCOCC3)[nH]1)C2 (3D coordinates assigned)
c1ccc2c(c1)CCN(c1nc(N3CCNCC3)n/c(=N\CCCN3CCOCC3)[nH]1)C2 (nonaromatic ring conformer: 83.3636785173553 kcal/mol)

>  <smiles>  (22) 
c1ccc2c(c1)CCN(c1nc(NCCCN3CCOCC3)nc(N3CCNCC3)n1)C2

>  <score_type>  (22) 
oracle

>  <origin>  (22) 
autodockgpu

>  <m_score__min__energy>  (22) 
-9.3100000000000005

>  <m_primary>  (22) 
energy

>  <meeko>  (22) 
{"free_energy": -9.1, "intermolecular_energy": -11.18, "internal_energy": -0.79, "cluster_size": 7, "cluster_id": 1, "rank_in_cluster": 3}

>  <energy>  (22) 
-9.12

>  <cluster_rmsd>  (22) 
0.98

>  <rmsd>  (22) 
271.69

>  <cluster>  (22) 
1

$$$$
RYCKWQXGCGPPJB-JLFMESFVNA-N
     RDKit          3D

 66 70  0  0  0  0  0  0  0  0999 V2000
  141.5734   68.9078  228.7210 H   0  0  0  0  0  0  0  0  0  0  0  0
  141.0910   68.9410  227.7330 C   0  0  0  0  0  0  0  0  0  0  0  0
  140.5940   67.7700  227.1610 C   0  0  0  0  0  0  0  0  0  0  0  0
  140.6901   66.8137  227.6960 H   0  0  0  0  0  0  0  0  0  0  0  0
  139.9740   67.8100  225.9090 C   0  0  0  0  0  0  0  0  0  0  0  0
  139.5902   66.8824  225.4593 H   0  0  0  0  0  0  0  0  0  0  0  0
  139.8380   69.0260  225.2220 C   0  0  0  0  0  0  0  0  0  0  0  0
  140.3690   70.2100  225.7900 C   0  0  0  0  0  0  0  0  0  0  0  0
  140.9770   70.1560  227.0530 C   0  0  0  0  0  0  0  0  0  0  0  0
  141.3668   71.0769  227.5112 H   0  0  0  0  0  0  0  0  0  0  0  0
  140.2560   71.5440  225.0880 C   0  0  0  0  0  0  0  0  0  0  0  0
  141.2443   72.0267  225.0770 H   0  0  0  0  0  0  0  0  0  0  0  0
  139.5250   72.1594  225.6329 H   0  0  0  0  0  0  0  0  0  0  0  0
  139.7870   71.3880  223.7080 N   0  0  0  0  0  0  0  0  0  0  0  0
  140.2280   72.3040  222.6870 C   0  0  0  0  0  0  0  0  0  0  0  0
  141.4050   72.0780  222.0450 N   0  0  0  0  0  0  0  0  0  0  0  0
  141.8290   72.9070  221.0560 C   0  0  0  0  0  0  0  0  0  0  0  0
  143.0790   72.6670  220.3780 N   0  0  0  0  0  0  0  0  0  0  0  0
  143.2600   71.4780  219.5310 C   0  0  0  0  0  0  0  0  0  0  0  0
  142.5485   70.7022  219.8502 H   0  0  0  0  0  0  0  0  0  0  0  0
  143.0822   71.7731  218.4863 H   0  0  0  0  0  0  0  0  0  0  0  0
  144.6980   70.9110  219.6320 C   0  0  0  0  0  0  0  0  0  0  0  0
  144.6901   70.0830  220.3561 H   0  0  0  0  0  0  0  0  0  0  0  0
  144.9799   70.5944  218.6170 H   0  0  0  0  0  0  0  0  0  0  0  0
  145.7150   71.8880  220.0620 N   0  0  0  0  0  0  0  0  0  0  0  0
  145.7950   71.8570  221.1060 H   0  0  0  0  0  0  0  0  0  0  0  0
  145.3700   73.2560  219.6640 C   0  0  0  0  0  0  0  0  0  0  0  0
  146.2035   73.9295  219.9124 H   0  0  0  0  0  0  0  0  0  0  0  0
  145.1819   73.2818  218.5805 H   0  0  0  0  0  0  0  0  0  0  0  0
  144.1120   73.7110  220.4050 C   0  0  0  0  0  0  0  0  0  0  0  0
  144.3711   73.9338  221.4506 H   0  0  0  0  0  0  0  0  0  0  0  0
  143.7167   74.6083  219.9065 H   0  0  0  0  0  0  0  0  0  0  0  0
  141.0600   73.9700  220.7080 N   0  0  0  0  0  0  0  0  0  0  0  0
  139.8830   74.2120  221.3390 C   0  0  0  0  0  0  0  0  0  0  0  0
  139.1650   75.2520  221.0280 N   0  0  0  0  0  0  0  0  0  0  0  0
  139.7110   76.5340  220.5850 C   0  0  0  0  0  0  0  0  0  0  0  0
  139.8214   76.5225  219.4906 H   0  0  0  0  0  0  0  0  0  0  0  0
  139.0239   77.3384  220.8865 H   0  0  0  0  0  0  0  0  0  0  0  0
  141.0790   76.7810  221.2280 C   0  0  0  0  0  0  0  0  0  0  0  0
  141.5676   75.8105  221.3993 H   0  0  0  0  0  0  0  0  0  0  0  0
  141.6596   77.4134  220.5403 H   0  0  0  0  0  0  0  0  0  0  0  0
  140.9790   77.5260  222.5720 C   0  0  0  0  0  0  0  0  0  0  0  0
  139.9194   77.6152  222.8536 H   0  0  0  0  0  0  0  0  0  0  0  0
  141.5372   76.9532  223.3273 H   0  0  0  0  0  0  0  0  0  0  0  0
  141.5690   78.8790  222.4850 N   0  0  0  0  0  0  0  0  0  0  0  0
  140.7020   79.8160  221.7460 C   0  0  0  0  0  0  0  0  0  0  0  0
  140.4846   79.4048  220.7492 H   0  0  0  0  0  0  0  0  0  0  0  0
  139.7619   79.9572  222.2994 H   0  0  0  0  0  0  0  0  0  0  0  0
  141.4170   81.1750  221.5960 C   0  0  0  0  0  0  0  0  0  0  0  0
  141.7466   81.2864  220.5525 H   0  0  0  0  0  0  0  0  0  0  0  0
  140.7024   81.9609  221.8817 H   0  0  0  0  0  0  0  0  0  0  0  0
  142.5480   81.2930  222.4450 O   0  0  0  0  0  0  0  0  0  0  0  0
  142.2000   80.9210  223.7610 C   0  0  0  0  0  0  0  0  0  0  0  0
  143.0460   81.1315  224.4318 H   0  0  0  0  0  0  0  0  0  0  0  0
  141.3161   81.4980  224.0705 H   0  0  0  0  0  0  0  0  0  0  0  0
  141.8610   79.4170  223.8290 C   0  0  0  0  0  0  0  0  0  0  0  0
  142.7174   78.8742  224.2555 H   0  0  0  0  0  0  0  0  0  0  0  0
  140.9693   79.2869  224.4599 H   0  0  0  0  0  0  0  0  0  0  0  0
  139.4610   73.3720  222.3200 N   0  0  0  0  0  0  0  0  0  0  0  0
  138.5310   73.5370  222.7660 H   0  0  0  0  0  0  0  0  0  0  0  0
  138.7120   70.4210  223.4700 C   0  0  0  0  0  0  0  0  0  0  0  0
  138.4313   70.4351  222.4065 H   0  0  0  0  0  0  0  0  0  0  0  0
  137.8333   70.6834  224.0774 H   0  0  0  0  0  0  0  0  0  0  0  0
  139.2070   69.0280  223.8510 C   0  0  0  0  0  0  0  0  0  0  0  0
  139.9530   68.6985  223.1128 H   0  0  0  0  0  0  0  0  0  0  0  0
  138.3449   68.3450  223.8647 H   0  0  0  0  0  0  0  0  0  0  0  0
  1  2  1  0
  2  3  2  0
  3  4  1  0
  3  5  1  0
  5  6  1  0
  5  7  2  0
  7  8  1  0
  8  9  2  0
  9 10  1  0
  8 11  1  0
 11 12  1  0
 11 13  1  0
 11 14  1  0
 14 15  1  0
 15 16  2  0
 16 17  1  0
 17 18  1  0
 18 19  1  0
 19 20  1  0
 19 21  1  0
 19 22  1  0
 22 23  1  0
 22 24  1  0
 22 25  1  0
 25 26  1  0
 25 27  1  0
 27 28  1  0
 27 29  1  0
 27 30  1  0
 30 31  1  0
 30 32  1  0
 17 33  2  0
 33 34  1  0
 34 35  2  0
 35 36  1  0
 36 37  1  0
 36 38  1  0
 36 39  1  0
 39 40  1  0
 39 41  1  0
 39 42  1  0
 42 43  1  0
 42 44  1  0
 42 45  1  0
 45 46  1  0
 46 47  1  0
 46 48  1  0
 46 49  1  0
 49 50  1  0
 49 51  1  0
 49 52  1  0
 52 53  1  0
 53 54  1  0
 53 55  1  0
 53 56  1  0
 56 57  1  0
 56 58  1  0
 34 59  1  0
 59 60  1  0
 14 61  1  0
 61 62  1  0
 61 63  1  0
 61 64  1  0
 64 65  1  0
 64 66  1  0
  9  2  1  0
 59 15  1  0
 64  7  1  0
 30 18  1  0
 56 45  1  0
M  END
>  <UniqueID>  (23) 
726

>  <SMILES>  (23) 
c1ccc2c(c1)CCN(c1nc(N3CCNCC3)n/c(=N\CCCN3CCOCC3)[nH]1)C2

>  <Energy>  (23) 
83.3636785173553

>  <Genealogy>  (23) 
c1ccc2c(c1)CCN(c1nc(N3CCNCC3)nc(=NCCCN3CCOCC3)[nH]1)C2 (tautomer)
c1ccc2c(c1)CCN(c1nc(N3CCNCC3)n/c(=N\CCCN3CCOCC3)[nH]1)C2 (cis-trans isomerization)
c1ccc2c(c1)CCN(c1nc(N3CCNCC3)n/c(=N\CCCN3CCOCC3)[nH]1)C2 (3D coordinates assigned)
c1ccc2c(c1)CCN(c1nc(N3CCNCC3)n/c(=N\CCCN3CCOCC3)[nH]1)C2 (nonaromatic ring conformer: 83.3636785173553 kcal/mol)

>  <smiles>  (23) 
c1ccc2c(c1)CCN(c1nc(NCCCN3CCOCC3)nc(N3CCNCC3)n1)C2

>  <score_type>  (23) 
oracle

>  <origin>  (23) 
autodockgpu

>  <m_score__min__energy>  (23) 
-9.3100000000000005

>  <m_primary>  (23) 
energy

>  <meeko>  (23) 
{"free_energy": -8.9, "intermolecular_energy": -10.99, "internal_energy": -0.77, "cluster_size": 8, "cluster_id": 2, "rank_in_cluster": 7}

>  <energy>  (23) 
-9.1

>  <cluster_rmsd>  (23) 
0.97

>  <rmsd>  (23) 
271.71

>  <cluster>  (23) 
1

$$$$
RYCKWQXGCGPPJB-JLFMESFVNA-N
     RDKit          3D

 66 70  0  0  0  0  0  0  0  0999 V2000
  141.0428   68.7037  228.5629 H   0  0  0  0  0  0  0  0  0  0  0  0
  140.6600   68.7870  227.5350 C   0  0  0  0  0  0  0  0  0  0  0  0
  140.2560   67.6420  226.8470 C   0  0  0  0  0  0  0  0  0  0  0  0
  140.3268   66.6568  227.3311 H   0  0  0  0  0  0  0  0  0  0  0  0
  139.7620   67.7450  225.5450 C   0  0  0  0  0  0  0  0  0  0  0  0
  139.4514   66.8382  225.0053 H   0  0  0  0  0  0  0  0  0  0  0  0
  139.6590   68.9980  224.9200 C   0  0  0  0  0  0  0  0  0  0  0  0
  140.0980   70.1560  225.6070 C   0  0  0  0  0  0  0  0  0  0  0  0
  140.5790   70.0390  226.9200 C   0  0  0  0  0  0  0  0  0  0  0  0
  140.8943   70.9388  227.4687 H   0  0  0  0  0  0  0  0  0  0  0  0
  140.0160   71.5280  224.9780 C   0  0  0  0  0  0  0  0  0  0  0  0
  140.9862   72.0331  225.0948 H   0  0  0  0  0  0  0  0  0  0  0  0
  139.2174   72.0915  225.4827 H   0  0  0  0  0  0  0  0  0  0  0  0
  139.6900   71.4470  223.5510 N   0  0  0  0  0  0  0  0  0  0  0  0
  140.2030   72.4340  222.6340 C   0  0  0  0  0  0  0  0  0  0  0  0
  141.3810   72.2070  221.9930 N   0  0  0  0  0  0  0  0  0  0  0  0
  141.8710   73.1050  221.1000 C   0  0  0  0  0  0  0  0  0  0  0  0
  143.1210   72.8640  220.4240 N   0  0  0  0  0  0  0  0  0  0  0  0
  143.2580   71.7570  219.4650 C   0  0  0  0  0  0  0  0  0  0  0  0
  142.4980   70.9947  219.6914 H   0  0  0  0  0  0  0  0  0  0  0  0
  143.1222   72.1652  218.4526 H   0  0  0  0  0  0  0  0  0  0  0  0
  144.6590   71.1020  219.5330 C   0  0  0  0  0  0  0  0  0  0  0  0
  144.5896   70.2084  220.1707 H   0  0  0  0  0  0  0  0  0  0  0  0
  144.9460   70.8706  218.4966 H   0  0  0  0  0  0  0  0  0  0  0  0
  145.7180   71.9740  220.0760 N   0  0  0  0  0  0  0  0  0  0  0  0
  145.7720   71.8350  221.1130 H   0  0  0  0  0  0  0  0  0  0  0  0
  145.4570   73.3910  219.8100 C   0  0  0  0  0  0  0  0  0  0  0  0
  146.3200   73.9890  220.1381 H   0  0  0  0  0  0  0  0  0  0  0  0
  145.2951   73.5339  218.7314 H   0  0  0  0  0  0  0  0  0  0  0  0
  144.2080   73.8410  220.5720 C   0  0  0  0  0  0  0  0  0  0  0  0
  144.4554   73.9452  221.6388 H   0  0  0  0  0  0  0  0  0  0  0  0
  143.8729   74.8037  220.1586 H   0  0  0  0  0  0  0  0  0  0  0  0
  141.1700   74.2390  220.8490 N   0  0  0  0  0  0  0  0  0  0  0  0
  139.9930   74.4830  221.4810 C   0  0  0  0  0  0  0  0  0  0  0  0
  139.3400   75.5870  221.2630 N   0  0  0  0  0  0  0  0  0  0  0  0
  139.2350   76.6900  222.2180 C   0  0  0  0  0  0  0  0  0  0  0  0
  139.4840   76.3232  223.2247 H   0  0  0  0  0  0  0  0  0  0  0  0
  139.9344   77.4862  221.9231 H   0  0  0  0  0  0  0  0  0  0  0  0
  137.8110   77.2550  222.2240 C   0  0  0  0  0  0  0  0  0  0  0  0
  137.5039   77.4238  223.2667 H   0  0  0  0  0  0  0  0  0  0  0  0
  137.8228   78.1911  221.6464 H   0  0  0  0  0  0  0  0  0  0  0  0
  136.7940   76.3110  221.5580 C   0  0  0  0  0  0  0  0  0  0  0  0
  135.7878   76.7452  221.6527 H   0  0  0  0  0  0  0  0  0  0  0  0
  137.0720   76.1947  220.5001 H   0  0  0  0  0  0  0  0  0  0  0  0
  136.8020   74.9740  222.1900 N   0  0  0  0  0  0  0  0  0  0  0  0
  135.7140   74.8200  223.1730 C   0  0  0  0  0  0  0  0  0  0  0  0
  135.7810   75.6229  223.9219 H   0  0  0  0  0  0  0  0  0  0  0  0
  134.7444   74.8778  222.6567 H   0  0  0  0  0  0  0  0  0  0  0  0
  135.8400   73.4510  223.8750 C   0  0  0  0  0  0  0  0  0  0  0  0
  136.2024   73.6130  224.9009 H   0  0  0  0  0  0  0  0  0  0  0  0
  134.8465   72.9789  223.8660 H   0  0  0  0  0  0  0  0  0  0  0  0
  136.7380   72.5770  223.2080 O   0  0  0  0  0  0  0  0  0  0  0  0
  136.4340   72.5390  221.8300 C   0  0  0  0  0  0  0  0  0  0  0  0
  137.0528   71.7701  221.3443 H   0  0  0  0  0  0  0  0  0  0  0  0
  135.3669   72.3011  221.7084 H   0  0  0  0  0  0  0  0  0  0  0  0
  136.7170   73.9070  221.1740 C   0  0  0  0  0  0  0  0  0  0  0  0
  137.6704   73.8536  220.6280 H   0  0  0  0  0  0  0  0  0  0  0  0
  135.8914   74.1431  220.4865 H   0  0  0  0  0  0  0  0  0  0  0  0
  139.5040   73.5740  222.3650 N   0  0  0  0  0  0  0  0  0  0  0  0
  138.5740   73.7460  222.8090 H   0  0  0  0  0  0  0  0  0  0  0  0
  138.6720   70.4720  223.1490 C   0  0  0  0  0  0  0  0  0  0  0  0
  138.4979   70.5453  222.0653 H   0  0  0  0  0  0  0  0  0  0  0  0
  137.7300   70.6763  223.6791 H   0  0  0  0  0  0  0  0  0  0  0  0
  139.1670   69.0700  223.4950 C   0  0  0  0  0  0  0  0  0  0  0  0
  139.9916   68.8038  222.8174 H   0  0  0  0  0  0  0  0  0  0  0  0
  138.3279   68.3678  223.3816 H   0  0  0  0  0  0  0  0  0  0  0  0
  1  2  1  0
  2  3  2  0
  3  4  1  0
  3  5  1  0
  5  6  1  0
  5  7  2  0
  7  8  1  0
  8  9  2  0
  9 10  1  0
  8 11  1  0
 11 12  1  0
 11 13  1  0
 11 14  1  0
 14 15  1  0
 15 16  2  0
 16 17  1  0
 17 18  1  0
 18 19  1  0
 19 20  1  0
 19 21  1  0
 19 22  1  0
 22 23  1  0
 22 24  1  0
 22 25  1  0
 25 26  1  0
 25 27  1  0
 27 28  1  0
 27 29  1  0
 27 30  1  0
 30 31  1  0
 30 32  1  0
 17 33  2  0
 33 34  1  0
 34 35  2  0
 35 36  1  0
 36 37  1  0
 36 38  1  0
 36 39  1  0
 39 40  1  0
 39 41  1  0
 39 42  1  0
 42 43  1  0
 42 44  1  0
 42 45  1  0
 45 46  1  0
 46 47  1  0
 46 48  1  0
 46 49  1  0
 49 50  1  0
 49 51  1  0
 49 52  1  0
 52 53  1  0
 53 54  1  0
 53 55  1  0
 53 56  1  0
 56 57  1  0
 56 58  1  0
 34 59  1  0
 59 60  1  0
 14 61  1  0
 61 62  1  0
 61 63  1  0
 61 64  1  0
 64 65  1  0
 64 66  1  0
  9  2  1  0
 59 15  1  0
 64  7  1  0
 30 18  1  0
 56 45  1  0
M  END
>  <UniqueID>  (24) 
726

>  <SMILES>  (24) 
c1ccc2c(c1)CCN(c1nc(N3CCNCC3)n/c(=N\CCCN3CCOCC3)[nH]1)C2

>  <Energy>  (24) 
83.3636785173553

>  <Genealogy>  (24) 
c1ccc2c(c1)CCN(c1nc(N3CCNCC3)nc(=NCCCN3CCOCC3)[nH]1)C2 (tautomer)
c1ccc2c(c1)CCN(c1nc(N3CCNCC3)n/c(=N\CCCN3CCOCC3)[nH]1)C2 (cis-trans isomerization)
c1ccc2c(c1)CCN(c1nc(N3CCNCC3)n/c(=N\CCCN3CCOCC3)[nH]1)C2 (3D coordinates assigned)
c1ccc2c(c1)CCN(c1nc(N3CCNCC3)n/c(=N\CCCN3CCOCC3)[nH]1)C2 (nonaromatic ring conformer: 83.3636785173553 kcal/mol)

>  <smiles>  (24) 
c1ccc2c(c1)CCN(c1nc(NCCCN3CCOCC3)nc(N3CCNCC3)n1)C2

>  <score_type>  (24) 
oracle

>  <origin>  (24) 
autodockgpu

>  <m_score__min__energy>  (24) 
-9.3100000000000005

>  <m_primary>  (24) 
energy

>  <meeko>  (24) 
{"free_energy": -7.11, "intermolecular_energy": -9.2, "internal_energy": -2.57, "cluster_size": 5, "cluster_id": 3, "rank_in_cluster": 4}

>  <energy>  (24) 
-9.03

>  <cluster_rmsd>  (24) 
1.31

>  <rmsd>  (24) 
271.68

>  <cluster>  (24) 
1

$$$$
RYCKWQXGCGPPJB-JLFMESFVNA-N
     RDKit          3D

 66 70  0  0  0  0  0  0  0  0999 V2000
  141.2717   68.5988  228.4426 H   0  0  0  0  0  0  0  0  0  0  0  0
  140.8200   68.7120  227.4460 C   0  0  0  0  0  0  0  0  0  0  0  0
  140.3160   67.5960  226.7790 C   0  0  0  0  0  0  0  0  0  0  0  0
  140.3775   66.6026  227.2473 H   0  0  0  0  0  0  0  0  0  0  0  0
  139.7330   67.7370  225.5170 C   0  0  0  0  0  0  0  0  0  0  0  0
  139.3428   66.8517  224.9935 H   0  0  0  0  0  0  0  0  0  0  0  0
  139.6420   69.0000  224.9130 C   0  0  0  0  0  0  0  0  0  0  0  0
  140.1820   70.1300  225.5770 C   0  0  0  0  0  0  0  0  0  0  0  0
  140.7520   69.9740  226.8500 C   0  0  0  0  0  0  0  0  0  0  0  0
  141.1480   70.8514  227.3823 H   0  0  0  0  0  0  0  0  0  0  0  0
  140.1170   71.5120  224.9680 C   0  0  0  0  0  0  0  0  0  0  0  0
  141.1152   71.9716  225.0175 H   0  0  0  0  0  0  0  0  0  0  0  0
  139.3842   72.1047  225.5351 H   0  0  0  0  0  0  0  0  0  0  0  0
  139.6840   71.4630  223.5680 N   0  0  0  0  0  0  0  0  0  0  0  0
  140.1730   72.4370  222.6260 C   0  0  0  0  0  0  0  0  0  0  0  0
  141.3530   72.2190  221.9860 N   0  0  0  0  0  0  0  0  0  0  0  0
  141.8210   73.1050  221.0690 C   0  0  0  0  0  0  0  0  0  0  0  0
  143.0740   72.8740  220.3940 N   0  0  0  0  0  0  0  0  0  0  0  0
  143.2340   71.7390  219.4710 C   0  0  0  0  0  0  0  0  0  0  0  0
  142.4950   70.9655  219.7272 H   0  0  0  0  0  0  0  0  0  0  0  0
  143.0821   72.1091  218.4463 H   0  0  0  0  0  0  0  0  0  0  0  0
  144.6520   71.1230  219.5530 C   0  0  0  0  0  0  0  0  0  0  0  0
  144.6087   70.2500  220.2208 H   0  0  0  0  0  0  0  0  0  0  0  0
  144.9397   70.8647  218.5232 H   0  0  0  0  0  0  0  0  0  0  0  0
  145.6910   72.0390  220.0600 N   0  0  0  0  0  0  0  0  0  0  0  0
  145.7540   71.9360  221.1010 H   0  0  0  0  0  0  0  0  0  0  0  0
  145.3920   73.4390  219.7500 C   0  0  0  0  0  0  0  0  0  0  0  0
  146.2410   74.0692  220.0534 H   0  0  0  0  0  0  0  0  0  0  0  0
  145.2206   73.5421  218.6683 H   0  0  0  0  0  0  0  0  0  0  0  0
  144.1360   73.8820  220.5040 C   0  0  0  0  0  0  0  0  0  0  0  0
  144.3859   74.0271  221.5654 H   0  0  0  0  0  0  0  0  0  0  0  0
  143.7746   74.8220  220.0615 H   0  0  0  0  0  0  0  0  0  0  0  0
  141.0950   74.2170  220.7920 N   0  0  0  0  0  0  0  0  0  0  0  0
  139.9160   74.4520  221.4220 C   0  0  0  0  0  0  0  0  0  0  0  0
  139.2390   75.5370  221.1800 N   0  0  0  0  0  0  0  0  0  0  0  0
  139.4500   76.8150  221.8590 C   0  0  0  0  0  0  0  0  0  0  0  0
  140.3053   76.7245  222.5447 H   0  0  0  0  0  0  0  0  0  0  0  0
  139.6507   77.5910  221.1056 H   0  0  0  0  0  0  0  0  0  0  0  0
  138.2020   77.2070  222.6570 C   0  0  0  0  0  0  0  0  0  0  0  0
  138.3398   76.8934  223.7023 H   0  0  0  0  0  0  0  0  0  0  0  0
  138.0820   78.2971  222.5718 H   0  0  0  0  0  0  0  0  0  0  0  0
  136.9190   76.5540  222.1120 C   0  0  0  0  0  0  0  0  0  0  0  0
  136.0463   77.0814  222.5247 H   0  0  0  0  0  0  0  0  0  0  0  0
  136.9354   76.6238  221.0143 H   0  0  0  0  0  0  0  0  0  0  0  0
  136.8380   75.1260  222.4850 N   0  0  0  0  0  0  0  0  0  0  0  0
  135.7880   74.8740  223.4900 C   0  0  0  0  0  0  0  0  0  0  0  0
  135.9616   75.5124  224.3688 H   0  0  0  0  0  0  0  0  0  0  0  0
  134.8040   75.1047  223.0559 H   0  0  0  0  0  0  0  0  0  0  0  0
  135.8250   73.3910  223.9170 C   0  0  0  0  0  0  0  0  0  0  0  0
  136.2488   73.3263  224.9300 H   0  0  0  0  0  0  0  0  0  0  0  0
  134.7942   73.0085  223.8839 H   0  0  0  0  0  0  0  0  0  0  0  0
  136.6090   72.5920  223.0440 O   0  0  0  0  0  0  0  0  0  0  0  0
  136.2370   72.8400  221.7050 C   0  0  0  0  0  0  0  0  0  0  0  0
  136.7604   72.1307  221.0471 H   0  0  0  0  0  0  0  0  0  0  0  0
  135.1483   72.7145  221.6103 H   0  0  0  0  0  0  0  0  0  0  0  0
  136.6090   74.2800  221.2960 C   0  0  0  0  0  0  0  0  0  0  0  0
  137.5264   74.2560  220.6896 H   0  0  0  0  0  0  0  0  0  0  0  0
  135.7758   74.7063  220.7180 H   0  0  0  0  0  0  0  0  0  0  0  0
  139.4490   73.5550  222.3310 N   0  0  0  0  0  0  0  0  0  0  0  0
  138.5170   73.7190  222.7740 H   0  0  0  0  0  0  0  0  0  0  0  0
  138.5970   70.5390  223.2330 C   0  0  0  0  0  0  0  0  0  0  0  0
  138.3482   70.6333  222.1657 H   0  0  0  0  0  0  0  0  0  0  0  0
  137.7066   70.7784  223.8329 H   0  0  0  0  0  0  0  0  0  0  0  0
  139.0510   69.1120  223.5290 C   0  0  0  0  0  0  0  0  0  0  0  0
  139.8107   68.8173  222.7901 H   0  0  0  0  0  0  0  0  0  0  0  0
  138.1744   68.4500  223.4715 H   0  0  0  0  0  0  0  0  0  0  0  0
  1  2  1  0
  2  3  2  0
  3  4  1  0
  3  5  1  0
  5  6  1  0
  5  7  2  0
  7  8  1  0
  8  9  2  0
  9 10  1  0
  8 11  1  0
 11 12  1  0
 11 13  1  0
 11 14  1  0
 14 15  1  0
 15 16  2  0
 16 17  1  0
 17 18  1  0
 18 19  1  0
 19 20  1  0
 19 21  1  0
 19 22  1  0
 22 23  1  0
 22 24  1  0
 22 25  1  0
 25 26  1  0
 25 27  1  0
 27 28  1  0
 27 29  1  0
 27 30  1  0
 30 31  1  0
 30 32  1  0
 17 33  2  0
 33 34  1  0
 34 35  2  0
 35 36  1  0
 36 37  1  0
 36 38  1  0
 36 39  1  0
 39 40  1  0
 39 41  1  0
 39 42  1  0
 42 43  1  0
 42 44  1  0
 42 45  1  0
 45 46  1  0
 46 47  1  0
 46 48  1  0
 46 49  1  0
 49 50  1  0
 49 51  1  0
 49 52  1  0
 52 53  1  0
 53 54  1  0
 53 55  1  0
 53 56  1  0
 56 57  1  0
 56 58  1  0
 34 59  1  0
 59 60  1  0
 14 61  1  0
 61 62  1  0
 61 63  1  0
 61 64  1  0
 64 65  1  0
 64 66  1  0
  9  2  1  0
 59 15  1  0
 64  7  1  0
 30 18  1  0
 56 45  1  0
M  END
>  <UniqueID>  (25) 
726

>  <SMILES>  (25) 
c1ccc2c(c1)CCN(c1nc(N3CCNCC3)n/c(=N\CCCN3CCOCC3)[nH]1)C2

>  <Energy>  (25) 
83.3636785173553

>  <Genealogy>  (25) 
c1ccc2c(c1)CCN(c1nc(N3CCNCC3)nc(=NCCCN3CCOCC3)[nH]1)C2 (tautomer)
c1ccc2c(c1)CCN(c1nc(N3CCNCC3)n/c(=N\CCCN3CCOCC3)[nH]1)C2 (cis-trans isomerization)
c1ccc2c(c1)CCN(c1nc(N3CCNCC3)n/c(=N\CCCN3CCOCC3)[nH]1)C2 (3D coordinates assigned)
c1ccc2c(c1)CCN(c1nc(N3CCNCC3)n/c(=N\CCCN3CCOCC3)[nH]1)C2 (nonaromatic ring conformer: 83.3636785173553 kcal/mol)

>  <smiles>  (25) 
c1ccc2c(c1)CCN(c1nc(NCCCN3CCOCC3)nc(N3CCNCC3)n1)C2

>  <score_type>  (25) 
oracle

>  <origin>  (25) 
autodockgpu

>  <m_score__min__energy>  (25) 
-9.3100000000000005

>  <m_primary>  (25) 
energy

>  <meeko>  (25) 
{"free_energy": -7.3, "intermolecular_energy": -9.39, "internal_energy": -2.53, "cluster_size": 5, "cluster_id": 3, "rank_in_cluster": 1}

>  <energy>  (25) 
-9.0

>  <cluster_rmsd>  (25) 
1.09

>  <rmsd>  (25) 
271.64

>  <cluster>  (25) 
1

$$$$
RYCKWQXGCGPPJB-JLFMESFVNA-N
     RDKit          3D

 66 70  0  0  0  0  0  0  0  0999 V2000
  142.1437   81.5163  223.0088 H   0  0  0  0  0  0  0  0  0  0  0  0
  141.4410   80.6730  222.9380 C   0  0  0  0  0  0  0  0  0  0  0  0
  140.1880   80.7580  223.5440 C   0  0  0  0  0  0  0  0  0  0  0  0
  139.9062   81.6661  224.0971 H   0  0  0  0  0  0  0  0  0  0  0  0
  139.2900   79.6920  223.4500 C   0  0  0  0  0  0  0  0  0  0  0  0
  138.3057   79.7620  223.9361 H   0  0  0  0  0  0  0  0  0  0  0  0
  139.6360   78.5320  222.7390 C   0  0  0  0  0  0  0  0  0  0  0  0
  140.9200   78.4340  222.1490 C   0  0  0  0  0  0  0  0  0  0  0  0
  141.8050   79.5180  222.2410 C   0  0  0  0  0  0  0  0  0  0  0  0
  142.7929   79.4585  221.7609 H   0  0  0  0  0  0  0  0  0  0  0  0
  141.3450   77.2050  221.3790 C   0  0  0  0  0  0  0  0  0  0  0  0
  142.3343   76.8836  221.7367 H   0  0  0  0  0  0  0  0  0  0  0  0
  141.3794   77.4625  220.3101 H   0  0  0  0  0  0  0  0  0  0  0  0
  140.3940   76.1040  221.5560 N   0  0  0  0  0  0  0  0  0  0  0  0
  140.8560   74.7380  221.5370 C   0  0  0  0  0  0  0  0  0  0  0  0
  142.0030   74.4270  220.8770 N   0  0  0  0  0  0  0  0  0  0  0  0
  142.4790   73.1540  220.8720 C   0  0  0  0  0  0  0  0  0  0  0  0
  143.6930   72.8250  220.1680 N   0  0  0  0  0  0  0  0  0  0  0  0
  144.9710   72.7010  220.8880 C   0  0  0  0  0  0  0  0  0  0  0  0
  144.9114   73.2813  221.8206 H   0  0  0  0  0  0  0  0  0  0  0  0
  145.1434   71.6344  221.0945 H   0  0  0  0  0  0  0  0  0  0  0  0
  146.1610   73.2250  220.0480 C   0  0  0  0  0  0  0  0  0  0  0  0
  146.3739   74.2576  220.3617 H   0  0  0  0  0  0  0  0  0  0  0  0
  146.9990   72.5364  220.2316 H   0  0  0  0  0  0  0  0  0  0  0  0
  145.9320   73.2250  218.5910 N   0  0  0  0  0  0  0  0  0  0  0  0
  145.5270   74.1510  218.3120 H   0  0  0  0  0  0  0  0  0  0  0  0
  145.0030   72.1690  218.1780 C   0  0  0  0  0  0  0  0  0  0  0  0
  144.9463   72.1418  217.0798 H   0  0  0  0  0  0  0  0  0  0  0  0
  145.3637   71.2007  218.5552 H   0  0  0  0  0  0  0  0  0  0  0  0
  143.6130   72.4470  218.7510 C   0  0  0  0  0  0  0  0  0  0  0  0
  143.1486   73.2682  218.1854 H   0  0  0  0  0  0  0  0  0  0  0  0
  143.0098   71.5310  218.6665 H   0  0  0  0  0  0  0  0  0  0  0  0
  141.7970   72.1900  221.5380 N   0  0  0  0  0  0  0  0  0  0  0  0
  140.6490   72.4820  222.2020 C   0  0  0  0  0  0  0  0  0  0  0  0
  139.9790   71.5490  222.8110 N   0  0  0  0  0  0  0  0  0  0  0  0
  139.1510   70.5480  222.1380 C   0  0  0  0  0  0  0  0  0  0  0  0
  138.2749   71.0420  221.6925 H   0  0  0  0  0  0  0  0  0  0  0  0
  139.7477   70.0591  221.3538 H   0  0  0  0  0  0  0  0  0  0  0  0
  138.6790   69.4880  223.1380 C   0  0  0  0  0  0  0  0  0  0  0  0
  137.8531   68.9199  222.6849 H   0  0  0  0  0  0  0  0  0  0  0  0
  139.5392   68.8422  223.3680 H   0  0  0  0  0  0  0  0  0  0  0  0
  138.1880   70.0980  224.4640 C   0  0  0  0  0  0  0  0  0  0  0  0
  138.2943   71.1918  224.4155 H   0  0  0  0  0  0  0  0  0  0  0  0
  137.1351   69.8133  224.6064 H   0  0  0  0  0  0  0  0  0  0  0  0
  138.9660   69.5900  225.6140 N   0  0  0  0  0  0  0  0  0  0  0  0
  139.5150   68.2440  225.3610 C   0  0  0  0  0  0  0  0  0  0  0  0
  138.6969   67.5595  225.0925 H   0  0  0  0  0  0  0  0  0  0  0  0
  140.2393   68.2944  224.5346 H   0  0  0  0  0  0  0  0  0  0  0  0
  140.2220   67.7260  226.6310 C   0  0  0  0  0  0  0  0  0  0  0  0
  139.5961   66.9463  227.0897 H   0  0  0  0  0  0  0  0  0  0  0  0
  141.2037   67.3321  226.3291 H   0  0  0  0  0  0  0  0  0  0  0  0
  140.4450   68.7510  227.5870 O   0  0  0  0  0  0  0  0  0  0  0  0
  141.0400   69.8670  226.9610 C   0  0  0  0  0  0  0  0  0  0  0  0
  141.3212   70.6042  227.7275 H   0  0  0  0  0  0  0  0  0  0  0  0
  141.9313   69.5315  226.4106 H   0  0  0  0  0  0  0  0  0  0  0  0
  140.0580   70.5190  225.9670 C   0  0  0  0  0  0  0  0  0  0  0  0
  139.6280   71.4214  226.4261 H   0  0  0  0  0  0  0  0  0  0  0  0
  140.6080   70.7771  225.0500 H   0  0  0  0  0  0  0  0  0  0  0  0
  140.1860   73.7600  222.2110 N   0  0  0  0  0  0  0  0  0  0  0  0
  139.3290   73.9860  222.7660 H   0  0  0  0  0  0  0  0  0  0  0  0
  138.9670   76.4390  221.5340 C   0  0  0  0  0  0  0  0  0  0  0  0
  138.3704   75.5204  221.6354 H   0  0  0  0  0  0  0  0  0  0  0  0
  138.7138   76.9291  220.5823 H   0  0  0  0  0  0  0  0  0  0  0  0
  138.6620   77.3790  222.6970 C   0  0  0  0  0  0  0  0  0  0  0  0
  138.7310   76.8168  223.6400 H   0  0  0  0  0  0  0  0  0  0  0  0
  137.6488   77.7846  222.5597 H   0  0  0  0  0  0  0  0  0  0  0  0
  1  2  1  0
  2  3  2  0
  3  4  1  0
  3  5  1  0
  5  6  1  0
  5  7  2  0
  7  8  1  0
  8  9  2  0
  9 10  1  0
  8 11  1  0
 11 12  1  0
 11 13  1  0
 11 14  1  0
 14 15  1  0
 15 16  2  0
 16 17  1  0
 17 18  1  0
 18 19  1  0
 19 20  1  0
 19 21  1  0
 19 22  1  0
 22 23  1  0
 22 24  1  0
 22 25  1  0
 25 26  1  0
 25 27  1  0
 27 28  1  0
 27 29  1  0
 27 30  1  0
 30 31  1  0
 30 32  1  0
 17 33  2  0
 33 34  1  0
 34 35  2  0
 35 36  1  0
 36 37  1  0
 36 38  1  0
 36 39  1  0
 39 40  1  0
 39 41  1  0
 39 42  1  0
 42 43  1  0
 42 44  1  0
 42 45  1  0
 45 46  1  0
 46 47  1  0
 46 48  1  0
 46 49  1  0
 49 50  1  0
 49 51  1  0
 49 52  1  0
 52 53  1  0
 53 54  1  0
 53 55  1  0
 53 56  1  0
 56 57  1  0
 56 58  1  0
 34 59  1  0
 59 60  1  0
 14 61  1  0
 61 62  1  0
 61 63  1  0
 61 64  1  0
 64 65  1  0
 64 66  1  0
  9  2  1  0
 59 15  1  0
 64  7  1  0
 30 18  1  0
 56 45  1  0
M  END
>  <UniqueID>  (26) 
726

>  <SMILES>  (26) 
c1ccc2c(c1)CCN(c1nc(N3CCNCC3)n/c(=N\CCCN3CCOCC3)[nH]1)C2

>  <Energy>  (26) 
83.3636785173553

>  <Genealogy>  (26) 
c1ccc2c(c1)CCN(c1nc(N3CCNCC3)nc(=NCCCN3CCOCC3)[nH]1)C2 (tautomer)
c1ccc2c(c1)CCN(c1nc(N3CCNCC3)n/c(=N\CCCN3CCOCC3)[nH]1)C2 (cis-trans isomerization)
c1ccc2c(c1)CCN(c1nc(N3CCNCC3)n/c(=N\CCCN3CCOCC3)[nH]1)C2 (3D coordinates assigned)
c1ccc2c(c1)CCN(c1nc(N3CCNCC3)n/c(=N\CCCN3CCOCC3)[nH]1)C2 (nonaromatic ring conformer: 83.3636785173553 kcal/mol)

>  <smiles>  (26) 
c1ccc2c(c1)CCN(c1nc(NCCCN3CCOCC3)nc(N3CCNCC3)n1)C2

>  <score_type>  (26) 
oracle

>  <origin>  (26) 
autodockgpu

>  <m_score__min__energy>  (26) 
-9.3100000000000005

>  <m_primary>  (26) 
energy

>  <meeko>  (26) 
{"free_energy": -8.54, "intermolecular_energy": -10.63, "internal_energy": -0.81, "cluster_size": 7, "cluster_id": 1, "rank_in_cluster": 7}

>  <energy>  (26) 
-8.95

>  <cluster_rmsd>  (26) 
1.3

>  <rmsd>  (26) 
271.48

>  <cluster>  (26) 
1

$$$$
RYCKWQXGCGPPJB-JLFMESFVNA-N
     RDKit          3D

 66 70  0  0  0  0  0  0  0  0999 V2000
  141.5976   68.7269  228.5201 H   0  0  0  0  0  0  0  0  0  0  0  0
  141.1000   68.8250  227.5440 C   0  0  0  0  0  0  0  0  0  0  0  0
  140.5460   67.7030  226.9290 C   0  0  0  0  0  0  0  0  0  0  0  0
  140.6120   66.7200  227.4183 H   0  0  0  0  0  0  0  0  0  0  0  0
  139.9070   67.8250  225.6920 C   0  0  0  0  0  0  0  0  0  0  0  0
  139.4781   66.9350  225.2083 H   0  0  0  0  0  0  0  0  0  0  0  0
  139.8090   69.0760  225.0630 C   0  0  0  0  0  0  0  0  0  0  0  0
  140.3970   70.2110  225.6740 C   0  0  0  0  0  0  0  0  0  0  0  0
  141.0240   70.0740  226.9220 C   0  0  0  0  0  0  0  0  0  0  0  0
  141.4589   70.9564  227.4142 H   0  0  0  0  0  0  0  0  0  0  0  0
  140.3260   71.5790  225.0360 C   0  0  0  0  0  0  0  0  0  0  0  0
  141.3328   72.0220  225.0278 H   0  0  0  0  0  0  0  0  0  0  0  0
  139.6303   72.1971  225.6225 H   0  0  0  0  0  0  0  0  0  0  0  0
  139.8270   71.5060  223.6600 N   0  0  0  0  0  0  0  0  0  0  0  0
  140.2880   72.4500  222.6730 C   0  0  0  0  0  0  0  0  0  0  0  0
  141.4650   72.2280  222.0290 N   0  0  0  0  0  0  0  0  0  0  0  0
  141.9060   73.0840  221.0710 C   0  0  0  0  0  0  0  0  0  0  0  0
  143.1560   72.8490  220.3920 N   0  0  0  0  0  0  0  0  0  0  0  0
  143.3060   71.7220  219.4590 C   0  0  0  0  0  0  0  0  0  0  0  0
  142.5615   70.9519  219.7092 H   0  0  0  0  0  0  0  0  0  0  0  0
  143.1555   72.1028  218.4380 H   0  0  0  0  0  0  0  0  0  0  0  0
  144.7200   71.0940  219.5330 C   0  0  0  0  0  0  0  0  0  0  0  0
  144.6706   70.2145  220.1918 H   0  0  0  0  0  0  0  0  0  0  0  0
  145.0044   70.8445  218.5001 H   0  0  0  0  0  0  0  0  0  0  0  0
  145.7670   71.9960  220.0480 N   0  0  0  0  0  0  0  0  0  0  0  0
  145.8300   71.8830  221.0880 H   0  0  0  0  0  0  0  0  0  0  0  0
  145.4780   73.4020  219.7510 C   0  0  0  0  0  0  0  0  0  0  0  0
  146.3324   74.0229  220.0585 H   0  0  0  0  0  0  0  0  0  0  0  0
  145.3055   73.5160  218.6706 H   0  0  0  0  0  0  0  0  0  0  0  0
  144.2270   73.8480  220.5110 C   0  0  0  0  0  0  0  0  0  0  0  0
  144.4794   73.9804  221.5735 H   0  0  0  0  0  0  0  0  0  0  0  0
  143.8728   74.7955  220.0788 H   0  0  0  0  0  0  0  0  0  0  0  0
  141.1560   74.1700  220.7570 N   0  0  0  0  0  0  0  0  0  0  0  0
  139.9790   74.4080  221.3910 C   0  0  0  0  0  0  0  0  0  0  0  0
  139.2790   75.4690  221.1120 N   0  0  0  0  0  0  0  0  0  0  0  0
  138.5570   76.2690  222.1010 C   0  0  0  0  0  0  0  0  0  0  0  0
  137.5779   76.5566  221.6903 H   0  0  0  0  0  0  0  0  0  0  0  0
  138.4215   75.6716  223.0147 H   0  0  0  0  0  0  0  0  0  0  0  0
  139.3520   77.5330  222.4450 C   0  0  0  0  0  0  0  0  0  0  0  0
  139.1427   78.2986  221.6834 H   0  0  0  0  0  0  0  0  0  0  0  0
  139.0387   77.8604  223.4473 H   0  0  0  0  0  0  0  0  0  0  0  0
  140.8710   77.2850  222.4900 C   0  0  0  0  0  0  0  0  0  0  0  0
  141.1163   76.7337  223.4097 H   0  0  0  0  0  0  0  0  0  0  0  0
  141.1531   76.7044  221.5993 H   0  0  0  0  0  0  0  0  0  0  0  0
  141.6270   78.5560  222.4750 N   0  0  0  0  0  0  0  0  0  0  0  0
  140.9980   79.5640  221.6010 C   0  0  0  0  0  0  0  0  0  0  0  0
  140.8822   79.1495  220.5887 H   0  0  0  0  0  0  0  0  0  0  0  0
  140.0105   79.8319  222.0048 H   0  0  0  0  0  0  0  0  0  0  0  0
  141.8860   80.8250  221.5410 C   0  0  0  0  0  0  0  0  0  0  0  0
  142.3780   80.8634  220.5579 H   0  0  0  0  0  0  0  0  0  0  0  0
  141.2373   81.6984  221.7033 H   0  0  0  0  0  0  0  0  0  0  0  0
  142.8840   80.8360  222.5500 O   0  0  0  0  0  0  0  0  0  0  0  0
  142.3020   80.5500  223.8030 C   0  0  0  0  0  0  0  0  0  0  0  0
  143.0579   80.6812  224.5913 H   0  0  0  0  0  0  0  0  0  0  0  0
  141.4582   81.2363  223.9674 H   0  0  0  0  0  0  0  0  0  0  0  0
  141.7780   79.0990  223.8390 C   0  0  0  0  0  0  0  0  0  0  0  0
  142.4895   78.4736  224.3982 H   0  0  0  0  0  0  0  0  0  0  0  0
  140.7929   79.0947  224.3284 H   0  0  0  0  0  0  0  0  0  0  0  0
  139.5390   73.5410  222.3400 N   0  0  0  0  0  0  0  0  0  0  0  0
  138.6090   73.7050  222.7860 H   0  0  0  0  0  0  0  0  0  0  0  0
  138.7110   70.5940  223.3980 C   0  0  0  0  0  0  0  0  0  0  0  0
  138.4139   70.6682  222.3415 H   0  0  0  0  0  0  0  0  0  0  0  0
  137.8538   70.8625  224.0329 H   0  0  0  0  0  0  0  0  0  0  0  0
  139.1550   69.1670  223.7060 C   0  0  0  0  0  0  0  0  0  0  0  0
  139.8740   68.8423  222.9394 H   0  0  0  0  0  0  0  0  0  0  0  0
  138.2658   68.5194  223.7055 H   0  0  0  0  0  0  0  0  0  0  0  0
  1  2  1  0
  2  3  2  0
  3  4  1  0
  3  5  1  0
  5  6  1  0
  5  7  2  0
  7  8  1  0
  8  9  2  0
  9 10  1  0
  8 11  1  0
 11 12  1  0
 11 13  1  0
 11 14  1  0
 14 15  1  0
 15 16  2  0
 16 17  1  0
 17 18  1  0
 18 19  1  0
 19 20  1  0
 19 21  1  0
 19 22  1  0
 22 23  1  0
 22 24  1  0
 22 25  1  0
 25 26  1  0
 25 27  1  0
 27 28  1  0
 27 29  1  0
 27 30  1  0
 30 31  1  0
 30 32  1  0
 17 33  2  0
 33 34  1  0
 34 35  2  0
 35 36  1  0
 36 37  1  0
 36 38  1  0
 36 39  1  0
 39 40  1  0
 39 41  1  0
 39 42  1  0
 42 43  1  0
 42 44  1  0
 42 45  1  0
 45 46  1  0
 46 47  1  0
 46 48  1  0
 46 49  1  0
 49 50  1  0
 49 51  1  0
 49 52  1  0
 52 53  1  0
 53 54  1  0
 53 55  1  0
 53 56  1  0
 56 57  1  0
 56 58  1  0
 34 59  1  0
 59 60  1  0
 14 61  1  0
 61 62  1  0
 61 63  1  0
 61 64  1  0
 64 65  1  0
 64 66  1  0
  9  2  1  0
 59 15  1  0
 64  7  1  0
 30 18  1  0
 56 45  1  0
M  END
>  <UniqueID>  (27) 
726

>  <SMILES>  (27) 
c1ccc2c(c1)CCN(c1nc(N3CCNCC3)n/c(=N\CCCN3CCOCC3)[nH]1)C2

>  <Energy>  (27) 
83.3636785173553

>  <Genealogy>  (27) 
c1ccc2c(c1)CCN(c1nc(N3CCNCC3)nc(=NCCCN3CCOCC3)[nH]1)C2 (tautomer)
c1ccc2c(c1)CCN(c1nc(N3CCNCC3)n/c(=N\CCCN3CCOCC3)[nH]1)C2 (cis-trans isomerization)
c1ccc2c(c1)CCN(c1nc(N3CCNCC3)n/c(=N\CCCN3CCOCC3)[nH]1)C2 (3D coordinates assigned)
c1ccc2c(c1)CCN(c1nc(N3CCNCC3)n/c(=N\CCCN3CCOCC3)[nH]1)C2 (nonaromatic ring conformer: 83.3636785173553 kcal/mol)

>  <smiles>  (27) 
c1ccc2c(c1)CCN(c1nc(NCCCN3CCOCC3)nc(N3CCNCC3)n1)C2

>  <score_type>  (27) 
oracle

>  <origin>  (27) 
autodockgpu

>  <m_score__min__energy>  (27) 
-9.3100000000000005

>  <m_primary>  (27) 
energy

>  <meeko>  (27) 
{"free_energy": -9.13, "intermolecular_energy": -11.22, "internal_energy": -0.82, "cluster_size": 8, "cluster_id": 2, "rank_in_cluster": 2}

>  <energy>  (27) 
-8.54

>  <cluster_rmsd>  (27) 
0.79

>  <rmsd>  (27) 
271.15

>  <cluster>  (27) 
1

$$$$
RYCKWQXGCGPPJB-JLFMESFVNA-N
     RDKit          3D

 66 70  0  0  0  0  0  0  0  0999 V2000
  142.7395   81.7196  222.7288 H   0  0  0  0  0  0  0  0  0  0  0  0
  141.9780   80.9260  222.7460 C   0  0  0  0  0  0  0  0  0  0  0  0
  140.8150   81.0930  223.4980 C   0  0  0  0  0  0  0  0  0  0  0  0
  140.6636   82.0152  224.0782 H   0  0  0  0  0  0  0  0  0  0  0  0
  139.8420   80.0900  223.5150 C   0  0  0  0  0  0  0  0  0  0  0  0
  138.9299   80.2236  224.1152 H   0  0  0  0  0  0  0  0  0  0  0  0
  140.0210   78.9130  222.7710 C   0  0  0  0  0  0  0  0  0  0  0  0
  141.2160   78.7320  222.0320 C   0  0  0  0  0  0  0  0  0  0  0  0
  142.1770   79.7530  222.0150 C   0  0  0  0  0  0  0  0  0  0  0  0
  143.0947   79.6290  221.4213 H   0  0  0  0  0  0  0  0  0  0  0  0
  141.4620   77.4800  221.2200 C   0  0  0  0  0  0  0  0  0  0  0  0
  142.4628   77.0905  221.4581 H   0  0  0  0  0  0  0  0  0  0  0  0
  141.3862   77.7398  220.1538 H   0  0  0  0  0  0  0  0  0  0  0  0
  140.4660   76.4450  221.5130 N   0  0  0  0  0  0  0  0  0  0  0  0
  140.8300   75.0520  221.4430 C   0  0  0  0  0  0  0  0  0  0  0  0
  142.0120   74.6940  220.8760 N   0  0  0  0  0  0  0  0  0  0  0  0
  142.3940   73.3910  220.8280 C   0  0  0  0  0  0  0  0  0  0  0  0
  143.6470   73.0130  220.2230 N   0  0  0  0  0  0  0  0  0  0  0  0
  144.8870   72.9850  221.0150 C   0  0  0  0  0  0  0  0  0  0  0  0
  144.7719   73.6557  221.8793 H   0  0  0  0  0  0  0  0  0  0  0  0
  145.0615   71.9479  221.3374 H   0  0  0  0  0  0  0  0  0  0  0  0
  146.1130   73.4420  220.1870 C   0  0  0  0  0  0  0  0  0  0  0  0
  146.2966   74.5047  220.4039 H   0  0  0  0  0  0  0  0  0  0  0  0
  146.9487   72.7905  220.4822 H   0  0  0  0  0  0  0  0  0  0  0  0
  145.9600   73.2900  218.7270 N   0  0  0  0  0  0  0  0  0  0  0  0
  145.5580   74.1740  218.3350 H   0  0  0  0  0  0  0  0  0  0  0  0
  145.0660   72.1810  218.3790 C   0  0  0  0  0  0  0  0  0  0  0  0
  145.0658   72.0412  217.2879 H   0  0  0  0  0  0  0  0  0  0  0  0
  145.4190   71.2629  218.8714 H   0  0  0  0  0  0  0  0  0  0  0  0
  143.6440   72.4910  218.8510 C   0  0  0  0  0  0  0  0  0  0  0  0
  143.1984   73.2415  218.1816 H   0  0  0  0  0  0  0  0  0  0  0  0
  143.0577   71.5605  218.8314 H   0  0  0  0  0  0  0  0  0  0  0  0
  141.5810   72.4430  221.3560 N   0  0  0  0  0  0  0  0  0  0  0  0
  140.3950   72.7810  221.9240 C   0  0  0  0  0  0  0  0  0  0  0  0
  139.6020   71.8660  222.3990 N   0  0  0  0  0  0  0  0  0  0  0  0
  139.9940   70.8560  223.3800 C   0  0  0  0  0  0  0  0  0  0  0  0
  139.6914   69.8623  223.0180 H   0  0  0  0  0  0  0  0  0  0  0  0
  141.0852   70.8931  223.5141 H   0  0  0  0  0  0  0  0  0  0  0  0
  139.3180   71.1300  224.7270 C   0  0  0  0  0  0  0  0  0  0  0  0
  138.7986   72.0979  224.6693 H   0  0  0  0  0  0  0  0  0  0  0  0
  138.6190   70.3032  224.9214 H   0  0  0  0  0  0  0  0  0  0  0  0
  140.3180   71.1770  225.8970 C   0  0  0  0  0  0  0  0  0  0  0  0
  141.2462   71.6584  225.5553 H   0  0  0  0  0  0  0  0  0  0  0  0
  139.8619   71.7478  226.7193 H   0  0  0  0  0  0  0  0  0  0  0  0
  140.6340   69.8200  226.3920 N   0  0  0  0  0  0  0  0  0  0  0  0
  140.6380   69.7540  227.8650 C   0  0  0  0  0  0  0  0  0  0  0  0
  141.3380   70.5034  228.2629 H   0  0  0  0  0  0  0  0  0  0  0  0
  139.6251   69.9586  228.2421 H   0  0  0  0  0  0  0  0  0  0  0  0
  141.0790   68.3470  228.3200 C   0  0  0  0  0  0  0  0  0  0  0  0
  142.1022   68.4101  228.7189 H   0  0  0  0  0  0  0  0  0  0  0  0
  140.3663   68.0051  229.0849 H   0  0  0  0  0  0  0  0  0  0  0  0
  141.0610   67.4020  227.2620 O   0  0  0  0  0  0  0  0  0  0  0  0
  139.8280   67.4720  226.5780 C   0  0  0  0  0  0  0  0  0  0  0  0
  139.7760   66.6564  225.8417 H   0  0  0  0  0  0  0  0  0  0  0  0
  139.0110   67.3773  227.3084 H   0  0  0  0  0  0  0  0  0  0  0  0
  139.6890   68.8240  225.8480 C   0  0  0  0  0  0  0  0  0  0  0  0
  139.8973   68.6778  224.7778 H   0  0  0  0  0  0  0  0  0  0  0  0
  138.6646   69.1971  225.9944 H   0  0  0  0  0  0  0  0  0  0  0  0
  140.0260   74.0880  221.9790 N   0  0  0  0  0  0  0  0  0  0  0  0
  139.1360   74.3450  222.4620 H   0  0  0  0  0  0  0  0  0  0  0  0
  139.0730   76.8760  221.6610 C   0  0  0  0  0  0  0  0  0  0  0  0
  138.4320   75.9995  221.8367 H   0  0  0  0  0  0  0  0  0  0  0  0
  138.7415   77.3864  220.7447 H   0  0  0  0  0  0  0  0  0  0  0  0
  138.9740   77.8290  222.8480 C   0  0  0  0  0  0  0  0  0  0  0  0
  139.1165   77.2589  223.7779 H   0  0  0  0  0  0  0  0  0  0  0  0
  137.9817   78.3034  222.8300 H   0  0  0  0  0  0  0  0  0  0  0  0
  1  2  1  0
  2  3  2  0
  3  4  1  0
  3  5  1  0
  5  6  1  0
  5  7  2  0
  7  8  1  0
  8  9  2  0
  9 10  1  0
  8 11  1  0
 11 12  1  0
 11 13  1  0
 11 14  1  0
 14 15  1  0
 15 16  2  0
 16 17  1  0
 17 18  1  0
 18 19  1  0
 19 20  1  0
 19 21  1  0
 19 22  1  0
 22 23  1  0
 22 24  1  0
 22 25  1  0
 25 26  1  0
 25 27  1  0
 27 28  1  0
 27 29  1  0
 27 30  1  0
 30 31  1  0
 30 32  1  0
 17 33  2  0
 33 34  1  0
 34 35  2  0
 35 36  1  0
 36 37  1  0
 36 38  1  0
 36 39  1  0
 39 40  1  0
 39 41  1  0
 39 42  1  0
 42 43  1  0
 42 44  1  0
 42 45  1  0
 45 46  1  0
 46 47  1  0
 46 48  1  0
 46 49  1  0
 49 50  1  0
 49 51  1  0
 49 52  1  0
 52 53  1  0
 53 54  1  0
 53 55  1  0
 53 56  1  0
 56 57  1  0
 56 58  1  0
 34 59  1  0
 59 60  1  0
 14 61  1  0
 61 62  1  0
 61 63  1  0
 61 64  1  0
 64 65  1  0
 64 66  1  0
  9  2  1  0
 59 15  1  0
 64  7  1  0
 30 18  1  0
 56 45  1  0
M  END
>  <UniqueID>  (28) 
726

>  <SMILES>  (28) 
c1ccc2c(c1)CCN(c1nc(N3CCNCC3)n/c(=N\CCCN3CCOCC3)[nH]1)C2

>  <Energy>  (28) 
83.3636785173553

>  <Genealogy>  (28) 
c1ccc2c(c1)CCN(c1nc(N3CCNCC3)nc(=NCCCN3CCOCC3)[nH]1)C2 (tautomer)
c1ccc2c(c1)CCN(c1nc(N3CCNCC3)n/c(=N\CCCN3CCOCC3)[nH]1)C2 (cis-trans isomerization)
c1ccc2c(c1)CCN(c1nc(N3CCNCC3)n/c(=N\CCCN3CCOCC3)[nH]1)C2 (3D coordinates assigned)
c1ccc2c(c1)CCN(c1nc(N3CCNCC3)n/c(=N\CCCN3CCOCC3)[nH]1)C2 (nonaromatic ring conformer: 83.3636785173553 kcal/mol)

>  <smiles>  (28) 
c1ccc2c(c1)CCN(c1nc(NCCCN3CCOCC3)nc(N3CCNCC3)n1)C2

>  <score_type>  (28) 
oracle

>  <origin>  (28) 
autodockgpu

>  <m_score__min__energy>  (28) 
-9.3100000000000005

>  <m_primary>  (28) 
energy

>  <meeko>  (28) 
{"free_energy": -9.31, "intermolecular_energy": -11.39, "internal_energy": -0.68, "cluster_size": 7, "cluster_id": 1, "rank_in_cluster": 1}

>  <energy>  (28) 
-9.19

>  <cluster_rmsd>  (28) 
0.0

>  <rmsd>  (28) 
271.44

>  <cluster>  (28) 
2

$$$$
RYCKWQXGCGPPJB-JLFMESFVNA-N
     RDKit          3D

 66 70  0  0  0  0  0  0  0  0999 V2000
  140.8637   68.4720  228.3087 H   0  0  0  0  0  0  0  0  0  0  0  0
  140.5240   68.6330  227.2750 C   0  0  0  0  0  0  0  0  0  0  0  0
  140.0460   67.5590  226.5240 C   0  0  0  0  0  0  0  0  0  0  0  0
  140.0153   66.5513  226.9640 H   0  0  0  0  0  0  0  0  0  0  0  0
  139.6060   67.7620  225.2130 C   0  0  0  0  0  0  0  0  0  0  0  0
  139.2369   66.9105  224.6225 H   0  0  0  0  0  0  0  0  0  0  0  0
  139.6320   69.0450  224.6450 C   0  0  0  0  0  0  0  0  0  0  0  0
  140.1450   70.1290  225.3980 C   0  0  0  0  0  0  0  0  0  0  0  0
  140.5720   69.9120  226.7170 C   0  0  0  0  0  0  0  0  0  0  0  0
  140.9471   70.7553  227.3154 H   0  0  0  0  0  0  0  0  0  0  0  0
  140.2030   71.5300  224.8310 C   0  0  0  0  0  0  0  0  0  0  0  0
  141.2092   71.9419  224.9982 H   0  0  0  0  0  0  0  0  0  0  0  0
  139.4410   72.1396  225.3387 H   0  0  0  0  0  0  0  0  0  0  0  0
  139.9170   71.5400  223.3930 N   0  0  0  0  0  0  0  0  0  0  0  0
  140.5440   72.5170  222.5390 C   0  0  0  0  0  0  0  0  0  0  0  0
  141.7180   72.2180  221.9230 N   0  0  0  0  0  0  0  0  0  0  0  0
  142.3130   73.1080  221.0870 C   0  0  0  0  0  0  0  0  0  0  0  0
  143.5600   72.7890  220.4380 N   0  0  0  0  0  0  0  0  0  0  0  0
  144.8080   72.6920  221.2110 C   0  0  0  0  0  0  0  0  0  0  0  0
  144.7012   73.2813  222.1337 H   0  0  0  0  0  0  0  0  0  0  0  0
  144.9872   71.6303  221.4361 H   0  0  0  0  0  0  0  0  0  0  0  0
  146.0250   73.2250  220.4150 C   0  0  0  0  0  0  0  0  0  0  0  0
  146.2099   74.2639  220.7257 H   0  0  0  0  0  0  0  0  0  0  0  0
  146.8647   72.5513  220.6409 H   0  0  0  0  0  0  0  0  0  0  0  0
  145.8560   73.2060  218.9500 N   0  0  0  0  0  0  0  0  0  0  0  0
  145.4490   74.1220  218.6440 H   0  0  0  0  0  0  0  0  0  0  0  0
  144.9610   72.1310  218.5110 C   0  0  0  0  0  0  0  0  0  0  0  0
  144.9500   72.0912  217.4118 H   0  0  0  0  0  0  0  0  0  0  0  0
  145.3205   71.1724  218.9134 H   0  0  0  0  0  0  0  0  0  0  0  0
  143.5430   72.3940  219.0240 C   0  0  0  0  0  0  0  0  0  0  0  0
  143.0896   73.2015  218.4303 H   0  0  0  0  0  0  0  0  0  0  0  0
  142.9573   71.4681  218.9257 H   0  0  0  0  0  0  0  0  0  0  0  0
  141.7190   74.3080  220.8680 N   0  0  0  0  0  0  0  0  0  0  0  0
  140.5470   74.6250  221.4750 C   0  0  0  0  0  0  0  0  0  0  0  0
  139.9980   75.7900  221.2890 N   0  0  0  0  0  0  0  0  0  0  0  0
  139.7960   76.7890  222.3380 C   0  0  0  0  0  0  0  0  0  0  0  0
  139.7640   76.2864  223.3160 H   0  0  0  0  0  0  0  0  0  0  0  0
  140.6272   77.5089  222.3103 H   0  0  0  0  0  0  0  0  0  0  0  0
  138.4800   77.5400  222.1130 C   0  0  0  0  0  0  0  0  0  0  0  0
  138.5481   78.5234  222.6011 H   0  0  0  0  0  0  0  0  0  0  0  0
  138.3327   77.6343  221.0270 H   0  0  0  0  0  0  0  0  0  0  0  0
  137.2630   76.7900  222.6840 C   0  0  0  0  0  0  0  0  0  0  0  0
  137.2347   76.9323  223.7744 H   0  0  0  0  0  0  0  0  0  0  0  0
  136.3554   77.1952  222.2127 H   0  0  0  0  0  0  0  0  0  0  0  0
  137.3320   75.3430  222.3900 N   0  0  0  0  0  0  0  0  0  0  0  0
  136.2790   74.5840  223.0900 C   0  0  0  0  0  0  0  0  0  0  0  0
  136.3428   74.7809  224.1704 H   0  0  0  0  0  0  0  0  0  0  0  0
  135.2932   74.8973  222.7158 H   0  0  0  0  0  0  0  0  0  0  0  0
  136.4690   73.0740  222.8310 C   0  0  0  0  0  0  0  0  0  0  0  0
  136.8564   72.6051  223.7475 H   0  0  0  0  0  0  0  0  0  0  0  0
  135.4911   72.6588  222.5457 H   0  0  0  0  0  0  0  0  0  0  0  0
  137.3740   72.8130  221.7690 O   0  0  0  0  0  0  0  0  0  0  0  0
  137.0300   73.5940  220.6450 C   0  0  0  0  0  0  0  0  0  0  0  0
  137.6575   73.2960  219.7921 H   0  0  0  0  0  0  0  0  0  0  0  0
  135.9676   73.4305  220.4115 H   0  0  0  0  0  0  0  0  0  0  0  0
  137.2500   75.0930  220.9370 C   0  0  0  0  0  0  0  0  0  0  0  0
  138.1878   75.4180  220.4627 H   0  0  0  0  0  0  0  0  0  0  0  0
  136.3972   75.6576  220.5320 H   0  0  0  0  0  0  0  0  0  0  0  0
  139.9530   73.7240  222.3010 N   0  0  0  0  0  0  0  0  0  0  0  0
  139.0270   73.9570  222.7240 H   0  0  0  0  0  0  0  0  0  0  0  0
  138.8330   70.6760  222.9170 C   0  0  0  0  0  0  0  0  0  0  0  0
  138.7013   70.8118  221.8334 H   0  0  0  0  0  0  0  0  0  0  0  0
  137.8953   70.9380  223.4290 H   0  0  0  0  0  0  0  0  0  0  0  0
  139.1940   69.2230  223.2110 C   0  0  0  0  0  0  0  0  0  0  0  0
  140.0141   68.9160  222.5453 H   0  0  0  0  0  0  0  0  0  0  0  0
  138.3015   68.6027  223.0414 H   0  0  0  0  0  0  0  0  0  0  0  0
  1  2  1  0
  2  3  2  0
  3  4  1  0
  3  5  1  0
  5  6  1  0
  5  7  2  0
  7  8  1  0
  8  9  2  0
  9 10  1  0
  8 11  1  0
 11 12  1  0
 11 13  1  0
 11 14  1  0
 14 15  1  0
 15 16  2  0
 16 17  1  0
 17 18  1  0
 18 19  1  0
 19 20  1  0
 19 21  1  0
 19 22  1  0
 22 23  1  0
 22 24  1  0
 22 25  1  0
 25 26  1  0
 25 27  1  0
 27 28  1  0
 27 29  1  0
 27 30  1  0
 30 31  1  0
 30 32  1  0
 17 33  2  0
 33 34  1  0
 34 35  2  0
 35 36  1  0
 36 37  1  0
 36 38  1  0
 36 39  1  0
 39 40  1  0
 39 41  1  0
 39 42  1  0
 42 43  1  0
 42 44  1  0
 42 45  1  0
 45 46  1  0
 46 47  1  0
 46 48  1  0
 46 49  1  0
 49 50  1  0
 49 51  1  0
 49 52  1  0
 52 53  1  0
 53 54  1  0
 53 55  1  0
 53 56  1  0
 56 57  1  0
 56 58  1  0
 34 59  1  0
 59 60  1  0
 14 61  1  0
 61 62  1  0
 61 63  1  0
 61 64  1  0
 64 65  1  0
 64 66  1  0
  9  2  1  0
 59 15  1  0
 64  7  1  0
 30 18  1  0
 56 45  1  0
M  END
>  <UniqueID>  (29) 
726

>  <SMILES>  (29) 
c1ccc2c(c1)CCN(c1nc(N3CCNCC3)n/c(=N\CCCN3CCOCC3)[nH]1)C2

>  <Energy>  (29) 
83.3636785173553

>  <Genealogy>  (29) 
c1ccc2c(c1)CCN(c1nc(N3CCNCC3)nc(=NCCCN3CCOCC3)[nH]1)C2 (tautomer)
c1ccc2c(c1)CCN(c1nc(N3CCNCC3)n/c(=N\CCCN3CCOCC3)[nH]1)C2 (cis-trans isomerization)
c1ccc2c(c1)CCN(c1nc(N3CCNCC3)n/c(=N\CCCN3CCOCC3)[nH]1)C2 (3D coordinates assigned)
c1ccc2c(c1)CCN(c1nc(N3CCNCC3)n/c(=N\CCCN3CCOCC3)[nH]1)C2 (nonaromatic ring conformer: 83.3636785173553 kcal/mol)

>  <smiles>  (29) 
c1ccc2c(c1)CCN(c1nc(NCCCN3CCOCC3)nc(N3CCNCC3)n1)C2

>  <score_type>  (29) 
oracle

>  <origin>  (29) 
autodockgpu

>  <m_score__min__energy>  (29) 
-9.3100000000000005

>  <m_primary>  (29) 
energy

>  <meeko>  (29) 
{"free_energy": -7.25, "intermolecular_energy": -9.33, "internal_energy": -2.55, "cluster_size": 5, "cluster_id": 3, "rank_in_cluster": 3}

>  <energy>  (29) 
-9.13

>  <cluster_rmsd>  (29) 
1.09

>  <rmsd>  (29) 
271.39

>  <cluster>  (29) 
2

$$$$
RYCKWQXGCGPPJB-JLFMESFVNA-N
     RDKit          3D

 66 70  0  0  0  0  0  0  0  0999 V2000
  140.7333   68.5064  228.3669 H   0  0  0  0  0  0  0  0  0  0  0  0
  140.4210   68.6500  227.3220 C   0  0  0  0  0  0  0  0  0  0  0  0
  139.9790   67.5610  226.5720 C   0  0  0  0  0  0  0  0  0  0  0  0
  139.9498   66.5585  227.0239 H   0  0  0  0  0  0  0  0  0  0  0  0
  139.5730   67.7410  225.2470 C   0  0  0  0  0  0  0  0  0  0  0  0
  139.2316   66.8770  224.6579 H   0  0  0  0  0  0  0  0  0  0  0  0
  139.5980   69.0170  224.6630 C   0  0  0  0  0  0  0  0  0  0  0  0
  140.0760   70.1180  225.4160 C   0  0  0  0  0  0  0  0  0  0  0  0
  140.4680   69.9230  226.7490 C   0  0  0  0  0  0  0  0  0  0  0  0
  140.8148   70.7786  227.3470 H   0  0  0  0  0  0  0  0  0  0  0  0
  140.1300   71.5110  224.8330 C   0  0  0  0  0  0  0  0  0  0  0  0
  141.1248   71.9399  225.0239 H   0  0  0  0  0  0  0  0  0  0  0  0
  139.3444   72.1152  225.3102 H   0  0  0  0  0  0  0  0  0  0  0  0
  139.8860   71.4990  223.3870 N   0  0  0  0  0  0  0  0  0  0  0  0
  140.5230   72.4740  222.5380 C   0  0  0  0  0  0  0  0  0  0  0  0
  141.6970   72.1670  221.9260 N   0  0  0  0  0  0  0  0  0  0  0  0
  142.3020   73.0550  221.0950 C   0  0  0  0  0  0  0  0  0  0  0  0
  143.5490   72.7290  220.4500 N   0  0  0  0  0  0  0  0  0  0  0  0
  144.7970   72.6380  221.2240 C   0  0  0  0  0  0  0  0  0  0  0  0
  144.6913   73.2369  222.1406 H   0  0  0  0  0  0  0  0  0  0  0  0
  144.9747   71.5785  221.4605 H   0  0  0  0  0  0  0  0  0  0  0  0
  146.0140   73.1610  220.4220 C   0  0  0  0  0  0  0  0  0  0  0  0
  146.2000   74.2029  220.7217 H   0  0  0  0  0  0  0  0  0  0  0  0
  146.8525   72.4882  220.6548 H   0  0  0  0  0  0  0  0  0  0  0  0
  145.8460   73.1270  218.9570 N   0  0  0  0  0  0  0  0  0  0  0  0
  145.4400   74.0410  218.6420 H   0  0  0  0  0  0  0  0  0  0  0  0
  144.9490   72.0490  218.5300 C   0  0  0  0  0  0  0  0  0  0  0  0
  144.9382   71.9971  217.4313 H   0  0  0  0  0  0  0  0  0  0  0  0
  145.3069   71.0947  218.9437 H   0  0  0  0  0  0  0  0  0  0  0  0
  143.5320   72.3190  219.0390 C   0  0  0  0  0  0  0  0  0  0  0  0
  143.0800   73.1209  218.4367 H   0  0  0  0  0  0  0  0  0  0  0  0
  142.9450   71.3930  218.9500 H   0  0  0  0  0  0  0  0  0  0  0  0
  141.7190   74.2600  220.8770 N   0  0  0  0  0  0  0  0  0  0  0  0
  140.5470   74.5850  221.4800 C   0  0  0  0  0  0  0  0  0  0  0  0
  140.0080   75.7550  221.2960 N   0  0  0  0  0  0  0  0  0  0  0  0
  139.7470   76.7250  222.3600 C   0  0  0  0  0  0  0  0  0  0  0  0
  139.6846   76.1984  223.3237 H   0  0  0  0  0  0  0  0  0  0  0  0
  140.5661   77.4589  222.3837 H   0  0  0  0  0  0  0  0  0  0  0  0
  138.4280   77.4590  222.0990 C   0  0  0  0  0  0  0  0  0  0  0  0
  138.4874   78.4604  222.5503 H   0  0  0  0  0  0  0  0  0  0  0  0
  138.2872   77.5112  221.0093 H   0  0  0  0  0  0  0  0  0  0  0  0
  137.2110   76.7240  222.6900 C   0  0  0  0  0  0  0  0  0  0  0  0
  137.1850   76.8916  223.7769 H   0  0  0  0  0  0  0  0  0  0  0  0
  136.3025   77.1192  222.2119 H   0  0  0  0  0  0  0  0  0  0  0  0
  137.2790   75.2700  222.4290 N   0  0  0  0  0  0  0  0  0  0  0  0
  136.2060   74.5330  223.1220 C   0  0  0  0  0  0  0  0  0  0  0  0
  136.2470   74.7532  224.1989 H   0  0  0  0  0  0  0  0  0  0  0  0
  135.2304   74.8437  222.7198 H   0  0  0  0  0  0  0  0  0  0  0  0
  136.3930   73.0170  222.9000 C   0  0  0  0  0  0  0  0  0  0  0  0
  136.7574   72.5662  223.8349 H   0  0  0  0  0  0  0  0  0  0  0  0
  135.4193   72.6010  222.6020 H   0  0  0  0  0  0  0  0  0  0  0  0
  137.3190   72.7280  221.8650 O   0  0  0  0  0  0  0  0  0  0  0  0
  137.0050   73.4850  220.7160 C   0  0  0  0  0  0  0  0  0  0  0  0
  137.6496   73.1643  219.8843 H   0  0  0  0  0  0  0  0  0  0  0  0
  135.9473   73.3222  220.4617 H   0  0  0  0  0  0  0  0  0  0  0  0
  137.2280   74.9890  220.9800 C   0  0  0  0  0  0  0  0  0  0  0  0
  138.1782   75.2980  220.5200 H   0  0  0  0  0  0  0  0  0  0  0  0
  136.3883   75.5498  220.5435 H   0  0  0  0  0  0  0  0  0  0  0  0
  139.9430   73.6870  222.3020 N   0  0  0  0  0  0  0  0  0  0  0  0
  139.0170   73.9250  222.7230 H   0  0  0  0  0  0  0  0  0  0  0  0
  138.8280   70.6140  222.8920 C   0  0  0  0  0  0  0  0  0  0  0  0
  138.7260   70.7336  221.8033 H   0  0  0  0  0  0  0  0  0  0  0  0
  137.8727   70.8701  223.3734 H   0  0  0  0  0  0  0  0  0  0  0  0
  139.1990   69.1700  223.2160 C   0  0  0  0  0  0  0  0  0  0  0  0
  140.0415   68.8649  222.5780 H   0  0  0  0  0  0  0  0  0  0  0  0
  138.3197   68.5359  223.0298 H   0  0  0  0  0  0  0  0  0  0  0  0
  1  2  1  0
  2  3  2  0
  3  4  1  0
  3  5  1  0
  5  6  1  0
  5  7  2  0
  7  8  1  0
  8  9  2  0
  9 10  1  0
  8 11  1  0
 11 12  1  0
 11 13  1  0
 11 14  1  0
 14 15  1  0
 15 16  2  0
 16 17  1  0
 17 18  1  0
 18 19  1  0
 19 20  1  0
 19 21  1  0
 19 22  1  0
 22 23  1  0
 22 24  1  0
 22 25  1  0
 25 26  1  0
 25 27  1  0
 27 28  1  0
 27 29  1  0
 27 30  1  0
 30 31  1  0
 30 32  1  0
 17 33  2  0
 33 34  1  0
 34 35  2  0
 35 36  1  0
 36 37  1  0
 36 38  1  0
 36 39  1  0
 39 40  1  0
 39 41  1  0
 39 42  1  0
 42 43  1  0
 42 44  1  0
 42 45  1  0
 45 46  1  0
 46 47  1  0
 46 48  1  0
 46 49  1  0
 49 50  1  0
 49 51  1  0
 49 52  1  0
 52 53  1  0
 53 54  1  0
 53 55  1  0
 53 56  1  0
 56 57  1  0
 56 58  1  0
 34 59  1  0
 59 60  1  0
 14 61  1  0
 61 62  1  0
 61 63  1  0
 61 64  1  0
 64 65  1  0
 64 66  1  0
  9  2  1  0
 59 15  1  0
 64  7  1  0
 30 18  1  0
 56 45  1  0
M  END
>  <UniqueID>  (30) 
726

>  <SMILES>  (30) 
c1ccc2c(c1)CCN(c1nc(N3CCNCC3)n/c(=N\CCCN3CCOCC3)[nH]1)C2

>  <Energy>  (30) 
83.3636785173553

>  <Genealogy>  (30) 
c1ccc2c(c1)CCN(c1nc(N3CCNCC3)nc(=NCCCN3CCOCC3)[nH]1)C2 (tautomer)
c1ccc2c(c1)CCN(c1nc(N3CCNCC3)n/c(=N\CCCN3CCOCC3)[nH]1)C2 (cis-trans isomerization)
c1ccc2c(c1)CCN(c1nc(N3CCNCC3)n/c(=N\CCCN3CCOCC3)[nH]1)C2 (3D coordinates assigned)
c1ccc2c(c1)CCN(c1nc(N3CCNCC3)n/c(=N\CCCN3CCOCC3)[nH]1)C2 (nonaromatic ring conformer: 83.3636785173553 kcal/mol)

>  <smiles>  (30) 
c1ccc2c(c1)CCN(c1nc(NCCCN3CCOCC3)nc(N3CCNCC3)n1)C2

>  <score_type>  (30) 
oracle

>  <origin>  (30) 
autodockgpu

>  <m_score__min__energy>  (30) 
-9.3100000000000005

>  <m_primary>  (30) 
energy

>  <meeko>  (30) 
{"free_energy": -7.26, "intermolecular_energy": -9.35, "internal_energy": -2.55, "cluster_size": 5, "cluster_id": 3, "rank_in_cluster": 2}

>  <energy>  (30) 
-9.1

>  <cluster_rmsd>  (30) 
0.92

>  <rmsd>  (30) 
271.36

>  <cluster>  (30) 
2

$$$$
RYCKWQXGCGPPJB-JLFMESFVNA-N
     RDKit          3D

 66 70  0  0  0  0  0  0  0  0999 V2000
  141.5396   68.8177  228.6404 H   0  0  0  0  0  0  0  0  0  0  0  0
  141.0540   68.8740  227.6550 C   0  0  0  0  0  0  0  0  0  0  0  0
  140.5600   67.7160  227.0550 C   0  0  0  0  0  0  0  0  0  0  0  0
  140.6625   66.7467  227.5649 H   0  0  0  0  0  0  0  0  0  0  0  0
  139.9350   67.7850  225.8070 C   0  0  0  0  0  0  0  0  0  0  0  0
  139.5526   66.8675  225.3359 H   0  0  0  0  0  0  0  0  0  0  0  0
  139.7920   69.0170  225.1510 C   0  0  0  0  0  0  0  0  0  0  0  0
  140.3200   70.1890  225.7460 C   0  0  0  0  0  0  0  0  0  0  0  0
  140.9330   70.1060  227.0060 C   0  0  0  0  0  0  0  0  0  0  0  0
  141.3208   71.0167  227.4859 H   0  0  0  0  0  0  0  0  0  0  0  0
  140.1990   71.5400  225.0790 C   0  0  0  0  0  0  0  0  0  0  0  0
  141.1853   72.0270  225.0763 H   0  0  0  0  0  0  0  0  0  0  0  0
  139.4683   72.1390  225.6422 H   0  0  0  0  0  0  0  0  0  0  0  0
  139.7250   71.4160  223.6970 N   0  0  0  0  0  0  0  0  0  0  0  0
  140.1600   72.3600  222.6970 C   0  0  0  0  0  0  0  0  0  0  0  0
  141.3420   72.1630  222.0560 N   0  0  0  0  0  0  0  0  0  0  0  0
  141.7590   73.0180  221.0870 C   0  0  0  0  0  0  0  0  0  0  0  0
  143.0160   72.8090  220.4110 N   0  0  0  0  0  0  0  0  0  0  0  0
  143.1870   71.6930  219.4680 C   0  0  0  0  0  0  0  0  0  0  0  0
  142.4540   70.9089  219.7086 H   0  0  0  0  0  0  0  0  0  0  0  0
  143.0339   72.0808  218.4501 H   0  0  0  0  0  0  0  0  0  0  0  0
  144.6100   71.0870  219.5410 C   0  0  0  0  0  0  0  0  0  0  0  0
  144.5721   70.1997  220.1900 H   0  0  0  0  0  0  0  0  0  0  0  0
  144.9025   70.8531  218.5067 H   0  0  0  0  0  0  0  0  0  0  0  0
  145.6400   72.0000  220.0700 N   0  0  0  0  0  0  0  0  0  0  0  0
  145.7010   71.8780  221.1090 H   0  0  0  0  0  0  0  0  0  0  0  0
  145.3310   73.4040  219.7860 C   0  0  0  0  0  0  0  0  0  0  0  0
  146.1743   74.0347  220.1041 H   0  0  0  0  0  0  0  0  0  0  0  0
  145.1619   73.5264  218.7060 H   0  0  0  0  0  0  0  0  0  0  0  0
  144.0700   73.8230  220.5440 C   0  0  0  0  0  0  0  0  0  0  0  0
  144.3155   73.9495  221.6088 H   0  0  0  0  0  0  0  0  0  0  0  0
  143.7029   74.7687  220.1188 H   0  0  0  0  0  0  0  0  0  0  0  0
  140.9790   74.0780  220.7590 N   0  0  0  0  0  0  0  0  0  0  0  0
  139.7950   74.2910  221.3890 C   0  0  0  0  0  0  0  0  0  0  0  0
  139.0650   75.3270  221.0960 N   0  0  0  0  0  0  0  0  0  0  0  0
  139.0930   76.5950  221.8250 C   0  0  0  0  0  0  0  0  0  0  0  0
  138.1071   77.0773  221.7519 H   0  0  0  0  0  0  0  0  0  0  0  0
  139.3385   76.3963  222.8787 H   0  0  0  0  0  0  0  0  0  0  0  0
  140.1560   77.5260  221.2330 C   0  0  0  0  0  0  0  0  0  0  0  0
  140.4984   77.1053  220.2760 H   0  0  0  0  0  0  0  0  0  0  0  0
  139.6940   78.5155  221.1010 H   0  0  0  0  0  0  0  0  0  0  0  0
  141.3740   77.7020  222.1570 C   0  0  0  0  0  0  0  0  0  0  0  0
  141.3644   76.9065  222.9166 H   0  0  0  0  0  0  0  0  0  0  0  0
  142.2846   77.6454  221.5426 H   0  0  0  0  0  0  0  0  0  0  0  0
  141.3530   79.0150  222.8360 N   0  0  0  0  0  0  0  0  0  0  0  0
  142.7060   79.5810  222.9910 C   0  0  0  0  0  0  0  0  0  0  0  0
  143.3452   78.8607  223.5226 H   0  0  0  0  0  0  0  0  0  0  0  0
  143.1308   79.7881  221.9977 H   0  0  0  0  0  0  0  0  0  0  0  0
  142.6300   80.8940  223.7990 C   0  0  0  0  0  0  0  0  0  0  0  0
  143.0265   80.7101  224.8084 H   0  0  0  0  0  0  0  0  0  0  0  0
  143.2218   81.6504  223.2628 H   0  0  0  0  0  0  0  0  0  0  0  0
  141.3040   81.3870  223.9140 O   0  0  0  0  0  0  0  0  0  0  0  0
  140.6890   81.4060  222.6430 C   0  0  0  0  0  0  0  0  0  0  0  0
  139.7102   81.9016  222.7224 H   0  0  0  0  0  0  0  0  0  0  0  0
  141.3375   81.9539  221.9435 H   0  0  0  0  0  0  0  0  0  0  0  0
  140.4890   79.9710  222.1150 C   0  0  0  0  0  0  0  0  0  0  0  0
  139.4372   79.6803  222.2538 H   0  0  0  0  0  0  0  0  0  0  0  0
  140.7579   79.9500  221.0486 H   0  0  0  0  0  0  0  0  0  0  0  0
  139.3800   73.4250  222.3500 N   0  0  0  0  0  0  0  0  0  0  0  0
  138.4460   73.5680  222.7940 H   0  0  0  0  0  0  0  0  0  0  0  0
  138.6540   70.4510  223.4380 C   0  0  0  0  0  0  0  0  0  0  0  0
  138.3699   70.4908  222.3761 H   0  0  0  0  0  0  0  0  0  0  0  0
  137.7761   70.6941  224.0547 H   0  0  0  0  0  0  0  0  0  0  0  0
  139.1560   69.0510  223.7820 C   0  0  0  0  0  0  0  0  0  0  0  0
  139.9008   68.7434  223.0332 H   0  0  0  0  0  0  0  0  0  0  0  0
  138.2967   68.3642  223.7813 H   0  0  0  0  0  0  0  0  0  0  0  0
  1  2  1  0
  2  3  2  0
  3  4  1  0
  3  5  1  0
  5  6  1  0
  5  7  2  0
  7  8  1  0
  8  9  2  0
  9 10  1  0
  8 11  1  0
 11 12  1  0
 11 13  1  0
 11 14  1  0
 14 15  1  0
 15 16  2  0
 16 17  1  0
 17 18  1  0
 18 19  1  0
 19 20  1  0
 19 21  1  0
 19 22  1  0
 22 23  1  0
 22 24  1  0
 22 25  1  0
 25 26  1  0
 25 27  1  0
 27 28  1  0
 27 29  1  0
 27 30  1  0
 30 31  1  0
 30 32  1  0
 17 33  2  0
 33 34  1  0
 34 35  2  0
 35 36  1  0
 36 37  1  0
 36 38  1  0
 36 39  1  0
 39 40  1  0
 39 41  1  0
 39 42  1  0
 42 43  1  0
 42 44  1  0
 42 45  1  0
 45 46  1  0
 46 47  1  0
 46 48  1  0
 46 49  1  0
 49 50  1  0
 49 51  1  0
 49 52  1  0
 52 53  1  0
 53 54  1  0
 53 55  1  0
 53 56  1  0
 56 57  1  0
 56 58  1  0
 34 59  1  0
 59 60  1  0
 14 61  1  0
 61 62  1  0
 61 63  1  0
 61 64  1  0
 64 65  1  0
 64 66  1  0
  9  2  1  0
 59 15  1  0
 64  7  1  0
 30 18  1  0
 56 45  1  0
M  END
>  <UniqueID>  (31) 
726

>  <SMILES>  (31) 
c1ccc2c(c1)CCN(c1nc(N3CCNCC3)n/c(=N\CCCN3CCOCC3)[nH]1)C2

>  <Energy>  (31) 
83.3636785173553

>  <Genealogy>  (31) 
c1ccc2c(c1)CCN(c1nc(N3CCNCC3)nc(=NCCCN3CCOCC3)[nH]1)C2 (tautomer)
c1ccc2c(c1)CCN(c1nc(N3CCNCC3)n/c(=N\CCCN3CCOCC3)[nH]1)C2 (cis-trans isomerization)
c1ccc2c(c1)CCN(c1nc(N3CCNCC3)n/c(=N\CCCN3CCOCC3)[nH]1)C2 (3D coordinates assigned)
c1ccc2c(c1)CCN(c1nc(N3CCNCC3)n/c(=N\CCCN3CCOCC3)[nH]1)C2 (nonaromatic ring conformer: 83.3636785173553 kcal/mol)

>  <smiles>  (31) 
c1ccc2c(c1)CCN(c1nc(NCCCN3CCOCC3)nc(N3CCNCC3)n1)C2

>  <score_type>  (31) 
oracle

>  <origin>  (31) 
autodockgpu

>  <m_score__min__energy>  (31) 
-9.3100000000000005

>  <m_primary>  (31) 
energy

>  <meeko>  (31) 
{"free_energy": -8.86, "intermolecular_energy": -10.95, "internal_energy": -0.8, "cluster_size": 8, "cluster_id": 2, "rank_in_cluster": 8}

>  <energy>  (31) 
-9.1

>  <cluster_rmsd>  (31) 
0.96

>  <rmsd>  (31) 
271.35

>  <cluster>  (31) 
2

$$$$
RYCKWQXGCGPPJB-JLFMESFVNA-N
     RDKit          3D

 66 70  0  0  0  0  0  0  0  0999 V2000
  141.6795   68.4357  228.3044 H   0  0  0  0  0  0  0  0  0  0  0  0
  141.0950   68.6100  227.3890 C   0  0  0  0  0  0  0  0  0  0  0  0
  140.3920   67.5590  226.8010 C   0  0  0  0  0  0  0  0  0  0  0  0
  140.4290   66.5552  227.2494 H   0  0  0  0  0  0  0  0  0  0  0  0
  139.6410   67.7780  225.6440 C   0  0  0  0  0  0  0  0  0  0  0  0
  139.0932   66.9436  225.1818 H   0  0  0  0  0  0  0  0  0  0  0  0
  139.5810   69.0570  225.0670 C   0  0  0  0  0  0  0  0  0  0  0  0
  140.3200   70.1170  225.6470 C   0  0  0  0  0  0  0  0  0  0  0  0
  141.0580   69.8840  226.8170 C   0  0  0  0  0  0  0  0  0  0  0  0
  141.6114   70.7102  227.2873 H   0  0  0  0  0  0  0  0  0  0  0  0
  140.2960   71.5110  225.0620 C   0  0  0  0  0  0  0  0  0  0  0  0
  141.3295   71.8739  224.9607 H   0  0  0  0  0  0  0  0  0  0  0  0
  139.7178   72.1587  225.7374 H   0  0  0  0  0  0  0  0  0  0  0  0
  139.6530   71.5300  223.7440 N   0  0  0  0  0  0  0  0  0  0  0  0
  140.0850   72.4730  222.7430 C   0  0  0  0  0  0  0  0  0  0  0  0
  141.3010   72.3180  222.1540 N   0  0  0  0  0  0  0  0  0  0  0  0
  141.7190   73.1720  221.1850 C   0  0  0  0  0  0  0  0  0  0  0  0
  143.0100   73.0080  220.5640 N   0  0  0  0  0  0  0  0  0  0  0  0
  143.2460   71.9300  219.5910 C   0  0  0  0  0  0  0  0  0  0  0  0
  142.5153   71.1267  219.7666 H   0  0  0  0  0  0  0  0  0  0  0  0
  143.1367   72.3531  218.5815 H   0  0  0  0  0  0  0  0  0  0  0  0
  144.6730   71.3430  219.7120 C   0  0  0  0  0  0  0  0  0  0  0  0
  144.6185   70.4324  220.3266 H   0  0  0  0  0  0  0  0  0  0  0  0
  145.0191   71.1507  218.6857 H   0  0  0  0  0  0  0  0  0  0  0  0
  145.6610   72.2520  220.3230 N   0  0  0  0  0  0  0  0  0  0  0  0
  145.6740   72.0930  221.3580 H   0  0  0  0  0  0  0  0  0  0  0  0
  145.3420   73.6610  220.0740 C   0  0  0  0  0  0  0  0  0  0  0  0
  146.1581   74.2928  220.4546 H   0  0  0  0  0  0  0  0  0  0  0  0
  145.2229   73.8203  218.9921 H   0  0  0  0  0  0  0  0  0  0  0  0
  144.0390   74.0320  220.7850 C   0  0  0  0  0  0  0  0  0  0  0  0
  144.2310   74.1222  221.8644 H   0  0  0  0  0  0  0  0  0  0  0  0
  143.6766   74.9873  220.3774 H   0  0  0  0  0  0  0  0  0  0  0  0
  140.9060   74.1890  220.8040 N   0  0  0  0  0  0  0  0  0  0  0  0
  139.6900   74.3610  221.3810 C   0  0  0  0  0  0  0  0  0  0  0  0
  138.9260   75.3570  221.0380 N   0  0  0  0  0  0  0  0  0  0  0  0
  139.3670   76.7490  220.9560 C   0  0  0  0  0  0  0  0  0  0  0  0
  140.3115   76.7979  220.3943 H   0  0  0  0  0  0  0  0  0  0  0  0
  138.5931   77.3399  220.4442 H   0  0  0  0  0  0  0  0  0  0  0  0
  139.5840   77.3220  222.3610 C   0  0  0  0  0  0  0  0  0  0  0  0
  139.1133   78.3149  222.4128 H   0  0  0  0  0  0  0  0  0  0  0  0
  139.1340   76.6207  223.0791 H   0  0  0  0  0  0  0  0  0  0  0  0
  141.0750   77.4640  222.7210 C   0  0  0  0  0  0  0  0  0  0  0  0
  141.3388   76.6960  223.4630 H   0  0  0  0  0  0  0  0  0  0  0  0
  141.6665   77.3384  221.8021 H   0  0  0  0  0  0  0  0  0  0  0  0
  141.3690   78.7990  223.2850 N   0  0  0  0  0  0  0  0  0  0  0  0
  142.6170   79.3670  222.7410 C   0  0  0  0  0  0  0  0  0  0  0  0
  143.4449   78.6634  222.9129 H   0  0  0  0  0  0  0  0  0  0  0  0
  142.4993   79.5403  221.6611 H   0  0  0  0  0  0  0  0  0  0  0  0
  142.9260   80.7050  223.4440 C   0  0  0  0  0  0  0  0  0  0  0  0
  143.7683   80.5535  224.1351 H   0  0  0  0  0  0  0  0  0  0  0  0
  143.1681   81.4426  222.6647 H   0  0  0  0  0  0  0  0  0  0  0  0
  141.8190   81.2040  224.1790 O   0  0  0  0  0  0  0  0  0  0  0  0
  140.6610   81.1840  223.3720 C   0  0  0  0  0  0  0  0  0  0  0  0
  139.8393   81.6835  223.9061 H   0  0  0  0  0  0  0  0  0  0  0  0
  140.8760   81.7087  222.4294 H   0  0  0  0  0  0  0  0  0  0  0  0
  140.2490   79.7320  223.0510 C   0  0  0  0  0  0  0  0  0  0  0  0
  139.4036   79.4475  223.6947 H   0  0  0  0  0  0  0  0  0  0  0  0
  139.9625   79.6758  221.9904 H   0  0  0  0  0  0  0  0  0  0  0  0
  139.2740   73.4950  222.3430 N   0  0  0  0  0  0  0  0  0  0  0  0
  138.3170   73.6040  222.7460 H   0  0  0  0  0  0  0  0  0  0  0  0
  138.4450   70.7190  223.5740 C   0  0  0  0  0  0  0  0  0  0  0  0
  138.0478   70.8570  222.5576 H   0  0  0  0  0  0  0  0  0  0  0  0
  137.6826   71.0290  224.3038 H   0  0  0  0  0  0  0  0  0  0  0  0
  138.8000   69.2510  223.7900 C   0  0  0  0  0  0  0  0  0  0  0  0
  139.4071   68.9008  222.9422 H   0  0  0  0  0  0  0  0  0  0  0  0
  137.8655   68.6754  223.8641 H   0  0  0  0  0  0  0  0  0  0  0  0
  1  2  1  0
  2  3  2  0
  3  4  1  0
  3  5  1  0
  5  6  1  0
  5  7  2  0
  7  8  1  0
  8  9  2  0
  9 10  1  0
  8 11  1  0
 11 12  1  0
 11 13  1  0
 11 14  1  0
 14 15  1  0
 15 16  2  0
 16 17  1  0
 17 18  1  0
 18 19  1  0
 19 20  1  0
 19 21  1  0
 19 22  1  0
 22 23  1  0
 22 24  1  0
 22 25  1  0
 25 26  1  0
 25 27  1  0
 27 28  1  0
 27 29  1  0
 27 30  1  0
 30 31  1  0
 30 32  1  0
 17 33  2  0
 33 34  1  0
 34 35  2  0
 35 36  1  0
 36 37  1  0
 36 38  1  0
 36 39  1  0
 39 40  1  0
 39 41  1  0
 39 42  1  0
 42 43  1  0
 42 44  1  0
 42 45  1  0
 45 46  1  0
 46 47  1  0
 46 48  1  0
 46 49  1  0
 49 50  1  0
 49 51  1  0
 49 52  1  0
 52 53  1  0
 53 54  1  0
 53 55  1  0
 53 56  1  0
 56 57  1  0
 56 58  1  0
 34 59  1  0
 59 60  1  0
 14 61  1  0
 61 62  1  0
 61 63  1  0
 61 64  1  0
 64 65  1  0
 64 66  1  0
  9  2  1  0
 59 15  1  0
 64  7  1  0
 30 18  1  0
 56 45  1  0
M  END
>  <UniqueID>  (32) 
726

>  <SMILES>  (32) 
c1ccc2c(c1)CCN(c1nc(N3CCNCC3)n/c(=N\CCCN3CCOCC3)[nH]1)C2

>  <Energy>  (32) 
83.3636785173553

>  <Genealogy>  (32) 
c1ccc2c(c1)CCN(c1nc(N3CCNCC3)nc(=NCCCN3CCOCC3)[nH]1)C2 (tautomer)
c1ccc2c(c1)CCN(c1nc(N3CCNCC3)n/c(=N\CCCN3CCOCC3)[nH]1)C2 (cis-trans isomerization)
c1ccc2c(c1)CCN(c1nc(N3CCNCC3)n/c(=N\CCCN3CCOCC3)[nH]1)C2 (3D coordinates assigned)
c1ccc2c(c1)CCN(c1nc(N3CCNCC3)n/c(=N\CCCN3CCOCC3)[nH]1)C2 (nonaromatic ring conformer: 83.3636785173553 kcal/mol)

>  <smiles>  (32) 
c1ccc2c(c1)CCN(c1nc(NCCCN3CCOCC3)nc(N3CCNCC3)n1)C2

>  <score_type>  (32) 
oracle

>  <origin>  (32) 
autodockgpu

>  <m_score__min__energy>  (32) 
-9.3100000000000005

>  <m_primary>  (32) 
energy

>  <meeko>  (32) 
{"free_energy": -9.08, "intermolecular_energy": -11.17, "internal_energy": -0.86, "cluster_size": 8, "cluster_id": 2, "rank_in_cluster": 5}

>  <energy>  (32) 
-9.08

>  <cluster_rmsd>  (32) 
1.01

>  <rmsd>  (32) 
271.46

>  <cluster>  (32) 
2

$$$$
RYCKWQXGCGPPJB-JLFMESFVNA-N
     RDKit          3D

 66 70  0  0  0  0  0  0  0  0999 V2000
  141.4503   68.2894  228.1156 H   0  0  0  0  0  0  0  0  0  0  0  0
  140.9320   68.5150  227.1720 C   0  0  0  0  0  0  0  0  0  0  0  0
  140.2380   67.5080  226.5010 C   0  0  0  0  0  0  0  0  0  0  0  0
  140.2156   66.4882  226.9128 H   0  0  0  0  0  0  0  0  0  0  0  0
  139.5710   67.7930  225.3060 C   0  0  0  0  0  0  0  0  0  0  0  0
  139.0302   66.9938  224.7779 H   0  0  0  0  0  0  0  0  0  0  0  0
  139.5870   69.0920  224.7760 C   0  0  0  0  0  0  0  0  0  0  0  0
  140.3170   70.1080  225.4420 C   0  0  0  0  0  0  0  0  0  0  0  0
  140.9700   69.8090  226.6480 C   0  0  0  0  0  0  0  0  0  0  0  0
  141.5155   70.5995  227.1842 H   0  0  0  0  0  0  0  0  0  0  0  0
  140.3730   71.5210  224.9100 C   0  0  0  0  0  0  0  0  0  0  0  0
  141.4213   71.8536  224.8893 H   0  0  0  0  0  0  0  0  0  0  0  0
  139.7710   72.1620  225.5709 H   0  0  0  0  0  0  0  0  0  0  0  0
  139.8190   71.6090  223.5560 N   0  0  0  0  0  0  0  0  0  0  0  0
  140.3440   72.5720  222.6210 C   0  0  0  0  0  0  0  0  0  0  0  0
  141.4870   72.2940  221.9400 N   0  0  0  0  0  0  0  0  0  0  0  0
  141.9850   73.1710  221.0300 C   0  0  0  0  0  0  0  0  0  0  0  0
  143.2000   72.8750  220.3110 N   0  0  0  0  0  0  0  0  0  0  0  0
  143.2820   71.7080  219.4200 C   0  0  0  0  0  0  0  0  0  0  0  0
  142.5296   70.9688  219.7321 H   0  0  0  0  0  0  0  0  0  0  0  0
  143.0980   72.0511  218.3912 H   0  0  0  0  0  0  0  0  0  0  0  0
  144.6820   71.0460  219.4620 C   0  0  0  0  0  0  0  0  0  0  0  0
  144.6383   70.1949  220.1575 H   0  0  0  0  0  0  0  0  0  0  0  0
  144.9170   70.7479  218.4296 H   0  0  0  0  0  0  0  0  0  0  0  0
  145.7710   71.9400  219.8970 N   0  0  0  0  0  0  0  0  0  0  0  0
  145.8750   71.8670  220.9370 H   0  0  0  0  0  0  0  0  0  0  0  0
  145.5060   73.3400  219.5540 C   0  0  0  0  0  0  0  0  0  0  0  0
  146.3876   73.9495  219.8016 H   0  0  0  0  0  0  0  0  0  0  0  0
  145.2928   73.4155  218.4775 H   0  0  0  0  0  0  0  0  0  0  0  0
  144.2990   73.8490  220.3440 C   0  0  0  0  0  0  0  0  0  0  0  0
  144.5983   74.0185  221.3888 H   0  0  0  0  0  0  0  0  0  0  0  0
  143.9504   74.7866  219.8863 H   0  0  0  0  0  0  0  0  0  0  0  0
  141.3260   74.3340  220.8010 N   0  0  0  0  0  0  0  0  0  0  0  0
  140.1840   74.6290  221.4730 C   0  0  0  0  0  0  0  0  0  0  0  0
  139.5720   75.7610  221.2770 N   0  0  0  0  0  0  0  0  0  0  0  0
  138.6460   76.3780  222.2250 C   0  0  0  0  0  0  0  0  0  0  0  0
  137.6719   75.8707  222.1629 H   0  0  0  0  0  0  0  0  0  0  0  0
  139.0576   76.2818  223.2405 H   0  0  0  0  0  0  0  0  0  0  0  0
  138.4630   77.8640  221.9010 C   0  0  0  0  0  0  0  0  0  0  0  0
  139.0675   78.1080  221.0150 H   0  0  0  0  0  0  0  0  0  0  0  0
  137.3913   78.0354  221.7222 H   0  0  0  0  0  0  0  0  0  0  0  0
  138.8940   78.7830  223.0600 C   0  0  0  0  0  0  0  0  0  0  0  0
  138.1068   79.5311  223.2350 H   0  0  0  0  0  0  0  0  0  0  0  0
  139.0489   78.1618  223.9545 H   0  0  0  0  0  0  0  0  0  0  0  0
  140.1610   79.4810  222.7540 N   0  0  0  0  0  0  0  0  0  0  0  0
  140.2630   80.7750  223.4540 C   0  0  0  0  0  0  0  0  0  0  0  0
  139.3890   81.3953  223.2062 H   0  0  0  0  0  0  0  0  0  0  0  0
  140.2953   80.6017  224.5398 H   0  0  0  0  0  0  0  0  0  0  0  0
  141.5510   81.5020  223.0120 C   0  0  0  0  0  0  0  0  0  0  0  0
  141.2753   82.3365  222.3505 H   0  0  0  0  0  0  0  0  0  0  0  0
  142.0622   81.8557  223.9195 H   0  0  0  0  0  0  0  0  0  0  0  0
  142.4480   80.6490  222.3180 O   0  0  0  0  0  0  0  0  0  0  0  0
  142.6330   79.4540  223.0460 C   0  0  0  0  0  0  0  0  0  0  0  0
  143.4194   78.8548  222.5638 H   0  0  0  0  0  0  0  0  0  0  0  0
  142.9257   79.7073  224.0756 H   0  0  0  0  0  0  0  0  0  0  0  0
  141.3250   78.6360  223.0870 C   0  0  0  0  0  0  0  0  0  0  0  0
  141.3922   77.8136  222.3595 H   0  0  0  0  0  0  0  0  0  0  0  0
  141.1910   78.2407  224.1047 H   0  0  0  0  0  0  0  0  0  0  0  0
  139.6860   73.7420  222.3740 N   0  0  0  0  0  0  0  0  0  0  0  0
  138.7800   73.9550  222.8500 H   0  0  0  0  0  0  0  0  0  0  0  0
  138.6010   70.8430  223.2770 C   0  0  0  0  0  0  0  0  0  0  0  0
  138.2758   71.0305  222.2430 H   0  0  0  0  0  0  0  0  0  0  0  0
  137.8016   71.1502  223.9673 H   0  0  0  0  0  0  0  0  0  0  0  0
  138.8980   69.3570  223.4590 C   0  0  0  0  0  0  0  0  0  0  0  0
  139.5493   69.0189  222.6396 H   0  0  0  0  0  0  0  0  0  0  0  0
  137.9443   68.8089  223.4499 H   0  0  0  0  0  0  0  0  0  0  0  0
  1  2  1  0
  2  3  2  0
  3  4  1  0
  3  5  1  0
  5  6  1  0
  5  7  2  0
  7  8  1  0
  8  9  2  0
  9 10  1  0
  8 11  1  0
 11 12  1  0
 11 13  1  0
 11 14  1  0
 14 15  1  0
 15 16  2  0
 16 17  1  0
 17 18  1  0
 18 19  1  0
 19 20  1  0
 19 21  1  0
 19 22  1  0
 22 23  1  0
 22 24  1  0
 22 25  1  0
 25 26  1  0
 25 27  1  0
 27 28  1  0
 27 29  1  0
 27 30  1  0
 30 31  1  0
 30 32  1  0
 17 33  2  0
 33 34  1  0
 34 35  2  0
 35 36  1  0
 36 37  1  0
 36 38  1  0
 36 39  1  0
 39 40  1  0
 39 41  1  0
 39 42  1  0
 42 43  1  0
 42 44  1  0
 42 45  1  0
 45 46  1  0
 46 47  1  0
 46 48  1  0
 46 49  1  0
 49 50  1  0
 49 51  1  0
 49 52  1  0
 52 53  1  0
 53 54  1  0
 53 55  1  0
 53 56  1  0
 56 57  1  0
 56 58  1  0
 34 59  1  0
 59 60  1  0
 14 61  1  0
 61 62  1  0
 61 63  1  0
 61 64  1  0
 64 65  1  0
 64 66  1  0
  9  2  1  0
 59 15  1  0
 64  7  1  0
 30 18  1  0
 56 45  1  0
M  END
>  <UniqueID>  (33) 
726

>  <SMILES>  (33) 
c1ccc2c(c1)CCN(c1nc(N3CCNCC3)n/c(=N\CCCN3CCOCC3)[nH]1)C2

>  <Energy>  (33) 
83.3636785173553

>  <Genealogy>  (33) 
c1ccc2c(c1)CCN(c1nc(N3CCNCC3)nc(=NCCCN3CCOCC3)[nH]1)C2 (tautomer)
c1ccc2c(c1)CCN(c1nc(N3CCNCC3)n/c(=N\CCCN3CCOCC3)[nH]1)C2 (cis-trans isomerization)
c1ccc2c(c1)CCN(c1nc(N3CCNCC3)n/c(=N\CCCN3CCOCC3)[nH]1)C2 (3D coordinates assigned)
c1ccc2c(c1)CCN(c1nc(N3CCNCC3)n/c(=N\CCCN3CCOCC3)[nH]1)C2 (nonaromatic ring conformer: 83.3636785173553 kcal/mol)

>  <smiles>  (33) 
c1ccc2c(c1)CCN(c1nc(NCCCN3CCOCC3)nc(N3CCNCC3)n1)C2

>  <score_type>  (33) 
oracle

>  <origin>  (33) 
autodockgpu

>  <m_score__min__energy>  (33) 
-9.3100000000000005

>  <m_primary>  (33) 
energy

>  <meeko>  (33) 
{"free_energy": -8.92, "intermolecular_energy": -11.01, "internal_energy": -0.73, "cluster_size": 8, "cluster_id": 2, "rank_in_cluster": 6}

>  <energy>  (33) 
-8.92

>  <cluster_rmsd>  (33) 
1.07

>  <rmsd>  (33) 
271.31

>  <cluster>  (33) 
2

$$$$
RYCKWQXGCGPPJB-JLFMESFVNA-N
     RDKit          3D

 66 70  0  0  0  0  0  0  0  0999 V2000
  143.0471   81.7082  223.0918 H   0  0  0  0  0  0  0  0  0  0  0  0
  142.2210   80.9820  223.0780 C   0  0  0  0  0  0  0  0  0  0  0  0
  141.0640   81.2290  223.8170 C   0  0  0  0  0  0  0  0  0  0  0  0
  140.9809   82.1476  224.4164 H   0  0  0  0  0  0  0  0  0  0  0  0
  140.0100   80.3110  223.7970 C   0  0  0  0  0  0  0  0  0  0  0  0
  139.1033   80.5072  224.3881 H   0  0  0  0  0  0  0  0  0  0  0  0
  140.1010   79.1410  223.0280 C   0  0  0  0  0  0  0  0  0  0  0  0
  141.2880   78.8760  222.3000 C   0  0  0  0  0  0  0  0  0  0  0  0
  142.3320   79.8130  222.3200 C   0  0  0  0  0  0  0  0  0  0  0  0
  143.2446   79.6263  221.7349 H   0  0  0  0  0  0  0  0  0  0  0  0
  141.4410   77.6280  221.4620 C   0  0  0  0  0  0  0  0  0  0  0  0
  142.4017   77.1502  221.7044 H   0  0  0  0  0  0  0  0  0  0  0  0
  141.4043   77.9177  220.4015 H   0  0  0  0  0  0  0  0  0  0  0  0
  140.3570   76.6740  221.7160 N   0  0  0  0  0  0  0  0  0  0  0  0
  140.6040   75.2570  221.6180 C   0  0  0  0  0  0  0  0  0  0  0  0
  141.7210   74.8120  220.9840 N   0  0  0  0  0  0  0  0  0  0  0  0
  141.9950   73.4840  220.9060 C   0  0  0  0  0  0  0  0  0  0  0  0
  143.1790   73.0140  220.2310 N   0  0  0  0  0  0  0  0  0  0  0  0
  143.1680   71.7430  219.4890 C   0  0  0  0  0  0  0  0  0  0  0  0
  142.3656   71.1052  219.8883 H   0  0  0  0  0  0  0  0  0  0  0  0
  143.0021   71.9709  218.4257 H   0  0  0  0  0  0  0  0  0  0  0  0
  144.5150   70.9890  219.6130 C   0  0  0  0  0  0  0  0  0  0  0  0
  144.4138   70.2340  220.4066 H   0  0  0  0  0  0  0  0  0  0  0  0
  144.7194   70.5515  218.6247 H   0  0  0  0  0  0  0  0  0  0  0  0
  145.6710   71.8460  219.9380 N   0  0  0  0  0  0  0  0  0  0  0  0
  145.7760   71.8930  220.9790 H   0  0  0  0  0  0  0  0  0  0  0  0
  145.5070   73.2100  219.4270 C   0  0  0  0  0  0  0  0  0  0  0  0
  146.4329   73.7782  219.6000 H   0  0  0  0  0  0  0  0  0  0  0  0
  145.2917   73.1697  218.3490 H   0  0  0  0  0  0  0  0  0  0  0  0
  144.3470   73.8990  220.1470 C   0  0  0  0  0  0  0  0  0  0  0  0
  144.6658   74.1711  221.1640 H   0  0  0  0  0  0  0  0  0  0  0  0
  144.0655   74.7971  219.5777 H   0  0  0  0  0  0  0  0  0  0  0  0
  141.1380   72.5970  221.4720 N   0  0  0  0  0  0  0  0  0  0  0  0
  140.0170   73.0230  222.1080 C   0  0  0  0  0  0  0  0  0  0  0  0
  139.1790   72.1690  222.6200 N   0  0  0  0  0  0  0  0  0  0  0  0
  139.2880   70.7170  222.4830 C   0  0  0  0  0  0  0  0  0  0  0  0
  138.3099   70.3057  222.1928 H   0  0  0  0  0  0  0  0  0  0  0  0
  140.0383   70.4862  221.7124 H   0  0  0  0  0  0  0  0  0  0  0  0
  139.7270   70.0880  223.8090 C   0  0  0  0  0  0  0  0  0  0  0  0
  138.8312   69.8731  224.4101 H   0  0  0  0  0  0  0  0  0  0  0  0
  140.2877   69.1717  223.5725 H   0  0  0  0  0  0  0  0  0  0  0  0
  140.6580   71.0060  224.6230 C   0  0  0  0  0  0  0  0  0  0  0  0
  141.6909   70.6385  224.5330 H   0  0  0  0  0  0  0  0  0  0  0  0
  140.5706   72.0277  224.2249 H   0  0  0  0  0  0  0  0  0  0  0  0
  140.2790   71.0300  226.0520 N   0  0  0  0  0  0  0  0  0  0  0  0
  140.3150   69.6850  226.6570 C   0  0  0  0  0  0  0  0  0  0  0  0
  139.6709   69.0062  226.0787 H   0  0  0  0  0  0  0  0  0  0  0  0
  141.3485   69.3084  226.6487 H   0  0  0  0  0  0  0  0  0  0  0  0
  139.8080   69.7580  228.1130 C   0  0  0  0  0  0  0  0  0  0  0  0
  138.8026   69.3141  228.1588 H   0  0  0  0  0  0  0  0  0  0  0  0
  140.5227   69.2083  228.7431 H   0  0  0  0  0  0  0  0  0  0  0  0
  139.7400   71.0890  228.6000 O   0  0  0  0  0  0  0  0  0  0  0  0
  140.9540   71.7590  228.3340 C   0  0  0  0  0  0  0  0  0  0  0  0
  140.9369   72.7451  228.8211 H   0  0  0  0  0  0  0  0  0  0  0  0
  141.7856   71.1551  228.7262 H   0  0  0  0  0  0  0  0  0  0  0  0
  141.1490   71.9470  226.8160 C   0  0  0  0  0  0  0  0  0  0  0  0
  140.9015   72.9846  226.5475 H   0  0  0  0  0  0  0  0  0  0  0  0
  142.1970   71.7236  226.5674 H   0  0  0  0  0  0  0  0  0  0  0  0
  139.7560   74.3540  222.1910 N   0  0  0  0  0  0  0  0  0  0  0  0
  138.9180   74.6760  222.7250 H   0  0  0  0  0  0  0  0  0  0  0  0
  139.0030   77.2170  221.8560 C   0  0  0  0  0  0  0  0  0  0  0  0
  138.2882   76.3937  222.0015 H   0  0  0  0  0  0  0  0  0  0  0  0
  138.7295   77.7748  220.9482 H   0  0  0  0  0  0  0  0  0  0  0  0
  138.9660   78.1470  223.0650 C   0  0  0  0  0  0  0  0  0  0  0  0
  139.0466   77.5453  223.9823 H   0  0  0  0  0  0  0  0  0  0  0  0
  138.0171   78.7031  223.0460 H   0  0  0  0  0  0  0  0  0  0  0  0
  1  2  1  0
  2  3  2  0
  3  4  1  0
  3  5  1  0
  5  6  1  0
  5  7  2  0
  7  8  1  0
  8  9  2  0
  9 10  1  0
  8 11  1  0
 11 12  1  0
 11 13  1  0
 11 14  1  0
 14 15  1  0
 15 16  2  0
 16 17  1  0
 17 18  1  0
 18 19  1  0
 19 20  1  0
 19 21  1  0
 19 22  1  0
 22 23  1  0
 22 24  1  0
 22 25  1  0
 25 26  1  0
 25 27  1  0
 27 28  1  0
 27 29  1  0
 27 30  1  0
 30 31  1  0
 30 32  1  0
 17 33  2  0
 33 34  1  0
 34 35  2  0
 35 36  1  0
 36 37  1  0
 36 38  1  0
 36 39  1  0
 39 40  1  0
 39 41  1  0
 39 42  1  0
 42 43  1  0
 42 44  1  0
 42 45  1  0
 45 46  1  0
 46 47  1  0
 46 48  1  0
 46 49  1  0
 49 50  1  0
 49 51  1  0
 49 52  1  0
 52 53  1  0
 53 54  1  0
 53 55  1  0
 53 56  1  0
 56 57  1  0
 56 58  1  0
 34 59  1  0
 59 60  1  0
 14 61  1  0
 61 62  1  0
 61 63  1  0
 61 64  1  0
 64 65  1  0
 64 66  1  0
  9  2  1  0
 59 15  1  0
 64  7  1  0
 30 18  1  0
 56 45  1  0
M  END
>  <UniqueID>  (34) 
726

>  <SMILES>  (34) 
c1ccc2c(c1)CCN(c1nc(N3CCNCC3)n/c(=N\CCCN3CCOCC3)[nH]1)C2

>  <Energy>  (34) 
83.3636785173553

>  <Genealogy>  (34) 
c1ccc2c(c1)CCN(c1nc(N3CCNCC3)nc(=NCCCN3CCOCC3)[nH]1)C2 (tautomer)
c1ccc2c(c1)CCN(c1nc(N3CCNCC3)n/c(=N\CCCN3CCOCC3)[nH]1)C2 (cis-trans isomerization)
c1ccc2c(c1)CCN(c1nc(N3CCNCC3)n/c(=N\CCCN3CCOCC3)[nH]1)C2 (3D coordinates assigned)
c1ccc2c(c1)CCN(c1nc(N3CCNCC3)n/c(=N\CCCN3CCOCC3)[nH]1)C2 (nonaromatic ring conformer: 83.3636785173553 kcal/mol)

>  <smiles>  (34) 
c1ccc2c(c1)CCN(c1nc(NCCCN3CCOCC3)nc(N3CCNCC3)n1)C2

>  <score_type>  (34) 
oracle

>  <origin>  (34) 
autodockgpu

>  <m_score__min__energy>  (34) 
-9.3100000000000005

>  <m_primary>  (34) 
energy

>  <meeko>  (34) 
{"free_energy": -9.03, "intermolecular_energy": -11.11, "internal_energy": -0.83, "cluster_size": 7, "cluster_id": 1, "rank_in_cluster": 4}

>  <energy>  (34) 
-8.9

>  <cluster_rmsd>  (34) 
1.02

>  <rmsd>  (34) 
271.36

>  <cluster>  (34) 
2

$$$$
RYCKWQXGCGPPJB-JLFMESFVNA-N
     RDKit          3D

 66 70  0  0  0  0  0  0  0  0999 V2000
  141.5672   68.3718  228.2397 H   0  0  0  0  0  0  0  0  0  0  0  0
  141.0190   68.5610  227.3050 C   0  0  0  0  0  0  0  0  0  0  0  0
  140.3290   67.5220  226.6800 C   0  0  0  0  0  0  0  0  0  0  0  0
  140.3383   66.5137  227.1195 H   0  0  0  0  0  0  0  0  0  0  0  0
  139.6260   67.7610  225.4960 C   0  0  0  0  0  0  0  0  0  0  0  0
  139.0899   66.9364  225.0034 H   0  0  0  0  0  0  0  0  0  0  0  0
  139.5990   69.0450  224.9310 C   0  0  0  0  0  0  0  0  0  0  0  0
  140.3240   70.0930  225.5510 C   0  0  0  0  0  0  0  0  0  0  0  0
  141.0150   69.8410  226.7460 C   0  0  0  0  0  0  0  0  0  0  0  0
  141.5572   70.6571  227.2460 H   0  0  0  0  0  0  0  0  0  0  0  0
  140.3350   71.4930  224.9800 C   0  0  0  0  0  0  0  0  0  0  0  0
  141.3748   71.8475  224.9232 H   0  0  0  0  0  0  0  0  0  0  0  0
  139.7360   72.1387  225.6390 H   0  0  0  0  0  0  0  0  0  0  0  0
  139.7450   71.5320  223.6390 N   0  0  0  0  0  0  0  0  0  0  0  0
  140.2240   72.4810  222.6660 C   0  0  0  0  0  0  0  0  0  0  0  0
  141.3970   72.2470  222.0190 N   0  0  0  0  0  0  0  0  0  0  0  0
  141.8540   73.1080  221.0740 C   0  0  0  0  0  0  0  0  0  0  0  0
  143.1000   72.8590  220.3920 N   0  0  0  0  0  0  0  0  0  0  0  0
  143.2350   71.7300  219.4580 C   0  0  0  0  0  0  0  0  0  0  0  0
  142.4823   70.9684  219.7099 H   0  0  0  0  0  0  0  0  0  0  0  0
  143.0865   72.1129  218.4375 H   0  0  0  0  0  0  0  0  0  0  0  0
  144.6410   71.0860  219.5280 C   0  0  0  0  0  0  0  0  0  0  0  0
  144.5830   70.2063  220.1859 H   0  0  0  0  0  0  0  0  0  0  0  0
  144.9202   70.8343  218.4942 H   0  0  0  0  0  0  0  0  0  0  0  0
  145.7000   71.9760  220.0420 N   0  0  0  0  0  0  0  0  0  0  0  0
  145.7630   71.8620  221.0810 H   0  0  0  0  0  0  0  0  0  0  0  0
  145.4270   73.3860  219.7470 C   0  0  0  0  0  0  0  0  0  0  0  0
  146.2888   73.9966  220.0544 H   0  0  0  0  0  0  0  0  0  0  0  0
  145.2549   73.5037  218.6669 H   0  0  0  0  0  0  0  0  0  0  0  0
  144.1820   73.8450  220.5090 C   0  0  0  0  0  0  0  0  0  0  0  0
  144.4376   73.9742  221.5711 H   0  0  0  0  0  0  0  0  0  0  0  0
  143.8376   74.7962  220.0770 H   0  0  0  0  0  0  0  0  0  0  0  0
  141.1240   74.2120  220.7750 N   0  0  0  0  0  0  0  0  0  0  0  0
  139.9520   74.4630  221.4110 C   0  0  0  0  0  0  0  0  0  0  0  0
  139.2710   75.5400  221.1470 N   0  0  0  0  0  0  0  0  0  0  0  0
  139.3250   76.7700  221.9380 C   0  0  0  0  0  0  0  0  0  0  0  0
  138.8961   77.5969  221.3529 H   0  0  0  0  0  0  0  0  0  0  0  0
  138.7493   76.6254  222.8641 H   0  0  0  0  0  0  0  0  0  0  0  0
  140.7750   77.1060  222.3000 C   0  0  0  0  0  0  0  0  0  0  0  0
  140.7856   77.6137  223.2758 H   0  0  0  0  0  0  0  0  0  0  0  0
  141.3383   76.1615  222.3269 H   0  0  0  0  0  0  0  0  0  0  0  0
  141.4500   78.0210  221.2610 C   0  0  0  0  0  0  0  0  0  0  0  0
  142.4070   77.5720  220.9569 H   0  0  0  0  0  0  0  0  0  0  0  0
  140.7746   78.1224  220.3987 H   0  0  0  0  0  0  0  0  0  0  0  0
  141.7050   79.3690  221.8130 N   0  0  0  0  0  0  0  0  0  0  0  0
  140.4560   80.1160  222.0510 C   0  0  0  0  0  0  0  0  0  0  0  0
  139.8745   80.1634  221.1185 H   0  0  0  0  0  0  0  0  0  0  0  0
  139.8670   79.6049  222.8268 H   0  0  0  0  0  0  0  0  0  0  0  0
  140.7900   81.5470  222.5210 C   0  0  0  0  0  0  0  0  0  0  0  0
  140.5806   82.2460  221.6979 H   0  0  0  0  0  0  0  0  0  0  0  0
  140.1689   81.7613  223.4032 H   0  0  0  0  0  0  0  0  0  0  0  0
  142.1480   81.6920  222.9060 O   0  0  0  0  0  0  0  0  0  0  0  0
  142.5090   80.6510  223.7890 C   0  0  0  0  0  0  0  0  0  0  0  0
  143.5212   80.8399  224.1759 H   0  0  0  0  0  0  0  0  0  0  0  0
  141.7847   80.6208  224.6164 H   0  0  0  0  0  0  0  0  0  0  0  0
  142.4900   79.2910  223.0620 C   0  0  0  0  0  0  0  0  0  0  0  0
  143.5223   78.9979  222.8203 H   0  0  0  0  0  0  0  0  0  0  0  0
  142.0228   78.5466  223.7235 H   0  0  0  0  0  0  0  0  0  0  0  0
  139.4950   73.5910  222.3480 N   0  0  0  0  0  0  0  0  0  0  0  0
  138.5680   73.7650  222.7960 H   0  0  0  0  0  0  0  0  0  0  0  0
  138.5370   70.7330  223.4140 C   0  0  0  0  0  0  0  0  0  0  0  0
  138.1801   70.8854  222.3847 H   0  0  0  0  0  0  0  0  0  0  0  0
  137.7499   71.0418  224.1177 H   0  0  0  0  0  0  0  0  0  0  0  0
  138.8710   69.2600  223.6270 C   0  0  0  0  0  0  0  0  0  0  0  0
  139.5082   68.9140  222.7998 H   0  0  0  0  0  0  0  0  0  0  0  0
  137.9296   68.6918  223.6576 H   0  0  0  0  0  0  0  0  0  0  0  0
  1  2  1  0
  2  3  2  0
  3  4  1  0
  3  5  1  0
  5  6  1  0
  5  7  2  0
  7  8  1  0
  8  9  2  0
  9 10  1  0
  8 11  1  0
 11 12  1  0
 11 13  1  0
 11 14  1  0
 14 15  1  0
 15 16  2  0
 16 17  1  0
 17 18  1  0
 18 19  1  0
 19 20  1  0
 19 21  1  0
 19 22  1  0
 22 23  1  0
 22 24  1  0
 22 25  1  0
 25 26  1  0
 25 27  1  0
 27 28  1  0
 27 29  1  0
 27 30  1  0
 30 31  1  0
 30 32  1  0
 17 33  2  0
 33 34  1  0
 34 35  2  0
 35 36  1  0
 36 37  1  0
 36 38  1  0
 36 39  1  0
 39 40  1  0
 39 41  1  0
 39 42  1  0
 42 43  1  0
 42 44  1  0
 42 45  1  0
 45 46  1  0
 46 47  1  0
 46 48  1  0
 46 49  1  0
 49 50  1  0
 49 51  1  0
 49 52  1  0
 52 53  1  0
 53 54  1  0
 53 55  1  0
 53 56  1  0
 56 57  1  0
 56 58  1  0
 34 59  1  0
 59 60  1  0
 14 61  1  0
 61 62  1  0
 61 63  1  0
 61 64  1  0
 64 65  1  0
 64 66  1  0
  9  2  1  0
 59 15  1  0
 64  7  1  0
 30 18  1  0
 56 45  1  0
M  END
>  <UniqueID>  (35) 
726

>  <SMILES>  (35) 
c1ccc2c(c1)CCN(c1nc(N3CCNCC3)n/c(=N\CCCN3CCOCC3)[nH]1)C2

>  <Energy>  (35) 
83.3636785173553

>  <Genealogy>  (35) 
c1ccc2c(c1)CCN(c1nc(N3CCNCC3)nc(=NCCCN3CCOCC3)[nH]1)C2 (tautomer)
c1ccc2c(c1)CCN(c1nc(N3CCNCC3)n/c(=N\CCCN3CCOCC3)[nH]1)C2 (cis-trans isomerization)
c1ccc2c(c1)CCN(c1nc(N3CCNCC3)n/c(=N\CCCN3CCOCC3)[nH]1)C2 (3D coordinates assigned)
c1ccc2c(c1)CCN(c1nc(N3CCNCC3)n/c(=N\CCCN3CCOCC3)[nH]1)C2 (nonaromatic ring conformer: 83.3636785173553 kcal/mol)

>  <smiles>  (35) 
c1ccc2c(c1)CCN(c1nc(NCCCN3CCOCC3)nc(N3CCNCC3)n1)C2

>  <score_type>  (35) 
oracle

>  <origin>  (35) 
autodockgpu

>  <m_score__min__energy>  (35) 
-9.3100000000000005

>  <m_primary>  (35) 
energy

>  <meeko>  (35) 
{"free_energy": -9.1, "intermolecular_energy": -11.19, "internal_energy": -0.86, "cluster_size": 8, "cluster_id": 2, "rank_in_cluster": 4}

>  <energy>  (35) 
-8.86

>  <cluster_rmsd>  (35) 
0.98

>  <rmsd>  (35) 
271.41

>  <cluster>  (35) 
2

$$$$
RYCKWQXGCGPPJB-JLFMESFVNA-N
     RDKit          3D

 66 70  0  0  0  0  0  0  0  0999 V2000
  141.6069   81.6095  223.4073 H   0  0  0  0  0  0  0  0  0  0  0  0
  140.9470   80.7410  223.2650 C   0  0  0  0  0  0  0  0  0  0  0  0
  139.6590   80.7500  223.8000 C   0  0  0  0  0  0  0  0  0  0  0  0
  139.3070   81.6229  224.3693 H   0  0  0  0  0  0  0  0  0  0  0  0
  138.8150   79.6520  223.6140 C   0  0  0  0  0  0  0  0  0  0  0  0
  137.8023   79.6624  224.0433 H   0  0  0  0  0  0  0  0  0  0  0  0
  139.2510   78.5360  222.8830 C   0  0  0  0  0  0  0  0  0  0  0  0
  140.5690   78.5150  222.3660 C   0  0  0  0  0  0  0  0  0  0  0  0
  141.4000   79.6310  222.5490 C   0  0  0  0  0  0  0  0  0  0  0  0
  142.4152   79.6314  222.1255 H   0  0  0  0  0  0  0  0  0  0  0  0
  141.0910   77.3350  221.5770 C   0  0  0  0  0  0  0  0  0  0  0  0
  142.0711   77.0408  221.9804 H   0  0  0  0  0  0  0  0  0  0  0  0
  141.1758   77.6355  220.5222 H   0  0  0  0  0  0  0  0  0  0  0  0
  140.1800   76.1900  221.6570 N   0  0  0  0  0  0  0  0  0  0  0  0
  140.7020   74.8470  221.6160 C   0  0  0  0  0  0  0  0  0  0  0  0
  141.8670   74.5990  220.9590 N   0  0  0  0  0  0  0  0  0  0  0  0
  142.3980   73.3490  220.9330 C   0  0  0  0  0  0  0  0  0  0  0  0
  143.6310   73.0870  220.2340 N   0  0  0  0  0  0  0  0  0  0  0  0
  143.6580   72.1990  219.0610 C   0  0  0  0  0  0  0  0  0  0  0  0
  142.7963   71.5172  219.1115 H   0  0  0  0  0  0  0  0  0  0  0  0
  143.6159   72.8261  218.1582 H   0  0  0  0  0  0  0  0  0  0  0  0
  144.9580   71.3590  219.0010 C   0  0  0  0  0  0  0  0  0  0  0  0
  144.7468   70.3686  219.4306 H   0  0  0  0  0  0  0  0  0  0  0  0
  145.2529   71.3157  217.9422 H   0  0  0  0  0  0  0  0  0  0  0  0
  146.1000   71.9430  219.7300 N   0  0  0  0  0  0  0  0  0  0  0  0
  146.0950   71.5820  220.7130 H   0  0  0  0  0  0  0  0  0  0  0  0
  146.0380   73.4070  219.7720 C   0  0  0  0  0  0  0  0  0  0  0  0
  146.9584   73.7985  220.2298 H   0  0  0  0  0  0  0  0  0  0  0  0
  145.9391   73.7959  218.7478 H   0  0  0  0  0  0  0  0  0  0  0  0
  144.8300   73.8510  220.6000 C   0  0  0  0  0  0  0  0  0  0  0  0
  145.0467   73.6910  221.6665 H   0  0  0  0  0  0  0  0  0  0  0  0
  144.6410   74.9161  220.4004 H   0  0  0  0  0  0  0  0  0  0  0  0
  141.7530   72.3420  221.5740 N   0  0  0  0  0  0  0  0  0  0  0  0
  140.5890   72.5710  222.2330 C   0  0  0  0  0  0  0  0  0  0  0  0
  139.9550   71.5970  222.8180 N   0  0  0  0  0  0  0  0  0  0  0  0
  138.4990   71.4780  222.8880 C   0  0  0  0  0  0  0  0  0  0  0  0
  138.0691   72.4498  223.1720 H   0  0  0  0  0  0  0  0  0  0  0  0
  138.1182   71.1698  221.9031 H   0  0  0  0  0  0  0  0  0  0  0  0
  138.0990   70.4260  223.9270 C   0  0  0  0  0  0  0  0  0  0  0  0
  137.4634   70.9051  224.6862 H   0  0  0  0  0  0  0  0  0  0  0  0
  137.5655   69.6226  223.3979 H   0  0  0  0  0  0  0  0  0  0  0  0
  139.3140   69.7930  224.6300 C   0  0  0  0  0  0  0  0  0  0  0  0
  139.1214   68.7205  224.7806 H   0  0  0  0  0  0  0  0  0  0  0  0
  140.1991   69.9458  223.9950 H   0  0  0  0  0  0  0  0  0  0  0  0
  139.5690   70.4250  225.9430 N   0  0  0  0  0  0  0  0  0  0  0  0
  139.9250   69.4340  226.9750 C   0  0  0  0  0  0  0  0  0  0  0  0
  139.1345   68.6717  227.0385 H   0  0  0  0  0  0  0  0  0  0  0  0
  140.8785   68.9551  226.7074 H   0  0  0  0  0  0  0  0  0  0  0  0
  140.0710   70.1370  228.3410 C   0  0  0  0  0  0  0  0  0  0  0  0
  139.2017   69.8805  228.9643 H   0  0  0  0  0  0  0  0  0  0  0  0
  141.0112   69.7914  228.7956 H   0  0  0  0  0  0  0  0  0  0  0  0
  140.1440   71.5500  228.2210 O   0  0  0  0  0  0  0  0  0  0  0  0
  141.0980   71.8990  227.2410 C   0  0  0  0  0  0  0  0  0  0  0  0
  141.2350   72.9904  227.2421 H   0  0  0  0  0  0  0  0  0  0  0  0
  142.0480   71.3965  227.4755 H   0  0  0  0  0  0  0  0  0  0  0  0
  140.6280   71.4480  225.8420 C   0  0  0  0  0  0  0  0  0  0  0  0
  140.2357   72.3189  225.2964 H   0  0  0  0  0  0  0  0  0  0  0  0
  141.4856   71.0125  225.3082 H   0  0  0  0  0  0  0  0  0  0  0  0
  140.0700   73.8260  222.2640 N   0  0  0  0  0  0  0  0  0  0  0  0
  139.2000   74.0040  222.8150 H   0  0  0  0  0  0  0  0  0  0  0  0
  138.7440   76.4660  221.5650 C   0  0  0  0  0  0  0  0  0  0  0  0
  138.1834   75.5202  221.5987 H   0  0  0  0  0  0  0  0  0  0  0  0
  138.5238   76.9816  220.6186 H   0  0  0  0  0  0  0  0  0  0  0  0
  138.3330   77.3470  222.7410 C   0  0  0  0  0  0  0  0  0  0  0  0
  138.3720   76.7519  223.6653 H   0  0  0  0  0  0  0  0  0  0  0  0
  137.3130   77.7160  222.5583 H   0  0  0  0  0  0  0  0  0  0  0  0
  1  2  1  0
  2  3  2  0
  3  4  1  0
  3  5  1  0
  5  6  1  0
  5  7  2  0
  7  8  1  0
  8  9  2  0
  9 10  1  0
  8 11  1  0
 11 12  1  0
 11 13  1  0
 11 14  1  0
 14 15  1  0
 15 16  2  0
 16 17  1  0
 17 18  1  0
 18 19  1  0
 19 20  1  0
 19 21  1  0
 19 22  1  0
 22 23  1  0
 22 24  1  0
 22 25  1  0
 25 26  1  0
 25 27  1  0
 27 28  1  0
 27 29  1  0
 27 30  1  0
 30 31  1  0
 30 32  1  0
 17 33  2  0
 33 34  1  0
 34 35  2  0
 35 36  1  0
 36 37  1  0
 36 38  1  0
 36 39  1  0
 39 40  1  0
 39 41  1  0
 39 42  1  0
 42 43  1  0
 42 44  1  0
 42 45  1  0
 45 46  1  0
 46 47  1  0
 46 48  1  0
 46 49  1  0
 49 50  1  0
 49 51  1  0
 49 52  1  0
 52 53  1  0
 53 54  1  0
 53 55  1  0
 53 56  1  0
 56 57  1  0
 56 58  1  0
 34 59  1  0
 59 60  1  0
 14 61  1  0
 61 62  1  0
 61 63  1  0
 61 64  1  0
 64 65  1  0
 64 66  1  0
  9  2  1  0
 59 15  1  0
 64  7  1  0
 30 18  1  0
 56 45  1  0
M  END
>  <UniqueID>  (36) 
726

>  <SMILES>  (36) 
c1ccc2c(c1)CCN(c1nc(N3CCNCC3)n/c(=N\CCCN3CCOCC3)[nH]1)C2

>  <Energy>  (36) 
83.3636785173553

>  <Genealogy>  (36) 
c1ccc2c(c1)CCN(c1nc(N3CCNCC3)nc(=NCCCN3CCOCC3)[nH]1)C2 (tautomer)
c1ccc2c(c1)CCN(c1nc(N3CCNCC3)n/c(=N\CCCN3CCOCC3)[nH]1)C2 (cis-trans isomerization)
c1ccc2c(c1)CCN(c1nc(N3CCNCC3)n/c(=N\CCCN3CCOCC3)[nH]1)C2 (3D coordinates assigned)
c1ccc2c(c1)CCN(c1nc(N3CCNCC3)n/c(=N\CCCN3CCOCC3)[nH]1)C2 (nonaromatic ring conformer: 83.3636785173553 kcal/mol)

>  <smiles>  (36) 
c1ccc2c(c1)CCN(c1nc(NCCCN3CCOCC3)nc(N3CCNCC3)n1)C2

>  <score_type>  (36) 
oracle

>  <origin>  (36) 
autodockgpu

>  <m_score__min__energy>  (36) 
-9.3100000000000005

>  <m_primary>  (36) 
energy

>  <meeko>  (36) 
{"free_energy": -8.95, "intermolecular_energy": -11.04, "internal_energy": -0.82, "cluster_size": 7, "cluster_id": 1, "rank_in_cluster": 6}

>  <energy>  (36) 
-7.3

>  <cluster_rmsd>  (36) 
0.0

>  <rmsd>  (36) 
270.46

>  <cluster>  (36) 
3

$$$$
RYCKWQXGCGPPJB-JLFMESFVNA-N
     RDKit          3D

 66 70  0  0  0  0  0  0  0  0999 V2000
  141.4949   68.8955  228.7363 H   0  0  0  0  0  0  0  0  0  0  0  0
  141.0230   68.9220  227.7430 C   0  0  0  0  0  0  0  0  0  0  0  0
  140.5870   67.7380  227.1470 C   0  0  0  0  0  0  0  0  0  0  0  0
  140.7224   66.7787  227.6680 H   0  0  0  0  0  0  0  0  0  0  0  0
  139.9790   67.7690  225.8900 C   0  0  0  0  0  0  0  0  0  0  0  0
  139.6421   66.8319  225.4228 H   0  0  0  0  0  0  0  0  0  0  0  0
  139.7950   68.9880  225.2190 C   0  0  0  0  0  0  0  0  0  0  0  0
  140.2650   70.1860  225.8110 C   0  0  0  0  0  0  0  0  0  0  0  0
  140.8610   70.1410  227.0800 C   0  0  0  0  0  0  0  0  0  0  0  0
  141.2031   71.0717  227.5563 H   0  0  0  0  0  0  0  0  0  0  0  0
  140.0980   71.5250  225.1280 C   0  0  0  0  0  0  0  0  0  0  0  0
  141.0632   72.0526  225.1352 H   0  0  0  0  0  0  0  0  0  0  0  0
  139.3341   72.0979  225.6742 H   0  0  0  0  0  0  0  0  0  0  0  0
  139.6510   71.3690  223.7410 N   0  0  0  0  0  0  0  0  0  0  0  0
  140.0600   72.3200  222.7380 C   0  0  0  0  0  0  0  0  0  0  0  0
  141.2850   72.2010  222.1600 N   0  0  0  0  0  0  0  0  0  0  0  0
  141.6830   73.0640  221.1890 C   0  0  0  0  0  0  0  0  0  0  0  0
  142.9840   72.9380  220.5800 N   0  0  0  0  0  0  0  0  0  0  0  0
  143.2550   71.8780  219.5970 C   0  0  0  0  0  0  0  0  0  0  0  0
  142.5427   71.0550  219.7561 H   0  0  0  0  0  0  0  0  0  0  0  0
  143.1444   72.3095  218.5913 H   0  0  0  0  0  0  0  0  0  0  0  0
  144.6960   71.3250  219.7260 C   0  0  0  0  0  0  0  0  0  0  0  0
  144.6581   70.4063  220.3298 H   0  0  0  0  0  0  0  0  0  0  0  0
  145.0568   71.1532  218.7012 H   0  0  0  0  0  0  0  0  0  0  0  0
  145.6550   72.2510  220.3570 N   0  0  0  0  0  0  0  0  0  0  0  0
  145.6610   72.0800  221.3910 H   0  0  0  0  0  0  0  0  0  0  0  0
  145.3040   73.6550  220.1220 C   0  0  0  0  0  0  0  0  0  0  0  0
  146.1002   74.3017  220.5193 H   0  0  0  0  0  0  0  0  0  0  0  0
  145.1926   73.8249  219.0409 H   0  0  0  0  0  0  0  0  0  0  0  0
  143.9850   73.9850  220.8230 C   0  0  0  0  0  0  0  0  0  0  0  0
  144.1636   74.0678  221.9052 H   0  0  0  0  0  0  0  0  0  0  0  0
  143.6029   74.9353  220.4219 H   0  0  0  0  0  0  0  0  0  0  0  0
  140.8400   74.0520  220.7960 N   0  0  0  0  0  0  0  0  0  0  0  0
  139.6140   74.1870  221.3620 C   0  0  0  0  0  0  0  0  0  0  0  0
  138.8220   75.1560  221.0070 N   0  0  0  0  0  0  0  0  0  0  0  0
  138.8580   76.5050  221.5700 C   0  0  0  0  0  0  0  0  0  0  0  0
  139.9021   76.7858  221.7724 H   0  0  0  0  0  0  0  0  0  0  0  0
  138.4120   77.2053  220.8485 H   0  0  0  0  0  0  0  0  0  0  0  0
  138.0580   76.5590  222.8760 C   0  0  0  0  0  0  0  0  0  0  0  0
  138.5801   75.9563  223.6337 H   0  0  0  0  0  0  0  0  0  0  0  0
  137.9834   77.6145  223.1765 H   0  0  0  0  0  0  0  0  0  0  0  0
  136.6250   76.0180  222.7180 C   0  0  0  0  0  0  0  0  0  0  0  0
  136.0094   76.3870  223.5516 H   0  0  0  0  0  0  0  0  0  0  0  0
  136.2277   76.3680  221.7538 H   0  0  0  0  0  0  0  0  0  0  0  0
  136.6020   74.5400  222.7210 N   0  0  0  0  0  0  0  0  0  0  0  0
  135.7900   74.0010  223.8280 C   0  0  0  0  0  0  0  0  0  0  0  0
  136.1609   74.4017  224.7829 H   0  0  0  0  0  0  0  0  0  0  0  0
  134.7396   74.2961  223.6879 H   0  0  0  0  0  0  0  0  0  0  0  0
  135.8920   72.4610  223.8430 C   0  0  0  0  0  0  0  0  0  0  0  0
  136.5238   72.1579  224.6909 H   0  0  0  0  0  0  0  0  0  0  0  0
  134.8717   72.0601  223.9340 H   0  0  0  0  0  0  0  0  0  0  0  0
  136.4540   71.9400  222.6480 O   0  0  0  0  0  0  0  0  0  0  0  0
  135.8050   72.5050  221.5290 C   0  0  0  0  0  0  0  0  0  0  0  0
  136.1600   72.0062  220.6152 H   0  0  0  0  0  0  0  0  0  0  0  0
  134.7196   72.3662  221.6411 H   0  0  0  0  0  0  0  0  0  0  0  0
  136.1060   74.0150  221.4320 C   0  0  0  0  0  0  0  0  0  0  0  0
  136.8701   74.1805  220.6582 H   0  0  0  0  0  0  0  0  0  0  0  0
  135.1756   74.5419  221.1738 H   0  0  0  0  0  0  0  0  0  0  0  0
  139.2190   73.3120  222.3250 N   0  0  0  0  0  0  0  0  0  0  0  0
  138.2560   73.3930  222.7200 H   0  0  0  0  0  0  0  0  0  0  0  0
  138.6250   70.3560  223.4750 C   0  0  0  0  0  0  0  0  0  0  0  0
  138.3568   70.3735  222.4084 H   0  0  0  0  0  0  0  0  0  0  0  0
  137.7280   70.5678  224.0754 H   0  0  0  0  0  0  0  0  0  0  0  0
  139.1790   68.9830  223.8410 C   0  0  0  0  0  0  0  0  0  0  0  0
  139.9471   68.6994  223.1065 H   0  0  0  0  0  0  0  0  0  0  0  0
  138.3487   68.2615  223.8352 H   0  0  0  0  0  0  0  0  0  0  0  0
  1  2  1  0
  2  3  2  0
  3  4  1  0
  3  5  1  0
  5  6  1  0
  5  7  2  0
  7  8  1  0
  8  9  2  0
  9 10  1  0
  8 11  1  0
 11 12  1  0
 11 13  1  0
 11 14  1  0
 14 15  1  0
 15 16  2  0
 16 17  1  0
 17 18  1  0
 18 19  1  0
 19 20  1  0
 19 21  1  0
 19 22  1  0
 22 23  1  0
 22 24  1  0
 22 25  1  0
 25 26  1  0
 25 27  1  0
 27 28  1  0
 27 29  1  0
 27 30  1  0
 30 31  1  0
 30 32  1  0
 17 33  2  0
 33 34  1  0
 34 35  2  0
 35 36  1  0
 36 37  1  0
 36 38  1  0
 36 39  1  0
 39 40  1  0
 39 41  1  0
 39 42  1  0
 42 43  1  0
 42 44  1  0
 42 45  1  0
 45 46  1  0
 46 47  1  0
 46 48  1  0
 46 49  1  0
 49 50  1  0
 49 51  1  0
 49 52  1  0
 52 53  1  0
 53 54  1  0
 53 55  1  0
 53 56  1  0
 56 57  1  0
 56 58  1  0
 34 59  1  0
 59 60  1  0
 14 61  1  0
 61 62  1  0
 61 63  1  0
 61 64  1  0
 64 65  1  0
 64 66  1  0
  9  2  1  0
 59 15  1  0
 64  7  1  0
 30 18  1  0
 56 45  1  0
M  END
>  <UniqueID>  (37) 
726

>  <SMILES>  (37) 
c1ccc2c(c1)CCN(c1nc(N3CCNCC3)n/c(=N\CCCN3CCOCC3)[nH]1)C2

>  <Energy>  (37) 
83.3636785173553

>  <Genealogy>  (37) 
c1ccc2c(c1)CCN(c1nc(N3CCNCC3)nc(=NCCCN3CCOCC3)[nH]1)C2 (tautomer)
c1ccc2c(c1)CCN(c1nc(N3CCNCC3)n/c(=N\CCCN3CCOCC3)[nH]1)C2 (cis-trans isomerization)
c1ccc2c(c1)CCN(c1nc(N3CCNCC3)n/c(=N\CCCN3CCOCC3)[nH]1)C2 (3D coordinates assigned)
c1ccc2c(c1)CCN(c1nc(N3CCNCC3)n/c(=N\CCCN3CCOCC3)[nH]1)C2 (nonaromatic ring conformer: 83.3636785173553 kcal/mol)

>  <smiles>  (37) 
c1ccc2c(c1)CCN(c1nc(NCCCN3CCOCC3)nc(N3CCNCC3)n1)C2

>  <score_type>  (37) 
oracle

>  <origin>  (37) 
autodockgpu

>  <m_score__min__energy>  (37) 
-9.3100000000000005

>  <m_primary>  (37) 
energy

>  <meeko>  (37) 
{"free_energy": -7.09, "intermolecular_energy": -9.17, "internal_energy": -2.59, "cluster_size": 5, "cluster_id": 3, "rank_in_cluster": 5}

>  <energy>  (37) 
-7.26

>  <cluster_rmsd>  (37) 
0.94

>  <rmsd>  (37) 
270.43

>  <cluster>  (37) 
3

$$$$
RYCKWQXGCGPPJB-JLFMESFVNA-N
     RDKit          3D

 66 70  0  0  0  0  0  0  0  0999 V2000
  143.2689   81.6790  223.2045 H   0  0  0  0  0  0  0  0  0  0  0  0
  142.4450   80.9540  223.1300 C   0  0  0  0  0  0  0  0  0  0  0  0
  141.2680   81.1610  223.8500 C   0  0  0  0  0  0  0  0  0  0  0  0
  141.1675   82.0459  224.4957 H   0  0  0  0  0  0  0  0  0  0  0  0
  140.2170   80.2460  223.7520 C   0  0  0  0  0  0  0  0  0  0  0  0
  139.2940   80.4104  224.3274 H   0  0  0  0  0  0  0  0  0  0  0  0
  140.3310   79.1180  222.9240 C   0  0  0  0  0  0  0  0  0  0  0  0
  141.5370   78.8930  222.2160 C   0  0  0  0  0  0  0  0  0  0  0  0
  142.5790   79.8280  222.3150 C   0  0  0  0  0  0  0  0  0  0  0  0
  143.5078   79.6727  221.7465 H   0  0  0  0  0  0  0  0  0  0  0  0
  141.7150   77.6910  221.3170 C   0  0  0  0  0  0  0  0  0  0  0  0
  142.6696   77.2014  221.5598 H   0  0  0  0  0  0  0  0  0  0  0  0
  141.7065   78.0369  220.2728 H   0  0  0  0  0  0  0  0  0  0  0  0
  140.6260   76.7240  221.4900 N   0  0  0  0  0  0  0  0  0  0  0  0
  140.8780   75.3150  221.3230 C   0  0  0  0  0  0  0  0  0  0  0  0
  142.0940   74.8970  220.8830 N   0  0  0  0  0  0  0  0  0  0  0  0
  142.3680   73.5730  220.7480 C   0  0  0  0  0  0  0  0  0  0  0  0
  143.6580   73.1330  220.2780 N   0  0  0  0  0  0  0  0  0  0  0  0
  144.8220   73.1150  221.1780 C   0  0  0  0  0  0  0  0  0  0  0  0
  144.6519   73.8332  221.9936 H   0  0  0  0  0  0  0  0  0  0  0  0
  144.9361   72.0925  221.5671 H   0  0  0  0  0  0  0  0  0  0  0  0
  146.1290   73.4960  220.4400 C   0  0  0  0  0  0  0  0  0  0  0  0
  146.3249   74.5636  220.6184 H   0  0  0  0  0  0  0  0  0  0  0  0
  146.9156   72.8397  220.8408 H   0  0  0  0  0  0  0  0  0  0  0  0
  146.1000   73.2710  218.9820 N   0  0  0  0  0  0  0  0  0  0  0  0
  145.7600   74.1440  218.5110 H   0  0  0  0  0  0  0  0  0  0  0  0
  145.2080   72.1680  218.6120 C   0  0  0  0  0  0  0  0  0  0  0  0
  145.2996   71.9705  217.5338 H   0  0  0  0  0  0  0  0  0  0  0  0
  145.4889   71.2684  219.1793 H   0  0  0  0  0  0  0  0  0  0  0  0
  143.7600   72.5390  218.9390 C   0  0  0  0  0  0  0  0  0  0  0  0
  143.3978   73.2641  218.1953 H   0  0  0  0  0  0  0  0  0  0  0  0
  143.1499   71.6240  218.9143 H   0  0  0  0  0  0  0  0  0  0  0  0
  141.4120   72.6640  221.0620 N   0  0  0  0  0  0  0  0  0  0  0  0
  140.1910   73.0630  221.5020 C   0  0  0  0  0  0  0  0  0  0  0  0
  139.2640   72.1890  221.7690 N   0  0  0  0  0  0  0  0  0  0  0  0
  139.0370   71.5980  223.0880 C   0  0  0  0  0  0  0  0  0  0  0  0
  138.2097   72.1260  223.5847 H   0  0  0  0  0  0  0  0  0  0  0  0
  138.7854   70.5343  222.9649 H   0  0  0  0  0  0  0  0  0  0  0  0
  140.3000   71.7150  223.9480 C   0  0  0  0  0  0  0  0  0  0  0  0
  141.1549   71.9315  223.2905 H   0  0  0  0  0  0  0  0  0  0  0  0
  140.1330   72.5223  224.6763 H   0  0  0  0  0  0  0  0  0  0  0  0
  140.6000   70.4290  224.7390 C   0  0  0  0  0  0  0  0  0  0  0  0
  140.0521   69.5919  224.2817 H   0  0  0  0  0  0  0  0  0  0  0  0
  141.6849   70.2497  224.7084 H   0  0  0  0  0  0  0  0  0  0  0  0
  140.1900   70.5560  226.1540 N   0  0  0  0  0  0  0  0  0  0  0  0
  140.3780   69.2990  226.9010 C   0  0  0  0  0  0  0  0  0  0  0  0
  139.8353   68.4874  226.3943 H   0  0  0  0  0  0  0  0  0  0  0  0
  141.4499   69.0556  226.9424 H   0  0  0  0  0  0  0  0  0  0  0  0
  139.8340   69.4630  228.3360 C   0  0  0  0  0  0  0  0  0  0  0  0
  138.8909   68.9033  228.4212 H   0  0  0  0  0  0  0  0  0  0  0  0
  140.5981   69.0786  229.0277 H   0  0  0  0  0  0  0  0  0  0  0  0
  139.5900   70.8190  228.6760 O   0  0  0  0  0  0  0  0  0  0  0  0
  140.7180   71.6040  228.3500 C   0  0  0  0  0  0  0  0  0  0  0  0
  140.5683   72.6264  228.7271 H   0  0  0  0  0  0  0  0  0  0  0  0
  141.6089   71.1546  228.8130 H   0  0  0  0  0  0  0  0  0  0  0  0
  140.9220   71.6520  226.8210 C   0  0  0  0  0  0  0  0  0  0  0  0
  140.5532   72.6154  226.4391 H   0  0  0  0  0  0  0  0  0  0  0  0
  141.9949   71.5376  226.6071 H   0  0  0  0  0  0  0  0  0  0  0  0
  139.9280   74.3880  221.6440 N   0  0  0  0  0  0  0  0  0  0  0  0
  139.0040   74.6850  222.0310 H   0  0  0  0  0  0  0  0  0  0  0  0
  139.2680   77.2590  221.6220 C   0  0  0  0  0  0  0  0  0  0  0  0
  138.5506   76.4291  221.7033 H   0  0  0  0  0  0  0  0  0  0  0  0
  139.0191   77.8651  220.7384 H   0  0  0  0  0  0  0  0  0  0  0  0
  139.1960   78.1230  222.8780 C   0  0  0  0  0  0  0  0  0  0  0  0
  139.2527   77.4733  223.7638 H   0  0  0  0  0  0  0  0  0  0  0  0
  138.2468   78.6787  222.8638 H   0  0  0  0  0  0  0  0  0  0  0  0
  1  2  1  0
  2  3  2  0
  3  4  1  0
  3  5  1  0
  5  6  1  0
  5  7  2  0
  7  8  1  0
  8  9  2  0
  9 10  1  0
  8 11  1  0
 11 12  1  0
 11 13  1  0
 11 14  1  0
 14 15  1  0
 15 16  2  0
 16 17  1  0
 17 18  1  0
 18 19  1  0
 19 20  1  0
 19 21  1  0
 19 22  1  0
 22 23  1  0
 22 24  1  0
 22 25  1  0
 25 26  1  0
 25 27  1  0
 27 28  1  0
 27 29  1  0
 27 30  1  0
 30 31  1  0
 30 32  1  0
 17 33  2  0
 33 34  1  0
 34 35  2  0
 35 36  1  0
 36 37  1  0
 36 38  1  0
 36 39  1  0
 39 40  1  0
 39 41  1  0
 39 42  1  0
 42 43  1  0
 42 44  1  0
 42 45  1  0
 45 46  1  0
 46 47  1  0
 46 48  1  0
 46 49  1  0
 49 50  1  0
 49 51  1  0
 49 52  1  0
 52 53  1  0
 53 54  1  0
 53 55  1  0
 53 56  1  0
 56 57  1  0
 56 58  1  0
 34 59  1  0
 59 60  1  0
 14 61  1  0
 61 62  1  0
 61 63  1  0
 61 64  1  0
 64 65  1  0
 64 66  1  0
  9  2  1  0
 59 15  1  0
 64  7  1  0
 30 18  1  0
 56 45  1  0
M  END
>  <UniqueID>  (38) 
726

>  <SMILES>  (38) 
c1ccc2c(c1)CCN(c1nc(N3CCNCC3)n/c(=N\CCCN3CCOCC3)[nH]1)C2

>  <Energy>  (38) 
83.3636785173553

>  <Genealogy>  (38) 
c1ccc2c(c1)CCN(c1nc(N3CCNCC3)nc(=NCCCN3CCOCC3)[nH]1)C2 (tautomer)
c1ccc2c(c1)CCN(c1nc(N3CCNCC3)n/c(=N\CCCN3CCOCC3)[nH]1)C2 (cis-trans isomerization)
c1ccc2c(c1)CCN(c1nc(N3CCNCC3)n/c(=N\CCCN3CCOCC3)[nH]1)C2 (3D coordinates assigned)
c1ccc2c(c1)CCN(c1nc(N3CCNCC3)n/c(=N\CCCN3CCOCC3)[nH]1)C2 (nonaromatic ring conformer: 83.3636785173553 kcal/mol)

>  <smiles>  (38) 
c1ccc2c(c1)CCN(c1nc(NCCCN3CCOCC3)nc(N3CCNCC3)n1)C2

>  <score_type>  (38) 
oracle

>  <origin>  (38) 
autodockgpu

>  <m_score__min__energy>  (38) 
-9.3100000000000005

>  <m_primary>  (38) 
energy

>  <meeko>  (38) 
{"free_energy": -9.12, "intermolecular_energy": -11.21, "internal_energy": -0.8, "cluster_size": 7, "cluster_id": 1, "rank_in_cluster": 2}

>  <energy>  (38) 
-7.25

>  <cluster_rmsd>  (38) 
0.96

>  <rmsd>  (38) 
270.44

>  <cluster>  (38) 
3

$$$$
RYCKWQXGCGPPJB-JLFMESFVNA-N
     RDKit          3D

 66 70  0  0  0  0  0  0  0  0999 V2000
  142.6389   81.5871  223.1035 H   0  0  0  0  0  0  0  0  0  0  0  0
  141.8710   80.8020  223.0400 C   0  0  0  0  0  0  0  0  0  0  0  0
  140.6530   80.9650  223.6980 C   0  0  0  0  0  0  0  0  0  0  0  0
  140.4643   81.8753  224.2861 H   0  0  0  0  0  0  0  0  0  0  0  0
  139.6710   79.9740  223.6120 C   0  0  0  0  0  0  0  0  0  0  0  0
  138.7138   80.1058  224.1377 H   0  0  0  0  0  0  0  0  0  0  0  0
  139.8990   78.8120  222.8590 C   0  0  0  0  0  0  0  0  0  0  0  0
  141.1480   78.6330  222.2150 C   0  0  0  0  0  0  0  0  0  0  0  0
  142.1180   79.6430  222.3000 C   0  0  0  0  0  0  0  0  0  0  0  0
  143.0799   79.5215  221.7803 H   0  0  0  0  0  0  0  0  0  0  0  0
  141.4470   77.3970  221.3980 C   0  0  0  0  0  0  0  0  0  0  0  0
  142.4207   76.9904  221.7088 H   0  0  0  0  0  0  0  0  0  0  0  0
  141.4616   77.6817  220.3356 H   0  0  0  0  0  0  0  0  0  0  0  0
  140.4210   76.3680  221.5830 N   0  0  0  0  0  0  0  0  0  0  0  0
  140.7750   74.9720  221.5120 C   0  0  0  0  0  0  0  0  0  0  0  0
  141.9570   74.6070  220.9480 N   0  0  0  0  0  0  0  0  0  0  0  0
  142.3300   73.3020  220.8970 C   0  0  0  0  0  0  0  0  0  0  0  0
  143.5830   72.9170  220.2960 N   0  0  0  0  0  0  0  0  0  0  0  0
  144.7970   72.7680  221.1140 C   0  0  0  0  0  0  0  0  0  0  0  0
  144.6867   73.3715  222.0270 H   0  0  0  0  0  0  0  0  0  0  0  0
  144.9163   71.7014  221.3551 H   0  0  0  0  0  0  0  0  0  0  0  0
  146.0650   73.2330  220.3570 C   0  0  0  0  0  0  0  0  0  0  0  0
  146.2893   74.2649  220.6649 H   0  0  0  0  0  0  0  0  0  0  0  0
  146.8623   72.5217  220.6182 H   0  0  0  0  0  0  0  0  0  0  0  0
  145.9470   73.2070  218.8870 N   0  0  0  0  0  0  0  0  0  0  0  0
  145.5960   74.1390  218.5590 H   0  0  0  0  0  0  0  0  0  0  0  0
  145.0170   72.1730  218.4260 C   0  0  0  0  0  0  0  0  0  0  0  0
  145.0430   72.1224  217.3275 H   0  0  0  0  0  0  0  0  0  0  0  0
  145.3148   71.2026  218.8497 H   0  0  0  0  0  0  0  0  0  0  0  0
  143.5970   72.5090  218.8850 C   0  0  0  0  0  0  0  0  0  0  0  0
  143.2048   73.3315  218.2687 H   0  0  0  0  0  0  0  0  0  0  0  0
  142.9708   71.6116  218.7733 H   0  0  0  0  0  0  0  0  0  0  0  0
  141.5080   72.3580  221.4200 N   0  0  0  0  0  0  0  0  0  0  0  0
  140.3240   72.7030  221.9850 C   0  0  0  0  0  0  0  0  0  0  0  0
  139.5220   71.7930  222.4550 N   0  0  0  0  0  0  0  0  0  0  0  0
  139.4690   71.3770  223.8560 C   0  0  0  0  0  0  0  0  0  0  0  0
  140.3057   71.8366  224.4026 H   0  0  0  0  0  0  0  0  0  0  0  0
  138.5113   71.7017  224.2889 H   0  0  0  0  0  0  0  0  0  0  0  0
  139.5720   69.8530  223.9640 C   0  0  0  0  0  0  0  0  0  0  0  0
  138.5612   69.4258  223.8880 H   0  0  0  0  0  0  0  0  0  0  0  0
  140.2232   69.5056  223.1484 H   0  0  0  0  0  0  0  0  0  0  0  0
  140.2030   69.3920  225.2910 C   0  0  0  0  0  0  0  0  0  0  0  0
  139.6971   68.4753  225.6282 H   0  0  0  0  0  0  0  0  0  0  0  0
  141.2736   69.2069  225.1189 H   0  0  0  0  0  0  0  0  0  0  0  0
  140.0730   70.4260  226.3390 N   0  0  0  0  0  0  0  0  0  0  0  0
  139.8120   69.8390  227.6670 C   0  0  0  0  0  0  0  0  0  0  0  0
  138.9180   69.2001  227.6156 H   0  0  0  0  0  0  0  0  0  0  0  0
  140.6783   69.2358  227.9765 H   0  0  0  0  0  0  0  0  0  0  0  0
  139.5790   70.9670  228.6950 C   0  0  0  0  0  0  0  0  0  0  0  0
  138.5080   71.0018  228.9433 H   0  0  0  0  0  0  0  0  0  0  0  0
  140.1932   70.7439  229.5799 H   0  0  0  0  0  0  0  0  0  0  0  0
  139.9740   72.2390  228.2070 O   0  0  0  0  0  0  0  0  0  0  0  0
  141.2730   72.1600  227.6610 C   0  0  0  0  0  0  0  0  0  0  0  0
  141.6170   73.1714  227.3987 H   0  0  0  0  0  0  0  0  0  0  0  0
  141.9448   71.7112  228.4075 H   0  0  0  0  0  0  0  0  0  0  0  0
  141.2770   71.2790  226.3950 C   0  0  0  0  0  0  0  0  0  0  0  0
  141.3004   71.9268  225.5063 H   0  0  0  0  0  0  0  0  0  0  0  0
  142.1647   70.6301  226.4229 H   0  0  0  0  0  0  0  0  0  0  0  0
  139.9630   74.0120  222.0420 N   0  0  0  0  0  0  0  0  0  0  0  0
  139.0730   74.2740  222.5230 H   0  0  0  0  0  0  0  0  0  0  0  0
  139.0250   76.8110  221.6280 C   0  0  0  0  0  0  0  0  0  0  0  0
  138.3639   75.9379  221.7311 H   0  0  0  0  0  0  0  0  0  0  0  0
  138.7740   77.3454  220.6999 H   0  0  0  0  0  0  0  0  0  0  0  0
  138.8380   77.7390  222.8250 C   0  0  0  0  0  0  0  0  0  0  0  0
  138.8977   77.1468  223.7501 H   0  0  0  0  0  0  0  0  0  0  0  0
  137.8554   78.2255  222.7366 H   0  0  0  0  0  0  0  0  0  0  0  0
  1  2  1  0
  2  3  2  0
  3  4  1  0
  3  5  1  0
  5  6  1  0
  5  7  2  0
  7  8  1  0
  8  9  2  0
  9 10  1  0
  8 11  1  0
 11 12  1  0
 11 13  1  0
 11 14  1  0
 14 15  1  0
 15 16  2  0
 16 17  1  0
 17 18  1  0
 18 19  1  0
 19 20  1  0
 19 21  1  0
 19 22  1  0
 22 23  1  0
 22 24  1  0
 22 25  1  0
 25 26  1  0
 25 27  1  0
 27 28  1  0
 27 29  1  0
 27 30  1  0
 30 31  1  0
 30 32  1  0
 17 33  2  0
 33 34  1  0
 34 35  2  0
 35 36  1  0
 36 37  1  0
 36 38  1  0
 36 39  1  0
 39 40  1  0
 39 41  1  0
 39 42  1  0
 42 43  1  0
 42 44  1  0
 42 45  1  0
 45 46  1  0
 46 47  1  0
 46 48  1  0
 46 49  1  0
 49 50  1  0
 49 51  1  0
 49 52  1  0
 52 53  1  0
 53 54  1  0
 53 55  1  0
 53 56  1  0
 56 57  1  0
 56 58  1  0
 34 59  1  0
 59 60  1  0
 14 61  1  0
 61 62  1  0
 61 63  1  0
 61 64  1  0
 64 65  1  0
 64 66  1  0
  9  2  1  0
 59 15  1  0
 64  7  1  0
 30 18  1  0
 56 45  1  0
M  END
>  <UniqueID>  (39) 
726

>  <SMILES>  (39) 
c1ccc2c(c1)CCN(c1nc(N3CCNCC3)n/c(=N\CCCN3CCOCC3)[nH]1)C2

>  <Energy>  (39) 
83.3636785173553

>  <Genealogy>  (39) 
c1ccc2c(c1)CCN(c1nc(N3CCNCC3)nc(=NCCCN3CCOCC3)[nH]1)C2 (tautomer)
c1ccc2c(c1)CCN(c1nc(N3CCNCC3)n/c(=N\CCCN3CCOCC3)[nH]1)C2 (cis-trans isomerization)
c1ccc2c(c1)CCN(c1nc(N3CCNCC3)n/c(=N\CCCN3CCOCC3)[nH]1)C2 (3D coordinates assigned)
c1ccc2c(c1)CCN(c1nc(N3CCNCC3)n/c(=N\CCCN3CCOCC3)[nH]1)C2 (nonaromatic ring conformer: 83.3636785173553 kcal/mol)

>  <smiles>  (39) 
c1ccc2c(c1)CCN(c1nc(NCCCN3CCOCC3)nc(N3CCNCC3)n1)C2

>  <score_type>  (39) 
oracle

>  <origin>  (39) 
autodockgpu

>  <m_score__min__energy>  (39) 
-9.3100000000000005

>  <m_primary>  (39) 
energy

>  <meeko>  (39) 
{"free_energy": -9.0, "intermolecular_energy": -11.08, "internal_energy": -0.69, "cluster_size": 7, "cluster_id": 1, "rank_in_cluster": 5}

>  <energy>  (39) 
-7.11

>  <cluster_rmsd>  (39) 
0.23

>  <rmsd>  (39) 
270.44

>  <cluster>  (39) 
3

$$$$
RYCKWQXGCGPPJB-JLFMESFVNA-N
     RDKit          3D

 66 70  0  0  0  0  0  0  0  0999 V2000
  141.4473   68.2960  228.1576 H   0  0  0  0  0  0  0  0  0  0  0  0
  140.9410   68.5240  227.2080 C   0  0  0  0  0  0  0  0  0  0  0  0
  140.2180   67.5300  226.5480 C   0  0  0  0  0  0  0  0  0  0  0  0
  140.1605   66.5178  226.9748 H   0  0  0  0  0  0  0  0  0  0  0  0
  139.5670   67.8180  225.3460 C   0  0  0  0  0  0  0  0  0  0  0  0
  139.0044   67.0283  224.8265 H   0  0  0  0  0  0  0  0  0  0  0  0
  139.6260   69.1080  224.7970 C   0  0  0  0  0  0  0  0  0  0  0  0
  140.3860   70.1090  225.4520 C   0  0  0  0  0  0  0  0  0  0  0  0
  141.0230   69.8080  226.6650 C   0  0  0  0  0  0  0  0  0  0  0  0
  141.5910   70.5887  227.1921 H   0  0  0  0  0  0  0  0  0  0  0  0
  140.4890   71.5120  224.8990 C   0  0  0  0  0  0  0  0  0  0  0  0
  141.5474   71.8110  224.8785 H   0  0  0  0  0  0  0  0  0  0  0  0
  139.9047   72.1816  225.5473 H   0  0  0  0  0  0  0  0  0  0  0  0
  139.9440   71.5970  223.5410 N   0  0  0  0  0  0  0  0  0  0  0  0
  140.5040   72.5300  222.5950 C   0  0  0  0  0  0  0  0  0  0  0  0
  141.6720   72.2300  221.9660 N   0  0  0  0  0  0  0  0  0  0  0  0
  142.2030   73.0760  221.0460 C   0  0  0  0  0  0  0  0  0  0  0  0
  143.4440   72.7570  220.3830 N   0  0  0  0  0  0  0  0  0  0  0  0
  144.6980   72.6480  221.1440 C   0  0  0  0  0  0  0  0  0  0  0  0
  144.6020   73.2300  222.0725 H   0  0  0  0  0  0  0  0  0  0  0  0
  144.8743   71.5837  221.3588 H   0  0  0  0  0  0  0  0  0  0  0  0
  145.9100   73.1820  220.3420 C   0  0  0  0  0  0  0  0  0  0  0  0
  146.1028   74.2172  220.6602 H   0  0  0  0  0  0  0  0  0  0  0  0
  146.7483   72.5021  220.5543 H   0  0  0  0  0  0  0  0  0  0  0  0
  145.7280   73.1770  218.8780 N   0  0  0  0  0  0  0  0  0  0  0  0
  145.3230   74.0980  218.5840 H   0  0  0  0  0  0  0  0  0  0  0  0
  144.8240   72.1100  218.4380 C   0  0  0  0  0  0  0  0  0  0  0  0
  144.8027   72.0798  217.3386 H   0  0  0  0  0  0  0  0  0  0  0  0
  145.1827   71.1463  218.8287 H   0  0  0  0  0  0  0  0  0  0  0  0
  143.4130   72.3750  218.9660 C   0  0  0  0  0  0  0  0  0  0  0  0
  142.9583   73.1900  218.3837 H   0  0  0  0  0  0  0  0  0  0  0  0
  142.8223   71.4526  218.8648 H   0  0  0  0  0  0  0  0  0  0  0  0
  141.5540   74.2300  220.7550 N   0  0  0  0  0  0  0  0  0  0  0  0
  140.3880   74.5470  221.3730 C   0  0  0  0  0  0  0  0  0  0  0  0
  139.7840   75.6710  221.1170 N   0  0  0  0  0  0  0  0  0  0  0  0
  140.4590   76.9610  220.9760 C   0  0  0  0  0  0  0  0  0  0  0  0
  141.2959   76.8571  220.2698 H   0  0  0  0  0  0  0  0  0  0  0  0
  139.7382   77.7023  220.6006 H   0  0  0  0  0  0  0  0  0  0  0  0
  140.9970   77.4320  222.3310 C   0  0  0  0  0  0  0  0  0  0  0  0
  141.0904   76.5599  222.9949 H   0  0  0  0  0  0  0  0  0  0  0  0
  141.9697   77.9138  222.1530 H   0  0  0  0  0  0  0  0  0  0  0  0
  140.0810   78.4690  223.0060 C   0  0  0  0  0  0  0  0  0  0  0  0
  139.2395   78.6941  222.3343 H   0  0  0  0  0  0  0  0  0  0  0  0
  139.7205   78.0464  223.9554 H   0  0  0  0  0  0  0  0  0  0  0  0
  140.8090   79.7210  223.3010 N   0  0  0  0  0  0  0  0  0  0  0  0
  142.2600   79.4980  223.4470 C   0  0  0  0  0  0  0  0  0  0  0  0
  142.4373   78.7352  224.2195 H   0  0  0  0  0  0  0  0  0  0  0  0
  142.6753   79.1542  222.4882 H   0  0  0  0  0  0  0  0  0  0  0  0
  142.9470   80.8170  223.8600 C   0  0  0  0  0  0  0  0  0  0  0  0
  143.2355   80.7471  224.9192 H   0  0  0  0  0  0  0  0  0  0  0  0
  143.8228   80.9542  223.2087 H   0  0  0  0  0  0  0  0  0  0  0  0
  142.1060   81.9470  223.6920 O   0  0  0  0  0  0  0  0  0  0  0  0
  141.5310   81.9280  222.4030 C   0  0  0  0  0  0  0  0  0  0  0  0
  140.9807   82.8662  222.2387 H   0  0  0  0  0  0  0  0  0  0  0  0
  142.3334   81.8223  221.6580 H   0  0  0  0  0  0  0  0  0  0  0  0
  140.5590   80.7380  222.2600 C   0  0  0  0  0  0  0  0  0  0  0  0
  139.5261   81.1040  222.3557 H   0  0  0  0  0  0  0  0  0  0  0  0
  140.7148   80.2754  221.2742 H   0  0  0  0  0  0  0  0  0  0  0  0
  139.8560   73.6900  222.2840 N   0  0  0  0  0  0  0  0  0  0  0  0
  138.9340   73.9180  222.7190 H   0  0  0  0  0  0  0  0  0  0  0  0
  138.7040   70.8660  223.2680 C   0  0  0  0  0  0  0  0  0  0  0  0
  138.3891   71.0483  222.2299 H   0  0  0  0  0  0  0  0  0  0  0  0
  137.9123   71.2087  223.9505 H   0  0  0  0  0  0  0  0  0  0  0  0
  138.9520   69.3750  223.4730 C   0  0  0  0  0  0  0  0  0  0  0  0
  139.5958   69.0040  222.6619 H   0  0  0  0  0  0  0  0  0  0  0  0
  137.9813   68.8576  223.4670 H   0  0  0  0  0  0  0  0  0  0  0  0
  1  2  1  0
  2  3  2  0
  3  4  1  0
  3  5  1  0
  5  6  1  0
  5  7  2  0
  7  8  1  0
  8  9  2  0
  9 10  1  0
  8 11  1  0
 11 12  1  0
 11 13  1  0
 11 14  1  0
 14 15  1  0
 15 16  2  0
 16 17  1  0
 17 18  1  0
 18 19  1  0
 19 20  1  0
 19 21  1  0
 19 22  1  0
 22 23  1  0
 22 24  1  0
 22 25  1  0
 25 26  1  0
 25 27  1  0
 27 28  1  0
 27 29  1  0
 27 30  1  0
 30 31  1  0
 30 32  1  0
 17 33  2  0
 33 34  1  0
 34 35  2  0
 35 36  1  0
 36 37  1  0
 36 38  1  0
 36 39  1  0
 39 40  1  0
 39 41  1  0
 39 42  1  0
 42 43  1  0
 42 44  1  0
 42 45  1  0
 45 46  1  0
 46 47  1  0
 46 48  1  0
 46 49  1  0
 49 50  1  0
 49 51  1  0
 49 52  1  0
 52 53  1  0
 53 54  1  0
 53 55  1  0
 53 56  1  0
 56 57  1  0
 56 58  1  0
 34 59  1  0
 59 60  1  0
 14 61  1  0
 61 62  1  0
 61 63  1  0
 61 64  1  0
 64 65  1  0
 64 66  1  0
  9  2  1  0
 59 15  1  0
 64  7  1  0
 30 18  1  0
 56 45  1  0
M  END
>  <UniqueID>  (40) 
726

>  <SMILES>  (40) 
c1ccc2c(c1)CCN(c1nc(N3CCNCC3)n/c(=N\CCCN3CCOCC3)[nH]1)C2

>  <Energy>  (40) 
83.3636785173553

>  <Genealogy>  (40) 
c1ccc2c(c1)CCN(c1nc(N3CCNCC3)nc(=NCCCN3CCOCC3)[nH]1)C2 (tautomer)
c1ccc2c(c1)CCN(c1nc(N3CCNCC3)n/c(=N\CCCN3CCOCC3)[nH]1)C2 (cis-trans isomerization)
c1ccc2c(c1)CCN(c1nc(N3CCNCC3)n/c(=N\CCCN3CCOCC3)[nH]1)C2 (3D coordinates assigned)
c1ccc2c(c1)CCN(c1nc(N3CCNCC3)n/c(=N\CCCN3CCOCC3)[nH]1)C2 (nonaromatic ring conformer: 83.3636785173553 kcal/mol)

>  <smiles>  (40) 
c1ccc2c(c1)CCN(c1nc(NCCCN3CCOCC3)nc(N3CCNCC3)n1)C2

>  <score_type>  (40) 
oracle

>  <origin>  (40) 
autodockgpu

>  <m_score__min__energy>  (40) 
-9.3100000000000005

>  <m_primary>  (40) 
energy

>  <meeko>  (40) 
{"free_energy": -9.19, "intermolecular_energy": -11.28, "internal_energy": -0.76, "cluster_size": 8, "cluster_id": 2, "rank_in_cluster": 1}

>  <energy>  (40) 
-7.09

>  <cluster_rmsd>  (40) 
0.47

>  <rmsd>  (40) 
270.49

>  <cluster>  (40) 
3

$$$$
RYCKWQXGCGPPJB-JLFMESFVNA-N
     RDKit          3D

 66 70  0  0  0  0  0  0  0  0999 V2000
  141.4994   68.4922  228.3589 H   0  0  0  0  0  0  0  0  0  0  0  0
  140.9960   68.6460  227.3930 C   0  0  0  0  0  0  0  0  0  0  0  0
  140.3860   67.5710  226.7460 C   0  0  0  0  0  0  0  0  0  0  0  0
  140.4155   66.5692  227.1993 H   0  0  0  0  0  0  0  0  0  0  0  0
  139.7380   67.7640  225.5240 C   0  0  0  0  0  0  0  0  0  0  0  0
  139.2646   66.9110  225.0158 H   0  0  0  0  0  0  0  0  0  0  0  0
  139.6870   69.0400  224.9400 C   0  0  0  0  0  0  0  0  0  0  0  0
  140.3330   70.1250  225.5820 C   0  0  0  0  0  0  0  0  0  0  0  0
  140.9680   69.9180  226.8150 C   0  0  0  0  0  0  0  0  0  0  0  0
  141.4475   70.7629  227.3309 H   0  0  0  0  0  0  0  0  0  0  0  0
  140.3140   71.5170  224.9920 C   0  0  0  0  0  0  0  0  0  0  0  0
  141.3391   71.9159  224.9850 H   0  0  0  0  0  0  0  0  0  0  0  0
  139.6533   72.1437  225.6091 H   0  0  0  0  0  0  0  0  0  0  0  0
  139.7950   71.5140  223.6210 N   0  0  0  0  0  0  0  0  0  0  0  0
  140.2850   72.4710  222.6610 C   0  0  0  0  0  0  0  0  0  0  0  0
  141.4510   72.2290  222.0060 N   0  0  0  0  0  0  0  0  0  0  0  0
  141.9180   73.0980  221.0720 C   0  0  0  0  0  0  0  0  0  0  0  0
  143.1570   72.8400  220.3800 N   0  0  0  0  0  0  0  0  0  0  0  0
  143.2800   71.7040  219.4540 C   0  0  0  0  0  0  0  0  0  0  0  0
  142.5280   70.9462  219.7191 H   0  0  0  0  0  0  0  0  0  0  0  0
  143.1224   72.0791  218.4320 H   0  0  0  0  0  0  0  0  0  0  0  0
  144.6860   71.0570  219.5160 C   0  0  0  0  0  0  0  0  0  0  0  0
  144.6323   70.1830  220.1818 H   0  0  0  0  0  0  0  0  0  0  0  0
  144.9547   70.7961  218.4817 H   0  0  0  0  0  0  0  0  0  0  0  0
  145.7510   71.9480  220.0120 N   0  0  0  0  0  0  0  0  0  0  0  0
  145.8250   71.8420  221.0520 H   0  0  0  0  0  0  0  0  0  0  0  0
  145.4780   73.3560  219.7080 C   0  0  0  0  0  0  0  0  0  0  0  0
  146.3442   73.9673  220.0014 H   0  0  0  0  0  0  0  0  0  0  0  0
  145.2950   73.4651  218.6288 H   0  0  0  0  0  0  0  0  0  0  0  0
  144.2420   73.8240  220.4790 C   0  0  0  0  0  0  0  0  0  0  0  0
  144.5085   73.9605  221.5375 H   0  0  0  0  0  0  0  0  0  0  0  0
  143.8956   74.7729  220.0437 H   0  0  0  0  0  0  0  0  0  0  0  0
  141.2050   74.2180  220.7950 N   0  0  0  0  0  0  0  0  0  0  0  0
  140.0390   74.4770  221.4400 C   0  0  0  0  0  0  0  0  0  0  0  0
  139.3750   75.5690  221.1970 N   0  0  0  0  0  0  0  0  0  0  0  0
  139.9380   76.7560  220.5540 C   0  0  0  0  0  0  0  0  0  0  0  0
  140.1433   76.5327  219.4966 H   0  0  0  0  0  0  0  0  0  0  0  0
  139.2151   77.5814  220.6321 H   0  0  0  0  0  0  0  0  0  0  0  0
  141.2410   77.1690  221.2450 C   0  0  0  0  0  0  0  0  0  0  0  0
  141.9153   76.3004  221.2727 H   0  0  0  0  0  0  0  0  0  0  0  0
  141.6730   78.0011  220.6696 H   0  0  0  0  0  0  0  0  0  0  0  0
  141.0180   77.6660  222.6860 C   0  0  0  0  0  0  0  0  0  0  0  0
  140.0100   77.3719  223.0138 H   0  0  0  0  0  0  0  0  0  0  0  0
  141.7861   77.2137  223.3305 H   0  0  0  0  0  0  0  0  0  0  0  0
  141.1430   79.1370  222.7760 N   0  0  0  0  0  0  0  0  0  0  0  0
  142.1960   79.5460  223.7230 C   0  0  0  0  0  0  0  0  0  0  0  0
  141.9987   79.0953  224.7068 H   0  0  0  0  0  0  0  0  0  0  0  0
  143.1738   79.2056  223.3514 H   0  0  0  0  0  0  0  0  0  0  0  0
  142.2050   81.0840  223.8550 C   0  0  0  0  0  0  0  0  0  0  0  0
  141.7791   81.3564  224.8319 H   0  0  0  0  0  0  0  0  0  0  0  0
  143.2478   81.4209  223.7593 H   0  0  0  0  0  0  0  0  0  0  0  0
  141.4510   81.7230  222.8360 O   0  0  0  0  0  0  0  0  0  0  0  0
  141.8200   81.2090  221.5740 C   0  0  0  0  0  0  0  0  0  0  0  0
  141.3223   81.7933  220.7860 H   0  0  0  0  0  0  0  0  0  0  0  0
  142.9125   81.2801  221.4675 H   0  0  0  0  0  0  0  0  0  0  0  0
  141.4030   79.7290  221.4480 C   0  0  0  0  0  0  0  0  0  0  0  0
  140.4888   79.6635  220.8398 H   0  0  0  0  0  0  0  0  0  0  0  0
  142.2239   79.1732  220.9713 H   0  0  0  0  0  0  0  0  0  0  0  0
  139.5730   73.5970  222.3650 N   0  0  0  0  0  0  0  0  0  0  0  0
  138.6510   73.7790  222.8210 H   0  0  0  0  0  0  0  0  0  0  0  0
  138.6360   70.6610  223.3440 C   0  0  0  0  0  0  0  0  0  0  0  0
  138.3285   70.7852  222.2952 H   0  0  0  0  0  0  0  0  0  0  0  0
  137.7998   70.9441  224.0003 H   0  0  0  0  0  0  0  0  0  0  0  0
  139.0210   69.2060  223.5960 C   0  0  0  0  0  0  0  0  0  0  0  0
  139.7157   68.8777  222.8088 H   0  0  0  0  0  0  0  0  0  0  0  0
  138.1047   68.5975  223.5850 H   0  0  0  0  0  0  0  0  0  0  0  0
  1  2  1  0
  2  3  2  0
  3  4  1  0
  3  5  1  0
  5  6  1  0
  5  7  2  0
  7  8  1  0
  8  9  2  0
  9 10  1  0
  8 11  1  0
 11 12  1  0
 11 13  1  0
 11 14  1  0
 14 15  1  0
 15 16  2  0
 16 17  1  0
 17 18  1  0
 18 19  1  0
 19 20  1  0
 19 21  1  0
 19 22  1  0
 22 23  1  0
 22 24  1  0
 22 25  1  0
 25 26  1  0
 25 27  1  0
 27 28  1  0
 27 29  1  0
 27 30  1  0
 30 31  1  0
 30 32  1  0
 17 33  2  0
 33 34  1  0
 34 35  2  0
 35 36  1  0
 36 37  1  0
 36 38  1  0
 36 39  1  0
 39 40  1  0
 39 41  1  0
 39 42  1  0
 42 43  1  0
 42 44  1  0
 42 45  1  0
 45 46  1  0
 46 47  1  0
 46 48  1  0
 46 49  1  0
 49 50  1  0
 49 51  1  0
 49 52  1  0
 52 53  1  0
 53 54  1  0
 53 55  1  0
 53 56  1  0
 56 57  1  0
 56 58  1  0
 34 59  1  0
 59 60  1  0
 14 61  1  0
 61 62  1  0
 61 63  1  0
 61 64  1  0
 64 65  1  0
 64 66  1  0
  9  2  1  0
 59 15  1  0
 64  7  1  0
 30 18  1  0
 56 45  1  0
M  END
>  <UniqueID>  (41) 
727

>  <SMILES>  (41) 
c1ccc2c(c1)CCN(c1nc(N3CCNCC3)n/c(=N\CCCN3CCOCC3)[nH]1)C2

>  <Energy>  (41) 
83.7077518671416

>  <Genealogy>  (41) 
c1ccc2c(c1)CCN(c1nc(N3CCNCC3)nc(=NCCCN3CCOCC3)[nH]1)C2 (tautomer)
c1ccc2c(c1)CCN(c1nc(N3CCNCC3)n/c(=N\CCCN3CCOCC3)[nH]1)C2 (cis-trans isomerization)
c1ccc2c(c1)CCN(c1nc(N3CCNCC3)n/c(=N\CCCN3CCOCC3)[nH]1)C2 (3D coordinates assigned)
c1ccc2c(c1)CCN(c1nc(N3CCNCC3)n/c(=N\CCCN3CCOCC3)[nH]1)C2 (nonaromatic ring conformer: 83.7077518671416 kcal/mol)

>  <smiles>  (41) 
c1ccc2c(c1)CCN(c1nc(NCCCN3CCOCC3)nc(N3CCNCC3)n1)C2

>  <score_type>  (41) 
oracle

>  <origin>  (41) 
autodockgpu

>  <m_score__min__energy>  (41) 
-9.3100000000000005

>  <m_primary>  (41) 
energy

>  <meeko>  (41) 
{"free_energy": -9.1, "intermolecular_energy": -11.19, "internal_energy": -0.82, "cluster_size": 8, "cluster_id": 2, "rank_in_cluster": 3}

>  <energy>  (41) 
-9.31

>  <cluster_rmsd>  (41) 
0.0

>  <rmsd>  (41) 
271.5

>  <cluster>  (41) 
1

$$$$
RYCKWQXGCGPPJB-JLFMESFVNA-N
     RDKit          3D

 66 70  0  0  0  0  0  0  0  0999 V2000
  143.1806   81.7592  223.0646 H   0  0  0  0  0  0  0  0  0  0  0  0
  142.3800   81.0080  222.9950 C   0  0  0  0  0  0  0  0  0  0  0  0
  141.1890   81.1930  223.6970 C   0  0  0  0  0  0  0  0  0  0  0  0
  141.0542   82.0867  224.3240 H   0  0  0  0  0  0  0  0  0  0  0  0
  140.1670   80.2450  223.6050 C   0  0  0  0  0  0  0  0  0  0  0  0
  139.2327   80.3923  224.1665 H   0  0  0  0  0  0  0  0  0  0  0  0
  140.3250   79.1050  222.8000 C   0  0  0  0  0  0  0  0  0  0  0  0
  141.5460   78.9040  222.1110 C   0  0  0  0  0  0  0  0  0  0  0  0
  142.5580   79.8710  222.2040 C   0  0  0  0  0  0  0  0  0  0  0  0
  143.4982   79.7327  221.6500 H   0  0  0  0  0  0  0  0  0  0  0  0
  141.7700   77.6910  221.2370 C   0  0  0  0  0  0  0  0  0  0  0  0
  142.7358   77.2348  221.5000 H   0  0  0  0  0  0  0  0  0  0  0  0
  141.7632   78.0174  220.1866 H   0  0  0  0  0  0  0  0  0  0  0  0
  140.7090   76.6950  221.4150 N   0  0  0  0  0  0  0  0  0  0  0  0
  141.0050   75.2910  221.2790 C   0  0  0  0  0  0  0  0  0  0  0  0
  142.2420   74.9020  220.8700 N   0  0  0  0  0  0  0  0  0  0  0  0
  142.5570   73.5850  220.7640 C   0  0  0  0  0  0  0  0  0  0  0  0
  143.8680   73.1740  220.3270 N   0  0  0  0  0  0  0  0  0  0  0  0
  145.0300   73.2900  221.2220 C   0  0  0  0  0  0  0  0  0  0  0  0
  144.8220   74.0631  221.9764 H   0  0  0  0  0  0  0  0  0  0  0  0
  145.1961   72.3102  221.6936 H   0  0  0  0  0  0  0  0  0  0  0  0
  146.3170   73.6760  220.4510 C   0  0  0  0  0  0  0  0  0  0  0  0
  146.4578   74.7633  220.5408 H   0  0  0  0  0  0  0  0  0  0  0  0
  147.1362   73.0965  220.9016 H   0  0  0  0  0  0  0  0  0  0  0  0
  146.3000   73.3310  219.0170 N   0  0  0  0  0  0  0  0  0  0  0  0
  145.9170   74.1440  218.4780 H   0  0  0  0  0  0  0  0  0  0  0  0
  145.4670   72.1580  218.7410 C   0  0  0  0  0  0  0  0  0  0  0  0
  145.5699   71.8783  217.6821 H   0  0  0  0  0  0  0  0  0  0  0  0
  145.7933   71.3233  219.3789 H   0  0  0  0  0  0  0  0  0  0  0  0
  144.0020   72.4790  219.0410 C   0  0  0  0  0  0  0  0  0  0  0  0
  143.6036   73.1213  218.2418 H   0  0  0  0  0  0  0  0  0  0  0  0
  143.4401   71.5348  219.0929 H   0  0  0  0  0  0  0  0  0  0  0  0
  141.6210   72.6530  221.0750 N   0  0  0  0  0  0  0  0  0  0  0  0
  140.3800   73.0230  221.4830 C   0  0  0  0  0  0  0  0  0  0  0  0
  139.4740   72.1280  221.7470 N   0  0  0  0  0  0  0  0  0  0  0  0
  139.1070   71.6920  223.0940 C   0  0  0  0  0  0  0  0  0  0  0  0
  138.3427   72.3713  223.4995 H   0  0  0  0  0  0  0  0  0  0  0  0
  138.7114   70.6669  223.0427 H   0  0  0  0  0  0  0  0  0  0  0  0
  140.3340   71.7070  224.0110 C   0  0  0  0  0  0  0  0  0  0  0  0
  141.2254   71.9192  223.4025 H   0  0  0  0  0  0  0  0  0  0  0  0
  140.1686   72.4815  224.7745 H   0  0  0  0  0  0  0  0  0  0  0  0
  140.5450   70.3690  224.7440 C   0  0  0  0  0  0  0  0  0  0  0  0
  139.9292   69.5957  224.2615 H   0  0  0  0  0  0  0  0  0  0  0  0
  141.6124   70.1090  224.6890 H   0  0  0  0  0  0  0  0  0  0  0  0
  140.1630   70.4680  226.1700 N   0  0  0  0  0  0  0  0  0  0  0  0
  140.4900   69.2390  226.9170 C   0  0  0  0  0  0  0  0  0  0  0  0
  140.0129   68.3761  226.4294 H   0  0  0  0  0  0  0  0  0  0  0  0
  141.5808   69.0976  226.9292 H   0  0  0  0  0  0  0  0  0  0  0  0
  139.9720   69.3620  228.3660 C   0  0  0  0  0  0  0  0  0  0  0  0
  139.0883   68.7169  228.4800 H   0  0  0  0  0  0  0  0  0  0  0  0
  140.7874   69.0563  229.0381 H   0  0  0  0  0  0  0  0  0  0  0  0
  139.6110   70.6910  228.7060 O   0  0  0  0  0  0  0  0  0  0  0  0
  140.6490   71.5760  228.3450 C   0  0  0  0  0  0  0  0  0  0  0  0
  140.4132   72.5824  228.7213 H   0  0  0  0  0  0  0  0  0  0  0  0
  141.5908   71.2162  228.7850 H   0  0  0  0  0  0  0  0  0  0  0  0
  140.8060   71.6320  226.8110 C   0  0  0  0  0  0  0  0  0  0  0  0
  140.3379   72.5537  226.4350 H   0  0  0  0  0  0  0  0  0  0  0  0
  141.8787   71.6174  226.5680 H   0  0  0  0  0  0  0  0  0  0  0  0
  140.0760   74.3430  221.5970 N   0  0  0  0  0  0  0  0  0  0  0  0
  139.1360   74.6190  221.9590 H   0  0  0  0  0  0  0  0  0  0  0  0
  139.3340   77.1910  221.5210 C   0  0  0  0  0  0  0  0  0  0  0  0
  138.6410   76.3414  221.6101 H   0  0  0  0  0  0  0  0  0  0  0  0
  139.0776   77.7723  220.6230 H   0  0  0  0  0  0  0  0  0  0  0  0
  139.2210   78.0760  222.7590 C   0  0  0  0  0  0  0  0  0  0  0  0
  139.2857   77.4450  223.6577 H   0  0  0  0  0  0  0  0  0  0  0  0
  138.2562   78.6030  222.7223 H   0  0  0  0  0  0  0  0  0  0  0  0
  1  2  1  0
  2  3  2  0
  3  4  1  0
  3  5  1  0
  5  6  1  0
  5  7  2  0
  7  8  1  0
  8  9  2  0
  9 10  1  0
  8 11  1  0
 11 12  1  0
 11 13  1  0
 11 14  1  0
 14 15  1  0
 15 16  2  0
 16 17  1  0
 17 18  1  0
 18 19  1  0
 19 20  1  0
 19 21  1  0
 19 22  1  0
 22 23  1  0
 22 24  1  0
 22 25  1  0
 25 26  1  0
 25 27  1  0
 27 28  1  0
 27 29  1  0
 27 30  1  0
 30 31  1  0
 30 32  1  0
 17 33  2  0
 33 34  1  0
 34 35  2  0
 35 36  1  0
 36 37  1  0
 36 38  1  0
 36 39  1  0
 39 40  1  0
 39 41  1  0
 39 42  1  0
 42 43  1  0
 42 44  1  0
 42 45  1  0
 45 46  1  0
 46 47  1  0
 46 48  1  0
 46 49  1  0
 49 50  1  0
 49 51  1  0
 49 52  1  0
 52 53  1  0
 53 54  1  0
 53 55  1  0
 53 56  1  0
 56 57  1  0
 56 58  1  0
 34 59  1  0
 59 60  1  0
 14 61  1  0
 61 62  1  0
 61 63  1  0
 61 64  1  0
 64 65  1  0
 64 66  1  0
  9  2  1  0
 59 15  1  0
 64  7  1  0
 30 18  1  0
 56 45  1  0
M  END
>  <UniqueID>  (42) 
727

>  <SMILES>  (42) 
c1ccc2c(c1)CCN(c1nc(N3CCNCC3)n/c(=N\CCCN3CCOCC3)[nH]1)C2

>  <Energy>  (42) 
83.7077518671416

>  <Genealogy>  (42) 
c1ccc2c(c1)CCN(c1nc(N3CCNCC3)nc(=NCCCN3CCOCC3)[nH]1)C2 (tautomer)
c1ccc2c(c1)CCN(c1nc(N3CCNCC3)n/c(=N\CCCN3CCOCC3)[nH]1)C2 (cis-trans isomerization)
c1ccc2c(c1)CCN(c1nc(N3CCNCC3)n/c(=N\CCCN3CCOCC3)[nH]1)C2 (3D coordinates assigned)
c1ccc2c(c1)CCN(c1nc(N3CCNCC3)n/c(=N\CCCN3CCOCC3)[nH]1)C2 (nonaromatic ring conformer: 83.7077518671416 kcal/mol)

>  <smiles>  (42) 
c1ccc2c(c1)CCN(c1nc(NCCCN3CCOCC3)nc(N3CCNCC3)n1)C2

>  <score_type>  (42) 
oracle

>  <origin>  (42) 
autodockgpu

>  <m_score__min__energy>  (42) 
-9.3100000000000005

>  <m_primary>  (42) 
energy

>  <meeko>  (42) 
{"free_energy": -9.1, "intermolecular_energy": -11.18, "internal_energy": -0.79, "cluster_size": 7, "cluster_id": 1, "rank_in_cluster": 3}

>  <energy>  (42) 
-9.12

>  <cluster_rmsd>  (42) 
0.98

>  <rmsd>  (42) 
271.69

>  <cluster>  (42) 
1

$$$$
RYCKWQXGCGPPJB-JLFMESFVNA-N
     RDKit          3D

 66 70  0  0  0  0  0  0  0  0999 V2000
  141.5734   68.9078  228.7210 H   0  0  0  0  0  0  0  0  0  0  0  0
  141.0910   68.9410  227.7330 C   0  0  0  0  0  0  0  0  0  0  0  0
  140.5940   67.7700  227.1610 C   0  0  0  0  0  0  0  0  0  0  0  0
  140.6901   66.8137  227.6960 H   0  0  0  0  0  0  0  0  0  0  0  0
  139.9740   67.8100  225.9090 C   0  0  0  0  0  0  0  0  0  0  0  0
  139.5902   66.8824  225.4593 H   0  0  0  0  0  0  0  0  0  0  0  0
  139.8380   69.0260  225.2220 C   0  0  0  0  0  0  0  0  0  0  0  0
  140.3690   70.2100  225.7900 C   0  0  0  0  0  0  0  0  0  0  0  0
  140.9770   70.1560  227.0530 C   0  0  0  0  0  0  0  0  0  0  0  0
  141.3668   71.0769  227.5112 H   0  0  0  0  0  0  0  0  0  0  0  0
  140.2560   71.5440  225.0880 C   0  0  0  0  0  0  0  0  0  0  0  0
  141.2443   72.0267  225.0770 H   0  0  0  0  0  0  0  0  0  0  0  0
  139.5250   72.1594  225.6329 H   0  0  0  0  0  0  0  0  0  0  0  0
  139.7870   71.3880  223.7080 N   0  0  0  0  0  0  0  0  0  0  0  0
  140.2280   72.3040  222.6870 C   0  0  0  0  0  0  0  0  0  0  0  0
  141.4050   72.0780  222.0450 N   0  0  0  0  0  0  0  0  0  0  0  0
  141.8290   72.9070  221.0560 C   0  0  0  0  0  0  0  0  0  0  0  0
  143.0790   72.6670  220.3780 N   0  0  0  0  0  0  0  0  0  0  0  0
  143.2600   71.4780  219.5310 C   0  0  0  0  0  0  0  0  0  0  0  0
  142.5485   70.7022  219.8502 H   0  0  0  0  0  0  0  0  0  0  0  0
  143.0822   71.7731  218.4863 H   0  0  0  0  0  0  0  0  0  0  0  0
  144.6980   70.9110  219.6320 C   0  0  0  0  0  0  0  0  0  0  0  0
  144.6901   70.0830  220.3561 H   0  0  0  0  0  0  0  0  0  0  0  0
  144.9799   70.5944  218.6170 H   0  0  0  0  0  0  0  0  0  0  0  0
  145.7150   71.8880  220.0620 N   0  0  0  0  0  0  0  0  0  0  0  0
  145.7950   71.8570  221.1060 H   0  0  0  0  0  0  0  0  0  0  0  0
  145.3700   73.2560  219.6640 C   0  0  0  0  0  0  0  0  0  0  0  0
  146.2035   73.9295  219.9124 H   0  0  0  0  0  0  0  0  0  0  0  0
  145.1819   73.2818  218.5805 H   0  0  0  0  0  0  0  0  0  0  0  0
  144.1120   73.7110  220.4050 C   0  0  0  0  0  0  0  0  0  0  0  0
  144.3711   73.9338  221.4506 H   0  0  0  0  0  0  0  0  0  0  0  0
  143.7167   74.6083  219.9065 H   0  0  0  0  0  0  0  0  0  0  0  0
  141.0600   73.9700  220.7080 N   0  0  0  0  0  0  0  0  0  0  0  0
  139.8830   74.2120  221.3390 C   0  0  0  0  0  0  0  0  0  0  0  0
  139.1650   75.2520  221.0280 N   0  0  0  0  0  0  0  0  0  0  0  0
  139.7110   76.5340  220.5850 C   0  0  0  0  0  0  0  0  0  0  0  0
  139.8214   76.5225  219.4906 H   0  0  0  0  0  0  0  0  0  0  0  0
  139.0239   77.3384  220.8865 H   0  0  0  0  0  0  0  0  0  0  0  0
  141.0790   76.7810  221.2280 C   0  0  0  0  0  0  0  0  0  0  0  0
  141.5676   75.8105  221.3993 H   0  0  0  0  0  0  0  0  0  0  0  0
  141.6596   77.4134  220.5403 H   0  0  0  0  0  0  0  0  0  0  0  0
  140.9790   77.5260  222.5720 C   0  0  0  0  0  0  0  0  0  0  0  0
  139.9194   77.6152  222.8536 H   0  0  0  0  0  0  0  0  0  0  0  0
  141.5372   76.9532  223.3273 H   0  0  0  0  0  0  0  0  0  0  0  0
  141.5690   78.8790  222.4850 N   0  0  0  0  0  0  0  0  0  0  0  0
  140.7020   79.8160  221.7460 C   0  0  0  0  0  0  0  0  0  0  0  0
  140.4846   79.4048  220.7492 H   0  0  0  0  0  0  0  0  0  0  0  0
  139.7619   79.9572  222.2994 H   0  0  0  0  0  0  0  0  0  0  0  0
  141.4170   81.1750  221.5960 C   0  0  0  0  0  0  0  0  0  0  0  0
  141.7466   81.2864  220.5525 H   0  0  0  0  0  0  0  0  0  0  0  0
  140.7024   81.9609  221.8817 H   0  0  0  0  0  0  0  0  0  0  0  0
  142.5480   81.2930  222.4450 O   0  0  0  0  0  0  0  0  0  0  0  0
  142.2000   80.9210  223.7610 C   0  0  0  0  0  0  0  0  0  0  0  0
  143.0460   81.1315  224.4318 H   0  0  0  0  0  0  0  0  0  0  0  0
  141.3161   81.4980  224.0705 H   0  0  0  0  0  0  0  0  0  0  0  0
  141.8610   79.4170  223.8290 C   0  0  0  0  0  0  0  0  0  0  0  0
  142.7174   78.8742  224.2555 H   0  0  0  0  0  0  0  0  0  0  0  0
  140.9693   79.2869  224.4599 H   0  0  0  0  0  0  0  0  0  0  0  0
  139.4610   73.3720  222.3200 N   0  0  0  0  0  0  0  0  0  0  0  0
  138.5310   73.5370  222.7660 H   0  0  0  0  0  0  0  0  0  0  0  0
  138.7120   70.4210  223.4700 C   0  0  0  0  0  0  0  0  0  0  0  0
  138.4313   70.4351  222.4065 H   0  0  0  0  0  0  0  0  0  0  0  0
  137.8333   70.6834  224.0774 H   0  0  0  0  0  0  0  0  0  0  0  0
  139.2070   69.0280  223.8510 C   0  0  0  0  0  0  0  0  0  0  0  0
  139.9530   68.6985  223.1128 H   0  0  0  0  0  0  0  0  0  0  0  0
  138.3449   68.3450  223.8647 H   0  0  0  0  0  0  0  0  0  0  0  0
  1  2  1  0
  2  3  2  0
  3  4  1  0
  3  5  1  0
  5  6  1  0
  5  7  2  0
  7  8  1  0
  8  9  2  0
  9 10  1  0
  8 11  1  0
 11 12  1  0
 11 13  1  0
 11 14  1  0
 14 15  1  0
 15 16  2  0
 16 17  1  0
 17 18  1  0
 18 19  1  0
 19 20  1  0
 19 21  1  0
 19 22  1  0
 22 23  1  0
 22 24  1  0
 22 25  1  0
 25 26  1  0
 25 27  1  0
 27 28  1  0
 27 29  1  0
 27 30  1  0
 30 31  1  0
 30 32  1  0
 17 33  2  0
 33 34  1  0
 34 35  2  0
 35 36  1  0
 36 37  1  0
 36 38  1  0
 36 39  1  0
 39 40  1  0
 39 41  1  0
 39 42  1  0
 42 43  1  0
 42 44  1  0
 42 45  1  0
 45 46  1  0
 46 47  1  0
 46 48  1  0
 46 49  1  0
 49 50  1  0
 49 51  1  0
 49 52  1  0
 52 53  1  0
 53 54  1  0
 53 55  1  0
 53 56  1  0
 56 57  1  0
 56 58  1  0
 34 59  1  0
 59 60  1  0
 14 61  1  0
 61 62  1  0
 61 63  1  0
 61 64  1  0
 64 65  1  0
 64 66  1  0
  9  2  1  0
 59 15  1  0
 64  7  1  0
 30 18  1  0
 56 45  1  0
M  END
>  <UniqueID>  (43) 
727

>  <SMILES>  (43) 
c1ccc2c(c1)CCN(c1nc(N3CCNCC3)n/c(=N\CCCN3CCOCC3)[nH]1)C2

>  <Energy>  (43) 
83.7077518671416

>  <Genealogy>  (43) 
c1ccc2c(c1)CCN(c1nc(N3CCNCC3)nc(=NCCCN3CCOCC3)[nH]1)C2 (tautomer)
c1ccc2c(c1)CCN(c1nc(N3CCNCC3)n/c(=N\CCCN3CCOCC3)[nH]1)C2 (cis-trans isomerization)
c1ccc2c(c1)CCN(c1nc(N3CCNCC3)n/c(=N\CCCN3CCOCC3)[nH]1)C2 (3D coordinates assigned)
c1ccc2c(c1)CCN(c1nc(N3CCNCC3)n/c(=N\CCCN3CCOCC3)[nH]1)C2 (nonaromatic ring conformer: 83.7077518671416 kcal/mol)

>  <smiles>  (43) 
c1ccc2c(c1)CCN(c1nc(NCCCN3CCOCC3)nc(N3CCNCC3)n1)C2

>  <score_type>  (43) 
oracle

>  <origin>  (43) 
autodockgpu

>  <m_score__min__energy>  (43) 
-9.3100000000000005

>  <m_primary>  (43) 
energy

>  <meeko>  (43) 
{"free_energy": -8.9, "intermolecular_energy": -10.99, "internal_energy": -0.77, "cluster_size": 8, "cluster_id": 2, "rank_in_cluster": 7}

>  <energy>  (43) 
-9.1

>  <cluster_rmsd>  (43) 
0.97

>  <rmsd>  (43) 
271.71

>  <cluster>  (43) 
1

$$$$
RYCKWQXGCGPPJB-JLFMESFVNA-N
     RDKit          3D

 66 70  0  0  0  0  0  0  0  0999 V2000
  141.0428   68.7037  228.5629 H   0  0  0  0  0  0  0  0  0  0  0  0
  140.6600   68.7870  227.5350 C   0  0  0  0  0  0  0  0  0  0  0  0
  140.2560   67.6420  226.8470 C   0  0  0  0  0  0  0  0  0  0  0  0
  140.3268   66.6568  227.3311 H   0  0  0  0  0  0  0  0  0  0  0  0
  139.7620   67.7450  225.5450 C   0  0  0  0  0  0  0  0  0  0  0  0
  139.4514   66.8382  225.0053 H   0  0  0  0  0  0  0  0  0  0  0  0
  139.6590   68.9980  224.9200 C   0  0  0  0  0  0  0  0  0  0  0  0
  140.0980   70.1560  225.6070 C   0  0  0  0  0  0  0  0  0  0  0  0
  140.5790   70.0390  226.9200 C   0  0  0  0  0  0  0  0  0  0  0  0
  140.8943   70.9388  227.4687 H   0  0  0  0  0  0  0  0  0  0  0  0
  140.0160   71.5280  224.9780 C   0  0  0  0  0  0  0  0  0  0  0  0
  140.9862   72.0331  225.0948 H   0  0  0  0  0  0  0  0  0  0  0  0
  139.2174   72.0915  225.4827 H   0  0  0  0  0  0  0  0  0  0  0  0
  139.6900   71.4470  223.5510 N   0  0  0  0  0  0  0  0  0  0  0  0
  140.2030   72.4340  222.6340 C   0  0  0  0  0  0  0  0  0  0  0  0
  141.3810   72.2070  221.9930 N   0  0  0  0  0  0  0  0  0  0  0  0
  141.8710   73.1050  221.1000 C   0  0  0  0  0  0  0  0  0  0  0  0
  143.1210   72.8640  220.4240 N   0  0  0  0  0  0  0  0  0  0  0  0
  143.2580   71.7570  219.4650 C   0  0  0  0  0  0  0  0  0  0  0  0
  142.4980   70.9947  219.6914 H   0  0  0  0  0  0  0  0  0  0  0  0
  143.1222   72.1652  218.4526 H   0  0  0  0  0  0  0  0  0  0  0  0
  144.6590   71.1020  219.5330 C   0  0  0  0  0  0  0  0  0  0  0  0
  144.5896   70.2084  220.1707 H   0  0  0  0  0  0  0  0  0  0  0  0
  144.9460   70.8706  218.4966 H   0  0  0  0  0  0  0  0  0  0  0  0
  145.7180   71.9740  220.0760 N   0  0  0  0  0  0  0  0  0  0  0  0
  145.7720   71.8350  221.1130 H   0  0  0  0  0  0  0  0  0  0  0  0
  145.4570   73.3910  219.8100 C   0  0  0  0  0  0  0  0  0  0  0  0
  146.3200   73.9890  220.1381 H   0  0  0  0  0  0  0  0  0  0  0  0
  145.2951   73.5339  218.7314 H   0  0  0  0  0  0  0  0  0  0  0  0
  144.2080   73.8410  220.5720 C   0  0  0  0  0  0  0  0  0  0  0  0
  144.4554   73.9452  221.6388 H   0  0  0  0  0  0  0  0  0  0  0  0
  143.8729   74.8037  220.1586 H   0  0  0  0  0  0  0  0  0  0  0  0
  141.1700   74.2390  220.8490 N   0  0  0  0  0  0  0  0  0  0  0  0
  139.9930   74.4830  221.4810 C   0  0  0  0  0  0  0  0  0  0  0  0
  139.3400   75.5870  221.2630 N   0  0  0  0  0  0  0  0  0  0  0  0
  139.2350   76.6900  222.2180 C   0  0  0  0  0  0  0  0  0  0  0  0
  139.4840   76.3232  223.2247 H   0  0  0  0  0  0  0  0  0  0  0  0
  139.9344   77.4862  221.9231 H   0  0  0  0  0  0  0  0  0  0  0  0
  137.8110   77.2550  222.2240 C   0  0  0  0  0  0  0  0  0  0  0  0
  137.5039   77.4238  223.2667 H   0  0  0  0  0  0  0  0  0  0  0  0
  137.8228   78.1911  221.6464 H   0  0  0  0  0  0  0  0  0  0  0  0
  136.7940   76.3110  221.5580 C   0  0  0  0  0  0  0  0  0  0  0  0
  135.7878   76.7452  221.6527 H   0  0  0  0  0  0  0  0  0  0  0  0
  137.0720   76.1947  220.5001 H   0  0  0  0  0  0  0  0  0  0  0  0
  136.8020   74.9740  222.1900 N   0  0  0  0  0  0  0  0  0  0  0  0
  135.7140   74.8200  223.1730 C   0  0  0  0  0  0  0  0  0  0  0  0
  135.7810   75.6229  223.9219 H   0  0  0  0  0  0  0  0  0  0  0  0
  134.7444   74.8778  222.6567 H   0  0  0  0  0  0  0  0  0  0  0  0
  135.8400   73.4510  223.8750 C   0  0  0  0  0  0  0  0  0  0  0  0
  136.2024   73.6130  224.9009 H   0  0  0  0  0  0  0  0  0  0  0  0
  134.8465   72.9789  223.8660 H   0  0  0  0  0  0  0  0  0  0  0  0
  136.7380   72.5770  223.2080 O   0  0  0  0  0  0  0  0  0  0  0  0
  136.4340   72.5390  221.8300 C   0  0  0  0  0  0  0  0  0  0  0  0
  137.0528   71.7701  221.3443 H   0  0  0  0  0  0  0  0  0  0  0  0
  135.3669   72.3011  221.7084 H   0  0  0  0  0  0  0  0  0  0  0  0
  136.7170   73.9070  221.1740 C   0  0  0  0  0  0  0  0  0  0  0  0
  137.6704   73.8536  220.6280 H   0  0  0  0  0  0  0  0  0  0  0  0
  135.8914   74.1431  220.4865 H   0  0  0  0  0  0  0  0  0  0  0  0
  139.5040   73.5740  222.3650 N   0  0  0  0  0  0  0  0  0  0  0  0
  138.5740   73.7460  222.8090 H   0  0  0  0  0  0  0  0  0  0  0  0
  138.6720   70.4720  223.1490 C   0  0  0  0  0  0  0  0  0  0  0  0
  138.4979   70.5453  222.0653 H   0  0  0  0  0  0  0  0  0  0  0  0
  137.7300   70.6763  223.6791 H   0  0  0  0  0  0  0  0  0  0  0  0
  139.1670   69.0700  223.4950 C   0  0  0  0  0  0  0  0  0  0  0  0
  139.9916   68.8038  222.8174 H   0  0  0  0  0  0  0  0  0  0  0  0
  138.3279   68.3678  223.3816 H   0  0  0  0  0  0  0  0  0  0  0  0
  1  2  1  0
  2  3  2  0
  3  4  1  0
  3  5  1  0
  5  6  1  0
  5  7  2  0
  7  8  1  0
  8  9  2  0
  9 10  1  0
  8 11  1  0
 11 12  1  0
 11 13  1  0
 11 14  1  0
 14 15  1  0
 15 16  2  0
 16 17  1  0
 17 18  1  0
 18 19  1  0
 19 20  1  0
 19 21  1  0
 19 22  1  0
 22 23  1  0
 22 24  1  0
 22 25  1  0
 25 26  1  0
 25 27  1  0
 27 28  1  0
 27 29  1  0
 27 30  1  0
 30 31  1  0
 30 32  1  0
 17 33  2  0
 33 34  1  0
 34 35  2  0
 35 36  1  0
 36 37  1  0
 36 38  1  0
 36 39  1  0
 39 40  1  0
 39 41  1  0
 39 42  1  0
 42 43  1  0
 42 44  1  0
 42 45  1  0
 45 46  1  0
 46 47  1  0
 46 48  1  0
 46 49  1  0
 49 50  1  0
 49 51  1  0
 49 52  1  0
 52 53  1  0
 53 54  1  0
 53 55  1  0
 53 56  1  0
 56 57  1  0
 56 58  1  0
 34 59  1  0
 59 60  1  0
 14 61  1  0
 61 62  1  0
 61 63  1  0
 61 64  1  0
 64 65  1  0
 64 66  1  0
  9  2  1  0
 59 15  1  0
 64  7  1  0
 30 18  1  0
 56 45  1  0
M  END
>  <UniqueID>  (44) 
727

>  <SMILES>  (44) 
c1ccc2c(c1)CCN(c1nc(N3CCNCC3)n/c(=N\CCCN3CCOCC3)[nH]1)C2

>  <Energy>  (44) 
83.7077518671416

>  <Genealogy>  (44) 
c1ccc2c(c1)CCN(c1nc(N3CCNCC3)nc(=NCCCN3CCOCC3)[nH]1)C2 (tautomer)
c1ccc2c(c1)CCN(c1nc(N3CCNCC3)n/c(=N\CCCN3CCOCC3)[nH]1)C2 (cis-trans isomerization)
c1ccc2c(c1)CCN(c1nc(N3CCNCC3)n/c(=N\CCCN3CCOCC3)[nH]1)C2 (3D coordinates assigned)
c1ccc2c(c1)CCN(c1nc(N3CCNCC3)n/c(=N\CCCN3CCOCC3)[nH]1)C2 (nonaromatic ring conformer: 83.7077518671416 kcal/mol)

>  <smiles>  (44) 
c1ccc2c(c1)CCN(c1nc(NCCCN3CCOCC3)nc(N3CCNCC3)n1)C2

>  <score_type>  (44) 
oracle

>  <origin>  (44) 
autodockgpu

>  <m_score__min__energy>  (44) 
-9.3100000000000005

>  <m_primary>  (44) 
energy

>  <meeko>  (44) 
{"free_energy": -7.11, "intermolecular_energy": -9.2, "internal_energy": -2.57, "cluster_size": 5, "cluster_id": 3, "rank_in_cluster": 4}

>  <energy>  (44) 
-9.03

>  <cluster_rmsd>  (44) 
1.31

>  <rmsd>  (44) 
271.68

>  <cluster>  (44) 
1

$$$$
RYCKWQXGCGPPJB-JLFMESFVNA-N
     RDKit          3D

 66 70  0  0  0  0  0  0  0  0999 V2000
  141.2717   68.5988  228.4426 H   0  0  0  0  0  0  0  0  0  0  0  0
  140.8200   68.7120  227.4460 C   0  0  0  0  0  0  0  0  0  0  0  0
  140.3160   67.5960  226.7790 C   0  0  0  0  0  0  0  0  0  0  0  0
  140.3775   66.6026  227.2473 H   0  0  0  0  0  0  0  0  0  0  0  0
  139.7330   67.7370  225.5170 C   0  0  0  0  0  0  0  0  0  0  0  0
  139.3428   66.8517  224.9935 H   0  0  0  0  0  0  0  0  0  0  0  0
  139.6420   69.0000  224.9130 C   0  0  0  0  0  0  0  0  0  0  0  0
  140.1820   70.1300  225.5770 C   0  0  0  0  0  0  0  0  0  0  0  0
  140.7520   69.9740  226.8500 C   0  0  0  0  0  0  0  0  0  0  0  0
  141.1480   70.8514  227.3823 H   0  0  0  0  0  0  0  0  0  0  0  0
  140.1170   71.5120  224.9680 C   0  0  0  0  0  0  0  0  0  0  0  0
  141.1152   71.9716  225.0175 H   0  0  0  0  0  0  0  0  0  0  0  0
  139.3842   72.1047  225.5351 H   0  0  0  0  0  0  0  0  0  0  0  0
  139.6840   71.4630  223.5680 N   0  0  0  0  0  0  0  0  0  0  0  0
  140.1730   72.4370  222.6260 C   0  0  0  0  0  0  0  0  0  0  0  0
  141.3530   72.2190  221.9860 N   0  0  0  0  0  0  0  0  0  0  0  0
  141.8210   73.1050  221.0690 C   0  0  0  0  0  0  0  0  0  0  0  0
  143.0740   72.8740  220.3940 N   0  0  0  0  0  0  0  0  0  0  0  0
  143.2340   71.7390  219.4710 C   0  0  0  0  0  0  0  0  0  0  0  0
  142.4950   70.9655  219.7272 H   0  0  0  0  0  0  0  0  0  0  0  0
  143.0821   72.1091  218.4463 H   0  0  0  0  0  0  0  0  0  0  0  0
  144.6520   71.1230  219.5530 C   0  0  0  0  0  0  0  0  0  0  0  0
  144.6087   70.2500  220.2208 H   0  0  0  0  0  0  0  0  0  0  0  0
  144.9397   70.8647  218.5232 H   0  0  0  0  0  0  0  0  0  0  0  0
  145.6910   72.0390  220.0600 N   0  0  0  0  0  0  0  0  0  0  0  0
  145.7540   71.9360  221.1010 H   0  0  0  0  0  0  0  0  0  0  0  0
  145.3920   73.4390  219.7500 C   0  0  0  0  0  0  0  0  0  0  0  0
  146.2410   74.0692  220.0534 H   0  0  0  0  0  0  0  0  0  0  0  0
  145.2206   73.5421  218.6683 H   0  0  0  0  0  0  0  0  0  0  0  0
  144.1360   73.8820  220.5040 C   0  0  0  0  0  0  0  0  0  0  0  0
  144.3859   74.0271  221.5654 H   0  0  0  0  0  0  0  0  0  0  0  0
  143.7746   74.8220  220.0615 H   0  0  0  0  0  0  0  0  0  0  0  0
  141.0950   74.2170  220.7920 N   0  0  0  0  0  0  0  0  0  0  0  0
  139.9160   74.4520  221.4220 C   0  0  0  0  0  0  0  0  0  0  0  0
  139.2390   75.5370  221.1800 N   0  0  0  0  0  0  0  0  0  0  0  0
  139.4500   76.8150  221.8590 C   0  0  0  0  0  0  0  0  0  0  0  0
  140.3053   76.7245  222.5447 H   0  0  0  0  0  0  0  0  0  0  0  0
  139.6507   77.5910  221.1056 H   0  0  0  0  0  0  0  0  0  0  0  0
  138.2020   77.2070  222.6570 C   0  0  0  0  0  0  0  0  0  0  0  0
  138.3398   76.8934  223.7023 H   0  0  0  0  0  0  0  0  0  0  0  0
  138.0820   78.2971  222.5718 H   0  0  0  0  0  0  0  0  0  0  0  0
  136.9190   76.5540  222.1120 C   0  0  0  0  0  0  0  0  0  0  0  0
  136.0463   77.0814  222.5247 H   0  0  0  0  0  0  0  0  0  0  0  0
  136.9354   76.6238  221.0143 H   0  0  0  0  0  0  0  0  0  0  0  0
  136.8380   75.1260  222.4850 N   0  0  0  0  0  0  0  0  0  0  0  0
  135.7880   74.8740  223.4900 C   0  0  0  0  0  0  0  0  0  0  0  0
  135.9616   75.5124  224.3688 H   0  0  0  0  0  0  0  0  0  0  0  0
  134.8040   75.1047  223.0559 H   0  0  0  0  0  0  0  0  0  0  0  0
  135.8250   73.3910  223.9170 C   0  0  0  0  0  0  0  0  0  0  0  0
  136.2488   73.3263  224.9300 H   0  0  0  0  0  0  0  0  0  0  0  0
  134.7942   73.0085  223.8839 H   0  0  0  0  0  0  0  0  0  0  0  0
  136.6090   72.5920  223.0440 O   0  0  0  0  0  0  0  0  0  0  0  0
  136.2370   72.8400  221.7050 C   0  0  0  0  0  0  0  0  0  0  0  0
  136.7604   72.1307  221.0471 H   0  0  0  0  0  0  0  0  0  0  0  0
  135.1483   72.7145  221.6103 H   0  0  0  0  0  0  0  0  0  0  0  0
  136.6090   74.2800  221.2960 C   0  0  0  0  0  0  0  0  0  0  0  0
  137.5264   74.2560  220.6896 H   0  0  0  0  0  0  0  0  0  0  0  0
  135.7758   74.7063  220.7180 H   0  0  0  0  0  0  0  0  0  0  0  0
  139.4490   73.5550  222.3310 N   0  0  0  0  0  0  0  0  0  0  0  0
  138.5170   73.7190  222.7740 H   0  0  0  0  0  0  0  0  0  0  0  0
  138.5970   70.5390  223.2330 C   0  0  0  0  0  0  0  0  0  0  0  0
  138.3482   70.6333  222.1657 H   0  0  0  0  0  0  0  0  0  0  0  0
  137.7066   70.7784  223.8329 H   0  0  0  0  0  0  0  0  0  0  0  0
  139.0510   69.1120  223.5290 C   0  0  0  0  0  0  0  0  0  0  0  0
  139.8107   68.8173  222.7901 H   0  0  0  0  0  0  0  0  0  0  0  0
  138.1744   68.4500  223.4715 H   0  0  0  0  0  0  0  0  0  0  0  0
  1  2  1  0
  2  3  2  0
  3  4  1  0
  3  5  1  0
  5  6  1  0
  5  7  2  0
  7  8  1  0
  8  9  2  0
  9 10  1  0
  8 11  1  0
 11 12  1  0
 11 13  1  0
 11 14  1  0
 14 15  1  0
 15 16  2  0
 16 17  1  0
 17 18  1  0
 18 19  1  0
 19 20  1  0
 19 21  1  0
 19 22  1  0
 22 23  1  0
 22 24  1  0
 22 25  1  0
 25 26  1  0
 25 27  1  0
 27 28  1  0
 27 29  1  0
 27 30  1  0
 30 31  1  0
 30 32  1  0
 17 33  2  0
 33 34  1  0
 34 35  2  0
 35 36  1  0
 36 37  1  0
 36 38  1  0
 36 39  1  0
 39 40  1  0
 39 41  1  0
 39 42  1  0
 42 43  1  0
 42 44  1  0
 42 45  1  0
 45 46  1  0
 46 47  1  0
 46 48  1  0
 46 49  1  0
 49 50  1  0
 49 51  1  0
 49 52  1  0
 52 53  1  0
 53 54  1  0
 53 55  1  0
 53 56  1  0
 56 57  1  0
 56 58  1  0
 34 59  1  0
 59 60  1  0
 14 61  1  0
 61 62  1  0
 61 63  1  0
 61 64  1  0
 64 65  1  0
 64 66  1  0
  9  2  1  0
 59 15  1  0
 64  7  1  0
 30 18  1  0
 56 45  1  0
M  END
>  <UniqueID>  (45) 
727

>  <SMILES>  (45) 
c1ccc2c(c1)CCN(c1nc(N3CCNCC3)n/c(=N\CCCN3CCOCC3)[nH]1)C2

>  <Energy>  (45) 
83.7077518671416

>  <Genealogy>  (45) 
c1ccc2c(c1)CCN(c1nc(N3CCNCC3)nc(=NCCCN3CCOCC3)[nH]1)C2 (tautomer)
c1ccc2c(c1)CCN(c1nc(N3CCNCC3)n/c(=N\CCCN3CCOCC3)[nH]1)C2 (cis-trans isomerization)
c1ccc2c(c1)CCN(c1nc(N3CCNCC3)n/c(=N\CCCN3CCOCC3)[nH]1)C2 (3D coordinates assigned)
c1ccc2c(c1)CCN(c1nc(N3CCNCC3)n/c(=N\CCCN3CCOCC3)[nH]1)C2 (nonaromatic ring conformer: 83.7077518671416 kcal/mol)

>  <smiles>  (45) 
c1ccc2c(c1)CCN(c1nc(NCCCN3CCOCC3)nc(N3CCNCC3)n1)C2

>  <score_type>  (45) 
oracle

>  <origin>  (45) 
autodockgpu

>  <m_score__min__energy>  (45) 
-9.3100000000000005

>  <m_primary>  (45) 
energy

>  <meeko>  (45) 
{"free_energy": -7.3, "intermolecular_energy": -9.39, "internal_energy": -2.53, "cluster_size": 5, "cluster_id": 3, "rank_in_cluster": 1}

>  <energy>  (45) 
-9.0

>  <cluster_rmsd>  (45) 
1.09

>  <rmsd>  (45) 
271.64

>  <cluster>  (45) 
1

$$$$
RYCKWQXGCGPPJB-JLFMESFVNA-N
     RDKit          3D

 66 70  0  0  0  0  0  0  0  0999 V2000
  142.1437   81.5163  223.0088 H   0  0  0  0  0  0  0  0  0  0  0  0
  141.4410   80.6730  222.9380 C   0  0  0  0  0  0  0  0  0  0  0  0
  140.1880   80.7580  223.5440 C   0  0  0  0  0  0  0  0  0  0  0  0
  139.9062   81.6661  224.0971 H   0  0  0  0  0  0  0  0  0  0  0  0
  139.2900   79.6920  223.4500 C   0  0  0  0  0  0  0  0  0  0  0  0
  138.3057   79.7620  223.9361 H   0  0  0  0  0  0  0  0  0  0  0  0
  139.6360   78.5320  222.7390 C   0  0  0  0  0  0  0  0  0  0  0  0
  140.9200   78.4340  222.1490 C   0  0  0  0  0  0  0  0  0  0  0  0
  141.8050   79.5180  222.2410 C   0  0  0  0  0  0  0  0  0  0  0  0
  142.7929   79.4585  221.7609 H   0  0  0  0  0  0  0  0  0  0  0  0
  141.3450   77.2050  221.3790 C   0  0  0  0  0  0  0  0  0  0  0  0
  142.3343   76.8836  221.7367 H   0  0  0  0  0  0  0  0  0  0  0  0
  141.3794   77.4625  220.3101 H   0  0  0  0  0  0  0  0  0  0  0  0
  140.3940   76.1040  221.5560 N   0  0  0  0  0  0  0  0  0  0  0  0
  140.8560   74.7380  221.5370 C   0  0  0  0  0  0  0  0  0  0  0  0
  142.0030   74.4270  220.8770 N   0  0  0  0  0  0  0  0  0  0  0  0
  142.4790   73.1540  220.8720 C   0  0  0  0  0  0  0  0  0  0  0  0
  143.6930   72.8250  220.1680 N   0  0  0  0  0  0  0  0  0  0  0  0
  144.9710   72.7010  220.8880 C   0  0  0  0  0  0  0  0  0  0  0  0
  144.9114   73.2813  221.8206 H   0  0  0  0  0  0  0  0  0  0  0  0
  145.1434   71.6344  221.0945 H   0  0  0  0  0  0  0  0  0  0  0  0
  146.1610   73.2250  220.0480 C   0  0  0  0  0  0  0  0  0  0  0  0
  146.3739   74.2576  220.3617 H   0  0  0  0  0  0  0  0  0  0  0  0
  146.9990   72.5364  220.2316 H   0  0  0  0  0  0  0  0  0  0  0  0
  145.9320   73.2250  218.5910 N   0  0  0  0  0  0  0  0  0  0  0  0
  145.5270   74.1510  218.3120 H   0  0  0  0  0  0  0  0  0  0  0  0
  145.0030   72.1690  218.1780 C   0  0  0  0  0  0  0  0  0  0  0  0
  144.9463   72.1418  217.0798 H   0  0  0  0  0  0  0  0  0  0  0  0
  145.3637   71.2007  218.5552 H   0  0  0  0  0  0  0  0  0  0  0  0
  143.6130   72.4470  218.7510 C   0  0  0  0  0  0  0  0  0  0  0  0
  143.1486   73.2682  218.1854 H   0  0  0  0  0  0  0  0  0  0  0  0
  143.0098   71.5310  218.6665 H   0  0  0  0  0  0  0  0  0  0  0  0
  141.7970   72.1900  221.5380 N   0  0  0  0  0  0  0  0  0  0  0  0
  140.6490   72.4820  222.2020 C   0  0  0  0  0  0  0  0  0  0  0  0
  139.9790   71.5490  222.8110 N   0  0  0  0  0  0  0  0  0  0  0  0
  139.1510   70.5480  222.1380 C   0  0  0  0  0  0  0  0  0  0  0  0
  138.2749   71.0420  221.6925 H   0  0  0  0  0  0  0  0  0  0  0  0
  139.7477   70.0591  221.3538 H   0  0  0  0  0  0  0  0  0  0  0  0
  138.6790   69.4880  223.1380 C   0  0  0  0  0  0  0  0  0  0  0  0
  137.8531   68.9199  222.6849 H   0  0  0  0  0  0  0  0  0  0  0  0
  139.5392   68.8422  223.3680 H   0  0  0  0  0  0  0  0  0  0  0  0
  138.1880   70.0980  224.4640 C   0  0  0  0  0  0  0  0  0  0  0  0
  138.2943   71.1918  224.4155 H   0  0  0  0  0  0  0  0  0  0  0  0
  137.1351   69.8133  224.6064 H   0  0  0  0  0  0  0  0  0  0  0  0
  138.9660   69.5900  225.6140 N   0  0  0  0  0  0  0  0  0  0  0  0
  139.5150   68.2440  225.3610 C   0  0  0  0  0  0  0  0  0  0  0  0
  138.6969   67.5595  225.0925 H   0  0  0  0  0  0  0  0  0  0  0  0
  140.2393   68.2944  224.5346 H   0  0  0  0  0  0  0  0  0  0  0  0
  140.2220   67.7260  226.6310 C   0  0  0  0  0  0  0  0  0  0  0  0
  139.5961   66.9463  227.0897 H   0  0  0  0  0  0  0  0  0  0  0  0
  141.2037   67.3321  226.3291 H   0  0  0  0  0  0  0  0  0  0  0  0
  140.4450   68.7510  227.5870 O   0  0  0  0  0  0  0  0  0  0  0  0
  141.0400   69.8670  226.9610 C   0  0  0  0  0  0  0  0  0  0  0  0
  141.3212   70.6042  227.7275 H   0  0  0  0  0  0  0  0  0  0  0  0
  141.9313   69.5315  226.4106 H   0  0  0  0  0  0  0  0  0  0  0  0
  140.0580   70.5190  225.9670 C   0  0  0  0  0  0  0  0  0  0  0  0
  139.6280   71.4214  226.4261 H   0  0  0  0  0  0  0  0  0  0  0  0
  140.6080   70.7771  225.0500 H   0  0  0  0  0  0  0  0  0  0  0  0
  140.1860   73.7600  222.2110 N   0  0  0  0  0  0  0  0  0  0  0  0
  139.3290   73.9860  222.7660 H   0  0  0  0  0  0  0  0  0  0  0  0
  138.9670   76.4390  221.5340 C   0  0  0  0  0  0  0  0  0  0  0  0
  138.3704   75.5204  221.6354 H   0  0  0  0  0  0  0  0  0  0  0  0
  138.7138   76.9291  220.5823 H   0  0  0  0  0  0  0  0  0  0  0  0
  138.6620   77.3790  222.6970 C   0  0  0  0  0  0  0  0  0  0  0  0
  138.7310   76.8168  223.6400 H   0  0  0  0  0  0  0  0  0  0  0  0
  137.6488   77.7846  222.5597 H   0  0  0  0  0  0  0  0  0  0  0  0
  1  2  1  0
  2  3  2  0
  3  4  1  0
  3  5  1  0
  5  6  1  0
  5  7  2  0
  7  8  1  0
  8  9  2  0
  9 10  1  0
  8 11  1  0
 11 12  1  0
 11 13  1  0
 11 14  1  0
 14 15  1  0
 15 16  2  0
 16 17  1  0
 17 18  1  0
 18 19  1  0
 19 20  1  0
 19 21  1  0
 19 22  1  0
 22 23  1  0
 22 24  1  0
 22 25  1  0
 25 26  1  0
 25 27  1  0
 27 28  1  0
 27 29  1  0
 27 30  1  0
 30 31  1  0
 30 32  1  0
 17 33  2  0
 33 34  1  0
 34 35  2  0
 35 36  1  0
 36 37  1  0
 36 38  1  0
 36 39  1  0
 39 40  1  0
 39 41  1  0
 39 42  1  0
 42 43  1  0
 42 44  1  0
 42 45  1  0
 45 46  1  0
 46 47  1  0
 46 48  1  0
 46 49  1  0
 49 50  1  0
 49 51  1  0
 49 52  1  0
 52 53  1  0
 53 54  1  0
 53 55  1  0
 53 56  1  0
 56 57  1  0
 56 58  1  0
 34 59  1  0
 59 60  1  0
 14 61  1  0
 61 62  1  0
 61 63  1  0
 61 64  1  0
 64 65  1  0
 64 66  1  0
  9  2  1  0
 59 15  1  0
 64  7  1  0
 30 18  1  0
 56 45  1  0
M  END
>  <UniqueID>  (46) 
727

>  <SMILES>  (46) 
c1ccc2c(c1)CCN(c1nc(N3CCNCC3)n/c(=N\CCCN3CCOCC3)[nH]1)C2

>  <Energy>  (46) 
83.7077518671416

>  <Genealogy>  (46) 
c1ccc2c(c1)CCN(c1nc(N3CCNCC3)nc(=NCCCN3CCOCC3)[nH]1)C2 (tautomer)
c1ccc2c(c1)CCN(c1nc(N3CCNCC3)n/c(=N\CCCN3CCOCC3)[nH]1)C2 (cis-trans isomerization)
c1ccc2c(c1)CCN(c1nc(N3CCNCC3)n/c(=N\CCCN3CCOCC3)[nH]1)C2 (3D coordinates assigned)
c1ccc2c(c1)CCN(c1nc(N3CCNCC3)n/c(=N\CCCN3CCOCC3)[nH]1)C2 (nonaromatic ring conformer: 83.7077518671416 kcal/mol)

>  <smiles>  (46) 
c1ccc2c(c1)CCN(c1nc(NCCCN3CCOCC3)nc(N3CCNCC3)n1)C2

>  <score_type>  (46) 
oracle

>  <origin>  (46) 
autodockgpu

>  <m_score__min__energy>  (46) 
-9.3100000000000005

>  <m_primary>  (46) 
energy

>  <meeko>  (46) 
{"free_energy": -8.54, "intermolecular_energy": -10.63, "internal_energy": -0.81, "cluster_size": 7, "cluster_id": 1, "rank_in_cluster": 7}

>  <energy>  (46) 
-8.95

>  <cluster_rmsd>  (46) 
1.3

>  <rmsd>  (46) 
271.48

>  <cluster>  (46) 
1

$$$$
RYCKWQXGCGPPJB-JLFMESFVNA-N
     RDKit          3D

 66 70  0  0  0  0  0  0  0  0999 V2000
  141.5976   68.7269  228.5201 H   0  0  0  0  0  0  0  0  0  0  0  0
  141.1000   68.8250  227.5440 C   0  0  0  0  0  0  0  0  0  0  0  0
  140.5460   67.7030  226.9290 C   0  0  0  0  0  0  0  0  0  0  0  0
  140.6120   66.7200  227.4183 H   0  0  0  0  0  0  0  0  0  0  0  0
  139.9070   67.8250  225.6920 C   0  0  0  0  0  0  0  0  0  0  0  0
  139.4781   66.9350  225.2083 H   0  0  0  0  0  0  0  0  0  0  0  0
  139.8090   69.0760  225.0630 C   0  0  0  0  0  0  0  0  0  0  0  0
  140.3970   70.2110  225.6740 C   0  0  0  0  0  0  0  0  0  0  0  0
  141.0240   70.0740  226.9220 C   0  0  0  0  0  0  0  0  0  0  0  0
  141.4589   70.9564  227.4142 H   0  0  0  0  0  0  0  0  0  0  0  0
  140.3260   71.5790  225.0360 C   0  0  0  0  0  0  0  0  0  0  0  0
  141.3328   72.0220  225.0278 H   0  0  0  0  0  0  0  0  0  0  0  0
  139.6303   72.1971  225.6225 H   0  0  0  0  0  0  0  0  0  0  0  0
  139.8270   71.5060  223.6600 N   0  0  0  0  0  0  0  0  0  0  0  0
  140.2880   72.4500  222.6730 C   0  0  0  0  0  0  0  0  0  0  0  0
  141.4650   72.2280  222.0290 N   0  0  0  0  0  0  0  0  0  0  0  0
  141.9060   73.0840  221.0710 C   0  0  0  0  0  0  0  0  0  0  0  0
  143.1560   72.8490  220.3920 N   0  0  0  0  0  0  0  0  0  0  0  0
  143.3060   71.7220  219.4590 C   0  0  0  0  0  0  0  0  0  0  0  0
  142.5615   70.9519  219.7092 H   0  0  0  0  0  0  0  0  0  0  0  0
  143.1555   72.1028  218.4380 H   0  0  0  0  0  0  0  0  0  0  0  0
  144.7200   71.0940  219.5330 C   0  0  0  0  0  0  0  0  0  0  0  0
  144.6706   70.2145  220.1918 H   0  0  0  0  0  0  0  0  0  0  0  0
  145.0044   70.8445  218.5001 H   0  0  0  0  0  0  0  0  0  0  0  0
  145.7670   71.9960  220.0480 N   0  0  0  0  0  0  0  0  0  0  0  0
  145.8300   71.8830  221.0880 H   0  0  0  0  0  0  0  0  0  0  0  0
  145.4780   73.4020  219.7510 C   0  0  0  0  0  0  0  0  0  0  0  0
  146.3324   74.0229  220.0585 H   0  0  0  0  0  0  0  0  0  0  0  0
  145.3055   73.5160  218.6706 H   0  0  0  0  0  0  0  0  0  0  0  0
  144.2270   73.8480  220.5110 C   0  0  0  0  0  0  0  0  0  0  0  0
  144.4794   73.9804  221.5735 H   0  0  0  0  0  0  0  0  0  0  0  0
  143.8728   74.7955  220.0788 H   0  0  0  0  0  0  0  0  0  0  0  0
  141.1560   74.1700  220.7570 N   0  0  0  0  0  0  0  0  0  0  0  0
  139.9790   74.4080  221.3910 C   0  0  0  0  0  0  0  0  0  0  0  0
  139.2790   75.4690  221.1120 N   0  0  0  0  0  0  0  0  0  0  0  0
  138.5570   76.2690  222.1010 C   0  0  0  0  0  0  0  0  0  0  0  0
  137.5779   76.5566  221.6903 H   0  0  0  0  0  0  0  0  0  0  0  0
  138.4215   75.6716  223.0147 H   0  0  0  0  0  0  0  0  0  0  0  0
  139.3520   77.5330  222.4450 C   0  0  0  0  0  0  0  0  0  0  0  0
  139.1427   78.2986  221.6834 H   0  0  0  0  0  0  0  0  0  0  0  0
  139.0387   77.8604  223.4473 H   0  0  0  0  0  0  0  0  0  0  0  0
  140.8710   77.2850  222.4900 C   0  0  0  0  0  0  0  0  0  0  0  0
  141.1163   76.7337  223.4097 H   0  0  0  0  0  0  0  0  0  0  0  0
  141.1531   76.7044  221.5993 H   0  0  0  0  0  0  0  0  0  0  0  0
  141.6270   78.5560  222.4750 N   0  0  0  0  0  0  0  0  0  0  0  0
  140.9980   79.5640  221.6010 C   0  0  0  0  0  0  0  0  0  0  0  0
  140.8822   79.1495  220.5887 H   0  0  0  0  0  0  0  0  0  0  0  0
  140.0105   79.8319  222.0048 H   0  0  0  0  0  0  0  0  0  0  0  0
  141.8860   80.8250  221.5410 C   0  0  0  0  0  0  0  0  0  0  0  0
  142.3780   80.8634  220.5579 H   0  0  0  0  0  0  0  0  0  0  0  0
  141.2373   81.6984  221.7033 H   0  0  0  0  0  0  0  0  0  0  0  0
  142.8840   80.8360  222.5500 O   0  0  0  0  0  0  0  0  0  0  0  0
  142.3020   80.5500  223.8030 C   0  0  0  0  0  0  0  0  0  0  0  0
  143.0579   80.6812  224.5913 H   0  0  0  0  0  0  0  0  0  0  0  0
  141.4582   81.2363  223.9674 H   0  0  0  0  0  0  0  0  0  0  0  0
  141.7780   79.0990  223.8390 C   0  0  0  0  0  0  0  0  0  0  0  0
  142.4895   78.4736  224.3982 H   0  0  0  0  0  0  0  0  0  0  0  0
  140.7929   79.0947  224.3284 H   0  0  0  0  0  0  0  0  0  0  0  0
  139.5390   73.5410  222.3400 N   0  0  0  0  0  0  0  0  0  0  0  0
  138.6090   73.7050  222.7860 H   0  0  0  0  0  0  0  0  0  0  0  0
  138.7110   70.5940  223.3980 C   0  0  0  0  0  0  0  0  0  0  0  0
  138.4139   70.6682  222.3415 H   0  0  0  0  0  0  0  0  0  0  0  0
  137.8538   70.8625  224.0329 H   0  0  0  0  0  0  0  0  0  0  0  0
  139.1550   69.1670  223.7060 C   0  0  0  0  0  0  0  0  0  0  0  0
  139.8740   68.8423  222.9394 H   0  0  0  0  0  0  0  0  0  0  0  0
  138.2658   68.5194  223.7055 H   0  0  0  0  0  0  0  0  0  0  0  0
  1  2  1  0
  2  3  2  0
  3  4  1  0
  3  5  1  0
  5  6  1  0
  5  7  2  0
  7  8  1  0
  8  9  2  0
  9 10  1  0
  8 11  1  0
 11 12  1  0
 11 13  1  0
 11 14  1  0
 14 15  1  0
 15 16  2  0
 16 17  1  0
 17 18  1  0
 18 19  1  0
 19 20  1  0
 19 21  1  0
 19 22  1  0
 22 23  1  0
 22 24  1  0
 22 25  1  0
 25 26  1  0
 25 27  1  0
 27 28  1  0
 27 29  1  0
 27 30  1  0
 30 31  1  0
 30 32  1  0
 17 33  2  0
 33 34  1  0
 34 35  2  0
 35 36  1  0
 36 37  1  0
 36 38  1  0
 36 39  1  0
 39 40  1  0
 39 41  1  0
 39 42  1  0
 42 43  1  0
 42 44  1  0
 42 45  1  0
 45 46  1  0
 46 47  1  0
 46 48  1  0
 46 49  1  0
 49 50  1  0
 49 51  1  0
 49 52  1  0
 52 53  1  0
 53 54  1  0
 53 55  1  0
 53 56  1  0
 56 57  1  0
 56 58  1  0
 34 59  1  0
 59 60  1  0
 14 61  1  0
 61 62  1  0
 61 63  1  0
 61 64  1  0
 64 65  1  0
 64 66  1  0
  9  2  1  0
 59 15  1  0
 64  7  1  0
 30 18  1  0
 56 45  1  0
M  END
>  <UniqueID>  (47) 
727

>  <SMILES>  (47) 
c1ccc2c(c1)CCN(c1nc(N3CCNCC3)n/c(=N\CCCN3CCOCC3)[nH]1)C2

>  <Energy>  (47) 
83.7077518671416

>  <Genealogy>  (47) 
c1ccc2c(c1)CCN(c1nc(N3CCNCC3)nc(=NCCCN3CCOCC3)[nH]1)C2 (tautomer)
c1ccc2c(c1)CCN(c1nc(N3CCNCC3)n/c(=N\CCCN3CCOCC3)[nH]1)C2 (cis-trans isomerization)
c1ccc2c(c1)CCN(c1nc(N3CCNCC3)n/c(=N\CCCN3CCOCC3)[nH]1)C2 (3D coordinates assigned)
c1ccc2c(c1)CCN(c1nc(N3CCNCC3)n/c(=N\CCCN3CCOCC3)[nH]1)C2 (nonaromatic ring conformer: 83.7077518671416 kcal/mol)

>  <smiles>  (47) 
c1ccc2c(c1)CCN(c1nc(NCCCN3CCOCC3)nc(N3CCNCC3)n1)C2

>  <score_type>  (47) 
oracle

>  <origin>  (47) 
autodockgpu

>  <m_score__min__energy>  (47) 
-9.3100000000000005

>  <m_primary>  (47) 
energy

>  <meeko>  (47) 
{"free_energy": -9.13, "intermolecular_energy": -11.22, "internal_energy": -0.82, "cluster_size": 8, "cluster_id": 2, "rank_in_cluster": 2}

>  <energy>  (47) 
-8.54

>  <cluster_rmsd>  (47) 
0.79

>  <rmsd>  (47) 
271.15

>  <cluster>  (47) 
1

$$$$
RYCKWQXGCGPPJB-JLFMESFVNA-N
     RDKit          3D

 66 70  0  0  0  0  0  0  0  0999 V2000
  142.7395   81.7196  222.7288 H   0  0  0  0  0  0  0  0  0  0  0  0
  141.9780   80.9260  222.7460 C   0  0  0  0  0  0  0  0  0  0  0  0
  140.8150   81.0930  223.4980 C   0  0  0  0  0  0  0  0  0  0  0  0
  140.6636   82.0152  224.0782 H   0  0  0  0  0  0  0  0  0  0  0  0
  139.8420   80.0900  223.5150 C   0  0  0  0  0  0  0  0  0  0  0  0
  138.9299   80.2236  224.1152 H   0  0  0  0  0  0  0  0  0  0  0  0
  140.0210   78.9130  222.7710 C   0  0  0  0  0  0  0  0  0  0  0  0
  141.2160   78.7320  222.0320 C   0  0  0  0  0  0  0  0  0  0  0  0
  142.1770   79.7530  222.0150 C   0  0  0  0  0  0  0  0  0  0  0  0
  143.0947   79.6290  221.4213 H   0  0  0  0  0  0  0  0  0  0  0  0
  141.4620   77.4800  221.2200 C   0  0  0  0  0  0  0  0  0  0  0  0
  142.4628   77.0905  221.4581 H   0  0  0  0  0  0  0  0  0  0  0  0
  141.3862   77.7398  220.1538 H   0  0  0  0  0  0  0  0  0  0  0  0
  140.4660   76.4450  221.5130 N   0  0  0  0  0  0  0  0  0  0  0  0
  140.8300   75.0520  221.4430 C   0  0  0  0  0  0  0  0  0  0  0  0
  142.0120   74.6940  220.8760 N   0  0  0  0  0  0  0  0  0  0  0  0
  142.3940   73.3910  220.8280 C   0  0  0  0  0  0  0  0  0  0  0  0
  143.6470   73.0130  220.2230 N   0  0  0  0  0  0  0  0  0  0  0  0
  144.8870   72.9850  221.0150 C   0  0  0  0  0  0  0  0  0  0  0  0
  144.7719   73.6557  221.8793 H   0  0  0  0  0  0  0  0  0  0  0  0
  145.0615   71.9479  221.3374 H   0  0  0  0  0  0  0  0  0  0  0  0
  146.1130   73.4420  220.1870 C   0  0  0  0  0  0  0  0  0  0  0  0
  146.2966   74.5047  220.4039 H   0  0  0  0  0  0  0  0  0  0  0  0
  146.9487   72.7905  220.4822 H   0  0  0  0  0  0  0  0  0  0  0  0
  145.9600   73.2900  218.7270 N   0  0  0  0  0  0  0  0  0  0  0  0
  145.5580   74.1740  218.3350 H   0  0  0  0  0  0  0  0  0  0  0  0
  145.0660   72.1810  218.3790 C   0  0  0  0  0  0  0  0  0  0  0  0
  145.0658   72.0412  217.2879 H   0  0  0  0  0  0  0  0  0  0  0  0
  145.4190   71.2629  218.8714 H   0  0  0  0  0  0  0  0  0  0  0  0
  143.6440   72.4910  218.8510 C   0  0  0  0  0  0  0  0  0  0  0  0
  143.1984   73.2415  218.1816 H   0  0  0  0  0  0  0  0  0  0  0  0
  143.0577   71.5605  218.8314 H   0  0  0  0  0  0  0  0  0  0  0  0
  141.5810   72.4430  221.3560 N   0  0  0  0  0  0  0  0  0  0  0  0
  140.3950   72.7810  221.9240 C   0  0  0  0  0  0  0  0  0  0  0  0
  139.6020   71.8660  222.3990 N   0  0  0  0  0  0  0  0  0  0  0  0
  139.9940   70.8560  223.3800 C   0  0  0  0  0  0  0  0  0  0  0  0
  139.6914   69.8623  223.0180 H   0  0  0  0  0  0  0  0  0  0  0  0
  141.0852   70.8931  223.5141 H   0  0  0  0  0  0  0  0  0  0  0  0
  139.3180   71.1300  224.7270 C   0  0  0  0  0  0  0  0  0  0  0  0
  138.7986   72.0979  224.6693 H   0  0  0  0  0  0  0  0  0  0  0  0
  138.6190   70.3032  224.9214 H   0  0  0  0  0  0  0  0  0  0  0  0
  140.3180   71.1770  225.8970 C   0  0  0  0  0  0  0  0  0  0  0  0
  141.2462   71.6584  225.5553 H   0  0  0  0  0  0  0  0  0  0  0  0
  139.8619   71.7478  226.7193 H   0  0  0  0  0  0  0  0  0  0  0  0
  140.6340   69.8200  226.3920 N   0  0  0  0  0  0  0  0  0  0  0  0
  140.6380   69.7540  227.8650 C   0  0  0  0  0  0  0  0  0  0  0  0
  141.3380   70.5034  228.2629 H   0  0  0  0  0  0  0  0  0  0  0  0
  139.6251   69.9586  228.2421 H   0  0  0  0  0  0  0  0  0  0  0  0
  141.0790   68.3470  228.3200 C   0  0  0  0  0  0  0  0  0  0  0  0
  142.1022   68.4101  228.7189 H   0  0  0  0  0  0  0  0  0  0  0  0
  140.3663   68.0051  229.0849 H   0  0  0  0  0  0  0  0  0  0  0  0
  141.0610   67.4020  227.2620 O   0  0  0  0  0  0  0  0  0  0  0  0
  139.8280   67.4720  226.5780 C   0  0  0  0  0  0  0  0  0  0  0  0
  139.7760   66.6564  225.8417 H   0  0  0  0  0  0  0  0  0  0  0  0
  139.0110   67.3773  227.3084 H   0  0  0  0  0  0  0  0  0  0  0  0
  139.6890   68.8240  225.8480 C   0  0  0  0  0  0  0  0  0  0  0  0
  139.8973   68.6778  224.7778 H   0  0  0  0  0  0  0  0  0  0  0  0
  138.6646   69.1971  225.9944 H   0  0  0  0  0  0  0  0  0  0  0  0
  140.0260   74.0880  221.9790 N   0  0  0  0  0  0  0  0  0  0  0  0
  139.1360   74.3450  222.4620 H   0  0  0  0  0  0  0  0  0  0  0  0
  139.0730   76.8760  221.6610 C   0  0  0  0  0  0  0  0  0  0  0  0
  138.4320   75.9995  221.8367 H   0  0  0  0  0  0  0  0  0  0  0  0
  138.7415   77.3864  220.7447 H   0  0  0  0  0  0  0  0  0  0  0  0
  138.9740   77.8290  222.8480 C   0  0  0  0  0  0  0  0  0  0  0  0
  139.1165   77.2589  223.7779 H   0  0  0  0  0  0  0  0  0  0  0  0
  137.9817   78.3034  222.8300 H   0  0  0  0  0  0  0  0  0  0  0  0
  1  2  1  0
  2  3  2  0
  3  4  1  0
  3  5  1  0
  5  6  1  0
  5  7  2  0
  7  8  1  0
  8  9  2  0
  9 10  1  0
  8 11  1  0
 11 12  1  0
 11 13  1  0
 11 14  1  0
 14 15  1  0
 15 16  2  0
 16 17  1  0
 17 18  1  0
 18 19  1  0
 19 20  1  0
 19 21  1  0
 19 22  1  0
 22 23  1  0
 22 24  1  0
 22 25  1  0
 25 26  1  0
 25 27  1  0
 27 28  1  0
 27 29  1  0
 27 30  1  0
 30 31  1  0
 30 32  1  0
 17 33  2  0
 33 34  1  0
 34 35  2  0
 35 36  1  0
 36 37  1  0
 36 38  1  0
 36 39  1  0
 39 40  1  0
 39 41  1  0
 39 42  1  0
 42 43  1  0
 42 44  1  0
 42 45  1  0
 45 46  1  0
 46 47  1  0
 46 48  1  0
 46 49  1  0
 49 50  1  0
 49 51  1  0
 49 52  1  0
 52 53  1  0
 53 54  1  0
 53 55  1  0
 53 56  1  0
 56 57  1  0
 56 58  1  0
 34 59  1  0
 59 60  1  0
 14 61  1  0
 61 62  1  0
 61 63  1  0
 61 64  1  0
 64 65  1  0
 64 66  1  0
  9  2  1  0
 59 15  1  0
 64  7  1  0
 30 18  1  0
 56 45  1  0
M  END
>  <UniqueID>  (48) 
727

>  <SMILES>  (48) 
c1ccc2c(c1)CCN(c1nc(N3CCNCC3)n/c(=N\CCCN3CCOCC3)[nH]1)C2

>  <Energy>  (48) 
83.7077518671416

>  <Genealogy>  (48) 
c1ccc2c(c1)CCN(c1nc(N3CCNCC3)nc(=NCCCN3CCOCC3)[nH]1)C2 (tautomer)
c1ccc2c(c1)CCN(c1nc(N3CCNCC3)n/c(=N\CCCN3CCOCC3)[nH]1)C2 (cis-trans isomerization)
c1ccc2c(c1)CCN(c1nc(N3CCNCC3)n/c(=N\CCCN3CCOCC3)[nH]1)C2 (3D coordinates assigned)
c1ccc2c(c1)CCN(c1nc(N3CCNCC3)n/c(=N\CCCN3CCOCC3)[nH]1)C2 (nonaromatic ring conformer: 83.7077518671416 kcal/mol)

>  <smiles>  (48) 
c1ccc2c(c1)CCN(c1nc(NCCCN3CCOCC3)nc(N3CCNCC3)n1)C2

>  <score_type>  (48) 
oracle

>  <origin>  (48) 
autodockgpu

>  <m_score__min__energy>  (48) 
-9.3100000000000005

>  <m_primary>  (48) 
energy

>  <meeko>  (48) 
{"free_energy": -9.31, "intermolecular_energy": -11.39, "internal_energy": -0.68, "cluster_size": 7, "cluster_id": 1, "rank_in_cluster": 1}

>  <energy>  (48) 
-9.19

>  <cluster_rmsd>  (48) 
0.0

>  <rmsd>  (48) 
271.44

>  <cluster>  (48) 
2

$$$$
RYCKWQXGCGPPJB-JLFMESFVNA-N
     RDKit          3D

 66 70  0  0  0  0  0  0  0  0999 V2000
  140.8637   68.4720  228.3087 H   0  0  0  0  0  0  0  0  0  0  0  0
  140.5240   68.6330  227.2750 C   0  0  0  0  0  0  0  0  0  0  0  0
  140.0460   67.5590  226.5240 C   0  0  0  0  0  0  0  0  0  0  0  0
  140.0153   66.5513  226.9640 H   0  0  0  0  0  0  0  0  0  0  0  0
  139.6060   67.7620  225.2130 C   0  0  0  0  0  0  0  0  0  0  0  0
  139.2369   66.9105  224.6225 H   0  0  0  0  0  0  0  0  0  0  0  0
  139.6320   69.0450  224.6450 C   0  0  0  0  0  0  0  0  0  0  0  0
  140.1450   70.1290  225.3980 C   0  0  0  0  0  0  0  0  0  0  0  0
  140.5720   69.9120  226.7170 C   0  0  0  0  0  0  0  0  0  0  0  0
  140.9471   70.7553  227.3154 H   0  0  0  0  0  0  0  0  0  0  0  0
  140.2030   71.5300  224.8310 C   0  0  0  0  0  0  0  0  0  0  0  0
  141.2092   71.9419  224.9982 H   0  0  0  0  0  0  0  0  0  0  0  0
  139.4410   72.1396  225.3387 H   0  0  0  0  0  0  0  0  0  0  0  0
  139.9170   71.5400  223.3930 N   0  0  0  0  0  0  0  0  0  0  0  0
  140.5440   72.5170  222.5390 C   0  0  0  0  0  0  0  0  0  0  0  0
  141.7180   72.2180  221.9230 N   0  0  0  0  0  0  0  0  0  0  0  0
  142.3130   73.1080  221.0870 C   0  0  0  0  0  0  0  0  0  0  0  0
  143.5600   72.7890  220.4380 N   0  0  0  0  0  0  0  0  0  0  0  0
  144.8080   72.6920  221.2110 C   0  0  0  0  0  0  0  0  0  0  0  0
  144.7012   73.2813  222.1337 H   0  0  0  0  0  0  0  0  0  0  0  0
  144.9872   71.6303  221.4361 H   0  0  0  0  0  0  0  0  0  0  0  0
  146.0250   73.2250  220.4150 C   0  0  0  0  0  0  0  0  0  0  0  0
  146.2099   74.2639  220.7257 H   0  0  0  0  0  0  0  0  0  0  0  0
  146.8647   72.5513  220.6409 H   0  0  0  0  0  0  0  0  0  0  0  0
  145.8560   73.2060  218.9500 N   0  0  0  0  0  0  0  0  0  0  0  0
  145.4490   74.1220  218.6440 H   0  0  0  0  0  0  0  0  0  0  0  0
  144.9610   72.1310  218.5110 C   0  0  0  0  0  0  0  0  0  0  0  0
  144.9500   72.0912  217.4118 H   0  0  0  0  0  0  0  0  0  0  0  0
  145.3205   71.1724  218.9134 H   0  0  0  0  0  0  0  0  0  0  0  0
  143.5430   72.3940  219.0240 C   0  0  0  0  0  0  0  0  0  0  0  0
  143.0896   73.2015  218.4303 H   0  0  0  0  0  0  0  0  0  0  0  0
  142.9573   71.4681  218.9257 H   0  0  0  0  0  0  0  0  0  0  0  0
  141.7190   74.3080  220.8680 N   0  0  0  0  0  0  0  0  0  0  0  0
  140.5470   74.6250  221.4750 C   0  0  0  0  0  0  0  0  0  0  0  0
  139.9980   75.7900  221.2890 N   0  0  0  0  0  0  0  0  0  0  0  0
  139.7960   76.7890  222.3380 C   0  0  0  0  0  0  0  0  0  0  0  0
  139.7640   76.2864  223.3160 H   0  0  0  0  0  0  0  0  0  0  0  0
  140.6272   77.5089  222.3103 H   0  0  0  0  0  0  0  0  0  0  0  0
  138.4800   77.5400  222.1130 C   0  0  0  0  0  0  0  0  0  0  0  0
  138.5481   78.5234  222.6011 H   0  0  0  0  0  0  0  0  0  0  0  0
  138.3327   77.6343  221.0270 H   0  0  0  0  0  0  0  0  0  0  0  0
  137.2630   76.7900  222.6840 C   0  0  0  0  0  0  0  0  0  0  0  0
  137.2347   76.9323  223.7744 H   0  0  0  0  0  0  0  0  0  0  0  0
  136.3554   77.1952  222.2127 H   0  0  0  0  0  0  0  0  0  0  0  0
  137.3320   75.3430  222.3900 N   0  0  0  0  0  0  0  0  0  0  0  0
  136.2790   74.5840  223.0900 C   0  0  0  0  0  0  0  0  0  0  0  0
  136.3428   74.7809  224.1704 H   0  0  0  0  0  0  0  0  0  0  0  0
  135.2932   74.8973  222.7158 H   0  0  0  0  0  0  0  0  0  0  0  0
  136.4690   73.0740  222.8310 C   0  0  0  0  0  0  0  0  0  0  0  0
  136.8564   72.6051  223.7475 H   0  0  0  0  0  0  0  0  0  0  0  0
  135.4911   72.6588  222.5457 H   0  0  0  0  0  0  0  0  0  0  0  0
  137.3740   72.8130  221.7690 O   0  0  0  0  0  0  0  0  0  0  0  0
  137.0300   73.5940  220.6450 C   0  0  0  0  0  0  0  0  0  0  0  0
  137.6575   73.2960  219.7921 H   0  0  0  0  0  0  0  0  0  0  0  0
  135.9676   73.4305  220.4115 H   0  0  0  0  0  0  0  0  0  0  0  0
  137.2500   75.0930  220.9370 C   0  0  0  0  0  0  0  0  0  0  0  0
  138.1878   75.4180  220.4627 H   0  0  0  0  0  0  0  0  0  0  0  0
  136.3972   75.6576  220.5320 H   0  0  0  0  0  0  0  0  0  0  0  0
  139.9530   73.7240  222.3010 N   0  0  0  0  0  0  0  0  0  0  0  0
  139.0270   73.9570  222.7240 H   0  0  0  0  0  0  0  0  0  0  0  0
  138.8330   70.6760  222.9170 C   0  0  0  0  0  0  0  0  0  0  0  0
  138.7013   70.8118  221.8334 H   0  0  0  0  0  0  0  0  0  0  0  0
  137.8953   70.9380  223.4290 H   0  0  0  0  0  0  0  0  0  0  0  0
  139.1940   69.2230  223.2110 C   0  0  0  0  0  0  0  0  0  0  0  0
  140.0141   68.9160  222.5453 H   0  0  0  0  0  0  0  0  0  0  0  0
  138.3015   68.6027  223.0414 H   0  0  0  0  0  0  0  0  0  0  0  0
  1  2  1  0
  2  3  2  0
  3  4  1  0
  3  5  1  0
  5  6  1  0
  5  7  2  0
  7  8  1  0
  8  9  2  0
  9 10  1  0
  8 11  1  0
 11 12  1  0
 11 13  1  0
 11 14  1  0
 14 15  1  0
 15 16  2  0
 16 17  1  0
 17 18  1  0
 18 19  1  0
 19 20  1  0
 19 21  1  0
 19 22  1  0
 22 23  1  0
 22 24  1  0
 22 25  1  0
 25 26  1  0
 25 27  1  0
 27 28  1  0
 27 29  1  0
 27 30  1  0
 30 31  1  0
 30 32  1  0
 17 33  2  0
 33 34  1  0
 34 35  2  0
 35 36  1  0
 36 37  1  0
 36 38  1  0
 36 39  1  0
 39 40  1  0
 39 41  1  0
 39 42  1  0
 42 43  1  0
 42 44  1  0
 42 45  1  0
 45 46  1  0
 46 47  1  0
 46 48  1  0
 46 49  1  0
 49 50  1  0
 49 51  1  0
 49 52  1  0
 52 53  1  0
 53 54  1  0
 53 55  1  0
 53 56  1  0
 56 57  1  0
 56 58  1  0
 34 59  1  0
 59 60  1  0
 14 61  1  0
 61 62  1  0
 61 63  1  0
 61 64  1  0
 64 65  1  0
 64 66  1  0
  9  2  1  0
 59 15  1  0
 64  7  1  0
 30 18  1  0
 56 45  1  0
M  END
>  <UniqueID>  (49) 
727

>  <SMILES>  (49) 
c1ccc2c(c1)CCN(c1nc(N3CCNCC3)n/c(=N\CCCN3CCOCC3)[nH]1)C2

>  <Energy>  (49) 
83.7077518671416

>  <Genealogy>  (49) 
c1ccc2c(c1)CCN(c1nc(N3CCNCC3)nc(=NCCCN3CCOCC3)[nH]1)C2 (tautomer)
c1ccc2c(c1)CCN(c1nc(N3CCNCC3)n/c(=N\CCCN3CCOCC3)[nH]1)C2 (cis-trans isomerization)
c1ccc2c(c1)CCN(c1nc(N3CCNCC3)n/c(=N\CCCN3CCOCC3)[nH]1)C2 (3D coordinates assigned)
c1ccc2c(c1)CCN(c1nc(N3CCNCC3)n/c(=N\CCCN3CCOCC3)[nH]1)C2 (nonaromatic ring conformer: 83.7077518671416 kcal/mol)

>  <smiles>  (49) 
c1ccc2c(c1)CCN(c1nc(NCCCN3CCOCC3)nc(N3CCNCC3)n1)C2

>  <score_type>  (49) 
oracle

>  <origin>  (49) 
autodockgpu

>  <m_score__min__energy>  (49) 
-9.3100000000000005

>  <m_primary>  (49) 
energy

>  <meeko>  (49) 
{"free_energy": -7.25, "intermolecular_energy": -9.33, "internal_energy": -2.55, "cluster_size": 5, "cluster_id": 3, "rank_in_cluster": 3}

>  <energy>  (49) 
-9.13

>  <cluster_rmsd>  (49) 
1.09

>  <rmsd>  (49) 
271.39

>  <cluster>  (49) 
2

$$$$
RYCKWQXGCGPPJB-JLFMESFVNA-N
     RDKit          3D

 66 70  0  0  0  0  0  0  0  0999 V2000
  140.7333   68.5064  228.3669 H   0  0  0  0  0  0  0  0  0  0  0  0
  140.4210   68.6500  227.3220 C   0  0  0  0  0  0  0  0  0  0  0  0
  139.9790   67.5610  226.5720 C   0  0  0  0  0  0  0  0  0  0  0  0
  139.9498   66.5585  227.0239 H   0  0  0  0  0  0  0  0  0  0  0  0
  139.5730   67.7410  225.2470 C   0  0  0  0  0  0  0  0  0  0  0  0
  139.2316   66.8770  224.6579 H   0  0  0  0  0  0  0  0  0  0  0  0
  139.5980   69.0170  224.6630 C   0  0  0  0  0  0  0  0  0  0  0  0
  140.0760   70.1180  225.4160 C   0  0  0  0  0  0  0  0  0  0  0  0
  140.4680   69.9230  226.7490 C   0  0  0  0  0  0  0  0  0  0  0  0
  140.8148   70.7786  227.3470 H   0  0  0  0  0  0  0  0  0  0  0  0
  140.1300   71.5110  224.8330 C   0  0  0  0  0  0  0  0  0  0  0  0
  141.1248   71.9399  225.0239 H   0  0  0  0  0  0  0  0  0  0  0  0
  139.3444   72.1152  225.3102 H   0  0  0  0  0  0  0  0  0  0  0  0
  139.8860   71.4990  223.3870 N   0  0  0  0  0  0  0  0  0  0  0  0
  140.5230   72.4740  222.5380 C   0  0  0  0  0  0  0  0  0  0  0  0
  141.6970   72.1670  221.9260 N   0  0  0  0  0  0  0  0  0  0  0  0
  142.3020   73.0550  221.0950 C   0  0  0  0  0  0  0  0  0  0  0  0
  143.5490   72.7290  220.4500 N   0  0  0  0  0  0  0  0  0  0  0  0
  144.7970   72.6380  221.2240 C   0  0  0  0  0  0  0  0  0  0  0  0
  144.6913   73.2369  222.1406 H   0  0  0  0  0  0  0  0  0  0  0  0
  144.9747   71.5785  221.4605 H   0  0  0  0  0  0  0  0  0  0  0  0
  146.0140   73.1610  220.4220 C   0  0  0  0  0  0  0  0  0  0  0  0
  146.2000   74.2029  220.7217 H   0  0  0  0  0  0  0  0  0  0  0  0
  146.8525   72.4882  220.6548 H   0  0  0  0  0  0  0  0  0  0  0  0
  145.8460   73.1270  218.9570 N   0  0  0  0  0  0  0  0  0  0  0  0
  145.4400   74.0410  218.6420 H   0  0  0  0  0  0  0  0  0  0  0  0
  144.9490   72.0490  218.5300 C   0  0  0  0  0  0  0  0  0  0  0  0
  144.9382   71.9971  217.4313 H   0  0  0  0  0  0  0  0  0  0  0  0
  145.3069   71.0947  218.9437 H   0  0  0  0  0  0  0  0  0  0  0  0
  143.5320   72.3190  219.0390 C   0  0  0  0  0  0  0  0  0  0  0  0
  143.0800   73.1209  218.4367 H   0  0  0  0  0  0  0  0  0  0  0  0
  142.9450   71.3930  218.9500 H   0  0  0  0  0  0  0  0  0  0  0  0
  141.7190   74.2600  220.8770 N   0  0  0  0  0  0  0  0  0  0  0  0
  140.5470   74.5850  221.4800 C   0  0  0  0  0  0  0  0  0  0  0  0
  140.0080   75.7550  221.2960 N   0  0  0  0  0  0  0  0  0  0  0  0
  139.7470   76.7250  222.3600 C   0  0  0  0  0  0  0  0  0  0  0  0
  139.6846   76.1984  223.3237 H   0  0  0  0  0  0  0  0  0  0  0  0
  140.5661   77.4589  222.3837 H   0  0  0  0  0  0  0  0  0  0  0  0
  138.4280   77.4590  222.0990 C   0  0  0  0  0  0  0  0  0  0  0  0
  138.4874   78.4604  222.5503 H   0  0  0  0  0  0  0  0  0  0  0  0
  138.2872   77.5112  221.0093 H   0  0  0  0  0  0  0  0  0  0  0  0
  137.2110   76.7240  222.6900 C   0  0  0  0  0  0  0  0  0  0  0  0
  137.1850   76.8916  223.7769 H   0  0  0  0  0  0  0  0  0  0  0  0
  136.3025   77.1192  222.2119 H   0  0  0  0  0  0  0  0  0  0  0  0
  137.2790   75.2700  222.4290 N   0  0  0  0  0  0  0  0  0  0  0  0
  136.2060   74.5330  223.1220 C   0  0  0  0  0  0  0  0  0  0  0  0
  136.2470   74.7532  224.1989 H   0  0  0  0  0  0  0  0  0  0  0  0
  135.2304   74.8437  222.7198 H   0  0  0  0  0  0  0  0  0  0  0  0
  136.3930   73.0170  222.9000 C   0  0  0  0  0  0  0  0  0  0  0  0
  136.7574   72.5662  223.8349 H   0  0  0  0  0  0  0  0  0  0  0  0
  135.4193   72.6010  222.6020 H   0  0  0  0  0  0  0  0  0  0  0  0
  137.3190   72.7280  221.8650 O   0  0  0  0  0  0  0  0  0  0  0  0
  137.0050   73.4850  220.7160 C   0  0  0  0  0  0  0  0  0  0  0  0
  137.6496   73.1643  219.8843 H   0  0  0  0  0  0  0  0  0  0  0  0
  135.9473   73.3222  220.4617 H   0  0  0  0  0  0  0  0  0  0  0  0
  137.2280   74.9890  220.9800 C   0  0  0  0  0  0  0  0  0  0  0  0
  138.1782   75.2980  220.5200 H   0  0  0  0  0  0  0  0  0  0  0  0
  136.3883   75.5498  220.5435 H   0  0  0  0  0  0  0  0  0  0  0  0
  139.9430   73.6870  222.3020 N   0  0  0  0  0  0  0  0  0  0  0  0
  139.0170   73.9250  222.7230 H   0  0  0  0  0  0  0  0  0  0  0  0
  138.8280   70.6140  222.8920 C   0  0  0  0  0  0  0  0  0  0  0  0
  138.7260   70.7336  221.8033 H   0  0  0  0  0  0  0  0  0  0  0  0
  137.8727   70.8701  223.3734 H   0  0  0  0  0  0  0  0  0  0  0  0
  139.1990   69.1700  223.2160 C   0  0  0  0  0  0  0  0  0  0  0  0
  140.0415   68.8649  222.5780 H   0  0  0  0  0  0  0  0  0  0  0  0
  138.3197   68.5359  223.0298 H   0  0  0  0  0  0  0  0  0  0  0  0
  1  2  1  0
  2  3  2  0
  3  4  1  0
  3  5  1  0
  5  6  1  0
  5  7  2  0
  7  8  1  0
  8  9  2  0
  9 10  1  0
  8 11  1  0
 11 12  1  0
 11 13  1  0
 11 14  1  0
 14 15  1  0
 15 16  2  0
 16 17  1  0
 17 18  1  0
 18 19  1  0
 19 20  1  0
 19 21  1  0
 19 22  1  0
 22 23  1  0
 22 24  1  0
 22 25  1  0
 25 26  1  0
 25 27  1  0
 27 28  1  0
 27 29  1  0
 27 30  1  0
 30 31  1  0
 30 32  1  0
 17 33  2  0
 33 34  1  0
 34 35  2  0
 35 36  1  0
 36 37  1  0
 36 38  1  0
 36 39  1  0
 39 40  1  0
 39 41  1  0
 39 42  1  0
 42 43  1  0
 42 44  1  0
 42 45  1  0
 45 46  1  0
 46 47  1  0
 46 48  1  0
 46 49  1  0
 49 50  1  0
 49 51  1  0
 49 52  1  0
 52 53  1  0
 53 54  1  0
 53 55  1  0
 53 56  1  0
 56 57  1  0
 56 58  1  0
 34 59  1  0
 59 60  1  0
 14 61  1  0
 61 62  1  0
 61 63  1  0
 61 64  1  0
 64 65  1  0
 64 66  1  0
  9  2  1  0
 59 15  1  0
 64  7  1  0
 30 18  1  0
 56 45  1  0
M  END
>  <UniqueID>  (50) 
727

>  <SMILES>  (50) 
c1ccc2c(c1)CCN(c1nc(N3CCNCC3)n/c(=N\CCCN3CCOCC3)[nH]1)C2

>  <Energy>  (50) 
83.7077518671416

>  <Genealogy>  (50) 
c1ccc2c(c1)CCN(c1nc(N3CCNCC3)nc(=NCCCN3CCOCC3)[nH]1)C2 (tautomer)
c1ccc2c(c1)CCN(c1nc(N3CCNCC3)n/c(=N\CCCN3CCOCC3)[nH]1)C2 (cis-trans isomerization)
c1ccc2c(c1)CCN(c1nc(N3CCNCC3)n/c(=N\CCCN3CCOCC3)[nH]1)C2 (3D coordinates assigned)
c1ccc2c(c1)CCN(c1nc(N3CCNCC3)n/c(=N\CCCN3CCOCC3)[nH]1)C2 (nonaromatic ring conformer: 83.7077518671416 kcal/mol)

>  <smiles>  (50) 
c1ccc2c(c1)CCN(c1nc(NCCCN3CCOCC3)nc(N3CCNCC3)n1)C2

>  <score_type>  (50) 
oracle

>  <origin>  (50) 
autodockgpu

>  <m_score__min__energy>  (50) 
-9.3100000000000005

>  <m_primary>  (50) 
energy

>  <meeko>  (50) 
{"free_energy": -7.26, "intermolecular_energy": -9.35, "internal_energy": -2.55, "cluster_size": 5, "cluster_id": 3, "rank_in_cluster": 2}

>  <energy>  (50) 
-9.1

>  <cluster_rmsd>  (50) 
0.92

>  <rmsd>  (50) 
271.36

>  <cluster>  (50) 
2

$$$$
RYCKWQXGCGPPJB-JLFMESFVNA-N
     RDKit          3D

 66 70  0  0  0  0  0  0  0  0999 V2000
  141.5396   68.8177  228.6404 H   0  0  0  0  0  0  0  0  0  0  0  0
  141.0540   68.8740  227.6550 C   0  0  0  0  0  0  0  0  0  0  0  0
  140.5600   67.7160  227.0550 C   0  0  0  0  0  0  0  0  0  0  0  0
  140.6625   66.7467  227.5649 H   0  0  0  0  0  0  0  0  0  0  0  0
  139.9350   67.7850  225.8070 C   0  0  0  0  0  0  0  0  0  0  0  0
  139.5526   66.8675  225.3359 H   0  0  0  0  0  0  0  0  0  0  0  0
  139.7920   69.0170  225.1510 C   0  0  0  0  0  0  0  0  0  0  0  0
  140.3200   70.1890  225.7460 C   0  0  0  0  0  0  0  0  0  0  0  0
  140.9330   70.1060  227.0060 C   0  0  0  0  0  0  0  0  0  0  0  0
  141.3208   71.0167  227.4859 H   0  0  0  0  0  0  0  0  0  0  0  0
  140.1990   71.5400  225.0790 C   0  0  0  0  0  0  0  0  0  0  0  0
  141.1853   72.0270  225.0763 H   0  0  0  0  0  0  0  0  0  0  0  0
  139.4683   72.1390  225.6422 H   0  0  0  0  0  0  0  0  0  0  0  0
  139.7250   71.4160  223.6970 N   0  0  0  0  0  0  0  0  0  0  0  0
  140.1600   72.3600  222.6970 C   0  0  0  0  0  0  0  0  0  0  0  0
  141.3420   72.1630  222.0560 N   0  0  0  0  0  0  0  0  0  0  0  0
  141.7590   73.0180  221.0870 C   0  0  0  0  0  0  0  0  0  0  0  0
  143.0160   72.8090  220.4110 N   0  0  0  0  0  0  0  0  0  0  0  0
  143.1870   71.6930  219.4680 C   0  0  0  0  0  0  0  0  0  0  0  0
  142.4540   70.9089  219.7086 H   0  0  0  0  0  0  0  0  0  0  0  0
  143.0339   72.0808  218.4501 H   0  0  0  0  0  0  0  0  0  0  0  0
  144.6100   71.0870  219.5410 C   0  0  0  0  0  0  0  0  0  0  0  0
  144.5721   70.1997  220.1900 H   0  0  0  0  0  0  0  0  0  0  0  0
  144.9025   70.8531  218.5067 H   0  0  0  0  0  0  0  0  0  0  0  0
  145.6400   72.0000  220.0700 N   0  0  0  0  0  0  0  0  0  0  0  0
  145.7010   71.8780  221.1090 H   0  0  0  0  0  0  0  0  0  0  0  0
  145.3310   73.4040  219.7860 C   0  0  0  0  0  0  0  0  0  0  0  0
  146.1743   74.0347  220.1041 H   0  0  0  0  0  0  0  0  0  0  0  0
  145.1619   73.5264  218.7060 H   0  0  0  0  0  0  0  0  0  0  0  0
  144.0700   73.8230  220.5440 C   0  0  0  0  0  0  0  0  0  0  0  0
  144.3155   73.9495  221.6088 H   0  0  0  0  0  0  0  0  0  0  0  0
  143.7029   74.7687  220.1188 H   0  0  0  0  0  0  0  0  0  0  0  0
  140.9790   74.0780  220.7590 N   0  0  0  0  0  0  0  0  0  0  0  0
  139.7950   74.2910  221.3890 C   0  0  0  0  0  0  0  0  0  0  0  0
  139.0650   75.3270  221.0960 N   0  0  0  0  0  0  0  0  0  0  0  0
  139.0930   76.5950  221.8250 C   0  0  0  0  0  0  0  0  0  0  0  0
  138.1071   77.0773  221.7519 H   0  0  0  0  0  0  0  0  0  0  0  0
  139.3385   76.3963  222.8787 H   0  0  0  0  0  0  0  0  0  0  0  0
  140.1560   77.5260  221.2330 C   0  0  0  0  0  0  0  0  0  0  0  0
  140.4984   77.1053  220.2760 H   0  0  0  0  0  0  0  0  0  0  0  0
  139.6940   78.5155  221.1010 H   0  0  0  0  0  0  0  0  0  0  0  0
  141.3740   77.7020  222.1570 C   0  0  0  0  0  0  0  0  0  0  0  0
  141.3644   76.9065  222.9166 H   0  0  0  0  0  0  0  0  0  0  0  0
  142.2846   77.6454  221.5426 H   0  0  0  0  0  0  0  0  0  0  0  0
  141.3530   79.0150  222.8360 N   0  0  0  0  0  0  0  0  0  0  0  0
  142.7060   79.5810  222.9910 C   0  0  0  0  0  0  0  0  0  0  0  0
  143.3452   78.8607  223.5226 H   0  0  0  0  0  0  0  0  0  0  0  0
  143.1308   79.7881  221.9977 H   0  0  0  0  0  0  0  0  0  0  0  0
  142.6300   80.8940  223.7990 C   0  0  0  0  0  0  0  0  0  0  0  0
  143.0265   80.7101  224.8084 H   0  0  0  0  0  0  0  0  0  0  0  0
  143.2218   81.6504  223.2628 H   0  0  0  0  0  0  0  0  0  0  0  0
  141.3040   81.3870  223.9140 O   0  0  0  0  0  0  0  0  0  0  0  0
  140.6890   81.4060  222.6430 C   0  0  0  0  0  0  0  0  0  0  0  0
  139.7102   81.9016  222.7224 H   0  0  0  0  0  0  0  0  0  0  0  0
  141.3375   81.9539  221.9435 H   0  0  0  0  0  0  0  0  0  0  0  0
  140.4890   79.9710  222.1150 C   0  0  0  0  0  0  0  0  0  0  0  0
  139.4372   79.6803  222.2538 H   0  0  0  0  0  0  0  0  0  0  0  0
  140.7579   79.9500  221.0486 H   0  0  0  0  0  0  0  0  0  0  0  0
  139.3800   73.4250  222.3500 N   0  0  0  0  0  0  0  0  0  0  0  0
  138.4460   73.5680  222.7940 H   0  0  0  0  0  0  0  0  0  0  0  0
  138.6540   70.4510  223.4380 C   0  0  0  0  0  0  0  0  0  0  0  0
  138.3699   70.4908  222.3761 H   0  0  0  0  0  0  0  0  0  0  0  0
  137.7761   70.6941  224.0547 H   0  0  0  0  0  0  0  0  0  0  0  0
  139.1560   69.0510  223.7820 C   0  0  0  0  0  0  0  0  0  0  0  0
  139.9008   68.7434  223.0332 H   0  0  0  0  0  0  0  0  0  0  0  0
  138.2967   68.3642  223.7813 H   0  0  0  0  0  0  0  0  0  0  0  0
  1  2  1  0
  2  3  2  0
  3  4  1  0
  3  5  1  0
  5  6  1  0
  5  7  2  0
  7  8  1  0
  8  9  2  0
  9 10  1  0
  8 11  1  0
 11 12  1  0
 11 13  1  0
 11 14  1  0
 14 15  1  0
 15 16  2  0
 16 17  1  0
 17 18  1  0
 18 19  1  0
 19 20  1  0
 19 21  1  0
 19 22  1  0
 22 23  1  0
 22 24  1  0
 22 25  1  0
 25 26  1  0
 25 27  1  0
 27 28  1  0
 27 29  1  0
 27 30  1  0
 30 31  1  0
 30 32  1  0
 17 33  2  0
 33 34  1  0
 34 35  2  0
 35 36  1  0
 36 37  1  0
 36 38  1  0
 36 39  1  0
 39 40  1  0
 39 41  1  0
 39 42  1  0
 42 43  1  0
 42 44  1  0
 42 45  1  0
 45 46  1  0
 46 47  1  0
 46 48  1  0
 46 49  1  0
 49 50  1  0
 49 51  1  0
 49 52  1  0
 52 53  1  0
 53 54  1  0
 53 55  1  0
 53 56  1  0
 56 57  1  0
 56 58  1  0
 34 59  1  0
 59 60  1  0
 14 61  1  0
 61 62  1  0
 61 63  1  0
 61 64  1  0
 64 65  1  0
 64 66  1  0
  9  2  1  0
 59 15  1  0
 64  7  1  0
 30 18  1  0
 56 45  1  0
M  END
>  <UniqueID>  (51) 
727

>  <SMILES>  (51) 
c1ccc2c(c1)CCN(c1nc(N3CCNCC3)n/c(=N\CCCN3CCOCC3)[nH]1)C2

>  <Energy>  (51) 
83.7077518671416

>  <Genealogy>  (51) 
c1ccc2c(c1)CCN(c1nc(N3CCNCC3)nc(=NCCCN3CCOCC3)[nH]1)C2 (tautomer)
c1ccc2c(c1)CCN(c1nc(N3CCNCC3)n/c(=N\CCCN3CCOCC3)[nH]1)C2 (cis-trans isomerization)
c1ccc2c(c1)CCN(c1nc(N3CCNCC3)n/c(=N\CCCN3CCOCC3)[nH]1)C2 (3D coordinates assigned)
c1ccc2c(c1)CCN(c1nc(N3CCNCC3)n/c(=N\CCCN3CCOCC3)[nH]1)C2 (nonaromatic ring conformer: 83.7077518671416 kcal/mol)

>  <smiles>  (51) 
c1ccc2c(c1)CCN(c1nc(NCCCN3CCOCC3)nc(N3CCNCC3)n1)C2

>  <score_type>  (51) 
oracle

>  <origin>  (51) 
autodockgpu

>  <m_score__min__energy>  (51) 
-9.3100000000000005

>  <m_primary>  (51) 
energy

>  <meeko>  (51) 
{"free_energy": -8.86, "intermolecular_energy": -10.95, "internal_energy": -0.8, "cluster_size": 8, "cluster_id": 2, "rank_in_cluster": 8}

>  <energy>  (51) 
-9.1

>  <cluster_rmsd>  (51) 
0.96

>  <rmsd>  (51) 
271.35

>  <cluster>  (51) 
2

$$$$
RYCKWQXGCGPPJB-JLFMESFVNA-N
     RDKit          3D

 66 70  0  0  0  0  0  0  0  0999 V2000
  141.6795   68.4357  228.3044 H   0  0  0  0  0  0  0  0  0  0  0  0
  141.0950   68.6100  227.3890 C   0  0  0  0  0  0  0  0  0  0  0  0
  140.3920   67.5590  226.8010 C   0  0  0  0  0  0  0  0  0  0  0  0
  140.4290   66.5552  227.2494 H   0  0  0  0  0  0  0  0  0  0  0  0
  139.6410   67.7780  225.6440 C   0  0  0  0  0  0  0  0  0  0  0  0
  139.0932   66.9436  225.1818 H   0  0  0  0  0  0  0  0  0  0  0  0
  139.5810   69.0570  225.0670 C   0  0  0  0  0  0  0  0  0  0  0  0
  140.3200   70.1170  225.6470 C   0  0  0  0  0  0  0  0  0  0  0  0
  141.0580   69.8840  226.8170 C   0  0  0  0  0  0  0  0  0  0  0  0
  141.6114   70.7102  227.2873 H   0  0  0  0  0  0  0  0  0  0  0  0
  140.2960   71.5110  225.0620 C   0  0  0  0  0  0  0  0  0  0  0  0
  141.3295   71.8739  224.9607 H   0  0  0  0  0  0  0  0  0  0  0  0
  139.7178   72.1587  225.7374 H   0  0  0  0  0  0  0  0  0  0  0  0
  139.6530   71.5300  223.7440 N   0  0  0  0  0  0  0  0  0  0  0  0
  140.0850   72.4730  222.7430 C   0  0  0  0  0  0  0  0  0  0  0  0
  141.3010   72.3180  222.1540 N   0  0  0  0  0  0  0  0  0  0  0  0
  141.7190   73.1720  221.1850 C   0  0  0  0  0  0  0  0  0  0  0  0
  143.0100   73.0080  220.5640 N   0  0  0  0  0  0  0  0  0  0  0  0
  143.2460   71.9300  219.5910 C   0  0  0  0  0  0  0  0  0  0  0  0
  142.5153   71.1267  219.7666 H   0  0  0  0  0  0  0  0  0  0  0  0
  143.1367   72.3531  218.5815 H   0  0  0  0  0  0  0  0  0  0  0  0
  144.6730   71.3430  219.7120 C   0  0  0  0  0  0  0  0  0  0  0  0
  144.6185   70.4324  220.3266 H   0  0  0  0  0  0  0  0  0  0  0  0
  145.0191   71.1507  218.6857 H   0  0  0  0  0  0  0  0  0  0  0  0
  145.6610   72.2520  220.3230 N   0  0  0  0  0  0  0  0  0  0  0  0
  145.6740   72.0930  221.3580 H   0  0  0  0  0  0  0  0  0  0  0  0
  145.3420   73.6610  220.0740 C   0  0  0  0  0  0  0  0  0  0  0  0
  146.1581   74.2928  220.4546 H   0  0  0  0  0  0  0  0  0  0  0  0
  145.2229   73.8203  218.9921 H   0  0  0  0  0  0  0  0  0  0  0  0
  144.0390   74.0320  220.7850 C   0  0  0  0  0  0  0  0  0  0  0  0
  144.2310   74.1222  221.8644 H   0  0  0  0  0  0  0  0  0  0  0  0
  143.6766   74.9873  220.3774 H   0  0  0  0  0  0  0  0  0  0  0  0
  140.9060   74.1890  220.8040 N   0  0  0  0  0  0  0  0  0  0  0  0
  139.6900   74.3610  221.3810 C   0  0  0  0  0  0  0  0  0  0  0  0
  138.9260   75.3570  221.0380 N   0  0  0  0  0  0  0  0  0  0  0  0
  139.3670   76.7490  220.9560 C   0  0  0  0  0  0  0  0  0  0  0  0
  140.3115   76.7979  220.3943 H   0  0  0  0  0  0  0  0  0  0  0  0
  138.5931   77.3399  220.4442 H   0  0  0  0  0  0  0  0  0  0  0  0
  139.5840   77.3220  222.3610 C   0  0  0  0  0  0  0  0  0  0  0  0
  139.1133   78.3149  222.4128 H   0  0  0  0  0  0  0  0  0  0  0  0
  139.1340   76.6207  223.0791 H   0  0  0  0  0  0  0  0  0  0  0  0
  141.0750   77.4640  222.7210 C   0  0  0  0  0  0  0  0  0  0  0  0
  141.3388   76.6960  223.4630 H   0  0  0  0  0  0  0  0  0  0  0  0
  141.6665   77.3384  221.8021 H   0  0  0  0  0  0  0  0  0  0  0  0
  141.3690   78.7990  223.2850 N   0  0  0  0  0  0  0  0  0  0  0  0
  142.6170   79.3670  222.7410 C   0  0  0  0  0  0  0  0  0  0  0  0
  143.4449   78.6634  222.9129 H   0  0  0  0  0  0  0  0  0  0  0  0
  142.4993   79.5403  221.6611 H   0  0  0  0  0  0  0  0  0  0  0  0
  142.9260   80.7050  223.4440 C   0  0  0  0  0  0  0  0  0  0  0  0
  143.7683   80.5535  224.1351 H   0  0  0  0  0  0  0  0  0  0  0  0
  143.1681   81.4426  222.6647 H   0  0  0  0  0  0  0  0  0  0  0  0
  141.8190   81.2040  224.1790 O   0  0  0  0  0  0  0  0  0  0  0  0
  140.6610   81.1840  223.3720 C   0  0  0  0  0  0  0  0  0  0  0  0
  139.8393   81.6835  223.9061 H   0  0  0  0  0  0  0  0  0  0  0  0
  140.8760   81.7087  222.4294 H   0  0  0  0  0  0  0  0  0  0  0  0
  140.2490   79.7320  223.0510 C   0  0  0  0  0  0  0  0  0  0  0  0
  139.4036   79.4475  223.6947 H   0  0  0  0  0  0  0  0  0  0  0  0
  139.9625   79.6758  221.9904 H   0  0  0  0  0  0  0  0  0  0  0  0
  139.2740   73.4950  222.3430 N   0  0  0  0  0  0  0  0  0  0  0  0
  138.3170   73.6040  222.7460 H   0  0  0  0  0  0  0  0  0  0  0  0
  138.4450   70.7190  223.5740 C   0  0  0  0  0  0  0  0  0  0  0  0
  138.0478   70.8570  222.5576 H   0  0  0  0  0  0  0  0  0  0  0  0
  137.6826   71.0290  224.3038 H   0  0  0  0  0  0  0  0  0  0  0  0
  138.8000   69.2510  223.7900 C   0  0  0  0  0  0  0  0  0  0  0  0
  139.4071   68.9008  222.9422 H   0  0  0  0  0  0  0  0  0  0  0  0
  137.8655   68.6754  223.8641 H   0  0  0  0  0  0  0  0  0  0  0  0
  1  2  1  0
  2  3  2  0
  3  4  1  0
  3  5  1  0
  5  6  1  0
  5  7  2  0
  7  8  1  0
  8  9  2  0
  9 10  1  0
  8 11  1  0
 11 12  1  0
 11 13  1  0
 11 14  1  0
 14 15  1  0
 15 16  2  0
 16 17  1  0
 17 18  1  0
 18 19  1  0
 19 20  1  0
 19 21  1  0
 19 22  1  0
 22 23  1  0
 22 24  1  0
 22 25  1  0
 25 26  1  0
 25 27  1  0
 27 28  1  0
 27 29  1  0
 27 30  1  0
 30 31  1  0
 30 32  1  0
 17 33  2  0
 33 34  1  0
 34 35  2  0
 35 36  1  0
 36 37  1  0
 36 38  1  0
 36 39  1  0
 39 40  1  0
 39 41  1  0
 39 42  1  0
 42 43  1  0
 42 44  1  0
 42 45  1  0
 45 46  1  0
 46 47  1  0
 46 48  1  0
 46 49  1  0
 49 50  1  0
 49 51  1  0
 49 52  1  0
 52 53  1  0
 53 54  1  0
 53 55  1  0
 53 56  1  0
 56 57  1  0
 56 58  1  0
 34 59  1  0
 59 60  1  0
 14 61  1  0
 61 62  1  0
 61 63  1  0
 61 64  1  0
 64 65  1  0
 64 66  1  0
  9  2  1  0
 59 15  1  0
 64  7  1  0
 30 18  1  0
 56 45  1  0
M  END
>  <UniqueID>  (52) 
727

>  <SMILES>  (52) 
c1ccc2c(c1)CCN(c1nc(N3CCNCC3)n/c(=N\CCCN3CCOCC3)[nH]1)C2

>  <Energy>  (52) 
83.7077518671416

>  <Genealogy>  (52) 
c1ccc2c(c1)CCN(c1nc(N3CCNCC3)nc(=NCCCN3CCOCC3)[nH]1)C2 (tautomer)
c1ccc2c(c1)CCN(c1nc(N3CCNCC3)n/c(=N\CCCN3CCOCC3)[nH]1)C2 (cis-trans isomerization)
c1ccc2c(c1)CCN(c1nc(N3CCNCC3)n/c(=N\CCCN3CCOCC3)[nH]1)C2 (3D coordinates assigned)
c1ccc2c(c1)CCN(c1nc(N3CCNCC3)n/c(=N\CCCN3CCOCC3)[nH]1)C2 (nonaromatic ring conformer: 83.7077518671416 kcal/mol)

>  <smiles>  (52) 
c1ccc2c(c1)CCN(c1nc(NCCCN3CCOCC3)nc(N3CCNCC3)n1)C2

>  <score_type>  (52) 
oracle

>  <origin>  (52) 
autodockgpu

>  <m_score__min__energy>  (52) 
-9.3100000000000005

>  <m_primary>  (52) 
energy

>  <meeko>  (52) 
{"free_energy": -9.08, "intermolecular_energy": -11.17, "internal_energy": -0.86, "cluster_size": 8, "cluster_id": 2, "rank_in_cluster": 5}

>  <energy>  (52) 
-9.08

>  <cluster_rmsd>  (52) 
1.01

>  <rmsd>  (52) 
271.46

>  <cluster>  (52) 
2

$$$$
RYCKWQXGCGPPJB-JLFMESFVNA-N
     RDKit          3D

 66 70  0  0  0  0  0  0  0  0999 V2000
  141.4503   68.2894  228.1156 H   0  0  0  0  0  0  0  0  0  0  0  0
  140.9320   68.5150  227.1720 C   0  0  0  0  0  0  0  0  0  0  0  0
  140.2380   67.5080  226.5010 C   0  0  0  0  0  0  0  0  0  0  0  0
  140.2156   66.4882  226.9128 H   0  0  0  0  0  0  0  0  0  0  0  0
  139.5710   67.7930  225.3060 C   0  0  0  0  0  0  0  0  0  0  0  0
  139.0302   66.9938  224.7779 H   0  0  0  0  0  0  0  0  0  0  0  0
  139.5870   69.0920  224.7760 C   0  0  0  0  0  0  0  0  0  0  0  0
  140.3170   70.1080  225.4420 C   0  0  0  0  0  0  0  0  0  0  0  0
  140.9700   69.8090  226.6480 C   0  0  0  0  0  0  0  0  0  0  0  0
  141.5155   70.5995  227.1842 H   0  0  0  0  0  0  0  0  0  0  0  0
  140.3730   71.5210  224.9100 C   0  0  0  0  0  0  0  0  0  0  0  0
  141.4213   71.8536  224.8893 H   0  0  0  0  0  0  0  0  0  0  0  0
  139.7710   72.1620  225.5709 H   0  0  0  0  0  0  0  0  0  0  0  0
  139.8190   71.6090  223.5560 N   0  0  0  0  0  0  0  0  0  0  0  0
  140.3440   72.5720  222.6210 C   0  0  0  0  0  0  0  0  0  0  0  0
  141.4870   72.2940  221.9400 N   0  0  0  0  0  0  0  0  0  0  0  0
  141.9850   73.1710  221.0300 C   0  0  0  0  0  0  0  0  0  0  0  0
  143.2000   72.8750  220.3110 N   0  0  0  0  0  0  0  0  0  0  0  0
  143.2820   71.7080  219.4200 C   0  0  0  0  0  0  0  0  0  0  0  0
  142.5296   70.9688  219.7321 H   0  0  0  0  0  0  0  0  0  0  0  0
  143.0980   72.0511  218.3912 H   0  0  0  0  0  0  0  0  0  0  0  0
  144.6820   71.0460  219.4620 C   0  0  0  0  0  0  0  0  0  0  0  0
  144.6383   70.1949  220.1575 H   0  0  0  0  0  0  0  0  0  0  0  0
  144.9170   70.7479  218.4296 H   0  0  0  0  0  0  0  0  0  0  0  0
  145.7710   71.9400  219.8970 N   0  0  0  0  0  0  0  0  0  0  0  0
  145.8750   71.8670  220.9370 H   0  0  0  0  0  0  0  0  0  0  0  0
  145.5060   73.3400  219.5540 C   0  0  0  0  0  0  0  0  0  0  0  0
  146.3876   73.9495  219.8016 H   0  0  0  0  0  0  0  0  0  0  0  0
  145.2928   73.4155  218.4775 H   0  0  0  0  0  0  0  0  0  0  0  0
  144.2990   73.8490  220.3440 C   0  0  0  0  0  0  0  0  0  0  0  0
  144.5983   74.0185  221.3888 H   0  0  0  0  0  0  0  0  0  0  0  0
  143.9504   74.7866  219.8863 H   0  0  0  0  0  0  0  0  0  0  0  0
  141.3260   74.3340  220.8010 N   0  0  0  0  0  0  0  0  0  0  0  0
  140.1840   74.6290  221.4730 C   0  0  0  0  0  0  0  0  0  0  0  0
  139.5720   75.7610  221.2770 N   0  0  0  0  0  0  0  0  0  0  0  0
  138.6460   76.3780  222.2250 C   0  0  0  0  0  0  0  0  0  0  0  0
  137.6719   75.8707  222.1629 H   0  0  0  0  0  0  0  0  0  0  0  0
  139.0576   76.2818  223.2405 H   0  0  0  0  0  0  0  0  0  0  0  0
  138.4630   77.8640  221.9010 C   0  0  0  0  0  0  0  0  0  0  0  0
  139.0675   78.1080  221.0150 H   0  0  0  0  0  0  0  0  0  0  0  0
  137.3913   78.0354  221.7222 H   0  0  0  0  0  0  0  0  0  0  0  0
  138.8940   78.7830  223.0600 C   0  0  0  0  0  0  0  0  0  0  0  0
  138.1068   79.5311  223.2350 H   0  0  0  0  0  0  0  0  0  0  0  0
  139.0489   78.1618  223.9545 H   0  0  0  0  0  0  0  0  0  0  0  0
  140.1610   79.4810  222.7540 N   0  0  0  0  0  0  0  0  0  0  0  0
  140.2630   80.7750  223.4540 C   0  0  0  0  0  0  0  0  0  0  0  0
  139.3890   81.3953  223.2062 H   0  0  0  0  0  0  0  0  0  0  0  0
  140.2953   80.6017  224.5398 H   0  0  0  0  0  0  0  0  0  0  0  0
  141.5510   81.5020  223.0120 C   0  0  0  0  0  0  0  0  0  0  0  0
  141.2753   82.3365  222.3505 H   0  0  0  0  0  0  0  0  0  0  0  0
  142.0622   81.8557  223.9195 H   0  0  0  0  0  0  0  0  0  0  0  0
  142.4480   80.6490  222.3180 O   0  0  0  0  0  0  0  0  0  0  0  0
  142.6330   79.4540  223.0460 C   0  0  0  0  0  0  0  0  0  0  0  0
  143.4194   78.8548  222.5638 H   0  0  0  0  0  0  0  0  0  0  0  0
  142.9257   79.7073  224.0756 H   0  0  0  0  0  0  0  0  0  0  0  0
  141.3250   78.6360  223.0870 C   0  0  0  0  0  0  0  0  0  0  0  0
  141.3922   77.8136  222.3595 H   0  0  0  0  0  0  0  0  0  0  0  0
  141.1910   78.2407  224.1047 H   0  0  0  0  0  0  0  0  0  0  0  0
  139.6860   73.7420  222.3740 N   0  0  0  0  0  0  0  0  0  0  0  0
  138.7800   73.9550  222.8500 H   0  0  0  0  0  0  0  0  0  0  0  0
  138.6010   70.8430  223.2770 C   0  0  0  0  0  0  0  0  0  0  0  0
  138.2758   71.0305  222.2430 H   0  0  0  0  0  0  0  0  0  0  0  0
  137.8016   71.1502  223.9673 H   0  0  0  0  0  0  0  0  0  0  0  0
  138.8980   69.3570  223.4590 C   0  0  0  0  0  0  0  0  0  0  0  0
  139.5493   69.0189  222.6396 H   0  0  0  0  0  0  0  0  0  0  0  0
  137.9443   68.8089  223.4499 H   0  0  0  0  0  0  0  0  0  0  0  0
  1  2  1  0
  2  3  2  0
  3  4  1  0
  3  5  1  0
  5  6  1  0
  5  7  2  0
  7  8  1  0
  8  9  2  0
  9 10  1  0
  8 11  1  0
 11 12  1  0
 11 13  1  0
 11 14  1  0
 14 15  1  0
 15 16  2  0
 16 17  1  0
 17 18  1  0
 18 19  1  0
 19 20  1  0
 19 21  1  0
 19 22  1  0
 22 23  1  0
 22 24  1  0
 22 25  1  0
 25 26  1  0
 25 27  1  0
 27 28  1  0
 27 29  1  0
 27 30  1  0
 30 31  1  0
 30 32  1  0
 17 33  2  0
 33 34  1  0
 34 35  2  0
 35 36  1  0
 36 37  1  0
 36 38  1  0
 36 39  1  0
 39 40  1  0
 39 41  1  0
 39 42  1  0
 42 43  1  0
 42 44  1  0
 42 45  1  0
 45 46  1  0
 46 47  1  0
 46 48  1  0
 46 49  1  0
 49 50  1  0
 49 51  1  0
 49 52  1  0
 52 53  1  0
 53 54  1  0
 53 55  1  0
 53 56  1  0
 56 57  1  0
 56 58  1  0
 34 59  1  0
 59 60  1  0
 14 61  1  0
 61 62  1  0
 61 63  1  0
 61 64  1  0
 64 65  1  0
 64 66  1  0
  9  2  1  0
 59 15  1  0
 64  7  1  0
 30 18  1  0
 56 45  1  0
M  END
>  <UniqueID>  (53) 
727

>  <SMILES>  (53) 
c1ccc2c(c1)CCN(c1nc(N3CCNCC3)n/c(=N\CCCN3CCOCC3)[nH]1)C2

>  <Energy>  (53) 
83.7077518671416

>  <Genealogy>  (53) 
c1ccc2c(c1)CCN(c1nc(N3CCNCC3)nc(=NCCCN3CCOCC3)[nH]1)C2 (tautomer)
c1ccc2c(c1)CCN(c1nc(N3CCNCC3)n/c(=N\CCCN3CCOCC3)[nH]1)C2 (cis-trans isomerization)
c1ccc2c(c1)CCN(c1nc(N3CCNCC3)n/c(=N\CCCN3CCOCC3)[nH]1)C2 (3D coordinates assigned)
c1ccc2c(c1)CCN(c1nc(N3CCNCC3)n/c(=N\CCCN3CCOCC3)[nH]1)C2 (nonaromatic ring conformer: 83.7077518671416 kcal/mol)

>  <smiles>  (53) 
c1ccc2c(c1)CCN(c1nc(NCCCN3CCOCC3)nc(N3CCNCC3)n1)C2

>  <score_type>  (53) 
oracle

>  <origin>  (53) 
autodockgpu

>  <m_score__min__energy>  (53) 
-9.3100000000000005

>  <m_primary>  (53) 
energy

>  <meeko>  (53) 
{"free_energy": -8.92, "intermolecular_energy": -11.01, "internal_energy": -0.73, "cluster_size": 8, "cluster_id": 2, "rank_in_cluster": 6}

>  <energy>  (53) 
-8.92

>  <cluster_rmsd>  (53) 
1.07

>  <rmsd>  (53) 
271.31

>  <cluster>  (53) 
2

$$$$
RYCKWQXGCGPPJB-JLFMESFVNA-N
     RDKit          3D

 66 70  0  0  0  0  0  0  0  0999 V2000
  143.0471   81.7082  223.0918 H   0  0  0  0  0  0  0  0  0  0  0  0
  142.2210   80.9820  223.0780 C   0  0  0  0  0  0  0  0  0  0  0  0
  141.0640   81.2290  223.8170 C   0  0  0  0  0  0  0  0  0  0  0  0
  140.9809   82.1476  224.4164 H   0  0  0  0  0  0  0  0  0  0  0  0
  140.0100   80.3110  223.7970 C   0  0  0  0  0  0  0  0  0  0  0  0
  139.1033   80.5072  224.3881 H   0  0  0  0  0  0  0  0  0  0  0  0
  140.1010   79.1410  223.0280 C   0  0  0  0  0  0  0  0  0  0  0  0
  141.2880   78.8760  222.3000 C   0  0  0  0  0  0  0  0  0  0  0  0
  142.3320   79.8130  222.3200 C   0  0  0  0  0  0  0  0  0  0  0  0
  143.2446   79.6263  221.7349 H   0  0  0  0  0  0  0  0  0  0  0  0
  141.4410   77.6280  221.4620 C   0  0  0  0  0  0  0  0  0  0  0  0
  142.4017   77.1502  221.7044 H   0  0  0  0  0  0  0  0  0  0  0  0
  141.4043   77.9177  220.4015 H   0  0  0  0  0  0  0  0  0  0  0  0
  140.3570   76.6740  221.7160 N   0  0  0  0  0  0  0  0  0  0  0  0
  140.6040   75.2570  221.6180 C   0  0  0  0  0  0  0  0  0  0  0  0
  141.7210   74.8120  220.9840 N   0  0  0  0  0  0  0  0  0  0  0  0
  141.9950   73.4840  220.9060 C   0  0  0  0  0  0  0  0  0  0  0  0
  143.1790   73.0140  220.2310 N   0  0  0  0  0  0  0  0  0  0  0  0
  143.1680   71.7430  219.4890 C   0  0  0  0  0  0  0  0  0  0  0  0
  142.3656   71.1052  219.8883 H   0  0  0  0  0  0  0  0  0  0  0  0
  143.0021   71.9709  218.4257 H   0  0  0  0  0  0  0  0  0  0  0  0
  144.5150   70.9890  219.6130 C   0  0  0  0  0  0  0  0  0  0  0  0
  144.4138   70.2340  220.4066 H   0  0  0  0  0  0  0  0  0  0  0  0
  144.7194   70.5515  218.6247 H   0  0  0  0  0  0  0  0  0  0  0  0
  145.6710   71.8460  219.9380 N   0  0  0  0  0  0  0  0  0  0  0  0
  145.7760   71.8930  220.9790 H   0  0  0  0  0  0  0  0  0  0  0  0
  145.5070   73.2100  219.4270 C   0  0  0  0  0  0  0  0  0  0  0  0
  146.4329   73.7782  219.6000 H   0  0  0  0  0  0  0  0  0  0  0  0
  145.2917   73.1697  218.3490 H   0  0  0  0  0  0  0  0  0  0  0  0
  144.3470   73.8990  220.1470 C   0  0  0  0  0  0  0  0  0  0  0  0
  144.6658   74.1711  221.1640 H   0  0  0  0  0  0  0  0  0  0  0  0
  144.0655   74.7971  219.5777 H   0  0  0  0  0  0  0  0  0  0  0  0
  141.1380   72.5970  221.4720 N   0  0  0  0  0  0  0  0  0  0  0  0
  140.0170   73.0230  222.1080 C   0  0  0  0  0  0  0  0  0  0  0  0
  139.1790   72.1690  222.6200 N   0  0  0  0  0  0  0  0  0  0  0  0
  139.2880   70.7170  222.4830 C   0  0  0  0  0  0  0  0  0  0  0  0
  138.3099   70.3057  222.1928 H   0  0  0  0  0  0  0  0  0  0  0  0
  140.0383   70.4862  221.7124 H   0  0  0  0  0  0  0  0  0  0  0  0
  139.7270   70.0880  223.8090 C   0  0  0  0  0  0  0  0  0  0  0  0
  138.8312   69.8731  224.4101 H   0  0  0  0  0  0  0  0  0  0  0  0
  140.2877   69.1717  223.5725 H   0  0  0  0  0  0  0  0  0  0  0  0
  140.6580   71.0060  224.6230 C   0  0  0  0  0  0  0  0  0  0  0  0
  141.6909   70.6385  224.5330 H   0  0  0  0  0  0  0  0  0  0  0  0
  140.5706   72.0277  224.2249 H   0  0  0  0  0  0  0  0  0  0  0  0
  140.2790   71.0300  226.0520 N   0  0  0  0  0  0  0  0  0  0  0  0
  140.3150   69.6850  226.6570 C   0  0  0  0  0  0  0  0  0  0  0  0
  139.6709   69.0062  226.0787 H   0  0  0  0  0  0  0  0  0  0  0  0
  141.3485   69.3084  226.6487 H   0  0  0  0  0  0  0  0  0  0  0  0
  139.8080   69.7580  228.1130 C   0  0  0  0  0  0  0  0  0  0  0  0
  138.8026   69.3141  228.1588 H   0  0  0  0  0  0  0  0  0  0  0  0
  140.5227   69.2083  228.7431 H   0  0  0  0  0  0  0  0  0  0  0  0
  139.7400   71.0890  228.6000 O   0  0  0  0  0  0  0  0  0  0  0  0
  140.9540   71.7590  228.3340 C   0  0  0  0  0  0  0  0  0  0  0  0
  140.9369   72.7451  228.8211 H   0  0  0  0  0  0  0  0  0  0  0  0
  141.7856   71.1551  228.7262 H   0  0  0  0  0  0  0  0  0  0  0  0
  141.1490   71.9470  226.8160 C   0  0  0  0  0  0  0  0  0  0  0  0
  140.9015   72.9846  226.5475 H   0  0  0  0  0  0  0  0  0  0  0  0
  142.1970   71.7236  226.5674 H   0  0  0  0  0  0  0  0  0  0  0  0
  139.7560   74.3540  222.1910 N   0  0  0  0  0  0  0  0  0  0  0  0
  138.9180   74.6760  222.7250 H   0  0  0  0  0  0  0  0  0  0  0  0
  139.0030   77.2170  221.8560 C   0  0  0  0  0  0  0  0  0  0  0  0
  138.2882   76.3937  222.0015 H   0  0  0  0  0  0  0  0  0  0  0  0
  138.7295   77.7748  220.9482 H   0  0  0  0  0  0  0  0  0  0  0  0
  138.9660   78.1470  223.0650 C   0  0  0  0  0  0  0  0  0  0  0  0
  139.0466   77.5453  223.9823 H   0  0  0  0  0  0  0  0  0  0  0  0
  138.0171   78.7031  223.0460 H   0  0  0  0  0  0  0  0  0  0  0  0
  1  2  1  0
  2  3  2  0
  3  4  1  0
  3  5  1  0
  5  6  1  0
  5  7  2  0
  7  8  1  0
  8  9  2  0
  9 10  1  0
  8 11  1  0
 11 12  1  0
 11 13  1  0
 11 14  1  0
 14 15  1  0
 15 16  2  0
 16 17  1  0
 17 18  1  0
 18 19  1  0
 19 20  1  0
 19 21  1  0
 19 22  1  0
 22 23  1  0
 22 24  1  0
 22 25  1  0
 25 26  1  0
 25 27  1  0
 27 28  1  0
 27 29  1  0
 27 30  1  0
 30 31  1  0
 30 32  1  0
 17 33  2  0
 33 34  1  0
 34 35  2  0
 35 36  1  0
 36 37  1  0
 36 38  1  0
 36 39  1  0
 39 40  1  0
 39 41  1  0
 39 42  1  0
 42 43  1  0
 42 44  1  0
 42 45  1  0
 45 46  1  0
 46 47  1  0
 46 48  1  0
 46 49  1  0
 49 50  1  0
 49 51  1  0
 49 52  1  0
 52 53  1  0
 53 54  1  0
 53 55  1  0
 53 56  1  0
 56 57  1  0
 56 58  1  0
 34 59  1  0
 59 60  1  0
 14 61  1  0
 61 62  1  0
 61 63  1  0
 61 64  1  0
 64 65  1  0
 64 66  1  0
  9  2  1  0
 59 15  1  0
 64  7  1  0
 30 18  1  0
 56 45  1  0
M  END
>  <UniqueID>  (54) 
727

>  <SMILES>  (54) 
c1ccc2c(c1)CCN(c1nc(N3CCNCC3)n/c(=N\CCCN3CCOCC3)[nH]1)C2

>  <Energy>  (54) 
83.7077518671416

>  <Genealogy>  (54) 
c1ccc2c(c1)CCN(c1nc(N3CCNCC3)nc(=NCCCN3CCOCC3)[nH]1)C2 (tautomer)
c1ccc2c(c1)CCN(c1nc(N3CCNCC3)n/c(=N\CCCN3CCOCC3)[nH]1)C2 (cis-trans isomerization)
c1ccc2c(c1)CCN(c1nc(N3CCNCC3)n/c(=N\CCCN3CCOCC3)[nH]1)C2 (3D coordinates assigned)
c1ccc2c(c1)CCN(c1nc(N3CCNCC3)n/c(=N\CCCN3CCOCC3)[nH]1)C2 (nonaromatic ring conformer: 83.7077518671416 kcal/mol)

>  <smiles>  (54) 
c1ccc2c(c1)CCN(c1nc(NCCCN3CCOCC3)nc(N3CCNCC3)n1)C2

>  <score_type>  (54) 
oracle

>  <origin>  (54) 
autodockgpu

>  <m_score__min__energy>  (54) 
-9.3100000000000005

>  <m_primary>  (54) 
energy

>  <meeko>  (54) 
{"free_energy": -9.03, "intermolecular_energy": -11.11, "internal_energy": -0.83, "cluster_size": 7, "cluster_id": 1, "rank_in_cluster": 4}

>  <energy>  (54) 
-8.9

>  <cluster_rmsd>  (54) 
1.02

>  <rmsd>  (54) 
271.36

>  <cluster>  (54) 
2

$$$$
RYCKWQXGCGPPJB-JLFMESFVNA-N
     RDKit          3D

 66 70  0  0  0  0  0  0  0  0999 V2000
  141.5672   68.3718  228.2397 H   0  0  0  0  0  0  0  0  0  0  0  0
  141.0190   68.5610  227.3050 C   0  0  0  0  0  0  0  0  0  0  0  0
  140.3290   67.5220  226.6800 C   0  0  0  0  0  0  0  0  0  0  0  0
  140.3383   66.5137  227.1195 H   0  0  0  0  0  0  0  0  0  0  0  0
  139.6260   67.7610  225.4960 C   0  0  0  0  0  0  0  0  0  0  0  0
  139.0899   66.9364  225.0034 H   0  0  0  0  0  0  0  0  0  0  0  0
  139.5990   69.0450  224.9310 C   0  0  0  0  0  0  0  0  0  0  0  0
  140.3240   70.0930  225.5510 C   0  0  0  0  0  0  0  0  0  0  0  0
  141.0150   69.8410  226.7460 C   0  0  0  0  0  0  0  0  0  0  0  0
  141.5572   70.6571  227.2460 H   0  0  0  0  0  0  0  0  0  0  0  0
  140.3350   71.4930  224.9800 C   0  0  0  0  0  0  0  0  0  0  0  0
  141.3748   71.8475  224.9232 H   0  0  0  0  0  0  0  0  0  0  0  0
  139.7360   72.1387  225.6390 H   0  0  0  0  0  0  0  0  0  0  0  0
  139.7450   71.5320  223.6390 N   0  0  0  0  0  0  0  0  0  0  0  0
  140.2240   72.4810  222.6660 C   0  0  0  0  0  0  0  0  0  0  0  0
  141.3970   72.2470  222.0190 N   0  0  0  0  0  0  0  0  0  0  0  0
  141.8540   73.1080  221.0740 C   0  0  0  0  0  0  0  0  0  0  0  0
  143.1000   72.8590  220.3920 N   0  0  0  0  0  0  0  0  0  0  0  0
  143.2350   71.7300  219.4580 C   0  0  0  0  0  0  0  0  0  0  0  0
  142.4823   70.9684  219.7099 H   0  0  0  0  0  0  0  0  0  0  0  0
  143.0865   72.1129  218.4375 H   0  0  0  0  0  0  0  0  0  0  0  0
  144.6410   71.0860  219.5280 C   0  0  0  0  0  0  0  0  0  0  0  0
  144.5830   70.2063  220.1859 H   0  0  0  0  0  0  0  0  0  0  0  0
  144.9202   70.8343  218.4942 H   0  0  0  0  0  0  0  0  0  0  0  0
  145.7000   71.9760  220.0420 N   0  0  0  0  0  0  0  0  0  0  0  0
  145.7630   71.8620  221.0810 H   0  0  0  0  0  0  0  0  0  0  0  0
  145.4270   73.3860  219.7470 C   0  0  0  0  0  0  0  0  0  0  0  0
  146.2888   73.9966  220.0544 H   0  0  0  0  0  0  0  0  0  0  0  0
  145.2549   73.5037  218.6669 H   0  0  0  0  0  0  0  0  0  0  0  0
  144.1820   73.8450  220.5090 C   0  0  0  0  0  0  0  0  0  0  0  0
  144.4376   73.9742  221.5711 H   0  0  0  0  0  0  0  0  0  0  0  0
  143.8376   74.7962  220.0770 H   0  0  0  0  0  0  0  0  0  0  0  0
  141.1240   74.2120  220.7750 N   0  0  0  0  0  0  0  0  0  0  0  0
  139.9520   74.4630  221.4110 C   0  0  0  0  0  0  0  0  0  0  0  0
  139.2710   75.5400  221.1470 N   0  0  0  0  0  0  0  0  0  0  0  0
  139.3250   76.7700  221.9380 C   0  0  0  0  0  0  0  0  0  0  0  0
  138.8961   77.5969  221.3529 H   0  0  0  0  0  0  0  0  0  0  0  0
  138.7493   76.6254  222.8641 H   0  0  0  0  0  0  0  0  0  0  0  0
  140.7750   77.1060  222.3000 C   0  0  0  0  0  0  0  0  0  0  0  0
  140.7856   77.6137  223.2758 H   0  0  0  0  0  0  0  0  0  0  0  0
  141.3383   76.1615  222.3269 H   0  0  0  0  0  0  0  0  0  0  0  0
  141.4500   78.0210  221.2610 C   0  0  0  0  0  0  0  0  0  0  0  0
  142.4070   77.5720  220.9569 H   0  0  0  0  0  0  0  0  0  0  0  0
  140.7746   78.1224  220.3987 H   0  0  0  0  0  0  0  0  0  0  0  0
  141.7050   79.3690  221.8130 N   0  0  0  0  0  0  0  0  0  0  0  0
  140.4560   80.1160  222.0510 C   0  0  0  0  0  0  0  0  0  0  0  0
  139.8745   80.1634  221.1185 H   0  0  0  0  0  0  0  0  0  0  0  0
  139.8670   79.6049  222.8268 H   0  0  0  0  0  0  0  0  0  0  0  0
  140.7900   81.5470  222.5210 C   0  0  0  0  0  0  0  0  0  0  0  0
  140.5806   82.2460  221.6979 H   0  0  0  0  0  0  0  0  0  0  0  0
  140.1689   81.7613  223.4032 H   0  0  0  0  0  0  0  0  0  0  0  0
  142.1480   81.6920  222.9060 O   0  0  0  0  0  0  0  0  0  0  0  0
  142.5090   80.6510  223.7890 C   0  0  0  0  0  0  0  0  0  0  0  0
  143.5212   80.8399  224.1759 H   0  0  0  0  0  0  0  0  0  0  0  0
  141.7847   80.6208  224.6164 H   0  0  0  0  0  0  0  0  0  0  0  0
  142.4900   79.2910  223.0620 C   0  0  0  0  0  0  0  0  0  0  0  0
  143.5223   78.9979  222.8203 H   0  0  0  0  0  0  0  0  0  0  0  0
  142.0228   78.5466  223.7235 H   0  0  0  0  0  0  0  0  0  0  0  0
  139.4950   73.5910  222.3480 N   0  0  0  0  0  0  0  0  0  0  0  0
  138.5680   73.7650  222.7960 H   0  0  0  0  0  0  0  0  0  0  0  0
  138.5370   70.7330  223.4140 C   0  0  0  0  0  0  0  0  0  0  0  0
  138.1801   70.8854  222.3847 H   0  0  0  0  0  0  0  0  0  0  0  0
  137.7499   71.0418  224.1177 H   0  0  0  0  0  0  0  0  0  0  0  0
  138.8710   69.2600  223.6270 C   0  0  0  0  0  0  0  0  0  0  0  0
  139.5082   68.9140  222.7998 H   0  0  0  0  0  0  0  0  0  0  0  0
  137.9296   68.6918  223.6576 H   0  0  0  0  0  0  0  0  0  0  0  0
  1  2  1  0
  2  3  2  0
  3  4  1  0
  3  5  1  0
  5  6  1  0
  5  7  2  0
  7  8  1  0
  8  9  2  0
  9 10  1  0
  8 11  1  0
 11 12  1  0
 11 13  1  0
 11 14  1  0
 14 15  1  0
 15 16  2  0
 16 17  1  0
 17 18  1  0
 18 19  1  0
 19 20  1  0
 19 21  1  0
 19 22  1  0
 22 23  1  0
 22 24  1  0
 22 25  1  0
 25 26  1  0
 25 27  1  0
 27 28  1  0
 27 29  1  0
 27 30  1  0
 30 31  1  0
 30 32  1  0
 17 33  2  0
 33 34  1  0
 34 35  2  0
 35 36  1  0
 36 37  1  0
 36 38  1  0
 36 39  1  0
 39 40  1  0
 39 41  1  0
 39 42  1  0
 42 43  1  0
 42 44  1  0
 42 45  1  0
 45 46  1  0
 46 47  1  0
 46 48  1  0
 46 49  1  0
 49 50  1  0
 49 51  1  0
 49 52  1  0
 52 53  1  0
 53 54  1  0
 53 55  1  0
 53 56  1  0
 56 57  1  0
 56 58  1  0
 34 59  1  0
 59 60  1  0
 14 61  1  0
 61 62  1  0
 61 63  1  0
 61 64  1  0
 64 65  1  0
 64 66  1  0
  9  2  1  0
 59 15  1  0
 64  7  1  0
 30 18  1  0
 56 45  1  0
M  END
>  <UniqueID>  (55) 
727

>  <SMILES>  (55) 
c1ccc2c(c1)CCN(c1nc(N3CCNCC3)n/c(=N\CCCN3CCOCC3)[nH]1)C2

>  <Energy>  (55) 
83.7077518671416

>  <Genealogy>  (55) 
c1ccc2c(c1)CCN(c1nc(N3CCNCC3)nc(=NCCCN3CCOCC3)[nH]1)C2 (tautomer)
c1ccc2c(c1)CCN(c1nc(N3CCNCC3)n/c(=N\CCCN3CCOCC3)[nH]1)C2 (cis-trans isomerization)
c1ccc2c(c1)CCN(c1nc(N3CCNCC3)n/c(=N\CCCN3CCOCC3)[nH]1)C2 (3D coordinates assigned)
c1ccc2c(c1)CCN(c1nc(N3CCNCC3)n/c(=N\CCCN3CCOCC3)[nH]1)C2 (nonaromatic ring conformer: 83.7077518671416 kcal/mol)

>  <smiles>  (55) 
c1ccc2c(c1)CCN(c1nc(NCCCN3CCOCC3)nc(N3CCNCC3)n1)C2

>  <score_type>  (55) 
oracle

>  <origin>  (55) 
autodockgpu

>  <m_score__min__energy>  (55) 
-9.3100000000000005

>  <m_primary>  (55) 
energy

>  <meeko>  (55) 
{"free_energy": -9.1, "intermolecular_energy": -11.19, "internal_energy": -0.86, "cluster_size": 8, "cluster_id": 2, "rank_in_cluster": 4}

>  <energy>  (55) 
-8.86

>  <cluster_rmsd>  (55) 
0.98

>  <rmsd>  (55) 
271.41

>  <cluster>  (55) 
2

$$$$
RYCKWQXGCGPPJB-JLFMESFVNA-N
     RDKit          3D

 66 70  0  0  0  0  0  0  0  0999 V2000
  141.6069   81.6095  223.4073 H   0  0  0  0  0  0  0  0  0  0  0  0
  140.9470   80.7410  223.2650 C   0  0  0  0  0  0  0  0  0  0  0  0
  139.6590   80.7500  223.8000 C   0  0  0  0  0  0  0  0  0  0  0  0
  139.3070   81.6229  224.3693 H   0  0  0  0  0  0  0  0  0  0  0  0
  138.8150   79.6520  223.6140 C   0  0  0  0  0  0  0  0  0  0  0  0
  137.8023   79.6624  224.0433 H   0  0  0  0  0  0  0  0  0  0  0  0
  139.2510   78.5360  222.8830 C   0  0  0  0  0  0  0  0  0  0  0  0
  140.5690   78.5150  222.3660 C   0  0  0  0  0  0  0  0  0  0  0  0
  141.4000   79.6310  222.5490 C   0  0  0  0  0  0  0  0  0  0  0  0
  142.4152   79.6314  222.1255 H   0  0  0  0  0  0  0  0  0  0  0  0
  141.0910   77.3350  221.5770 C   0  0  0  0  0  0  0  0  0  0  0  0
  142.0711   77.0408  221.9804 H   0  0  0  0  0  0  0  0  0  0  0  0
  141.1758   77.6355  220.5222 H   0  0  0  0  0  0  0  0  0  0  0  0
  140.1800   76.1900  221.6570 N   0  0  0  0  0  0  0  0  0  0  0  0
  140.7020   74.8470  221.6160 C   0  0  0  0  0  0  0  0  0  0  0  0
  141.8670   74.5990  220.9590 N   0  0  0  0  0  0  0  0  0  0  0  0
  142.3980   73.3490  220.9330 C   0  0  0  0  0  0  0  0  0  0  0  0
  143.6310   73.0870  220.2340 N   0  0  0  0  0  0  0  0  0  0  0  0
  143.6580   72.1990  219.0610 C   0  0  0  0  0  0  0  0  0  0  0  0
  142.7963   71.5172  219.1115 H   0  0  0  0  0  0  0  0  0  0  0  0
  143.6159   72.8261  218.1582 H   0  0  0  0  0  0  0  0  0  0  0  0
  144.9580   71.3590  219.0010 C   0  0  0  0  0  0  0  0  0  0  0  0
  144.7468   70.3686  219.4306 H   0  0  0  0  0  0  0  0  0  0  0  0
  145.2529   71.3157  217.9422 H   0  0  0  0  0  0  0  0  0  0  0  0
  146.1000   71.9430  219.7300 N   0  0  0  0  0  0  0  0  0  0  0  0
  146.0950   71.5820  220.7130 H   0  0  0  0  0  0  0  0  0  0  0  0
  146.0380   73.4070  219.7720 C   0  0  0  0  0  0  0  0  0  0  0  0
  146.9584   73.7985  220.2298 H   0  0  0  0  0  0  0  0  0  0  0  0
  145.9391   73.7959  218.7478 H   0  0  0  0  0  0  0  0  0  0  0  0
  144.8300   73.8510  220.6000 C   0  0  0  0  0  0  0  0  0  0  0  0
  145.0467   73.6910  221.6665 H   0  0  0  0  0  0  0  0  0  0  0  0
  144.6410   74.9161  220.4004 H   0  0  0  0  0  0  0  0  0  0  0  0
  141.7530   72.3420  221.5740 N   0  0  0  0  0  0  0  0  0  0  0  0
  140.5890   72.5710  222.2330 C   0  0  0  0  0  0  0  0  0  0  0  0
  139.9550   71.5970  222.8180 N   0  0  0  0  0  0  0  0  0  0  0  0
  138.4990   71.4780  222.8880 C   0  0  0  0  0  0  0  0  0  0  0  0
  138.0691   72.4498  223.1720 H   0  0  0  0  0  0  0  0  0  0  0  0
  138.1182   71.1698  221.9031 H   0  0  0  0  0  0  0  0  0  0  0  0
  138.0990   70.4260  223.9270 C   0  0  0  0  0  0  0  0  0  0  0  0
  137.4634   70.9051  224.6862 H   0  0  0  0  0  0  0  0  0  0  0  0
  137.5655   69.6226  223.3979 H   0  0  0  0  0  0  0  0  0  0  0  0
  139.3140   69.7930  224.6300 C   0  0  0  0  0  0  0  0  0  0  0  0
  139.1214   68.7205  224.7806 H   0  0  0  0  0  0  0  0  0  0  0  0
  140.1991   69.9458  223.9950 H   0  0  0  0  0  0  0  0  0  0  0  0
  139.5690   70.4250  225.9430 N   0  0  0  0  0  0  0  0  0  0  0  0
  139.9250   69.4340  226.9750 C   0  0  0  0  0  0  0  0  0  0  0  0
  139.1345   68.6717  227.0385 H   0  0  0  0  0  0  0  0  0  0  0  0
  140.8785   68.9551  226.7074 H   0  0  0  0  0  0  0  0  0  0  0  0
  140.0710   70.1370  228.3410 C   0  0  0  0  0  0  0  0  0  0  0  0
  139.2017   69.8805  228.9643 H   0  0  0  0  0  0  0  0  0  0  0  0
  141.0112   69.7914  228.7956 H   0  0  0  0  0  0  0  0  0  0  0  0
  140.1440   71.5500  228.2210 O   0  0  0  0  0  0  0  0  0  0  0  0
  141.0980   71.8990  227.2410 C   0  0  0  0  0  0  0  0  0  0  0  0
  141.2350   72.9904  227.2421 H   0  0  0  0  0  0  0  0  0  0  0  0
  142.0480   71.3965  227.4755 H   0  0  0  0  0  0  0  0  0  0  0  0
  140.6280   71.4480  225.8420 C   0  0  0  0  0  0  0  0  0  0  0  0
  140.2357   72.3189  225.2964 H   0  0  0  0  0  0  0  0  0  0  0  0
  141.4856   71.0125  225.3082 H   0  0  0  0  0  0  0  0  0  0  0  0
  140.0700   73.8260  222.2640 N   0  0  0  0  0  0  0  0  0  0  0  0
  139.2000   74.0040  222.8150 H   0  0  0  0  0  0  0  0  0  0  0  0
  138.7440   76.4660  221.5650 C   0  0  0  0  0  0  0  0  0  0  0  0
  138.1834   75.5202  221.5987 H   0  0  0  0  0  0  0  0  0  0  0  0
  138.5238   76.9816  220.6186 H   0  0  0  0  0  0  0  0  0  0  0  0
  138.3330   77.3470  222.7410 C   0  0  0  0  0  0  0  0  0  0  0  0
  138.3720   76.7519  223.6653 H   0  0  0  0  0  0  0  0  0  0  0  0
  137.3130   77.7160  222.5583 H   0  0  0  0  0  0  0  0  0  0  0  0
  1  2  1  0
  2  3  2  0
  3  4  1  0
  3  5  1  0
  5  6  1  0
  5  7  2  0
  7  8  1  0
  8  9  2  0
  9 10  1  0
  8 11  1  0
 11 12  1  0
 11 13  1  0
 11 14  1  0
 14 15  1  0
 15 16  2  0
 16 17  1  0
 17 18  1  0
 18 19  1  0
 19 20  1  0
 19 21  1  0
 19 22  1  0
 22 23  1  0
 22 24  1  0
 22 25  1  0
 25 26  1  0
 25 27  1  0
 27 28  1  0
 27 29  1  0
 27 30  1  0
 30 31  1  0
 30 32  1  0
 17 33  2  0
 33 34  1  0
 34 35  2  0
 35 36  1  0
 36 37  1  0
 36 38  1  0
 36 39  1  0
 39 40  1  0
 39 41  1  0
 39 42  1  0
 42 43  1  0
 42 44  1  0
 42 45  1  0
 45 46  1  0
 46 47  1  0
 46 48  1  0
 46 49  1  0
 49 50  1  0
 49 51  1  0
 49 52  1  0
 52 53  1  0
 53 54  1  0
 53 55  1  0
 53 56  1  0
 56 57  1  0
 56 58  1  0
 34 59  1  0
 59 60  1  0
 14 61  1  0
 61 62  1  0
 61 63  1  0
 61 64  1  0
 64 65  1  0
 64 66  1  0
  9  2  1  0
 59 15  1  0
 64  7  1  0
 30 18  1  0
 56 45  1  0
M  END
>  <UniqueID>  (56) 
727

>  <SMILES>  (56) 
c1ccc2c(c1)CCN(c1nc(N3CCNCC3)n/c(=N\CCCN3CCOCC3)[nH]1)C2

>  <Energy>  (56) 
83.7077518671416

>  <Genealogy>  (56) 
c1ccc2c(c1)CCN(c1nc(N3CCNCC3)nc(=NCCCN3CCOCC3)[nH]1)C2 (tautomer)
c1ccc2c(c1)CCN(c1nc(N3CCNCC3)n/c(=N\CCCN3CCOCC3)[nH]1)C2 (cis-trans isomerization)
c1ccc2c(c1)CCN(c1nc(N3CCNCC3)n/c(=N\CCCN3CCOCC3)[nH]1)C2 (3D coordinates assigned)
c1ccc2c(c1)CCN(c1nc(N3CCNCC3)n/c(=N\CCCN3CCOCC3)[nH]1)C2 (nonaromatic ring conformer: 83.7077518671416 kcal/mol)

>  <smiles>  (56) 
c1ccc2c(c1)CCN(c1nc(NCCCN3CCOCC3)nc(N3CCNCC3)n1)C2

>  <score_type>  (56) 
oracle

>  <origin>  (56) 
autodockgpu

>  <m_score__min__energy>  (56) 
-9.3100000000000005

>  <m_primary>  (56) 
energy

>  <meeko>  (56) 
{"free_energy": -8.95, "intermolecular_energy": -11.04, "internal_energy": -0.82, "cluster_size": 7, "cluster_id": 1, "rank_in_cluster": 6}

>  <energy>  (56) 
-7.3

>  <cluster_rmsd>  (56) 
0.0

>  <rmsd>  (56) 
270.46

>  <cluster>  (56) 
3

$$$$
RYCKWQXGCGPPJB-JLFMESFVNA-N
     RDKit          3D

 66 70  0  0  0  0  0  0  0  0999 V2000
  141.4949   68.8955  228.7363 H   0  0  0  0  0  0  0  0  0  0  0  0
  141.0230   68.9220  227.7430 C   0  0  0  0  0  0  0  0  0  0  0  0
  140.5870   67.7380  227.1470 C   0  0  0  0  0  0  0  0  0  0  0  0
  140.7224   66.7787  227.6680 H   0  0  0  0  0  0  0  0  0  0  0  0
  139.9790   67.7690  225.8900 C   0  0  0  0  0  0  0  0  0  0  0  0
  139.6421   66.8319  225.4228 H   0  0  0  0  0  0  0  0  0  0  0  0
  139.7950   68.9880  225.2190 C   0  0  0  0  0  0  0  0  0  0  0  0
  140.2650   70.1860  225.8110 C   0  0  0  0  0  0  0  0  0  0  0  0
  140.8610   70.1410  227.0800 C   0  0  0  0  0  0  0  0  0  0  0  0
  141.2031   71.0717  227.5563 H   0  0  0  0  0  0  0  0  0  0  0  0
  140.0980   71.5250  225.1280 C   0  0  0  0  0  0  0  0  0  0  0  0
  141.0632   72.0526  225.1352 H   0  0  0  0  0  0  0  0  0  0  0  0
  139.3341   72.0979  225.6742 H   0  0  0  0  0  0  0  0  0  0  0  0
  139.6510   71.3690  223.7410 N   0  0  0  0  0  0  0  0  0  0  0  0
  140.0600   72.3200  222.7380 C   0  0  0  0  0  0  0  0  0  0  0  0
  141.2850   72.2010  222.1600 N   0  0  0  0  0  0  0  0  0  0  0  0
  141.6830   73.0640  221.1890 C   0  0  0  0  0  0  0  0  0  0  0  0
  142.9840   72.9380  220.5800 N   0  0  0  0  0  0  0  0  0  0  0  0
  143.2550   71.8780  219.5970 C   0  0  0  0  0  0  0  0  0  0  0  0
  142.5427   71.0550  219.7561 H   0  0  0  0  0  0  0  0  0  0  0  0
  143.1444   72.3095  218.5913 H   0  0  0  0  0  0  0  0  0  0  0  0
  144.6960   71.3250  219.7260 C   0  0  0  0  0  0  0  0  0  0  0  0
  144.6581   70.4063  220.3298 H   0  0  0  0  0  0  0  0  0  0  0  0
  145.0568   71.1532  218.7012 H   0  0  0  0  0  0  0  0  0  0  0  0
  145.6550   72.2510  220.3570 N   0  0  0  0  0  0  0  0  0  0  0  0
  145.6610   72.0800  221.3910 H   0  0  0  0  0  0  0  0  0  0  0  0
  145.3040   73.6550  220.1220 C   0  0  0  0  0  0  0  0  0  0  0  0
  146.1002   74.3017  220.5193 H   0  0  0  0  0  0  0  0  0  0  0  0
  145.1926   73.8249  219.0409 H   0  0  0  0  0  0  0  0  0  0  0  0
  143.9850   73.9850  220.8230 C   0  0  0  0  0  0  0  0  0  0  0  0
  144.1636   74.0678  221.9052 H   0  0  0  0  0  0  0  0  0  0  0  0
  143.6029   74.9353  220.4219 H   0  0  0  0  0  0  0  0  0  0  0  0
  140.8400   74.0520  220.7960 N   0  0  0  0  0  0  0  0  0  0  0  0
  139.6140   74.1870  221.3620 C   0  0  0  0  0  0  0  0  0  0  0  0
  138.8220   75.1560  221.0070 N   0  0  0  0  0  0  0  0  0  0  0  0
  138.8580   76.5050  221.5700 C   0  0  0  0  0  0  0  0  0  0  0  0
  139.9021   76.7858  221.7724 H   0  0  0  0  0  0  0  0  0  0  0  0
  138.4120   77.2053  220.8485 H   0  0  0  0  0  0  0  0  0  0  0  0
  138.0580   76.5590  222.8760 C   0  0  0  0  0  0  0  0  0  0  0  0
  138.5801   75.9563  223.6337 H   0  0  0  0  0  0  0  0  0  0  0  0
  137.9834   77.6145  223.1765 H   0  0  0  0  0  0  0  0  0  0  0  0
  136.6250   76.0180  222.7180 C   0  0  0  0  0  0  0  0  0  0  0  0
  136.0094   76.3870  223.5516 H   0  0  0  0  0  0  0  0  0  0  0  0
  136.2277   76.3680  221.7538 H   0  0  0  0  0  0  0  0  0  0  0  0
  136.6020   74.5400  222.7210 N   0  0  0  0  0  0  0  0  0  0  0  0
  135.7900   74.0010  223.8280 C   0  0  0  0  0  0  0  0  0  0  0  0
  136.1609   74.4017  224.7829 H   0  0  0  0  0  0  0  0  0  0  0  0
  134.7396   74.2961  223.6879 H   0  0  0  0  0  0  0  0  0  0  0  0
  135.8920   72.4610  223.8430 C   0  0  0  0  0  0  0  0  0  0  0  0
  136.5238   72.1579  224.6909 H   0  0  0  0  0  0  0  0  0  0  0  0
  134.8717   72.0601  223.9340 H   0  0  0  0  0  0  0  0  0  0  0  0
  136.4540   71.9400  222.6480 O   0  0  0  0  0  0  0  0  0  0  0  0
  135.8050   72.5050  221.5290 C   0  0  0  0  0  0  0  0  0  0  0  0
  136.1600   72.0062  220.6152 H   0  0  0  0  0  0  0  0  0  0  0  0
  134.7196   72.3662  221.6411 H   0  0  0  0  0  0  0  0  0  0  0  0
  136.1060   74.0150  221.4320 C   0  0  0  0  0  0  0  0  0  0  0  0
  136.8701   74.1805  220.6582 H   0  0  0  0  0  0  0  0  0  0  0  0
  135.1756   74.5419  221.1738 H   0  0  0  0  0  0  0  0  0  0  0  0
  139.2190   73.3120  222.3250 N   0  0  0  0  0  0  0  0  0  0  0  0
  138.2560   73.3930  222.7200 H   0  0  0  0  0  0  0  0  0  0  0  0
  138.6250   70.3560  223.4750 C   0  0  0  0  0  0  0  0  0  0  0  0
  138.3568   70.3735  222.4084 H   0  0  0  0  0  0  0  0  0  0  0  0
  137.7280   70.5678  224.0754 H   0  0  0  0  0  0  0  0  0  0  0  0
  139.1790   68.9830  223.8410 C   0  0  0  0  0  0  0  0  0  0  0  0
  139.9471   68.6994  223.1065 H   0  0  0  0  0  0  0  0  0  0  0  0
  138.3487   68.2615  223.8352 H   0  0  0  0  0  0  0  0  0  0  0  0
  1  2  1  0
  2  3  2  0
  3  4  1  0
  3  5  1  0
  5  6  1  0
  5  7  2  0
  7  8  1  0
  8  9  2  0
  9 10  1  0
  8 11  1  0
 11 12  1  0
 11 13  1  0
 11 14  1  0
 14 15  1  0
 15 16  2  0
 16 17  1  0
 17 18  1  0
 18 19  1  0
 19 20  1  0
 19 21  1  0
 19 22  1  0
 22 23  1  0
 22 24  1  0
 22 25  1  0
 25 26  1  0
 25 27  1  0
 27 28  1  0
 27 29  1  0
 27 30  1  0
 30 31  1  0
 30 32  1  0
 17 33  2  0
 33 34  1  0
 34 35  2  0
 35 36  1  0
 36 37  1  0
 36 38  1  0
 36 39  1  0
 39 40  1  0
 39 41  1  0
 39 42  1  0
 42 43  1  0
 42 44  1  0
 42 45  1  0
 45 46  1  0
 46 47  1  0
 46 48  1  0
 46 49  1  0
 49 50  1  0
 49 51  1  0
 49 52  1  0
 52 53  1  0
 53 54  1  0
 53 55  1  0
 53 56  1  0
 56 57  1  0
 56 58  1  0
 34 59  1  0
 59 60  1  0
 14 61  1  0
 61 62  1  0
 61 63  1  0
 61 64  1  0
 64 65  1  0
 64 66  1  0
  9  2  1  0
 59 15  1  0
 64  7  1  0
 30 18  1  0
 56 45  1  0
M  END
>  <UniqueID>  (57) 
727

>  <SMILES>  (57) 
c1ccc2c(c1)CCN(c1nc(N3CCNCC3)n/c(=N\CCCN3CCOCC3)[nH]1)C2

>  <Energy>  (57) 
83.7077518671416

>  <Genealogy>  (57) 
c1ccc2c(c1)CCN(c1nc(N3CCNCC3)nc(=NCCCN3CCOCC3)[nH]1)C2 (tautomer)
c1ccc2c(c1)CCN(c1nc(N3CCNCC3)n/c(=N\CCCN3CCOCC3)[nH]1)C2 (cis-trans isomerization)
c1ccc2c(c1)CCN(c1nc(N3CCNCC3)n/c(=N\CCCN3CCOCC3)[nH]1)C2 (3D coordinates assigned)
c1ccc2c(c1)CCN(c1nc(N3CCNCC3)n/c(=N\CCCN3CCOCC3)[nH]1)C2 (nonaromatic ring conformer: 83.7077518671416 kcal/mol)

>  <smiles>  (57) 
c1ccc2c(c1)CCN(c1nc(NCCCN3CCOCC3)nc(N3CCNCC3)n1)C2

>  <score_type>  (57) 
oracle

>  <origin>  (57) 
autodockgpu

>  <m_score__min__energy>  (57) 
-9.3100000000000005

>  <m_primary>  (57) 
energy

>  <meeko>  (57) 
{"free_energy": -7.09, "intermolecular_energy": -9.17, "internal_energy": -2.59, "cluster_size": 5, "cluster_id": 3, "rank_in_cluster": 5}

>  <energy>  (57) 
-7.26

>  <cluster_rmsd>  (57) 
0.94

>  <rmsd>  (57) 
270.43

>  <cluster>  (57) 
3

$$$$
RYCKWQXGCGPPJB-JLFMESFVNA-N
     RDKit          3D

 66 70  0  0  0  0  0  0  0  0999 V2000
  143.2689   81.6790  223.2045 H   0  0  0  0  0  0  0  0  0  0  0  0
  142.4450   80.9540  223.1300 C   0  0  0  0  0  0  0  0  0  0  0  0
  141.2680   81.1610  223.8500 C   0  0  0  0  0  0  0  0  0  0  0  0
  141.1675   82.0459  224.4957 H   0  0  0  0  0  0  0  0  0  0  0  0
  140.2170   80.2460  223.7520 C   0  0  0  0  0  0  0  0  0  0  0  0
  139.2940   80.4104  224.3274 H   0  0  0  0  0  0  0  0  0  0  0  0
  140.3310   79.1180  222.9240 C   0  0  0  0  0  0  0  0  0  0  0  0
  141.5370   78.8930  222.2160 C   0  0  0  0  0  0  0  0  0  0  0  0
  142.5790   79.8280  222.3150 C   0  0  0  0  0  0  0  0  0  0  0  0
  143.5078   79.6727  221.7465 H   0  0  0  0  0  0  0  0  0  0  0  0
  141.7150   77.6910  221.3170 C   0  0  0  0  0  0  0  0  0  0  0  0
  142.6696   77.2014  221.5598 H   0  0  0  0  0  0  0  0  0  0  0  0
  141.7065   78.0369  220.2728 H   0  0  0  0  0  0  0  0  0  0  0  0
  140.6260   76.7240  221.4900 N   0  0  0  0  0  0  0  0  0  0  0  0
  140.8780   75.3150  221.3230 C   0  0  0  0  0  0  0  0  0  0  0  0
  142.0940   74.8970  220.8830 N   0  0  0  0  0  0  0  0  0  0  0  0
  142.3680   73.5730  220.7480 C   0  0  0  0  0  0  0  0  0  0  0  0
  143.6580   73.1330  220.2780 N   0  0  0  0  0  0  0  0  0  0  0  0
  144.8220   73.1150  221.1780 C   0  0  0  0  0  0  0  0  0  0  0  0
  144.6519   73.8332  221.9936 H   0  0  0  0  0  0  0  0  0  0  0  0
  144.9361   72.0925  221.5671 H   0  0  0  0  0  0  0  0  0  0  0  0
  146.1290   73.4960  220.4400 C   0  0  0  0  0  0  0  0  0  0  0  0
  146.3249   74.5636  220.6184 H   0  0  0  0  0  0  0  0  0  0  0  0
  146.9156   72.8397  220.8408 H   0  0  0  0  0  0  0  0  0  0  0  0
  146.1000   73.2710  218.9820 N   0  0  0  0  0  0  0  0  0  0  0  0
  145.7600   74.1440  218.5110 H   0  0  0  0  0  0  0  0  0  0  0  0
  145.2080   72.1680  218.6120 C   0  0  0  0  0  0  0  0  0  0  0  0
  145.2996   71.9705  217.5338 H   0  0  0  0  0  0  0  0  0  0  0  0
  145.4889   71.2684  219.1793 H   0  0  0  0  0  0  0  0  0  0  0  0
  143.7600   72.5390  218.9390 C   0  0  0  0  0  0  0  0  0  0  0  0
  143.3978   73.2641  218.1953 H   0  0  0  0  0  0  0  0  0  0  0  0
  143.1499   71.6240  218.9143 H   0  0  0  0  0  0  0  0  0  0  0  0
  141.4120   72.6640  221.0620 N   0  0  0  0  0  0  0  0  0  0  0  0
  140.1910   73.0630  221.5020 C   0  0  0  0  0  0  0  0  0  0  0  0
  139.2640   72.1890  221.7690 N   0  0  0  0  0  0  0  0  0  0  0  0
  139.0370   71.5980  223.0880 C   0  0  0  0  0  0  0  0  0  0  0  0
  138.2097   72.1260  223.5847 H   0  0  0  0  0  0  0  0  0  0  0  0
  138.7854   70.5343  222.9649 H   0  0  0  0  0  0  0  0  0  0  0  0
  140.3000   71.7150  223.9480 C   0  0  0  0  0  0  0  0  0  0  0  0
  141.1549   71.9315  223.2905 H   0  0  0  0  0  0  0  0  0  0  0  0
  140.1330   72.5223  224.6763 H   0  0  0  0  0  0  0  0  0  0  0  0
  140.6000   70.4290  224.7390 C   0  0  0  0  0  0  0  0  0  0  0  0
  140.0521   69.5919  224.2817 H   0  0  0  0  0  0  0  0  0  0  0  0
  141.6849   70.2497  224.7084 H   0  0  0  0  0  0  0  0  0  0  0  0
  140.1900   70.5560  226.1540 N   0  0  0  0  0  0  0  0  0  0  0  0
  140.3780   69.2990  226.9010 C   0  0  0  0  0  0  0  0  0  0  0  0
  139.8353   68.4874  226.3943 H   0  0  0  0  0  0  0  0  0  0  0  0
  141.4499   69.0556  226.9424 H   0  0  0  0  0  0  0  0  0  0  0  0
  139.8340   69.4630  228.3360 C   0  0  0  0  0  0  0  0  0  0  0  0
  138.8909   68.9033  228.4212 H   0  0  0  0  0  0  0  0  0  0  0  0
  140.5981   69.0786  229.0277 H   0  0  0  0  0  0  0  0  0  0  0  0
  139.5900   70.8190  228.6760 O   0  0  0  0  0  0  0  0  0  0  0  0
  140.7180   71.6040  228.3500 C   0  0  0  0  0  0  0  0  0  0  0  0
  140.5683   72.6264  228.7271 H   0  0  0  0  0  0  0  0  0  0  0  0
  141.6089   71.1546  228.8130 H   0  0  0  0  0  0  0  0  0  0  0  0
  140.9220   71.6520  226.8210 C   0  0  0  0  0  0  0  0  0  0  0  0
  140.5532   72.6154  226.4391 H   0  0  0  0  0  0  0  0  0  0  0  0
  141.9949   71.5376  226.6071 H   0  0  0  0  0  0  0  0  0  0  0  0
  139.9280   74.3880  221.6440 N   0  0  0  0  0  0  0  0  0  0  0  0
  139.0040   74.6850  222.0310 H   0  0  0  0  0  0  0  0  0  0  0  0
  139.2680   77.2590  221.6220 C   0  0  0  0  0  0  0  0  0  0  0  0
  138.5506   76.4291  221.7033 H   0  0  0  0  0  0  0  0  0  0  0  0
  139.0191   77.8651  220.7384 H   0  0  0  0  0  0  0  0  0  0  0  0
  139.1960   78.1230  222.8780 C   0  0  0  0  0  0  0  0  0  0  0  0
  139.2527   77.4733  223.7638 H   0  0  0  0  0  0  0  0  0  0  0  0
  138.2468   78.6787  222.8638 H   0  0  0  0  0  0  0  0  0  0  0  0
  1  2  1  0
  2  3  2  0
  3  4  1  0
  3  5  1  0
  5  6  1  0
  5  7  2  0
  7  8  1  0
  8  9  2  0
  9 10  1  0
  8 11  1  0
 11 12  1  0
 11 13  1  0
 11 14  1  0
 14 15  1  0
 15 16  2  0
 16 17  1  0
 17 18  1  0
 18 19  1  0
 19 20  1  0
 19 21  1  0
 19 22  1  0
 22 23  1  0
 22 24  1  0
 22 25  1  0
 25 26  1  0
 25 27  1  0
 27 28  1  0
 27 29  1  0
 27 30  1  0
 30 31  1  0
 30 32  1  0
 17 33  2  0
 33 34  1  0
 34 35  2  0
 35 36  1  0
 36 37  1  0
 36 38  1  0
 36 39  1  0
 39 40  1  0
 39 41  1  0
 39 42  1  0
 42 43  1  0
 42 44  1  0
 42 45  1  0
 45 46  1  0
 46 47  1  0
 46 48  1  0
 46 49  1  0
 49 50  1  0
 49 51  1  0
 49 52  1  0
 52 53  1  0
 53 54  1  0
 53 55  1  0
 53 56  1  0
 56 57  1  0
 56 58  1  0
 34 59  1  0
 59 60  1  0
 14 61  1  0
 61 62  1  0
 61 63  1  0
 61 64  1  0
 64 65  1  0
 64 66  1  0
  9  2  1  0
 59 15  1  0
 64  7  1  0
 30 18  1  0
 56 45  1  0
M  END
>  <UniqueID>  (58) 
727

>  <SMILES>  (58) 
c1ccc2c(c1)CCN(c1nc(N3CCNCC3)n/c(=N\CCCN3CCOCC3)[nH]1)C2

>  <Energy>  (58) 
83.7077518671416

>  <Genealogy>  (58) 
c1ccc2c(c1)CCN(c1nc(N3CCNCC3)nc(=NCCCN3CCOCC3)[nH]1)C2 (tautomer)
c1ccc2c(c1)CCN(c1nc(N3CCNCC3)n/c(=N\CCCN3CCOCC3)[nH]1)C2 (cis-trans isomerization)
c1ccc2c(c1)CCN(c1nc(N3CCNCC3)n/c(=N\CCCN3CCOCC3)[nH]1)C2 (3D coordinates assigned)
c1ccc2c(c1)CCN(c1nc(N3CCNCC3)n/c(=N\CCCN3CCOCC3)[nH]1)C2 (nonaromatic ring conformer: 83.7077518671416 kcal/mol)

>  <smiles>  (58) 
c1ccc2c(c1)CCN(c1nc(NCCCN3CCOCC3)nc(N3CCNCC3)n1)C2

>  <score_type>  (58) 
oracle

>  <origin>  (58) 
autodockgpu

>  <m_score__min__energy>  (58) 
-9.3100000000000005

>  <m_primary>  (58) 
energy

>  <meeko>  (58) 
{"free_energy": -9.12, "intermolecular_energy": -11.21, "internal_energy": -0.8, "cluster_size": 7, "cluster_id": 1, "rank_in_cluster": 2}

>  <energy>  (58) 
-7.25

>  <cluster_rmsd>  (58) 
0.96

>  <rmsd>  (58) 
270.44

>  <cluster>  (58) 
3

$$$$
RYCKWQXGCGPPJB-JLFMESFVNA-N
     RDKit          3D

 66 70  0  0  0  0  0  0  0  0999 V2000
  142.6389   81.5871  223.1035 H   0  0  0  0  0  0  0  0  0  0  0  0
  141.8710   80.8020  223.0400 C   0  0  0  0  0  0  0  0  0  0  0  0
  140.6530   80.9650  223.6980 C   0  0  0  0  0  0  0  0  0  0  0  0
  140.4643   81.8753  224.2861 H   0  0  0  0  0  0  0  0  0  0  0  0
  139.6710   79.9740  223.6120 C   0  0  0  0  0  0  0  0  0  0  0  0
  138.7138   80.1058  224.1377 H   0  0  0  0  0  0  0  0  0  0  0  0
  139.8990   78.8120  222.8590 C   0  0  0  0  0  0  0  0  0  0  0  0
  141.1480   78.6330  222.2150 C   0  0  0  0  0  0  0  0  0  0  0  0
  142.1180   79.6430  222.3000 C   0  0  0  0  0  0  0  0  0  0  0  0
  143.0799   79.5215  221.7803 H   0  0  0  0  0  0  0  0  0  0  0  0
  141.4470   77.3970  221.3980 C   0  0  0  0  0  0  0  0  0  0  0  0
  142.4207   76.9904  221.7088 H   0  0  0  0  0  0  0  0  0  0  0  0
  141.4616   77.6817  220.3356 H   0  0  0  0  0  0  0  0  0  0  0  0
  140.4210   76.3680  221.5830 N   0  0  0  0  0  0  0  0  0  0  0  0
  140.7750   74.9720  221.5120 C   0  0  0  0  0  0  0  0  0  0  0  0
  141.9570   74.6070  220.9480 N   0  0  0  0  0  0  0  0  0  0  0  0
  142.3300   73.3020  220.8970 C   0  0  0  0  0  0  0  0  0  0  0  0
  143.5830   72.9170  220.2960 N   0  0  0  0  0  0  0  0  0  0  0  0
  144.7970   72.7680  221.1140 C   0  0  0  0  0  0  0  0  0  0  0  0
  144.6867   73.3715  222.0270 H   0  0  0  0  0  0  0  0  0  0  0  0
  144.9163   71.7014  221.3551 H   0  0  0  0  0  0  0  0  0  0  0  0
  146.0650   73.2330  220.3570 C   0  0  0  0  0  0  0  0  0  0  0  0
  146.2893   74.2649  220.6649 H   0  0  0  0  0  0  0  0  0  0  0  0
  146.8623   72.5217  220.6182 H   0  0  0  0  0  0  0  0  0  0  0  0
  145.9470   73.2070  218.8870 N   0  0  0  0  0  0  0  0  0  0  0  0
  145.5960   74.1390  218.5590 H   0  0  0  0  0  0  0  0  0  0  0  0
  145.0170   72.1730  218.4260 C   0  0  0  0  0  0  0  0  0  0  0  0
  145.0430   72.1224  217.3275 H   0  0  0  0  0  0  0  0  0  0  0  0
  145.3148   71.2026  218.8497 H   0  0  0  0  0  0  0  0  0  0  0  0
  143.5970   72.5090  218.8850 C   0  0  0  0  0  0  0  0  0  0  0  0
  143.2048   73.3315  218.2687 H   0  0  0  0  0  0  0  0  0  0  0  0
  142.9708   71.6116  218.7733 H   0  0  0  0  0  0  0  0  0  0  0  0
  141.5080   72.3580  221.4200 N   0  0  0  0  0  0  0  0  0  0  0  0
  140.3240   72.7030  221.9850 C   0  0  0  0  0  0  0  0  0  0  0  0
  139.5220   71.7930  222.4550 N   0  0  0  0  0  0  0  0  0  0  0  0
  139.4690   71.3770  223.8560 C   0  0  0  0  0  0  0  0  0  0  0  0
  140.3057   71.8366  224.4026 H   0  0  0  0  0  0  0  0  0  0  0  0
  138.5113   71.7017  224.2889 H   0  0  0  0  0  0  0  0  0  0  0  0
  139.5720   69.8530  223.9640 C   0  0  0  0  0  0  0  0  0  0  0  0
  138.5612   69.4258  223.8880 H   0  0  0  0  0  0  0  0  0  0  0  0
  140.2232   69.5056  223.1484 H   0  0  0  0  0  0  0  0  0  0  0  0
  140.2030   69.3920  225.2910 C   0  0  0  0  0  0  0  0  0  0  0  0
  139.6971   68.4753  225.6282 H   0  0  0  0  0  0  0  0  0  0  0  0
  141.2736   69.2069  225.1189 H   0  0  0  0  0  0  0  0  0  0  0  0
  140.0730   70.4260  226.3390 N   0  0  0  0  0  0  0  0  0  0  0  0
  139.8120   69.8390  227.6670 C   0  0  0  0  0  0  0  0  0  0  0  0
  138.9180   69.2001  227.6156 H   0  0  0  0  0  0  0  0  0  0  0  0
  140.6783   69.2358  227.9765 H   0  0  0  0  0  0  0  0  0  0  0  0
  139.5790   70.9670  228.6950 C   0  0  0  0  0  0  0  0  0  0  0  0
  138.5080   71.0018  228.9433 H   0  0  0  0  0  0  0  0  0  0  0  0
  140.1932   70.7439  229.5799 H   0  0  0  0  0  0  0  0  0  0  0  0
  139.9740   72.2390  228.2070 O   0  0  0  0  0  0  0  0  0  0  0  0
  141.2730   72.1600  227.6610 C   0  0  0  0  0  0  0  0  0  0  0  0
  141.6170   73.1714  227.3987 H   0  0  0  0  0  0  0  0  0  0  0  0
  141.9448   71.7112  228.4075 H   0  0  0  0  0  0  0  0  0  0  0  0
  141.2770   71.2790  226.3950 C   0  0  0  0  0  0  0  0  0  0  0  0
  141.3004   71.9268  225.5063 H   0  0  0  0  0  0  0  0  0  0  0  0
  142.1647   70.6301  226.4229 H   0  0  0  0  0  0  0  0  0  0  0  0
  139.9630   74.0120  222.0420 N   0  0  0  0  0  0  0  0  0  0  0  0
  139.0730   74.2740  222.5230 H   0  0  0  0  0  0  0  0  0  0  0  0
  139.0250   76.8110  221.6280 C   0  0  0  0  0  0  0  0  0  0  0  0
  138.3639   75.9379  221.7311 H   0  0  0  0  0  0  0  0  0  0  0  0
  138.7740   77.3454  220.6999 H   0  0  0  0  0  0  0  0  0  0  0  0
  138.8380   77.7390  222.8250 C   0  0  0  0  0  0  0  0  0  0  0  0
  138.8977   77.1468  223.7501 H   0  0  0  0  0  0  0  0  0  0  0  0
  137.8554   78.2255  222.7366 H   0  0  0  0  0  0  0  0  0  0  0  0
  1  2  1  0
  2  3  2  0
  3  4  1  0
  3  5  1  0
  5  6  1  0
  5  7  2  0
  7  8  1  0
  8  9  2  0
  9 10  1  0
  8 11  1  0
 11 12  1  0
 11 13  1  0
 11 14  1  0
 14 15  1  0
 15 16  2  0
 16 17  1  0
 17 18  1  0
 18 19  1  0
 19 20  1  0
 19 21  1  0
 19 22  1  0
 22 23  1  0
 22 24  1  0
 22 25  1  0
 25 26  1  0
 25 27  1  0
 27 28  1  0
 27 29  1  0
 27 30  1  0
 30 31  1  0
 30 32  1  0
 17 33  2  0
 33 34  1  0
 34 35  2  0
 35 36  1  0
 36 37  1  0
 36 38  1  0
 36 39  1  0
 39 40  1  0
 39 41  1  0
 39 42  1  0
 42 43  1  0
 42 44  1  0
 42 45  1  0
 45 46  1  0
 46 47  1  0
 46 48  1  0
 46 49  1  0
 49 50  1  0
 49 51  1  0
 49 52  1  0
 52 53  1  0
 53 54  1  0
 53 55  1  0
 53 56  1  0
 56 57  1  0
 56 58  1  0
 34 59  1  0
 59 60  1  0
 14 61  1  0
 61 62  1  0
 61 63  1  0
 61 64  1  0
 64 65  1  0
 64 66  1  0
  9  2  1  0
 59 15  1  0
 64  7  1  0
 30 18  1  0
 56 45  1  0
M  END
>  <UniqueID>  (59) 
727

>  <SMILES>  (59) 
c1ccc2c(c1)CCN(c1nc(N3CCNCC3)n/c(=N\CCCN3CCOCC3)[nH]1)C2

>  <Energy>  (59) 
83.7077518671416

>  <Genealogy>  (59) 
c1ccc2c(c1)CCN(c1nc(N3CCNCC3)nc(=NCCCN3CCOCC3)[nH]1)C2 (tautomer)
c1ccc2c(c1)CCN(c1nc(N3CCNCC3)n/c(=N\CCCN3CCOCC3)[nH]1)C2 (cis-trans isomerization)
c1ccc2c(c1)CCN(c1nc(N3CCNCC3)n/c(=N\CCCN3CCOCC3)[nH]1)C2 (3D coordinates assigned)
c1ccc2c(c1)CCN(c1nc(N3CCNCC3)n/c(=N\CCCN3CCOCC3)[nH]1)C2 (nonaromatic ring conformer: 83.7077518671416 kcal/mol)

>  <smiles>  (59) 
c1ccc2c(c1)CCN(c1nc(NCCCN3CCOCC3)nc(N3CCNCC3)n1)C2

>  <score_type>  (59) 
oracle

>  <origin>  (59) 
autodockgpu

>  <m_score__min__energy>  (59) 
-9.3100000000000005

>  <m_primary>  (59) 
energy

>  <meeko>  (59) 
{"free_energy": -9.0, "intermolecular_energy": -11.08, "internal_energy": -0.69, "cluster_size": 7, "cluster_id": 1, "rank_in_cluster": 5}

>  <energy>  (59) 
-7.11

>  <cluster_rmsd>  (59) 
0.23

>  <rmsd>  (59) 
270.44

>  <cluster>  (59) 
3

$$$$
RYCKWQXGCGPPJB-JLFMESFVNA-N
     RDKit          3D

 66 70  0  0  0  0  0  0  0  0999 V2000
  141.4473   68.2960  228.1576 H   0  0  0  0  0  0  0  0  0  0  0  0
  140.9410   68.5240  227.2080 C   0  0  0  0  0  0  0  0  0  0  0  0
  140.2180   67.5300  226.5480 C   0  0  0  0  0  0  0  0  0  0  0  0
  140.1605   66.5178  226.9748 H   0  0  0  0  0  0  0  0  0  0  0  0
  139.5670   67.8180  225.3460 C   0  0  0  0  0  0  0  0  0  0  0  0
  139.0044   67.0283  224.8265 H   0  0  0  0  0  0  0  0  0  0  0  0
  139.6260   69.1080  224.7970 C   0  0  0  0  0  0  0  0  0  0  0  0
  140.3860   70.1090  225.4520 C   0  0  0  0  0  0  0  0  0  0  0  0
  141.0230   69.8080  226.6650 C   0  0  0  0  0  0  0  0  0  0  0  0
  141.5910   70.5887  227.1921 H   0  0  0  0  0  0  0  0  0  0  0  0
  140.4890   71.5120  224.8990 C   0  0  0  0  0  0  0  0  0  0  0  0
  141.5474   71.8110  224.8785 H   0  0  0  0  0  0  0  0  0  0  0  0
  139.9047   72.1816  225.5473 H   0  0  0  0  0  0  0  0  0  0  0  0
  139.9440   71.5970  223.5410 N   0  0  0  0  0  0  0  0  0  0  0  0
  140.5040   72.5300  222.5950 C   0  0  0  0  0  0  0  0  0  0  0  0
  141.6720   72.2300  221.9660 N   0  0  0  0  0  0  0  0  0  0  0  0
  142.2030   73.0760  221.0460 C   0  0  0  0  0  0  0  0  0  0  0  0
  143.4440   72.7570  220.3830 N   0  0  0  0  0  0  0  0  0  0  0  0
  144.6980   72.6480  221.1440 C   0  0  0  0  0  0  0  0  0  0  0  0
  144.6020   73.2300  222.0725 H   0  0  0  0  0  0  0  0  0  0  0  0
  144.8743   71.5837  221.3588 H   0  0  0  0  0  0  0  0  0  0  0  0
  145.9100   73.1820  220.3420 C   0  0  0  0  0  0  0  0  0  0  0  0
  146.1028   74.2172  220.6602 H   0  0  0  0  0  0  0  0  0  0  0  0
  146.7483   72.5021  220.5543 H   0  0  0  0  0  0  0  0  0  0  0  0
  145.7280   73.1770  218.8780 N   0  0  0  0  0  0  0  0  0  0  0  0
  145.3230   74.0980  218.5840 H   0  0  0  0  0  0  0  0  0  0  0  0
  144.8240   72.1100  218.4380 C   0  0  0  0  0  0  0  0  0  0  0  0
  144.8027   72.0798  217.3386 H   0  0  0  0  0  0  0  0  0  0  0  0
  145.1827   71.1463  218.8287 H   0  0  0  0  0  0  0  0  0  0  0  0
  143.4130   72.3750  218.9660 C   0  0  0  0  0  0  0  0  0  0  0  0
  142.9583   73.1900  218.3837 H   0  0  0  0  0  0  0  0  0  0  0  0
  142.8223   71.4526  218.8648 H   0  0  0  0  0  0  0  0  0  0  0  0
  141.5540   74.2300  220.7550 N   0  0  0  0  0  0  0  0  0  0  0  0
  140.3880   74.5470  221.3730 C   0  0  0  0  0  0  0  0  0  0  0  0
  139.7840   75.6710  221.1170 N   0  0  0  0  0  0  0  0  0  0  0  0
  140.4590   76.9610  220.9760 C   0  0  0  0  0  0  0  0  0  0  0  0
  141.2959   76.8571  220.2698 H   0  0  0  0  0  0  0  0  0  0  0  0
  139.7382   77.7023  220.6006 H   0  0  0  0  0  0  0  0  0  0  0  0
  140.9970   77.4320  222.3310 C   0  0  0  0  0  0  0  0  0  0  0  0
  141.0904   76.5599  222.9949 H   0  0  0  0  0  0  0  0  0  0  0  0
  141.9697   77.9138  222.1530 H   0  0  0  0  0  0  0  0  0  0  0  0
  140.0810   78.4690  223.0060 C   0  0  0  0  0  0  0  0  0  0  0  0
  139.2395   78.6941  222.3343 H   0  0  0  0  0  0  0  0  0  0  0  0
  139.7205   78.0464  223.9554 H   0  0  0  0  0  0  0  0  0  0  0  0
  140.8090   79.7210  223.3010 N   0  0  0  0  0  0  0  0  0  0  0  0
  142.2600   79.4980  223.4470 C   0  0  0  0  0  0  0  0  0  0  0  0
  142.4373   78.7352  224.2195 H   0  0  0  0  0  0  0  0  0  0  0  0
  142.6753   79.1542  222.4882 H   0  0  0  0  0  0  0  0  0  0  0  0
  142.9470   80.8170  223.8600 C   0  0  0  0  0  0  0  0  0  0  0  0
  143.2355   80.7471  224.9192 H   0  0  0  0  0  0  0  0  0  0  0  0
  143.8228   80.9542  223.2087 H   0  0  0  0  0  0  0  0  0  0  0  0
  142.1060   81.9470  223.6920 O   0  0  0  0  0  0  0  0  0  0  0  0
  141.5310   81.9280  222.4030 C   0  0  0  0  0  0  0  0  0  0  0  0
  140.9807   82.8662  222.2387 H   0  0  0  0  0  0  0  0  0  0  0  0
  142.3334   81.8223  221.6580 H   0  0  0  0  0  0  0  0  0  0  0  0
  140.5590   80.7380  222.2600 C   0  0  0  0  0  0  0  0  0  0  0  0
  139.5261   81.1040  222.3557 H   0  0  0  0  0  0  0  0  0  0  0  0
  140.7148   80.2754  221.2742 H   0  0  0  0  0  0  0  0  0  0  0  0
  139.8560   73.6900  222.2840 N   0  0  0  0  0  0  0  0  0  0  0  0
  138.9340   73.9180  222.7190 H   0  0  0  0  0  0  0  0  0  0  0  0
  138.7040   70.8660  223.2680 C   0  0  0  0  0  0  0  0  0  0  0  0
  138.3891   71.0483  222.2299 H   0  0  0  0  0  0  0  0  0  0  0  0
  137.9123   71.2087  223.9505 H   0  0  0  0  0  0  0  0  0  0  0  0
  138.9520   69.3750  223.4730 C   0  0  0  0  0  0  0  0  0  0  0  0
  139.5958   69.0040  222.6619 H   0  0  0  0  0  0  0  0  0  0  0  0
  137.9813   68.8576  223.4670 H   0  0  0  0  0  0  0  0  0  0  0  0
  1  2  1  0
  2  3  2  0
  3  4  1  0
  3  5  1  0
  5  6  1  0
  5  7  2  0
  7  8  1  0
  8  9  2  0
  9 10  1  0
  8 11  1  0
 11 12  1  0
 11 13  1  0
 11 14  1  0
 14 15  1  0
 15 16  2  0
 16 17  1  0
 17 18  1  0
 18 19  1  0
 19 20  1  0
 19 21  1  0
 19 22  1  0
 22 23  1  0
 22 24  1  0
 22 25  1  0
 25 26  1  0
 25 27  1  0
 27 28  1  0
 27 29  1  0
 27 30  1  0
 30 31  1  0
 30 32  1  0
 17 33  2  0
 33 34  1  0
 34 35  2  0
 35 36  1  0
 36 37  1  0
 36 38  1  0
 36 39  1  0
 39 40  1  0
 39 41  1  0
 39 42  1  0
 42 43  1  0
 42 44  1  0
 42 45  1  0
 45 46  1  0
 46 47  1  0
 46 48  1  0
 46 49  1  0
 49 50  1  0
 49 51  1  0
 49 52  1  0
 52 53  1  0
 53 54  1  0
 53 55  1  0
 53 56  1  0
 56 57  1  0
 56 58  1  0
 34 59  1  0
 59 60  1  0
 14 61  1  0
 61 62  1  0
 61 63  1  0
 61 64  1  0
 64 65  1  0
 64 66  1  0
  9  2  1  0
 59 15  1  0
 64  7  1  0
 30 18  1  0
 56 45  1  0
M  END
>  <UniqueID>  (60) 
727

>  <SMILES>  (60) 
c1ccc2c(c1)CCN(c1nc(N3CCNCC3)n/c(=N\CCCN3CCOCC3)[nH]1)C2

>  <Energy>  (60) 
83.7077518671416

>  <Genealogy>  (60) 
c1ccc2c(c1)CCN(c1nc(N3CCNCC3)nc(=NCCCN3CCOCC3)[nH]1)C2 (tautomer)
c1ccc2c(c1)CCN(c1nc(N3CCNCC3)n/c(=N\CCCN3CCOCC3)[nH]1)C2 (cis-trans isomerization)
c1ccc2c(c1)CCN(c1nc(N3CCNCC3)n/c(=N\CCCN3CCOCC3)[nH]1)C2 (3D coordinates assigned)
c1ccc2c(c1)CCN(c1nc(N3CCNCC3)n/c(=N\CCCN3CCOCC3)[nH]1)C2 (nonaromatic ring conformer: 83.7077518671416 kcal/mol)

>  <smiles>  (60) 
c1ccc2c(c1)CCN(c1nc(NCCCN3CCOCC3)nc(N3CCNCC3)n1)C2

>  <score_type>  (60) 
oracle

>  <origin>  (60) 
autodockgpu

>  <m_score__min__energy>  (60) 
-9.3100000000000005

>  <m_primary>  (60) 
energy

>  <meeko>  (60) 
{"free_energy": -9.19, "intermolecular_energy": -11.28, "internal_energy": -0.76, "cluster_size": 8, "cluster_id": 2, "rank_in_cluster": 1}

>  <energy>  (60) 
-7.09

>  <cluster_rmsd>  (60) 
0.47

>  <rmsd>  (60) 
270.49

>  <cluster>  (60) 
3

$$$$
RYCKWQXGCGPPJB-JLFMESFVNA-N
     RDKit          3D

 66 70  0  0  0  0  0  0  0  0999 V2000
  141.4994   68.4922  228.3589 H   0  0  0  0  0  0  0  0  0  0  0  0
  140.9960   68.6460  227.3930 C   0  0  0  0  0  0  0  0  0  0  0  0
  140.3860   67.5710  226.7460 C   0  0  0  0  0  0  0  0  0  0  0  0
  140.4155   66.5692  227.1993 H   0  0  0  0  0  0  0  0  0  0  0  0
  139.7380   67.7640  225.5240 C   0  0  0  0  0  0  0  0  0  0  0  0
  139.2646   66.9110  225.0158 H   0  0  0  0  0  0  0  0  0  0  0  0
  139.6870   69.0400  224.9400 C   0  0  0  0  0  0  0  0  0  0  0  0
  140.3330   70.1250  225.5820 C   0  0  0  0  0  0  0  0  0  0  0  0
  140.9680   69.9180  226.8150 C   0  0  0  0  0  0  0  0  0  0  0  0
  141.4475   70.7629  227.3309 H   0  0  0  0  0  0  0  0  0  0  0  0
  140.3140   71.5170  224.9920 C   0  0  0  0  0  0  0  0  0  0  0  0
  141.3391   71.9159  224.9850 H   0  0  0  0  0  0  0  0  0  0  0  0
  139.6533   72.1437  225.6091 H   0  0  0  0  0  0  0  0  0  0  0  0
  139.7950   71.5140  223.6210 N   0  0  0  0  0  0  0  0  0  0  0  0
  140.2850   72.4710  222.6610 C   0  0  0  0  0  0  0  0  0  0  0  0
  141.4510   72.2290  222.0060 N   0  0  0  0  0  0  0  0  0  0  0  0
  141.9180   73.0980  221.0720 C   0  0  0  0  0  0  0  0  0  0  0  0
  143.1570   72.8400  220.3800 N   0  0  0  0  0  0  0  0  0  0  0  0
  143.2800   71.7040  219.4540 C   0  0  0  0  0  0  0  0  0  0  0  0
  142.5280   70.9462  219.7191 H   0  0  0  0  0  0  0  0  0  0  0  0
  143.1224   72.0791  218.4320 H   0  0  0  0  0  0  0  0  0  0  0  0
  144.6860   71.0570  219.5160 C   0  0  0  0  0  0  0  0  0  0  0  0
  144.6323   70.1830  220.1818 H   0  0  0  0  0  0  0  0  0  0  0  0
  144.9547   70.7961  218.4817 H   0  0  0  0  0  0  0  0  0  0  0  0
  145.7510   71.9480  220.0120 N   0  0  0  0  0  0  0  0  0  0  0  0
  145.8250   71.8420  221.0520 H   0  0  0  0  0  0  0  0  0  0  0  0
  145.4780   73.3560  219.7080 C   0  0  0  0  0  0  0  0  0  0  0  0
  146.3442   73.9673  220.0014 H   0  0  0  0  0  0  0  0  0  0  0  0
  145.2950   73.4651  218.6288 H   0  0  0  0  0  0  0  0  0  0  0  0
  144.2420   73.8240  220.4790 C   0  0  0  0  0  0  0  0  0  0  0  0
  144.5085   73.9605  221.5375 H   0  0  0  0  0  0  0  0  0  0  0  0
  143.8956   74.7729  220.0437 H   0  0  0  0  0  0  0  0  0  0  0  0
  141.2050   74.2180  220.7950 N   0  0  0  0  0  0  0  0  0  0  0  0
  140.0390   74.4770  221.4400 C   0  0  0  0  0  0  0  0  0  0  0  0
  139.3750   75.5690  221.1970 N   0  0  0  0  0  0  0  0  0  0  0  0
  139.9380   76.7560  220.5540 C   0  0  0  0  0  0  0  0  0  0  0  0
  140.1433   76.5327  219.4966 H   0  0  0  0  0  0  0  0  0  0  0  0
  139.2151   77.5814  220.6321 H   0  0  0  0  0  0  0  0  0  0  0  0
  141.2410   77.1690  221.2450 C   0  0  0  0  0  0  0  0  0  0  0  0
  141.9153   76.3004  221.2727 H   0  0  0  0  0  0  0  0  0  0  0  0
  141.6730   78.0011  220.6696 H   0  0  0  0  0  0  0  0  0  0  0  0
  141.0180   77.6660  222.6860 C   0  0  0  0  0  0  0  0  0  0  0  0
  140.0100   77.3719  223.0138 H   0  0  0  0  0  0  0  0  0  0  0  0
  141.7861   77.2137  223.3305 H   0  0  0  0  0  0  0  0  0  0  0  0
  141.1430   79.1370  222.7760 N   0  0  0  0  0  0  0  0  0  0  0  0
  142.1960   79.5460  223.7230 C   0  0  0  0  0  0  0  0  0  0  0  0
  141.9987   79.0953  224.7068 H   0  0  0  0  0  0  0  0  0  0  0  0
  143.1738   79.2056  223.3514 H   0  0  0  0  0  0  0  0  0  0  0  0
  142.2050   81.0840  223.8550 C   0  0  0  0  0  0  0  0  0  0  0  0
  141.7791   81.3564  224.8319 H   0  0  0  0  0  0  0  0  0  0  0  0
  143.2478   81.4209  223.7593 H   0  0  0  0  0  0  0  0  0  0  0  0
  141.4510   81.7230  222.8360 O   0  0  0  0  0  0  0  0  0  0  0  0
  141.8200   81.2090  221.5740 C   0  0  0  0  0  0  0  0  0  0  0  0
  141.3223   81.7933  220.7860 H   0  0  0  0  0  0  0  0  0  0  0  0
  142.9125   81.2801  221.4675 H   0  0  0  0  0  0  0  0  0  0  0  0
  141.4030   79.7290  221.4480 C   0  0  0  0  0  0  0  0  0  0  0  0
  140.4888   79.6635  220.8398 H   0  0  0  0  0  0  0  0  0  0  0  0
  142.2239   79.1732  220.9713 H   0  0  0  0  0  0  0  0  0  0  0  0
  139.5730   73.5970  222.3650 N   0  0  0  0  0  0  0  0  0  0  0  0
  138.6510   73.7790  222.8210 H   0  0  0  0  0  0  0  0  0  0  0  0
  138.6360   70.6610  223.3440 C   0  0  0  0  0  0  0  0  0  0  0  0
  138.3285   70.7852  222.2952 H   0  0  0  0  0  0  0  0  0  0  0  0
  137.7998   70.9441  224.0003 H   0  0  0  0  0  0  0  0  0  0  0  0
  139.0210   69.2060  223.5960 C   0  0  0  0  0  0  0  0  0  0  0  0
  139.7157   68.8777  222.8088 H   0  0  0  0  0  0  0  0  0  0  0  0
  138.1047   68.5975  223.5850 H   0  0  0  0  0  0  0  0  0  0  0  0
  1  2  1  0
  2  3  2  0
  3  4  1  0
  3  5  1  0
  5  6  1  0
  5  7  2  0
  7  8  1  0
  8  9  2  0
  9 10  1  0
  8 11  1  0
 11 12  1  0
 11 13  1  0
 11 14  1  0
 14 15  1  0
 15 16  2  0
 16 17  1  0
 17 18  1  0
 18 19  1  0
 19 20  1  0
 19 21  1  0
 19 22  1  0
 22 23  1  0
 22 24  1  0
 22 25  1  0
 25 26  1  0
 25 27  1  0
 27 28  1  0
 27 29  1  0
 27 30  1  0
 30 31  1  0
 30 32  1  0
 17 33  2  0
 33 34  1  0
 34 35  2  0
 35 36  1  0
 36 37  1  0
 36 38  1  0
 36 39  1  0
 39 40  1  0
 39 41  1  0
 39 42  1  0
 42 43  1  0
 42 44  1  0
 42 45  1  0
 45 46  1  0
 46 47  1  0
 46 48  1  0
 46 49  1  0
 49 50  1  0
 49 51  1  0
 49 52  1  0
 52 53  1  0
 53 54  1  0
 53 55  1  0
 53 56  1  0
 56 57  1  0
 56 58  1  0
 34 59  1  0
 59 60  1  0
 14 61  1  0
 61 62  1  0
 61 63  1  0
 61 64  1  0
 64 65  1  0
 64 66  1  0
  9  2  1  0
 59 15  1  0
 64  7  1  0
 30 18  1  0
 56 45  1  0
M  END
>  <UniqueID>  (61) 
728

>  <SMILES>  (61) 
c1ccc2c(c1)CCN(c1nc(N3CCNCC3)n/c(=N\CCCN3CCOCC3)[nH]1)C2

>  <Energy>  (61) 
84.29958024141901

>  <Genealogy>  (61) 
c1ccc2c(c1)CCN(c1nc(N3CCNCC3)nc(=NCCCN3CCOCC3)[nH]1)C2 (tautomer)
c1ccc2c(c1)CCN(c1nc(N3CCNCC3)n/c(=N\CCCN3CCOCC3)[nH]1)C2 (cis-trans isomerization)
c1ccc2c(c1)CCN(c1nc(N3CCNCC3)n/c(=N\CCCN3CCOCC3)[nH]1)C2 (3D coordinates assigned)
c1ccc2c(c1)CCN(c1nc(N3CCNCC3)n/c(=N\CCCN3CCOCC3)[nH]1)C2 (nonaromatic ring conformer: 84.29958024141901 kcal/mol)

>  <smiles>  (61) 
c1ccc2c(c1)CCN(c1nc(NCCCN3CCOCC3)nc(N3CCNCC3)n1)C2

>  <score_type>  (61) 
oracle

>  <origin>  (61) 
autodockgpu

>  <m_score__min__energy>  (61) 
-9.3100000000000005

>  <m_primary>  (61) 
energy

>  <meeko>  (61) 
{"free_energy": -9.1, "intermolecular_energy": -11.19, "internal_energy": -0.82, "cluster_size": 8, "cluster_id": 2, "rank_in_cluster": 3}

>  <energy>  (61) 
-9.31

>  <cluster_rmsd>  (61) 
0.0

>  <rmsd>  (61) 
271.5

>  <cluster>  (61) 
1

$$$$
RYCKWQXGCGPPJB-JLFMESFVNA-N
     RDKit          3D

 66 70  0  0  0  0  0  0  0  0999 V2000
  143.1806   81.7592  223.0646 H   0  0  0  0  0  0  0  0  0  0  0  0
  142.3800   81.0080  222.9950 C   0  0  0  0  0  0  0  0  0  0  0  0
  141.1890   81.1930  223.6970 C   0  0  0  0  0  0  0  0  0  0  0  0
  141.0542   82.0867  224.3240 H   0  0  0  0  0  0  0  0  0  0  0  0
  140.1670   80.2450  223.6050 C   0  0  0  0  0  0  0  0  0  0  0  0
  139.2327   80.3923  224.1665 H   0  0  0  0  0  0  0  0  0  0  0  0
  140.3250   79.1050  222.8000 C   0  0  0  0  0  0  0  0  0  0  0  0
  141.5460   78.9040  222.1110 C   0  0  0  0  0  0  0  0  0  0  0  0
  142.5580   79.8710  222.2040 C   0  0  0  0  0  0  0  0  0  0  0  0
  143.4982   79.7327  221.6500 H   0  0  0  0  0  0  0  0  0  0  0  0
  141.7700   77.6910  221.2370 C   0  0  0  0  0  0  0  0  0  0  0  0
  142.7358   77.2348  221.5000 H   0  0  0  0  0  0  0  0  0  0  0  0
  141.7632   78.0174  220.1866 H   0  0  0  0  0  0  0  0  0  0  0  0
  140.7090   76.6950  221.4150 N   0  0  0  0  0  0  0  0  0  0  0  0
  141.0050   75.2910  221.2790 C   0  0  0  0  0  0  0  0  0  0  0  0
  142.2420   74.9020  220.8700 N   0  0  0  0  0  0  0  0  0  0  0  0
  142.5570   73.5850  220.7640 C   0  0  0  0  0  0  0  0  0  0  0  0
  143.8680   73.1740  220.3270 N   0  0  0  0  0  0  0  0  0  0  0  0
  145.0300   73.2900  221.2220 C   0  0  0  0  0  0  0  0  0  0  0  0
  144.8220   74.0631  221.9764 H   0  0  0  0  0  0  0  0  0  0  0  0
  145.1961   72.3102  221.6936 H   0  0  0  0  0  0  0  0  0  0  0  0
  146.3170   73.6760  220.4510 C   0  0  0  0  0  0  0  0  0  0  0  0
  146.4578   74.7633  220.5408 H   0  0  0  0  0  0  0  0  0  0  0  0
  147.1362   73.0965  220.9016 H   0  0  0  0  0  0  0  0  0  0  0  0
  146.3000   73.3310  219.0170 N   0  0  0  0  0  0  0  0  0  0  0  0
  145.9170   74.1440  218.4780 H   0  0  0  0  0  0  0  0  0  0  0  0
  145.4670   72.1580  218.7410 C   0  0  0  0  0  0  0  0  0  0  0  0
  145.5699   71.8783  217.6821 H   0  0  0  0  0  0  0  0  0  0  0  0
  145.7933   71.3233  219.3789 H   0  0  0  0  0  0  0  0  0  0  0  0
  144.0020   72.4790  219.0410 C   0  0  0  0  0  0  0  0  0  0  0  0
  143.6036   73.1213  218.2418 H   0  0  0  0  0  0  0  0  0  0  0  0
  143.4401   71.5348  219.0929 H   0  0  0  0  0  0  0  0  0  0  0  0
  141.6210   72.6530  221.0750 N   0  0  0  0  0  0  0  0  0  0  0  0
  140.3800   73.0230  221.4830 C   0  0  0  0  0  0  0  0  0  0  0  0
  139.4740   72.1280  221.7470 N   0  0  0  0  0  0  0  0  0  0  0  0
  139.1070   71.6920  223.0940 C   0  0  0  0  0  0  0  0  0  0  0  0
  138.3427   72.3713  223.4995 H   0  0  0  0  0  0  0  0  0  0  0  0
  138.7114   70.6669  223.0427 H   0  0  0  0  0  0  0  0  0  0  0  0
  140.3340   71.7070  224.0110 C   0  0  0  0  0  0  0  0  0  0  0  0
  141.2254   71.9192  223.4025 H   0  0  0  0  0  0  0  0  0  0  0  0
  140.1686   72.4815  224.7745 H   0  0  0  0  0  0  0  0  0  0  0  0
  140.5450   70.3690  224.7440 C   0  0  0  0  0  0  0  0  0  0  0  0
  139.9292   69.5957  224.2615 H   0  0  0  0  0  0  0  0  0  0  0  0
  141.6124   70.1090  224.6890 H   0  0  0  0  0  0  0  0  0  0  0  0
  140.1630   70.4680  226.1700 N   0  0  0  0  0  0  0  0  0  0  0  0
  140.4900   69.2390  226.9170 C   0  0  0  0  0  0  0  0  0  0  0  0
  140.0129   68.3761  226.4294 H   0  0  0  0  0  0  0  0  0  0  0  0
  141.5808   69.0976  226.9292 H   0  0  0  0  0  0  0  0  0  0  0  0
  139.9720   69.3620  228.3660 C   0  0  0  0  0  0  0  0  0  0  0  0
  139.0883   68.7169  228.4800 H   0  0  0  0  0  0  0  0  0  0  0  0
  140.7874   69.0563  229.0381 H   0  0  0  0  0  0  0  0  0  0  0  0
  139.6110   70.6910  228.7060 O   0  0  0  0  0  0  0  0  0  0  0  0
  140.6490   71.5760  228.3450 C   0  0  0  0  0  0  0  0  0  0  0  0
  140.4132   72.5824  228.7213 H   0  0  0  0  0  0  0  0  0  0  0  0
  141.5908   71.2162  228.7850 H   0  0  0  0  0  0  0  0  0  0  0  0
  140.8060   71.6320  226.8110 C   0  0  0  0  0  0  0  0  0  0  0  0
  140.3379   72.5537  226.4350 H   0  0  0  0  0  0  0  0  0  0  0  0
  141.8787   71.6174  226.5680 H   0  0  0  0  0  0  0  0  0  0  0  0
  140.0760   74.3430  221.5970 N   0  0  0  0  0  0  0  0  0  0  0  0
  139.1360   74.6190  221.9590 H   0  0  0  0  0  0  0  0  0  0  0  0
  139.3340   77.1910  221.5210 C   0  0  0  0  0  0  0  0  0  0  0  0
  138.6410   76.3414  221.6101 H   0  0  0  0  0  0  0  0  0  0  0  0
  139.0776   77.7723  220.6230 H   0  0  0  0  0  0  0  0  0  0  0  0
  139.2210   78.0760  222.7590 C   0  0  0  0  0  0  0  0  0  0  0  0
  139.2857   77.4450  223.6577 H   0  0  0  0  0  0  0  0  0  0  0  0
  138.2562   78.6030  222.7223 H   0  0  0  0  0  0  0  0  0  0  0  0
  1  2  1  0
  2  3  2  0
  3  4  1  0
  3  5  1  0
  5  6  1  0
  5  7  2  0
  7  8  1  0
  8  9  2  0
  9 10  1  0
  8 11  1  0
 11 12  1  0
 11 13  1  0
 11 14  1  0
 14 15  1  0
 15 16  2  0
 16 17  1  0
 17 18  1  0
 18 19  1  0
 19 20  1  0
 19 21  1  0
 19 22  1  0
 22 23  1  0
 22 24  1  0
 22 25  1  0
 25 26  1  0
 25 27  1  0
 27 28  1  0
 27 29  1  0
 27 30  1  0
 30 31  1  0
 30 32  1  0
 17 33  2  0
 33 34  1  0
 34 35  2  0
 35 36  1  0
 36 37  1  0
 36 38  1  0
 36 39  1  0
 39 40  1  0
 39 41  1  0
 39 42  1  0
 42 43  1  0
 42 44  1  0
 42 45  1  0
 45 46  1  0
 46 47  1  0
 46 48  1  0
 46 49  1  0
 49 50  1  0
 49 51  1  0
 49 52  1  0
 52 53  1  0
 53 54  1  0
 53 55  1  0
 53 56  1  0
 56 57  1  0
 56 58  1  0
 34 59  1  0
 59 60  1  0
 14 61  1  0
 61 62  1  0
 61 63  1  0
 61 64  1  0
 64 65  1  0
 64 66  1  0
  9  2  1  0
 59 15  1  0
 64  7  1  0
 30 18  1  0
 56 45  1  0
M  END
>  <UniqueID>  (62) 
728

>  <SMILES>  (62) 
c1ccc2c(c1)CCN(c1nc(N3CCNCC3)n/c(=N\CCCN3CCOCC3)[nH]1)C2

>  <Energy>  (62) 
84.29958024141901

>  <Genealogy>  (62) 
c1ccc2c(c1)CCN(c1nc(N3CCNCC3)nc(=NCCCN3CCOCC3)[nH]1)C2 (tautomer)
c1ccc2c(c1)CCN(c1nc(N3CCNCC3)n/c(=N\CCCN3CCOCC3)[nH]1)C2 (cis-trans isomerization)
c1ccc2c(c1)CCN(c1nc(N3CCNCC3)n/c(=N\CCCN3CCOCC3)[nH]1)C2 (3D coordinates assigned)
c1ccc2c(c1)CCN(c1nc(N3CCNCC3)n/c(=N\CCCN3CCOCC3)[nH]1)C2 (nonaromatic ring conformer: 84.29958024141901 kcal/mol)

>  <smiles>  (62) 
c1ccc2c(c1)CCN(c1nc(NCCCN3CCOCC3)nc(N3CCNCC3)n1)C2

>  <score_type>  (62) 
oracle

>  <origin>  (62) 
autodockgpu

>  <m_score__min__energy>  (62) 
-9.3100000000000005

>  <m_primary>  (62) 
energy

>  <meeko>  (62) 
{"free_energy": -9.1, "intermolecular_energy": -11.18, "internal_energy": -0.79, "cluster_size": 7, "cluster_id": 1, "rank_in_cluster": 3}

>  <energy>  (62) 
-9.12

>  <cluster_rmsd>  (62) 
0.98

>  <rmsd>  (62) 
271.69

>  <cluster>  (62) 
1

$$$$
RYCKWQXGCGPPJB-JLFMESFVNA-N
     RDKit          3D

 66 70  0  0  0  0  0  0  0  0999 V2000
  141.5734   68.9078  228.7210 H   0  0  0  0  0  0  0  0  0  0  0  0
  141.0910   68.9410  227.7330 C   0  0  0  0  0  0  0  0  0  0  0  0
  140.5940   67.7700  227.1610 C   0  0  0  0  0  0  0  0  0  0  0  0
  140.6901   66.8137  227.6960 H   0  0  0  0  0  0  0  0  0  0  0  0
  139.9740   67.8100  225.9090 C   0  0  0  0  0  0  0  0  0  0  0  0
  139.5902   66.8824  225.4593 H   0  0  0  0  0  0  0  0  0  0  0  0
  139.8380   69.0260  225.2220 C   0  0  0  0  0  0  0  0  0  0  0  0
  140.3690   70.2100  225.7900 C   0  0  0  0  0  0  0  0  0  0  0  0
  140.9770   70.1560  227.0530 C   0  0  0  0  0  0  0  0  0  0  0  0
  141.3668   71.0769  227.5112 H   0  0  0  0  0  0  0  0  0  0  0  0
  140.2560   71.5440  225.0880 C   0  0  0  0  0  0  0  0  0  0  0  0
  141.2443   72.0267  225.0770 H   0  0  0  0  0  0  0  0  0  0  0  0
  139.5250   72.1594  225.6329 H   0  0  0  0  0  0  0  0  0  0  0  0
  139.7870   71.3880  223.7080 N   0  0  0  0  0  0  0  0  0  0  0  0
  140.2280   72.3040  222.6870 C   0  0  0  0  0  0  0  0  0  0  0  0
  141.4050   72.0780  222.0450 N   0  0  0  0  0  0  0  0  0  0  0  0
  141.8290   72.9070  221.0560 C   0  0  0  0  0  0  0  0  0  0  0  0
  143.0790   72.6670  220.3780 N   0  0  0  0  0  0  0  0  0  0  0  0
  143.2600   71.4780  219.5310 C   0  0  0  0  0  0  0  0  0  0  0  0
  142.5485   70.7022  219.8502 H   0  0  0  0  0  0  0  0  0  0  0  0
  143.0822   71.7731  218.4863 H   0  0  0  0  0  0  0  0  0  0  0  0
  144.6980   70.9110  219.6320 C   0  0  0  0  0  0  0  0  0  0  0  0
  144.6901   70.0830  220.3561 H   0  0  0  0  0  0  0  0  0  0  0  0
  144.9799   70.5944  218.6170 H   0  0  0  0  0  0  0  0  0  0  0  0
  145.7150   71.8880  220.0620 N   0  0  0  0  0  0  0  0  0  0  0  0
  145.7950   71.8570  221.1060 H   0  0  0  0  0  0  0  0  0  0  0  0
  145.3700   73.2560  219.6640 C   0  0  0  0  0  0  0  0  0  0  0  0
  146.2035   73.9295  219.9124 H   0  0  0  0  0  0  0  0  0  0  0  0
  145.1819   73.2818  218.5805 H   0  0  0  0  0  0  0  0  0  0  0  0
  144.1120   73.7110  220.4050 C   0  0  0  0  0  0  0  0  0  0  0  0
  144.3711   73.9338  221.4506 H   0  0  0  0  0  0  0  0  0  0  0  0
  143.7167   74.6083  219.9065 H   0  0  0  0  0  0  0  0  0  0  0  0
  141.0600   73.9700  220.7080 N   0  0  0  0  0  0  0  0  0  0  0  0
  139.8830   74.2120  221.3390 C   0  0  0  0  0  0  0  0  0  0  0  0
  139.1650   75.2520  221.0280 N   0  0  0  0  0  0  0  0  0  0  0  0
  139.7110   76.5340  220.5850 C   0  0  0  0  0  0  0  0  0  0  0  0
  139.8214   76.5225  219.4906 H   0  0  0  0  0  0  0  0  0  0  0  0
  139.0239   77.3384  220.8865 H   0  0  0  0  0  0  0  0  0  0  0  0
  141.0790   76.7810  221.2280 C   0  0  0  0  0  0  0  0  0  0  0  0
  141.5676   75.8105  221.3993 H   0  0  0  0  0  0  0  0  0  0  0  0
  141.6596   77.4134  220.5403 H   0  0  0  0  0  0  0  0  0  0  0  0
  140.9790   77.5260  222.5720 C   0  0  0  0  0  0  0  0  0  0  0  0
  139.9194   77.6152  222.8536 H   0  0  0  0  0  0  0  0  0  0  0  0
  141.5372   76.9532  223.3273 H   0  0  0  0  0  0  0  0  0  0  0  0
  141.5690   78.8790  222.4850 N   0  0  0  0  0  0  0  0  0  0  0  0
  140.7020   79.8160  221.7460 C   0  0  0  0  0  0  0  0  0  0  0  0
  140.4846   79.4048  220.7492 H   0  0  0  0  0  0  0  0  0  0  0  0
  139.7619   79.9572  222.2994 H   0  0  0  0  0  0  0  0  0  0  0  0
  141.4170   81.1750  221.5960 C   0  0  0  0  0  0  0  0  0  0  0  0
  141.7466   81.2864  220.5525 H   0  0  0  0  0  0  0  0  0  0  0  0
  140.7024   81.9609  221.8817 H   0  0  0  0  0  0  0  0  0  0  0  0
  142.5480   81.2930  222.4450 O   0  0  0  0  0  0  0  0  0  0  0  0
  142.2000   80.9210  223.7610 C   0  0  0  0  0  0  0  0  0  0  0  0
  143.0460   81.1315  224.4318 H   0  0  0  0  0  0  0  0  0  0  0  0
  141.3161   81.4980  224.0705 H   0  0  0  0  0  0  0  0  0  0  0  0
  141.8610   79.4170  223.8290 C   0  0  0  0  0  0  0  0  0  0  0  0
  142.7174   78.8742  224.2555 H   0  0  0  0  0  0  0  0  0  0  0  0
  140.9693   79.2869  224.4599 H   0  0  0  0  0  0  0  0  0  0  0  0
  139.4610   73.3720  222.3200 N   0  0  0  0  0  0  0  0  0  0  0  0
  138.5310   73.5370  222.7660 H   0  0  0  0  0  0  0  0  0  0  0  0
  138.7120   70.4210  223.4700 C   0  0  0  0  0  0  0  0  0  0  0  0
  138.4313   70.4351  222.4065 H   0  0  0  0  0  0  0  0  0  0  0  0
  137.8333   70.6834  224.0774 H   0  0  0  0  0  0  0  0  0  0  0  0
  139.2070   69.0280  223.8510 C   0  0  0  0  0  0  0  0  0  0  0  0
  139.9530   68.6985  223.1128 H   0  0  0  0  0  0  0  0  0  0  0  0
  138.3449   68.3450  223.8647 H   0  0  0  0  0  0  0  0  0  0  0  0
  1  2  1  0
  2  3  2  0
  3  4  1  0
  3  5  1  0
  5  6  1  0
  5  7  2  0
  7  8  1  0
  8  9  2  0
  9 10  1  0
  8 11  1  0
 11 12  1  0
 11 13  1  0
 11 14  1  0
 14 15  1  0
 15 16  2  0
 16 17  1  0
 17 18  1  0
 18 19  1  0
 19 20  1  0
 19 21  1  0
 19 22  1  0
 22 23  1  0
 22 24  1  0
 22 25  1  0
 25 26  1  0
 25 27  1  0
 27 28  1  0
 27 29  1  0
 27 30  1  0
 30 31  1  0
 30 32  1  0
 17 33  2  0
 33 34  1  0
 34 35  2  0
 35 36  1  0
 36 37  1  0
 36 38  1  0
 36 39  1  0
 39 40  1  0
 39 41  1  0
 39 42  1  0
 42 43  1  0
 42 44  1  0
 42 45  1  0
 45 46  1  0
 46 47  1  0
 46 48  1  0
 46 49  1  0
 49 50  1  0
 49 51  1  0
 49 52  1  0
 52 53  1  0
 53 54  1  0
 53 55  1  0
 53 56  1  0
 56 57  1  0
 56 58  1  0
 34 59  1  0
 59 60  1  0
 14 61  1  0
 61 62  1  0
 61 63  1  0
 61 64  1  0
 64 65  1  0
 64 66  1  0
  9  2  1  0
 59 15  1  0
 64  7  1  0
 30 18  1  0
 56 45  1  0
M  END
>  <UniqueID>  (63) 
728

>  <SMILES>  (63) 
c1ccc2c(c1)CCN(c1nc(N3CCNCC3)n/c(=N\CCCN3CCOCC3)[nH]1)C2

>  <Energy>  (63) 
84.29958024141901

>  <Genealogy>  (63) 
c1ccc2c(c1)CCN(c1nc(N3CCNCC3)nc(=NCCCN3CCOCC3)[nH]1)C2 (tautomer)
c1ccc2c(c1)CCN(c1nc(N3CCNCC3)n/c(=N\CCCN3CCOCC3)[nH]1)C2 (cis-trans isomerization)
c1ccc2c(c1)CCN(c1nc(N3CCNCC3)n/c(=N\CCCN3CCOCC3)[nH]1)C2 (3D coordinates assigned)
c1ccc2c(c1)CCN(c1nc(N3CCNCC3)n/c(=N\CCCN3CCOCC3)[nH]1)C2 (nonaromatic ring conformer: 84.29958024141901 kcal/mol)

>  <smiles>  (63) 
c1ccc2c(c1)CCN(c1nc(NCCCN3CCOCC3)nc(N3CCNCC3)n1)C2

>  <score_type>  (63) 
oracle

>  <origin>  (63) 
autodockgpu

>  <m_score__min__energy>  (63) 
-9.3100000000000005

>  <m_primary>  (63) 
energy

>  <meeko>  (63) 
{"free_energy": -8.9, "intermolecular_energy": -10.99, "internal_energy": -0.77, "cluster_size": 8, "cluster_id": 2, "rank_in_cluster": 7}

>  <energy>  (63) 
-9.1

>  <cluster_rmsd>  (63) 
0.97

>  <rmsd>  (63) 
271.71

>  <cluster>  (63) 
1

$$$$
RYCKWQXGCGPPJB-JLFMESFVNA-N
     RDKit          3D

 66 70  0  0  0  0  0  0  0  0999 V2000
  141.0428   68.7037  228.5629 H   0  0  0  0  0  0  0  0  0  0  0  0
  140.6600   68.7870  227.5350 C   0  0  0  0  0  0  0  0  0  0  0  0
  140.2560   67.6420  226.8470 C   0  0  0  0  0  0  0  0  0  0  0  0
  140.3268   66.6568  227.3311 H   0  0  0  0  0  0  0  0  0  0  0  0
  139.7620   67.7450  225.5450 C   0  0  0  0  0  0  0  0  0  0  0  0
  139.4514   66.8382  225.0053 H   0  0  0  0  0  0  0  0  0  0  0  0
  139.6590   68.9980  224.9200 C   0  0  0  0  0  0  0  0  0  0  0  0
  140.0980   70.1560  225.6070 C   0  0  0  0  0  0  0  0  0  0  0  0
  140.5790   70.0390  226.9200 C   0  0  0  0  0  0  0  0  0  0  0  0
  140.8943   70.9388  227.4687 H   0  0  0  0  0  0  0  0  0  0  0  0
  140.0160   71.5280  224.9780 C   0  0  0  0  0  0  0  0  0  0  0  0
  140.9862   72.0331  225.0948 H   0  0  0  0  0  0  0  0  0  0  0  0
  139.2174   72.0915  225.4827 H   0  0  0  0  0  0  0  0  0  0  0  0
  139.6900   71.4470  223.5510 N   0  0  0  0  0  0  0  0  0  0  0  0
  140.2030   72.4340  222.6340 C   0  0  0  0  0  0  0  0  0  0  0  0
  141.3810   72.2070  221.9930 N   0  0  0  0  0  0  0  0  0  0  0  0
  141.8710   73.1050  221.1000 C   0  0  0  0  0  0  0  0  0  0  0  0
  143.1210   72.8640  220.4240 N   0  0  0  0  0  0  0  0  0  0  0  0
  143.2580   71.7570  219.4650 C   0  0  0  0  0  0  0  0  0  0  0  0
  142.4980   70.9947  219.6914 H   0  0  0  0  0  0  0  0  0  0  0  0
  143.1222   72.1652  218.4526 H   0  0  0  0  0  0  0  0  0  0  0  0
  144.6590   71.1020  219.5330 C   0  0  0  0  0  0  0  0  0  0  0  0
  144.5896   70.2084  220.1707 H   0  0  0  0  0  0  0  0  0  0  0  0
  144.9460   70.8706  218.4966 H   0  0  0  0  0  0  0  0  0  0  0  0
  145.7180   71.9740  220.0760 N   0  0  0  0  0  0  0  0  0  0  0  0
  145.7720   71.8350  221.1130 H   0  0  0  0  0  0  0  0  0  0  0  0
  145.4570   73.3910  219.8100 C   0  0  0  0  0  0  0  0  0  0  0  0
  146.3200   73.9890  220.1381 H   0  0  0  0  0  0  0  0  0  0  0  0
  145.2951   73.5339  218.7314 H   0  0  0  0  0  0  0  0  0  0  0  0
  144.2080   73.8410  220.5720 C   0  0  0  0  0  0  0  0  0  0  0  0
  144.4554   73.9452  221.6388 H   0  0  0  0  0  0  0  0  0  0  0  0
  143.8729   74.8037  220.1586 H   0  0  0  0  0  0  0  0  0  0  0  0
  141.1700   74.2390  220.8490 N   0  0  0  0  0  0  0  0  0  0  0  0
  139.9930   74.4830  221.4810 C   0  0  0  0  0  0  0  0  0  0  0  0
  139.3400   75.5870  221.2630 N   0  0  0  0  0  0  0  0  0  0  0  0
  139.2350   76.6900  222.2180 C   0  0  0  0  0  0  0  0  0  0  0  0
  139.4840   76.3232  223.2247 H   0  0  0  0  0  0  0  0  0  0  0  0
  139.9344   77.4862  221.9231 H   0  0  0  0  0  0  0  0  0  0  0  0
  137.8110   77.2550  222.2240 C   0  0  0  0  0  0  0  0  0  0  0  0
  137.5039   77.4238  223.2667 H   0  0  0  0  0  0  0  0  0  0  0  0
  137.8228   78.1911  221.6464 H   0  0  0  0  0  0  0  0  0  0  0  0
  136.7940   76.3110  221.5580 C   0  0  0  0  0  0  0  0  0  0  0  0
  135.7878   76.7452  221.6527 H   0  0  0  0  0  0  0  0  0  0  0  0
  137.0720   76.1947  220.5001 H   0  0  0  0  0  0  0  0  0  0  0  0
  136.8020   74.9740  222.1900 N   0  0  0  0  0  0  0  0  0  0  0  0
  135.7140   74.8200  223.1730 C   0  0  0  0  0  0  0  0  0  0  0  0
  135.7810   75.6229  223.9219 H   0  0  0  0  0  0  0  0  0  0  0  0
  134.7444   74.8778  222.6567 H   0  0  0  0  0  0  0  0  0  0  0  0
  135.8400   73.4510  223.8750 C   0  0  0  0  0  0  0  0  0  0  0  0
  136.2024   73.6130  224.9009 H   0  0  0  0  0  0  0  0  0  0  0  0
  134.8465   72.9789  223.8660 H   0  0  0  0  0  0  0  0  0  0  0  0
  136.7380   72.5770  223.2080 O   0  0  0  0  0  0  0  0  0  0  0  0
  136.4340   72.5390  221.8300 C   0  0  0  0  0  0  0  0  0  0  0  0
  137.0528   71.7701  221.3443 H   0  0  0  0  0  0  0  0  0  0  0  0
  135.3669   72.3011  221.7084 H   0  0  0  0  0  0  0  0  0  0  0  0
  136.7170   73.9070  221.1740 C   0  0  0  0  0  0  0  0  0  0  0  0
  137.6704   73.8536  220.6280 H   0  0  0  0  0  0  0  0  0  0  0  0
  135.8914   74.1431  220.4865 H   0  0  0  0  0  0  0  0  0  0  0  0
  139.5040   73.5740  222.3650 N   0  0  0  0  0  0  0  0  0  0  0  0
  138.5740   73.7460  222.8090 H   0  0  0  0  0  0  0  0  0  0  0  0
  138.6720   70.4720  223.1490 C   0  0  0  0  0  0  0  0  0  0  0  0
  138.4979   70.5453  222.0653 H   0  0  0  0  0  0  0  0  0  0  0  0
  137.7300   70.6763  223.6791 H   0  0  0  0  0  0  0  0  0  0  0  0
  139.1670   69.0700  223.4950 C   0  0  0  0  0  0  0  0  0  0  0  0
  139.9916   68.8038  222.8174 H   0  0  0  0  0  0  0  0  0  0  0  0
  138.3279   68.3678  223.3816 H   0  0  0  0  0  0  0  0  0  0  0  0
  1  2  1  0
  2  3  2  0
  3  4  1  0
  3  5  1  0
  5  6  1  0
  5  7  2  0
  7  8  1  0
  8  9  2  0
  9 10  1  0
  8 11  1  0
 11 12  1  0
 11 13  1  0
 11 14  1  0
 14 15  1  0
 15 16  2  0
 16 17  1  0
 17 18  1  0
 18 19  1  0
 19 20  1  0
 19 21  1  0
 19 22  1  0
 22 23  1  0
 22 24  1  0
 22 25  1  0
 25 26  1  0
 25 27  1  0
 27 28  1  0
 27 29  1  0
 27 30  1  0
 30 31  1  0
 30 32  1  0
 17 33  2  0
 33 34  1  0
 34 35  2  0
 35 36  1  0
 36 37  1  0
 36 38  1  0
 36 39  1  0
 39 40  1  0
 39 41  1  0
 39 42  1  0
 42 43  1  0
 42 44  1  0
 42 45  1  0
 45 46  1  0
 46 47  1  0
 46 48  1  0
 46 49  1  0
 49 50  1  0
 49 51  1  0
 49 52  1  0
 52 53  1  0
 53 54  1  0
 53 55  1  0
 53 56  1  0
 56 57  1  0
 56 58  1  0
 34 59  1  0
 59 60  1  0
 14 61  1  0
 61 62  1  0
 61 63  1  0
 61 64  1  0
 64 65  1  0
 64 66  1  0
  9  2  1  0
 59 15  1  0
 64  7  1  0
 30 18  1  0
 56 45  1  0
M  END
>  <UniqueID>  (64) 
728

>  <SMILES>  (64) 
c1ccc2c(c1)CCN(c1nc(N3CCNCC3)n/c(=N\CCCN3CCOCC3)[nH]1)C2

>  <Energy>  (64) 
84.29958024141901

>  <Genealogy>  (64) 
c1ccc2c(c1)CCN(c1nc(N3CCNCC3)nc(=NCCCN3CCOCC3)[nH]1)C2 (tautomer)
c1ccc2c(c1)CCN(c1nc(N3CCNCC3)n/c(=N\CCCN3CCOCC3)[nH]1)C2 (cis-trans isomerization)
c1ccc2c(c1)CCN(c1nc(N3CCNCC3)n/c(=N\CCCN3CCOCC3)[nH]1)C2 (3D coordinates assigned)
c1ccc2c(c1)CCN(c1nc(N3CCNCC3)n/c(=N\CCCN3CCOCC3)[nH]1)C2 (nonaromatic ring conformer: 84.29958024141901 kcal/mol)

>  <smiles>  (64) 
c1ccc2c(c1)CCN(c1nc(NCCCN3CCOCC3)nc(N3CCNCC3)n1)C2

>  <score_type>  (64) 
oracle

>  <origin>  (64) 
autodockgpu

>  <m_score__min__energy>  (64) 
-9.3100000000000005

>  <m_primary>  (64) 
energy

>  <meeko>  (64) 
{"free_energy": -7.11, "intermolecular_energy": -9.2, "internal_energy": -2.57, "cluster_size": 5, "cluster_id": 3, "rank_in_cluster": 4}

>  <energy>  (64) 
-9.03

>  <cluster_rmsd>  (64) 
1.31

>  <rmsd>  (64) 
271.68

>  <cluster>  (64) 
1

$$$$
RYCKWQXGCGPPJB-JLFMESFVNA-N
     RDKit          3D

 66 70  0  0  0  0  0  0  0  0999 V2000
  141.2717   68.5988  228.4426 H   0  0  0  0  0  0  0  0  0  0  0  0
  140.8200   68.7120  227.4460 C   0  0  0  0  0  0  0  0  0  0  0  0
  140.3160   67.5960  226.7790 C   0  0  0  0  0  0  0  0  0  0  0  0
  140.3775   66.6026  227.2473 H   0  0  0  0  0  0  0  0  0  0  0  0
  139.7330   67.7370  225.5170 C   0  0  0  0  0  0  0  0  0  0  0  0
  139.3428   66.8517  224.9935 H   0  0  0  0  0  0  0  0  0  0  0  0
  139.6420   69.0000  224.9130 C   0  0  0  0  0  0  0  0  0  0  0  0
  140.1820   70.1300  225.5770 C   0  0  0  0  0  0  0  0  0  0  0  0
  140.7520   69.9740  226.8500 C   0  0  0  0  0  0  0  0  0  0  0  0
  141.1480   70.8514  227.3823 H   0  0  0  0  0  0  0  0  0  0  0  0
  140.1170   71.5120  224.9680 C   0  0  0  0  0  0  0  0  0  0  0  0
  141.1152   71.9716  225.0175 H   0  0  0  0  0  0  0  0  0  0  0  0
  139.3842   72.1047  225.5351 H   0  0  0  0  0  0  0  0  0  0  0  0
  139.6840   71.4630  223.5680 N   0  0  0  0  0  0  0  0  0  0  0  0
  140.1730   72.4370  222.6260 C   0  0  0  0  0  0  0  0  0  0  0  0
  141.3530   72.2190  221.9860 N   0  0  0  0  0  0  0  0  0  0  0  0
  141.8210   73.1050  221.0690 C   0  0  0  0  0  0  0  0  0  0  0  0
  143.0740   72.8740  220.3940 N   0  0  0  0  0  0  0  0  0  0  0  0
  143.2340   71.7390  219.4710 C   0  0  0  0  0  0  0  0  0  0  0  0
  142.4950   70.9655  219.7272 H   0  0  0  0  0  0  0  0  0  0  0  0
  143.0821   72.1091  218.4463 H   0  0  0  0  0  0  0  0  0  0  0  0
  144.6520   71.1230  219.5530 C   0  0  0  0  0  0  0  0  0  0  0  0
  144.6087   70.2500  220.2208 H   0  0  0  0  0  0  0  0  0  0  0  0
  144.9397   70.8647  218.5232 H   0  0  0  0  0  0  0  0  0  0  0  0
  145.6910   72.0390  220.0600 N   0  0  0  0  0  0  0  0  0  0  0  0
  145.7540   71.9360  221.1010 H   0  0  0  0  0  0  0  0  0  0  0  0
  145.3920   73.4390  219.7500 C   0  0  0  0  0  0  0  0  0  0  0  0
  146.2410   74.0692  220.0534 H   0  0  0  0  0  0  0  0  0  0  0  0
  145.2206   73.5421  218.6683 H   0  0  0  0  0  0  0  0  0  0  0  0
  144.1360   73.8820  220.5040 C   0  0  0  0  0  0  0  0  0  0  0  0
  144.3859   74.0271  221.5654 H   0  0  0  0  0  0  0  0  0  0  0  0
  143.7746   74.8220  220.0615 H   0  0  0  0  0  0  0  0  0  0  0  0
  141.0950   74.2170  220.7920 N   0  0  0  0  0  0  0  0  0  0  0  0
  139.9160   74.4520  221.4220 C   0  0  0  0  0  0  0  0  0  0  0  0
  139.2390   75.5370  221.1800 N   0  0  0  0  0  0  0  0  0  0  0  0
  139.4500   76.8150  221.8590 C   0  0  0  0  0  0  0  0  0  0  0  0
  140.3053   76.7245  222.5447 H   0  0  0  0  0  0  0  0  0  0  0  0
  139.6507   77.5910  221.1056 H   0  0  0  0  0  0  0  0  0  0  0  0
  138.2020   77.2070  222.6570 C   0  0  0  0  0  0  0  0  0  0  0  0
  138.3398   76.8934  223.7023 H   0  0  0  0  0  0  0  0  0  0  0  0
  138.0820   78.2971  222.5718 H   0  0  0  0  0  0  0  0  0  0  0  0
  136.9190   76.5540  222.1120 C   0  0  0  0  0  0  0  0  0  0  0  0
  136.0463   77.0814  222.5247 H   0  0  0  0  0  0  0  0  0  0  0  0
  136.9354   76.6238  221.0143 H   0  0  0  0  0  0  0  0  0  0  0  0
  136.8380   75.1260  222.4850 N   0  0  0  0  0  0  0  0  0  0  0  0
  135.7880   74.8740  223.4900 C   0  0  0  0  0  0  0  0  0  0  0  0
  135.9616   75.5124  224.3688 H   0  0  0  0  0  0  0  0  0  0  0  0
  134.8040   75.1047  223.0559 H   0  0  0  0  0  0  0  0  0  0  0  0
  135.8250   73.3910  223.9170 C   0  0  0  0  0  0  0  0  0  0  0  0
  136.2488   73.3263  224.9300 H   0  0  0  0  0  0  0  0  0  0  0  0
  134.7942   73.0085  223.8839 H   0  0  0  0  0  0  0  0  0  0  0  0
  136.6090   72.5920  223.0440 O   0  0  0  0  0  0  0  0  0  0  0  0
  136.2370   72.8400  221.7050 C   0  0  0  0  0  0  0  0  0  0  0  0
  136.7604   72.1307  221.0471 H   0  0  0  0  0  0  0  0  0  0  0  0
  135.1483   72.7145  221.6103 H   0  0  0  0  0  0  0  0  0  0  0  0
  136.6090   74.2800  221.2960 C   0  0  0  0  0  0  0  0  0  0  0  0
  137.5264   74.2560  220.6896 H   0  0  0  0  0  0  0  0  0  0  0  0
  135.7758   74.7063  220.7180 H   0  0  0  0  0  0  0  0  0  0  0  0
  139.4490   73.5550  222.3310 N   0  0  0  0  0  0  0  0  0  0  0  0
  138.5170   73.7190  222.7740 H   0  0  0  0  0  0  0  0  0  0  0  0
  138.5970   70.5390  223.2330 C   0  0  0  0  0  0  0  0  0  0  0  0
  138.3482   70.6333  222.1657 H   0  0  0  0  0  0  0  0  0  0  0  0
  137.7066   70.7784  223.8329 H   0  0  0  0  0  0  0  0  0  0  0  0
  139.0510   69.1120  223.5290 C   0  0  0  0  0  0  0  0  0  0  0  0
  139.8107   68.8173  222.7901 H   0  0  0  0  0  0  0  0  0  0  0  0
  138.1744   68.4500  223.4715 H   0  0  0  0  0  0  0  0  0  0  0  0
  1  2  1  0
  2  3  2  0
  3  4  1  0
  3  5  1  0
  5  6  1  0
  5  7  2  0
  7  8  1  0
  8  9  2  0
  9 10  1  0
  8 11  1  0
 11 12  1  0
 11 13  1  0
 11 14  1  0
 14 15  1  0
 15 16  2  0
 16 17  1  0
 17 18  1  0
 18 19  1  0
 19 20  1  0
 19 21  1  0
 19 22  1  0
 22 23  1  0
 22 24  1  0
 22 25  1  0
 25 26  1  0
 25 27  1  0
 27 28  1  0
 27 29  1  0
 27 30  1  0
 30 31  1  0
 30 32  1  0
 17 33  2  0
 33 34  1  0
 34 35  2  0
 35 36  1  0
 36 37  1  0
 36 38  1  0
 36 39  1  0
 39 40  1  0
 39 41  1  0
 39 42  1  0
 42 43  1  0
 42 44  1  0
 42 45  1  0
 45 46  1  0
 46 47  1  0
 46 48  1  0
 46 49  1  0
 49 50  1  0
 49 51  1  0
 49 52  1  0
 52 53  1  0
 53 54  1  0
 53 55  1  0
 53 56  1  0
 56 57  1  0
 56 58  1  0
 34 59  1  0
 59 60  1  0
 14 61  1  0
 61 62  1  0
 61 63  1  0
 61 64  1  0
 64 65  1  0
 64 66  1  0
  9  2  1  0
 59 15  1  0
 64  7  1  0
 30 18  1  0
 56 45  1  0
M  END
>  <UniqueID>  (65) 
728

>  <SMILES>  (65) 
c1ccc2c(c1)CCN(c1nc(N3CCNCC3)n/c(=N\CCCN3CCOCC3)[nH]1)C2

>  <Energy>  (65) 
84.29958024141901

>  <Genealogy>  (65) 
c1ccc2c(c1)CCN(c1nc(N3CCNCC3)nc(=NCCCN3CCOCC3)[nH]1)C2 (tautomer)
c1ccc2c(c1)CCN(c1nc(N3CCNCC3)n/c(=N\CCCN3CCOCC3)[nH]1)C2 (cis-trans isomerization)
c1ccc2c(c1)CCN(c1nc(N3CCNCC3)n/c(=N\CCCN3CCOCC3)[nH]1)C2 (3D coordinates assigned)
c1ccc2c(c1)CCN(c1nc(N3CCNCC3)n/c(=N\CCCN3CCOCC3)[nH]1)C2 (nonaromatic ring conformer: 84.29958024141901 kcal/mol)

>  <smiles>  (65) 
c1ccc2c(c1)CCN(c1nc(NCCCN3CCOCC3)nc(N3CCNCC3)n1)C2

>  <score_type>  (65) 
oracle

>  <origin>  (65) 
autodockgpu

>  <m_score__min__energy>  (65) 
-9.3100000000000005

>  <m_primary>  (65) 
energy

>  <meeko>  (65) 
{"free_energy": -7.3, "intermolecular_energy": -9.39, "internal_energy": -2.53, "cluster_size": 5, "cluster_id": 3, "rank_in_cluster": 1}

>  <energy>  (65) 
-9.0

>  <cluster_rmsd>  (65) 
1.09

>  <rmsd>  (65) 
271.64

>  <cluster>  (65) 
1

$$$$
RYCKWQXGCGPPJB-JLFMESFVNA-N
     RDKit          3D

 66 70  0  0  0  0  0  0  0  0999 V2000
  142.1437   81.5163  223.0088 H   0  0  0  0  0  0  0  0  0  0  0  0
  141.4410   80.6730  222.9380 C   0  0  0  0  0  0  0  0  0  0  0  0
  140.1880   80.7580  223.5440 C   0  0  0  0  0  0  0  0  0  0  0  0
  139.9062   81.6661  224.0971 H   0  0  0  0  0  0  0  0  0  0  0  0
  139.2900   79.6920  223.4500 C   0  0  0  0  0  0  0  0  0  0  0  0
  138.3057   79.7620  223.9361 H   0  0  0  0  0  0  0  0  0  0  0  0
  139.6360   78.5320  222.7390 C   0  0  0  0  0  0  0  0  0  0  0  0
  140.9200   78.4340  222.1490 C   0  0  0  0  0  0  0  0  0  0  0  0
  141.8050   79.5180  222.2410 C   0  0  0  0  0  0  0  0  0  0  0  0
  142.7929   79.4585  221.7609 H   0  0  0  0  0  0  0  0  0  0  0  0
  141.3450   77.2050  221.3790 C   0  0  0  0  0  0  0  0  0  0  0  0
  142.3343   76.8836  221.7367 H   0  0  0  0  0  0  0  0  0  0  0  0
  141.3794   77.4625  220.3101 H   0  0  0  0  0  0  0  0  0  0  0  0
  140.3940   76.1040  221.5560 N   0  0  0  0  0  0  0  0  0  0  0  0
  140.8560   74.7380  221.5370 C   0  0  0  0  0  0  0  0  0  0  0  0
  142.0030   74.4270  220.8770 N   0  0  0  0  0  0  0  0  0  0  0  0
  142.4790   73.1540  220.8720 C   0  0  0  0  0  0  0  0  0  0  0  0
  143.6930   72.8250  220.1680 N   0  0  0  0  0  0  0  0  0  0  0  0
  144.9710   72.7010  220.8880 C   0  0  0  0  0  0  0  0  0  0  0  0
  144.9114   73.2813  221.8206 H   0  0  0  0  0  0  0  0  0  0  0  0
  145.1434   71.6344  221.0945 H   0  0  0  0  0  0  0  0  0  0  0  0
  146.1610   73.2250  220.0480 C   0  0  0  0  0  0  0  0  0  0  0  0
  146.3739   74.2576  220.3617 H   0  0  0  0  0  0  0  0  0  0  0  0
  146.9990   72.5364  220.2316 H   0  0  0  0  0  0  0  0  0  0  0  0
  145.9320   73.2250  218.5910 N   0  0  0  0  0  0  0  0  0  0  0  0
  145.5270   74.1510  218.3120 H   0  0  0  0  0  0  0  0  0  0  0  0
  145.0030   72.1690  218.1780 C   0  0  0  0  0  0  0  0  0  0  0  0
  144.9463   72.1418  217.0798 H   0  0  0  0  0  0  0  0  0  0  0  0
  145.3637   71.2007  218.5552 H   0  0  0  0  0  0  0  0  0  0  0  0
  143.6130   72.4470  218.7510 C   0  0  0  0  0  0  0  0  0  0  0  0
  143.1486   73.2682  218.1854 H   0  0  0  0  0  0  0  0  0  0  0  0
  143.0098   71.5310  218.6665 H   0  0  0  0  0  0  0  0  0  0  0  0
  141.7970   72.1900  221.5380 N   0  0  0  0  0  0  0  0  0  0  0  0
  140.6490   72.4820  222.2020 C   0  0  0  0  0  0  0  0  0  0  0  0
  139.9790   71.5490  222.8110 N   0  0  0  0  0  0  0  0  0  0  0  0
  139.1510   70.5480  222.1380 C   0  0  0  0  0  0  0  0  0  0  0  0
  138.2749   71.0420  221.6925 H   0  0  0  0  0  0  0  0  0  0  0  0
  139.7477   70.0591  221.3538 H   0  0  0  0  0  0  0  0  0  0  0  0
  138.6790   69.4880  223.1380 C   0  0  0  0  0  0  0  0  0  0  0  0
  137.8531   68.9199  222.6849 H   0  0  0  0  0  0  0  0  0  0  0  0
  139.5392   68.8422  223.3680 H   0  0  0  0  0  0  0  0  0  0  0  0
  138.1880   70.0980  224.4640 C   0  0  0  0  0  0  0  0  0  0  0  0
  138.2943   71.1918  224.4155 H   0  0  0  0  0  0  0  0  0  0  0  0
  137.1351   69.8133  224.6064 H   0  0  0  0  0  0  0  0  0  0  0  0
  138.9660   69.5900  225.6140 N   0  0  0  0  0  0  0  0  0  0  0  0
  139.5150   68.2440  225.3610 C   0  0  0  0  0  0  0  0  0  0  0  0
  138.6969   67.5595  225.0925 H   0  0  0  0  0  0  0  0  0  0  0  0
  140.2393   68.2944  224.5346 H   0  0  0  0  0  0  0  0  0  0  0  0
  140.2220   67.7260  226.6310 C   0  0  0  0  0  0  0  0  0  0  0  0
  139.5961   66.9463  227.0897 H   0  0  0  0  0  0  0  0  0  0  0  0
  141.2037   67.3321  226.3291 H   0  0  0  0  0  0  0  0  0  0  0  0
  140.4450   68.7510  227.5870 O   0  0  0  0  0  0  0  0  0  0  0  0
  141.0400   69.8670  226.9610 C   0  0  0  0  0  0  0  0  0  0  0  0
  141.3212   70.6042  227.7275 H   0  0  0  0  0  0  0  0  0  0  0  0
  141.9313   69.5315  226.4106 H   0  0  0  0  0  0  0  0  0  0  0  0
  140.0580   70.5190  225.9670 C   0  0  0  0  0  0  0  0  0  0  0  0
  139.6280   71.4214  226.4261 H   0  0  0  0  0  0  0  0  0  0  0  0
  140.6080   70.7771  225.0500 H   0  0  0  0  0  0  0  0  0  0  0  0
  140.1860   73.7600  222.2110 N   0  0  0  0  0  0  0  0  0  0  0  0
  139.3290   73.9860  222.7660 H   0  0  0  0  0  0  0  0  0  0  0  0
  138.9670   76.4390  221.5340 C   0  0  0  0  0  0  0  0  0  0  0  0
  138.3704   75.5204  221.6354 H   0  0  0  0  0  0  0  0  0  0  0  0
  138.7138   76.9291  220.5823 H   0  0  0  0  0  0  0  0  0  0  0  0
  138.6620   77.3790  222.6970 C   0  0  0  0  0  0  0  0  0  0  0  0
  138.7310   76.8168  223.6400 H   0  0  0  0  0  0  0  0  0  0  0  0
  137.6488   77.7846  222.5597 H   0  0  0  0  0  0  0  0  0  0  0  0
  1  2  1  0
  2  3  2  0
  3  4  1  0
  3  5  1  0
  5  6  1  0
  5  7  2  0
  7  8  1  0
  8  9  2  0
  9 10  1  0
  8 11  1  0
 11 12  1  0
 11 13  1  0
 11 14  1  0
 14 15  1  0
 15 16  2  0
 16 17  1  0
 17 18  1  0
 18 19  1  0
 19 20  1  0
 19 21  1  0
 19 22  1  0
 22 23  1  0
 22 24  1  0
 22 25  1  0
 25 26  1  0
 25 27  1  0
 27 28  1  0
 27 29  1  0
 27 30  1  0
 30 31  1  0
 30 32  1  0
 17 33  2  0
 33 34  1  0
 34 35  2  0
 35 36  1  0
 36 37  1  0
 36 38  1  0
 36 39  1  0
 39 40  1  0
 39 41  1  0
 39 42  1  0
 42 43  1  0
 42 44  1  0
 42 45  1  0
 45 46  1  0
 46 47  1  0
 46 48  1  0
 46 49  1  0
 49 50  1  0
 49 51  1  0
 49 52  1  0
 52 53  1  0
 53 54  1  0
 53 55  1  0
 53 56  1  0
 56 57  1  0
 56 58  1  0
 34 59  1  0
 59 60  1  0
 14 61  1  0
 61 62  1  0
 61 63  1  0
 61 64  1  0
 64 65  1  0
 64 66  1  0
  9  2  1  0
 59 15  1  0
 64  7  1  0
 30 18  1  0
 56 45  1  0
M  END
>  <UniqueID>  (66) 
728

>  <SMILES>  (66) 
c1ccc2c(c1)CCN(c1nc(N3CCNCC3)n/c(=N\CCCN3CCOCC3)[nH]1)C2

>  <Energy>  (66) 
84.29958024141901

>  <Genealogy>  (66) 
c1ccc2c(c1)CCN(c1nc(N3CCNCC3)nc(=NCCCN3CCOCC3)[nH]1)C2 (tautomer)
c1ccc2c(c1)CCN(c1nc(N3CCNCC3)n/c(=N\CCCN3CCOCC3)[nH]1)C2 (cis-trans isomerization)
c1ccc2c(c1)CCN(c1nc(N3CCNCC3)n/c(=N\CCCN3CCOCC3)[nH]1)C2 (3D coordinates assigned)
c1ccc2c(c1)CCN(c1nc(N3CCNCC3)n/c(=N\CCCN3CCOCC3)[nH]1)C2 (nonaromatic ring conformer: 84.29958024141901 kcal/mol)

>  <smiles>  (66) 
c1ccc2c(c1)CCN(c1nc(NCCCN3CCOCC3)nc(N3CCNCC3)n1)C2

>  <score_type>  (66) 
oracle

>  <origin>  (66) 
autodockgpu

>  <m_score__min__energy>  (66) 
-9.3100000000000005

>  <m_primary>  (66) 
energy

>  <meeko>  (66) 
{"free_energy": -8.54, "intermolecular_energy": -10.63, "internal_energy": -0.81, "cluster_size": 7, "cluster_id": 1, "rank_in_cluster": 7}

>  <energy>  (66) 
-8.95

>  <cluster_rmsd>  (66) 
1.3

>  <rmsd>  (66) 
271.48

>  <cluster>  (66) 
1

$$$$
RYCKWQXGCGPPJB-JLFMESFVNA-N
     RDKit          3D

 66 70  0  0  0  0  0  0  0  0999 V2000
  141.5976   68.7269  228.5201 H   0  0  0  0  0  0  0  0  0  0  0  0
  141.1000   68.8250  227.5440 C   0  0  0  0  0  0  0  0  0  0  0  0
  140.5460   67.7030  226.9290 C   0  0  0  0  0  0  0  0  0  0  0  0
  140.6120   66.7200  227.4183 H   0  0  0  0  0  0  0  0  0  0  0  0
  139.9070   67.8250  225.6920 C   0  0  0  0  0  0  0  0  0  0  0  0
  139.4781   66.9350  225.2083 H   0  0  0  0  0  0  0  0  0  0  0  0
  139.8090   69.0760  225.0630 C   0  0  0  0  0  0  0  0  0  0  0  0
  140.3970   70.2110  225.6740 C   0  0  0  0  0  0  0  0  0  0  0  0
  141.0240   70.0740  226.9220 C   0  0  0  0  0  0  0  0  0  0  0  0
  141.4589   70.9564  227.4142 H   0  0  0  0  0  0  0  0  0  0  0  0
  140.3260   71.5790  225.0360 C   0  0  0  0  0  0  0  0  0  0  0  0
  141.3328   72.0220  225.0278 H   0  0  0  0  0  0  0  0  0  0  0  0
  139.6303   72.1971  225.6225 H   0  0  0  0  0  0  0  0  0  0  0  0
  139.8270   71.5060  223.6600 N   0  0  0  0  0  0  0  0  0  0  0  0
  140.2880   72.4500  222.6730 C   0  0  0  0  0  0  0  0  0  0  0  0
  141.4650   72.2280  222.0290 N   0  0  0  0  0  0  0  0  0  0  0  0
  141.9060   73.0840  221.0710 C   0  0  0  0  0  0  0  0  0  0  0  0
  143.1560   72.8490  220.3920 N   0  0  0  0  0  0  0  0  0  0  0  0
  143.3060   71.7220  219.4590 C   0  0  0  0  0  0  0  0  0  0  0  0
  142.5615   70.9519  219.7092 H   0  0  0  0  0  0  0  0  0  0  0  0
  143.1555   72.1028  218.4380 H   0  0  0  0  0  0  0  0  0  0  0  0
  144.7200   71.0940  219.5330 C   0  0  0  0  0  0  0  0  0  0  0  0
  144.6706   70.2145  220.1918 H   0  0  0  0  0  0  0  0  0  0  0  0
  145.0044   70.8445  218.5001 H   0  0  0  0  0  0  0  0  0  0  0  0
  145.7670   71.9960  220.0480 N   0  0  0  0  0  0  0  0  0  0  0  0
  145.8300   71.8830  221.0880 H   0  0  0  0  0  0  0  0  0  0  0  0
  145.4780   73.4020  219.7510 C   0  0  0  0  0  0  0  0  0  0  0  0
  146.3324   74.0229  220.0585 H   0  0  0  0  0  0  0  0  0  0  0  0
  145.3055   73.5160  218.6706 H   0  0  0  0  0  0  0  0  0  0  0  0
  144.2270   73.8480  220.5110 C   0  0  0  0  0  0  0  0  0  0  0  0
  144.4794   73.9804  221.5735 H   0  0  0  0  0  0  0  0  0  0  0  0
  143.8728   74.7955  220.0788 H   0  0  0  0  0  0  0  0  0  0  0  0
  141.1560   74.1700  220.7570 N   0  0  0  0  0  0  0  0  0  0  0  0
  139.9790   74.4080  221.3910 C   0  0  0  0  0  0  0  0  0  0  0  0
  139.2790   75.4690  221.1120 N   0  0  0  0  0  0  0  0  0  0  0  0
  138.5570   76.2690  222.1010 C   0  0  0  0  0  0  0  0  0  0  0  0
  137.5779   76.5566  221.6903 H   0  0  0  0  0  0  0  0  0  0  0  0
  138.4215   75.6716  223.0147 H   0  0  0  0  0  0  0  0  0  0  0  0
  139.3520   77.5330  222.4450 C   0  0  0  0  0  0  0  0  0  0  0  0
  139.1427   78.2986  221.6834 H   0  0  0  0  0  0  0  0  0  0  0  0
  139.0387   77.8604  223.4473 H   0  0  0  0  0  0  0  0  0  0  0  0
  140.8710   77.2850  222.4900 C   0  0  0  0  0  0  0  0  0  0  0  0
  141.1163   76.7337  223.4097 H   0  0  0  0  0  0  0  0  0  0  0  0
  141.1531   76.7044  221.5993 H   0  0  0  0  0  0  0  0  0  0  0  0
  141.6270   78.5560  222.4750 N   0  0  0  0  0  0  0  0  0  0  0  0
  140.9980   79.5640  221.6010 C   0  0  0  0  0  0  0  0  0  0  0  0
  140.8822   79.1495  220.5887 H   0  0  0  0  0  0  0  0  0  0  0  0
  140.0105   79.8319  222.0048 H   0  0  0  0  0  0  0  0  0  0  0  0
  141.8860   80.8250  221.5410 C   0  0  0  0  0  0  0  0  0  0  0  0
  142.3780   80.8634  220.5579 H   0  0  0  0  0  0  0  0  0  0  0  0
  141.2373   81.6984  221.7033 H   0  0  0  0  0  0  0  0  0  0  0  0
  142.8840   80.8360  222.5500 O   0  0  0  0  0  0  0  0  0  0  0  0
  142.3020   80.5500  223.8030 C   0  0  0  0  0  0  0  0  0  0  0  0
  143.0579   80.6812  224.5913 H   0  0  0  0  0  0  0  0  0  0  0  0
  141.4582   81.2363  223.9674 H   0  0  0  0  0  0  0  0  0  0  0  0
  141.7780   79.0990  223.8390 C   0  0  0  0  0  0  0  0  0  0  0  0
  142.4895   78.4736  224.3982 H   0  0  0  0  0  0  0  0  0  0  0  0
  140.7929   79.0947  224.3284 H   0  0  0  0  0  0  0  0  0  0  0  0
  139.5390   73.5410  222.3400 N   0  0  0  0  0  0  0  0  0  0  0  0
  138.6090   73.7050  222.7860 H   0  0  0  0  0  0  0  0  0  0  0  0
  138.7110   70.5940  223.3980 C   0  0  0  0  0  0  0  0  0  0  0  0
  138.4139   70.6682  222.3415 H   0  0  0  0  0  0  0  0  0  0  0  0
  137.8538   70.8625  224.0329 H   0  0  0  0  0  0  0  0  0  0  0  0
  139.1550   69.1670  223.7060 C   0  0  0  0  0  0  0  0  0  0  0  0
  139.8740   68.8423  222.9394 H   0  0  0  0  0  0  0  0  0  0  0  0
  138.2658   68.5194  223.7055 H   0  0  0  0  0  0  0  0  0  0  0  0
  1  2  1  0
  2  3  2  0
  3  4  1  0
  3  5  1  0
  5  6  1  0
  5  7  2  0
  7  8  1  0
  8  9  2  0
  9 10  1  0
  8 11  1  0
 11 12  1  0
 11 13  1  0
 11 14  1  0
 14 15  1  0
 15 16  2  0
 16 17  1  0
 17 18  1  0
 18 19  1  0
 19 20  1  0
 19 21  1  0
 19 22  1  0
 22 23  1  0
 22 24  1  0
 22 25  1  0
 25 26  1  0
 25 27  1  0
 27 28  1  0
 27 29  1  0
 27 30  1  0
 30 31  1  0
 30 32  1  0
 17 33  2  0
 33 34  1  0
 34 35  2  0
 35 36  1  0
 36 37  1  0
 36 38  1  0
 36 39  1  0
 39 40  1  0
 39 41  1  0
 39 42  1  0
 42 43  1  0
 42 44  1  0
 42 45  1  0
 45 46  1  0
 46 47  1  0
 46 48  1  0
 46 49  1  0
 49 50  1  0
 49 51  1  0
 49 52  1  0
 52 53  1  0
 53 54  1  0
 53 55  1  0
 53 56  1  0
 56 57  1  0
 56 58  1  0
 34 59  1  0
 59 60  1  0
 14 61  1  0
 61 62  1  0
 61 63  1  0
 61 64  1  0
 64 65  1  0
 64 66  1  0
  9  2  1  0
 59 15  1  0
 64  7  1  0
 30 18  1  0
 56 45  1  0
M  END
>  <UniqueID>  (67) 
728

>  <SMILES>  (67) 
c1ccc2c(c1)CCN(c1nc(N3CCNCC3)n/c(=N\CCCN3CCOCC3)[nH]1)C2

>  <Energy>  (67) 
84.29958024141901

>  <Genealogy>  (67) 
c1ccc2c(c1)CCN(c1nc(N3CCNCC3)nc(=NCCCN3CCOCC3)[nH]1)C2 (tautomer)
c1ccc2c(c1)CCN(c1nc(N3CCNCC3)n/c(=N\CCCN3CCOCC3)[nH]1)C2 (cis-trans isomerization)
c1ccc2c(c1)CCN(c1nc(N3CCNCC3)n/c(=N\CCCN3CCOCC3)[nH]1)C2 (3D coordinates assigned)
c1ccc2c(c1)CCN(c1nc(N3CCNCC3)n/c(=N\CCCN3CCOCC3)[nH]1)C2 (nonaromatic ring conformer: 84.29958024141901 kcal/mol)

>  <smiles>  (67) 
c1ccc2c(c1)CCN(c1nc(NCCCN3CCOCC3)nc(N3CCNCC3)n1)C2

>  <score_type>  (67) 
oracle

>  <origin>  (67) 
autodockgpu

>  <m_score__min__energy>  (67) 
-9.3100000000000005

>  <m_primary>  (67) 
energy

>  <meeko>  (67) 
{"free_energy": -9.13, "intermolecular_energy": -11.22, "internal_energy": -0.82, "cluster_size": 8, "cluster_id": 2, "rank_in_cluster": 2}

>  <energy>  (67) 
-8.54

>  <cluster_rmsd>  (67) 
0.79

>  <rmsd>  (67) 
271.15

>  <cluster>  (67) 
1

$$$$
RYCKWQXGCGPPJB-JLFMESFVNA-N
     RDKit          3D

 66 70  0  0  0  0  0  0  0  0999 V2000
  142.7395   81.7196  222.7288 H   0  0  0  0  0  0  0  0  0  0  0  0
  141.9780   80.9260  222.7460 C   0  0  0  0  0  0  0  0  0  0  0  0
  140.8150   81.0930  223.4980 C   0  0  0  0  0  0  0  0  0  0  0  0
  140.6636   82.0152  224.0782 H   0  0  0  0  0  0  0  0  0  0  0  0
  139.8420   80.0900  223.5150 C   0  0  0  0  0  0  0  0  0  0  0  0
  138.9299   80.2236  224.1152 H   0  0  0  0  0  0  0  0  0  0  0  0
  140.0210   78.9130  222.7710 C   0  0  0  0  0  0  0  0  0  0  0  0
  141.2160   78.7320  222.0320 C   0  0  0  0  0  0  0  0  0  0  0  0
  142.1770   79.7530  222.0150 C   0  0  0  0  0  0  0  0  0  0  0  0
  143.0947   79.6290  221.4213 H   0  0  0  0  0  0  0  0  0  0  0  0
  141.4620   77.4800  221.2200 C   0  0  0  0  0  0  0  0  0  0  0  0
  142.4628   77.0905  221.4581 H   0  0  0  0  0  0  0  0  0  0  0  0
  141.3862   77.7398  220.1538 H   0  0  0  0  0  0  0  0  0  0  0  0
  140.4660   76.4450  221.5130 N   0  0  0  0  0  0  0  0  0  0  0  0
  140.8300   75.0520  221.4430 C   0  0  0  0  0  0  0  0  0  0  0  0
  142.0120   74.6940  220.8760 N   0  0  0  0  0  0  0  0  0  0  0  0
  142.3940   73.3910  220.8280 C   0  0  0  0  0  0  0  0  0  0  0  0
  143.6470   73.0130  220.2230 N   0  0  0  0  0  0  0  0  0  0  0  0
  144.8870   72.9850  221.0150 C   0  0  0  0  0  0  0  0  0  0  0  0
  144.7719   73.6557  221.8793 H   0  0  0  0  0  0  0  0  0  0  0  0
  145.0615   71.9479  221.3374 H   0  0  0  0  0  0  0  0  0  0  0  0
  146.1130   73.4420  220.1870 C   0  0  0  0  0  0  0  0  0  0  0  0
  146.2966   74.5047  220.4039 H   0  0  0  0  0  0  0  0  0  0  0  0
  146.9487   72.7905  220.4822 H   0  0  0  0  0  0  0  0  0  0  0  0
  145.9600   73.2900  218.7270 N   0  0  0  0  0  0  0  0  0  0  0  0
  145.5580   74.1740  218.3350 H   0  0  0  0  0  0  0  0  0  0  0  0
  145.0660   72.1810  218.3790 C   0  0  0  0  0  0  0  0  0  0  0  0
  145.0658   72.0412  217.2879 H   0  0  0  0  0  0  0  0  0  0  0  0
  145.4190   71.2629  218.8714 H   0  0  0  0  0  0  0  0  0  0  0  0
  143.6440   72.4910  218.8510 C   0  0  0  0  0  0  0  0  0  0  0  0
  143.1984   73.2415  218.1816 H   0  0  0  0  0  0  0  0  0  0  0  0
  143.0577   71.5605  218.8314 H   0  0  0  0  0  0  0  0  0  0  0  0
  141.5810   72.4430  221.3560 N   0  0  0  0  0  0  0  0  0  0  0  0
  140.3950   72.7810  221.9240 C   0  0  0  0  0  0  0  0  0  0  0  0
  139.6020   71.8660  222.3990 N   0  0  0  0  0  0  0  0  0  0  0  0
  139.9940   70.8560  223.3800 C   0  0  0  0  0  0  0  0  0  0  0  0
  139.6914   69.8623  223.0180 H   0  0  0  0  0  0  0  0  0  0  0  0
  141.0852   70.8931  223.5141 H   0  0  0  0  0  0  0  0  0  0  0  0
  139.3180   71.1300  224.7270 C   0  0  0  0  0  0  0  0  0  0  0  0
  138.7986   72.0979  224.6693 H   0  0  0  0  0  0  0  0  0  0  0  0
  138.6190   70.3032  224.9214 H   0  0  0  0  0  0  0  0  0  0  0  0
  140.3180   71.1770  225.8970 C   0  0  0  0  0  0  0  0  0  0  0  0
  141.2462   71.6584  225.5553 H   0  0  0  0  0  0  0  0  0  0  0  0
  139.8619   71.7478  226.7193 H   0  0  0  0  0  0  0  0  0  0  0  0
  140.6340   69.8200  226.3920 N   0  0  0  0  0  0  0  0  0  0  0  0
  140.6380   69.7540  227.8650 C   0  0  0  0  0  0  0  0  0  0  0  0
  141.3380   70.5034  228.2629 H   0  0  0  0  0  0  0  0  0  0  0  0
  139.6251   69.9586  228.2421 H   0  0  0  0  0  0  0  0  0  0  0  0
  141.0790   68.3470  228.3200 C   0  0  0  0  0  0  0  0  0  0  0  0
  142.1022   68.4101  228.7189 H   0  0  0  0  0  0  0  0  0  0  0  0
  140.3663   68.0051  229.0849 H   0  0  0  0  0  0  0  0  0  0  0  0
  141.0610   67.4020  227.2620 O   0  0  0  0  0  0  0  0  0  0  0  0
  139.8280   67.4720  226.5780 C   0  0  0  0  0  0  0  0  0  0  0  0
  139.7760   66.6564  225.8417 H   0  0  0  0  0  0  0  0  0  0  0  0
  139.0110   67.3773  227.3084 H   0  0  0  0  0  0  0  0  0  0  0  0
  139.6890   68.8240  225.8480 C   0  0  0  0  0  0  0  0  0  0  0  0
  139.8973   68.6778  224.7778 H   0  0  0  0  0  0  0  0  0  0  0  0
  138.6646   69.1971  225.9944 H   0  0  0  0  0  0  0  0  0  0  0  0
  140.0260   74.0880  221.9790 N   0  0  0  0  0  0  0  0  0  0  0  0
  139.1360   74.3450  222.4620 H   0  0  0  0  0  0  0  0  0  0  0  0
  139.0730   76.8760  221.6610 C   0  0  0  0  0  0  0  0  0  0  0  0
  138.4320   75.9995  221.8367 H   0  0  0  0  0  0  0  0  0  0  0  0
  138.7415   77.3864  220.7447 H   0  0  0  0  0  0  0  0  0  0  0  0
  138.9740   77.8290  222.8480 C   0  0  0  0  0  0  0  0  0  0  0  0
  139.1165   77.2589  223.7779 H   0  0  0  0  0  0  0  0  0  0  0  0
  137.9817   78.3034  222.8300 H   0  0  0  0  0  0  0  0  0  0  0  0
  1  2  1  0
  2  3  2  0
  3  4  1  0
  3  5  1  0
  5  6  1  0
  5  7  2  0
  7  8  1  0
  8  9  2  0
  9 10  1  0
  8 11  1  0
 11 12  1  0
 11 13  1  0
 11 14  1  0
 14 15  1  0
 15 16  2  0
 16 17  1  0
 17 18  1  0
 18 19  1  0
 19 20  1  0
 19 21  1  0
 19 22  1  0
 22 23  1  0
 22 24  1  0
 22 25  1  0
 25 26  1  0
 25 27  1  0
 27 28  1  0
 27 29  1  0
 27 30  1  0
 30 31  1  0
 30 32  1  0
 17 33  2  0
 33 34  1  0
 34 35  2  0
 35 36  1  0
 36 37  1  0
 36 38  1  0
 36 39  1  0
 39 40  1  0
 39 41  1  0
 39 42  1  0
 42 43  1  0
 42 44  1  0
 42 45  1  0
 45 46  1  0
 46 47  1  0
 46 48  1  0
 46 49  1  0
 49 50  1  0
 49 51  1  0
 49 52  1  0
 52 53  1  0
 53 54  1  0
 53 55  1  0
 53 56  1  0
 56 57  1  0
 56 58  1  0
 34 59  1  0
 59 60  1  0
 14 61  1  0
 61 62  1  0
 61 63  1  0
 61 64  1  0
 64 65  1  0
 64 66  1  0
  9  2  1  0
 59 15  1  0
 64  7  1  0
 30 18  1  0
 56 45  1  0
M  END
>  <UniqueID>  (68) 
728

>  <SMILES>  (68) 
c1ccc2c(c1)CCN(c1nc(N3CCNCC3)n/c(=N\CCCN3CCOCC3)[nH]1)C2

>  <Energy>  (68) 
84.29958024141901

>  <Genealogy>  (68) 
c1ccc2c(c1)CCN(c1nc(N3CCNCC3)nc(=NCCCN3CCOCC3)[nH]1)C2 (tautomer)
c1ccc2c(c1)CCN(c1nc(N3CCNCC3)n/c(=N\CCCN3CCOCC3)[nH]1)C2 (cis-trans isomerization)
c1ccc2c(c1)CCN(c1nc(N3CCNCC3)n/c(=N\CCCN3CCOCC3)[nH]1)C2 (3D coordinates assigned)
c1ccc2c(c1)CCN(c1nc(N3CCNCC3)n/c(=N\CCCN3CCOCC3)[nH]1)C2 (nonaromatic ring conformer: 84.29958024141901 kcal/mol)

>  <smiles>  (68) 
c1ccc2c(c1)CCN(c1nc(NCCCN3CCOCC3)nc(N3CCNCC3)n1)C2

>  <score_type>  (68) 
oracle

>  <origin>  (68) 
autodockgpu

>  <m_score__min__energy>  (68) 
-9.3100000000000005

>  <m_primary>  (68) 
energy

>  <meeko>  (68) 
{"free_energy": -9.31, "intermolecular_energy": -11.39, "internal_energy": -0.68, "cluster_size": 7, "cluster_id": 1, "rank_in_cluster": 1}

>  <energy>  (68) 
-9.19

>  <cluster_rmsd>  (68) 
0.0

>  <rmsd>  (68) 
271.44

>  <cluster>  (68) 
2

$$$$
RYCKWQXGCGPPJB-JLFMESFVNA-N
     RDKit          3D

 66 70  0  0  0  0  0  0  0  0999 V2000
  140.8637   68.4720  228.3087 H   0  0  0  0  0  0  0  0  0  0  0  0
  140.5240   68.6330  227.2750 C   0  0  0  0  0  0  0  0  0  0  0  0
  140.0460   67.5590  226.5240 C   0  0  0  0  0  0  0  0  0  0  0  0
  140.0153   66.5513  226.9640 H   0  0  0  0  0  0  0  0  0  0  0  0
  139.6060   67.7620  225.2130 C   0  0  0  0  0  0  0  0  0  0  0  0
  139.2369   66.9105  224.6225 H   0  0  0  0  0  0  0  0  0  0  0  0
  139.6320   69.0450  224.6450 C   0  0  0  0  0  0  0  0  0  0  0  0
  140.1450   70.1290  225.3980 C   0  0  0  0  0  0  0  0  0  0  0  0
  140.5720   69.9120  226.7170 C   0  0  0  0  0  0  0  0  0  0  0  0
  140.9471   70.7553  227.3154 H   0  0  0  0  0  0  0  0  0  0  0  0
  140.2030   71.5300  224.8310 C   0  0  0  0  0  0  0  0  0  0  0  0
  141.2092   71.9419  224.9982 H   0  0  0  0  0  0  0  0  0  0  0  0
  139.4410   72.1396  225.3387 H   0  0  0  0  0  0  0  0  0  0  0  0
  139.9170   71.5400  223.3930 N   0  0  0  0  0  0  0  0  0  0  0  0
  140.5440   72.5170  222.5390 C   0  0  0  0  0  0  0  0  0  0  0  0
  141.7180   72.2180  221.9230 N   0  0  0  0  0  0  0  0  0  0  0  0
  142.3130   73.1080  221.0870 C   0  0  0  0  0  0  0  0  0  0  0  0
  143.5600   72.7890  220.4380 N   0  0  0  0  0  0  0  0  0  0  0  0
  144.8080   72.6920  221.2110 C   0  0  0  0  0  0  0  0  0  0  0  0
  144.7012   73.2813  222.1337 H   0  0  0  0  0  0  0  0  0  0  0  0
  144.9872   71.6303  221.4361 H   0  0  0  0  0  0  0  0  0  0  0  0
  146.0250   73.2250  220.4150 C   0  0  0  0  0  0  0  0  0  0  0  0
  146.2099   74.2639  220.7257 H   0  0  0  0  0  0  0  0  0  0  0  0
  146.8647   72.5513  220.6409 H   0  0  0  0  0  0  0  0  0  0  0  0
  145.8560   73.2060  218.9500 N   0  0  0  0  0  0  0  0  0  0  0  0
  145.4490   74.1220  218.6440 H   0  0  0  0  0  0  0  0  0  0  0  0
  144.9610   72.1310  218.5110 C   0  0  0  0  0  0  0  0  0  0  0  0
  144.9500   72.0912  217.4118 H   0  0  0  0  0  0  0  0  0  0  0  0
  145.3205   71.1724  218.9134 H   0  0  0  0  0  0  0  0  0  0  0  0
  143.5430   72.3940  219.0240 C   0  0  0  0  0  0  0  0  0  0  0  0
  143.0896   73.2015  218.4303 H   0  0  0  0  0  0  0  0  0  0  0  0
  142.9573   71.4681  218.9257 H   0  0  0  0  0  0  0  0  0  0  0  0
  141.7190   74.3080  220.8680 N   0  0  0  0  0  0  0  0  0  0  0  0
  140.5470   74.6250  221.4750 C   0  0  0  0  0  0  0  0  0  0  0  0
  139.9980   75.7900  221.2890 N   0  0  0  0  0  0  0  0  0  0  0  0
  139.7960   76.7890  222.3380 C   0  0  0  0  0  0  0  0  0  0  0  0
  139.7640   76.2864  223.3160 H   0  0  0  0  0  0  0  0  0  0  0  0
  140.6272   77.5089  222.3103 H   0  0  0  0  0  0  0  0  0  0  0  0
  138.4800   77.5400  222.1130 C   0  0  0  0  0  0  0  0  0  0  0  0
  138.5481   78.5234  222.6011 H   0  0  0  0  0  0  0  0  0  0  0  0
  138.3327   77.6343  221.0270 H   0  0  0  0  0  0  0  0  0  0  0  0
  137.2630   76.7900  222.6840 C   0  0  0  0  0  0  0  0  0  0  0  0
  137.2347   76.9323  223.7744 H   0  0  0  0  0  0  0  0  0  0  0  0
  136.3554   77.1952  222.2127 H   0  0  0  0  0  0  0  0  0  0  0  0
  137.3320   75.3430  222.3900 N   0  0  0  0  0  0  0  0  0  0  0  0
  136.2790   74.5840  223.0900 C   0  0  0  0  0  0  0  0  0  0  0  0
  136.3428   74.7809  224.1704 H   0  0  0  0  0  0  0  0  0  0  0  0
  135.2932   74.8973  222.7158 H   0  0  0  0  0  0  0  0  0  0  0  0
  136.4690   73.0740  222.8310 C   0  0  0  0  0  0  0  0  0  0  0  0
  136.8564   72.6051  223.7475 H   0  0  0  0  0  0  0  0  0  0  0  0
  135.4911   72.6588  222.5457 H   0  0  0  0  0  0  0  0  0  0  0  0
  137.3740   72.8130  221.7690 O   0  0  0  0  0  0  0  0  0  0  0  0
  137.0300   73.5940  220.6450 C   0  0  0  0  0  0  0  0  0  0  0  0
  137.6575   73.2960  219.7921 H   0  0  0  0  0  0  0  0  0  0  0  0
  135.9676   73.4305  220.4115 H   0  0  0  0  0  0  0  0  0  0  0  0
  137.2500   75.0930  220.9370 C   0  0  0  0  0  0  0  0  0  0  0  0
  138.1878   75.4180  220.4627 H   0  0  0  0  0  0  0  0  0  0  0  0
  136.3972   75.6576  220.5320 H   0  0  0  0  0  0  0  0  0  0  0  0
  139.9530   73.7240  222.3010 N   0  0  0  0  0  0  0  0  0  0  0  0
  139.0270   73.9570  222.7240 H   0  0  0  0  0  0  0  0  0  0  0  0
  138.8330   70.6760  222.9170 C   0  0  0  0  0  0  0  0  0  0  0  0
  138.7013   70.8118  221.8334 H   0  0  0  0  0  0  0  0  0  0  0  0
  137.8953   70.9380  223.4290 H   0  0  0  0  0  0  0  0  0  0  0  0
  139.1940   69.2230  223.2110 C   0  0  0  0  0  0  0  0  0  0  0  0
  140.0141   68.9160  222.5453 H   0  0  0  0  0  0  0  0  0  0  0  0
  138.3015   68.6027  223.0414 H   0  0  0  0  0  0  0  0  0  0  0  0
  1  2  1  0
  2  3  2  0
  3  4  1  0
  3  5  1  0
  5  6  1  0
  5  7  2  0
  7  8  1  0
  8  9  2  0
  9 10  1  0
  8 11  1  0
 11 12  1  0
 11 13  1  0
 11 14  1  0
 14 15  1  0
 15 16  2  0
 16 17  1  0
 17 18  1  0
 18 19  1  0
 19 20  1  0
 19 21  1  0
 19 22  1  0
 22 23  1  0
 22 24  1  0
 22 25  1  0
 25 26  1  0
 25 27  1  0
 27 28  1  0
 27 29  1  0
 27 30  1  0
 30 31  1  0
 30 32  1  0
 17 33  2  0
 33 34  1  0
 34 35  2  0
 35 36  1  0
 36 37  1  0
 36 38  1  0
 36 39  1  0
 39 40  1  0
 39 41  1  0
 39 42  1  0
 42 43  1  0
 42 44  1  0
 42 45  1  0
 45 46  1  0
 46 47  1  0
 46 48  1  0
 46 49  1  0
 49 50  1  0
 49 51  1  0
 49 52  1  0
 52 53  1  0
 53 54  1  0
 53 55  1  0
 53 56  1  0
 56 57  1  0
 56 58  1  0
 34 59  1  0
 59 60  1  0
 14 61  1  0
 61 62  1  0
 61 63  1  0
 61 64  1  0
 64 65  1  0
 64 66  1  0
  9  2  1  0
 59 15  1  0
 64  7  1  0
 30 18  1  0
 56 45  1  0
M  END
>  <UniqueID>  (69) 
728

>  <SMILES>  (69) 
c1ccc2c(c1)CCN(c1nc(N3CCNCC3)n/c(=N\CCCN3CCOCC3)[nH]1)C2

>  <Energy>  (69) 
84.29958024141901

>  <Genealogy>  (69) 
c1ccc2c(c1)CCN(c1nc(N3CCNCC3)nc(=NCCCN3CCOCC3)[nH]1)C2 (tautomer)
c1ccc2c(c1)CCN(c1nc(N3CCNCC3)n/c(=N\CCCN3CCOCC3)[nH]1)C2 (cis-trans isomerization)
c1ccc2c(c1)CCN(c1nc(N3CCNCC3)n/c(=N\CCCN3CCOCC3)[nH]1)C2 (3D coordinates assigned)
c1ccc2c(c1)CCN(c1nc(N3CCNCC3)n/c(=N\CCCN3CCOCC3)[nH]1)C2 (nonaromatic ring conformer: 84.29958024141901 kcal/mol)

>  <smiles>  (69) 
c1ccc2c(c1)CCN(c1nc(NCCCN3CCOCC3)nc(N3CCNCC3)n1)C2

>  <score_type>  (69) 
oracle

>  <origin>  (69) 
autodockgpu

>  <m_score__min__energy>  (69) 
-9.3100000000000005

>  <m_primary>  (69) 
energy

>  <meeko>  (69) 
{"free_energy": -7.25, "intermolecular_energy": -9.33, "internal_energy": -2.55, "cluster_size": 5, "cluster_id": 3, "rank_in_cluster": 3}

>  <energy>  (69) 
-9.13

>  <cluster_rmsd>  (69) 
1.09

>  <rmsd>  (69) 
271.39

>  <cluster>  (69) 
2

$$$$
RYCKWQXGCGPPJB-JLFMESFVNA-N
     RDKit          3D

 66 70  0  0  0  0  0  0  0  0999 V2000
  140.7333   68.5064  228.3669 H   0  0  0  0  0  0  0  0  0  0  0  0
  140.4210   68.6500  227.3220 C   0  0  0  0  0  0  0  0  0  0  0  0
  139.9790   67.5610  226.5720 C   0  0  0  0  0  0  0  0  0  0  0  0
  139.9498   66.5585  227.0239 H   0  0  0  0  0  0  0  0  0  0  0  0
  139.5730   67.7410  225.2470 C   0  0  0  0  0  0  0  0  0  0  0  0
  139.2316   66.8770  224.6579 H   0  0  0  0  0  0  0  0  0  0  0  0
  139.5980   69.0170  224.6630 C   0  0  0  0  0  0  0  0  0  0  0  0
  140.0760   70.1180  225.4160 C   0  0  0  0  0  0  0  0  0  0  0  0
  140.4680   69.9230  226.7490 C   0  0  0  0  0  0  0  0  0  0  0  0
  140.8148   70.7786  227.3470 H   0  0  0  0  0  0  0  0  0  0  0  0
  140.1300   71.5110  224.8330 C   0  0  0  0  0  0  0  0  0  0  0  0
  141.1248   71.9399  225.0239 H   0  0  0  0  0  0  0  0  0  0  0  0
  139.3444   72.1152  225.3102 H   0  0  0  0  0  0  0  0  0  0  0  0
  139.8860   71.4990  223.3870 N   0  0  0  0  0  0  0  0  0  0  0  0
  140.5230   72.4740  222.5380 C   0  0  0  0  0  0  0  0  0  0  0  0
  141.6970   72.1670  221.9260 N   0  0  0  0  0  0  0  0  0  0  0  0
  142.3020   73.0550  221.0950 C   0  0  0  0  0  0  0  0  0  0  0  0
  143.5490   72.7290  220.4500 N   0  0  0  0  0  0  0  0  0  0  0  0
  144.7970   72.6380  221.2240 C   0  0  0  0  0  0  0  0  0  0  0  0
  144.6913   73.2369  222.1406 H   0  0  0  0  0  0  0  0  0  0  0  0
  144.9747   71.5785  221.4605 H   0  0  0  0  0  0  0  0  0  0  0  0
  146.0140   73.1610  220.4220 C   0  0  0  0  0  0  0  0  0  0  0  0
  146.2000   74.2029  220.7217 H   0  0  0  0  0  0  0  0  0  0  0  0
  146.8525   72.4882  220.6548 H   0  0  0  0  0  0  0  0  0  0  0  0
  145.8460   73.1270  218.9570 N   0  0  0  0  0  0  0  0  0  0  0  0
  145.4400   74.0410  218.6420 H   0  0  0  0  0  0  0  0  0  0  0  0
  144.9490   72.0490  218.5300 C   0  0  0  0  0  0  0  0  0  0  0  0
  144.9382   71.9971  217.4313 H   0  0  0  0  0  0  0  0  0  0  0  0
  145.3069   71.0947  218.9437 H   0  0  0  0  0  0  0  0  0  0  0  0
  143.5320   72.3190  219.0390 C   0  0  0  0  0  0  0  0  0  0  0  0
  143.0800   73.1209  218.4367 H   0  0  0  0  0  0  0  0  0  0  0  0
  142.9450   71.3930  218.9500 H   0  0  0  0  0  0  0  0  0  0  0  0
  141.7190   74.2600  220.8770 N   0  0  0  0  0  0  0  0  0  0  0  0
  140.5470   74.5850  221.4800 C   0  0  0  0  0  0  0  0  0  0  0  0
  140.0080   75.7550  221.2960 N   0  0  0  0  0  0  0  0  0  0  0  0
  139.7470   76.7250  222.3600 C   0  0  0  0  0  0  0  0  0  0  0  0
  139.6846   76.1984  223.3237 H   0  0  0  0  0  0  0  0  0  0  0  0
  140.5661   77.4589  222.3837 H   0  0  0  0  0  0  0  0  0  0  0  0
  138.4280   77.4590  222.0990 C   0  0  0  0  0  0  0  0  0  0  0  0
  138.4874   78.4604  222.5503 H   0  0  0  0  0  0  0  0  0  0  0  0
  138.2872   77.5112  221.0093 H   0  0  0  0  0  0  0  0  0  0  0  0
  137.2110   76.7240  222.6900 C   0  0  0  0  0  0  0  0  0  0  0  0
  137.1850   76.8916  223.7769 H   0  0  0  0  0  0  0  0  0  0  0  0
  136.3025   77.1192  222.2119 H   0  0  0  0  0  0  0  0  0  0  0  0
  137.2790   75.2700  222.4290 N   0  0  0  0  0  0  0  0  0  0  0  0
  136.2060   74.5330  223.1220 C   0  0  0  0  0  0  0  0  0  0  0  0
  136.2470   74.7532  224.1989 H   0  0  0  0  0  0  0  0  0  0  0  0
  135.2304   74.8437  222.7198 H   0  0  0  0  0  0  0  0  0  0  0  0
  136.3930   73.0170  222.9000 C   0  0  0  0  0  0  0  0  0  0  0  0
  136.7574   72.5662  223.8349 H   0  0  0  0  0  0  0  0  0  0  0  0
  135.4193   72.6010  222.6020 H   0  0  0  0  0  0  0  0  0  0  0  0
  137.3190   72.7280  221.8650 O   0  0  0  0  0  0  0  0  0  0  0  0
  137.0050   73.4850  220.7160 C   0  0  0  0  0  0  0  0  0  0  0  0
  137.6496   73.1643  219.8843 H   0  0  0  0  0  0  0  0  0  0  0  0
  135.9473   73.3222  220.4617 H   0  0  0  0  0  0  0  0  0  0  0  0
  137.2280   74.9890  220.9800 C   0  0  0  0  0  0  0  0  0  0  0  0
  138.1782   75.2980  220.5200 H   0  0  0  0  0  0  0  0  0  0  0  0
  136.3883   75.5498  220.5435 H   0  0  0  0  0  0  0  0  0  0  0  0
  139.9430   73.6870  222.3020 N   0  0  0  0  0  0  0  0  0  0  0  0
  139.0170   73.9250  222.7230 H   0  0  0  0  0  0  0  0  0  0  0  0
  138.8280   70.6140  222.8920 C   0  0  0  0  0  0  0  0  0  0  0  0
  138.7260   70.7336  221.8033 H   0  0  0  0  0  0  0  0  0  0  0  0
  137.8727   70.8701  223.3734 H   0  0  0  0  0  0  0  0  0  0  0  0
  139.1990   69.1700  223.2160 C   0  0  0  0  0  0  0  0  0  0  0  0
  140.0415   68.8649  222.5780 H   0  0  0  0  0  0  0  0  0  0  0  0
  138.3197   68.5359  223.0298 H   0  0  0  0  0  0  0  0  0  0  0  0
  1  2  1  0
  2  3  2  0
  3  4  1  0
  3  5  1  0
  5  6  1  0
  5  7  2  0
  7  8  1  0
  8  9  2  0
  9 10  1  0
  8 11  1  0
 11 12  1  0
 11 13  1  0
 11 14  1  0
 14 15  1  0
 15 16  2  0
 16 17  1  0
 17 18  1  0
 18 19  1  0
 19 20  1  0
 19 21  1  0
 19 22  1  0
 22 23  1  0
 22 24  1  0
 22 25  1  0
 25 26  1  0
 25 27  1  0
 27 28  1  0
 27 29  1  0
 27 30  1  0
 30 31  1  0
 30 32  1  0
 17 33  2  0
 33 34  1  0
 34 35  2  0
 35 36  1  0
 36 37  1  0
 36 38  1  0
 36 39  1  0
 39 40  1  0
 39 41  1  0
 39 42  1  0
 42 43  1  0
 42 44  1  0
 42 45  1  0
 45 46  1  0
 46 47  1  0
 46 48  1  0
 46 49  1  0
 49 50  1  0
 49 51  1  0
 49 52  1  0
 52 53  1  0
 53 54  1  0
 53 55  1  0
 53 56  1  0
 56 57  1  0
 56 58  1  0
 34 59  1  0
 59 60  1  0
 14 61  1  0
 61 62  1  0
 61 63  1  0
 61 64  1  0
 64 65  1  0
 64 66  1  0
  9  2  1  0
 59 15  1  0
 64  7  1  0
 30 18  1  0
 56 45  1  0
M  END
>  <UniqueID>  (70) 
728

>  <SMILES>  (70) 
c1ccc2c(c1)CCN(c1nc(N3CCNCC3)n/c(=N\CCCN3CCOCC3)[nH]1)C2

>  <Energy>  (70) 
84.29958024141901

>  <Genealogy>  (70) 
c1ccc2c(c1)CCN(c1nc(N3CCNCC3)nc(=NCCCN3CCOCC3)[nH]1)C2 (tautomer)
c1ccc2c(c1)CCN(c1nc(N3CCNCC3)n/c(=N\CCCN3CCOCC3)[nH]1)C2 (cis-trans isomerization)
c1ccc2c(c1)CCN(c1nc(N3CCNCC3)n/c(=N\CCCN3CCOCC3)[nH]1)C2 (3D coordinates assigned)
c1ccc2c(c1)CCN(c1nc(N3CCNCC3)n/c(=N\CCCN3CCOCC3)[nH]1)C2 (nonaromatic ring conformer: 84.29958024141901 kcal/mol)

>  <smiles>  (70) 
c1ccc2c(c1)CCN(c1nc(NCCCN3CCOCC3)nc(N3CCNCC3)n1)C2

>  <score_type>  (70) 
oracle

>  <origin>  (70) 
autodockgpu

>  <m_score__min__energy>  (70) 
-9.3100000000000005

>  <m_primary>  (70) 
energy

>  <meeko>  (70) 
{"free_energy": -7.26, "intermolecular_energy": -9.35, "internal_energy": -2.55, "cluster_size": 5, "cluster_id": 3, "rank_in_cluster": 2}

>  <energy>  (70) 
-9.1

>  <cluster_rmsd>  (70) 
0.92

>  <rmsd>  (70) 
271.36

>  <cluster>  (70) 
2

$$$$
RYCKWQXGCGPPJB-JLFMESFVNA-N
     RDKit          3D

 66 70  0  0  0  0  0  0  0  0999 V2000
  141.5396   68.8177  228.6404 H   0  0  0  0  0  0  0  0  0  0  0  0
  141.0540   68.8740  227.6550 C   0  0  0  0  0  0  0  0  0  0  0  0
  140.5600   67.7160  227.0550 C   0  0  0  0  0  0  0  0  0  0  0  0
  140.6625   66.7467  227.5649 H   0  0  0  0  0  0  0  0  0  0  0  0
  139.9350   67.7850  225.8070 C   0  0  0  0  0  0  0  0  0  0  0  0
  139.5526   66.8675  225.3359 H   0  0  0  0  0  0  0  0  0  0  0  0
  139.7920   69.0170  225.1510 C   0  0  0  0  0  0  0  0  0  0  0  0
  140.3200   70.1890  225.7460 C   0  0  0  0  0  0  0  0  0  0  0  0
  140.9330   70.1060  227.0060 C   0  0  0  0  0  0  0  0  0  0  0  0
  141.3208   71.0167  227.4859 H   0  0  0  0  0  0  0  0  0  0  0  0
  140.1990   71.5400  225.0790 C   0  0  0  0  0  0  0  0  0  0  0  0
  141.1853   72.0270  225.0763 H   0  0  0  0  0  0  0  0  0  0  0  0
  139.4683   72.1390  225.6422 H   0  0  0  0  0  0  0  0  0  0  0  0
  139.7250   71.4160  223.6970 N   0  0  0  0  0  0  0  0  0  0  0  0
  140.1600   72.3600  222.6970 C   0  0  0  0  0  0  0  0  0  0  0  0
  141.3420   72.1630  222.0560 N   0  0  0  0  0  0  0  0  0  0  0  0
  141.7590   73.0180  221.0870 C   0  0  0  0  0  0  0  0  0  0  0  0
  143.0160   72.8090  220.4110 N   0  0  0  0  0  0  0  0  0  0  0  0
  143.1870   71.6930  219.4680 C   0  0  0  0  0  0  0  0  0  0  0  0
  142.4540   70.9089  219.7086 H   0  0  0  0  0  0  0  0  0  0  0  0
  143.0339   72.0808  218.4501 H   0  0  0  0  0  0  0  0  0  0  0  0
  144.6100   71.0870  219.5410 C   0  0  0  0  0  0  0  0  0  0  0  0
  144.5721   70.1997  220.1900 H   0  0  0  0  0  0  0  0  0  0  0  0
  144.9025   70.8531  218.5067 H   0  0  0  0  0  0  0  0  0  0  0  0
  145.6400   72.0000  220.0700 N   0  0  0  0  0  0  0  0  0  0  0  0
  145.7010   71.8780  221.1090 H   0  0  0  0  0  0  0  0  0  0  0  0
  145.3310   73.4040  219.7860 C   0  0  0  0  0  0  0  0  0  0  0  0
  146.1743   74.0347  220.1041 H   0  0  0  0  0  0  0  0  0  0  0  0
  145.1619   73.5264  218.7060 H   0  0  0  0  0  0  0  0  0  0  0  0
  144.0700   73.8230  220.5440 C   0  0  0  0  0  0  0  0  0  0  0  0
  144.3155   73.9495  221.6088 H   0  0  0  0  0  0  0  0  0  0  0  0
  143.7029   74.7687  220.1188 H   0  0  0  0  0  0  0  0  0  0  0  0
  140.9790   74.0780  220.7590 N   0  0  0  0  0  0  0  0  0  0  0  0
  139.7950   74.2910  221.3890 C   0  0  0  0  0  0  0  0  0  0  0  0
  139.0650   75.3270  221.0960 N   0  0  0  0  0  0  0  0  0  0  0  0
  139.0930   76.5950  221.8250 C   0  0  0  0  0  0  0  0  0  0  0  0
  138.1071   77.0773  221.7519 H   0  0  0  0  0  0  0  0  0  0  0  0
  139.3385   76.3963  222.8787 H   0  0  0  0  0  0  0  0  0  0  0  0
  140.1560   77.5260  221.2330 C   0  0  0  0  0  0  0  0  0  0  0  0
  140.4984   77.1053  220.2760 H   0  0  0  0  0  0  0  0  0  0  0  0
  139.6940   78.5155  221.1010 H   0  0  0  0  0  0  0  0  0  0  0  0
  141.3740   77.7020  222.1570 C   0  0  0  0  0  0  0  0  0  0  0  0
  141.3644   76.9065  222.9166 H   0  0  0  0  0  0  0  0  0  0  0  0
  142.2846   77.6454  221.5426 H   0  0  0  0  0  0  0  0  0  0  0  0
  141.3530   79.0150  222.8360 N   0  0  0  0  0  0  0  0  0  0  0  0
  142.7060   79.5810  222.9910 C   0  0  0  0  0  0  0  0  0  0  0  0
  143.3452   78.8607  223.5226 H   0  0  0  0  0  0  0  0  0  0  0  0
  143.1308   79.7881  221.9977 H   0  0  0  0  0  0  0  0  0  0  0  0
  142.6300   80.8940  223.7990 C   0  0  0  0  0  0  0  0  0  0  0  0
  143.0265   80.7101  224.8084 H   0  0  0  0  0  0  0  0  0  0  0  0
  143.2218   81.6504  223.2628 H   0  0  0  0  0  0  0  0  0  0  0  0
  141.3040   81.3870  223.9140 O   0  0  0  0  0  0  0  0  0  0  0  0
  140.6890   81.4060  222.6430 C   0  0  0  0  0  0  0  0  0  0  0  0
  139.7102   81.9016  222.7224 H   0  0  0  0  0  0  0  0  0  0  0  0
  141.3375   81.9539  221.9435 H   0  0  0  0  0  0  0  0  0  0  0  0
  140.4890   79.9710  222.1150 C   0  0  0  0  0  0  0  0  0  0  0  0
  139.4372   79.6803  222.2538 H   0  0  0  0  0  0  0  0  0  0  0  0
  140.7579   79.9500  221.0486 H   0  0  0  0  0  0  0  0  0  0  0  0
  139.3800   73.4250  222.3500 N   0  0  0  0  0  0  0  0  0  0  0  0
  138.4460   73.5680  222.7940 H   0  0  0  0  0  0  0  0  0  0  0  0
  138.6540   70.4510  223.4380 C   0  0  0  0  0  0  0  0  0  0  0  0
  138.3699   70.4908  222.3761 H   0  0  0  0  0  0  0  0  0  0  0  0
  137.7761   70.6941  224.0547 H   0  0  0  0  0  0  0  0  0  0  0  0
  139.1560   69.0510  223.7820 C   0  0  0  0  0  0  0  0  0  0  0  0
  139.9008   68.7434  223.0332 H   0  0  0  0  0  0  0  0  0  0  0  0
  138.2967   68.3642  223.7813 H   0  0  0  0  0  0  0  0  0  0  0  0
  1  2  1  0
  2  3  2  0
  3  4  1  0
  3  5  1  0
  5  6  1  0
  5  7  2  0
  7  8  1  0
  8  9  2  0
  9 10  1  0
  8 11  1  0
 11 12  1  0
 11 13  1  0
 11 14  1  0
 14 15  1  0
 15 16  2  0
 16 17  1  0
 17 18  1  0
 18 19  1  0
 19 20  1  0
 19 21  1  0
 19 22  1  0
 22 23  1  0
 22 24  1  0
 22 25  1  0
 25 26  1  0
 25 27  1  0
 27 28  1  0
 27 29  1  0
 27 30  1  0
 30 31  1  0
 30 32  1  0
 17 33  2  0
 33 34  1  0
 34 35  2  0
 35 36  1  0
 36 37  1  0
 36 38  1  0
 36 39  1  0
 39 40  1  0
 39 41  1  0
 39 42  1  0
 42 43  1  0
 42 44  1  0
 42 45  1  0
 45 46  1  0
 46 47  1  0
 46 48  1  0
 46 49  1  0
 49 50  1  0
 49 51  1  0
 49 52  1  0
 52 53  1  0
 53 54  1  0
 53 55  1  0
 53 56  1  0
 56 57  1  0
 56 58  1  0
 34 59  1  0
 59 60  1  0
 14 61  1  0
 61 62  1  0
 61 63  1  0
 61 64  1  0
 64 65  1  0
 64 66  1  0
  9  2  1  0
 59 15  1  0
 64  7  1  0
 30 18  1  0
 56 45  1  0
M  END
>  <UniqueID>  (71) 
728

>  <SMILES>  (71) 
c1ccc2c(c1)CCN(c1nc(N3CCNCC3)n/c(=N\CCCN3CCOCC3)[nH]1)C2

>  <Energy>  (71) 
84.29958024141901

>  <Genealogy>  (71) 
c1ccc2c(c1)CCN(c1nc(N3CCNCC3)nc(=NCCCN3CCOCC3)[nH]1)C2 (tautomer)
c1ccc2c(c1)CCN(c1nc(N3CCNCC3)n/c(=N\CCCN3CCOCC3)[nH]1)C2 (cis-trans isomerization)
c1ccc2c(c1)CCN(c1nc(N3CCNCC3)n/c(=N\CCCN3CCOCC3)[nH]1)C2 (3D coordinates assigned)
c1ccc2c(c1)CCN(c1nc(N3CCNCC3)n/c(=N\CCCN3CCOCC3)[nH]1)C2 (nonaromatic ring conformer: 84.29958024141901 kcal/mol)

>  <smiles>  (71) 
c1ccc2c(c1)CCN(c1nc(NCCCN3CCOCC3)nc(N3CCNCC3)n1)C2

>  <score_type>  (71) 
oracle

>  <origin>  (71) 
autodockgpu

>  <m_score__min__energy>  (71) 
-9.3100000000000005

>  <m_primary>  (71) 
energy

>  <meeko>  (71) 
{"free_energy": -8.86, "intermolecular_energy": -10.95, "internal_energy": -0.8, "cluster_size": 8, "cluster_id": 2, "rank_in_cluster": 8}

>  <energy>  (71) 
-9.1

>  <cluster_rmsd>  (71) 
0.96

>  <rmsd>  (71) 
271.35

>  <cluster>  (71) 
2

$$$$
RYCKWQXGCGPPJB-JLFMESFVNA-N
     RDKit          3D

 66 70  0  0  0  0  0  0  0  0999 V2000
  141.6795   68.4357  228.3044 H   0  0  0  0  0  0  0  0  0  0  0  0
  141.0950   68.6100  227.3890 C   0  0  0  0  0  0  0  0  0  0  0  0
  140.3920   67.5590  226.8010 C   0  0  0  0  0  0  0  0  0  0  0  0
  140.4290   66.5552  227.2494 H   0  0  0  0  0  0  0  0  0  0  0  0
  139.6410   67.7780  225.6440 C   0  0  0  0  0  0  0  0  0  0  0  0
  139.0932   66.9436  225.1818 H   0  0  0  0  0  0  0  0  0  0  0  0
  139.5810   69.0570  225.0670 C   0  0  0  0  0  0  0  0  0  0  0  0
  140.3200   70.1170  225.6470 C   0  0  0  0  0  0  0  0  0  0  0  0
  141.0580   69.8840  226.8170 C   0  0  0  0  0  0  0  0  0  0  0  0
  141.6114   70.7102  227.2873 H   0  0  0  0  0  0  0  0  0  0  0  0
  140.2960   71.5110  225.0620 C   0  0  0  0  0  0  0  0  0  0  0  0
  141.3295   71.8739  224.9607 H   0  0  0  0  0  0  0  0  0  0  0  0
  139.7178   72.1587  225.7374 H   0  0  0  0  0  0  0  0  0  0  0  0
  139.6530   71.5300  223.7440 N   0  0  0  0  0  0  0  0  0  0  0  0
  140.0850   72.4730  222.7430 C   0  0  0  0  0  0  0  0  0  0  0  0
  141.3010   72.3180  222.1540 N   0  0  0  0  0  0  0  0  0  0  0  0
  141.7190   73.1720  221.1850 C   0  0  0  0  0  0  0  0  0  0  0  0
  143.0100   73.0080  220.5640 N   0  0  0  0  0  0  0  0  0  0  0  0
  143.2460   71.9300  219.5910 C   0  0  0  0  0  0  0  0  0  0  0  0
  142.5153   71.1267  219.7666 H   0  0  0  0  0  0  0  0  0  0  0  0
  143.1367   72.3531  218.5815 H   0  0  0  0  0  0  0  0  0  0  0  0
  144.6730   71.3430  219.7120 C   0  0  0  0  0  0  0  0  0  0  0  0
  144.6185   70.4324  220.3266 H   0  0  0  0  0  0  0  0  0  0  0  0
  145.0191   71.1507  218.6857 H   0  0  0  0  0  0  0  0  0  0  0  0
  145.6610   72.2520  220.3230 N   0  0  0  0  0  0  0  0  0  0  0  0
  145.6740   72.0930  221.3580 H   0  0  0  0  0  0  0  0  0  0  0  0
  145.3420   73.6610  220.0740 C   0  0  0  0  0  0  0  0  0  0  0  0
  146.1581   74.2928  220.4546 H   0  0  0  0  0  0  0  0  0  0  0  0
  145.2229   73.8203  218.9921 H   0  0  0  0  0  0  0  0  0  0  0  0
  144.0390   74.0320  220.7850 C   0  0  0  0  0  0  0  0  0  0  0  0
  144.2310   74.1222  221.8644 H   0  0  0  0  0  0  0  0  0  0  0  0
  143.6766   74.9873  220.3774 H   0  0  0  0  0  0  0  0  0  0  0  0
  140.9060   74.1890  220.8040 N   0  0  0  0  0  0  0  0  0  0  0  0
  139.6900   74.3610  221.3810 C   0  0  0  0  0  0  0  0  0  0  0  0
  138.9260   75.3570  221.0380 N   0  0  0  0  0  0  0  0  0  0  0  0
  139.3670   76.7490  220.9560 C   0  0  0  0  0  0  0  0  0  0  0  0
  140.3115   76.7979  220.3943 H   0  0  0  0  0  0  0  0  0  0  0  0
  138.5931   77.3399  220.4442 H   0  0  0  0  0  0  0  0  0  0  0  0
  139.5840   77.3220  222.3610 C   0  0  0  0  0  0  0  0  0  0  0  0
  139.1133   78.3149  222.4128 H   0  0  0  0  0  0  0  0  0  0  0  0
  139.1340   76.6207  223.0791 H   0  0  0  0  0  0  0  0  0  0  0  0
  141.0750   77.4640  222.7210 C   0  0  0  0  0  0  0  0  0  0  0  0
  141.3388   76.6960  223.4630 H   0  0  0  0  0  0  0  0  0  0  0  0
  141.6665   77.3384  221.8021 H   0  0  0  0  0  0  0  0  0  0  0  0
  141.3690   78.7990  223.2850 N   0  0  0  0  0  0  0  0  0  0  0  0
  142.6170   79.3670  222.7410 C   0  0  0  0  0  0  0  0  0  0  0  0
  143.4449   78.6634  222.9129 H   0  0  0  0  0  0  0  0  0  0  0  0
  142.4993   79.5403  221.6611 H   0  0  0  0  0  0  0  0  0  0  0  0
  142.9260   80.7050  223.4440 C   0  0  0  0  0  0  0  0  0  0  0  0
  143.7683   80.5535  224.1351 H   0  0  0  0  0  0  0  0  0  0  0  0
  143.1681   81.4426  222.6647 H   0  0  0  0  0  0  0  0  0  0  0  0
  141.8190   81.2040  224.1790 O   0  0  0  0  0  0  0  0  0  0  0  0
  140.6610   81.1840  223.3720 C   0  0  0  0  0  0  0  0  0  0  0  0
  139.8393   81.6835  223.9061 H   0  0  0  0  0  0  0  0  0  0  0  0
  140.8760   81.7087  222.4294 H   0  0  0  0  0  0  0  0  0  0  0  0
  140.2490   79.7320  223.0510 C   0  0  0  0  0  0  0  0  0  0  0  0
  139.4036   79.4475  223.6947 H   0  0  0  0  0  0  0  0  0  0  0  0
  139.9625   79.6758  221.9904 H   0  0  0  0  0  0  0  0  0  0  0  0
  139.2740   73.4950  222.3430 N   0  0  0  0  0  0  0  0  0  0  0  0
  138.3170   73.6040  222.7460 H   0  0  0  0  0  0  0  0  0  0  0  0
  138.4450   70.7190  223.5740 C   0  0  0  0  0  0  0  0  0  0  0  0
  138.0478   70.8570  222.5576 H   0  0  0  0  0  0  0  0  0  0  0  0
  137.6826   71.0290  224.3038 H   0  0  0  0  0  0  0  0  0  0  0  0
  138.8000   69.2510  223.7900 C   0  0  0  0  0  0  0  0  0  0  0  0
  139.4071   68.9008  222.9422 H   0  0  0  0  0  0  0  0  0  0  0  0
  137.8655   68.6754  223.8641 H   0  0  0  0  0  0  0  0  0  0  0  0
  1  2  1  0
  2  3  2  0
  3  4  1  0
  3  5  1  0
  5  6  1  0
  5  7  2  0
  7  8  1  0
  8  9  2  0
  9 10  1  0
  8 11  1  0
 11 12  1  0
 11 13  1  0
 11 14  1  0
 14 15  1  0
 15 16  2  0
 16 17  1  0
 17 18  1  0
 18 19  1  0
 19 20  1  0
 19 21  1  0
 19 22  1  0
 22 23  1  0
 22 24  1  0
 22 25  1  0
 25 26  1  0
 25 27  1  0
 27 28  1  0
 27 29  1  0
 27 30  1  0
 30 31  1  0
 30 32  1  0
 17 33  2  0
 33 34  1  0
 34 35  2  0
 35 36  1  0
 36 37  1  0
 36 38  1  0
 36 39  1  0
 39 40  1  0
 39 41  1  0
 39 42  1  0
 42 43  1  0
 42 44  1  0
 42 45  1  0
 45 46  1  0
 46 47  1  0
 46 48  1  0
 46 49  1  0
 49 50  1  0
 49 51  1  0
 49 52  1  0
 52 53  1  0
 53 54  1  0
 53 55  1  0
 53 56  1  0
 56 57  1  0
 56 58  1  0
 34 59  1  0
 59 60  1  0
 14 61  1  0
 61 62  1  0
 61 63  1  0
 61 64  1  0
 64 65  1  0
 64 66  1  0
  9  2  1  0
 59 15  1  0
 64  7  1  0
 30 18  1  0
 56 45  1  0
M  END
>  <UniqueID>  (72) 
728

>  <SMILES>  (72) 
c1ccc2c(c1)CCN(c1nc(N3CCNCC3)n/c(=N\CCCN3CCOCC3)[nH]1)C2

>  <Energy>  (72) 
84.29958024141901

>  <Genealogy>  (72) 
c1ccc2c(c1)CCN(c1nc(N3CCNCC3)nc(=NCCCN3CCOCC3)[nH]1)C2 (tautomer)
c1ccc2c(c1)CCN(c1nc(N3CCNCC3)n/c(=N\CCCN3CCOCC3)[nH]1)C2 (cis-trans isomerization)
c1ccc2c(c1)CCN(c1nc(N3CCNCC3)n/c(=N\CCCN3CCOCC3)[nH]1)C2 (3D coordinates assigned)
c1ccc2c(c1)CCN(c1nc(N3CCNCC3)n/c(=N\CCCN3CCOCC3)[nH]1)C2 (nonaromatic ring conformer: 84.29958024141901 kcal/mol)

>  <smiles>  (72) 
c1ccc2c(c1)CCN(c1nc(NCCCN3CCOCC3)nc(N3CCNCC3)n1)C2

>  <score_type>  (72) 
oracle

>  <origin>  (72) 
autodockgpu

>  <m_score__min__energy>  (72) 
-9.3100000000000005

>  <m_primary>  (72) 
energy

>  <meeko>  (72) 
{"free_energy": -9.08, "intermolecular_energy": -11.17, "internal_energy": -0.86, "cluster_size": 8, "cluster_id": 2, "rank_in_cluster": 5}

>  <energy>  (72) 
-9.08

>  <cluster_rmsd>  (72) 
1.01

>  <rmsd>  (72) 
271.46

>  <cluster>  (72) 
2

$$$$
RYCKWQXGCGPPJB-JLFMESFVNA-N
     RDKit          3D

 66 70  0  0  0  0  0  0  0  0999 V2000
  141.4503   68.2894  228.1156 H   0  0  0  0  0  0  0  0  0  0  0  0
  140.9320   68.5150  227.1720 C   0  0  0  0  0  0  0  0  0  0  0  0
  140.2380   67.5080  226.5010 C   0  0  0  0  0  0  0  0  0  0  0  0
  140.2156   66.4882  226.9128 H   0  0  0  0  0  0  0  0  0  0  0  0
  139.5710   67.7930  225.3060 C   0  0  0  0  0  0  0  0  0  0  0  0
  139.0302   66.9938  224.7779 H   0  0  0  0  0  0  0  0  0  0  0  0
  139.5870   69.0920  224.7760 C   0  0  0  0  0  0  0  0  0  0  0  0
  140.3170   70.1080  225.4420 C   0  0  0  0  0  0  0  0  0  0  0  0
  140.9700   69.8090  226.6480 C   0  0  0  0  0  0  0  0  0  0  0  0
  141.5155   70.5995  227.1842 H   0  0  0  0  0  0  0  0  0  0  0  0
  140.3730   71.5210  224.9100 C   0  0  0  0  0  0  0  0  0  0  0  0
  141.4213   71.8536  224.8893 H   0  0  0  0  0  0  0  0  0  0  0  0
  139.7710   72.1620  225.5709 H   0  0  0  0  0  0  0  0  0  0  0  0
  139.8190   71.6090  223.5560 N   0  0  0  0  0  0  0  0  0  0  0  0
  140.3440   72.5720  222.6210 C   0  0  0  0  0  0  0  0  0  0  0  0
  141.4870   72.2940  221.9400 N   0  0  0  0  0  0  0  0  0  0  0  0
  141.9850   73.1710  221.0300 C   0  0  0  0  0  0  0  0  0  0  0  0
  143.2000   72.8750  220.3110 N   0  0  0  0  0  0  0  0  0  0  0  0
  143.2820   71.7080  219.4200 C   0  0  0  0  0  0  0  0  0  0  0  0
  142.5296   70.9688  219.7321 H   0  0  0  0  0  0  0  0  0  0  0  0
  143.0980   72.0511  218.3912 H   0  0  0  0  0  0  0  0  0  0  0  0
  144.6820   71.0460  219.4620 C   0  0  0  0  0  0  0  0  0  0  0  0
  144.6383   70.1949  220.1575 H   0  0  0  0  0  0  0  0  0  0  0  0
  144.9170   70.7479  218.4296 H   0  0  0  0  0  0  0  0  0  0  0  0
  145.7710   71.9400  219.8970 N   0  0  0  0  0  0  0  0  0  0  0  0
  145.8750   71.8670  220.9370 H   0  0  0  0  0  0  0  0  0  0  0  0
  145.5060   73.3400  219.5540 C   0  0  0  0  0  0  0  0  0  0  0  0
  146.3876   73.9495  219.8016 H   0  0  0  0  0  0  0  0  0  0  0  0
  145.2928   73.4155  218.4775 H   0  0  0  0  0  0  0  0  0  0  0  0
  144.2990   73.8490  220.3440 C   0  0  0  0  0  0  0  0  0  0  0  0
  144.5983   74.0185  221.3888 H   0  0  0  0  0  0  0  0  0  0  0  0
  143.9504   74.7866  219.8863 H   0  0  0  0  0  0  0  0  0  0  0  0
  141.3260   74.3340  220.8010 N   0  0  0  0  0  0  0  0  0  0  0  0
  140.1840   74.6290  221.4730 C   0  0  0  0  0  0  0  0  0  0  0  0
  139.5720   75.7610  221.2770 N   0  0  0  0  0  0  0  0  0  0  0  0
  138.6460   76.3780  222.2250 C   0  0  0  0  0  0  0  0  0  0  0  0
  137.6719   75.8707  222.1629 H   0  0  0  0  0  0  0  0  0  0  0  0
  139.0576   76.2818  223.2405 H   0  0  0  0  0  0  0  0  0  0  0  0
  138.4630   77.8640  221.9010 C   0  0  0  0  0  0  0  0  0  0  0  0
  139.0675   78.1080  221.0150 H   0  0  0  0  0  0  0  0  0  0  0  0
  137.3913   78.0354  221.7222 H   0  0  0  0  0  0  0  0  0  0  0  0
  138.8940   78.7830  223.0600 C   0  0  0  0  0  0  0  0  0  0  0  0
  138.1068   79.5311  223.2350 H   0  0  0  0  0  0  0  0  0  0  0  0
  139.0489   78.1618  223.9545 H   0  0  0  0  0  0  0  0  0  0  0  0
  140.1610   79.4810  222.7540 N   0  0  0  0  0  0  0  0  0  0  0  0
  140.2630   80.7750  223.4540 C   0  0  0  0  0  0  0  0  0  0  0  0
  139.3890   81.3953  223.2062 H   0  0  0  0  0  0  0  0  0  0  0  0
  140.2953   80.6017  224.5398 H   0  0  0  0  0  0  0  0  0  0  0  0
  141.5510   81.5020  223.0120 C   0  0  0  0  0  0  0  0  0  0  0  0
  141.2753   82.3365  222.3505 H   0  0  0  0  0  0  0  0  0  0  0  0
  142.0622   81.8557  223.9195 H   0  0  0  0  0  0  0  0  0  0  0  0
  142.4480   80.6490  222.3180 O   0  0  0  0  0  0  0  0  0  0  0  0
  142.6330   79.4540  223.0460 C   0  0  0  0  0  0  0  0  0  0  0  0
  143.4194   78.8548  222.5638 H   0  0  0  0  0  0  0  0  0  0  0  0
  142.9257   79.7073  224.0756 H   0  0  0  0  0  0  0  0  0  0  0  0
  141.3250   78.6360  223.0870 C   0  0  0  0  0  0  0  0  0  0  0  0
  141.3922   77.8136  222.3595 H   0  0  0  0  0  0  0  0  0  0  0  0
  141.1910   78.2407  224.1047 H   0  0  0  0  0  0  0  0  0  0  0  0
  139.6860   73.7420  222.3740 N   0  0  0  0  0  0  0  0  0  0  0  0
  138.7800   73.9550  222.8500 H   0  0  0  0  0  0  0  0  0  0  0  0
  138.6010   70.8430  223.2770 C   0  0  0  0  0  0  0  0  0  0  0  0
  138.2758   71.0305  222.2430 H   0  0  0  0  0  0  0  0  0  0  0  0
  137.8016   71.1502  223.9673 H   0  0  0  0  0  0  0  0  0  0  0  0
  138.8980   69.3570  223.4590 C   0  0  0  0  0  0  0  0  0  0  0  0
  139.5493   69.0189  222.6396 H   0  0  0  0  0  0  0  0  0  0  0  0
  137.9443   68.8089  223.4499 H   0  0  0  0  0  0  0  0  0  0  0  0
  1  2  1  0
  2  3  2  0
  3  4  1  0
  3  5  1  0
  5  6  1  0
  5  7  2  0
  7  8  1  0
  8  9  2  0
  9 10  1  0
  8 11  1  0
 11 12  1  0
 11 13  1  0
 11 14  1  0
 14 15  1  0
 15 16  2  0
 16 17  1  0
 17 18  1  0
 18 19  1  0
 19 20  1  0
 19 21  1  0
 19 22  1  0
 22 23  1  0
 22 24  1  0
 22 25  1  0
 25 26  1  0
 25 27  1  0
 27 28  1  0
 27 29  1  0
 27 30  1  0
 30 31  1  0
 30 32  1  0
 17 33  2  0
 33 34  1  0
 34 35  2  0
 35 36  1  0
 36 37  1  0
 36 38  1  0
 36 39  1  0
 39 40  1  0
 39 41  1  0
 39 42  1  0
 42 43  1  0
 42 44  1  0
 42 45  1  0
 45 46  1  0
 46 47  1  0
 46 48  1  0
 46 49  1  0
 49 50  1  0
 49 51  1  0
 49 52  1  0
 52 53  1  0
 53 54  1  0
 53 55  1  0
 53 56  1  0
 56 57  1  0
 56 58  1  0
 34 59  1  0
 59 60  1  0
 14 61  1  0
 61 62  1  0
 61 63  1  0
 61 64  1  0
 64 65  1  0
 64 66  1  0
  9  2  1  0
 59 15  1  0
 64  7  1  0
 30 18  1  0
 56 45  1  0
M  END
>  <UniqueID>  (73) 
728

>  <SMILES>  (73) 
c1ccc2c(c1)CCN(c1nc(N3CCNCC3)n/c(=N\CCCN3CCOCC3)[nH]1)C2

>  <Energy>  (73) 
84.29958024141901

>  <Genealogy>  (73) 
c1ccc2c(c1)CCN(c1nc(N3CCNCC3)nc(=NCCCN3CCOCC3)[nH]1)C2 (tautomer)
c1ccc2c(c1)CCN(c1nc(N3CCNCC3)n/c(=N\CCCN3CCOCC3)[nH]1)C2 (cis-trans isomerization)
c1ccc2c(c1)CCN(c1nc(N3CCNCC3)n/c(=N\CCCN3CCOCC3)[nH]1)C2 (3D coordinates assigned)
c1ccc2c(c1)CCN(c1nc(N3CCNCC3)n/c(=N\CCCN3CCOCC3)[nH]1)C2 (nonaromatic ring conformer: 84.29958024141901 kcal/mol)

>  <smiles>  (73) 
c1ccc2c(c1)CCN(c1nc(NCCCN3CCOCC3)nc(N3CCNCC3)n1)C2

>  <score_type>  (73) 
oracle

>  <origin>  (73) 
autodockgpu

>  <m_score__min__energy>  (73) 
-9.3100000000000005

>  <m_primary>  (73) 
energy

>  <meeko>  (73) 
{"free_energy": -8.92, "intermolecular_energy": -11.01, "internal_energy": -0.73, "cluster_size": 8, "cluster_id": 2, "rank_in_cluster": 6}

>  <energy>  (73) 
-8.92

>  <cluster_rmsd>  (73) 
1.07

>  <rmsd>  (73) 
271.31

>  <cluster>  (73) 
2

$$$$
RYCKWQXGCGPPJB-JLFMESFVNA-N
     RDKit          3D

 66 70  0  0  0  0  0  0  0  0999 V2000
  143.0471   81.7082  223.0918 H   0  0  0  0  0  0  0  0  0  0  0  0
  142.2210   80.9820  223.0780 C   0  0  0  0  0  0  0  0  0  0  0  0
  141.0640   81.2290  223.8170 C   0  0  0  0  0  0  0  0  0  0  0  0
  140.9809   82.1476  224.4164 H   0  0  0  0  0  0  0  0  0  0  0  0
  140.0100   80.3110  223.7970 C   0  0  0  0  0  0  0  0  0  0  0  0
  139.1033   80.5072  224.3881 H   0  0  0  0  0  0  0  0  0  0  0  0
  140.1010   79.1410  223.0280 C   0  0  0  0  0  0  0  0  0  0  0  0
  141.2880   78.8760  222.3000 C   0  0  0  0  0  0  0  0  0  0  0  0
  142.3320   79.8130  222.3200 C   0  0  0  0  0  0  0  0  0  0  0  0
  143.2446   79.6263  221.7349 H   0  0  0  0  0  0  0  0  0  0  0  0
  141.4410   77.6280  221.4620 C   0  0  0  0  0  0  0  0  0  0  0  0
  142.4017   77.1502  221.7044 H   0  0  0  0  0  0  0  0  0  0  0  0
  141.4043   77.9177  220.4015 H   0  0  0  0  0  0  0  0  0  0  0  0
  140.3570   76.6740  221.7160 N   0  0  0  0  0  0  0  0  0  0  0  0
  140.6040   75.2570  221.6180 C   0  0  0  0  0  0  0  0  0  0  0  0
  141.7210   74.8120  220.9840 N   0  0  0  0  0  0  0  0  0  0  0  0
  141.9950   73.4840  220.9060 C   0  0  0  0  0  0  0  0  0  0  0  0
  143.1790   73.0140  220.2310 N   0  0  0  0  0  0  0  0  0  0  0  0
  143.1680   71.7430  219.4890 C   0  0  0  0  0  0  0  0  0  0  0  0
  142.3656   71.1052  219.8883 H   0  0  0  0  0  0  0  0  0  0  0  0
  143.0021   71.9709  218.4257 H   0  0  0  0  0  0  0  0  0  0  0  0
  144.5150   70.9890  219.6130 C   0  0  0  0  0  0  0  0  0  0  0  0
  144.4138   70.2340  220.4066 H   0  0  0  0  0  0  0  0  0  0  0  0
  144.7194   70.5515  218.6247 H   0  0  0  0  0  0  0  0  0  0  0  0
  145.6710   71.8460  219.9380 N   0  0  0  0  0  0  0  0  0  0  0  0
  145.7760   71.8930  220.9790 H   0  0  0  0  0  0  0  0  0  0  0  0
  145.5070   73.2100  219.4270 C   0  0  0  0  0  0  0  0  0  0  0  0
  146.4329   73.7782  219.6000 H   0  0  0  0  0  0  0  0  0  0  0  0
  145.2917   73.1697  218.3490 H   0  0  0  0  0  0  0  0  0  0  0  0
  144.3470   73.8990  220.1470 C   0  0  0  0  0  0  0  0  0  0  0  0
  144.6658   74.1711  221.1640 H   0  0  0  0  0  0  0  0  0  0  0  0
  144.0655   74.7971  219.5777 H   0  0  0  0  0  0  0  0  0  0  0  0
  141.1380   72.5970  221.4720 N   0  0  0  0  0  0  0  0  0  0  0  0
  140.0170   73.0230  222.1080 C   0  0  0  0  0  0  0  0  0  0  0  0
  139.1790   72.1690  222.6200 N   0  0  0  0  0  0  0  0  0  0  0  0
  139.2880   70.7170  222.4830 C   0  0  0  0  0  0  0  0  0  0  0  0
  138.3099   70.3057  222.1928 H   0  0  0  0  0  0  0  0  0  0  0  0
  140.0383   70.4862  221.7124 H   0  0  0  0  0  0  0  0  0  0  0  0
  139.7270   70.0880  223.8090 C   0  0  0  0  0  0  0  0  0  0  0  0
  138.8312   69.8731  224.4101 H   0  0  0  0  0  0  0  0  0  0  0  0
  140.2877   69.1717  223.5725 H   0  0  0  0  0  0  0  0  0  0  0  0
  140.6580   71.0060  224.6230 C   0  0  0  0  0  0  0  0  0  0  0  0
  141.6909   70.6385  224.5330 H   0  0  0  0  0  0  0  0  0  0  0  0
  140.5706   72.0277  224.2249 H   0  0  0  0  0  0  0  0  0  0  0  0
  140.2790   71.0300  226.0520 N   0  0  0  0  0  0  0  0  0  0  0  0
  140.3150   69.6850  226.6570 C   0  0  0  0  0  0  0  0  0  0  0  0
  139.6709   69.0062  226.0787 H   0  0  0  0  0  0  0  0  0  0  0  0
  141.3485   69.3084  226.6487 H   0  0  0  0  0  0  0  0  0  0  0  0
  139.8080   69.7580  228.1130 C   0  0  0  0  0  0  0  0  0  0  0  0
  138.8026   69.3141  228.1588 H   0  0  0  0  0  0  0  0  0  0  0  0
  140.5227   69.2083  228.7431 H   0  0  0  0  0  0  0  0  0  0  0  0
  139.7400   71.0890  228.6000 O   0  0  0  0  0  0  0  0  0  0  0  0
  140.9540   71.7590  228.3340 C   0  0  0  0  0  0  0  0  0  0  0  0
  140.9369   72.7451  228.8211 H   0  0  0  0  0  0  0  0  0  0  0  0
  141.7856   71.1551  228.7262 H   0  0  0  0  0  0  0  0  0  0  0  0
  141.1490   71.9470  226.8160 C   0  0  0  0  0  0  0  0  0  0  0  0
  140.9015   72.9846  226.5475 H   0  0  0  0  0  0  0  0  0  0  0  0
  142.1970   71.7236  226.5674 H   0  0  0  0  0  0  0  0  0  0  0  0
  139.7560   74.3540  222.1910 N   0  0  0  0  0  0  0  0  0  0  0  0
  138.9180   74.6760  222.7250 H   0  0  0  0  0  0  0  0  0  0  0  0
  139.0030   77.2170  221.8560 C   0  0  0  0  0  0  0  0  0  0  0  0
  138.2882   76.3937  222.0015 H   0  0  0  0  0  0  0  0  0  0  0  0
  138.7295   77.7748  220.9482 H   0  0  0  0  0  0  0  0  0  0  0  0
  138.9660   78.1470  223.0650 C   0  0  0  0  0  0  0  0  0  0  0  0
  139.0466   77.5453  223.9823 H   0  0  0  0  0  0  0  0  0  0  0  0
  138.0171   78.7031  223.0460 H   0  0  0  0  0  0  0  0  0  0  0  0
  1  2  1  0
  2  3  2  0
  3  4  1  0
  3  5  1  0
  5  6  1  0
  5  7  2  0
  7  8  1  0
  8  9  2  0
  9 10  1  0
  8 11  1  0
 11 12  1  0
 11 13  1  0
 11 14  1  0
 14 15  1  0
 15 16  2  0
 16 17  1  0
 17 18  1  0
 18 19  1  0
 19 20  1  0
 19 21  1  0
 19 22  1  0
 22 23  1  0
 22 24  1  0
 22 25  1  0
 25 26  1  0
 25 27  1  0
 27 28  1  0
 27 29  1  0
 27 30  1  0
 30 31  1  0
 30 32  1  0
 17 33  2  0
 33 34  1  0
 34 35  2  0
 35 36  1  0
 36 37  1  0
 36 38  1  0
 36 39  1  0
 39 40  1  0
 39 41  1  0
 39 42  1  0
 42 43  1  0
 42 44  1  0
 42 45  1  0
 45 46  1  0
 46 47  1  0
 46 48  1  0
 46 49  1  0
 49 50  1  0
 49 51  1  0
 49 52  1  0
 52 53  1  0
 53 54  1  0
 53 55  1  0
 53 56  1  0
 56 57  1  0
 56 58  1  0
 34 59  1  0
 59 60  1  0
 14 61  1  0
 61 62  1  0
 61 63  1  0
 61 64  1  0
 64 65  1  0
 64 66  1  0
  9  2  1  0
 59 15  1  0
 64  7  1  0
 30 18  1  0
 56 45  1  0
M  END
>  <UniqueID>  (74) 
728

>  <SMILES>  (74) 
c1ccc2c(c1)CCN(c1nc(N3CCNCC3)n/c(=N\CCCN3CCOCC3)[nH]1)C2

>  <Energy>  (74) 
84.29958024141901

>  <Genealogy>  (74) 
c1ccc2c(c1)CCN(c1nc(N3CCNCC3)nc(=NCCCN3CCOCC3)[nH]1)C2 (tautomer)
c1ccc2c(c1)CCN(c1nc(N3CCNCC3)n/c(=N\CCCN3CCOCC3)[nH]1)C2 (cis-trans isomerization)
c1ccc2c(c1)CCN(c1nc(N3CCNCC3)n/c(=N\CCCN3CCOCC3)[nH]1)C2 (3D coordinates assigned)
c1ccc2c(c1)CCN(c1nc(N3CCNCC3)n/c(=N\CCCN3CCOCC3)[nH]1)C2 (nonaromatic ring conformer: 84.29958024141901 kcal/mol)

>  <smiles>  (74) 
c1ccc2c(c1)CCN(c1nc(NCCCN3CCOCC3)nc(N3CCNCC3)n1)C2

>  <score_type>  (74) 
oracle

>  <origin>  (74) 
autodockgpu

>  <m_score__min__energy>  (74) 
-9.3100000000000005

>  <m_primary>  (74) 
energy

>  <meeko>  (74) 
{"free_energy": -9.03, "intermolecular_energy": -11.11, "internal_energy": -0.83, "cluster_size": 7, "cluster_id": 1, "rank_in_cluster": 4}

>  <energy>  (74) 
-8.9

>  <cluster_rmsd>  (74) 
1.02

>  <rmsd>  (74) 
271.36

>  <cluster>  (74) 
2

$$$$
RYCKWQXGCGPPJB-JLFMESFVNA-N
     RDKit          3D

 66 70  0  0  0  0  0  0  0  0999 V2000
  141.5672   68.3718  228.2397 H   0  0  0  0  0  0  0  0  0  0  0  0
  141.0190   68.5610  227.3050 C   0  0  0  0  0  0  0  0  0  0  0  0
  140.3290   67.5220  226.6800 C   0  0  0  0  0  0  0  0  0  0  0  0
  140.3383   66.5137  227.1195 H   0  0  0  0  0  0  0  0  0  0  0  0
  139.6260   67.7610  225.4960 C   0  0  0  0  0  0  0  0  0  0  0  0
  139.0899   66.9364  225.0034 H   0  0  0  0  0  0  0  0  0  0  0  0
  139.5990   69.0450  224.9310 C   0  0  0  0  0  0  0  0  0  0  0  0
  140.3240   70.0930  225.5510 C   0  0  0  0  0  0  0  0  0  0  0  0
  141.0150   69.8410  226.7460 C   0  0  0  0  0  0  0  0  0  0  0  0
  141.5572   70.6571  227.2460 H   0  0  0  0  0  0  0  0  0  0  0  0
  140.3350   71.4930  224.9800 C   0  0  0  0  0  0  0  0  0  0  0  0
  141.3748   71.8475  224.9232 H   0  0  0  0  0  0  0  0  0  0  0  0
  139.7360   72.1387  225.6390 H   0  0  0  0  0  0  0  0  0  0  0  0
  139.7450   71.5320  223.6390 N   0  0  0  0  0  0  0  0  0  0  0  0
  140.2240   72.4810  222.6660 C   0  0  0  0  0  0  0  0  0  0  0  0
  141.3970   72.2470  222.0190 N   0  0  0  0  0  0  0  0  0  0  0  0
  141.8540   73.1080  221.0740 C   0  0  0  0  0  0  0  0  0  0  0  0
  143.1000   72.8590  220.3920 N   0  0  0  0  0  0  0  0  0  0  0  0
  143.2350   71.7300  219.4580 C   0  0  0  0  0  0  0  0  0  0  0  0
  142.4823   70.9684  219.7099 H   0  0  0  0  0  0  0  0  0  0  0  0
  143.0865   72.1129  218.4375 H   0  0  0  0  0  0  0  0  0  0  0  0
  144.6410   71.0860  219.5280 C   0  0  0  0  0  0  0  0  0  0  0  0
  144.5830   70.2063  220.1859 H   0  0  0  0  0  0  0  0  0  0  0  0
  144.9202   70.8343  218.4942 H   0  0  0  0  0  0  0  0  0  0  0  0
  145.7000   71.9760  220.0420 N   0  0  0  0  0  0  0  0  0  0  0  0
  145.7630   71.8620  221.0810 H   0  0  0  0  0  0  0  0  0  0  0  0
  145.4270   73.3860  219.7470 C   0  0  0  0  0  0  0  0  0  0  0  0
  146.2888   73.9966  220.0544 H   0  0  0  0  0  0  0  0  0  0  0  0
  145.2549   73.5037  218.6669 H   0  0  0  0  0  0  0  0  0  0  0  0
  144.1820   73.8450  220.5090 C   0  0  0  0  0  0  0  0  0  0  0  0
  144.4376   73.9742  221.5711 H   0  0  0  0  0  0  0  0  0  0  0  0
  143.8376   74.7962  220.0770 H   0  0  0  0  0  0  0  0  0  0  0  0
  141.1240   74.2120  220.7750 N   0  0  0  0  0  0  0  0  0  0  0  0
  139.9520   74.4630  221.4110 C   0  0  0  0  0  0  0  0  0  0  0  0
  139.2710   75.5400  221.1470 N   0  0  0  0  0  0  0  0  0  0  0  0
  139.3250   76.7700  221.9380 C   0  0  0  0  0  0  0  0  0  0  0  0
  138.8961   77.5969  221.3529 H   0  0  0  0  0  0  0  0  0  0  0  0
  138.7493   76.6254  222.8641 H   0  0  0  0  0  0  0  0  0  0  0  0
  140.7750   77.1060  222.3000 C   0  0  0  0  0  0  0  0  0  0  0  0
  140.7856   77.6137  223.2758 H   0  0  0  0  0  0  0  0  0  0  0  0
  141.3383   76.1615  222.3269 H   0  0  0  0  0  0  0  0  0  0  0  0
  141.4500   78.0210  221.2610 C   0  0  0  0  0  0  0  0  0  0  0  0
  142.4070   77.5720  220.9569 H   0  0  0  0  0  0  0  0  0  0  0  0
  140.7746   78.1224  220.3987 H   0  0  0  0  0  0  0  0  0  0  0  0
  141.7050   79.3690  221.8130 N   0  0  0  0  0  0  0  0  0  0  0  0
  140.4560   80.1160  222.0510 C   0  0  0  0  0  0  0  0  0  0  0  0
  139.8745   80.1634  221.1185 H   0  0  0  0  0  0  0  0  0  0  0  0
  139.8670   79.6049  222.8268 H   0  0  0  0  0  0  0  0  0  0  0  0
  140.7900   81.5470  222.5210 C   0  0  0  0  0  0  0  0  0  0  0  0
  140.5806   82.2460  221.6979 H   0  0  0  0  0  0  0  0  0  0  0  0
  140.1689   81.7613  223.4032 H   0  0  0  0  0  0  0  0  0  0  0  0
  142.1480   81.6920  222.9060 O   0  0  0  0  0  0  0  0  0  0  0  0
  142.5090   80.6510  223.7890 C   0  0  0  0  0  0  0  0  0  0  0  0
  143.5212   80.8399  224.1759 H   0  0  0  0  0  0  0  0  0  0  0  0
  141.7847   80.6208  224.6164 H   0  0  0  0  0  0  0  0  0  0  0  0
  142.4900   79.2910  223.0620 C   0  0  0  0  0  0  0  0  0  0  0  0
  143.5223   78.9979  222.8203 H   0  0  0  0  0  0  0  0  0  0  0  0
  142.0228   78.5466  223.7235 H   0  0  0  0  0  0  0  0  0  0  0  0
  139.4950   73.5910  222.3480 N   0  0  0  0  0  0  0  0  0  0  0  0
  138.5680   73.7650  222.7960 H   0  0  0  0  0  0  0  0  0  0  0  0
  138.5370   70.7330  223.4140 C   0  0  0  0  0  0  0  0  0  0  0  0
  138.1801   70.8854  222.3847 H   0  0  0  0  0  0  0  0  0  0  0  0
  137.7499   71.0418  224.1177 H   0  0  0  0  0  0  0  0  0  0  0  0
  138.8710   69.2600  223.6270 C   0  0  0  0  0  0  0  0  0  0  0  0
  139.5082   68.9140  222.7998 H   0  0  0  0  0  0  0  0  0  0  0  0
  137.9296   68.6918  223.6576 H   0  0  0  0  0  0  0  0  0  0  0  0
  1  2  1  0
  2  3  2  0
  3  4  1  0
  3  5  1  0
  5  6  1  0
  5  7  2  0
  7  8  1  0
  8  9  2  0
  9 10  1  0
  8 11  1  0
 11 12  1  0
 11 13  1  0
 11 14  1  0
 14 15  1  0
 15 16  2  0
 16 17  1  0
 17 18  1  0
 18 19  1  0
 19 20  1  0
 19 21  1  0
 19 22  1  0
 22 23  1  0
 22 24  1  0
 22 25  1  0
 25 26  1  0
 25 27  1  0
 27 28  1  0
 27 29  1  0
 27 30  1  0
 30 31  1  0
 30 32  1  0
 17 33  2  0
 33 34  1  0
 34 35  2  0
 35 36  1  0
 36 37  1  0
 36 38  1  0
 36 39  1  0
 39 40  1  0
 39 41  1  0
 39 42  1  0
 42 43  1  0
 42 44  1  0
 42 45  1  0
 45 46  1  0
 46 47  1  0
 46 48  1  0
 46 49  1  0
 49 50  1  0
 49 51  1  0
 49 52  1  0
 52 53  1  0
 53 54  1  0
 53 55  1  0
 53 56  1  0
 56 57  1  0
 56 58  1  0
 34 59  1  0
 59 60  1  0
 14 61  1  0
 61 62  1  0
 61 63  1  0
 61 64  1  0
 64 65  1  0
 64 66  1  0
  9  2  1  0
 59 15  1  0
 64  7  1  0
 30 18  1  0
 56 45  1  0
M  END
>  <UniqueID>  (75) 
728

>  <SMILES>  (75) 
c1ccc2c(c1)CCN(c1nc(N3CCNCC3)n/c(=N\CCCN3CCOCC3)[nH]1)C2

>  <Energy>  (75) 
84.29958024141901

>  <Genealogy>  (75) 
c1ccc2c(c1)CCN(c1nc(N3CCNCC3)nc(=NCCCN3CCOCC3)[nH]1)C2 (tautomer)
c1ccc2c(c1)CCN(c1nc(N3CCNCC3)n/c(=N\CCCN3CCOCC3)[nH]1)C2 (cis-trans isomerization)
c1ccc2c(c1)CCN(c1nc(N3CCNCC3)n/c(=N\CCCN3CCOCC3)[nH]1)C2 (3D coordinates assigned)
c1ccc2c(c1)CCN(c1nc(N3CCNCC3)n/c(=N\CCCN3CCOCC3)[nH]1)C2 (nonaromatic ring conformer: 84.29958024141901 kcal/mol)

>  <smiles>  (75) 
c1ccc2c(c1)CCN(c1nc(NCCCN3CCOCC3)nc(N3CCNCC3)n1)C2

>  <score_type>  (75) 
oracle

>  <origin>  (75) 
autodockgpu

>  <m_score__min__energy>  (75) 
-9.3100000000000005

>  <m_primary>  (75) 
energy

>  <meeko>  (75) 
{"free_energy": -9.1, "intermolecular_energy": -11.19, "internal_energy": -0.86, "cluster_size": 8, "cluster_id": 2, "rank_in_cluster": 4}

>  <energy>  (75) 
-8.86

>  <cluster_rmsd>  (75) 
0.98

>  <rmsd>  (75) 
271.41

>  <cluster>  (75) 
2

$$$$
RYCKWQXGCGPPJB-JLFMESFVNA-N
     RDKit          3D

 66 70  0  0  0  0  0  0  0  0999 V2000
  141.6069   81.6095  223.4073 H   0  0  0  0  0  0  0  0  0  0  0  0
  140.9470   80.7410  223.2650 C   0  0  0  0  0  0  0  0  0  0  0  0
  139.6590   80.7500  223.8000 C   0  0  0  0  0  0  0  0  0  0  0  0
  139.3070   81.6229  224.3693 H   0  0  0  0  0  0  0  0  0  0  0  0
  138.8150   79.6520  223.6140 C   0  0  0  0  0  0  0  0  0  0  0  0
  137.8023   79.6624  224.0433 H   0  0  0  0  0  0  0  0  0  0  0  0
  139.2510   78.5360  222.8830 C   0  0  0  0  0  0  0  0  0  0  0  0
  140.5690   78.5150  222.3660 C   0  0  0  0  0  0  0  0  0  0  0  0
  141.4000   79.6310  222.5490 C   0  0  0  0  0  0  0  0  0  0  0  0
  142.4152   79.6314  222.1255 H   0  0  0  0  0  0  0  0  0  0  0  0
  141.0910   77.3350  221.5770 C   0  0  0  0  0  0  0  0  0  0  0  0
  142.0711   77.0408  221.9804 H   0  0  0  0  0  0  0  0  0  0  0  0
  141.1758   77.6355  220.5222 H   0  0  0  0  0  0  0  0  0  0  0  0
  140.1800   76.1900  221.6570 N   0  0  0  0  0  0  0  0  0  0  0  0
  140.7020   74.8470  221.6160 C   0  0  0  0  0  0  0  0  0  0  0  0
  141.8670   74.5990  220.9590 N   0  0  0  0  0  0  0  0  0  0  0  0
  142.3980   73.3490  220.9330 C   0  0  0  0  0  0  0  0  0  0  0  0
  143.6310   73.0870  220.2340 N   0  0  0  0  0  0  0  0  0  0  0  0
  143.6580   72.1990  219.0610 C   0  0  0  0  0  0  0  0  0  0  0  0
  142.7963   71.5172  219.1115 H   0  0  0  0  0  0  0  0  0  0  0  0
  143.6159   72.8261  218.1582 H   0  0  0  0  0  0  0  0  0  0  0  0
  144.9580   71.3590  219.0010 C   0  0  0  0  0  0  0  0  0  0  0  0
  144.7468   70.3686  219.4306 H   0  0  0  0  0  0  0  0  0  0  0  0
  145.2529   71.3157  217.9422 H   0  0  0  0  0  0  0  0  0  0  0  0
  146.1000   71.9430  219.7300 N   0  0  0  0  0  0  0  0  0  0  0  0
  146.0950   71.5820  220.7130 H   0  0  0  0  0  0  0  0  0  0  0  0
  146.0380   73.4070  219.7720 C   0  0  0  0  0  0  0  0  0  0  0  0
  146.9584   73.7985  220.2298 H   0  0  0  0  0  0  0  0  0  0  0  0
  145.9391   73.7959  218.7478 H   0  0  0  0  0  0  0  0  0  0  0  0
  144.8300   73.8510  220.6000 C   0  0  0  0  0  0  0  0  0  0  0  0
  145.0467   73.6910  221.6665 H   0  0  0  0  0  0  0  0  0  0  0  0
  144.6410   74.9161  220.4004 H   0  0  0  0  0  0  0  0  0  0  0  0
  141.7530   72.3420  221.5740 N   0  0  0  0  0  0  0  0  0  0  0  0
  140.5890   72.5710  222.2330 C   0  0  0  0  0  0  0  0  0  0  0  0
  139.9550   71.5970  222.8180 N   0  0  0  0  0  0  0  0  0  0  0  0
  138.4990   71.4780  222.8880 C   0  0  0  0  0  0  0  0  0  0  0  0
  138.0691   72.4498  223.1720 H   0  0  0  0  0  0  0  0  0  0  0  0
  138.1182   71.1698  221.9031 H   0  0  0  0  0  0  0  0  0  0  0  0
  138.0990   70.4260  223.9270 C   0  0  0  0  0  0  0  0  0  0  0  0
  137.4634   70.9051  224.6862 H   0  0  0  0  0  0  0  0  0  0  0  0
  137.5655   69.6226  223.3979 H   0  0  0  0  0  0  0  0  0  0  0  0
  139.3140   69.7930  224.6300 C   0  0  0  0  0  0  0  0  0  0  0  0
  139.1214   68.7205  224.7806 H   0  0  0  0  0  0  0  0  0  0  0  0
  140.1991   69.9458  223.9950 H   0  0  0  0  0  0  0  0  0  0  0  0
  139.5690   70.4250  225.9430 N   0  0  0  0  0  0  0  0  0  0  0  0
  139.9250   69.4340  226.9750 C   0  0  0  0  0  0  0  0  0  0  0  0
  139.1345   68.6717  227.0385 H   0  0  0  0  0  0  0  0  0  0  0  0
  140.8785   68.9551  226.7074 H   0  0  0  0  0  0  0  0  0  0  0  0
  140.0710   70.1370  228.3410 C   0  0  0  0  0  0  0  0  0  0  0  0
  139.2017   69.8805  228.9643 H   0  0  0  0  0  0  0  0  0  0  0  0
  141.0112   69.7914  228.7956 H   0  0  0  0  0  0  0  0  0  0  0  0
  140.1440   71.5500  228.2210 O   0  0  0  0  0  0  0  0  0  0  0  0
  141.0980   71.8990  227.2410 C   0  0  0  0  0  0  0  0  0  0  0  0
  141.2350   72.9904  227.2421 H   0  0  0  0  0  0  0  0  0  0  0  0
  142.0480   71.3965  227.4755 H   0  0  0  0  0  0  0  0  0  0  0  0
  140.6280   71.4480  225.8420 C   0  0  0  0  0  0  0  0  0  0  0  0
  140.2357   72.3189  225.2964 H   0  0  0  0  0  0  0  0  0  0  0  0
  141.4856   71.0125  225.3082 H   0  0  0  0  0  0  0  0  0  0  0  0
  140.0700   73.8260  222.2640 N   0  0  0  0  0  0  0  0  0  0  0  0
  139.2000   74.0040  222.8150 H   0  0  0  0  0  0  0  0  0  0  0  0
  138.7440   76.4660  221.5650 C   0  0  0  0  0  0  0  0  0  0  0  0
  138.1834   75.5202  221.5987 H   0  0  0  0  0  0  0  0  0  0  0  0
  138.5238   76.9816  220.6186 H   0  0  0  0  0  0  0  0  0  0  0  0
  138.3330   77.3470  222.7410 C   0  0  0  0  0  0  0  0  0  0  0  0
  138.3720   76.7519  223.6653 H   0  0  0  0  0  0  0  0  0  0  0  0
  137.3130   77.7160  222.5583 H   0  0  0  0  0  0  0  0  0  0  0  0
  1  2  1  0
  2  3  2  0
  3  4  1  0
  3  5  1  0
  5  6  1  0
  5  7  2  0
  7  8  1  0
  8  9  2  0
  9 10  1  0
  8 11  1  0
 11 12  1  0
 11 13  1  0
 11 14  1  0
 14 15  1  0
 15 16  2  0
 16 17  1  0
 17 18  1  0
 18 19  1  0
 19 20  1  0
 19 21  1  0
 19 22  1  0
 22 23  1  0
 22 24  1  0
 22 25  1  0
 25 26  1  0
 25 27  1  0
 27 28  1  0
 27 29  1  0
 27 30  1  0
 30 31  1  0
 30 32  1  0
 17 33  2  0
 33 34  1  0
 34 35  2  0
 35 36  1  0
 36 37  1  0
 36 38  1  0
 36 39  1  0
 39 40  1  0
 39 41  1  0
 39 42  1  0
 42 43  1  0
 42 44  1  0
 42 45  1  0
 45 46  1  0
 46 47  1  0
 46 48  1  0
 46 49  1  0
 49 50  1  0
 49 51  1  0
 49 52  1  0
 52 53  1  0
 53 54  1  0
 53 55  1  0
 53 56  1  0
 56 57  1  0
 56 58  1  0
 34 59  1  0
 59 60  1  0
 14 61  1  0
 61 62  1  0
 61 63  1  0
 61 64  1  0
 64 65  1  0
 64 66  1  0
  9  2  1  0
 59 15  1  0
 64  7  1  0
 30 18  1  0
 56 45  1  0
M  END
>  <UniqueID>  (76) 
728

>  <SMILES>  (76) 
c1ccc2c(c1)CCN(c1nc(N3CCNCC3)n/c(=N\CCCN3CCOCC3)[nH]1)C2

>  <Energy>  (76) 
84.29958024141901

>  <Genealogy>  (76) 
c1ccc2c(c1)CCN(c1nc(N3CCNCC3)nc(=NCCCN3CCOCC3)[nH]1)C2 (tautomer)
c1ccc2c(c1)CCN(c1nc(N3CCNCC3)n/c(=N\CCCN3CCOCC3)[nH]1)C2 (cis-trans isomerization)
c1ccc2c(c1)CCN(c1nc(N3CCNCC3)n/c(=N\CCCN3CCOCC3)[nH]1)C2 (3D coordinates assigned)
c1ccc2c(c1)CCN(c1nc(N3CCNCC3)n/c(=N\CCCN3CCOCC3)[nH]1)C2 (nonaromatic ring conformer: 84.29958024141901 kcal/mol)

>  <smiles>  (76) 
c1ccc2c(c1)CCN(c1nc(NCCCN3CCOCC3)nc(N3CCNCC3)n1)C2

>  <score_type>  (76) 
oracle

>  <origin>  (76) 
autodockgpu

>  <m_score__min__energy>  (76) 
-9.3100000000000005

>  <m_primary>  (76) 
energy

>  <meeko>  (76) 
{"free_energy": -8.95, "intermolecular_energy": -11.04, "internal_energy": -0.82, "cluster_size": 7, "cluster_id": 1, "rank_in_cluster": 6}

>  <energy>  (76) 
-7.3

>  <cluster_rmsd>  (76) 
0.0

>  <rmsd>  (76) 
270.46

>  <cluster>  (76) 
3

$$$$
RYCKWQXGCGPPJB-JLFMESFVNA-N
     RDKit          3D

 66 70  0  0  0  0  0  0  0  0999 V2000
  141.4949   68.8955  228.7363 H   0  0  0  0  0  0  0  0  0  0  0  0
  141.0230   68.9220  227.7430 C   0  0  0  0  0  0  0  0  0  0  0  0
  140.5870   67.7380  227.1470 C   0  0  0  0  0  0  0  0  0  0  0  0
  140.7224   66.7787  227.6680 H   0  0  0  0  0  0  0  0  0  0  0  0
  139.9790   67.7690  225.8900 C   0  0  0  0  0  0  0  0  0  0  0  0
  139.6421   66.8319  225.4228 H   0  0  0  0  0  0  0  0  0  0  0  0
  139.7950   68.9880  225.2190 C   0  0  0  0  0  0  0  0  0  0  0  0
  140.2650   70.1860  225.8110 C   0  0  0  0  0  0  0  0  0  0  0  0
  140.8610   70.1410  227.0800 C   0  0  0  0  0  0  0  0  0  0  0  0
  141.2031   71.0717  227.5563 H   0  0  0  0  0  0  0  0  0  0  0  0
  140.0980   71.5250  225.1280 C   0  0  0  0  0  0  0  0  0  0  0  0
  141.0632   72.0526  225.1352 H   0  0  0  0  0  0  0  0  0  0  0  0
  139.3341   72.0979  225.6742 H   0  0  0  0  0  0  0  0  0  0  0  0
  139.6510   71.3690  223.7410 N   0  0  0  0  0  0  0  0  0  0  0  0
  140.0600   72.3200  222.7380 C   0  0  0  0  0  0  0  0  0  0  0  0
  141.2850   72.2010  222.1600 N   0  0  0  0  0  0  0  0  0  0  0  0
  141.6830   73.0640  221.1890 C   0  0  0  0  0  0  0  0  0  0  0  0
  142.9840   72.9380  220.5800 N   0  0  0  0  0  0  0  0  0  0  0  0
  143.2550   71.8780  219.5970 C   0  0  0  0  0  0  0  0  0  0  0  0
  142.5427   71.0550  219.7561 H   0  0  0  0  0  0  0  0  0  0  0  0
  143.1444   72.3095  218.5913 H   0  0  0  0  0  0  0  0  0  0  0  0
  144.6960   71.3250  219.7260 C   0  0  0  0  0  0  0  0  0  0  0  0
  144.6581   70.4063  220.3298 H   0  0  0  0  0  0  0  0  0  0  0  0
  145.0568   71.1532  218.7012 H   0  0  0  0  0  0  0  0  0  0  0  0
  145.6550   72.2510  220.3570 N   0  0  0  0  0  0  0  0  0  0  0  0
  145.6610   72.0800  221.3910 H   0  0  0  0  0  0  0  0  0  0  0  0
  145.3040   73.6550  220.1220 C   0  0  0  0  0  0  0  0  0  0  0  0
  146.1002   74.3017  220.5193 H   0  0  0  0  0  0  0  0  0  0  0  0
  145.1926   73.8249  219.0409 H   0  0  0  0  0  0  0  0  0  0  0  0
  143.9850   73.9850  220.8230 C   0  0  0  0  0  0  0  0  0  0  0  0
  144.1636   74.0678  221.9052 H   0  0  0  0  0  0  0  0  0  0  0  0
  143.6029   74.9353  220.4219 H   0  0  0  0  0  0  0  0  0  0  0  0
  140.8400   74.0520  220.7960 N   0  0  0  0  0  0  0  0  0  0  0  0
  139.6140   74.1870  221.3620 C   0  0  0  0  0  0  0  0  0  0  0  0
  138.8220   75.1560  221.0070 N   0  0  0  0  0  0  0  0  0  0  0  0
  138.8580   76.5050  221.5700 C   0  0  0  0  0  0  0  0  0  0  0  0
  139.9021   76.7858  221.7724 H   0  0  0  0  0  0  0  0  0  0  0  0
  138.4120   77.2053  220.8485 H   0  0  0  0  0  0  0  0  0  0  0  0
  138.0580   76.5590  222.8760 C   0  0  0  0  0  0  0  0  0  0  0  0
  138.5801   75.9563  223.6337 H   0  0  0  0  0  0  0  0  0  0  0  0
  137.9834   77.6145  223.1765 H   0  0  0  0  0  0  0  0  0  0  0  0
  136.6250   76.0180  222.7180 C   0  0  0  0  0  0  0  0  0  0  0  0
  136.0094   76.3870  223.5516 H   0  0  0  0  0  0  0  0  0  0  0  0
  136.2277   76.3680  221.7538 H   0  0  0  0  0  0  0  0  0  0  0  0
  136.6020   74.5400  222.7210 N   0  0  0  0  0  0  0  0  0  0  0  0
  135.7900   74.0010  223.8280 C   0  0  0  0  0  0  0  0  0  0  0  0
  136.1609   74.4017  224.7829 H   0  0  0  0  0  0  0  0  0  0  0  0
  134.7396   74.2961  223.6879 H   0  0  0  0  0  0  0  0  0  0  0  0
  135.8920   72.4610  223.8430 C   0  0  0  0  0  0  0  0  0  0  0  0
  136.5238   72.1579  224.6909 H   0  0  0  0  0  0  0  0  0  0  0  0
  134.8717   72.0601  223.9340 H   0  0  0  0  0  0  0  0  0  0  0  0
  136.4540   71.9400  222.6480 O   0  0  0  0  0  0  0  0  0  0  0  0
  135.8050   72.5050  221.5290 C   0  0  0  0  0  0  0  0  0  0  0  0
  136.1600   72.0062  220.6152 H   0  0  0  0  0  0  0  0  0  0  0  0
  134.7196   72.3662  221.6411 H   0  0  0  0  0  0  0  0  0  0  0  0
  136.1060   74.0150  221.4320 C   0  0  0  0  0  0  0  0  0  0  0  0
  136.8701   74.1805  220.6582 H   0  0  0  0  0  0  0  0  0  0  0  0
  135.1756   74.5419  221.1738 H   0  0  0  0  0  0  0  0  0  0  0  0
  139.2190   73.3120  222.3250 N   0  0  0  0  0  0  0  0  0  0  0  0
  138.2560   73.3930  222.7200 H   0  0  0  0  0  0  0  0  0  0  0  0
  138.6250   70.3560  223.4750 C   0  0  0  0  0  0  0  0  0  0  0  0
  138.3568   70.3735  222.4084 H   0  0  0  0  0  0  0  0  0  0  0  0
  137.7280   70.5678  224.0754 H   0  0  0  0  0  0  0  0  0  0  0  0
  139.1790   68.9830  223.8410 C   0  0  0  0  0  0  0  0  0  0  0  0
  139.9471   68.6994  223.1065 H   0  0  0  0  0  0  0  0  0  0  0  0
  138.3487   68.2615  223.8352 H   0  0  0  0  0  0  0  0  0  0  0  0
  1  2  1  0
  2  3  2  0
  3  4  1  0
  3  5  1  0
  5  6  1  0
  5  7  2  0
  7  8  1  0
  8  9  2  0
  9 10  1  0
  8 11  1  0
 11 12  1  0
 11 13  1  0
 11 14  1  0
 14 15  1  0
 15 16  2  0
 16 17  1  0
 17 18  1  0
 18 19  1  0
 19 20  1  0
 19 21  1  0
 19 22  1  0
 22 23  1  0
 22 24  1  0
 22 25  1  0
 25 26  1  0
 25 27  1  0
 27 28  1  0
 27 29  1  0
 27 30  1  0
 30 31  1  0
 30 32  1  0
 17 33  2  0
 33 34  1  0
 34 35  2  0
 35 36  1  0
 36 37  1  0
 36 38  1  0
 36 39  1  0
 39 40  1  0
 39 41  1  0
 39 42  1  0
 42 43  1  0
 42 44  1  0
 42 45  1  0
 45 46  1  0
 46 47  1  0
 46 48  1  0
 46 49  1  0
 49 50  1  0
 49 51  1  0
 49 52  1  0
 52 53  1  0
 53 54  1  0
 53 55  1  0
 53 56  1  0
 56 57  1  0
 56 58  1  0
 34 59  1  0
 59 60  1  0
 14 61  1  0
 61 62  1  0
 61 63  1  0
 61 64  1  0
 64 65  1  0
 64 66  1  0
  9  2  1  0
 59 15  1  0
 64  7  1  0
 30 18  1  0
 56 45  1  0
M  END
>  <UniqueID>  (77) 
728

>  <SMILES>  (77) 
c1ccc2c(c1)CCN(c1nc(N3CCNCC3)n/c(=N\CCCN3CCOCC3)[nH]1)C2

>  <Energy>  (77) 
84.29958024141901

>  <Genealogy>  (77) 
c1ccc2c(c1)CCN(c1nc(N3CCNCC3)nc(=NCCCN3CCOCC3)[nH]1)C2 (tautomer)
c1ccc2c(c1)CCN(c1nc(N3CCNCC3)n/c(=N\CCCN3CCOCC3)[nH]1)C2 (cis-trans isomerization)
c1ccc2c(c1)CCN(c1nc(N3CCNCC3)n/c(=N\CCCN3CCOCC3)[nH]1)C2 (3D coordinates assigned)
c1ccc2c(c1)CCN(c1nc(N3CCNCC3)n/c(=N\CCCN3CCOCC3)[nH]1)C2 (nonaromatic ring conformer: 84.29958024141901 kcal/mol)

>  <smiles>  (77) 
c1ccc2c(c1)CCN(c1nc(NCCCN3CCOCC3)nc(N3CCNCC3)n1)C2

>  <score_type>  (77) 
oracle

>  <origin>  (77) 
autodockgpu

>  <m_score__min__energy>  (77) 
-9.3100000000000005

>  <m_primary>  (77) 
energy

>  <meeko>  (77) 
{"free_energy": -7.09, "intermolecular_energy": -9.17, "internal_energy": -2.59, "cluster_size": 5, "cluster_id": 3, "rank_in_cluster": 5}

>  <energy>  (77) 
-7.26

>  <cluster_rmsd>  (77) 
0.94

>  <rmsd>  (77) 
270.43

>  <cluster>  (77) 
3

$$$$
RYCKWQXGCGPPJB-JLFMESFVNA-N
     RDKit          3D

 66 70  0  0  0  0  0  0  0  0999 V2000
  143.2689   81.6790  223.2045 H   0  0  0  0  0  0  0  0  0  0  0  0
  142.4450   80.9540  223.1300 C   0  0  0  0  0  0  0  0  0  0  0  0
  141.2680   81.1610  223.8500 C   0  0  0  0  0  0  0  0  0  0  0  0
  141.1675   82.0459  224.4957 H   0  0  0  0  0  0  0  0  0  0  0  0
  140.2170   80.2460  223.7520 C   0  0  0  0  0  0  0  0  0  0  0  0
  139.2940   80.4104  224.3274 H   0  0  0  0  0  0  0  0  0  0  0  0
  140.3310   79.1180  222.9240 C   0  0  0  0  0  0  0  0  0  0  0  0
  141.5370   78.8930  222.2160 C   0  0  0  0  0  0  0  0  0  0  0  0
  142.5790   79.8280  222.3150 C   0  0  0  0  0  0  0  0  0  0  0  0
  143.5078   79.6727  221.7465 H   0  0  0  0  0  0  0  0  0  0  0  0
  141.7150   77.6910  221.3170 C   0  0  0  0  0  0  0  0  0  0  0  0
  142.6696   77.2014  221.5598 H   0  0  0  0  0  0  0  0  0  0  0  0
  141.7065   78.0369  220.2728 H   0  0  0  0  0  0  0  0  0  0  0  0
  140.6260   76.7240  221.4900 N   0  0  0  0  0  0  0  0  0  0  0  0
  140.8780   75.3150  221.3230 C   0  0  0  0  0  0  0  0  0  0  0  0
  142.0940   74.8970  220.8830 N   0  0  0  0  0  0  0  0  0  0  0  0
  142.3680   73.5730  220.7480 C   0  0  0  0  0  0  0  0  0  0  0  0
  143.6580   73.1330  220.2780 N   0  0  0  0  0  0  0  0  0  0  0  0
  144.8220   73.1150  221.1780 C   0  0  0  0  0  0  0  0  0  0  0  0
  144.6519   73.8332  221.9936 H   0  0  0  0  0  0  0  0  0  0  0  0
  144.9361   72.0925  221.5671 H   0  0  0  0  0  0  0  0  0  0  0  0
  146.1290   73.4960  220.4400 C   0  0  0  0  0  0  0  0  0  0  0  0
  146.3249   74.5636  220.6184 H   0  0  0  0  0  0  0  0  0  0  0  0
  146.9156   72.8397  220.8408 H   0  0  0  0  0  0  0  0  0  0  0  0
  146.1000   73.2710  218.9820 N   0  0  0  0  0  0  0  0  0  0  0  0
  145.7600   74.1440  218.5110 H   0  0  0  0  0  0  0  0  0  0  0  0
  145.2080   72.1680  218.6120 C   0  0  0  0  0  0  0  0  0  0  0  0
  145.2996   71.9705  217.5338 H   0  0  0  0  0  0  0  0  0  0  0  0
  145.4889   71.2684  219.1793 H   0  0  0  0  0  0  0  0  0  0  0  0
  143.7600   72.5390  218.9390 C   0  0  0  0  0  0  0  0  0  0  0  0
  143.3978   73.2641  218.1953 H   0  0  0  0  0  0  0  0  0  0  0  0
  143.1499   71.6240  218.9143 H   0  0  0  0  0  0  0  0  0  0  0  0
  141.4120   72.6640  221.0620 N   0  0  0  0  0  0  0  0  0  0  0  0
  140.1910   73.0630  221.5020 C   0  0  0  0  0  0  0  0  0  0  0  0
  139.2640   72.1890  221.7690 N   0  0  0  0  0  0  0  0  0  0  0  0
  139.0370   71.5980  223.0880 C   0  0  0  0  0  0  0  0  0  0  0  0
  138.2097   72.1260  223.5847 H   0  0  0  0  0  0  0  0  0  0  0  0
  138.7854   70.5343  222.9649 H   0  0  0  0  0  0  0  0  0  0  0  0
  140.3000   71.7150  223.9480 C   0  0  0  0  0  0  0  0  0  0  0  0
  141.1549   71.9315  223.2905 H   0  0  0  0  0  0  0  0  0  0  0  0
  140.1330   72.5223  224.6763 H   0  0  0  0  0  0  0  0  0  0  0  0
  140.6000   70.4290  224.7390 C   0  0  0  0  0  0  0  0  0  0  0  0
  140.0521   69.5919  224.2817 H   0  0  0  0  0  0  0  0  0  0  0  0
  141.6849   70.2497  224.7084 H   0  0  0  0  0  0  0  0  0  0  0  0
  140.1900   70.5560  226.1540 N   0  0  0  0  0  0  0  0  0  0  0  0
  140.3780   69.2990  226.9010 C   0  0  0  0  0  0  0  0  0  0  0  0
  139.8353   68.4874  226.3943 H   0  0  0  0  0  0  0  0  0  0  0  0
  141.4499   69.0556  226.9424 H   0  0  0  0  0  0  0  0  0  0  0  0
  139.8340   69.4630  228.3360 C   0  0  0  0  0  0  0  0  0  0  0  0
  138.8909   68.9033  228.4212 H   0  0  0  0  0  0  0  0  0  0  0  0
  140.5981   69.0786  229.0277 H   0  0  0  0  0  0  0  0  0  0  0  0
  139.5900   70.8190  228.6760 O   0  0  0  0  0  0  0  0  0  0  0  0
  140.7180   71.6040  228.3500 C   0  0  0  0  0  0  0  0  0  0  0  0
  140.5683   72.6264  228.7271 H   0  0  0  0  0  0  0  0  0  0  0  0
  141.6089   71.1546  228.8130 H   0  0  0  0  0  0  0  0  0  0  0  0
  140.9220   71.6520  226.8210 C   0  0  0  0  0  0  0  0  0  0  0  0
  140.5532   72.6154  226.4391 H   0  0  0  0  0  0  0  0  0  0  0  0
  141.9949   71.5376  226.6071 H   0  0  0  0  0  0  0  0  0  0  0  0
  139.9280   74.3880  221.6440 N   0  0  0  0  0  0  0  0  0  0  0  0
  139.0040   74.6850  222.0310 H   0  0  0  0  0  0  0  0  0  0  0  0
  139.2680   77.2590  221.6220 C   0  0  0  0  0  0  0  0  0  0  0  0
  138.5506   76.4291  221.7033 H   0  0  0  0  0  0  0  0  0  0  0  0
  139.0191   77.8651  220.7384 H   0  0  0  0  0  0  0  0  0  0  0  0
  139.1960   78.1230  222.8780 C   0  0  0  0  0  0  0  0  0  0  0  0
  139.2527   77.4733  223.7638 H   0  0  0  0  0  0  0  0  0  0  0  0
  138.2468   78.6787  222.8638 H   0  0  0  0  0  0  0  0  0  0  0  0
  1  2  1  0
  2  3  2  0
  3  4  1  0
  3  5  1  0
  5  6  1  0
  5  7  2  0
  7  8  1  0
  8  9  2  0
  9 10  1  0
  8 11  1  0
 11 12  1  0
 11 13  1  0
 11 14  1  0
 14 15  1  0
 15 16  2  0
 16 17  1  0
 17 18  1  0
 18 19  1  0
 19 20  1  0
 19 21  1  0
 19 22  1  0
 22 23  1  0
 22 24  1  0
 22 25  1  0
 25 26  1  0
 25 27  1  0
 27 28  1  0
 27 29  1  0
 27 30  1  0
 30 31  1  0
 30 32  1  0
 17 33  2  0
 33 34  1  0
 34 35  2  0
 35 36  1  0
 36 37  1  0
 36 38  1  0
 36 39  1  0
 39 40  1  0
 39 41  1  0
 39 42  1  0
 42 43  1  0
 42 44  1  0
 42 45  1  0
 45 46  1  0
 46 47  1  0
 46 48  1  0
 46 49  1  0
 49 50  1  0
 49 51  1  0
 49 52  1  0
 52 53  1  0
 53 54  1  0
 53 55  1  0
 53 56  1  0
 56 57  1  0
 56 58  1  0
 34 59  1  0
 59 60  1  0
 14 61  1  0
 61 62  1  0
 61 63  1  0
 61 64  1  0
 64 65  1  0
 64 66  1  0
  9  2  1  0
 59 15  1  0
 64  7  1  0
 30 18  1  0
 56 45  1  0
M  END
>  <UniqueID>  (78) 
728

>  <SMILES>  (78) 
c1ccc2c(c1)CCN(c1nc(N3CCNCC3)n/c(=N\CCCN3CCOCC3)[nH]1)C2

>  <Energy>  (78) 
84.29958024141901

>  <Genealogy>  (78) 
c1ccc2c(c1)CCN(c1nc(N3CCNCC3)nc(=NCCCN3CCOCC3)[nH]1)C2 (tautomer)
c1ccc2c(c1)CCN(c1nc(N3CCNCC3)n/c(=N\CCCN3CCOCC3)[nH]1)C2 (cis-trans isomerization)
c1ccc2c(c1)CCN(c1nc(N3CCNCC3)n/c(=N\CCCN3CCOCC3)[nH]1)C2 (3D coordinates assigned)
c1ccc2c(c1)CCN(c1nc(N3CCNCC3)n/c(=N\CCCN3CCOCC3)[nH]1)C2 (nonaromatic ring conformer: 84.29958024141901 kcal/mol)

>  <smiles>  (78) 
c1ccc2c(c1)CCN(c1nc(NCCCN3CCOCC3)nc(N3CCNCC3)n1)C2

>  <score_type>  (78) 
oracle

>  <origin>  (78) 
autodockgpu

>  <m_score__min__energy>  (78) 
-9.3100000000000005

>  <m_primary>  (78) 
energy

>  <meeko>  (78) 
{"free_energy": -9.12, "intermolecular_energy": -11.21, "internal_energy": -0.8, "cluster_size": 7, "cluster_id": 1, "rank_in_cluster": 2}

>  <energy>  (78) 
-7.25

>  <cluster_rmsd>  (78) 
0.96

>  <rmsd>  (78) 
270.44

>  <cluster>  (78) 
3

$$$$
RYCKWQXGCGPPJB-JLFMESFVNA-N
     RDKit          3D

 66 70  0  0  0  0  0  0  0  0999 V2000
  142.6389   81.5871  223.1035 H   0  0  0  0  0  0  0  0  0  0  0  0
  141.8710   80.8020  223.0400 C   0  0  0  0  0  0  0  0  0  0  0  0
  140.6530   80.9650  223.6980 C   0  0  0  0  0  0  0  0  0  0  0  0
  140.4643   81.8753  224.2861 H   0  0  0  0  0  0  0  0  0  0  0  0
  139.6710   79.9740  223.6120 C   0  0  0  0  0  0  0  0  0  0  0  0
  138.7138   80.1058  224.1377 H   0  0  0  0  0  0  0  0  0  0  0  0
  139.8990   78.8120  222.8590 C   0  0  0  0  0  0  0  0  0  0  0  0
  141.1480   78.6330  222.2150 C   0  0  0  0  0  0  0  0  0  0  0  0
  142.1180   79.6430  222.3000 C   0  0  0  0  0  0  0  0  0  0  0  0
  143.0799   79.5215  221.7803 H   0  0  0  0  0  0  0  0  0  0  0  0
  141.4470   77.3970  221.3980 C   0  0  0  0  0  0  0  0  0  0  0  0
  142.4207   76.9904  221.7088 H   0  0  0  0  0  0  0  0  0  0  0  0
  141.4616   77.6817  220.3356 H   0  0  0  0  0  0  0  0  0  0  0  0
  140.4210   76.3680  221.5830 N   0  0  0  0  0  0  0  0  0  0  0  0
  140.7750   74.9720  221.5120 C   0  0  0  0  0  0  0  0  0  0  0  0
  141.9570   74.6070  220.9480 N   0  0  0  0  0  0  0  0  0  0  0  0
  142.3300   73.3020  220.8970 C   0  0  0  0  0  0  0  0  0  0  0  0
  143.5830   72.9170  220.2960 N   0  0  0  0  0  0  0  0  0  0  0  0
  144.7970   72.7680  221.1140 C   0  0  0  0  0  0  0  0  0  0  0  0
  144.6867   73.3715  222.0270 H   0  0  0  0  0  0  0  0  0  0  0  0
  144.9163   71.7014  221.3551 H   0  0  0  0  0  0  0  0  0  0  0  0
  146.0650   73.2330  220.3570 C   0  0  0  0  0  0  0  0  0  0  0  0
  146.2893   74.2649  220.6649 H   0  0  0  0  0  0  0  0  0  0  0  0
  146.8623   72.5217  220.6182 H   0  0  0  0  0  0  0  0  0  0  0  0
  145.9470   73.2070  218.8870 N   0  0  0  0  0  0  0  0  0  0  0  0
  145.5960   74.1390  218.5590 H   0  0  0  0  0  0  0  0  0  0  0  0
  145.0170   72.1730  218.4260 C   0  0  0  0  0  0  0  0  0  0  0  0
  145.0430   72.1224  217.3275 H   0  0  0  0  0  0  0  0  0  0  0  0
  145.3148   71.2026  218.8497 H   0  0  0  0  0  0  0  0  0  0  0  0
  143.5970   72.5090  218.8850 C   0  0  0  0  0  0  0  0  0  0  0  0
  143.2048   73.3315  218.2687 H   0  0  0  0  0  0  0  0  0  0  0  0
  142.9708   71.6116  218.7733 H   0  0  0  0  0  0  0  0  0  0  0  0
  141.5080   72.3580  221.4200 N   0  0  0  0  0  0  0  0  0  0  0  0
  140.3240   72.7030  221.9850 C   0  0  0  0  0  0  0  0  0  0  0  0
  139.5220   71.7930  222.4550 N   0  0  0  0  0  0  0  0  0  0  0  0
  139.4690   71.3770  223.8560 C   0  0  0  0  0  0  0  0  0  0  0  0
  140.3057   71.8366  224.4026 H   0  0  0  0  0  0  0  0  0  0  0  0
  138.5113   71.7017  224.2889 H   0  0  0  0  0  0  0  0  0  0  0  0
  139.5720   69.8530  223.9640 C   0  0  0  0  0  0  0  0  0  0  0  0
  138.5612   69.4258  223.8880 H   0  0  0  0  0  0  0  0  0  0  0  0
  140.2232   69.5056  223.1484 H   0  0  0  0  0  0  0  0  0  0  0  0
  140.2030   69.3920  225.2910 C   0  0  0  0  0  0  0  0  0  0  0  0
  139.6971   68.4753  225.6282 H   0  0  0  0  0  0  0  0  0  0  0  0
  141.2736   69.2069  225.1189 H   0  0  0  0  0  0  0  0  0  0  0  0
  140.0730   70.4260  226.3390 N   0  0  0  0  0  0  0  0  0  0  0  0
  139.8120   69.8390  227.6670 C   0  0  0  0  0  0  0  0  0  0  0  0
  138.9180   69.2001  227.6156 H   0  0  0  0  0  0  0  0  0  0  0  0
  140.6783   69.2358  227.9765 H   0  0  0  0  0  0  0  0  0  0  0  0
  139.5790   70.9670  228.6950 C   0  0  0  0  0  0  0  0  0  0  0  0
  138.5080   71.0018  228.9433 H   0  0  0  0  0  0  0  0  0  0  0  0
  140.1932   70.7439  229.5799 H   0  0  0  0  0  0  0  0  0  0  0  0
  139.9740   72.2390  228.2070 O   0  0  0  0  0  0  0  0  0  0  0  0
  141.2730   72.1600  227.6610 C   0  0  0  0  0  0  0  0  0  0  0  0
  141.6170   73.1714  227.3987 H   0  0  0  0  0  0  0  0  0  0  0  0
  141.9448   71.7112  228.4075 H   0  0  0  0  0  0  0  0  0  0  0  0
  141.2770   71.2790  226.3950 C   0  0  0  0  0  0  0  0  0  0  0  0
  141.3004   71.9268  225.5063 H   0  0  0  0  0  0  0  0  0  0  0  0
  142.1647   70.6301  226.4229 H   0  0  0  0  0  0  0  0  0  0  0  0
  139.9630   74.0120  222.0420 N   0  0  0  0  0  0  0  0  0  0  0  0
  139.0730   74.2740  222.5230 H   0  0  0  0  0  0  0  0  0  0  0  0
  139.0250   76.8110  221.6280 C   0  0  0  0  0  0  0  0  0  0  0  0
  138.3639   75.9379  221.7311 H   0  0  0  0  0  0  0  0  0  0  0  0
  138.7740   77.3454  220.6999 H   0  0  0  0  0  0  0  0  0  0  0  0
  138.8380   77.7390  222.8250 C   0  0  0  0  0  0  0  0  0  0  0  0
  138.8977   77.1468  223.7501 H   0  0  0  0  0  0  0  0  0  0  0  0
  137.8554   78.2255  222.7366 H   0  0  0  0  0  0  0  0  0  0  0  0
  1  2  1  0
  2  3  2  0
  3  4  1  0
  3  5  1  0
  5  6  1  0
  5  7  2  0
  7  8  1  0
  8  9  2  0
  9 10  1  0
  8 11  1  0
 11 12  1  0
 11 13  1  0
 11 14  1  0
 14 15  1  0
 15 16  2  0
 16 17  1  0
 17 18  1  0
 18 19  1  0
 19 20  1  0
 19 21  1  0
 19 22  1  0
 22 23  1  0
 22 24  1  0
 22 25  1  0
 25 26  1  0
 25 27  1  0
 27 28  1  0
 27 29  1  0
 27 30  1  0
 30 31  1  0
 30 32  1  0
 17 33  2  0
 33 34  1  0
 34 35  2  0
 35 36  1  0
 36 37  1  0
 36 38  1  0
 36 39  1  0
 39 40  1  0
 39 41  1  0
 39 42  1  0
 42 43  1  0
 42 44  1  0
 42 45  1  0
 45 46  1  0
 46 47  1  0
 46 48  1  0
 46 49  1  0
 49 50  1  0
 49 51  1  0
 49 52  1  0
 52 53  1  0
 53 54  1  0
 53 55  1  0
 53 56  1  0
 56 57  1  0
 56 58  1  0
 34 59  1  0
 59 60  1  0
 14 61  1  0
 61 62  1  0
 61 63  1  0
 61 64  1  0
 64 65  1  0
 64 66  1  0
  9  2  1  0
 59 15  1  0
 64  7  1  0
 30 18  1  0
 56 45  1  0
M  END
>  <UniqueID>  (79) 
728

>  <SMILES>  (79) 
c1ccc2c(c1)CCN(c1nc(N3CCNCC3)n/c(=N\CCCN3CCOCC3)[nH]1)C2

>  <Energy>  (79) 
84.29958024141901

>  <Genealogy>  (79) 
c1ccc2c(c1)CCN(c1nc(N3CCNCC3)nc(=NCCCN3CCOCC3)[nH]1)C2 (tautomer)
c1ccc2c(c1)CCN(c1nc(N3CCNCC3)n/c(=N\CCCN3CCOCC3)[nH]1)C2 (cis-trans isomerization)
c1ccc2c(c1)CCN(c1nc(N3CCNCC3)n/c(=N\CCCN3CCOCC3)[nH]1)C2 (3D coordinates assigned)
c1ccc2c(c1)CCN(c1nc(N3CCNCC3)n/c(=N\CCCN3CCOCC3)[nH]1)C2 (nonaromatic ring conformer: 84.29958024141901 kcal/mol)

>  <smiles>  (79) 
c1ccc2c(c1)CCN(c1nc(NCCCN3CCOCC3)nc(N3CCNCC3)n1)C2

>  <score_type>  (79) 
oracle

>  <origin>  (79) 
autodockgpu

>  <m_score__min__energy>  (79) 
-9.3100000000000005

>  <m_primary>  (79) 
energy

>  <meeko>  (79) 
{"free_energy": -9.0, "intermolecular_energy": -11.08, "internal_energy": -0.69, "cluster_size": 7, "cluster_id": 1, "rank_in_cluster": 5}

>  <energy>  (79) 
-7.11

>  <cluster_rmsd>  (79) 
0.23

>  <rmsd>  (79) 
270.44

>  <cluster>  (79) 
3

$$$$
RYCKWQXGCGPPJB-JLFMESFVNA-N
     RDKit          3D

 66 70  0  0  0  0  0  0  0  0999 V2000
  141.4473   68.2960  228.1576 H   0  0  0  0  0  0  0  0  0  0  0  0
  140.9410   68.5240  227.2080 C   0  0  0  0  0  0  0  0  0  0  0  0
  140.2180   67.5300  226.5480 C   0  0  0  0  0  0  0  0  0  0  0  0
  140.1605   66.5178  226.9748 H   0  0  0  0  0  0  0  0  0  0  0  0
  139.5670   67.8180  225.3460 C   0  0  0  0  0  0  0  0  0  0  0  0
  139.0044   67.0283  224.8265 H   0  0  0  0  0  0  0  0  0  0  0  0
  139.6260   69.1080  224.7970 C   0  0  0  0  0  0  0  0  0  0  0  0
  140.3860   70.1090  225.4520 C   0  0  0  0  0  0  0  0  0  0  0  0
  141.0230   69.8080  226.6650 C   0  0  0  0  0  0  0  0  0  0  0  0
  141.5910   70.5887  227.1921 H   0  0  0  0  0  0  0  0  0  0  0  0
  140.4890   71.5120  224.8990 C   0  0  0  0  0  0  0  0  0  0  0  0
  141.5474   71.8110  224.8785 H   0  0  0  0  0  0  0  0  0  0  0  0
  139.9047   72.1816  225.5473 H   0  0  0  0  0  0  0  0  0  0  0  0
  139.9440   71.5970  223.5410 N   0  0  0  0  0  0  0  0  0  0  0  0
  140.5040   72.5300  222.5950 C   0  0  0  0  0  0  0  0  0  0  0  0
  141.6720   72.2300  221.9660 N   0  0  0  0  0  0  0  0  0  0  0  0
  142.2030   73.0760  221.0460 C   0  0  0  0  0  0  0  0  0  0  0  0
  143.4440   72.7570  220.3830 N   0  0  0  0  0  0  0  0  0  0  0  0
  144.6980   72.6480  221.1440 C   0  0  0  0  0  0  0  0  0  0  0  0
  144.6020   73.2300  222.0725 H   0  0  0  0  0  0  0  0  0  0  0  0
  144.8743   71.5837  221.3588 H   0  0  0  0  0  0  0  0  0  0  0  0
  145.9100   73.1820  220.3420 C   0  0  0  0  0  0  0  0  0  0  0  0
  146.1028   74.2172  220.6602 H   0  0  0  0  0  0  0  0  0  0  0  0
  146.7483   72.5021  220.5543 H   0  0  0  0  0  0  0  0  0  0  0  0
  145.7280   73.1770  218.8780 N   0  0  0  0  0  0  0  0  0  0  0  0
  145.3230   74.0980  218.5840 H   0  0  0  0  0  0  0  0  0  0  0  0
  144.8240   72.1100  218.4380 C   0  0  0  0  0  0  0  0  0  0  0  0
  144.8027   72.0798  217.3386 H   0  0  0  0  0  0  0  0  0  0  0  0
  145.1827   71.1463  218.8287 H   0  0  0  0  0  0  0  0  0  0  0  0
  143.4130   72.3750  218.9660 C   0  0  0  0  0  0  0  0  0  0  0  0
  142.9583   73.1900  218.3837 H   0  0  0  0  0  0  0  0  0  0  0  0
  142.8223   71.4526  218.8648 H   0  0  0  0  0  0  0  0  0  0  0  0
  141.5540   74.2300  220.7550 N   0  0  0  0  0  0  0  0  0  0  0  0
  140.3880   74.5470  221.3730 C   0  0  0  0  0  0  0  0  0  0  0  0
  139.7840   75.6710  221.1170 N   0  0  0  0  0  0  0  0  0  0  0  0
  140.4590   76.9610  220.9760 C   0  0  0  0  0  0  0  0  0  0  0  0
  141.2959   76.8571  220.2698 H   0  0  0  0  0  0  0  0  0  0  0  0
  139.7382   77.7023  220.6006 H   0  0  0  0  0  0  0  0  0  0  0  0
  140.9970   77.4320  222.3310 C   0  0  0  0  0  0  0  0  0  0  0  0
  141.0904   76.5599  222.9949 H   0  0  0  0  0  0  0  0  0  0  0  0
  141.9697   77.9138  222.1530 H   0  0  0  0  0  0  0  0  0  0  0  0
  140.0810   78.4690  223.0060 C   0  0  0  0  0  0  0  0  0  0  0  0
  139.2395   78.6941  222.3343 H   0  0  0  0  0  0  0  0  0  0  0  0
  139.7205   78.0464  223.9554 H   0  0  0  0  0  0  0  0  0  0  0  0
  140.8090   79.7210  223.3010 N   0  0  0  0  0  0  0  0  0  0  0  0
  142.2600   79.4980  223.4470 C   0  0  0  0  0  0  0  0  0  0  0  0
  142.4373   78.7352  224.2195 H   0  0  0  0  0  0  0  0  0  0  0  0
  142.6753   79.1542  222.4882 H   0  0  0  0  0  0  0  0  0  0  0  0
  142.9470   80.8170  223.8600 C   0  0  0  0  0  0  0  0  0  0  0  0
  143.2355   80.7471  224.9192 H   0  0  0  0  0  0  0  0  0  0  0  0
  143.8228   80.9542  223.2087 H   0  0  0  0  0  0  0  0  0  0  0  0
  142.1060   81.9470  223.6920 O   0  0  0  0  0  0  0  0  0  0  0  0
  141.5310   81.9280  222.4030 C   0  0  0  0  0  0  0  0  0  0  0  0
  140.9807   82.8662  222.2387 H   0  0  0  0  0  0  0  0  0  0  0  0
  142.3334   81.8223  221.6580 H   0  0  0  0  0  0  0  0  0  0  0  0
  140.5590   80.7380  222.2600 C   0  0  0  0  0  0  0  0  0  0  0  0
  139.5261   81.1040  222.3557 H   0  0  0  0  0  0  0  0  0  0  0  0
  140.7148   80.2754  221.2742 H   0  0  0  0  0  0  0  0  0  0  0  0
  139.8560   73.6900  222.2840 N   0  0  0  0  0  0  0  0  0  0  0  0
  138.9340   73.9180  222.7190 H   0  0  0  0  0  0  0  0  0  0  0  0
  138.7040   70.8660  223.2680 C   0  0  0  0  0  0  0  0  0  0  0  0
  138.3891   71.0483  222.2299 H   0  0  0  0  0  0  0  0  0  0  0  0
  137.9123   71.2087  223.9505 H   0  0  0  0  0  0  0  0  0  0  0  0
  138.9520   69.3750  223.4730 C   0  0  0  0  0  0  0  0  0  0  0  0
  139.5958   69.0040  222.6619 H   0  0  0  0  0  0  0  0  0  0  0  0
  137.9813   68.8576  223.4670 H   0  0  0  0  0  0  0  0  0  0  0  0
  1  2  1  0
  2  3  2  0
  3  4  1  0
  3  5  1  0
  5  6  1  0
  5  7  2  0
  7  8  1  0
  8  9  2  0
  9 10  1  0
  8 11  1  0
 11 12  1  0
 11 13  1  0
 11 14  1  0
 14 15  1  0
 15 16  2  0
 16 17  1  0
 17 18  1  0
 18 19  1  0
 19 20  1  0
 19 21  1  0
 19 22  1  0
 22 23  1  0
 22 24  1  0
 22 25  1  0
 25 26  1  0
 25 27  1  0
 27 28  1  0
 27 29  1  0
 27 30  1  0
 30 31  1  0
 30 32  1  0
 17 33  2  0
 33 34  1  0
 34 35  2  0
 35 36  1  0
 36 37  1  0
 36 38  1  0
 36 39  1  0
 39 40  1  0
 39 41  1  0
 39 42  1  0
 42 43  1  0
 42 44  1  0
 42 45  1  0
 45 46  1  0
 46 47  1  0
 46 48  1  0
 46 49  1  0
 49 50  1  0
 49 51  1  0
 49 52  1  0
 52 53  1  0
 53 54  1  0
 53 55  1  0
 53 56  1  0
 56 57  1  0
 56 58  1  0
 34 59  1  0
 59 60  1  0
 14 61  1  0
 61 62  1  0
 61 63  1  0
 61 64  1  0
 64 65  1  0
 64 66  1  0
  9  2  1  0
 59 15  1  0
 64  7  1  0
 30 18  1  0
 56 45  1  0
M  END
>  <UniqueID>  (80) 
728

>  <SMILES>  (80) 
c1ccc2c(c1)CCN(c1nc(N3CCNCC3)n/c(=N\CCCN3CCOCC3)[nH]1)C2

>  <Energy>  (80) 
84.29958024141901

>  <Genealogy>  (80) 
c1ccc2c(c1)CCN(c1nc(N3CCNCC3)nc(=NCCCN3CCOCC3)[nH]1)C2 (tautomer)
c1ccc2c(c1)CCN(c1nc(N3CCNCC3)n/c(=N\CCCN3CCOCC3)[nH]1)C2 (cis-trans isomerization)
c1ccc2c(c1)CCN(c1nc(N3CCNCC3)n/c(=N\CCCN3CCOCC3)[nH]1)C2 (3D coordinates assigned)
c1ccc2c(c1)CCN(c1nc(N3CCNCC3)n/c(=N\CCCN3CCOCC3)[nH]1)C2 (nonaromatic ring conformer: 84.29958024141901 kcal/mol)

>  <smiles>  (80) 
c1ccc2c(c1)CCN(c1nc(NCCCN3CCOCC3)nc(N3CCNCC3)n1)C2

>  <score_type>  (80) 
oracle

>  <origin>  (80) 
autodockgpu

>  <m_score__min__energy>  (80) 
-9.3100000000000005

>  <m_primary>  (80) 
energy

>  <meeko>  (80) 
{"free_energy": -9.19, "intermolecular_energy": -11.28, "internal_energy": -0.76, "cluster_size": 8, "cluster_id": 2, "rank_in_cluster": 1}

>  <energy>  (80) 
-7.09

>  <cluster_rmsd>  (80) 
0.47

>  <rmsd>  (80) 
270.49

>  <cluster>  (80) 
3

$$$$
