PKQSJVMIHVNFFS-CSKARUKUNA-N
     RDKit          3D

 43 46  0  0  0  0  0  0  0  0999 V2000
  142.3221   80.8775  219.1559 H   0  0  0  0  0  0  0  0  0  0  0  0
  141.8510   80.1370  219.8190 C   0  0  0  0  0  0  0  0  0  0  0  0
  141.1370   79.1460  219.2720 C   0  0  0  0  0  0  0  0  0  0  0  0
  140.4330   79.3677  218.4564 H   0  0  0  0  0  0  0  0  0  0  0  0
  141.2850   77.7610  219.7520 C   0  0  0  0  0  0  0  0  0  0  0  0
  142.5170   77.1960  219.6670 N   0  0  0  0  0  0  0  0  0  0  0  0
  142.7450   75.9210  220.0670 C   0  0  0  0  0  0  0  0  0  0  0  0
  144.0280   75.3700  219.9480 C   0  0  0  0  0  0  0  0  0  0  0  0
  144.8535   75.9803  219.5529 H   0  0  0  0  0  0  0  0  0  0  0  0
  144.2600   74.0450  220.3310 C   0  0  0  0  0  0  0  0  0  0  0  0
  145.8630   73.3530  220.1640 Cl  0  0  0  0  0  0  0  0  0  0  0  0
  143.2110   73.2710  220.8420 C   0  0  0  0  0  0  0  0  0  0  0  0
  143.3949   72.2291  221.1431 H   0  0  0  0  0  0  0  0  0  0  0  0
  141.9300   73.8180  220.9710 C   0  0  0  0  0  0  0  0  0  0  0  0
  141.1102   73.2066  221.3762 H   0  0  0  0  0  0  0  0  0  0  0  0
  141.6880   75.1500  220.5830 C   0  0  0  0  0  0  0  0  0  0  0  0
  140.4170   75.7450  220.6820 C   0  0  0  0  0  0  0  0  0  0  0  0
  139.4500   75.0710  221.1400 O   0  0  0  0  0  0  0  0  0  0  0  0
  140.2270   77.0490  220.2790 N   0  0  0  0  0  0  0  0  0  0  0  0
  138.8930   77.6800  220.4270 C   0  0  0  0  0  0  0  0  0  0  0  0
  138.6319   78.1829  219.4842 H   0  0  0  0  0  0  0  0  0  0  0  0
  138.1690   76.8886  220.6708 H   0  0  0  0  0  0  0  0  0  0  0  0
  138.8660   78.6970  221.5460 C   0  0  0  0  0  0  0  0  0  0  0  0
  139.2720   78.3620  222.8530 C   0  0  0  0  0  0  0  0  0  0  0  0
  139.6228   77.3429  223.0732 H   0  0  0  0  0  0  0  0  0  0  0  0
  139.2310   79.3190  223.8710 C   0  0  0  0  0  0  0  0  0  0  0  0
  139.5161   79.0419  224.8966 H   0  0  0  0  0  0  0  0  0  0  0  0
  138.8280   80.6290  223.5880 C   0  0  0  0  0  0  0  0  0  0  0  0
  138.7862   81.3769  224.3935 H   0  0  0  0  0  0  0  0  0  0  0  0
  138.4780   80.9890  222.2810 C   0  0  0  0  0  0  0  0  0  0  0  0
  138.0330   82.6510  221.9150 Cl  0  0  0  0  0  0  0  0  0  0  0  0
  138.4960   80.0270  221.2650 C   0  0  0  0  0  0  0  0  0  0  0  0
  138.2192   80.3114  220.2391 H   0  0  0  0  0  0  0  0  0  0  0  0
  142.0310   80.2750  221.2780 C   0  0  0  0  0  0  0  0  0  0  0  0
  142.3890   79.2030  222.0420 N   0  0  0  0  0  0  0  0  0  0  0  0
  142.5660   79.3030  223.3880 C   0  0  0  0  0  0  0  0  0  0  0  0
  142.8618   78.4184  223.9710 H   0  0  0  0  0  0  0  0  0  0  0  0
  142.3720   80.5290  224.0290 C   0  0  0  0  0  0  0  0  0  0  0  0
  142.5068   80.6155  225.1173 H   0  0  0  0  0  0  0  0  0  0  0  0
  142.0050   81.6430  223.2720 C   0  0  0  0  0  0  0  0  0  0  0  0
  141.8599   82.6173  223.7616 H   0  0  0  0  0  0  0  0  0  0  0  0
  141.8220   81.5200  221.8920 C   0  0  0  0  0  0  0  0  0  0  0  0
  141.5171   82.3905  221.2926 H   0  0  0  0  0  0  0  0  0  0  0  0
  1  2  1  0
  2  3  2  0
  3  4  1  0
  3  5  1  0
  5  6  2  0
  6  7  1  0
  7  8  2  0
  8  9  1  0
  8 10  1  0
 10 11  1  0
 10 12  2  0
 12 13  1  0
 12 14  1  0
 14 15  1  0
 14 16  2  0
 16 17  1  0
 17 18  2  0
 17 19  1  0
 19 20  1  0
 20 21  1  0
 20 22  1  0
 20 23  1  0
 23 24  2  0
 24 25  1  0
 24 26  1  0
 26 27  1  0
 26 28  2  0
 28 29  1  0
 28 30  1  0
 30 31  1  0
 30 32  2  0
 32 33  1  0
  2 34  1  0
 34 35  2  0
 35 36  1  0
 36 37  1  0
 36 38  2  0
 38 39  1  0
 38 40  1  0
 40 41  1  0
 40 42  2  0
 42 43  1  0
 19  5  1  0
 32 23  1  0
 42 34  1  0
 16  7  1  0
M  END
>  <UniqueID>  (1) 
436

>  <SMILES>  (1) 
O=c1c2ccc(Cl)cc2nc(/C=C/c2ccccn2)n1Cc1cccc(Cl)c1

>  <Energy>  (1) 
62.431035696128276

>  <Genealogy>  (1) 
O=c1c2ccc(Cl)cc2nc(/C=C/c2ccccn2)n1Cc1cccc(Cl)c1 (cis-trans isomerization)
O=c1c2ccc(Cl)cc2nc(/C=C/c2ccccn2)n1Cc1cccc(Cl)c1 (3D coordinates assigned)
O=c1c2ccc(Cl)cc2nc(/C=C/c2ccccn2)n1Cc1cccc(Cl)c1 (optimized conformer: 62.431035696128276 kcal/mol)

>  <smiles>  (1) 
O=c1c2ccc(Cl)cc2nc(/C=C/c2ccccn2)n1Cc1cccc(Cl)c1

>  <score_type>  (1) 
oracle

>  <origin>  (1) 
autodockgpu

>  <m_score__min__energy>  (1) 
-8.0099999999999998

>  <m_primary>  (1) 
energy

>  <meeko>  (1) 
{"free_energy": -6.62, "intermolecular_energy": -8.11, "internal_energy": -2.34, "cluster_size": 9, "cluster_id": 4, "rank_in_cluster": 8}

>  <energy>  (1) 
-8.01

>  <cluster_rmsd>  (1) 
0.0

>  <rmsd>  (1) 
271.98

>  <cluster>  (1) 
1

$$$$
PKQSJVMIHVNFFS-CSKARUKUNA-N
     RDKit          3D

 43 46  0  0  0  0  0  0  0  0999 V2000
  141.5439   71.2173  222.1677 H   0  0  0  0  0  0  0  0  0  0  0  0
  140.7020   71.6540  222.7250 C   0  0  0  0  0  0  0  0  0  0  0  0
  139.9400   72.5720  222.1220 C   0  0  0  0  0  0  0  0  0  0  0  0
  138.8598   72.3960  222.0115 H   0  0  0  0  0  0  0  0  0  0  0  0
  140.5330   73.8170  221.6040 C   0  0  0  0  0  0  0  0  0  0  0  0
  140.3530   74.9490  222.3340 N   0  0  0  0  0  0  0  0  0  0  0  0
  140.8460   76.1440  221.9290 C   0  0  0  0  0  0  0  0  0  0  0  0
  140.6240   77.2920  222.7030 C   0  0  0  0  0  0  0  0  0  0  0  0
  140.0699   77.2173  223.6503 H   0  0  0  0  0  0  0  0  0  0  0  0
  141.1060   78.5310  222.2720 C   0  0  0  0  0  0  0  0  0  0  0  0
  140.8110   79.9680  223.2350 Cl  0  0  0  0  0  0  0  0  0  0  0  0
  141.8180   78.6260  221.0690 C   0  0  0  0  0  0  0  0  0  0  0  0
  142.1956   79.6023  220.7310 H   0  0  0  0  0  0  0  0  0  0  0  0
  142.0500   77.4840  220.2970 C   0  0  0  0  0  0  0  0  0  0  0  0
  142.6133   77.5632  219.3555 H   0  0  0  0  0  0  0  0  0  0  0  0
  141.5640   76.2320  220.7220 C   0  0  0  0  0  0  0  0  0  0  0  0
  141.7600   75.0550  219.9770 C   0  0  0  0  0  0  0  0  0  0  0  0
  142.4000   75.1090  218.8880 O   0  0  0  0  0  0  0  0  0  0  0  0
  141.2560   73.8540  220.4290 N   0  0  0  0  0  0  0  0  0  0  0  0
  141.5040   72.6120  219.6580 C   0  0  0  0  0  0  0  0  0  0  0  0
  140.9169   71.7950  220.1028 H   0  0  0  0  0  0  0  0  0  0  0  0
  141.2060   72.7950  218.6151 H   0  0  0  0  0  0  0  0  0  0  0  0
  142.9660   72.2220  219.6640 C   0  0  0  0  0  0  0  0  0  0  0  0
  143.4720   71.2570  218.7700 C   0  0  0  0  0  0  0  0  0  0  0  0
  142.7993   70.7746  218.0456 H   0  0  0  0  0  0  0  0  0  0  0  0
  144.8260   70.9110  218.8010 C   0  0  0  0  0  0  0  0  0  0  0  0
  145.2085   70.1322  218.1249 H   0  0  0  0  0  0  0  0  0  0  0  0
  145.6960   71.5520  219.6890 C   0  0  0  0  0  0  0  0  0  0  0  0
  146.7585   71.2686  219.7180 H   0  0  0  0  0  0  0  0  0  0  0  0
  145.2160   72.5540  220.5410 C   0  0  0  0  0  0  0  0  0  0  0  0
  146.3230   73.4030  221.6130 Cl  0  0  0  0  0  0  0  0  0  0  0  0
  143.8570   72.8870  220.5290 C   0  0  0  0  0  0  0  0  0  0  0  0
  143.4817   73.6738  221.1999 H   0  0  0  0  0  0  0  0  0  0  0  0
  140.4580   71.2030  224.1100 C   0  0  0  0  0  0  0  0  0  0  0  0
  141.0570   71.8280  225.1630 N   0  0  0  0  0  0  0  0  0  0  0  0
  140.8470   71.4370  226.4500 C   0  0  0  0  0  0  0  0  0  0  0  0
  141.3432   71.9696  227.2747 H   0  0  0  0  0  0  0  0  0  0  0  0
  140.0010   70.3590  226.7230 C   0  0  0  0  0  0  0  0  0  0  0  0
  139.8317   70.0333  227.7599 H   0  0  0  0  0  0  0  0  0  0  0  0
  139.3730   69.7000  225.6640 C   0  0  0  0  0  0  0  0  0  0  0  0
  138.6952   68.8571  225.8642 H   0  0  0  0  0  0  0  0  0  0  0  0
  139.6070   70.1130  224.3490 C   0  0  0  0  0  0  0  0  0  0  0  0
  139.1283   69.5882  223.5091 H   0  0  0  0  0  0  0  0  0  0  0  0
  1  2  1  0
  2  3  2  0
  3  4  1  0
  3  5  1  0
  5  6  2  0
  6  7  1  0
  7  8  2  0
  8  9  1  0
  8 10  1  0
 10 11  1  0
 10 12  2  0
 12 13  1  0
 12 14  1  0
 14 15  1  0
 14 16  2  0
 16 17  1  0
 17 18  2  0
 17 19  1  0
 19 20  1  0
 20 21  1  0
 20 22  1  0
 20 23  1  0
 23 24  2  0
 24 25  1  0
 24 26  1  0
 26 27  1  0
 26 28  2  0
 28 29  1  0
 28 30  1  0
 30 31  1  0
 30 32  2  0
 32 33  1  0
  2 34  1  0
 34 35  2  0
 35 36  1  0
 36 37  1  0
 36 38  2  0
 38 39  1  0
 38 40  1  0
 40 41  1  0
 40 42  2  0
 42 43  1  0
 19  5  1  0
 32 23  1  0
 42 34  1  0
 16  7  1  0
M  END
>  <UniqueID>  (2) 
436

>  <SMILES>  (2) 
O=c1c2ccc(Cl)cc2nc(/C=C/c2ccccn2)n1Cc1cccc(Cl)c1

>  <Energy>  (2) 
62.431035696128276

>  <Genealogy>  (2) 
O=c1c2ccc(Cl)cc2nc(/C=C/c2ccccn2)n1Cc1cccc(Cl)c1 (cis-trans isomerization)
O=c1c2ccc(Cl)cc2nc(/C=C/c2ccccn2)n1Cc1cccc(Cl)c1 (3D coordinates assigned)
O=c1c2ccc(Cl)cc2nc(/C=C/c2ccccn2)n1Cc1cccc(Cl)c1 (optimized conformer: 62.431035696128276 kcal/mol)

>  <smiles>  (2) 
O=c1c2ccc(Cl)cc2nc(/C=C/c2ccccn2)n1Cc1cccc(Cl)c1

>  <score_type>  (2) 
oracle

>  <origin>  (2) 
autodockgpu

>  <m_score__min__energy>  (2) 
-8.0099999999999998

>  <m_primary>  (2) 
energy

>  <meeko>  (2) 
{"free_energy": -8.01, "intermolecular_energy": -9.5, "internal_energy": -1.15, "cluster_size": 4, "cluster_id": 1, "rank_in_cluster": 1}

>  <energy>  (2) 
-7.94

>  <cluster_rmsd>  (2) 
0.61

>  <rmsd>  (2) 
271.95

>  <cluster>  (2) 
1

$$$$
PKQSJVMIHVNFFS-CSKARUKUNA-N
     RDKit          3D

 43 46  0  0  0  0  0  0  0  0999 V2000
  138.2848   72.6764  222.6787 H   0  0  0  0  0  0  0  0  0  0  0  0
  139.2660   72.1800  222.7060 C   0  0  0  0  0  0  0  0  0  0  0  0
  140.0770   72.3030  221.6510 C   0  0  0  0  0  0  0  0  0  0  0  0
  140.3223   71.4172  221.0467 H   0  0  0  0  0  0  0  0  0  0  0  0
  140.6460   73.6130  221.2890 C   0  0  0  0  0  0  0  0  0  0  0  0
  140.3770   74.6620  222.1100 N   0  0  0  0  0  0  0  0  0  0  0  0
  140.8420   75.9080  221.8490 C   0  0  0  0  0  0  0  0  0  0  0  0
  140.5280   76.9670  222.7130 C   0  0  0  0  0  0  0  0  0  0  0  0
  139.9255   76.7807  223.6142 H   0  0  0  0  0  0  0  0  0  0  0  0
  140.9800   78.2590  222.4300 C   0  0  0  0  0  0  0  0  0  0  0  0
  140.5710   79.5840  223.5040 Cl  0  0  0  0  0  0  0  0  0  0  0  0
  141.7550   78.4950  221.2870 C   0  0  0  0  0  0  0  0  0  0  0  0
  142.1106   79.5123  221.0663 H   0  0  0  0  0  0  0  0  0  0  0  0
  142.0780   77.4420  220.4260 C   0  0  0  0  0  0  0  0  0  0  0  0
  142.6892   77.6322  219.5314 H   0  0  0  0  0  0  0  0  0  0  0  0
  141.6220   76.1370  220.7020 C   0  0  0  0  0  0  0  0  0  0  0  0
  141.9100   75.0460  219.8630 C   0  0  0  0  0  0  0  0  0  0  0  0
  142.6070   75.2270  218.8240 O   0  0  0  0  0  0  0  0  0  0  0  0
  141.4320   73.7890  220.1690 N   0  0  0  0  0  0  0  0  0  0  0  0
  141.7760   72.6370  219.3010 C   0  0  0  0  0  0  0  0  0  0  0  0
  141.1458   71.7804  219.5822 H   0  0  0  0  0  0  0  0  0  0  0  0
  141.6010   72.9356  218.2569 H   0  0  0  0  0  0  0  0  0  0  0  0
  143.2290   72.2380  219.4340 C   0  0  0  0  0  0  0  0  0  0  0  0
  143.8070   71.2740  218.5850 C   0  0  0  0  0  0  0  0  0  0  0  0
  143.1985   70.7981  217.8019 H   0  0  0  0  0  0  0  0  0  0  0  0
  145.1510   70.9200  218.7340 C   0  0  0  0  0  0  0  0  0  0  0  0
  145.5881   70.1425  218.0902 H   0  0  0  0  0  0  0  0  0  0  0  0
  145.9420   71.5520  219.7000 C   0  0  0  0  0  0  0  0  0  0  0  0
  146.9961   71.2623  219.8220 H   0  0  0  0  0  0  0  0  0  0  0  0
  145.3940   72.5520  220.5110 C   0  0  0  0  0  0  0  0  0  0  0  0
  146.4050   73.3900  221.6810 Cl  0  0  0  0  0  0  0  0  0  0  0  0
  144.0430   72.8930  220.3790 C   0  0  0  0  0  0  0  0  0  0  0  0
  143.6135   73.6785  221.0181 H   0  0  0  0  0  0  0  0  0  0  0  0
  139.6350   71.4040  223.9070 C   0  0  0  0  0  0  0  0  0  0  0  0
  138.9380   70.2840  224.2560 N   0  0  0  0  0  0  0  0  0  0  0  0
  139.2590   69.5470  225.3550 C   0  0  0  0  0  0  0  0  0  0  0  0
  138.6784   68.6458  225.6016 H   0  0  0  0  0  0  0  0  0  0  0  0
  140.3250   69.9350  226.1690 C   0  0  0  0  0  0  0  0  0  0  0  0
  140.5858   69.3480  227.0620 H   0  0  0  0  0  0  0  0  0  0  0  0
  141.0560   71.0770  225.8360 C   0  0  0  0  0  0  0  0  0  0  0  0
  141.9058   71.3879  226.4615 H   0  0  0  0  0  0  0  0  0  0  0  0
  140.7080   71.8250  224.7080 C   0  0  0  0  0  0  0  0  0  0  0  0
  141.2696   72.7350  224.4503 H   0  0  0  0  0  0  0  0  0  0  0  0
  1  2  1  0
  2  3  2  0
  3  4  1  0
  3  5  1  0
  5  6  2  0
  6  7  1  0
  7  8  2  0
  8  9  1  0
  8 10  1  0
 10 11  1  0
 10 12  2  0
 12 13  1  0
 12 14  1  0
 14 15  1  0
 14 16  2  0
 16 17  1  0
 17 18  2  0
 17 19  1  0
 19 20  1  0
 20 21  1  0
 20 22  1  0
 20 23  1  0
 23 24  2  0
 24 25  1  0
 24 26  1  0
 26 27  1  0
 26 28  2  0
 28 29  1  0
 28 30  1  0
 30 31  1  0
 30 32  2  0
 32 33  1  0
  2 34  1  0
 34 35  2  0
 35 36  1  0
 36 37  1  0
 36 38  2  0
 38 39  1  0
 38 40  1  0
 40 41  1  0
 40 42  2  0
 42 43  1  0
 19  5  1  0
 32 23  1  0
 42 34  1  0
 16  7  1  0
M  END
>  <UniqueID>  (3) 
436

>  <SMILES>  (3) 
O=c1c2ccc(Cl)cc2nc(/C=C/c2ccccn2)n1Cc1cccc(Cl)c1

>  <Energy>  (3) 
62.431035696128276

>  <Genealogy>  (3) 
O=c1c2ccc(Cl)cc2nc(/C=C/c2ccccn2)n1Cc1cccc(Cl)c1 (cis-trans isomerization)
O=c1c2ccc(Cl)cc2nc(/C=C/c2ccccn2)n1Cc1cccc(Cl)c1 (3D coordinates assigned)
O=c1c2ccc(Cl)cc2nc(/C=C/c2ccccn2)n1Cc1cccc(Cl)c1 (optimized conformer: 62.431035696128276 kcal/mol)

>  <smiles>  (3) 
O=c1c2ccc(Cl)cc2nc(/C=C/c2ccccn2)n1Cc1cccc(Cl)c1

>  <score_type>  (3) 
oracle

>  <origin>  (3) 
autodockgpu

>  <m_score__min__energy>  (3) 
-8.0099999999999998

>  <m_primary>  (3) 
energy

>  <meeko>  (3) 
{"free_energy": -7.77, "intermolecular_energy": -9.26, "internal_energy": -1.15, "cluster_size": 4, "cluster_id": 1, "rank_in_cluster": 4}

>  <energy>  (3) 
-7.88

>  <cluster_rmsd>  (3) 
0.83

>  <rmsd>  (3) 
271.87

>  <cluster>  (3) 
1

$$$$
PKQSJVMIHVNFFS-CSKARUKUNA-N
     RDKit          3D

 43 46  0  0  0  0  0  0  0  0999 V2000
  138.6014   71.7789  220.9863 H   0  0  0  0  0  0  0  0  0  0  0  0
  138.7780   72.2750  221.9520 C   0  0  0  0  0  0  0  0  0  0  0  0
  138.7280   71.5420  223.0700 C   0  0  0  0  0  0  0  0  0  0  0  0
  139.6567   71.1347  223.4962 H   0  0  0  0  0  0  0  0  0  0  0  0
  137.4410   71.2750  223.7360 C   0  0  0  0  0  0  0  0  0  0  0  0
  136.5670   72.3090  223.8500 N   0  0  0  0  0  0  0  0  0  0  0  0
  135.3670   72.1630  224.4630 C   0  0  0  0  0  0  0  0  0  0  0  0
  134.5010   73.2600  224.5740 C   0  0  0  0  0  0  0  0  0  0  0  0
  134.7861   74.2312  224.1433 H   0  0  0  0  0  0  0  0  0  0  0  0
  133.2750   73.1200  225.2320 C   0  0  0  0  0  0  0  0  0  0  0  0
  132.2020   74.4980  225.3860 Cl  0  0  0  0  0  0  0  0  0  0  0  0
  132.9090   71.8810  225.7740 C   0  0  0  0  0  0  0  0  0  0  0  0
  131.9450   71.7729  226.2926 H   0  0  0  0  0  0  0  0  0  0  0  0
  133.7650   70.7810  225.6580 C   0  0  0  0  0  0  0  0  0  0  0  0
  133.4704   69.8090  226.0804 H   0  0  0  0  0  0  0  0  0  0  0  0
  135.0040   70.9160  225.0010 C   0  0  0  0  0  0  0  0  0  0  0  0
  135.9060   69.8450  224.8670 C   0  0  0  0  0  0  0  0  0  0  0  0
  135.6030   68.7140  225.3450 O   0  0  0  0  0  0  0  0  0  0  0  0
  137.1120   70.0270  224.2240 N   0  0  0  0  0  0  0  0  0  0  0  0
  138.0370   68.8820  224.0510 C   0  0  0  0  0  0  0  0  0  0  0  0
  137.4463   67.9572  223.9739 H   0  0  0  0  0  0  0  0  0  0  0  0
  138.6255   69.0566  223.1382 H   0  0  0  0  0  0  0  0  0  0  0  0
  139.0010   68.7500  225.2090 C   0  0  0  0  0  0  0  0  0  0  0  0
  139.6040   67.5170  225.5280 C   0  0  0  0  0  0  0  0  0  0  0  0
  139.3791   66.6252  224.9246 H   0  0  0  0  0  0  0  0  0  0  0  0
  140.4860   67.4220  226.6070 C   0  0  0  0  0  0  0  0  0  0  0  0
  140.9264   66.4493  226.8712 H   0  0  0  0  0  0  0  0  0  0  0  0
  140.8110   68.5610  227.3530 C   0  0  0  0  0  0  0  0  0  0  0  0
  141.4967   68.4800  228.2093 H   0  0  0  0  0  0  0  0  0  0  0  0
  140.2640   69.8030  227.0100 C   0  0  0  0  0  0  0  0  0  0  0  0
  140.7220   71.2450  227.9080 Cl  0  0  0  0  0  0  0  0  0  0  0  0
  139.3620   69.8970  225.9440 C   0  0  0  0  0  0  0  0  0  0  0  0
  138.9315   70.8736  225.6778 H   0  0  0  0  0  0  0  0  0  0  0  0
  139.0610   73.7240  221.9640 C   0  0  0  0  0  0  0  0  0  0  0  0
  140.3450   74.1850  221.9710 N   0  0  0  0  0  0  0  0  0  0  0  0
  140.6340   75.5150  221.9770 C   0  0  0  0  0  0  0  0  0  0  0  0
  141.6819   75.8495  221.9748 H   0  0  0  0  0  0  0  0  0  0  0  0
  139.6010   76.4560  221.9860 C   0  0  0  0  0  0  0  0  0  0  0  0
  139.8277   77.5323  221.9984 H   0  0  0  0  0  0  0  0  0  0  0  0
  138.2770   76.0120  221.9790 C   0  0  0  0  0  0  0  0  0  0  0  0
  137.4528   76.7405  221.9735 H   0  0  0  0  0  0  0  0  0  0  0  0
  137.9990   74.6430  221.9790 C   0  0  0  0  0  0  0  0  0  0  0  0
  136.9579   74.2880  221.9906 H   0  0  0  0  0  0  0  0  0  0  0  0
  1  2  1  0
  2  3  2  0
  3  4  1  0
  3  5  1  0
  5  6  2  0
  6  7  1  0
  7  8  2  0
  8  9  1  0
  8 10  1  0
 10 11  1  0
 10 12  2  0
 12 13  1  0
 12 14  1  0
 14 15  1  0
 14 16  2  0
 16 17  1  0
 17 18  2  0
 17 19  1  0
 19 20  1  0
 20 21  1  0
 20 22  1  0
 20 23  1  0
 23 24  2  0
 24 25  1  0
 24 26  1  0
 26 27  1  0
 26 28  2  0
 28 29  1  0
 28 30  1  0
 30 31  1  0
 30 32  2  0
 32 33  1  0
  2 34  1  0
 34 35  2  0
 35 36  1  0
 36 37  1  0
 36 38  2  0
 38 39  1  0
 38 40  1  0
 40 41  1  0
 40 42  2  0
 42 43  1  0
 19  5  1  0
 32 23  1  0
 42 34  1  0
 16  7  1  0
M  END
>  <UniqueID>  (4) 
436

>  <SMILES>  (4) 
O=c1c2ccc(Cl)cc2nc(/C=C/c2ccccn2)n1Cc1cccc(Cl)c1

>  <Energy>  (4) 
62.431035696128276

>  <Genealogy>  (4) 
O=c1c2ccc(Cl)cc2nc(/C=C/c2ccccn2)n1Cc1cccc(Cl)c1 (cis-trans isomerization)
O=c1c2ccc(Cl)cc2nc(/C=C/c2ccccn2)n1Cc1cccc(Cl)c1 (3D coordinates assigned)
O=c1c2ccc(Cl)cc2nc(/C=C/c2ccccn2)n1Cc1cccc(Cl)c1 (optimized conformer: 62.431035696128276 kcal/mol)

>  <smiles>  (4) 
O=c1c2ccc(Cl)cc2nc(/C=C/c2ccccn2)n1Cc1cccc(Cl)c1

>  <score_type>  (4) 
oracle

>  <origin>  (4) 
autodockgpu

>  <m_score__min__energy>  (4) 
-8.0099999999999998

>  <m_primary>  (4) 
energy

>  <meeko>  (4) 
{"free_energy": -7.66, "intermolecular_energy": -9.15, "internal_energy": -1.26, "cluster_size": 6, "cluster_id": 2, "rank_in_cluster": 2}

>  <energy>  (4) 
-7.77

>  <cluster_rmsd>  (4) 
0.7

>  <rmsd>  (4) 
271.83

>  <cluster>  (4) 
1

$$$$
PKQSJVMIHVNFFS-CSKARUKUNA-N
     RDKit          3D

 43 46  0  0  0  0  0  0  0  0999 V2000
  141.4501   71.3658  223.2448 H   0  0  0  0  0  0  0  0  0  0  0  0
  140.6600   71.7250  222.5690 C   0  0  0  0  0  0  0  0  0  0  0  0
  139.6330   70.9140  222.2930 C   0  0  0  0  0  0  0  0  0  0  0  0
  139.7540   70.1170  221.5446 H   0  0  0  0  0  0  0  0  0  0  0  0
  138.3410   71.0780  222.9820 C   0  0  0  0  0  0  0  0  0  0  0  0
  137.6240   72.2010  222.7130 N   0  0  0  0  0  0  0  0  0  0  0  0
  136.4340   72.4470  223.3120 C   0  0  0  0  0  0  0  0  0  0  0  0
  135.7340   73.6260  223.0200 C   0  0  0  0  0  0  0  0  0  0  0  0
  136.1399   74.3391  222.2874 H   0  0  0  0  0  0  0  0  0  0  0  0
  134.5210   73.8960  223.6590 C   0  0  0  0  0  0  0  0  0  0  0  0
  133.6570   75.3810  223.3040 Cl  0  0  0  0  0  0  0  0  0  0  0  0
  133.9990   72.9850  224.5860 C   0  0  0  0  0  0  0  0  0  0  0  0
  133.0439   73.1999  225.0876 H   0  0  0  0  0  0  0  0  0  0  0  0
  134.6880   71.8030  224.8760 C   0  0  0  0  0  0  0  0  0  0  0  0
  134.2724   71.0888  225.6021 H   0  0  0  0  0  0  0  0  0  0  0  0
  135.9140   71.5260  224.2390 C   0  0  0  0  0  0  0  0  0  0  0  0
  136.6520   70.3580  224.5030 C   0  0  0  0  0  0  0  0  0  0  0  0
  136.2070   69.5160  225.3350 O   0  0  0  0  0  0  0  0  0  0  0  0
  137.8530   70.1350  223.8630 N   0  0  0  0  0  0  0  0  0  0  0  0
  138.6030   68.8810  224.1160 C   0  0  0  0  0  0  0  0  0  0  0  0
  137.8867   68.0509  224.2044 H   0  0  0  0  0  0  0  0  0  0  0  0
  139.2940   68.7238  223.2747 H   0  0  0  0  0  0  0  0  0  0  0  0
  139.4230   68.9550  225.3850 C   0  0  0  0  0  0  0  0  0  0  0  0
  139.8710   67.7900  226.0390 C   0  0  0  0  0  0  0  0  0  0  0  0
  139.6289   66.8007  225.6234 H   0  0  0  0  0  0  0  0  0  0  0  0
  140.6220   67.8870  227.2140 C   0  0  0  0  0  0  0  0  0  0  0  0
  140.9404   66.9740  227.7385 H   0  0  0  0  0  0  0  0  0  0  0  0
  140.9700   69.1430  227.7250 C   0  0  0  0  0  0  0  0  0  0  0  0
  141.5506   69.2154  228.6565 H   0  0  0  0  0  0  0  0  0  0  0  0
  140.5800   70.3070  227.0520 C   0  0  0  0  0  0  0  0  0  0  0  0
  141.0720   71.8820  227.6600 Cl  0  0  0  0  0  0  0  0  0  0  0  0
  139.8080   70.2130  225.8880 C   0  0  0  0  0  0  0  0  0  0  0  0
  139.4997   71.1287  225.3622 H   0  0  0  0  0  0  0  0  0  0  0  0
  140.7750   73.0840  222.0020 C   0  0  0  0  0  0  0  0  0  0  0  0
  139.8760   74.0560  222.3310 N   0  0  0  0  0  0  0  0  0  0  0  0
  139.9600   75.3180  221.8260 C   0  0  0  0  0  0  0  0  0  0  0  0
  139.2208   76.0781  222.1190 H   0  0  0  0  0  0  0  0  0  0  0  0
  140.9850   75.6470  220.9360 C   0  0  0  0  0  0  0  0  0  0  0  0
  141.0555   76.6627  220.5196 H   0  0  0  0  0  0  0  0  0  0  0  0
  141.9190   74.6720  220.5810 C   0  0  0  0  0  0  0  0  0  0  0  0
  142.7384   74.9202  219.8903 H   0  0  0  0  0  0  0  0  0  0  0  0
  141.8120   73.3800  221.1040 C   0  0  0  0  0  0  0  0  0  0  0  0
  142.5341   72.6024  220.8143 H   0  0  0  0  0  0  0  0  0  0  0  0
  1  2  1  0
  2  3  2  0
  3  4  1  0
  3  5  1  0
  5  6  2  0
  6  7  1  0
  7  8  2  0
  8  9  1  0
  8 10  1  0
 10 11  1  0
 10 12  2  0
 12 13  1  0
 12 14  1  0
 14 15  1  0
 14 16  2  0
 16 17  1  0
 17 18  2  0
 17 19  1  0
 19 20  1  0
 20 21  1  0
 20 22  1  0
 20 23  1  0
 23 24  2  0
 24 25  1  0
 24 26  1  0
 26 27  1  0
 26 28  2  0
 28 29  1  0
 28 30  1  0
 30 31  1  0
 30 32  2  0
 32 33  1  0
  2 34  1  0
 34 35  2  0
 35 36  1  0
 36 37  1  0
 36 38  2  0
 38 39  1  0
 38 40  1  0
 40 41  1  0
 40 42  2  0
 42 43  1  0
 19  5  1  0
 32 23  1  0
 42 34  1  0
 16  7  1  0
M  END
>  <UniqueID>  (5) 
436

>  <SMILES>  (5) 
O=c1c2ccc(Cl)cc2nc(/C=C/c2ccccn2)n1Cc1cccc(Cl)c1

>  <Energy>  (5) 
62.431035696128276

>  <Genealogy>  (5) 
O=c1c2ccc(Cl)cc2nc(/C=C/c2ccccn2)n1Cc1cccc(Cl)c1 (cis-trans isomerization)
O=c1c2ccc(Cl)cc2nc(/C=C/c2ccccn2)n1Cc1cccc(Cl)c1 (3D coordinates assigned)
O=c1c2ccc(Cl)cc2nc(/C=C/c2ccccn2)n1Cc1cccc(Cl)c1 (optimized conformer: 62.431035696128276 kcal/mol)

>  <smiles>  (5) 
O=c1c2ccc(Cl)cc2nc(/C=C/c2ccccn2)n1Cc1cccc(Cl)c1

>  <score_type>  (5) 
oracle

>  <origin>  (5) 
autodockgpu

>  <m_score__min__energy>  (5) 
-8.0099999999999998

>  <m_primary>  (5) 
energy

>  <meeko>  (5) 
{"free_energy": -7.6, "intermolecular_energy": -9.09, "internal_energy": -1.45, "cluster_size": 6, "cluster_id": 2, "rank_in_cluster": 3}

>  <energy>  (5) 
-7.71

>  <cluster_rmsd>  (5) 
0.0

>  <rmsd>  (5) 
271.55

>  <cluster>  (5) 
2

$$$$
PKQSJVMIHVNFFS-CSKARUKUNA-N
     RDKit          3D

 43 46  0  0  0  0  0  0  0  0999 V2000
  142.3309   80.7901  219.1429 H   0  0  0  0  0  0  0  0  0  0  0  0
  141.8480   80.0720  219.8220 C   0  0  0  0  0  0  0  0  0  0  0  0
  141.1210   79.0790  219.2970 C   0  0  0  0  0  0  0  0  0  0  0  0
  140.3917   79.2985  218.5033 H   0  0  0  0  0  0  0  0  0  0  0  0
  141.2880   77.6940  219.7720 C   0  0  0  0  0  0  0  0  0  0  0  0
  142.5280   77.1450  219.6850 N   0  0  0  0  0  0  0  0  0  0  0  0
  142.7720   75.8730  220.0800 C   0  0  0  0  0  0  0  0  0  0  0  0
  144.0630   75.3380  219.9570 C   0  0  0  0  0  0  0  0  0  0  0  0
  144.8801   75.9595  219.5619 H   0  0  0  0  0  0  0  0  0  0  0  0
  144.3120   74.0160  220.3360 C   0  0  0  0  0  0  0  0  0  0  0  0
  145.9240   73.3450  220.1640 Cl  0  0  0  0  0  0  0  0  0  0  0  0
  143.2740   73.2260  220.8450 C   0  0  0  0  0  0  0  0  0  0  0  0
  143.4719   72.1853  221.1413 H   0  0  0  0  0  0  0  0  0  0  0  0
  141.9860   73.7560  220.9780 C   0  0  0  0  0  0  0  0  0  0  0  0
  141.1749   73.1326  221.3825 H   0  0  0  0  0  0  0  0  0  0  0  0
  141.7260   75.0860  220.5950 C   0  0  0  0  0  0  0  0  0  0  0  0
  140.4480   75.6640  220.6970 C   0  0  0  0  0  0  0  0  0  0  0  0
  139.4900   74.9760  221.1540 O   0  0  0  0  0  0  0  0  0  0  0  0
  140.2400   76.9670  220.2990 N   0  0  0  0  0  0  0  0  0  0  0  0
  138.8980   77.5800  220.4500 C   0  0  0  0  0  0  0  0  0  0  0  0
  138.6133   78.0500  219.4971 H   0  0  0  0  0  0  0  0  0  0  0  0
  138.1913   76.7845  220.7290 H   0  0  0  0  0  0  0  0  0  0  0  0
  138.8720   78.6300  221.5390 C   0  0  0  0  0  0  0  0  0  0  0  0
  139.2820   78.3340  222.8550 C   0  0  0  0  0  0  0  0  0  0  0  0
  139.6346   77.3224  223.1048 H   0  0  0  0  0  0  0  0  0  0  0  0
  139.2420   79.3210  223.8430 C   0  0  0  0  0  0  0  0  0  0  0  0
  139.5305   79.0751  224.8756 H   0  0  0  0  0  0  0  0  0  0  0  0
  138.8360   80.6220  223.5230 C   0  0  0  0  0  0  0  0  0  0  0  0
  138.7944   81.3932  224.3063 H   0  0  0  0  0  0  0  0  0  0  0  0
  138.4830   80.9420  222.2070 C   0  0  0  0  0  0  0  0  0  0  0  0
  138.0350   82.5920  221.7920 Cl  0  0  0  0  0  0  0  0  0  0  0  0
  138.5000   79.9500  221.2190 C   0  0  0  0  0  0  0  0  0  0  0  0
  138.2208   80.2035  220.1856 H   0  0  0  0  0  0  0  0  0  0  0  0
  142.0270   80.2410  221.2780 C   0  0  0  0  0  0  0  0  0  0  0  0
  142.3790   79.1850  222.0660 N   0  0  0  0  0  0  0  0  0  0  0  0
  142.5550   79.3140  223.4100 C   0  0  0  0  0  0  0  0  0  0  0  0
  142.8460   78.4410  224.0127 H   0  0  0  0  0  0  0  0  0  0  0  0
  142.3660   80.5550  224.0240 C   0  0  0  0  0  0  0  0  0  0  0  0
  142.5000   80.6648  225.1103 H   0  0  0  0  0  0  0  0  0  0  0  0
  142.0050   81.6540  223.2420 C   0  0  0  0  0  0  0  0  0  0  0  0
  141.8640   82.6398  223.7093 H   0  0  0  0  0  0  0  0  0  0  0  0
  141.8230   81.5000  221.8650 C   0  0  0  0  0  0  0  0  0  0  0  0
  141.5224   82.3582  221.2461 H   0  0  0  0  0  0  0  0  0  0  0  0
  1  2  1  0
  2  3  2  0
  3  4  1  0
  3  5  1  0
  5  6  2  0
  6  7  1  0
  7  8  2  0
  8  9  1  0
  8 10  1  0
 10 11  1  0
 10 12  2  0
 12 13  1  0
 12 14  1  0
 14 15  1  0
 14 16  2  0
 16 17  1  0
 17 18  2  0
 17 19  1  0
 19 20  1  0
 20 21  1  0
 20 22  1  0
 20 23  1  0
 23 24  2  0
 24 25  1  0
 24 26  1  0
 26 27  1  0
 26 28  2  0
 28 29  1  0
 28 30  1  0
 30 31  1  0
 30 32  2  0
 32 33  1  0
  2 34  1  0
 34 35  2  0
 35 36  1  0
 36 37  1  0
 36 38  2  0
 38 39  1  0
 38 40  1  0
 40 41  1  0
 40 42  2  0
 42 43  1  0
 19  5  1  0
 32 23  1  0
 42 34  1  0
 16  7  1  0
M  END
>  <UniqueID>  (6) 
436

>  <SMILES>  (6) 
O=c1c2ccc(Cl)cc2nc(/C=C/c2ccccn2)n1Cc1cccc(Cl)c1

>  <Energy>  (6) 
62.431035696128276

>  <Genealogy>  (6) 
O=c1c2ccc(Cl)cc2nc(/C=C/c2ccccn2)n1Cc1cccc(Cl)c1 (cis-trans isomerization)
O=c1c2ccc(Cl)cc2nc(/C=C/c2ccccn2)n1Cc1cccc(Cl)c1 (3D coordinates assigned)
O=c1c2ccc(Cl)cc2nc(/C=C/c2ccccn2)n1Cc1cccc(Cl)c1 (optimized conformer: 62.431035696128276 kcal/mol)

>  <smiles>  (6) 
O=c1c2ccc(Cl)cc2nc(/C=C/c2ccccn2)n1Cc1cccc(Cl)c1

>  <score_type>  (6) 
oracle

>  <origin>  (6) 
autodockgpu

>  <m_score__min__energy>  (6) 
-8.0099999999999998

>  <m_primary>  (6) 
energy

>  <meeko>  (6) 
{"free_energy": -6.64, "intermolecular_energy": -8.14, "internal_energy": -2.32, "cluster_size": 9, "cluster_id": 4, "rank_in_cluster": 6}

>  <energy>  (6) 
-7.66

>  <cluster_rmsd>  (6) 
1.33

>  <rmsd>  (6) 
271.38

>  <cluster>  (6) 
2

$$$$
PKQSJVMIHVNFFS-CSKARUKUNA-N
     RDKit          3D

 43 46  0  0  0  0  0  0  0  0999 V2000
  141.5562   71.2889  223.0062 H   0  0  0  0  0  0  0  0  0  0  0  0
  140.7230   71.7080  222.4230 C   0  0  0  0  0  0  0  0  0  0  0  0
  139.6680   70.9300  222.1590 C   0  0  0  0  0  0  0  0  0  0  0  0
  139.7473   70.1458  221.3917 H   0  0  0  0  0  0  0  0  0  0  0  0
  138.4000   71.1140  222.8870 C   0  0  0  0  0  0  0  0  0  0  0  0
  137.6780   72.2330  222.6180 N   0  0  0  0  0  0  0  0  0  0  0  0
  136.5090   72.4960  223.2500 C   0  0  0  0  0  0  0  0  0  0  0  0
  135.8030   73.6710  222.9560 C   0  0  0  0  0  0  0  0  0  0  0  0
  136.1870   74.3666  222.1952 H   0  0  0  0  0  0  0  0  0  0  0  0
  134.6120   73.9600  223.6280 C   0  0  0  0  0  0  0  0  0  0  0  0
  133.7410   75.4400  223.2700 Cl  0  0  0  0  0  0  0  0  0  0  0  0
  134.1190   73.0710  224.5920 C   0  0  0  0  0  0  0  0  0  0  0  0
  133.1822   73.3003  225.1210 H   0  0  0  0  0  0  0  0  0  0  0  0
  134.8140   71.8930  224.8840 C   0  0  0  0  0  0  0  0  0  0  0  0
  134.4203   71.1958  225.6382 H   0  0  0  0  0  0  0  0  0  0  0  0
  136.0170   71.5980  224.2140 C   0  0  0  0  0  0  0  0  0  0  0  0
  136.7600   70.4330  224.4780 C   0  0  0  0  0  0  0  0  0  0  0  0
  136.3410   69.6110  225.3420 O   0  0  0  0  0  0  0  0  0  0  0  0
  137.9380   70.1910  223.8040 N   0  0  0  0  0  0  0  0  0  0  0  0
  138.6930   68.9410  224.0590 C   0  0  0  0  0  0  0  0  0  0  0  0
  137.9843   68.1007  224.0995 H   0  0  0  0  0  0  0  0  0  0  0  0
  139.4194   68.8118  223.2432 H   0  0  0  0  0  0  0  0  0  0  0  0
  139.4600   68.9950  225.3610 C   0  0  0  0  0  0  0  0  0  0  0  0
  139.8570   67.8200  226.0300 C   0  0  0  0  0  0  0  0  0  0  0  0
  139.6125   66.8367  225.6019 H   0  0  0  0  0  0  0  0  0  0  0  0
  140.5600   67.8990  227.2350 C   0  0  0  0  0  0  0  0  0  0  0  0
  140.8376   66.9785  227.7694 H   0  0  0  0  0  0  0  0  0  0  0  0
  140.9120   69.1460  227.7640 C   0  0  0  0  0  0  0  0  0  0  0  0
  141.4554   69.2045  228.7186 H   0  0  0  0  0  0  0  0  0  0  0  0
  140.5730   70.3190  227.0790 C   0  0  0  0  0  0  0  0  0  0  0  0
  141.0710   71.8830  227.7130 Cl  0  0  0  0  0  0  0  0  0  0  0  0
  139.8500   70.2440  225.8840 C   0  0  0  0  0  0  0  0  0  0  0  0
  139.5838   71.1672  225.3483 H   0  0  0  0  0  0  0  0  0  0  0  0
  140.8130   73.1080  221.9620 C   0  0  0  0  0  0  0  0  0  0  0  0
  139.8820   74.0300  222.3440 N   0  0  0  0  0  0  0  0  0  0  0  0
  139.9430   75.3280  221.9380 C   0  0  0  0  0  0  0  0  0  0  0  0
  139.1781   76.0449  222.2713 H   0  0  0  0  0  0  0  0  0  0  0  0
  140.9770   75.7500  221.0980 C   0  0  0  0  0  0  0  0  0  0  0  0
  141.0286   76.7957  220.7607 H   0  0  0  0  0  0  0  0  0  0  0  0
  141.9440   74.8280  220.6920 C   0  0  0  0  0  0  0  0  0  0  0  0
  142.7708   75.1485  220.0410 H   0  0  0  0  0  0  0  0  0  0  0  0
  141.8610   73.4980  221.1130 C   0  0  0  0  0  0  0  0  0  0  0  0
  142.6099   72.7634  220.7822 H   0  0  0  0  0  0  0  0  0  0  0  0
  1  2  1  0
  2  3  2  0
  3  4  1  0
  3  5  1  0
  5  6  2  0
  6  7  1  0
  7  8  2  0
  8  9  1  0
  8 10  1  0
 10 11  1  0
 10 12  2  0
 12 13  1  0
 12 14  1  0
 14 15  1  0
 14 16  2  0
 16 17  1  0
 17 18  2  0
 17 19  1  0
 19 20  1  0
 20 21  1  0
 20 22  1  0
 20 23  1  0
 23 24  2  0
 24 25  1  0
 24 26  1  0
 26 27  1  0
 26 28  2  0
 28 29  1  0
 28 30  1  0
 30 31  1  0
 30 32  2  0
 32 33  1  0
  2 34  1  0
 34 35  2  0
 35 36  1  0
 36 37  1  0
 36 38  2  0
 38 39  1  0
 38 40  1  0
 40 41  1  0
 40 42  2  0
 42 43  1  0
 19  5  1  0
 32 23  1  0
 42 34  1  0
 16  7  1  0
M  END
>  <UniqueID>  (7) 
436

>  <SMILES>  (7) 
O=c1c2ccc(Cl)cc2nc(/C=C/c2ccccn2)n1Cc1cccc(Cl)c1

>  <Energy>  (7) 
62.431035696128276

>  <Genealogy>  (7) 
O=c1c2ccc(Cl)cc2nc(/C=C/c2ccccn2)n1Cc1cccc(Cl)c1 (cis-trans isomerization)
O=c1c2ccc(Cl)cc2nc(/C=C/c2ccccn2)n1Cc1cccc(Cl)c1 (3D coordinates assigned)
O=c1c2ccc(Cl)cc2nc(/C=C/c2ccccn2)n1Cc1cccc(Cl)c1 (optimized conformer: 62.431035696128276 kcal/mol)

>  <smiles>  (7) 
O=c1c2ccc(Cl)cc2nc(/C=C/c2ccccn2)n1Cc1cccc(Cl)c1

>  <score_type>  (7) 
oracle

>  <origin>  (7) 
autodockgpu

>  <m_score__min__energy>  (7) 
-8.0099999999999998

>  <m_primary>  (7) 
energy

>  <meeko>  (7) 
{"free_energy": -7.57, "intermolecular_energy": -9.06, "internal_energy": -1.45, "cluster_size": 6, "cluster_id": 2, "rank_in_cluster": 6}

>  <energy>  (7) 
-7.6

>  <cluster_rmsd>  (7) 
0.47

>  <rmsd>  (7) 
271.5

>  <cluster>  (7) 
2

$$$$
PKQSJVMIHVNFFS-CSKARUKUNA-N
     RDKit          3D

 43 46  0  0  0  0  0  0  0  0999 V2000
  140.4669   70.9874  220.9102 H   0  0  0  0  0  0  0  0  0  0  0  0
  140.4230   71.6620  221.7780 C   0  0  0  0  0  0  0  0  0  0  0  0
  140.0710   71.1590  222.9660 C   0  0  0  0  0  0  0  0  0  0  0  0
  140.8471   70.7901  223.6528 H   0  0  0  0  0  0  0  0  0  0  0  0
  138.6540   71.0940  223.3640 C   0  0  0  0  0  0  0  0  0  0  0  0
  137.8730   72.1690  223.0790 N   0  0  0  0  0  0  0  0  0  0  0  0
  136.5630   72.2080  223.4230 C   0  0  0  0  0  0  0  0  0  0  0  0
  135.7950   73.3430  223.1250 C   0  0  0  0  0  0  0  0  0  0  0  0
  136.2506   74.1905  222.5919 H   0  0  0  0  0  0  0  0  0  0  0  0
  134.4510   73.3980  223.5050 C   0  0  0  0  0  0  0  0  0  0  0  0
  133.4980   74.8270  223.1470 Cl  0  0  0  0  0  0  0  0  0  0  0  0
  133.8680   72.3160  224.1770 C   0  0  0  0  0  0  0  0  0  0  0  0
  132.8104   72.3618  224.4759 H   0  0  0  0  0  0  0  0  0  0  0  0
  134.6260   71.1780  224.4690 C   0  0  0  0  0  0  0  0  0  0  0  0
  134.1624   70.3293  224.9932 H   0  0  0  0  0  0  0  0  0  0  0  0
  135.9830   71.1160  224.0930 C   0  0  0  0  0  0  0  0  0  0  0  0
  136.7920   70.0000  224.3730 C   0  0  0  0  0  0  0  0  0  0  0  0
  136.2940   69.0070  224.9770 O   0  0  0  0  0  0  0  0  0  0  0  0
  138.1180   69.9900  223.9950 N   0  0  0  0  0  0  0  0  0  0  0  0
  138.9510   68.7930  224.2560 C   0  0  0  0  0  0  0  0  0  0  0  0
  138.3006   67.9061  224.2782 H   0  0  0  0  0  0  0  0  0  0  0  0
  139.6991   68.7190  223.4529 H   0  0  0  0  0  0  0  0  0  0  0  0
  139.6890   68.8900  225.5730 C   0  0  0  0  0  0  0  0  0  0  0  0
  140.1430   67.7390  226.2480 C   0  0  0  0  0  0  0  0  0  0  0  0
  139.9664   66.7437  225.8142 H   0  0  0  0  0  0  0  0  0  0  0  0
  140.8170   67.8580  227.4670 C   0  0  0  0  0  0  0  0  0  0  0  0
  141.1391   66.9549  228.0062 H   0  0  0  0  0  0  0  0  0  0  0  0
  141.0830   69.1230  228.0030 C   0  0  0  0  0  0  0  0  0  0  0  0
  141.6027   69.2120  228.9684 H   0  0  0  0  0  0  0  0  0  0  0  0
  140.6890   70.2750  227.3130 C   0  0  0  0  0  0  0  0  0  0  0  0
  141.0800   71.8640  227.9570 Cl  0  0  0  0  0  0  0  0  0  0  0  0
  139.9940   70.1590  226.1040 C   0  0  0  0  0  0  0  0  0  0  0  0
  139.6834   71.0656  225.5640 H   0  0  0  0  0  0  0  0  0  0  0  0
  140.7550   73.0880  221.5860 C   0  0  0  0  0  0  0  0  0  0  0  0
  139.9650   74.0660  222.1140 N   0  0  0  0  0  0  0  0  0  0  0  0
  140.2490   75.3880  221.9560 C   0  0  0  0  0  0  0  0  0  0  0  0
  139.5911   76.1487  222.4015 H   0  0  0  0  0  0  0  0  0  0  0  0
  141.3760   75.7790  221.2280 C   0  0  0  0  0  0  0  0  0  0  0  0
  141.6081   76.8455  221.0914 H   0  0  0  0  0  0  0  0  0  0  0  0
  142.2040   74.7990  220.6760 C   0  0  0  0  0  0  0  0  0  0  0  0
  143.1006   75.0910  220.1096 H   0  0  0  0  0  0  0  0  0  0  0  0
  141.8920   73.4460  220.8440 C   0  0  0  0  0  0  0  0  0  0  0  0
  142.5315   72.6695  220.3989 H   0  0  0  0  0  0  0  0  0  0  0  0
  1  2  1  0
  2  3  2  0
  3  4  1  0
  3  5  1  0
  5  6  2  0
  6  7  1  0
  7  8  2  0
  8  9  1  0
  8 10  1  0
 10 11  1  0
 10 12  2  0
 12 13  1  0
 12 14  1  0
 14 15  1  0
 14 16  2  0
 16 17  1  0
 17 18  2  0
 17 19  1  0
 19 20  1  0
 20 21  1  0
 20 22  1  0
 20 23  1  0
 23 24  2  0
 24 25  1  0
 24 26  1  0
 26 27  1  0
 26 28  2  0
 28 29  1  0
 28 30  1  0
 30 31  1  0
 30 32  2  0
 32 33  1  0
  2 34  1  0
 34 35  2  0
 35 36  1  0
 36 37  1  0
 36 38  2  0
 38 39  1  0
 38 40  1  0
 40 41  1  0
 40 42  2  0
 42 43  1  0
 19  5  1  0
 32 23  1  0
 42 34  1  0
 16  7  1  0
M  END
>  <UniqueID>  (8) 
436

>  <SMILES>  (8) 
O=c1c2ccc(Cl)cc2nc(/C=C/c2ccccn2)n1Cc1cccc(Cl)c1

>  <Energy>  (8) 
62.431035696128276

>  <Genealogy>  (8) 
O=c1c2ccc(Cl)cc2nc(/C=C/c2ccccn2)n1Cc1cccc(Cl)c1 (cis-trans isomerization)
O=c1c2ccc(Cl)cc2nc(/C=C/c2ccccn2)n1Cc1cccc(Cl)c1 (3D coordinates assigned)
O=c1c2ccc(Cl)cc2nc(/C=C/c2ccccn2)n1Cc1cccc(Cl)c1 (optimized conformer: 62.431035696128276 kcal/mol)

>  <smiles>  (8) 
O=c1c2ccc(Cl)cc2nc(/C=C/c2ccccn2)n1Cc1cccc(Cl)c1

>  <score_type>  (8) 
oracle

>  <origin>  (8) 
autodockgpu

>  <m_score__min__energy>  (8) 
-8.0099999999999998

>  <m_primary>  (8) 
energy

>  <meeko>  (8) 
{"free_energy": -7.71, "intermolecular_energy": -9.2, "internal_energy": -1.23, "cluster_size": 6, "cluster_id": 2, "rank_in_cluster": 1}

>  <energy>  (8) 
-7.59

>  <cluster_rmsd>  (8) 
0.48

>  <rmsd>  (8) 
271.51

>  <cluster>  (8) 
2

$$$$
PKQSJVMIHVNFFS-CSKARUKUNA-N
     RDKit          3D

 43 46  0  0  0  0  0  0  0  0999 V2000
  142.3509   80.7794  219.1322 H   0  0  0  0  0  0  0  0  0  0  0  0
  141.8610   80.0630  219.8080 C   0  0  0  0  0  0  0  0  0  0  0  0
  141.1390   79.0700  219.2780 C   0  0  0  0  0  0  0  0  0  0  0  0
  140.4168   79.2890  218.4777 H   0  0  0  0  0  0  0  0  0  0  0  0
  141.3010   77.6860  219.7550 C   0  0  0  0  0  0  0  0  0  0  0  0
  142.5410   77.1350  219.6720 N   0  0  0  0  0  0  0  0  0  0  0  0
  142.7820   75.8620  220.0700 C   0  0  0  0  0  0  0  0  0  0  0  0
  144.0720   75.3260  219.9520 C   0  0  0  0  0  0  0  0  0  0  0  0
  144.8910   75.9460  219.5586 H   0  0  0  0  0  0  0  0  0  0  0  0
  144.3180   74.0040  220.3340 C   0  0  0  0  0  0  0  0  0  0  0  0
  145.9290   73.3300  220.1680 Cl  0  0  0  0  0  0  0  0  0  0  0  0
  143.2760   73.2160  220.8400 C   0  0  0  0  0  0  0  0  0  0  0  0
  143.4707   72.1751  221.1375 H   0  0  0  0  0  0  0  0  0  0  0  0
  141.9900   73.7480  220.9680 C   0  0  0  0  0  0  0  0  0  0  0  0
  141.1767   73.1267  221.3711 H   0  0  0  0  0  0  0  0  0  0  0  0
  141.7330   75.0780  220.5820 C   0  0  0  0  0  0  0  0  0  0  0  0
  140.4550   75.6580  220.6790 C   0  0  0  0  0  0  0  0  0  0  0  0
  139.4950   74.9730  221.1340 O   0  0  0  0  0  0  0  0  0  0  0  0
  140.2500   76.9610  220.2790 N   0  0  0  0  0  0  0  0  0  0  0  0
  138.9090   77.5760  220.4240 C   0  0  0  0  0  0  0  0  0  0  0  0
  138.6383   78.0646  219.4764 H   0  0  0  0  0  0  0  0  0  0  0  0
  138.1958   76.7783  220.6791 H   0  0  0  0  0  0  0  0  0  0  0  0
  138.8730   78.6060  221.5320 C   0  0  0  0  0  0  0  0  0  0  0  0
  139.2940   78.2920  222.8400 C   0  0  0  0  0  0  0  0  0  0  0  0
  139.6624   77.2812  223.0694 H   0  0  0  0  0  0  0  0  0  0  0  0
  139.2450   79.2610  223.8470 C   0  0  0  0  0  0  0  0  0  0  0  0
  139.5427   79.0010  224.8735 H   0  0  0  0  0  0  0  0  0  0  0  0
  138.8180   80.5610  223.5520 C   0  0  0  0  0  0  0  0  0  0  0  0
  138.7685   81.3171  224.3494 H   0  0  0  0  0  0  0  0  0  0  0  0
  138.4540   80.9000  222.2440 C   0  0  0  0  0  0  0  0  0  0  0  0
  137.9790   82.5500  221.8610 Cl  0  0  0  0  0  0  0  0  0  0  0  0
  138.4800   79.9260  221.2390 C   0  0  0  0  0  0  0  0  0  0  0  0
  138.1911   80.1940  220.2120 H   0  0  0  0  0  0  0  0  0  0  0  0
  142.0260   80.2350  221.2650 C   0  0  0  0  0  0  0  0  0  0  0  0
  142.4080   79.1880  222.0530 N   0  0  0  0  0  0  0  0  0  0  0  0
  142.5720   79.3190  223.3980 C   0  0  0  0  0  0  0  0  0  0  0  0
  142.8867   78.4539  224.0001 H   0  0  0  0  0  0  0  0  0  0  0  0
  142.3410   80.5510  224.0140 C   0  0  0  0  0  0  0  0  0  0  0  0
  142.4664   80.6620  225.1012 H   0  0  0  0  0  0  0  0  0  0  0  0
  141.9490   81.6400  223.2330 C   0  0  0  0  0  0  0  0  0  0  0  0
  141.7733   82.6192  223.7025 H   0  0  0  0  0  0  0  0  0  0  0  0
  141.7800   81.4850  221.8540 C   0  0  0  0  0  0  0  0  0  0  0  0
  141.4569   82.3355  221.2357 H   0  0  0  0  0  0  0  0  0  0  0  0
  1  2  1  0
  2  3  2  0
  3  4  1  0
  3  5  1  0
  5  6  2  0
  6  7  1  0
  7  8  2  0
  8  9  1  0
  8 10  1  0
 10 11  1  0
 10 12  2  0
 12 13  1  0
 12 14  1  0
 14 15  1  0
 14 16  2  0
 16 17  1  0
 17 18  2  0
 17 19  1  0
 19 20  1  0
 20 21  1  0
 20 22  1  0
 20 23  1  0
 23 24  2  0
 24 25  1  0
 24 26  1  0
 26 27  1  0
 26 28  2  0
 28 29  1  0
 28 30  1  0
 30 31  1  0
 30 32  2  0
 32 33  1  0
  2 34  1  0
 34 35  2  0
 35 36  1  0
 36 37  1  0
 36 38  2  0
 38 39  1  0
 38 40  1  0
 40 41  1  0
 40 42  2  0
 42 43  1  0
 19  5  1  0
 32 23  1  0
 42 34  1  0
 16  7  1  0
M  END
>  <UniqueID>  (9) 
436

>  <SMILES>  (9) 
O=c1c2ccc(Cl)cc2nc(/C=C/c2ccccn2)n1Cc1cccc(Cl)c1

>  <Energy>  (9) 
62.431035696128276

>  <Genealogy>  (9) 
O=c1c2ccc(Cl)cc2nc(/C=C/c2ccccn2)n1Cc1cccc(Cl)c1 (cis-trans isomerization)
O=c1c2ccc(Cl)cc2nc(/C=C/c2ccccn2)n1Cc1cccc(Cl)c1 (3D coordinates assigned)
O=c1c2ccc(Cl)cc2nc(/C=C/c2ccccn2)n1Cc1cccc(Cl)c1 (optimized conformer: 62.431035696128276 kcal/mol)

>  <smiles>  (9) 
O=c1c2ccc(Cl)cc2nc(/C=C/c2ccccn2)n1Cc1cccc(Cl)c1

>  <score_type>  (9) 
oracle

>  <origin>  (9) 
autodockgpu

>  <m_score__min__energy>  (9) 
-8.0099999999999998

>  <m_primary>  (9) 
energy

>  <meeko>  (9) 
{"free_energy": -6.63, "intermolecular_energy": -8.12, "internal_energy": -2.33, "cluster_size": 9, "cluster_id": 4, "rank_in_cluster": 7}

>  <energy>  (9) 
-7.58

>  <cluster_rmsd>  (9) 
0.47

>  <rmsd>  (9) 
271.51

>  <cluster>  (9) 
2

$$$$
PKQSJVMIHVNFFS-CSKARUKUNA-N
     RDKit          3D

 43 46  0  0  0  0  0  0  0  0999 V2000
  142.3472   80.8485  219.1480 H   0  0  0  0  0  0  0  0  0  0  0  0
  141.8710   80.1130  219.8130 C   0  0  0  0  0  0  0  0  0  0  0  0
  141.1600   79.1200  219.2680 C   0  0  0  0  0  0  0  0  0  0  0  0
  140.4528   79.3390  218.4544 H   0  0  0  0  0  0  0  0  0  0  0  0
  141.3150   77.7360  219.7470 C   0  0  0  0  0  0  0  0  0  0  0  0
  142.5510   77.1780  219.6660 N   0  0  0  0  0  0  0  0  0  0  0  0
  142.7860   75.9050  220.0650 C   0  0  0  0  0  0  0  0  0  0  0  0
  144.0730   75.3610  219.9500 C   0  0  0  0  0  0  0  0  0  0  0  0
  144.8961   75.9763  219.5577 H   0  0  0  0  0  0  0  0  0  0  0  0
  144.3120   74.0380  220.3330 C   0  0  0  0  0  0  0  0  0  0  0  0
  145.9200   73.3560  220.1710 Cl  0  0  0  0  0  0  0  0  0  0  0  0
  143.2660   73.2570  220.8400 C   0  0  0  0  0  0  0  0  0  0  0  0
  143.4552   72.2158  221.1402 H   0  0  0  0  0  0  0  0  0  0  0  0
  141.9820   73.7960  220.9660 C   0  0  0  0  0  0  0  0  0  0  0  0
  141.1652   73.1796  221.3697 H   0  0  0  0  0  0  0  0  0  0  0  0
  141.7320   75.1270  220.5770 C   0  0  0  0  0  0  0  0  0  0  0  0
  140.4570   75.7130  220.6720 C   0  0  0  0  0  0  0  0  0  0  0  0
  139.4930   75.0330  221.1270 O   0  0  0  0  0  0  0  0  0  0  0  0
  140.2600   77.0170  220.2700 N   0  0  0  0  0  0  0  0  0  0  0  0
  138.9220   77.6390  220.4130 C   0  0  0  0  0  0  0  0  0  0  0  0
  138.6619   78.1420  219.4699 H   0  0  0  0  0  0  0  0  0  0  0  0
  138.2017   76.8427  220.6520 H   0  0  0  0  0  0  0  0  0  0  0  0
  138.8840   78.6540  221.5340 C   0  0  0  0  0  0  0  0  0  0  0  0
  139.2850   78.3180  222.8430 C   0  0  0  0  0  0  0  0  0  0  0  0
  139.6393   77.3002  223.0635 H   0  0  0  0  0  0  0  0  0  0  0  0
  139.2340   79.2740  223.8620 C   0  0  0  0  0  0  0  0  0  0  0  0
  139.5153   78.9971  224.8887 H   0  0  0  0  0  0  0  0  0  0  0  0
  138.8260   80.5820  223.5790 C   0  0  0  0  0  0  0  0  0  0  0  0
  138.7764   81.3281  224.3857 H   0  0  0  0  0  0  0  0  0  0  0  0
  138.4810   80.9430  222.2720 C   0  0  0  0  0  0  0  0  0  0  0  0
  138.0290   82.6030  221.9060 Cl  0  0  0  0  0  0  0  0  0  0  0  0
  138.5090   79.9820  221.2540 C   0  0  0  0  0  0  0  0  0  0  0  0
  138.2358   80.2668  220.2272 H   0  0  0  0  0  0  0  0  0  0  0  0
  142.0420   80.2610  221.2720 C   0  0  0  0  0  0  0  0  0  0  0  0
  142.4020   79.1950  222.0440 N   0  0  0  0  0  0  0  0  0  0  0  0
  142.5710   79.3030  223.3900 C   0  0  0  0  0  0  0  0  0  0  0  0
  142.8691   78.4231  223.9790 H   0  0  0  0  0  0  0  0  0  0  0  0
  142.3660   80.5310  224.0240 C   0  0  0  0  0  0  0  0  0  0  0  0
  142.4938   80.6237  225.1126 H   0  0  0  0  0  0  0  0  0  0  0  0
  141.9970   81.6390  223.2590 C   0  0  0  0  0  0  0  0  0  0  0  0
  141.8440   82.6152  223.7423 H   0  0  0  0  0  0  0  0  0  0  0  0
  141.8220   81.5070  221.8780 C   0  0  0  0  0  0  0  0  0  0  0  0
  141.5147   82.3722  221.2723 H   0  0  0  0  0  0  0  0  0  0  0  0
  1  2  1  0
  2  3  2  0
  3  4  1  0
  3  5  1  0
  5  6  2  0
  6  7  1  0
  7  8  2  0
  8  9  1  0
  8 10  1  0
 10 11  1  0
 10 12  2  0
 12 13  1  0
 12 14  1  0
 14 15  1  0
 14 16  2  0
 16 17  1  0
 17 18  2  0
 17 19  1  0
 19 20  1  0
 20 21  1  0
 20 22  1  0
 20 23  1  0
 23 24  2  0
 24 25  1  0
 24 26  1  0
 26 27  1  0
 26 28  2  0
 28 29  1  0
 28 30  1  0
 30 31  1  0
 30 32  2  0
 32 33  1  0
  2 34  1  0
 34 35  2  0
 35 36  1  0
 36 37  1  0
 36 38  2  0
 38 39  1  0
 38 40  1  0
 40 41  1  0
 40 42  2  0
 42 43  1  0
 19  5  1  0
 32 23  1  0
 42 34  1  0
 16  7  1  0
M  END
>  <UniqueID>  (10) 
436

>  <SMILES>  (10) 
O=c1c2ccc(Cl)cc2nc(/C=C/c2ccccn2)n1Cc1cccc(Cl)c1

>  <Energy>  (10) 
62.431035696128276

>  <Genealogy>  (10) 
O=c1c2ccc(Cl)cc2nc(/C=C/c2ccccn2)n1Cc1cccc(Cl)c1 (cis-trans isomerization)
O=c1c2ccc(Cl)cc2nc(/C=C/c2ccccn2)n1Cc1cccc(Cl)c1 (3D coordinates assigned)
O=c1c2ccc(Cl)cc2nc(/C=C/c2ccccn2)n1Cc1cccc(Cl)c1 (optimized conformer: 62.431035696128276 kcal/mol)

>  <smiles>  (10) 
O=c1c2ccc(Cl)cc2nc(/C=C/c2ccccn2)n1Cc1cccc(Cl)c1

>  <score_type>  (10) 
oracle

>  <origin>  (10) 
autodockgpu

>  <m_score__min__energy>  (10) 
-8.0099999999999998

>  <m_primary>  (10) 
energy

>  <meeko>  (10) 
{"free_energy": -6.62, "intermolecular_energy": -8.11, "internal_energy": -2.34, "cluster_size": 9, "cluster_id": 4, "rank_in_cluster": 9}

>  <energy>  (10) 
-7.57

>  <cluster_rmsd>  (10) 
0.5

>  <rmsd>  (10) 
271.53

>  <cluster>  (10) 
2

$$$$
PKQSJVMIHVNFFS-CSKARUKUNA-N
     RDKit          3D

 43 46  0  0  0  0  0  0  0  0999 V2000
  141.6279   71.3689  222.2539 H   0  0  0  0  0  0  0  0  0  0  0  0
  140.6880   71.6880  222.7280 C   0  0  0  0  0  0  0  0  0  0  0  0
  139.9320   72.6000  222.1070 C   0  0  0  0  0  0  0  0  0  0  0  0
  138.8563   72.4143  221.9714 H   0  0  0  0  0  0  0  0  0  0  0  0
  140.5250   73.8500  221.6030 C   0  0  0  0  0  0  0  0  0  0  0  0
  140.2890   74.9860  222.3110 N   0  0  0  0  0  0  0  0  0  0  0  0
  140.7780   76.1870  221.9150 C   0  0  0  0  0  0  0  0  0  0  0  0
  140.4970   77.3380  222.6640 C   0  0  0  0  0  0  0  0  0  0  0  0
  139.8994   77.2620  223.5844 H   0  0  0  0  0  0  0  0  0  0  0  0
  140.9750   78.5820  222.2430 C   0  0  0  0  0  0  0  0  0  0  0  0
  140.6060   80.0230  223.1730 Cl  0  0  0  0  0  0  0  0  0  0  0  0
  141.7420   78.6780  221.0740 C   0  0  0  0  0  0  0  0  0  0  0  0
  142.1161   79.6579  220.7425 H   0  0  0  0  0  0  0  0  0  0  0  0
  142.0330   77.5320  220.3280 C   0  0  0  0  0  0  0  0  0  0  0  0
  142.6398   77.6118  219.4140 H   0  0  0  0  0  0  0  0  0  0  0  0
  141.5510   76.2750  220.7440 C   0  0  0  0  0  0  0  0  0  0  0  0
  141.8050   75.0940  220.0230 C   0  0  0  0  0  0  0  0  0  0  0  0
  142.4950   75.1490  218.9650 O   0  0  0  0  0  0  0  0  0  0  0  0
  141.3030   73.8890  220.4640 N   0  0  0  0  0  0  0  0  0  0  0  0
  141.6120   72.6440  219.7210 C   0  0  0  0  0  0  0  0  0  0  0  0
  141.0834   71.8057  220.1982 H   0  0  0  0  0  0  0  0  0  0  0  0
  141.2851   72.7811  218.6797 H   0  0  0  0  0  0  0  0  0  0  0  0
  143.0940   72.3420  219.7080 C   0  0  0  0  0  0  0  0  0  0  0  0
  143.6780   71.5680  218.6850 C   0  0  0  0  0  0  0  0  0  0  0  0
  143.0519   71.1742  217.8708 H   0  0  0  0  0  0  0  0  0  0  0  0
  145.0490   71.2990  218.7010 C   0  0  0  0  0  0  0  0  0  0  0  0
  145.4930   70.6659  217.9186 H   0  0  0  0  0  0  0  0  0  0  0  0
  145.8590   71.8330  219.7100 C   0  0  0  0  0  0  0  0  0  0  0  0
  146.9358   71.6091  219.7260 H   0  0  0  0  0  0  0  0  0  0  0  0
  145.3010   72.6510  220.6980 C   0  0  0  0  0  0  0  0  0  0  0  0
  146.3300   73.3730  221.9290 Cl  0  0  0  0  0  0  0  0  0  0  0  0
  143.9240   72.9030  220.6980 C   0  0  0  0  0  0  0  0  0  0  0  0
  143.4867   73.5443  221.4774 H   0  0  0  0  0  0  0  0  0  0  0  0
  140.3100   71.0930  224.0250 C   0  0  0  0  0  0  0  0  0  0  0  0
  139.3390   70.1370  224.0990 N   0  0  0  0  0  0  0  0  0  0  0  0
  138.9750   69.5690  225.2820 C   0  0  0  0  0  0  0  0  0  0  0  0
  138.1927   68.7960  225.3027 H   0  0  0  0  0  0  0  0  0  0  0  0
  139.5940   69.9670  226.4690 C   0  0  0  0  0  0  0  0  0  0  0  0
  139.2995   69.5169  227.4285 H   0  0  0  0  0  0  0  0  0  0  0  0
  140.5910   70.9430  226.4230 C   0  0  0  0  0  0  0  0  0  0  0  0
  141.0953   71.2585  227.3483 H   0  0  0  0  0  0  0  0  0  0  0  0
  140.9480   71.5190  225.2010 C   0  0  0  0  0  0  0  0  0  0  0  0
  141.7222   72.2994  225.1607 H   0  0  0  0  0  0  0  0  0  0  0  0
  1  2  1  0
  2  3  2  0
  3  4  1  0
  3  5  1  0
  5  6  2  0
  6  7  1  0
  7  8  2  0
  8  9  1  0
  8 10  1  0
 10 11  1  0
 10 12  2  0
 12 13  1  0
 12 14  1  0
 14 15  1  0
 14 16  2  0
 16 17  1  0
 17 18  2  0
 17 19  1  0
 19 20  1  0
 20 21  1  0
 20 22  1  0
 20 23  1  0
 23 24  2  0
 24 25  1  0
 24 26  1  0
 26 27  1  0
 26 28  2  0
 28 29  1  0
 28 30  1  0
 30 31  1  0
 30 32  2  0
 32 33  1  0
  2 34  1  0
 34 35  2  0
 35 36  1  0
 36 37  1  0
 36 38  2  0
 38 39  1  0
 38 40  1  0
 40 41  1  0
 40 42  2  0
 42 43  1  0
 19  5  1  0
 32 23  1  0
 42 34  1  0
 16  7  1  0
M  END
>  <UniqueID>  (11) 
436

>  <SMILES>  (11) 
O=c1c2ccc(Cl)cc2nc(/C=C/c2ccccn2)n1Cc1cccc(Cl)c1

>  <Energy>  (11) 
62.431035696128276

>  <Genealogy>  (11) 
O=c1c2ccc(Cl)cc2nc(/C=C/c2ccccn2)n1Cc1cccc(Cl)c1 (cis-trans isomerization)
O=c1c2ccc(Cl)cc2nc(/C=C/c2ccccn2)n1Cc1cccc(Cl)c1 (3D coordinates assigned)
O=c1c2ccc(Cl)cc2nc(/C=C/c2ccccn2)n1Cc1cccc(Cl)c1 (optimized conformer: 62.431035696128276 kcal/mol)

>  <smiles>  (11) 
O=c1c2ccc(Cl)cc2nc(/C=C/c2ccccn2)n1Cc1cccc(Cl)c1

>  <score_type>  (11) 
oracle

>  <origin>  (11) 
autodockgpu

>  <m_score__min__energy>  (11) 
-8.0099999999999998

>  <m_primary>  (11) 
energy

>  <meeko>  (11) 
{"free_energy": -7.94, "intermolecular_energy": -9.43, "internal_energy": -1.14, "cluster_size": 4, "cluster_id": 1, "rank_in_cluster": 2}

>  <energy>  (11) 
-7.25

>  <cluster_rmsd>  (11) 
0.0

>  <rmsd>  (11) 
271.6

>  <cluster>  (11) 
3

$$$$
PKQSJVMIHVNFFS-CSKARUKUNA-N
     RDKit          3D

 43 46  0  0  0  0  0  0  0  0999 V2000
  143.1711   78.7477  219.4016 H   0  0  0  0  0  0  0  0  0  0  0  0
  142.0940   78.8060  219.6170 C   0  0  0  0  0  0  0  0  0  0  0  0
  141.3060   77.7940  219.2350 C   0  0  0  0  0  0  0  0  0  0  0  0
  140.5194   77.9687  218.4861 H   0  0  0  0  0  0  0  0  0  0  0  0
  141.4820   76.4480  219.8080 C   0  0  0  0  0  0  0  0  0  0  0  0
  142.5730   75.7380  219.4180 N   0  0  0  0  0  0  0  0  0  0  0  0
  142.8090   74.4850  219.8780 C   0  0  0  0  0  0  0  0  0  0  0  0
  143.9370   73.7800  219.4370 C   0  0  0  0  0  0  0  0  0  0  0  0
  144.6418   74.2528  218.7372 H   0  0  0  0  0  0  0  0  0  0  0  0
  144.1670   72.4760  219.8860 C   0  0  0  0  0  0  0  0  0  0  0  0
  145.5710   71.5890  219.3200 Cl  0  0  0  0  0  0  0  0  0  0  0  0
  143.2730   71.8760  220.7830 C   0  0  0  0  0  0  0  0  0  0  0  0
  143.4551   70.8499  221.1349 H   0  0  0  0  0  0  0  0  0  0  0  0
  142.1500   72.5780  221.2320 C   0  0  0  0  0  0  0  0  0  0  0  0
  141.4535   72.1046  221.9396 H   0  0  0  0  0  0  0  0  0  0  0  0
  141.9090   73.8900  220.7800 C   0  0  0  0  0  0  0  0  0  0  0  0
  140.7890   74.6350  221.1920 C   0  0  0  0  0  0  0  0  0  0  0  0
  139.9650   74.1210  222.0010 O   0  0  0  0  0  0  0  0  0  0  0  0
  140.5900   75.9130  220.7150 N   0  0  0  0  0  0  0  0  0  0  0  0
  139.4300   76.7060  221.1870 C   0  0  0  0  0  0  0  0  0  0  0  0
  139.0021   77.2514  220.3329 H   0  0  0  0  0  0  0  0  0  0  0  0
  138.6985   76.0097  221.6229 H   0  0  0  0  0  0  0  0  0  0  0  0
  139.8190   77.7020  222.2560 C   0  0  0  0  0  0  0  0  0  0  0  0
  141.1190   77.7250  222.8010 C   0  0  0  0  0  0  0  0  0  0  0  0
  141.8754   77.0100  222.4449 H   0  0  0  0  0  0  0  0  0  0  0  0
  141.4500   78.6530  223.7920 C   0  0  0  0  0  0  0  0  0  0  0  0
  142.4555   78.6439  224.2379 H   0  0  0  0  0  0  0  0  0  0  0  0
  140.5060   79.5940  224.2190 C   0  0  0  0  0  0  0  0  0  0  0  0
  140.7666   80.3146  225.0082 H   0  0  0  0  0  0  0  0  0  0  0  0
  139.2310   79.6190  223.6430 C   0  0  0  0  0  0  0  0  0  0  0  0
  138.0660   80.8420  224.1350 Cl  0  0  0  0  0  0  0  0  0  0  0  0
  138.8880   78.6760  222.6670 C   0  0  0  0  0  0  0  0  0  0  0  0
  137.8841   78.6957  222.2177 H   0  0  0  0  0  0  0  0  0  0  0  0
  141.5740   79.9970  220.3160 C   0  0  0  0  0  0  0  0  0  0  0  0
  142.2520   80.5400  221.3690 N   0  0  0  0  0  0  0  0  0  0  0  0
  141.7980   81.6410  222.0290 C   0  0  0  0  0  0  0  0  0  0  0  0
  142.3745   82.0550  222.8694 H   0  0  0  0  0  0  0  0  0  0  0  0
  140.6000   82.2450  221.6390 C   0  0  0  0  0  0  0  0  0  0  0  0
  140.2240   83.1305  222.1724 H   0  0  0  0  0  0  0  0  0  0  0  0
  139.8860   81.7120  220.5650 C   0  0  0  0  0  0  0  0  0  0  0  0
  138.9476   82.1846  220.2394 H   0  0  0  0  0  0  0  0  0  0  0  0
  140.3640   80.5770  219.9030 C   0  0  0  0  0  0  0  0  0  0  0  0
  139.7972   80.1425  219.0663 H   0  0  0  0  0  0  0  0  0  0  0  0
  1  2  1  0
  2  3  2  0
  3  4  1  0
  3  5  1  0
  5  6  2  0
  6  7  1  0
  7  8  2  0
  8  9  1  0
  8 10  1  0
 10 11  1  0
 10 12  2  0
 12 13  1  0
 12 14  1  0
 14 15  1  0
 14 16  2  0
 16 17  1  0
 17 18  2  0
 17 19  1  0
 19 20  1  0
 20 21  1  0
 20 22  1  0
 20 23  1  0
 23 24  2  0
 24 25  1  0
 24 26  1  0
 26 27  1  0
 26 28  2  0
 28 29  1  0
 28 30  1  0
 30 31  1  0
 30 32  2  0
 32 33  1  0
  2 34  1  0
 34 35  2  0
 35 36  1  0
 36 37  1  0
 36 38  2  0
 38 39  1  0
 38 40  1  0
 40 41  1  0
 40 42  2  0
 42 43  1  0
 19  5  1  0
 32 23  1  0
 42 34  1  0
 16  7  1  0
M  END
>  <UniqueID>  (12) 
436

>  <SMILES>  (12) 
O=c1c2ccc(Cl)cc2nc(/C=C/c2ccccn2)n1Cc1cccc(Cl)c1

>  <Energy>  (12) 
62.431035696128276

>  <Genealogy>  (12) 
O=c1c2ccc(Cl)cc2nc(/C=C/c2ccccn2)n1Cc1cccc(Cl)c1 (cis-trans isomerization)
O=c1c2ccc(Cl)cc2nc(/C=C/c2ccccn2)n1Cc1cccc(Cl)c1 (3D coordinates assigned)
O=c1c2ccc(Cl)cc2nc(/C=C/c2ccccn2)n1Cc1cccc(Cl)c1 (optimized conformer: 62.431035696128276 kcal/mol)

>  <smiles>  (12) 
O=c1c2ccc(Cl)cc2nc(/C=C/c2ccccn2)n1Cc1cccc(Cl)c1

>  <score_type>  (12) 
oracle

>  <origin>  (12) 
autodockgpu

>  <m_score__min__energy>  (12) 
-8.0099999999999998

>  <m_primary>  (12) 
energy

>  <meeko>  (12) 
{"free_energy": -6.78, "intermolecular_energy": -8.27, "internal_energy": -2.1, "cluster_size": 9, "cluster_id": 4, "rank_in_cluster": 3}

>  <energy>  (12) 
-7.04

>  <cluster_rmsd>  (12) 
0.0

>  <rmsd>  (12) 
272.45

>  <cluster>  (12) 
4

$$$$
PKQSJVMIHVNFFS-CSKARUKUNA-N
     RDKit          3D

 43 46  0  0  0  0  0  0  0  0999 V2000
  141.4792   71.3628  223.2434 H   0  0  0  0  0  0  0  0  0  0  0  0
  140.6810   71.7160  222.5740 C   0  0  0  0  0  0  0  0  0  0  0  0
  139.6540   70.9000  222.3120 C   0  0  0  0  0  0  0  0  0  0  0  0
  139.7763   70.0877  221.5804 H   0  0  0  0  0  0  0  0  0  0  0  0
  138.3610   71.0790  222.9940 C   0  0  0  0  0  0  0  0  0  0  0  0
  137.6570   72.2090  222.7200 N   0  0  0  0  0  0  0  0  0  0  0  0
  136.4670   72.4680  223.3120 C   0  0  0  0  0  0  0  0  0  0  0  0
  135.7810   73.6540  223.0140 C   0  0  0  0  0  0  0  0  0  0  0  0
  136.1986   74.3610  222.2821 H   0  0  0  0  0  0  0  0  0  0  0  0
  134.5670   73.9390  223.6460 C   0  0  0  0  0  0  0  0  0  0  0  0
  133.7200   75.4310  223.2830 Cl  0  0  0  0  0  0  0  0  0  0  0  0
  134.0310   73.0350  224.5730 C   0  0  0  0  0  0  0  0  0  0  0  0
  133.0756   73.2605  225.0694 H   0  0  0  0  0  0  0  0  0  0  0  0
  134.7070   71.8470  224.8690 C   0  0  0  0  0  0  0  0  0  0  0  0
  134.2807   71.1392  225.5951 H   0  0  0  0  0  0  0  0  0  0  0  0
  135.9330   71.5550  224.2390 C   0  0  0  0  0  0  0  0  0  0  0  0
  136.6580   70.3800  224.5090 C   0  0  0  0  0  0  0  0  0  0  0  0
  136.2000   69.5450  225.3410 O   0  0  0  0  0  0  0  0  0  0  0  0
  137.8590   70.1430  223.8760 N   0  0  0  0  0  0  0  0  0  0  0  0
  138.5940   68.8820  224.1350 C   0  0  0  0  0  0  0  0  0  0  0  0
  137.8677   68.0620  224.2350 H   0  0  0  0  0  0  0  0  0  0  0  0
  139.2775   68.7082  223.2908 H   0  0  0  0  0  0  0  0  0  0  0  0
  139.4230   68.9570  225.3990 C   0  0  0  0  0  0  0  0  0  0  0  0
  139.8760   67.7930  226.0500 C   0  0  0  0  0  0  0  0  0  0  0  0
  139.6318   66.8034  225.6364 H   0  0  0  0  0  0  0  0  0  0  0  0
  140.6350   67.8910  227.2200 C   0  0  0  0  0  0  0  0  0  0  0  0
  140.9572   66.9784  227.7428 H   0  0  0  0  0  0  0  0  0  0  0  0
  140.9860   69.1470  227.7280 C   0  0  0  0  0  0  0  0  0  0  0  0
  141.5729   69.2202  228.6555 H   0  0  0  0  0  0  0  0  0  0  0  0
  140.5910   70.3100  227.0570 C   0  0  0  0  0  0  0  0  0  0  0  0
  141.0860   71.8860  227.6610 Cl  0  0  0  0  0  0  0  0  0  0  0  0
  139.8110   70.2160  225.8980 C   0  0  0  0  0  0  0  0  0  0  0  0
  139.4991   71.1313  225.3736 H   0  0  0  0  0  0  0  0  0  0  0  0
  140.7850   73.0720  222.0000 C   0  0  0  0  0  0  0  0  0  0  0  0
  139.8890   74.0440  222.3380 N   0  0  0  0  0  0  0  0  0  0  0  0
  139.9630   75.3040  221.8270 C   0  0  0  0  0  0  0  0  0  0  0  0
  139.2264   76.0636  222.1278 H   0  0  0  0  0  0  0  0  0  0  0  0
  140.9740   75.6320  220.9210 C   0  0  0  0  0  0  0  0  0  0  0  0
  141.0354   76.6460  220.4990 H   0  0  0  0  0  0  0  0  0  0  0  0
  141.9060   74.6580  220.5570 C   0  0  0  0  0  0  0  0  0  0  0  0
  142.7149   74.9055  219.8539 H   0  0  0  0  0  0  0  0  0  0  0  0
  141.8100   73.3680  221.0870 C   0  0  0  0  0  0  0  0  0  0  0  0
  142.5310   72.5916  220.7914 H   0  0  0  0  0  0  0  0  0  0  0  0
  1  2  1  0
  2  3  2  0
  3  4  1  0
  3  5  1  0
  5  6  2  0
  6  7  1  0
  7  8  2  0
  8  9  1  0
  8 10  1  0
 10 11  1  0
 10 12  2  0
 12 13  1  0
 12 14  1  0
 14 15  1  0
 14 16  2  0
 16 17  1  0
 17 18  2  0
 17 19  1  0
 19 20  1  0
 20 21  1  0
 20 22  1  0
 20 23  1  0
 23 24  2  0
 24 25  1  0
 24 26  1  0
 26 27  1  0
 26 28  2  0
 28 29  1  0
 28 30  1  0
 30 31  1  0
 30 32  2  0
 32 33  1  0
  2 34  1  0
 34 35  2  0
 35 36  1  0
 36 37  1  0
 36 38  2  0
 38 39  1  0
 38 40  1  0
 40 41  1  0
 40 42  2  0
 42 43  1  0
 19  5  1  0
 32 23  1  0
 42 34  1  0
 16  7  1  0
M  END
>  <UniqueID>  (13) 
436

>  <SMILES>  (13) 
O=c1c2ccc(Cl)cc2nc(/C=C/c2ccccn2)n1Cc1cccc(Cl)c1

>  <Energy>  (13) 
62.431035696128276

>  <Genealogy>  (13) 
O=c1c2ccc(Cl)cc2nc(/C=C/c2ccccn2)n1Cc1cccc(Cl)c1 (cis-trans isomerization)
O=c1c2ccc(Cl)cc2nc(/C=C/c2ccccn2)n1Cc1cccc(Cl)c1 (3D coordinates assigned)
O=c1c2ccc(Cl)cc2nc(/C=C/c2ccccn2)n1Cc1cccc(Cl)c1 (optimized conformer: 62.431035696128276 kcal/mol)

>  <smiles>  (13) 
O=c1c2ccc(Cl)cc2nc(/C=C/c2ccccn2)n1Cc1cccc(Cl)c1

>  <score_type>  (13) 
oracle

>  <origin>  (13) 
autodockgpu

>  <m_score__min__energy>  (13) 
-8.0099999999999998

>  <m_primary>  (13) 
energy

>  <meeko>  (13) 
{"free_energy": -7.59, "intermolecular_energy": -9.09, "internal_energy": -1.45, "cluster_size": 6, "cluster_id": 2, "rank_in_cluster": 4}

>  <energy>  (13) 
-6.84

>  <cluster_rmsd>  (13) 
1.29

>  <rmsd>  (13) 
272.08

>  <cluster>  (13) 
4

$$$$
PKQSJVMIHVNFFS-CSKARUKUNA-N
     RDKit          3D

 43 46  0  0  0  0  0  0  0  0999 V2000
  141.5204   71.3646  223.2474 H   0  0  0  0  0  0  0  0  0  0  0  0
  140.7200   71.7090  222.5760 C   0  0  0  0  0  0  0  0  0  0  0  0
  139.6990   70.8850  222.3170 C   0  0  0  0  0  0  0  0  0  0  0  0
  139.8309   70.0641  221.5968 H   0  0  0  0  0  0  0  0  0  0  0  0
  138.3990   71.0660  222.9870 C   0  0  0  0  0  0  0  0  0  0  0  0
  137.6990   72.1950  222.7030 N   0  0  0  0  0  0  0  0  0  0  0  0
  136.5030   72.4570  223.2840 C   0  0  0  0  0  0  0  0  0  0  0  0
  135.8210   73.6420  222.9770 C   0  0  0  0  0  0  0  0  0  0  0  0
  136.2458   74.3472  222.2475 H   0  0  0  0  0  0  0  0  0  0  0  0
  134.6010   73.9290  223.5970 C   0  0  0  0  0  0  0  0  0  0  0  0
  133.7580   75.4220  223.2230 Cl  0  0  0  0  0  0  0  0  0  0  0  0
  134.0570   73.0290  224.5210 C   0  0  0  0  0  0  0  0  0  0  0  0
  133.0978   73.2570  225.0088 H   0  0  0  0  0  0  0  0  0  0  0  0
  134.7290   71.8410  224.8260 C   0  0  0  0  0  0  0  0  0  0  0  0
  134.2955   71.1351  225.5497 H   0  0  0  0  0  0  0  0  0  0  0  0
  135.9600   71.5470  224.2080 C   0  0  0  0  0  0  0  0  0  0  0  0
  136.6820   70.3720  224.4880 C   0  0  0  0  0  0  0  0  0  0  0  0
  136.2160   69.5390  225.3170 O   0  0  0  0  0  0  0  0  0  0  0  0
  137.8890   70.1330  223.8660 N   0  0  0  0  0  0  0  0  0  0  0  0
  138.6210   68.8720  224.1360 C   0  0  0  0  0  0  0  0  0  0  0  0
  137.8934   68.0523  224.2294 H   0  0  0  0  0  0  0  0  0  0  0  0
  139.3140   68.6965  223.3000 H   0  0  0  0  0  0  0  0  0  0  0  0
  139.4350   68.9490  225.4080 C   0  0  0  0  0  0  0  0  0  0  0  0
  139.8850   67.7850  226.0630 C   0  0  0  0  0  0  0  0  0  0  0  0
  139.6492   66.7951  225.6452 H   0  0  0  0  0  0  0  0  0  0  0  0
  140.6300   67.8840  227.2420 C   0  0  0  0  0  0  0  0  0  0  0  0
  140.9490   66.9719  227.7677 H   0  0  0  0  0  0  0  0  0  0  0  0
  140.9710   69.1410  227.7550 C   0  0  0  0  0  0  0  0  0  0  0  0
  141.5485   69.2153  228.6882 H   0  0  0  0  0  0  0  0  0  0  0  0
  140.5780   70.3030  227.0820 C   0  0  0  0  0  0  0  0  0  0  0  0
  141.0600   71.8810  227.6940 Cl  0  0  0  0  0  0  0  0  0  0  0  0
  139.8130   70.2080  225.9140 C   0  0  0  0  0  0  0  0  0  0  0  0
  139.5047   71.1231  225.3873 H   0  0  0  0  0  0  0  0  0  0  0  0
  140.8140   73.0640  221.9950 C   0  0  0  0  0  0  0  0  0  0  0  0
  139.9080   74.0290  222.3250 N   0  0  0  0  0  0  0  0  0  0  0  0
  139.9740   75.2870  221.8090 C   0  0  0  0  0  0  0  0  0  0  0  0
  139.2302   76.0418  222.1039 H   0  0  0  0  0  0  0  0  0  0  0  0
  140.9860   75.6200  220.9050 C   0  0  0  0  0  0  0  0  0  0  0  0
  141.0410   76.6326  220.4789 H   0  0  0  0  0  0  0  0  0  0  0  0
  141.9270   74.6510  220.5490 C   0  0  0  0  0  0  0  0  0  0  0  0
  142.7361   74.9014  219.8471 H   0  0  0  0  0  0  0  0  0  0  0  0
  141.8400   73.3630  221.0850 C   0  0  0  0  0  0  0  0  0  0  0  0
  142.5686   72.5911  220.7964 H   0  0  0  0  0  0  0  0  0  0  0  0
  1  2  1  0
  2  3  2  0
  3  4  1  0
  3  5  1  0
  5  6  2  0
  6  7  1  0
  7  8  2  0
  8  9  1  0
  8 10  1  0
 10 11  1  0
 10 12  2  0
 12 13  1  0
 12 14  1  0
 14 15  1  0
 14 16  2  0
 16 17  1  0
 17 18  2  0
 17 19  1  0
 19 20  1  0
 20 21  1  0
 20 22  1  0
 20 23  1  0
 23 24  2  0
 24 25  1  0
 24 26  1  0
 26 27  1  0
 26 28  2  0
 28 29  1  0
 28 30  1  0
 30 31  1  0
 30 32  2  0
 32 33  1  0
  2 34  1  0
 34 35  2  0
 35 36  1  0
 36 37  1  0
 36 38  2  0
 38 39  1  0
 38 40  1  0
 40 41  1  0
 40 42  2  0
 42 43  1  0
 19  5  1  0
 32 23  1  0
 42 34  1  0
 16  7  1  0
M  END
>  <UniqueID>  (14) 
436

>  <SMILES>  (14) 
O=c1c2ccc(Cl)cc2nc(/C=C/c2ccccn2)n1Cc1cccc(Cl)c1

>  <Energy>  (14) 
62.431035696128276

>  <Genealogy>  (14) 
O=c1c2ccc(Cl)cc2nc(/C=C/c2ccccn2)n1Cc1cccc(Cl)c1 (cis-trans isomerization)
O=c1c2ccc(Cl)cc2nc(/C=C/c2ccccn2)n1Cc1cccc(Cl)c1 (3D coordinates assigned)
O=c1c2ccc(Cl)cc2nc(/C=C/c2ccccn2)n1Cc1cccc(Cl)c1 (optimized conformer: 62.431035696128276 kcal/mol)

>  <smiles>  (14) 
O=c1c2ccc(Cl)cc2nc(/C=C/c2ccccn2)n1Cc1cccc(Cl)c1

>  <score_type>  (14) 
oracle

>  <origin>  (14) 
autodockgpu

>  <m_score__min__energy>  (14) 
-8.0099999999999998

>  <m_primary>  (14) 
energy

>  <meeko>  (14) 
{"free_energy": -7.58, "intermolecular_energy": -9.08, "internal_energy": -1.45, "cluster_size": 6, "cluster_id": 2, "rank_in_cluster": 5}

>  <energy>  (14) 
-6.78

>  <cluster_rmsd>  (14) 
1.19

>  <rmsd>  (14) 
272.12

>  <cluster>  (14) 
4

$$$$
PKQSJVMIHVNFFS-CSKARUKUNA-N
     RDKit          3D

 43 46  0  0  0  0  0  0  0  0999 V2000
  141.8940   80.1548  218.9687 H   0  0  0  0  0  0  0  0  0  0  0  0
  141.4480   79.7010  219.8660 C   0  0  0  0  0  0  0  0  0  0  0  0
  140.5890   78.6870  219.7140 C   0  0  0  0  0  0  0  0  0  0  0  0
  139.6056   78.8699  219.2564 H   0  0  0  0  0  0  0  0  0  0  0  0
  140.9480   77.3270  220.1540 C   0  0  0  0  0  0  0  0  0  0  0  0
  142.1930   76.8760  219.8490 N   0  0  0  0  0  0  0  0  0  0  0  0
  142.6050   75.6330  220.1960 C   0  0  0  0  0  0  0  0  0  0  0  0
  143.8920   75.2010  219.8470 C   0  0  0  0  0  0  0  0  0  0  0  0
  144.5736   75.8795  219.3132 H   0  0  0  0  0  0  0  0  0  0  0  0
  144.3100   73.9080  220.1770 C   0  0  0  0  0  0  0  0  0  0  0  0
  145.9150   73.3640  219.7240 Cl  0  0  0  0  0  0  0  0  0  0  0  0
  143.4450   73.0470  220.8640 C   0  0  0  0  0  0  0  0  0  0  0  0
  143.7755   72.0303  221.1229 H   0  0  0  0  0  0  0  0  0  0  0  0
  142.1630   73.4750  221.2220 C   0  0  0  0  0  0  0  0  0  0  0  0
  141.4889   72.7958  221.7645 H   0  0  0  0  0  0  0  0  0  0  0  0
  141.7330   74.7750  220.8890 C   0  0  0  0  0  0  0  0  0  0  0  0
  140.4500   75.2510  221.2150 C   0  0  0  0  0  0  0  0  0  0  0  0
  139.6470   74.4970  221.8360 O   0  0  0  0  0  0  0  0  0  0  0  0
  140.0710   76.5280  220.8590 N   0  0  0  0  0  0  0  0  0  0  0  0
  138.7320   77.0350  221.2440 C   0  0  0  0  0  0  0  0  0  0  0  0
  138.2143   77.3914  220.3412 H   0  0  0  0  0  0  0  0  0  0  0  0
  138.1808   76.2106  221.7199 H   0  0  0  0  0  0  0  0  0  0  0  0
  138.8200   78.1720  222.2370 C   0  0  0  0  0  0  0  0  0  0  0  0
  139.9240   78.3080  223.1030 C   0  0  0  0  0  0  0  0  0  0  0  0
  140.7472   77.5796  223.0604 H   0  0  0  0  0  0  0  0  0  0  0  0
  139.9760   79.3660  224.0160 C   0  0  0  0  0  0  0  0  0  0  0  0
  140.8232   79.4476  224.7129 H   0  0  0  0  0  0  0  0  0  0  0  0
  138.9540   80.3210  224.0460 C   0  0  0  0  0  0  0  0  0  0  0  0
  138.9934   81.1451  224.7735 H   0  0  0  0  0  0  0  0  0  0  0  0
  137.8810   80.2290  223.1510 C   0  0  0  0  0  0  0  0  0  0  0  0
  136.6290   81.4640  223.1480 Cl  0  0  0  0  0  0  0  0  0  0  0  0
  137.8140   79.1580  222.2520 C   0  0  0  0  0  0  0  0  0  0  0  0
  136.9689   79.0858  221.5516 H   0  0  0  0  0  0  0  0  0  0  0  0
  141.8210   80.2350  221.1910 C   0  0  0  0  0  0  0  0  0  0  0  0
  142.5910   79.5030  222.0470 N   0  0  0  0  0  0  0  0  0  0  0  0
  142.9530   79.9730  223.2730 C   0  0  0  0  0  0  0  0  0  0  0  0
  143.5805   79.3575  223.9343 H   0  0  0  0  0  0  0  0  0  0  0  0
  142.5280   81.2360  223.6910 C   0  0  0  0  0  0  0  0  0  0  0  0
  142.8114   81.6187  224.6826 H   0  0  0  0  0  0  0  0  0  0  0  0
  141.7390   82.0070  222.8350 C   0  0  0  0  0  0  0  0  0  0  0  0
  141.4064   83.0083  223.1460 H   0  0  0  0  0  0  0  0  0  0  0  0
  141.3720   81.5060  221.5830 C   0  0  0  0  0  0  0  0  0  0  0  0
  140.7372   82.1021  220.9109 H   0  0  0  0  0  0  0  0  0  0  0  0
  1  2  1  0
  2  3  2  0
  3  4  1  0
  3  5  1  0
  5  6  2  0
  6  7  1  0
  7  8  2  0
  8  9  1  0
  8 10  1  0
 10 11  1  0
 10 12  2  0
 12 13  1  0
 12 14  1  0
 14 15  1  0
 14 16  2  0
 16 17  1  0
 17 18  2  0
 17 19  1  0
 19 20  1  0
 20 21  1  0
 20 22  1  0
 20 23  1  0
 23 24  2  0
 24 25  1  0
 24 26  1  0
 26 27  1  0
 26 28  2  0
 28 29  1  0
 28 30  1  0
 30 31  1  0
 30 32  2  0
 32 33  1  0
  2 34  1  0
 34 35  2  0
 35 36  1  0
 36 37  1  0
 36 38  2  0
 38 39  1  0
 38 40  1  0
 40 41  1  0
 40 42  2  0
 42 43  1  0
 19  5  1  0
 32 23  1  0
 42 34  1  0
 16  7  1  0
M  END
>  <UniqueID>  (15) 
436

>  <SMILES>  (15) 
O=c1c2ccc(Cl)cc2nc(/C=C/c2ccccn2)n1Cc1cccc(Cl)c1

>  <Energy>  (15) 
62.431035696128276

>  <Genealogy>  (15) 
O=c1c2ccc(Cl)cc2nc(/C=C/c2ccccn2)n1Cc1cccc(Cl)c1 (cis-trans isomerization)
O=c1c2ccc(Cl)cc2nc(/C=C/c2ccccn2)n1Cc1cccc(Cl)c1 (3D coordinates assigned)
O=c1c2ccc(Cl)cc2nc(/C=C/c2ccccn2)n1Cc1cccc(Cl)c1 (optimized conformer: 62.431035696128276 kcal/mol)

>  <smiles>  (15) 
O=c1c2ccc(Cl)cc2nc(/C=C/c2ccccn2)n1Cc1cccc(Cl)c1

>  <score_type>  (15) 
oracle

>  <origin>  (15) 
autodockgpu

>  <m_score__min__energy>  (15) 
-8.0099999999999998

>  <m_primary>  (15) 
energy

>  <meeko>  (15) 
{"free_energy": -7.04, "intermolecular_energy": -8.53, "internal_energy": -1.9, "cluster_size": 9, "cluster_id": 4, "rank_in_cluster": 1}

>  <energy>  (15) 
-6.72

>  <cluster_rmsd>  (15) 
0.86

>  <rmsd>  (15) 
272.4

>  <cluster>  (15) 
4

$$$$
PKQSJVMIHVNFFS-CSKARUKUNA-N
     RDKit          3D

 43 46  0  0  0  0  0  0  0  0999 V2000
  142.3605   80.7556  219.0263 H   0  0  0  0  0  0  0  0  0  0  0  0
  141.8150   80.1500  219.7650 C   0  0  0  0  0  0  0  0  0  0  0  0
  141.0200   79.1670  219.3290 C   0  0  0  0  0  0  0  0  0  0  0  0
  140.2325   79.3893  218.5938 H   0  0  0  0  0  0  0  0  0  0  0  0
  141.1880   77.7900  219.8230 C   0  0  0  0  0  0  0  0  0  0  0  0
  142.4140   77.2190  219.6870 N   0  0  0  0  0  0  0  0  0  0  0  0
  142.6590   75.9510  220.0960 C   0  0  0  0  0  0  0  0  0  0  0  0
  143.9330   75.3940  219.9220 C   0  0  0  0  0  0  0  0  0  0  0  0
  144.7390   75.9950  219.4757 H   0  0  0  0  0  0  0  0  0  0  0  0
  144.1810   74.0750  220.3150 C   0  0  0  0  0  0  0  0  0  0  0  0
  145.7720   73.3750  220.0800 Cl  0  0  0  0  0  0  0  0  0  0  0  0
  143.1560   73.3120  220.8900 C   0  0  0  0  0  0  0  0  0  0  0  0
  143.3520   72.2745  221.1984 H   0  0  0  0  0  0  0  0  0  0  0  0
  141.8850   73.8650  221.0730 C   0  0  0  0  0  0  0  0  0  0  0  0
  141.0849   73.2632  221.5287 H   0  0  0  0  0  0  0  0  0  0  0  0
  141.6270   75.1910  220.6750 C   0  0  0  0  0  0  0  0  0  0  0  0
  140.3640   75.7910  220.8270 C   0  0  0  0  0  0  0  0  0  0  0  0
  139.4190   75.1280  221.3430 O   0  0  0  0  0  0  0  0  0  0  0  0
  140.1560   77.0890  220.4130 N   0  0  0  0  0  0  0  0  0  0  0  0
  138.8330   77.7260  220.6160 C   0  0  0  0  0  0  0  0  0  0  0  0
  138.5384   78.2357  219.6868 H   0  0  0  0  0  0  0  0  0  0  0  0
  138.1146   76.9371  220.8835 H   0  0  0  0  0  0  0  0  0  0  0  0
  138.8550   78.7370  221.7410 C   0  0  0  0  0  0  0  0  0  0  0  0
  139.4410   78.4360  222.9870 C   0  0  0  0  0  0  0  0  0  0  0  0
  139.8990   77.4498  223.1536 H   0  0  0  0  0  0  0  0  0  0  0  0
  139.4420   79.3870  224.0120 C   0  0  0  0  0  0  0  0  0  0  0  0
  139.8702   79.1351  224.9934 H   0  0  0  0  0  0  0  0  0  0  0  0
  138.9000   80.6580  223.7930 C   0  0  0  0  0  0  0  0  0  0  0  0
  138.8925   81.3993  224.6057 H   0  0  0  0  0  0  0  0  0  0  0  0
  138.3670   80.9880  222.5410 C   0  0  0  0  0  0  0  0  0  0  0  0
  137.7440   82.6060  222.2480 Cl  0  0  0  0  0  0  0  0  0  0  0  0
  138.3440   80.0310  221.5200 C   0  0  0  0  0  0  0  0  0  0  0  0
  137.9236   80.2913  220.5374 H   0  0  0  0  0  0  0  0  0  0  0  0
  141.9890   80.4540  221.1990 C   0  0  0  0  0  0  0  0  0  0  0  0
  141.6540   81.6790  221.6990 N   0  0  0  0  0  0  0  0  0  0  0  0
  141.7990   81.9850  223.0180 C   0  0  0  0  0  0  0  0  0  0  0  0
  141.5115   82.9807  223.3866 H   0  0  0  0  0  0  0  0  0  0  0  0
  142.3130   81.0340  223.9030 C   0  0  0  0  0  0  0  0  0  0  0  0
  142.4397   81.2768  224.9684 H   0  0  0  0  0  0  0  0  0  0  0  0
  142.6640   79.7720  223.4200 C   0  0  0  0  0  0  0  0  0  0  0  0
  143.0584   79.0096  224.1079 H   0  0  0  0  0  0  0  0  0  0  0  0
  142.5140   79.4780  222.0620 C   0  0  0  0  0  0  0  0  0  0  0  0
  142.8045   78.4911  221.6725 H   0  0  0  0  0  0  0  0  0  0  0  0
  1  2  1  0
  2  3  2  0
  3  4  1  0
  3  5  1  0
  5  6  2  0
  6  7  1  0
  7  8  2  0
  8  9  1  0
  8 10  1  0
 10 11  1  0
 10 12  2  0
 12 13  1  0
 12 14  1  0
 14 15  1  0
 14 16  2  0
 16 17  1  0
 17 18  2  0
 17 19  1  0
 19 20  1  0
 20 21  1  0
 20 22  1  0
 20 23  1  0
 23 24  2  0
 24 25  1  0
 24 26  1  0
 26 27  1  0
 26 28  2  0
 28 29  1  0
 28 30  1  0
 30 31  1  0
 30 32  2  0
 32 33  1  0
  2 34  1  0
 34 35  2  0
 35 36  1  0
 36 37  1  0
 36 38  2  0
 38 39  1  0
 38 40  1  0
 40 41  1  0
 40 42  2  0
 42 43  1  0
 19  5  1  0
 32 23  1  0
 42 34  1  0
 16  7  1  0
M  END
>  <UniqueID>  (16) 
436

>  <SMILES>  (16) 
O=c1c2ccc(Cl)cc2nc(/C=C/c2ccccn2)n1Cc1cccc(Cl)c1

>  <Energy>  (16) 
62.431035696128276

>  <Genealogy>  (16) 
O=c1c2ccc(Cl)cc2nc(/C=C/c2ccccn2)n1Cc1cccc(Cl)c1 (cis-trans isomerization)
O=c1c2ccc(Cl)cc2nc(/C=C/c2ccccn2)n1Cc1cccc(Cl)c1 (3D coordinates assigned)
O=c1c2ccc(Cl)cc2nc(/C=C/c2ccccn2)n1Cc1cccc(Cl)c1 (optimized conformer: 62.431035696128276 kcal/mol)

>  <smiles>  (16) 
O=c1c2ccc(Cl)cc2nc(/C=C/c2ccccn2)n1Cc1cccc(Cl)c1

>  <score_type>  (16) 
oracle

>  <origin>  (16) 
autodockgpu

>  <m_score__min__energy>  (16) 
-8.0099999999999998

>  <m_primary>  (16) 
energy

>  <meeko>  (16) 
{"free_energy": -6.65, "intermolecular_energy": -8.14, "internal_energy": -2.26, "cluster_size": 9, "cluster_id": 4, "rank_in_cluster": 5}

>  <energy>  (16) 
-6.65

>  <cluster_rmsd>  (16) 
0.85

>  <rmsd>  (16) 
272.42

>  <cluster>  (16) 
4

$$$$
PKQSJVMIHVNFFS-CSKARUKUNA-N
     RDKit          3D

 43 46  0  0  0  0  0  0  0  0999 V2000
  142.9670   78.7297  219.2591 H   0  0  0  0  0  0  0  0  0  0  0  0
  141.9070   78.7630  219.5510 C   0  0  0  0  0  0  0  0  0  0  0  0
  141.1200   77.7300  219.2330 C   0  0  0  0  0  0  0  0  0  0  0  0
  140.2810   77.8781  218.5371 H   0  0  0  0  0  0  0  0  0  0  0  0
  141.3660   76.3950  219.8060 C   0  0  0  0  0  0  0  0  0  0  0  0
  142.4550   75.7130  219.3640 N   0  0  0  0  0  0  0  0  0  0  0  0
  142.7520   74.4720  219.8200 C   0  0  0  0  0  0  0  0  0  0  0  0
  143.8750   73.7950  219.3250 C   0  0  0  0  0  0  0  0  0  0  0  0
  144.5271   74.2807  218.5842 H   0  0  0  0  0  0  0  0  0  0  0  0
  144.1670   72.5030  219.7720 C   0  0  0  0  0  0  0  0  0  0  0  0
  145.5640   71.6520  219.1380 Cl  0  0  0  0  0  0  0  0  0  0  0  0
  143.3400   71.8860  220.7200 C   0  0  0  0  0  0  0  0  0  0  0  0
  143.5705   70.8688  221.0695 H   0  0  0  0  0  0  0  0  0  0  0  0
  142.2230   72.5590  221.2230 C   0  0  0  0  0  0  0  0  0  0  0  0
  141.5792   72.0719  221.9702 H   0  0  0  0  0  0  0  0  0  0  0  0
  141.9200   73.8600  220.7750 C   0  0  0  0  0  0  0  0  0  0  0  0
  140.8020   74.5760  221.2400 C   0  0  0  0  0  0  0  0  0  0  0  0
  140.0370   74.0470  222.0970 O   0  0  0  0  0  0  0  0  0  0  0  0
  140.5400   75.8430  220.7640 N   0  0  0  0  0  0  0  0  0  0  0  0
  139.3840   76.6060  221.2920 C   0  0  0  0  0  0  0  0  0  0  0  0
  138.8890   77.1232  220.4568 H   0  0  0  0  0  0  0  0  0  0  0  0
  138.7027   75.8938  221.7804 H   0  0  0  0  0  0  0  0  0  0  0  0
  139.8020   77.6320  222.3220 C   0  0  0  0  0  0  0  0  0  0  0  0
  141.1190   77.6760  222.8220 C   0  0  0  0  0  0  0  0  0  0  0  0
  141.8676   76.9568  222.4583 H   0  0  0  0  0  0  0  0  0  0  0  0
  141.4770   78.6300  223.7780 C   0  0  0  0  0  0  0  0  0  0  0  0
  142.4969   78.6375  224.1900 H   0  0  0  0  0  0  0  0  0  0  0  0
  140.5420   79.5760  224.2130 C   0  0  0  0  0  0  0  0  0  0  0  0
  140.8244   80.3179  224.9745 H   0  0  0  0  0  0  0  0  0  0  0  0
  139.2480   79.5790  223.6800 C   0  0  0  0  0  0  0  0  0  0  0  0
  138.0920   80.8080  224.1810 Cl  0  0  0  0  0  0  0  0  0  0  0  0
  138.8790   78.6100  222.7400 C   0  0  0  0  0  0  0  0  0  0  0  0
  137.8604   78.6123  222.3246 H   0  0  0  0  0  0  0  0  0  0  0  0
  141.4080   79.9470  220.2790 C   0  0  0  0  0  0  0  0  0  0  0  0
  140.1830   80.4760  219.9950 N   0  0  0  0  0  0  0  0  0  0  0  0
  139.6960   81.5640  220.6530 C   0  0  0  0  0  0  0  0  0  0  0  0
  138.7002   81.9582  220.4021 H   0  0  0  0  0  0  0  0  0  0  0  0
  140.4610   82.1800  221.6470 C   0  0  0  0  0  0  0  0  0  0  0  0
  140.0769   83.0639  222.1773 H   0  0  0  0  0  0  0  0  0  0  0  0
  141.7190   81.6600  221.9590 C   0  0  0  0  0  0  0  0  0  0  0  0
  142.3271   82.1266  222.7479 H   0  0  0  0  0  0  0  0  0  0  0  0
  142.2050   80.5460  221.2680 C   0  0  0  0  0  0  0  0  0  0  0  0
  143.2024   80.1425  221.4969 H   0  0  0  0  0  0  0  0  0  0  0  0
  1  2  1  0
  2  3  2  0
  3  4  1  0
  3  5  1  0
  5  6  2  0
  6  7  1  0
  7  8  2  0
  8  9  1  0
  8 10  1  0
 10 11  1  0
 10 12  2  0
 12 13  1  0
 12 14  1  0
 14 15  1  0
 14 16  2  0
 16 17  1  0
 17 18  2  0
 17 19  1  0
 19 20  1  0
 20 21  1  0
 20 22  1  0
 20 23  1  0
 23 24  2  0
 24 25  1  0
 24 26  1  0
 26 27  1  0
 26 28  2  0
 28 29  1  0
 28 30  1  0
 30 31  1  0
 30 32  2  0
 32 33  1  0
  2 34  1  0
 34 35  2  0
 35 36  1  0
 36 37  1  0
 36 38  2  0
 38 39  1  0
 38 40  1  0
 40 41  1  0
 40 42  2  0
 42 43  1  0
 19  5  1  0
 32 23  1  0
 42 34  1  0
 16  7  1  0
M  END
>  <UniqueID>  (17) 
436

>  <SMILES>  (17) 
O=c1c2ccc(Cl)cc2nc(/C=C/c2ccccn2)n1Cc1cccc(Cl)c1

>  <Energy>  (17) 
62.431035696128276

>  <Genealogy>  (17) 
O=c1c2ccc(Cl)cc2nc(/C=C/c2ccccn2)n1Cc1cccc(Cl)c1 (cis-trans isomerization)
O=c1c2ccc(Cl)cc2nc(/C=C/c2ccccn2)n1Cc1cccc(Cl)c1 (3D coordinates assigned)
O=c1c2ccc(Cl)cc2nc(/C=C/c2ccccn2)n1Cc1cccc(Cl)c1 (optimized conformer: 62.431035696128276 kcal/mol)

>  <smiles>  (17) 
O=c1c2ccc(Cl)cc2nc(/C=C/c2ccccn2)n1Cc1cccc(Cl)c1

>  <score_type>  (17) 
oracle

>  <origin>  (17) 
autodockgpu

>  <m_score__min__energy>  (17) 
-8.0099999999999998

>  <m_primary>  (17) 
energy

>  <meeko>  (17) 
{"free_energy": -6.84, "intermolecular_energy": -8.33, "internal_energy": -2.08, "cluster_size": 9, "cluster_id": 4, "rank_in_cluster": 2}

>  <energy>  (17) 
-6.64

>  <cluster_rmsd>  (17) 
0.81

>  <rmsd>  (17) 
272.36

>  <cluster>  (17) 
4

$$$$
PKQSJVMIHVNFFS-CSKARUKUNA-N
     RDKit          3D

 43 46  0  0  0  0  0  0  0  0999 V2000
  141.4123   72.4831  222.4121 H   0  0  0  0  0  0  0  0  0  0  0  0
  140.3410   72.3360  222.6140 C   0  0  0  0  0  0  0  0  0  0  0  0
  139.4490   72.9420  221.8230 C   0  0  0  0  0  0  0  0  0  0  0  0
  138.9466   72.3691  221.0296 H   0  0  0  0  0  0  0  0  0  0  0  0
  139.1330   74.3690  222.0040 C   0  0  0  0  0  0  0  0  0  0  0  0
  140.1720   75.2210  222.2070 N   0  0  0  0  0  0  0  0  0  0  0  0
  139.9770   76.5480  222.4010 C   0  0  0  0  0  0  0  0  0  0  0  0
  141.0750   77.3910  222.6250 C   0  0  0  0  0  0  0  0  0  0  0  0
  142.0947   76.9784  222.6197 H   0  0  0  0  0  0  0  0  0  0  0  0
  140.8750   78.7550  222.8550 C   0  0  0  0  0  0  0  0  0  0  0  0
  142.2490   79.8030  223.1520 Cl  0  0  0  0  0  0  0  0  0  0  0  0
  139.5770   79.2820  222.8560 C   0  0  0  0  0  0  0  0  0  0  0  0
  139.4213   80.3555  223.0384 H   0  0  0  0  0  0  0  0  0  0  0  0
  138.4790   78.4480  222.6260 C   0  0  0  0  0  0  0  0  0  0  0  0
  137.4623   78.8678  222.6238 H   0  0  0  0  0  0  0  0  0  0  0  0
  138.6710   77.0710  222.3970 C   0  0  0  0  0  0  0  0  0  0  0  0
  137.6010   76.1880  222.1710 C   0  0  0  0  0  0  0  0  0  0  0  0
  136.4180   76.6340  222.1650 O   0  0  0  0  0  0  0  0  0  0  0  0
  137.8390   74.8460  221.9620 N   0  0  0  0  0  0  0  0  0  0  0  0
  136.7070   73.9300  221.6840 C   0  0  0  0  0  0  0  0  0  0  0  0
  135.9929   74.4400  221.0207 H   0  0  0  0  0  0  0  0  0  0  0  0
  137.1134   73.0233  221.2120 H   0  0  0  0  0  0  0  0  0  0  0  0
  135.9870   73.5140  222.9480 C   0  0  0  0  0  0  0  0  0  0  0  0
  135.8840   72.1600  223.3230 C   0  0  0  0  0  0  0  0  0  0  0  0
  136.3373   71.3808  222.6926 H   0  0  0  0  0  0  0  0  0  0  0  0
  135.2080   71.8030  224.4930 C   0  0  0  0  0  0  0  0  0  0  0  0
  135.1007   70.7419  224.7624 H   0  0  0  0  0  0  0  0  0  0  0  0
  134.6670   72.7920  225.3230 C   0  0  0  0  0  0  0  0  0  0  0  0
  134.1261   72.5068  226.2374 H   0  0  0  0  0  0  0  0  0  0  0  0
  134.8140   74.1440  224.9900 C   0  0  0  0  0  0  0  0  0  0  0  0
  134.1900   75.3880  226.0660 Cl  0  0  0  0  0  0  0  0  0  0  0  0
  135.4700   74.5030  223.8080 C   0  0  0  0  0  0  0  0  0  0  0  0
  135.5831   75.5658  223.5478 H   0  0  0  0  0  0  0  0  0  0  0  0
  139.9440   71.4770  223.7480 C   0  0  0  0  0  0  0  0  0  0  0  0
  138.8670   70.6450  223.6500 N   0  0  0  0  0  0  0  0  0  0  0  0
  138.4810   69.8400  224.6770 C   0  0  0  0  0  0  0  0  0  0  0  0
  137.6116   69.1765  224.5588 H   0  0  0  0  0  0  0  0  0  0  0  0
  139.1890   69.8560  225.8820 C   0  0  0  0  0  0  0  0  0  0  0  0
  138.8786   69.2132  226.7189 H   0  0  0  0  0  0  0  0  0  0  0  0
  140.2950   70.6980  226.0100 C   0  0  0  0  0  0  0  0  0  0  0  0
  140.8691   70.7131  226.9482 H   0  0  0  0  0  0  0  0  0  0  0  0
  140.6730   71.5220  224.9460 C   0  0  0  0  0  0  0  0  0  0  0  0
  141.5339   72.1993  225.0470 H   0  0  0  0  0  0  0  0  0  0  0  0
  1  2  1  0
  2  3  2  0
  3  4  1  0
  3  5  1  0
  5  6  2  0
  6  7  1  0
  7  8  2  0
  8  9  1  0
  8 10  1  0
 10 11  1  0
 10 12  2  0
 12 13  1  0
 12 14  1  0
 14 15  1  0
 14 16  2  0
 16 17  1  0
 17 18  2  0
 17 19  1  0
 19 20  1  0
 20 21  1  0
 20 22  1  0
 20 23  1  0
 23 24  2  0
 24 25  1  0
 24 26  1  0
 26 27  1  0
 26 28  2  0
 28 29  1  0
 28 30  1  0
 30 31  1  0
 30 32  2  0
 32 33  1  0
  2 34  1  0
 34 35  2  0
 35 36  1  0
 36 37  1  0
 36 38  2  0
 38 39  1  0
 38 40  1  0
 40 41  1  0
 40 42  2  0
 42 43  1  0
 19  5  1  0
 32 23  1  0
 42 34  1  0
 16  7  1  0
M  END
>  <UniqueID>  (18) 
436

>  <SMILES>  (18) 
O=c1c2ccc(Cl)cc2nc(/C=C/c2ccccn2)n1Cc1cccc(Cl)c1

>  <Energy>  (18) 
62.431035696128276

>  <Genealogy>  (18) 
O=c1c2ccc(Cl)cc2nc(/C=C/c2ccccn2)n1Cc1cccc(Cl)c1 (cis-trans isomerization)
O=c1c2ccc(Cl)cc2nc(/C=C/c2ccccn2)n1Cc1cccc(Cl)c1 (3D coordinates assigned)
O=c1c2ccc(Cl)cc2nc(/C=C/c2ccccn2)n1Cc1cccc(Cl)c1 (optimized conformer: 62.431035696128276 kcal/mol)

>  <smiles>  (18) 
O=c1c2ccc(Cl)cc2nc(/C=C/c2ccccn2)n1Cc1cccc(Cl)c1

>  <score_type>  (18) 
oracle

>  <origin>  (18) 
autodockgpu

>  <m_score__min__energy>  (18) 
-8.0099999999999998

>  <m_primary>  (18) 
energy

>  <meeko>  (18) 
{"free_energy": -7.25, "intermolecular_energy": -8.74, "internal_energy": -1.53, "cluster_size": 1, "cluster_id": 3, "rank_in_cluster": 1}

>  <energy>  (18) 
-6.63

>  <cluster_rmsd>  (18) 
0.79

>  <rmsd>  (18) 
272.35

>  <cluster>  (18) 
4

$$$$
PKQSJVMIHVNFFS-CSKARUKUNA-N
     RDKit          3D

 43 46  0  0  0  0  0  0  0  0999 V2000
  142.4565   80.6154  219.0212 H   0  0  0  0  0  0  0  0  0  0  0  0
  141.8810   80.0540  219.7720 C   0  0  0  0  0  0  0  0  0  0  0  0
  141.0710   79.0730  219.3590 C   0  0  0  0  0  0  0  0  0  0  0  0
  140.2520   79.3001  218.6607 H   0  0  0  0  0  0  0  0  0  0  0  0
  141.2660   77.6910  219.8310 C   0  0  0  0  0  0  0  0  0  0  0  0
  142.5070   77.1520  219.7020 N   0  0  0  0  0  0  0  0  0  0  0  0
  142.7760   75.8830  220.0900 C   0  0  0  0  0  0  0  0  0  0  0  0
  144.0660   75.3590  219.9240 C   0  0  0  0  0  0  0  0  0  0  0  0
  144.8634   75.9867  219.4997 H   0  0  0  0  0  0  0  0  0  0  0  0
  144.3400   74.0400  220.2970 C   0  0  0  0  0  0  0  0  0  0  0  0
  145.9510   73.3830  220.0710 Cl  0  0  0  0  0  0  0  0  0  0  0  0
  143.3270   73.2420  220.8430 C   0  0  0  0  0  0  0  0  0  0  0  0
  143.5441   72.2039  221.1351 H   0  0  0  0  0  0  0  0  0  0  0  0
  142.0400   73.7610  221.0180 C   0  0  0  0  0  0  0  0  0  0  0  0
  141.2485   73.1312  221.4504 H   0  0  0  0  0  0  0  0  0  0  0  0
  141.7550   75.0880  220.6420 C   0  0  0  0  0  0  0  0  0  0  0  0
  140.4760   75.6540  220.7870 C   0  0  0  0  0  0  0  0  0  0  0  0
  139.5410   74.9590  221.2770 O   0  0  0  0  0  0  0  0  0  0  0  0
  140.2430   76.9550  220.3940 N   0  0  0  0  0  0  0  0  0  0  0  0
  138.9020   77.5560  220.5890 C   0  0  0  0  0  0  0  0  0  0  0  0
  138.5732   78.0055  219.6404 H   0  0  0  0  0  0  0  0  0  0  0  0
  138.2163   76.7584  220.9109 H   0  0  0  0  0  0  0  0  0  0  0  0
  138.9090   78.6250  221.6590 C   0  0  0  0  0  0  0  0  0  0  0  0
  139.4360   78.3770  222.9420 C   0  0  0  0  0  0  0  0  0  0  0  0
  139.8579   77.3892  223.1792 H   0  0  0  0  0  0  0  0  0  0  0  0
  139.4250   79.3810  223.9150 C   0  0  0  0  0  0  0  0  0  0  0  0
  139.8070   79.1707  224.9249 H   0  0  0  0  0  0  0  0  0  0  0  0
  138.9290   80.6530  223.6070 C   0  0  0  0  0  0  0  0  0  0  0  0
  138.9110   81.4373  224.3781 H   0  0  0  0  0  0  0  0  0  0  0  0
  138.4560   80.9280  222.3190 C   0  0  0  0  0  0  0  0  0  0  0  0
  137.8910   82.5450  221.9150 Cl  0  0  0  0  0  0  0  0  0  0  0  0
  138.4450   79.9190  221.3500 C   0  0  0  0  0  0  0  0  0  0  0  0
  138.0712   80.1376  220.3388 H   0  0  0  0  0  0  0  0  0  0  0  0
  142.0330   80.4130  221.1960 C   0  0  0  0  0  0  0  0  0  0  0  0
  141.6900   81.6550  221.6440 N   0  0  0  0  0  0  0  0  0  0  0  0
  141.8160   82.0120  222.9520 C   0  0  0  0  0  0  0  0  0  0  0  0
  141.5228   83.0209  223.2778 H   0  0  0  0  0  0  0  0  0  0  0  0
  142.3180   81.0960  223.8800 C   0  0  0  0  0  0  0  0  0  0  0  0
  142.4291   81.3792  224.9371 H   0  0  0  0  0  0  0  0  0  0  0  0
  142.6770   79.8170  223.4500 C   0  0  0  0  0  0  0  0  0  0  0  0
  143.0628   79.0820  224.1717 H   0  0  0  0  0  0  0  0  0  0  0  0
  142.5460   79.4710  222.1020 C   0  0  0  0  0  0  0  0  0  0  0  0
  142.8420   78.4702  221.7543 H   0  0  0  0  0  0  0  0  0  0  0  0
  1  2  1  0
  2  3  2  0
  3  4  1  0
  3  5  1  0
  5  6  2  0
  6  7  1  0
  7  8  2  0
  8  9  1  0
  8 10  1  0
 10 11  1  0
 10 12  2  0
 12 13  1  0
 12 14  1  0
 14 15  1  0
 14 16  2  0
 16 17  1  0
 17 18  2  0
 17 19  1  0
 19 20  1  0
 20 21  1  0
 20 22  1  0
 20 23  1  0
 23 24  2  0
 24 25  1  0
 24 26  1  0
 26 27  1  0
 26 28  2  0
 28 29  1  0
 28 30  1  0
 30 31  1  0
 30 32  2  0
 32 33  1  0
  2 34  1  0
 34 35  2  0
 35 36  1  0
 36 37  1  0
 36 38  2  0
 38 39  1  0
 38 40  1  0
 40 41  1  0
 40 42  2  0
 42 43  1  0
 19  5  1  0
 32 23  1  0
 42 34  1  0
 16  7  1  0
M  END
>  <UniqueID>  (19) 
436

>  <SMILES>  (19) 
O=c1c2ccc(Cl)cc2nc(/C=C/c2ccccn2)n1Cc1cccc(Cl)c1

>  <Energy>  (19) 
62.431035696128276

>  <Genealogy>  (19) 
O=c1c2ccc(Cl)cc2nc(/C=C/c2ccccn2)n1Cc1cccc(Cl)c1 (cis-trans isomerization)
O=c1c2ccc(Cl)cc2nc(/C=C/c2ccccn2)n1Cc1cccc(Cl)c1 (3D coordinates assigned)
O=c1c2ccc(Cl)cc2nc(/C=C/c2ccccn2)n1Cc1cccc(Cl)c1 (optimized conformer: 62.431035696128276 kcal/mol)

>  <smiles>  (19) 
O=c1c2ccc(Cl)cc2nc(/C=C/c2ccccn2)n1Cc1cccc(Cl)c1

>  <score_type>  (19) 
oracle

>  <origin>  (19) 
autodockgpu

>  <m_score__min__energy>  (19) 
-8.0099999999999998

>  <m_primary>  (19) 
energy

>  <meeko>  (19) 
{"free_energy": -6.72, "intermolecular_energy": -8.21, "internal_energy": -2.26, "cluster_size": 9, "cluster_id": 4, "rank_in_cluster": 4}

>  <energy>  (19) 
-6.62

>  <cluster_rmsd>  (19) 
0.82

>  <rmsd>  (19) 
272.37

>  <cluster>  (19) 
4

$$$$
PKQSJVMIHVNFFS-CSKARUKUNA-N
     RDKit          3D

 43 46  0  0  0  0  0  0  0  0999 V2000
  138.3696   72.4419  223.2514 H   0  0  0  0  0  0  0  0  0  0  0  0
  139.3090   71.8780  223.1540 C   0  0  0  0  0  0  0  0  0  0  0  0
  139.9990   71.9710  222.0120 C   0  0  0  0  0  0  0  0  0  0  0  0
  140.1724   71.0700  221.4053 H   0  0  0  0  0  0  0  0  0  0  0  0
  140.5290   73.2690  221.5590 C   0  0  0  0  0  0  0  0  0  0  0  0
  140.2130   74.3670  222.2940 N   0  0  0  0  0  0  0  0  0  0  0  0
  140.6410   75.6050  221.9450 C   0  0  0  0  0  0  0  0  0  0  0  0
  140.2780   76.7150  222.7210 C   0  0  0  0  0  0  0  0  0  0  0  0
  139.6665   76.5777  223.6250 H   0  0  0  0  0  0  0  0  0  0  0  0
  140.6930   77.9960  222.3460 C   0  0  0  0  0  0  0  0  0  0  0  0
  140.2220   79.3850  223.3100 Cl  0  0  0  0  0  0  0  0  0  0  0  0
  141.4760   78.1710  221.1990 C   0  0  0  0  0  0  0  0  0  0  0  0
  141.7999   79.1804  220.9053 H   0  0  0  0  0  0  0  0  0  0  0  0
  141.8480   77.0670  220.4250 C   0  0  0  0  0  0  0  0  0  0  0  0
  142.4670   77.2094  219.5269 H   0  0  0  0  0  0  0  0  0  0  0  0
  141.4310   75.7730  220.7940 C   0  0  0  0  0  0  0  0  0  0  0  0
  141.7680   74.6310  220.0440 C   0  0  0  0  0  0  0  0  0  0  0  0
  142.4750   74.7570  219.0040 O   0  0  0  0  0  0  0  0  0  0  0  0
  141.3270   73.3860  220.4390 N   0  0  0  0  0  0  0  0  0  0  0  0
  141.7220   72.1840  219.6660 C   0  0  0  0  0  0  0  0  0  0  0  0
  141.2351   71.3021  220.1079 H   0  0  0  0  0  0  0  0  0  0  0  0
  141.4064   72.3329  218.6228 H   0  0  0  0  0  0  0  0  0  0  0  0
  143.2190   71.9700  219.6740 C   0  0  0  0  0  0  0  0  0  0  0  0
  143.8470   71.1360  218.7270 C   0  0  0  0  0  0  0  0  0  0  0  0
  143.2448   70.6281  217.9592 H   0  0  0  0  0  0  0  0  0  0  0  0
  145.2320   70.9520  218.7600 C   0  0  0  0  0  0  0  0  0  0  0  0
  145.7122   70.2737  218.0394 H   0  0  0  0  0  0  0  0  0  0  0  0
  146.0100   71.6280  219.7070 C   0  0  0  0  0  0  0  0  0  0  0  0
  147.0983   71.4710  219.7372 H   0  0  0  0  0  0  0  0  0  0  0  0
  145.4040   72.5040  220.6160 C   0  0  0  0  0  0  0  0  0  0  0  0
  146.3890   73.4010  221.7640 Cl  0  0  0  0  0  0  0  0  0  0  0  0
  144.0150   72.6730  220.6000 C   0  0  0  0  0  0  0  0  0  0  0  0
  143.5407   73.3602  221.3161 H   0  0  0  0  0  0  0  0  0  0  0  0
  139.7590   71.0480  224.2890 C   0  0  0  0  0  0  0  0  0  0  0  0
  139.2130   69.8180  224.5140 N   0  0  0  0  0  0  0  0  0  0  0  0
  139.6120   69.0300  225.5510 C   0  0  0  0  0  0  0  0  0  0  0  0
  139.1539   68.0408  225.6979 H   0  0  0  0  0  0  0  0  0  0  0  0
  140.6030   69.4780  226.4280 C   0  0  0  0  0  0  0  0  0  0  0  0
  140.9257   68.8493  227.2710 H   0  0  0  0  0  0  0  0  0  0  0  0
  141.1790   70.7330  226.2220 C   0  0  0  0  0  0  0  0  0  0  0  0
  141.9681   71.0942  226.8979 H   0  0  0  0  0  0  0  0  0  0  0  0
  140.7520   71.5300  225.1560 C   0  0  0  0  0  0  0  0  0  0  0  0
  141.1904   72.5264  224.9980 H   0  0  0  0  0  0  0  0  0  0  0  0
  1  2  1  0
  2  3  2  0
  3  4  1  0
  3  5  1  0
  5  6  2  0
  6  7  1  0
  7  8  2  0
  8  9  1  0
  8 10  1  0
 10 11  1  0
 10 12  2  0
 12 13  1  0
 12 14  1  0
 14 15  1  0
 14 16  2  0
 16 17  1  0
 17 18  2  0
 17 19  1  0
 19 20  1  0
 20 21  1  0
 20 22  1  0
 20 23  1  0
 23 24  2  0
 24 25  1  0
 24 26  1  0
 26 27  1  0
 26 28  2  0
 28 29  1  0
 28 30  1  0
 30 31  1  0
 30 32  2  0
 32 33  1  0
  2 34  1  0
 34 35  2  0
 35 36  1  0
 36 37  1  0
 36 38  2  0
 38 39  1  0
 38 40  1  0
 40 41  1  0
 40 42  2  0
 42 43  1  0
 19  5  1  0
 32 23  1  0
 42 34  1  0
 16  7  1  0
M  END
>  <UniqueID>  (20) 
436

>  <SMILES>  (20) 
O=c1c2ccc(Cl)cc2nc(/C=C/c2ccccn2)n1Cc1cccc(Cl)c1

>  <Energy>  (20) 
62.431035696128276

>  <Genealogy>  (20) 
O=c1c2ccc(Cl)cc2nc(/C=C/c2ccccn2)n1Cc1cccc(Cl)c1 (cis-trans isomerization)
O=c1c2ccc(Cl)cc2nc(/C=C/c2ccccn2)n1Cc1cccc(Cl)c1 (3D coordinates assigned)
O=c1c2ccc(Cl)cc2nc(/C=C/c2ccccn2)n1Cc1cccc(Cl)c1 (optimized conformer: 62.431035696128276 kcal/mol)

>  <smiles>  (20) 
O=c1c2ccc(Cl)cc2nc(/C=C/c2ccccn2)n1Cc1cccc(Cl)c1

>  <score_type>  (20) 
oracle

>  <origin>  (20) 
autodockgpu

>  <m_score__min__energy>  (20) 
-8.0099999999999998

>  <m_primary>  (20) 
energy

>  <meeko>  (20) 
{"free_energy": -7.88, "intermolecular_energy": -9.37, "internal_energy": -1.08, "cluster_size": 4, "cluster_id": 1, "rank_in_cluster": 3}

>  <energy>  (20) 
-6.62

>  <cluster_rmsd>  (20) 
0.81

>  <rmsd>  (20) 
272.37

>  <cluster>  (20) 
4

$$$$
