DRRGDEWGQQLPRW-DOJXPLJYNA-P
     RDKit          3D

 66 70  0  0  0  0  0  0  0  0999 V2000
  139.5550   69.7370  228.0290 C   0  0  0  0  0  0  0  0  0  0  0  0
  140.7150   70.5130  228.0100 C   0  0  0  0  0  0  0  0  0  0  0  0
  141.1690   71.0650  226.8090 C   0  0  0  0  0  0  0  0  0  0  0  0
  140.4610   70.8530  225.6160 C   0  0  0  0  0  0  0  0  0  0  0  0
  139.3010   70.0390  225.6310 C   0  0  0  0  0  0  0  0  0  0  0  0
  138.8500   69.5040  226.8470 C   0  0  0  0  0  0  0  0  0  0  0  0
  138.4870   69.8030  224.3780 C   0  0  0  0  0  0  0  0  0  0  0  0
  139.2910   70.0900  223.1120 C   0  0  0  0  0  0  0  0  0  0  0  0
  139.9840   71.3730  223.2690 N   0  0  0  0  0  0  0  0  0  0  0  0
  139.6010   72.5380  222.5070 C   0  0  0  0  0  0  0  0  0  0  0  0
  138.3160   72.9820  222.5230 N   0  0  0  0  0  0  0  0  0  0  0  0
  137.9210   74.0570  221.7920 C   0  0  0  0  0  0  0  0  0  0  0  0
  136.5480   74.4730  221.8540 N   0  0  0  0  0  0  0  0  0  0  0  0
  135.4240   73.5900  221.5410 C   0  0  0  0  0  0  0  0  0  0  0  0
  134.6230   73.2860  222.8200 C   0  0  0  0  0  0  0  0  0  0  0  0
  135.4840   73.3000  224.0350 N   0  0  0  0  0  0  0  0  0  0  0  0
  135.1430   72.2000  224.9670 C   0  0  0  0  0  0  0  0  0  0  0  0
  133.8490   72.4970  225.7380 C   0  0  0  0  0  0  0  0  0  0  0  0
  133.9810   73.6980  226.4710 O   0  0  0  0  0  0  0  0  0  0  0  0
  134.1610   74.7790  225.5780 C   0  0  0  0  0  0  0  0  0  0  0  0
  135.4430   74.6050  224.7410 C   0  0  0  0  0  0  0  0  0  0  0  0
  138.8670   74.7430  221.0190 C   0  0  0  0  0  0  0  0  0  0  0  0
  140.1960   74.2880  221.0080 C   0  0  0  0  0  0  0  0  0  0  0  0
  141.2160   74.9490  220.2250 N   0  0  0  0  0  0  0  0  0  0  0  0
  142.6380   74.6090  220.3940 C   0  0  0  0  0  0  0  0  0  0  0  0
  143.5400   75.6840  219.7720 C   0  0  0  0  0  0  0  0  0  0  0  0
  143.0070   77.0190  220.0820 N   0  0  0  0  0  0  0  0  0  0  0  0
  141.6940   77.2670  219.4490 C   0  0  0  0  0  0  0  0  0  0  0  0
  140.8580   75.9860  219.2400 C   0  0  0  0  0  0  0  0  0  0  0  0
  140.5180   73.1950  221.7510 N   0  0  0  0  0  0  0  0  0  0  0  0
  140.9960   71.4380  224.3300 C   0  0  0  0  0  0  0  0  0  0  0  0
  139.1960   69.3086  228.9764 H   0  0  0  0  0  0  0  0  0  0  0  0
  141.2726   70.6903  228.9415 H   0  0  0  0  0  0  0  0  0  0  0  0
  142.0877   71.6699  226.7988 H   0  0  0  0  0  0  0  0  0  0  0  0
  137.9335   68.8961  226.8691 H   0  0  0  0  0  0  0  0  0  0  0  0
  138.1587   68.7533  224.3601 H   0  0  0  0  0  0  0  0  0  0  0  0
  137.6267   70.4882  224.3972 H   0  0  0  0  0  0  0  0  0  0  0  0
  140.0283   69.2892  222.9535 H   0  0  0  0  0  0  0  0  0  0  0  0
  138.6161   70.1350  222.2445 H   0  0  0  0  0  0  0  0  0  0  0  0
  136.3350   75.3160  222.4340 H   0  0  0  0  0  0  0  0  0  0  0  0
  134.7675   74.0815  220.8079 H   0  0  0  0  0  0  0  0  0  0  0  0
  135.8094   72.6482  221.1232 H   0  0  0  0  0  0  0  0  0  0  0  0
  133.8353   74.0452  222.9344 H   0  0  0  0  0  0  0  0  0  0  0  0
  134.1935   72.2783  222.7200 H   0  0  0  0  0  0  0  0  0  0  0  0
  136.4760   73.1330  223.7400 H   0  0  0  0  0  0  0  0  0  0  0  0
  135.0113   71.2718  224.3916 H   0  0  0  0  0  0  0  0  0  0  0  0
  135.9621   72.0970  225.6939 H   0  0  0  0  0  0  0  0  0  0  0  0
  133.0165   72.5959  225.0258 H   0  0  0  0  0  0  0  0  0  0  0  0
  133.6503   71.6708  226.4365 H   0  0  0  0  0  0  0  0  0  0  0  0
  133.2955   74.8328  224.9012 H   0  0  0  0  0  0  0  0  0  0  0  0
  134.2527   75.7041  226.1661 H   0  0  0  0  0  0  0  0  0  0  0  0
  135.4903   75.4120  223.9950 H   0  0  0  0  0  0  0  0  0  0  0  0
  136.3006   74.6418  225.4288 H   0  0  0  0  0  0  0  0  0  0  0  0
  138.5736   75.6243  220.4298 H   0  0  0  0  0  0  0  0  0  0  0  0
  142.8631   74.5282  221.4677 H   0  0  0  0  0  0  0  0  0  0  0  0
  142.8318   73.6529  219.8857 H   0  0  0  0  0  0  0  0  0  0  0  0
  144.5560   75.5915  220.1833 H   0  0  0  0  0  0  0  0  0  0  0  0
  143.5692   75.5480  218.6808 H   0  0  0  0  0  0  0  0  0  0  0  0
  143.6900   77.7410  219.7470 H   0  0  0  0  0  0  0  0  0  0  0  0
  142.9200   77.1210  221.1240 H   0  0  0  0  0  0  0  0  0  0  0  0
  141.1229   77.9545  220.0903 H   0  0  0  0  0  0  0  0  0  0  0  0
  141.8904   77.6907  218.4530 H   0  0  0  0  0  0  0  0  0  0  0  0
  139.7914   76.2318  219.3494 H   0  0  0  0  0  0  0  0  0  0  0  0
  141.0648   75.5957  218.2326 H   0  0  0  0  0  0  0  0  0  0  0  0
  141.8842   70.8696  224.0169 H   0  0  0  0  0  0  0  0  0  0  0  0
  141.2586   72.4920  224.5037 H   0  0  0  0  0  0  0  0  0  0  0  0
  1  2  2  0
  2  3  1  0
  3  4  2  0
  4  5  1  0
  5  6  2  0
  5  7  1  0
  7  8  1  0
  8  9  1  0
  9 10  1  0
 10 11  2  0
 11 12  1  0
 12 13  1  0
 13 14  1  0
 14 15  1  0
 15 16  1  0
 16 17  1  0
 17 18  1  0
 18 19  1  0
 19 20  1  0
 20 21  1  0
 12 22  2  0
 22 23  1  0
 23 24  1  0
 24 25  1  0
 25 26  1  0
 26 27  1  0
 27 28  1  0
 28 29  1  0
 23 30  2  0
  9 31  1  0
  6  1  1  0
 30 10  1  0
 31  4  1  0
 21 16  1  0
 29 24  1  0
  1 32  1  0
  2 33  1  0
  3 34  1  0
  6 35  1  0
  7 36  1  0
  7 37  1  0
  8 38  1  0
  8 39  1  0
 13 40  1  0
 14 41  1  0
 14 42  1  0
 15 43  1  0
 15 44  1  0
 16 45  1  0
 17 46  1  0
 17 47  1  0
 18 48  1  0
 18 49  1  0
 20 50  1  0
 20 51  1  0
 21 52  1  0
 21 53  1  0
 22 54  1  0
 25 55  1  0
 25 56  1  0
 26 57  1  0
 26 58  1  0
 27 59  1  0
 27 60  1  0
 28 61  1  0
 28 62  1  0
 29 63  1  0
 29 64  1  0
 31 65  1  0
 31 66  1  0
M  CHG  2  16   1  27   1
M  END
>  <UniqueID>  (1) 
484

>  <SMILES>  (1) 
c1ccc2c(c1)CCN(c1nc(NCC[NH+]3CCOCC3)cc(N3CC[NH2+]CC3)n1)C2

>  <Energy>  (1) 
85.75868760980674

>  <Genealogy>  (1) 
c1ccc2c(c1)CCN(c1nc(NCC[NH+]3CCOCC3)cc(N3CC[NH2+]CC3)n1)C2 (protonated)
c1ccc2c(c1)CCN(c1nc(NCC[NH+]3CCOCC3)cc(N3CC[NH2+]CC3)n1)C2 (3D coordinates assigned)
c1ccc2c(c1)CCN(c1nc(NCC[NH+]3CCOCC3)cc(N3CC[NH2+]CC3)n1)C2 (nonaromatic ring conformer: 85.75868760980674 kcal/mol)

>  <smiles>  (1) 
c1ccc2c(c1)CCN(c1nc(NCCN3CCOCC3)cc(N3CCNCC3)n1)C2

>  <score_type>  (1) 
oracle

>  <origin>  (1) 
autodockgpu

>  <m_score__min__energy>  (1) 
-8.2200000000000006

>  <m_primary>  (1) 
energy

>  <meeko>  (1) 
{"free_energy": -7.59, "intermolecular_energy": -9.38, "internal_energy": -1.78, "cluster_size": 17, "cluster_id": 1, "rank_in_cluster": 6}

>  <energy>  (1) 
-8.22

>  <cluster_rmsd>  (1) 
0.0

>  <rmsd>  (1) 
269.47

>  <cluster>  (1) 
1

$$$$
DRRGDEWGQQLPRW-DOJXPLJYNA-P
     RDKit          3D

 66 70  0  0  0  0  0  0  0  0999 V2000
  140.1210   70.1120  228.3450 C   0  0  0  0  0  0  0  0  0  0  0  0
  141.0420   71.1390  228.1350 C   0  0  0  0  0  0  0  0  0  0  0  0
  141.2140   71.6760  226.8560 C   0  0  0  0  0  0  0  0  0  0  0  0
  140.4570   71.1960  225.7760 C   0  0  0  0  0  0  0  0  0  0  0  0
  139.5450   70.1320  225.9840 C   0  0  0  0  0  0  0  0  0  0  0  0
  139.3740   69.6130  227.2770 C   0  0  0  0  0  0  0  0  0  0  0  0
  138.6850   69.5970  224.8600 C   0  0  0  0  0  0  0  0  0  0  0  0
  139.2530   69.9560  223.4880 C   0  0  0  0  0  0  0  0  0  0  0  0
  139.6180   71.3760  223.4810 N   0  0  0  0  0  0  0  0  0  0  0  0
  138.8780   72.3430  222.7040 C   0  0  0  0  0  0  0  0  0  0  0  0
  137.5990   72.0890  222.3220 N   0  0  0  0  0  0  0  0  0  0  0  0
  136.8890   72.9670  221.5670 C   0  0  0  0  0  0  0  0  0  0  0  0
  135.5420   72.6360  221.1970 N   0  0  0  0  0  0  0  0  0  0  0  0
  134.8170   71.4870  221.7400 C   0  0  0  0  0  0  0  0  0  0  0  0
  134.1270   71.8770  223.0600 C   0  0  0  0  0  0  0  0  0  0  0  0
  135.1100   72.1210  224.1520 N   0  0  0  0  0  0  0  0  0  0  0  0
  134.7710   71.3650  225.3810 C   0  0  0  0  0  0  0  0  0  0  0  0
  133.5990   72.0120  226.1320 C   0  0  0  0  0  0  0  0  0  0  0  0
  133.9160   73.3430  226.4830 O   0  0  0  0  0  0  0  0  0  0  0  0
  134.0990   74.1100  225.3100 C   0  0  0  0  0  0  0  0  0  0  0  0
  135.2640   73.5650  224.4610 C   0  0  0  0  0  0  0  0  0  0  0  0
  137.4820   74.1800  221.1900 C   0  0  0  0  0  0  0  0  0  0  0  0
  138.8020   74.4450  221.5920 C   0  0  0  0  0  0  0  0  0  0  0  0
  139.4710   75.6750  221.2290 N   0  0  0  0  0  0  0  0  0  0  0  0
  140.1830   75.7990  219.9470 C   0  0  0  0  0  0  0  0  0  0  0  0
  141.1250   77.0100  219.9540 C   0  0  0  0  0  0  0  0  0  0  0  0
  141.8160   77.0950  221.2500 N   0  0  0  0  0  0  0  0  0  0  0  0
  140.8900   77.3760  222.3670 C   0  0  0  0  0  0  0  0  0  0  0  0
  139.4610   76.8360  222.1370 C   0  0  0  0  0  0  0  0  0  0  0  0
  139.4590   73.5140  222.3330 N   0  0  0  0  0  0  0  0  0  0  0  0
  140.6900   71.7750  224.4010 C   0  0  0  0  0  0  0  0  0  0  0  0
  139.9836   69.6952  229.3536 H   0  0  0  0  0  0  0  0  0  0  0  0
  141.6337   71.5267  228.9774 H   0  0  0  0  0  0  0  0  0  0  0  0
  141.9473   72.4799  226.6949 H   0  0  0  0  0  0  0  0  0  0  0  0
  138.6457   68.8069  227.4497 H   0  0  0  0  0  0  0  0  0  0  0  0
  138.6282   68.5018  224.9460 H   0  0  0  0  0  0  0  0  0  0  0  0
  137.6880   70.0537  224.9464 H   0  0  0  0  0  0  0  0  0  0  0  0
  140.1449   69.3446  223.2863 H   0  0  0  0  0  0  0  0  0  0  0  0
  138.4996   69.7614  222.7105 H   0  0  0  0  0  0  0  0  0  0  0  0
  134.9650   73.4010  220.7810 H   0  0  0  0  0  0  0  0  0  0  0  0
  134.0576   71.1593  221.0148 H   0  0  0  0  0  0  0  0  0  0  0  0
  135.5271   70.6689  221.9312 H   0  0  0  0  0  0  0  0  0  0  0  0
  133.5417   72.7941  222.8974 H   0  0  0  0  0  0  0  0  0  0  0  0
  133.4801   71.0413  223.3653 H   0  0  0  0  0  0  0  0  0  0  0  0
  136.0460   71.7640  223.8420 H   0  0  0  0  0  0  0  0  0  0  0  0
  134.4945   70.3370  225.1038 H   0  0  0  0  0  0  0  0  0  0  0  0
  135.6498   71.3683  226.0426 H   0  0  0  0  0  0  0  0  0  0  0  0
  132.7086   72.0094  225.4862 H   0  0  0  0  0  0  0  0  0  0  0  0
  133.4013   71.4377  227.0491 H   0  0  0  0  0  0  0  0  0  0  0  0
  133.1754   74.0784  224.7134 H   0  0  0  0  0  0  0  0  0  0  0  0
  134.3370   75.1429  225.6040 H   0  0  0  0  0  0  0  0  0  0  0  0
  135.3056   74.1263  223.5159 H   0  0  0  0  0  0  0  0  0  0  0  0
  136.1896   73.6874  225.0426 H   0  0  0  0  0  0  0  0  0  0  0  0
  136.9230   74.9125  220.5892 H   0  0  0  0  0  0  0  0  0  0  0  0
  140.7721   74.8864  219.7734 H   0  0  0  0  0  0  0  0  0  0  0  0
  139.4410   75.9378  219.1469 H   0  0  0  0  0  0  0  0  0  0  0  0
  141.8679   76.8996  219.1503 H   0  0  0  0  0  0  0  0  0  0  0  0
  140.5394   77.9272  219.7932 H   0  0  0  0  0  0  0  0  0  0  0  0
  142.5330   77.8580  221.2000 H   0  0  0  0  0  0  0  0  0  0  0  0
  142.3200   76.1930  221.4300 H   0  0  0  0  0  0  0  0  0  0  0  0
  141.2943   76.9123  223.2789 H   0  0  0  0  0  0  0  0  0  0  0  0
  140.8113   78.4698  222.4532 H   0  0  0  0  0  0  0  0  0  0  0  0
  139.0321   76.5324  223.1033 H   0  0  0  0  0  0  0  0  0  0  0  0
  138.8567   77.6325  221.6782 H   0  0  0  0  0  0  0  0  0  0  0  0
  141.6526   71.4096  224.0138 H   0  0  0  0  0  0  0  0  0  0  0  0
  140.7006   72.8723  224.4767 H   0  0  0  0  0  0  0  0  0  0  0  0
  1  2  2  0
  2  3  1  0
  3  4  2  0
  4  5  1  0
  5  6  2  0
  5  7  1  0
  7  8  1  0
  8  9  1  0
  9 10  1  0
 10 11  2  0
 11 12  1  0
 12 13  1  0
 13 14  1  0
 14 15  1  0
 15 16  1  0
 16 17  1  0
 17 18  1  0
 18 19  1  0
 19 20  1  0
 20 21  1  0
 12 22  2  0
 22 23  1  0
 23 24  1  0
 24 25  1  0
 25 26  1  0
 26 27  1  0
 27 28  1  0
 28 29  1  0
 23 30  2  0
  9 31  1  0
  6  1  1  0
 30 10  1  0
 31  4  1  0
 21 16  1  0
 29 24  1  0
  1 32  1  0
  2 33  1  0
  3 34  1  0
  6 35  1  0
  7 36  1  0
  7 37  1  0
  8 38  1  0
  8 39  1  0
 13 40  1  0
 14 41  1  0
 14 42  1  0
 15 43  1  0
 15 44  1  0
 16 45  1  0
 17 46  1  0
 17 47  1  0
 18 48  1  0
 18 49  1  0
 20 50  1  0
 20 51  1  0
 21 52  1  0
 21 53  1  0
 22 54  1  0
 25 55  1  0
 25 56  1  0
 26 57  1  0
 26 58  1  0
 27 59  1  0
 27 60  1  0
 28 61  1  0
 28 62  1  0
 29 63  1  0
 29 64  1  0
 31 65  1  0
 31 66  1  0
M  CHG  2  16   1  27   1
M  END
>  <UniqueID>  (2) 
484

>  <SMILES>  (2) 
c1ccc2c(c1)CCN(c1nc(NCC[NH+]3CCOCC3)cc(N3CC[NH2+]CC3)n1)C2

>  <Energy>  (2) 
85.75868760980674

>  <Genealogy>  (2) 
c1ccc2c(c1)CCN(c1nc(NCC[NH+]3CCOCC3)cc(N3CC[NH2+]CC3)n1)C2 (protonated)
c1ccc2c(c1)CCN(c1nc(NCC[NH+]3CCOCC3)cc(N3CC[NH2+]CC3)n1)C2 (3D coordinates assigned)
c1ccc2c(c1)CCN(c1nc(NCC[NH+]3CCOCC3)cc(N3CC[NH2+]CC3)n1)C2 (nonaromatic ring conformer: 85.75868760980674 kcal/mol)

>  <smiles>  (2) 
c1ccc2c(c1)CCN(c1nc(NCCN3CCOCC3)cc(N3CCNCC3)n1)C2

>  <score_type>  (2) 
oracle

>  <origin>  (2) 
autodockgpu

>  <m_score__min__energy>  (2) 
-8.2200000000000006

>  <m_primary>  (2) 
energy

>  <meeko>  (2) 
{"free_energy": -7.47, "intermolecular_energy": -9.26, "internal_energy": -1.85, "cluster_size": 17, "cluster_id": 1, "rank_in_cluster": 8}

>  <energy>  (2) 
-8.21

>  <cluster_rmsd>  (2) 
0.23

>  <rmsd>  (2) 
269.49

>  <cluster>  (2) 
1

$$$$
DRRGDEWGQQLPRW-DOJXPLJYNA-P
     RDKit          3D

 66 70  0  0  0  0  0  0  0  0999 V2000
  140.0450   68.8780  227.8580 C   0  0  0  0  0  0  0  0  0  0  0  0
  140.8370   70.0190  227.9890 C   0  0  0  0  0  0  0  0  0  0  0  0
  141.0340   70.8650  226.8940 C   0  0  0  0  0  0  0  0  0  0  0  0
  140.4300   70.5830  225.6590 C   0  0  0  0  0  0  0  0  0  0  0  0
  139.6510   69.4080  225.5180 C   0  0  0  0  0  0  0  0  0  0  0  0
  139.4510   68.5750  226.6310 C   0  0  0  0  0  0  0  0  0  0  0  0
  138.9560   69.0720  224.2170 C   0  0  0  0  0  0  0  0  0  0  0  0
  139.5740   69.8130  223.0330 C   0  0  0  0  0  0  0  0  0  0  0  0
  139.7510   71.2230  223.3940 N   0  0  0  0  0  0  0  0  0  0  0  0
  138.9510   72.2640  222.7890 C   0  0  0  0  0  0  0  0  0  0  0  0
  137.6050   72.1190  222.6710 N   0  0  0  0  0  0  0  0  0  0  0  0
  136.8320   73.0690  222.0810 C   0  0  0  0  0  0  0  0  0  0  0  0
  135.4160   72.8530  221.9870 N   0  0  0  0  0  0  0  0  0  0  0  0
  134.8020   71.9400  221.0230 C   0  0  0  0  0  0  0  0  0  0  0  0
  134.4540   70.6070  221.7090 C   0  0  0  0  0  0  0  0  0  0  0  0
  135.5350   70.1520  222.6270 N   0  0  0  0  0  0  0  0  0  0  0  0
  135.8370   68.7110  222.4540 C   0  0  0  0  0  0  0  0  0  0  0  0
  134.7590   67.8290  223.0990 C   0  0  0  0  0  0  0  0  0  0  0  0
  134.6530   68.1160  224.4790 O   0  0  0  0  0  0  0  0  0  0  0  0
  134.2220   69.4500  224.6520 C   0  0  0  0  0  0  0  0  0  0  0  0
  135.2310   70.4470  224.0490 C   0  0  0  0  0  0  0  0  0  0  0  0
  137.4350   74.2400  221.6010 C   0  0  0  0  0  0  0  0  0  0  0  0
  138.8260   74.3910  221.7310 C   0  0  0  0  0  0  0  0  0  0  0  0
  139.5070   75.5730  221.2500 N   0  0  0  0  0  0  0  0  0  0  0  0
  140.3200   75.5310  220.0240 C   0  0  0  0  0  0  0  0  0  0  0  0
  141.2430   76.7540  219.9330 C   0  0  0  0  0  0  0  0  0  0  0  0
  141.8230   77.0380  221.2540 N   0  0  0  0  0  0  0  0  0  0  0  0
  140.8050   77.4520  222.2420 C   0  0  0  0  0  0  0  0  0  0  0  0
  139.4080   76.8500  221.9790 C   0  0  0  0  0  0  0  0  0  0  0  0
  139.5390   73.3940  222.3170 N   0  0  0  0  0  0  0  0  0  0  0  0
  140.6880   71.5010  224.4880 C   0  0  0  0  0  0  0  0  0  0  0  0
  139.8882   68.2161  228.7224 H   0  0  0  0  0  0  0  0  0  0  0  0
  141.3071   70.2532  228.9555 H   0  0  0  0  0  0  0  0  0  0  0  0
  141.6670   71.7582  227.0010 H   0  0  0  0  0  0  0  0  0  0  0  0
  138.8221   67.6776  226.5355 H   0  0  0  0  0  0  0  0  0  0  0  0
  139.0365   67.9893  224.0401 H   0  0  0  0  0  0  0  0  0  0  0  0
  137.9043   69.3828  224.3022 H   0  0  0  0  0  0  0  0  0  0  0  0
  140.5504   69.3692  222.7888 H   0  0  0  0  0  0  0  0  0  0  0  0
  138.9128   69.7330  222.1576 H   0  0  0  0  0  0  0  0  0  0  0  0
  134.8430   73.1060  222.8240 H   0  0  0  0  0  0  0  0  0  0  0  0
  133.8835   72.3952  220.6241 H   0  0  0  0  0  0  0  0  0  0  0  0
  135.5105   71.7502  220.2033 H   0  0  0  0  0  0  0  0  0  0  0  0
  133.5279   70.7370  222.2881 H   0  0  0  0  0  0  0  0  0  0  0  0
  134.3304   69.8444  220.9259 H   0  0  0  0  0  0  0  0  0  0  0  0
  136.4160   70.6640  222.3810 H   0  0  0  0  0  0  0  0  0  0  0  0
  135.8892   68.4833  221.3791 H   0  0  0  0  0  0  0  0  0  0  0  0
  136.7973   68.4981  222.9464 H   0  0  0  0  0  0  0  0  0  0  0  0
  133.7918   68.0233  222.6124 H   0  0  0  0  0  0  0  0  0  0  0  0
  135.0379   66.7724  222.9731 H   0  0  0  0  0  0  0  0  0  0  0  0
  133.2494   69.5797  224.1548 H   0  0  0  0  0  0  0  0  0  0  0  0
  134.1377   69.6506  225.7302 H   0  0  0  0  0  0  0  0  0  0  0  0
  134.8100   71.4609  224.1175 H   0  0  0  0  0  0  0  0  0  0  0  0
  136.1687   70.3613  224.6177 H   0  0  0  0  0  0  0  0  0  0  0  0
  136.8290   75.0280  221.1301 H   0  0  0  0  0  0  0  0  0  0  0  0
  140.9329   74.6176  220.0301 H   0  0  0  0  0  0  0  0  0  0  0  0
  139.6447   75.5366  219.1557 H   0  0  0  0  0  0  0  0  0  0  0  0
  142.0512   76.5493  219.2154 H   0  0  0  0  0  0  0  0  0  0  0  0
  140.6611   77.6247  219.5964 H   0  0  0  0  0  0  0  0  0  0  0  0
  142.5320   77.8040  221.1520 H   0  0  0  0  0  0  0  0  0  0  0  0
  142.3230   76.1830  221.6010 H   0  0  0  0  0  0  0  0  0  0  0  0
  141.1390   77.1326  223.2402 H   0  0  0  0  0  0  0  0  0  0  0  0
  140.7053   78.5447  222.1640 H   0  0  0  0  0  0  0  0  0  0  0  0
  138.9053   76.6756  222.9418 H   0  0  0  0  0  0  0  0  0  0  0  0
  138.8333   77.5585  221.3644 H   0  0  0  0  0  0  0  0  0  0  0  0
  141.7168   71.3485  224.1297 H   0  0  0  0  0  0  0  0  0  0  0  0
  140.5483   72.5413  224.8171 H   0  0  0  0  0  0  0  0  0  0  0  0
  1  2  2  0
  2  3  1  0
  3  4  2  0
  4  5  1  0
  5  6  2  0
  5  7  1  0
  7  8  1  0
  8  9  1  0
  9 10  1  0
 10 11  2  0
 11 12  1  0
 12 13  1  0
 13 14  1  0
 14 15  1  0
 15 16  1  0
 16 17  1  0
 17 18  1  0
 18 19  1  0
 19 20  1  0
 20 21  1  0
 12 22  2  0
 22 23  1  0
 23 24  1  0
 24 25  1  0
 25 26  1  0
 26 27  1  0
 27 28  1  0
 28 29  1  0
 23 30  2  0
  9 31  1  0
  6  1  1  0
 30 10  1  0
 31  4  1  0
 21 16  1  0
 29 24  1  0
  1 32  1  0
  2 33  1  0
  3 34  1  0
  6 35  1  0
  7 36  1  0
  7 37  1  0
  8 38  1  0
  8 39  1  0
 13 40  1  0
 14 41  1  0
 14 42  1  0
 15 43  1  0
 15 44  1  0
 16 45  1  0
 17 46  1  0
 17 47  1  0
 18 48  1  0
 18 49  1  0
 20 50  1  0
 20 51  1  0
 21 52  1  0
 21 53  1  0
 22 54  1  0
 25 55  1  0
 25 56  1  0
 26 57  1  0
 26 58  1  0
 27 59  1  0
 27 60  1  0
 28 61  1  0
 28 62  1  0
 29 63  1  0
 29 64  1  0
 31 65  1  0
 31 66  1  0
M  CHG  2  16   1  27   1
M  END
>  <UniqueID>  (3) 
484

>  <SMILES>  (3) 
c1ccc2c(c1)CCN(c1nc(NCC[NH+]3CCOCC3)cc(N3CC[NH2+]CC3)n1)C2

>  <Energy>  (3) 
85.75868760980674

>  <Genealogy>  (3) 
c1ccc2c(c1)CCN(c1nc(NCC[NH+]3CCOCC3)cc(N3CC[NH2+]CC3)n1)C2 (protonated)
c1ccc2c(c1)CCN(c1nc(NCC[NH+]3CCOCC3)cc(N3CC[NH2+]CC3)n1)C2 (3D coordinates assigned)
c1ccc2c(c1)CCN(c1nc(NCC[NH+]3CCOCC3)cc(N3CC[NH2+]CC3)n1)C2 (nonaromatic ring conformer: 85.75868760980674 kcal/mol)

>  <smiles>  (3) 
c1ccc2c(c1)CCN(c1nc(NCCN3CCOCC3)cc(N3CCNCC3)n1)C2

>  <score_type>  (3) 
oracle

>  <origin>  (3) 
autodockgpu

>  <m_score__min__energy>  (3) 
-8.2200000000000006

>  <m_primary>  (3) 
energy

>  <meeko>  (3) 
{"free_energy": -6.99, "intermolecular_energy": -8.78, "internal_energy": -2.06, "cluster_size": 17, "cluster_id": 1, "rank_in_cluster": 16}

>  <energy>  (3) 
-8.13

>  <cluster_rmsd>  (3) 
0.1

>  <rmsd>  (3) 
269.47

>  <cluster>  (3) 
1

$$$$
DRRGDEWGQQLPRW-DOJXPLJYNA-P
     RDKit          3D

 66 70  0  0  0  0  0  0  0  0999 V2000
  140.0690   69.3930  228.2970 C   0  0  0  0  0  0  0  0  0  0  0  0
  140.8740   70.5330  228.2880 C   0  0  0  0  0  0  0  0  0  0  0  0
  141.0710   71.2430  227.1010 C   0  0  0  0  0  0  0  0  0  0  0  0
  140.4550   70.8250  225.9110 C   0  0  0  0  0  0  0  0  0  0  0  0
  139.6630   69.6500  225.9140 C   0  0  0  0  0  0  0  0  0  0  0  0
  139.4630   68.9560  227.1170 C   0  0  0  0  0  0  0  0  0  0  0  0
  138.9550   69.1720  224.6660 C   0  0  0  0  0  0  0  0  0  0  0  0
  139.5720   69.7620  223.3990 C   0  0  0  0  0  0  0  0  0  0  0  0
  139.7660   71.2030  223.5910 N   0  0  0  0  0  0  0  0  0  0  0  0
  138.9730   72.1740  222.8740 C   0  0  0  0  0  0  0  0  0  0  0  0
  137.6500   71.9560  222.6490 N   0  0  0  0  0  0  0  0  0  0  0  0
  136.8870   72.8380  221.9530 C   0  0  0  0  0  0  0  0  0  0  0  0
  135.4960   72.5460  221.7500 N   0  0  0  0  0  0  0  0  0  0  0  0
  134.9620   71.1860  221.6700 C   0  0  0  0  0  0  0  0  0  0  0  0
  134.2260   70.8330  222.9760 C   0  0  0  0  0  0  0  0  0  0  0  0
  135.1420   70.8330  224.1510 N   0  0  0  0  0  0  0  0  0  0  0  0
  135.4840   69.4580  224.5850 C   0  0  0  0  0  0  0  0  0  0  0  0
  134.3210   68.8040  225.3450 C   0  0  0  0  0  0  0  0  0  0  0  0
  133.9820   69.5750  226.4790 O   0  0  0  0  0  0  0  0  0  0  0  0
  133.5140   70.8430  226.0650 C   0  0  0  0  0  0  0  0  0  0  0  0
  134.6000   71.6140  225.2900 C   0  0  0  0  0  0  0  0  0  0  0  0
  137.4720   74.0180  221.4720 C   0  0  0  0  0  0  0  0  0  0  0  0
  138.8380   74.2460  221.7110 C   0  0  0  0  0  0  0  0  0  0  0  0
  139.5000   75.4400  221.2350 N   0  0  0  0  0  0  0  0  0  0  0  0
  140.2930   75.4220  219.9950 C   0  0  0  0  0  0  0  0  0  0  0  0
  141.2040   76.6540  219.9050 C   0  0  0  0  0  0  0  0  0  0  0  0
  141.8040   76.9260  221.2200 N   0  0  0  0  0  0  0  0  0  0  0  0
  140.7990   77.3170  222.2310 C   0  0  0  0  0  0  0  0  0  0  0  0
  139.4030   76.7070  221.9840 C   0  0  0  0  0  0  0  0  0  0  0  0
  139.5450   73.3120  222.4010 N   0  0  0  0  0  0  0  0  0  0  0  0
  140.7140   71.5960  224.6390 C   0  0  0  0  0  0  0  0  0  0  0  0
  139.9117   68.8384  229.2339 H   0  0  0  0  0  0  0  0  0  0  0  0
  141.3543   70.8732  229.2173 H   0  0  0  0  0  0  0  0  0  0  0  0
  141.7134   72.1359  227.0990 H   0  0  0  0  0  0  0  0  0  0  0  0
  138.8239   68.0608  227.1308 H   0  0  0  0  0  0  0  0  0  0  0  0
  139.0226   68.0752  224.6169 H   0  0  0  0  0  0  0  0  0  0  0  0
  137.9074   69.5029  224.7207 H   0  0  0  0  0  0  0  0  0  0  0  0
  140.5420   69.2819  223.2027 H   0  0  0  0  0  0  0  0  0  0  0  0
  138.9038   69.5870  222.5430 H   0  0  0  0  0  0  0  0  0  0  0  0
  134.8150   73.3050  221.9810 H   0  0  0  0  0  0  0  0  0  0  0  0
  134.2595   71.1193  220.8262 H   0  0  0  0  0  0  0  0  0  0  0  0
  135.7920   70.4798  221.5203 H   0  0  0  0  0  0  0  0  0  0  0  0
  133.4302   71.5731  223.1462 H   0  0  0  0  0  0  0  0  0  0  0  0
  133.8112   69.8198  222.8688 H   0  0  0  0  0  0  0  0  0  0  0  0
  136.0470   71.2800  223.8650 H   0  0  0  0  0  0  0  0  0  0  0  0
  135.7183   68.8508  223.6982 H   0  0  0  0  0  0  0  0  0  0  0  0
  136.3505   69.5139  225.2603 H   0  0  0  0  0  0  0  0  0  0  0  0
  133.4475   68.7326  224.6803 H   0  0  0  0  0  0  0  0  0  0  0  0
  134.6274   67.7998  225.6733 H   0  0  0  0  0  0  0  0  0  0  0  0
  132.6377   70.7067  225.4142 H   0  0  0  0  0  0  0  0  0  0  0  0
  133.2470   71.4241  226.9600 H   0  0  0  0  0  0  0  0  0  0  0  0
  134.1635   72.5467  224.9033 H   0  0  0  0  0  0  0  0  0  0  0  0
  135.4292   71.8155  225.9842 H   0  0  0  0  0  0  0  0  0  0  0  0
  136.8715   74.7534  220.9165 H   0  0  0  0  0  0  0  0  0  0  0  0
  140.9137   74.5140  219.9784 H   0  0  0  0  0  0  0  0  0  0  0  0
  139.6031   75.4338  219.1383 H   0  0  0  0  0  0  0  0  0  0  0  0
  142.0017   76.4657  219.1714 H   0  0  0  0  0  0  0  0  0  0  0  0
  140.6090   77.5239  219.5899 H   0  0  0  0  0  0  0  0  0  0  0  0
  142.5050   77.6990  221.1170 H   0  0  0  0  0  0  0  0  0  0  0  0
  142.3170   76.0700  221.5470 H   0  0  0  0  0  0  0  0  0  0  0  0
  141.1529   76.9866  223.2187 H   0  0  0  0  0  0  0  0  0  0  0  0
  140.6885   78.4097  222.1696 H   0  0  0  0  0  0  0  0  0  0  0  0
  138.9187   76.5150  222.9528 H   0  0  0  0  0  0  0  0  0  0  0  0
  138.8118   77.4190  221.3894 H   0  0  0  0  0  0  0  0  0  0  0  0
  141.7383   71.3904  224.2946 H   0  0  0  0  0  0  0  0  0  0  0  0
  140.5881   72.6692  224.8447 H   0  0  0  0  0  0  0  0  0  0  0  0
  1  2  2  0
  2  3  1  0
  3  4  2  0
  4  5  1  0
  5  6  2  0
  5  7  1  0
  7  8  1  0
  8  9  1  0
  9 10  1  0
 10 11  2  0
 11 12  1  0
 12 13  1  0
 13 14  1  0
 14 15  1  0
 15 16  1  0
 16 17  1  0
 17 18  1  0
 18 19  1  0
 19 20  1  0
 20 21  1  0
 12 22  2  0
 22 23  1  0
 23 24  1  0
 24 25  1  0
 25 26  1  0
 26 27  1  0
 27 28  1  0
 28 29  1  0
 23 30  2  0
  9 31  1  0
  6  1  1  0
 30 10  1  0
 31  4  1  0
 21 16  1  0
 29 24  1  0
  1 32  1  0
  2 33  1  0
  3 34  1  0
  6 35  1  0
  7 36  1  0
  7 37  1  0
  8 38  1  0
  8 39  1  0
 13 40  1  0
 14 41  1  0
 14 42  1  0
 15 43  1  0
 15 44  1  0
 16 45  1  0
 17 46  1  0
 17 47  1  0
 18 48  1  0
 18 49  1  0
 20 50  1  0
 20 51  1  0
 21 52  1  0
 21 53  1  0
 22 54  1  0
 25 55  1  0
 25 56  1  0
 26 57  1  0
 26 58  1  0
 27 59  1  0
 27 60  1  0
 28 61  1  0
 28 62  1  0
 29 63  1  0
 29 64  1  0
 31 65  1  0
 31 66  1  0
M  CHG  2  16   1  27   1
M  END
>  <UniqueID>  (4) 
484

>  <SMILES>  (4) 
c1ccc2c(c1)CCN(c1nc(NCC[NH+]3CCOCC3)cc(N3CC[NH2+]CC3)n1)C2

>  <Energy>  (4) 
85.75868760980674

>  <Genealogy>  (4) 
c1ccc2c(c1)CCN(c1nc(NCC[NH+]3CCOCC3)cc(N3CC[NH2+]CC3)n1)C2 (protonated)
c1ccc2c(c1)CCN(c1nc(NCC[NH+]3CCOCC3)cc(N3CC[NH2+]CC3)n1)C2 (3D coordinates assigned)
c1ccc2c(c1)CCN(c1nc(NCC[NH+]3CCOCC3)cc(N3CC[NH2+]CC3)n1)C2 (nonaromatic ring conformer: 85.75868760980674 kcal/mol)

>  <smiles>  (4) 
c1ccc2c(c1)CCN(c1nc(NCCN3CCOCC3)cc(N3CCNCC3)n1)C2

>  <score_type>  (4) 
oracle

>  <origin>  (4) 
autodockgpu

>  <m_score__min__energy>  (4) 
-8.2200000000000006

>  <m_primary>  (4) 
energy

>  <meeko>  (4) 
{"free_energy": -7.3, "intermolecular_energy": -9.09, "internal_energy": -1.94, "cluster_size": 17, "cluster_id": 1, "rank_in_cluster": 11}

>  <energy>  (4) 
-7.8

>  <cluster_rmsd>  (4) 
0.42

>  <rmsd>  (4) 
269.36

>  <cluster>  (4) 
1

$$$$
DRRGDEWGQQLPRW-DOJXPLJYNA-P
     RDKit          3D

 66 70  0  0  0  0  0  0  0  0999 V2000
  142.3360   81.5260  223.8440 C   0  0  0  0  0  0  0  0  0  0  0  0
  142.5540   80.1980  224.2140 C   0  0  0  0  0  0  0  0  0  0  0  0
  142.2530   79.1640  223.3240 C   0  0  0  0  0  0  0  0  0  0  0  0
  141.7380   79.4490  222.0500 C   0  0  0  0  0  0  0  0  0  0  0  0
  141.4870   80.7950  221.6860 C   0  0  0  0  0  0  0  0  0  0  0  0
  141.8080   81.8230  222.5860 C   0  0  0  0  0  0  0  0  0  0  0  0
  140.9590   81.1580  220.3160 C   0  0  0  0  0  0  0  0  0  0  0  0
  140.2940   79.9670  219.6280 C   0  0  0  0  0  0  0  0  0  0  0  0
  141.1650   78.7940  219.7590 N   0  0  0  0  0  0  0  0  0  0  0  0
  141.8550   78.2340  218.6210 C   0  0  0  0  0  0  0  0  0  0  0  0
  142.4760   77.0280  218.7160 N   0  0  0  0  0  0  0  0  0  0  0  0
  143.1580   76.4900  217.6710 C   0  0  0  0  0  0  0  0  0  0  0  0
  143.7920   75.2130  217.8380 N   0  0  0  0  0  0  0  0  0  0  0  0
  143.0740   73.9400  217.7530 C   0  0  0  0  0  0  0  0  0  0  0  0
  141.7960   74.0000  218.6090 C   0  0  0  0  0  0  0  0  0  0  0  0
  142.0530   74.5810  219.9570 N   0  0  0  0  0  0  0  0  0  0  0  0
  142.5630   73.5660  220.9080 C   0  0  0  0  0  0  0  0  0  0  0  0
  141.4410   72.6370  221.3940 C   0  0  0  0  0  0  0  0  0  0  0  0
  140.4220   73.3880  222.0230 O   0  0  0  0  0  0  0  0  0  0  0  0
  139.8280   74.2590  221.0820 C   0  0  0  0  0  0  0  0  0  0  0  0
  140.8570   75.2580  220.5180 C   0  0  0  0  0  0  0  0  0  0  0  0
  143.2040   77.1850  216.4540 C   0  0  0  0  0  0  0  0  0  0  0  0
  142.5560   78.4270  216.3560 C   0  0  0  0  0  0  0  0  0  0  0  0
  142.5730   79.1950  215.1300 N   0  0  0  0  0  0  0  0  0  0  0  0
  143.2120   78.6650  213.9150 C   0  0  0  0  0  0  0  0  0  0  0  0
  143.4560   79.7800  212.8890 C   0  0  0  0  0  0  0  0  0  0  0  0
  143.9440   80.9870  213.5730 N   0  0  0  0  0  0  0  0  0  0  0  0
  142.9340   81.5720  214.4800 C   0  0  0  0  0  0  0  0  0  0  0  0
  141.9560   80.5330  215.0680 C   0  0  0  0  0  0  0  0  0  0  0  0
  141.9060   78.9130  217.4460 N   0  0  0  0  0  0  0  0  0  0  0  0
  141.3940   78.3060  221.1240 C   0  0  0  0  0  0  0  0  0  0  0  0
  142.5802   82.3389  224.5437 H   0  0  0  0  0  0  0  0  0  0  0  0
  142.9635   79.9651  225.2080 H   0  0  0  0  0  0  0  0  0  0  0  0
  142.4209   78.1191  223.6240 H   0  0  0  0  0  0  0  0  0  0  0  0
  141.6422   82.8716  222.2979 H   0  0  0  0  0  0  0  0  0  0  0  0
  140.2197   81.9656  220.4223 H   0  0  0  0  0  0  0  0  0  0  0  0
  141.8097   81.4782  219.6965 H   0  0  0  0  0  0  0  0  0  0  0  0
  139.3236   79.7610  220.1032 H   0  0  0  0  0  0  0  0  0  0  0  0
  140.1332   80.1941  218.5638 H   0  0  0  0  0  0  0  0  0  0  0  0
  144.8270   75.1780  217.7010 H   0  0  0  0  0  0  0  0  0  0  0  0
  142.8022   73.7440  216.7053 H   0  0  0  0  0  0  0  0  0  0  0  0
  143.7221   73.1335  218.1266 H   0  0  0  0  0  0  0  0  0  0  0  0
  141.0505   74.6212  218.0909 H   0  0  0  0  0  0  0  0  0  0  0  0
  141.4310   72.9715  218.7466 H   0  0  0  0  0  0  0  0  0  0  0  0
  142.8100   75.3010  219.8680 H   0  0  0  0  0  0  0  0  0  0  0  0
  143.3348   72.9629  220.4074 H   0  0  0  0  0  0  0  0  0  0  0  0
  142.9804   74.0894  221.7808 H   0  0  0  0  0  0  0  0  0  0  0  0
  141.0169   72.0988  220.5335 H   0  0  0  0  0  0  0  0  0  0  0  0
  141.8570   71.9207  222.1178 H   0  0  0  0  0  0  0  0  0  0  0  0
  139.4146   73.6643  220.2541 H   0  0  0  0  0  0  0  0  0  0  0  0
  139.0330   74.8269  221.5874 H   0  0  0  0  0  0  0  0  0  0  0  0
  140.3782   75.8469  219.7218 H   0  0  0  0  0  0  0  0  0  0  0  0
  141.1919   75.8990  221.3469 H   0  0  0  0  0  0  0  0  0  0  0  0
  143.7390   76.7641  215.5900 H   0  0  0  0  0  0  0  0  0  0  0  0
  144.1755   78.2084  214.1856 H   0  0  0  0  0  0  0  0  0  0  0  0
  142.5426   77.9166  213.4657 H   0  0  0  0  0  0  0  0  0  0  0  0
  144.2067   79.4457  212.1577 H   0  0  0  0  0  0  0  0  0  0  0  0
  142.5129   80.0112  212.3721 H   0  0  0  0  0  0  0  0  0  0  0  0
  144.2100   81.6990  212.8510 H   0  0  0  0  0  0  0  0  0  0  0  0
  144.8090   80.7460  214.1180 H   0  0  0  0  0  0  0  0  0  0  0  0
  143.4579   82.0660  215.3116 H   0  0  0  0  0  0  0  0  0  0  0  0
  142.3357   82.2773  213.8845 H   0  0  0  0  0  0  0  0  0  0  0  0
  141.6704   80.8438  216.0838 H   0  0  0  0  0  0  0  0  0  0  0  0
  141.0718   80.4789  214.4158 H   0  0  0  0  0  0  0  0  0  0  0  0
  140.4824   77.8090  221.4873 H   0  0  0  0  0  0  0  0  0  0  0  0
  142.2355   77.5977  221.1094 H   0  0  0  0  0  0  0  0  0  0  0  0
  1  2  2  0
  2  3  1  0
  3  4  2  0
  4  5  1  0
  5  6  2  0
  5  7  1  0
  7  8  1  0
  8  9  1  0
  9 10  1  0
 10 11  2  0
 11 12  1  0
 12 13  1  0
 13 14  1  0
 14 15  1  0
 15 16  1  0
 16 17  1  0
 17 18  1  0
 18 19  1  0
 19 20  1  0
 20 21  1  0
 12 22  2  0
 22 23  1  0
 23 24  1  0
 24 25  1  0
 25 26  1  0
 26 27  1  0
 27 28  1  0
 28 29  1  0
 23 30  2  0
  9 31  1  0
  6  1  1  0
 30 10  1  0
 31  4  1  0
 21 16  1  0
 29 24  1  0
  1 32  1  0
  2 33  1  0
  3 34  1  0
  6 35  1  0
  7 36  1  0
  7 37  1  0
  8 38  1  0
  8 39  1  0
 13 40  1  0
 14 41  1  0
 14 42  1  0
 15 43  1  0
 15 44  1  0
 16 45  1  0
 17 46  1  0
 17 47  1  0
 18 48  1  0
 18 49  1  0
 20 50  1  0
 20 51  1  0
 21 52  1  0
 21 53  1  0
 22 54  1  0
 25 55  1  0
 25 56  1  0
 26 57  1  0
 26 58  1  0
 27 59  1  0
 27 60  1  0
 28 61  1  0
 28 62  1  0
 29 63  1  0
 29 64  1  0
 31 65  1  0
 31 66  1  0
M  CHG  2  16   1  27   1
M  END
>  <UniqueID>  (5) 
484

>  <SMILES>  (5) 
c1ccc2c(c1)CCN(c1nc(NCC[NH+]3CCOCC3)cc(N3CC[NH2+]CC3)n1)C2

>  <Energy>  (5) 
85.75868760980674

>  <Genealogy>  (5) 
c1ccc2c(c1)CCN(c1nc(NCC[NH+]3CCOCC3)cc(N3CC[NH2+]CC3)n1)C2 (protonated)
c1ccc2c(c1)CCN(c1nc(NCC[NH+]3CCOCC3)cc(N3CC[NH2+]CC3)n1)C2 (3D coordinates assigned)
c1ccc2c(c1)CCN(c1nc(NCC[NH+]3CCOCC3)cc(N3CC[NH2+]CC3)n1)C2 (nonaromatic ring conformer: 85.75868760980674 kcal/mol)

>  <smiles>  (5) 
c1ccc2c(c1)CCN(c1nc(NCCN3CCOCC3)cc(N3CCNCC3)n1)C2

>  <score_type>  (5) 
oracle

>  <origin>  (5) 
autodockgpu

>  <m_score__min__energy>  (5) 
-8.2200000000000006

>  <m_primary>  (5) 
energy

>  <meeko>  (5) 
{"free_energy": -7.04, "intermolecular_energy": -8.83, "internal_energy": -1.83, "cluster_size": 2, "cluster_id": 2, "rank_in_cluster": 2}

>  <energy>  (5) 
-7.77

>  <cluster_rmsd>  (5) 
0.43

>  <rmsd>  (5) 
269.37

>  <cluster>  (5) 
1

$$$$
DRRGDEWGQQLPRW-DOJXPLJYNA-P
     RDKit          3D

 66 70  0  0  0  0  0  0  0  0999 V2000
  140.0650   68.9640  227.9910 C   0  0  0  0  0  0  0  0  0  0  0  0
  140.8650   70.1030  228.0920 C   0  0  0  0  0  0  0  0  0  0  0  0
  141.0570   70.9260  226.9780 C   0  0  0  0  0  0  0  0  0  0  0  0
  140.4420   70.6200  225.7540 C   0  0  0  0  0  0  0  0  0  0  0  0
  139.6570   69.4460  225.6440 C   0  0  0  0  0  0  0  0  0  0  0  0
  139.4610   68.6380  226.7750 C   0  0  0  0  0  0  0  0  0  0  0  0
  138.9500   69.0870  224.3550 C   0  0  0  0  0  0  0  0  0  0  0  0
  139.5630   69.8000  223.1510 C   0  0  0  0  0  0  0  0  0  0  0  0
  139.7490   71.2160  223.4810 N   0  0  0  0  0  0  0  0  0  0  0  0
  138.9500   72.2480  222.8610 C   0  0  0  0  0  0  0  0  0  0  0  0
  137.6010   72.1120  222.7640 N   0  0  0  0  0  0  0  0  0  0  0  0
  136.8280   73.0530  222.1600 C   0  0  0  0  0  0  0  0  0  0  0  0
  135.4090   72.8470  222.0910 N   0  0  0  0  0  0  0  0  0  0  0  0
  134.5140   73.0150  223.2370 C   0  0  0  0  0  0  0  0  0  0  0  0
  134.1880   71.6430  223.8540 C   0  0  0  0  0  0  0  0  0  0  0  0
  135.3340   70.6970  223.7510 N   0  0  0  0  0  0  0  0  0  0  0  0
  135.1260   69.6900  222.6840 C   0  0  0  0  0  0  0  0  0  0  0  0
  134.1240   68.6110  223.1170 C   0  0  0  0  0  0  0  0  0  0  0  0
  134.5810   67.9580  224.2830 O   0  0  0  0  0  0  0  0  0  0  0  0
  134.6430   68.8840  225.3490 C   0  0  0  0  0  0  0  0  0  0  0  0
  135.6310   70.0270  225.0410 C   0  0  0  0  0  0  0  0  0  0  0  0
  137.4340   74.2060  221.6430 C   0  0  0  0  0  0  0  0  0  0  0  0
  138.8270   74.3490  221.7500 C   0  0  0  0  0  0  0  0  0  0  0  0
  139.5110   75.5120  221.2300 N   0  0  0  0  0  0  0  0  0  0  0  0
  140.3410   75.4230  220.0180 C   0  0  0  0  0  0  0  0  0  0  0  0
  141.2620   76.6440  219.8890 C   0  0  0  0  0  0  0  0  0  0  0  0
  141.8240   76.9840  221.2040 N   0  0  0  0  0  0  0  0  0  0  0  0
  140.7910   77.4350  222.1620 C   0  0  0  0  0  0  0  0  0  0  0  0
  139.3990   76.8180  221.9050 C   0  0  0  0  0  0  0  0  0  0  0  0
  139.5410   73.3610  222.3530 N   0  0  0  0  0  0  0  0  0  0  0  0
  140.6960   71.5120  224.5620 C   0  0  0  0  0  0  0  0  0  0  0  0
  139.9100   68.3220  228.8707 H   0  0  0  0  0  0  0  0  0  0  0  0
  141.3452   70.3537  229.0493 H   0  0  0  0  0  0  0  0  0  0  0  0
  141.6940   71.8189  227.0614 H   0  0  0  0  0  0  0  0  0  0  0  0
  138.8272   67.7418  226.7028 H   0  0  0  0  0  0  0  0  0  0  0  0
  139.0233   68.0004  224.2000 H   0  0  0  0  0  0  0  0  0  0  0  0
  137.9007   69.4055  224.4417 H   0  0  0  0  0  0  0  0  0  0  0  0
  140.5356   69.3465  222.9092 H   0  0  0  0  0  0  0  0  0  0  0  0
  138.8953   69.7047  222.2821 H   0  0  0  0  0  0  0  0  0  0  0  0
  134.9710   72.8890  221.1440 H   0  0  0  0  0  0  0  0  0  0  0  0
  135.0036   73.6473  223.9923 H   0  0  0  0  0  0  0  0  0  0  0  0
  133.5812   73.4912  222.9007 H   0  0  0  0  0  0  0  0  0  0  0  0
  133.9369   71.7820  224.9159 H   0  0  0  0  0  0  0  0  0  0  0  0
  133.3422   71.2131  223.2975 H   0  0  0  0  0  0  0  0  0  0  0  0
  136.1870   71.2400  223.4750 H   0  0  0  0  0  0  0  0  0  0  0  0
  134.7415   70.1952  221.7857 H   0  0  0  0  0  0  0  0  0  0  0  0
  136.0901   69.2026  222.4765 H   0  0  0  0  0  0  0  0  0  0  0  0
  133.1507   69.0808  223.3219 H   0  0  0  0  0  0  0  0  0  0  0  0
  134.0226   67.8716  222.3089 H   0  0  0  0  0  0  0  0  0  0  0  0
  133.6420   69.3098  225.5125 H   0  0  0  0  0  0  0  0  0  0  0  0
  134.9926   68.3556  226.2482 H   0  0  0  0  0  0  0  0  0  0  0  0
  135.5724   70.7721  225.8481 H   0  0  0  0  0  0  0  0  0  0  0  0
  136.6381   69.5904  224.9689 H   0  0  0  0  0  0  0  0  0  0  0  0
  136.8279   74.9871  221.1608 H   0  0  0  0  0  0  0  0  0  0  0  0
  140.9563   74.5126  220.0698 H   0  0  0  0  0  0  0  0  0  0  0  0
  139.6774   75.3913  219.1413 H   0  0  0  0  0  0  0  0  0  0  0  0
  142.0800   76.4125  219.1909 H   0  0  0  0  0  0  0  0  0  0  0  0
  140.6821   77.4983  219.5096 H   0  0  0  0  0  0  0  0  0  0  0  0
  142.5320   77.7470  221.0810 H   0  0  0  0  0  0  0  0  0  0  0  0
  142.3210   76.1450  221.5930 H   0  0  0  0  0  0  0  0  0  0  0  0
  141.1126   77.1574  223.1766 H   0  0  0  0  0  0  0  0  0  0  0  0
  140.6895   78.5233  222.0388 H   0  0  0  0  0  0  0  0  0  0  0  0
  138.8838   76.6815  222.8673 H   0  0  0  0  0  0  0  0  0  0  0  0
  138.8310   77.4989  221.2541 H   0  0  0  0  0  0  0  0  0  0  0  0
  141.7212   71.3465  224.1992 H   0  0  0  0  0  0  0  0  0  0  0  0
  140.5644   72.5597  224.8702 H   0  0  0  0  0  0  0  0  0  0  0  0
  1  2  2  0
  2  3  1  0
  3  4  2  0
  4  5  1  0
  5  6  2  0
  5  7  1  0
  7  8  1  0
  8  9  1  0
  9 10  1  0
 10 11  2  0
 11 12  1  0
 12 13  1  0
 13 14  1  0
 14 15  1  0
 15 16  1  0
 16 17  1  0
 17 18  1  0
 18 19  1  0
 19 20  1  0
 20 21  1  0
 12 22  2  0
 22 23  1  0
 23 24  1  0
 24 25  1  0
 25 26  1  0
 26 27  1  0
 27 28  1  0
 28 29  1  0
 23 30  2  0
  9 31  1  0
  6  1  1  0
 30 10  1  0
 31  4  1  0
 21 16  1  0
 29 24  1  0
  1 32  1  0
  2 33  1  0
  3 34  1  0
  6 35  1  0
  7 36  1  0
  7 37  1  0
  8 38  1  0
  8 39  1  0
 13 40  1  0
 14 41  1  0
 14 42  1  0
 15 43  1  0
 15 44  1  0
 16 45  1  0
 17 46  1  0
 17 47  1  0
 18 48  1  0
 18 49  1  0
 20 50  1  0
 20 51  1  0
 21 52  1  0
 21 53  1  0
 22 54  1  0
 25 55  1  0
 25 56  1  0
 26 57  1  0
 26 58  1  0
 27 59  1  0
 27 60  1  0
 28 61  1  0
 28 62  1  0
 29 63  1  0
 29 64  1  0
 31 65  1  0
 31 66  1  0
M  CHG  2  16   1  27   1
M  END
>  <UniqueID>  (6) 
484

>  <SMILES>  (6) 
c1ccc2c(c1)CCN(c1nc(NCC[NH+]3CCOCC3)cc(N3CC[NH2+]CC3)n1)C2

>  <Energy>  (6) 
85.75868760980674

>  <Genealogy>  (6) 
c1ccc2c(c1)CCN(c1nc(NCC[NH+]3CCOCC3)cc(N3CC[NH2+]CC3)n1)C2 (protonated)
c1ccc2c(c1)CCN(c1nc(NCC[NH+]3CCOCC3)cc(N3CC[NH2+]CC3)n1)C2 (3D coordinates assigned)
c1ccc2c(c1)CCN(c1nc(NCC[NH+]3CCOCC3)cc(N3CC[NH2+]CC3)n1)C2 (nonaromatic ring conformer: 85.75868760980674 kcal/mol)

>  <smiles>  (6) 
c1ccc2c(c1)CCN(c1nc(NCCN3CCOCC3)cc(N3CCNCC3)n1)C2

>  <score_type>  (6) 
oracle

>  <origin>  (6) 
autodockgpu

>  <m_score__min__energy>  (6) 
-8.2200000000000006

>  <m_primary>  (6) 
energy

>  <meeko>  (6) 
{"free_energy": -7.22, "intermolecular_energy": -9.01, "internal_energy": -2.14, "cluster_size": 17, "cluster_id": 1, "rank_in_cluster": 14}

>  <energy>  (6) 
-7.59

>  <cluster_rmsd>  (6) 
1.2

>  <rmsd>  (6) 
269.49

>  <cluster>  (6) 
1

$$$$
DRRGDEWGQQLPRW-DOJXPLJYNA-P
     RDKit          3D

 66 70  0  0  0  0  0  0  0  0999 V2000
  137.6500   80.5620  224.3720 C   0  0  0  0  0  0  0  0  0  0  0  0
  137.4720   81.6560  223.5240 C   0  0  0  0  0  0  0  0  0  0  0  0
  138.4580   81.9870  222.5900 C   0  0  0  0  0  0  0  0  0  0  0  0
  139.6290   81.2190  222.4900 C   0  0  0  0  0  0  0  0  0  0  0  0
  139.8220   80.1280  223.3730 C   0  0  0  0  0  0  0  0  0  0  0  0
  138.8160   79.8000  224.2950 C   0  0  0  0  0  0  0  0  0  0  0  0
  141.0530   79.2520  223.2870 C   0  0  0  0  0  0  0  0  0  0  0  0
  142.1970   79.9460  222.5530 C   0  0  0  0  0  0  0  0  0  0  0  0
  141.6760   80.5500  221.3220 N   0  0  0  0  0  0  0  0  0  0  0  0
  142.0220   80.0300  220.0190 C   0  0  0  0  0  0  0  0  0  0  0  0
  142.2070   78.6960  219.8350 N   0  0  0  0  0  0  0  0  0  0  0  0
  142.5610   78.1820  218.6280 C   0  0  0  0  0  0  0  0  0  0  0  0
  142.7420   76.7640  218.5020 N   0  0  0  0  0  0  0  0  0  0  0  0
  141.6590   75.8420  218.1570 C   0  0  0  0  0  0  0  0  0  0  0  0
  140.5470   75.9150  219.2200 C   0  0  0  0  0  0  0  0  0  0  0  0
  141.0990   75.9700  220.6020 N   0  0  0  0  0  0  0  0  0  0  0  0
  141.8240   74.7270  220.9570 C   0  0  0  0  0  0  0  0  0  0  0  0
  140.8530   73.5780  221.2650 C   0  0  0  0  0  0  0  0  0  0  0  0
  139.9970   73.9340  222.3320 O   0  0  0  0  0  0  0  0  0  0  0  0
  139.1950   75.0320  221.9480 C   0  0  0  0  0  0  0  0  0  0  0  0
  140.0570   76.2660  221.6160 C   0  0  0  0  0  0  0  0  0  0  0  0
  142.7190   79.0480  217.5370 C   0  0  0  0  0  0  0  0  0  0  0  0
  142.5200   80.4250  217.7270 C   0  0  0  0  0  0  0  0  0  0  0  0
  142.6740   81.3690  216.6410 N   0  0  0  0  0  0  0  0  0  0  0  0
  142.2010   81.0460  215.2860 C   0  0  0  0  0  0  0  0  0  0  0  0
  142.8130   81.9960  214.2470 C   0  0  0  0  0  0  0  0  0  0  0  0
  144.2340   82.2170  214.5530 N   0  0  0  0  0  0  0  0  0  0  0  0
  144.4340   82.9340  215.8300 C   0  0  0  0  0  0  0  0  0  0  0  0
  143.3160   82.6780  216.8640 C   0  0  0  0  0  0  0  0  0  0  0  0
  142.1820   80.8720  218.9650 N   0  0  0  0  0  0  0  0  0  0  0  0
  140.6890   81.6220  221.4930 C   0  0  0  0  0  0  0  0  0  0  0  0
  136.8699   80.3002  225.1020 H   0  0  0  0  0  0  0  0  0  0  0  0
  136.5543   82.2588  223.5907 H   0  0  0  0  0  0  0  0  0  0  0  0
  138.3155   82.8547  221.9292 H   0  0  0  0  0  0  0  0  0  0  0  0
  138.9479   78.9354  224.9621 H   0  0  0  0  0  0  0  0  0  0  0  0
  141.3838   79.0030  224.3061 H   0  0  0  0  0  0  0  0  0  0  0  0
  140.7870   78.3458  222.7231 H   0  0  0  0  0  0  0  0  0  0  0  0
  142.6264   80.7290  223.1952 H   0  0  0  0  0  0  0  0  0  0  0  0
  142.9795   79.2134  222.3059 H   0  0  0  0  0  0  0  0  0  0  0  0
  143.7160   76.4240  218.3410 H   0  0  0  0  0  0  0  0  0  0  0  0
  141.2442   76.1179  217.1763 H   0  0  0  0  0  0  0  0  0  0  0  0
  142.0557   74.8167  218.1190 H   0  0  0  0  0  0  0  0  0  0  0  0
  139.9444   76.8179  219.0421 H   0  0  0  0  0  0  0  0  0  0  0  0
  139.9351   75.0049  219.1346 H   0  0  0  0  0  0  0  0  0  0  0  0
  141.8080   76.7410  220.6460 H   0  0  0  0  0  0  0  0  0  0  0  0
  142.4673   74.4351  220.1138 H   0  0  0  0  0  0  0  0  0  0  0  0
  142.4242   74.9227  221.8578 H   0  0  0  0  0  0  0  0  0  0  0  0
  140.2491   73.3633  220.3710 H   0  0  0  0  0  0  0  0  0  0  0  0
  141.4311   72.6870  221.5511 H   0  0  0  0  0  0  0  0  0  0  0  0
  138.6092   74.7544  221.0593 H   0  0  0  0  0  0  0  0  0  0  0  0
  138.5314   75.2876  222.7872 H   0  0  0  0  0  0  0  0  0  0  0  0
  139.4024   77.0607  221.2287 H   0  0  0  0  0  0  0  0  0  0  0  0
  140.5661   76.5787  222.5396 H   0  0  0  0  0  0  0  0  0  0  0  0
  142.9946   78.6549  216.5473 H   0  0  0  0  0  0  0  0  0  0  0  0
  142.4886   80.0127  215.0417 H   0  0  0  0  0  0  0  0  0  0  0  0
  141.1070   81.1585  215.2613 H   0  0  0  0  0  0  0  0  0  0  0  0
  142.7197   81.5512  213.2453 H   0  0  0  0  0  0  0  0  0  0  0  0
  142.2806   82.9582  214.2753 H   0  0  0  0  0  0  0  0  0  0  0  0
  144.6620   82.7770  213.7760 H   0  0  0  0  0  0  0  0  0  0  0  0
  144.7260   81.2900  214.5890 H   0  0  0  0  0  0  0  0  0  0  0  0
  145.3909   82.6096  216.2649 H   0  0  0  0  0  0  0  0  0  0  0  0
  144.4220   84.0099  215.6014 H   0  0  0  0  0  0  0  0  0  0  0  0
  143.7503   82.6973  217.8745 H   0  0  0  0  0  0  0  0  0  0  0  0
  142.5536   83.4634  216.7549 H   0  0  0  0  0  0  0  0  0  0  0  0
  141.1986   82.5275  221.8542 H   0  0  0  0  0  0  0  0  0  0  0  0
  140.2066   81.8159  220.5236 H   0  0  0  0  0  0  0  0  0  0  0  0
  1  2  2  0
  2  3  1  0
  3  4  2  0
  4  5  1  0
  5  6  2  0
  5  7  1  0
  7  8  1  0
  8  9  1  0
  9 10  1  0
 10 11  2  0
 11 12  1  0
 12 13  1  0
 13 14  1  0
 14 15  1  0
 15 16  1  0
 16 17  1  0
 17 18  1  0
 18 19  1  0
 19 20  1  0
 20 21  1  0
 12 22  2  0
 22 23  1  0
 23 24  1  0
 24 25  1  0
 25 26  1  0
 26 27  1  0
 27 28  1  0
 28 29  1  0
 23 30  2  0
  9 31  1  0
  6  1  1  0
 30 10  1  0
 31  4  1  0
 21 16  1  0
 29 24  1  0
  1 32  1  0
  2 33  1  0
  3 34  1  0
  6 35  1  0
  7 36  1  0
  7 37  1  0
  8 38  1  0
  8 39  1  0
 13 40  1  0
 14 41  1  0
 14 42  1  0
 15 43  1  0
 15 44  1  0
 16 45  1  0
 17 46  1  0
 17 47  1  0
 18 48  1  0
 18 49  1  0
 20 50  1  0
 20 51  1  0
 21 52  1  0
 21 53  1  0
 22 54  1  0
 25 55  1  0
 25 56  1  0
 26 57  1  0
 26 58  1  0
 27 59  1  0
 27 60  1  0
 28 61  1  0
 28 62  1  0
 29 63  1  0
 29 64  1  0
 31 65  1  0
 31 66  1  0
M  CHG  2  16   1  27   1
M  END
>  <UniqueID>  (7) 
484

>  <SMILES>  (7) 
c1ccc2c(c1)CCN(c1nc(NCC[NH+]3CCOCC3)cc(N3CC[NH2+]CC3)n1)C2

>  <Energy>  (7) 
85.75868760980674

>  <Genealogy>  (7) 
c1ccc2c(c1)CCN(c1nc(NCC[NH+]3CCOCC3)cc(N3CC[NH2+]CC3)n1)C2 (protonated)
c1ccc2c(c1)CCN(c1nc(NCC[NH+]3CCOCC3)cc(N3CC[NH2+]CC3)n1)C2 (3D coordinates assigned)
c1ccc2c(c1)CCN(c1nc(NCC[NH+]3CCOCC3)cc(N3CC[NH2+]CC3)n1)C2 (nonaromatic ring conformer: 85.75868760980674 kcal/mol)

>  <smiles>  (7) 
c1ccc2c(c1)CCN(c1nc(NCCN3CCOCC3)cc(N3CCNCC3)n1)C2

>  <score_type>  (7) 
oracle

>  <origin>  (7) 
autodockgpu

>  <m_score__min__energy>  (7) 
-8.2200000000000006

>  <m_primary>  (7) 
energy

>  <meeko>  (7) 
{"free_energy": -7.46, "intermolecular_energy": -9.25, "internal_energy": -1.98, "cluster_size": 2, "cluster_id": 2, "rank_in_cluster": 1}

>  <energy>  (7) 
-7.55

>  <cluster_rmsd>  (7) 
0.61

>  <rmsd>  (7) 
269.36

>  <cluster>  (7) 
1

$$$$
DRRGDEWGQQLPRW-DOJXPLJYNA-P
     RDKit          3D

 66 70  0  0  0  0  0  0  0  0999 V2000
  140.0720   69.2570  228.3340 C   0  0  0  0  0  0  0  0  0  0  0  0
  140.8780   70.3960  228.3390 C   0  0  0  0  0  0  0  0  0  0  0  0
  141.0720   71.1230  227.1620 C   0  0  0  0  0  0  0  0  0  0  0  0
  140.4520   70.7230  225.9680 C   0  0  0  0  0  0  0  0  0  0  0  0
  139.6590   69.5490  225.9560 C   0  0  0  0  0  0  0  0  0  0  0  0
  139.4620   68.8370  227.1500 C   0  0  0  0  0  0  0  0  0  0  0  0
  138.9470   69.0900  224.7030 C   0  0  0  0  0  0  0  0  0  0  0  0
  139.5610   69.6980  223.4430 C   0  0  0  0  0  0  0  0  0  0  0  0
  139.7560   71.1360  223.6550 N   0  0  0  0  0  0  0  0  0  0  0  0
  138.9620   72.1180  222.9550 C   0  0  0  0  0  0  0  0  0  0  0  0
  137.6270   71.9310  222.7820 N   0  0  0  0  0  0  0  0  0  0  0  0
  136.8610   72.8240  222.1020 C   0  0  0  0  0  0  0  0  0  0  0  0
  135.4570   72.5650  221.9550 N   0  0  0  0  0  0  0  0  0  0  0  0
  134.9000   71.2250  221.7600 C   0  0  0  0  0  0  0  0  0  0  0  0
  134.1730   70.7680  223.0380 C   0  0  0  0  0  0  0  0  0  0  0  0
  135.0800   70.7470  224.2200 N   0  0  0  0  0  0  0  0  0  0  0  0
  135.4560   69.3660  224.6030 C   0  0  0  0  0  0  0  0  0  0  0  0
  134.3070   68.6500  225.3260 C   0  0  0  0  0  0  0  0  0  0  0  0
  133.9370   69.3660  226.4860 O   0  0  0  0  0  0  0  0  0  0  0  0
  133.4370   70.6360  226.1180 C   0  0  0  0  0  0  0  0  0  0  0  0
  134.5070   71.4670  225.3840 C   0  0  0  0  0  0  0  0  0  0  0  0
  137.4580   73.9820  221.5850 C   0  0  0  0  0  0  0  0  0  0  0  0
  138.8360   74.1780  221.7710 C   0  0  0  0  0  0  0  0  0  0  0  0
  139.5100   75.3490  221.2550 N   0  0  0  0  0  0  0  0  0  0  0  0
  140.3270   75.2740  220.0330 C   0  0  0  0  0  0  0  0  0  0  0  0
  141.2420   76.5000  219.9050 C   0  0  0  0  0  0  0  0  0  0  0  0
  141.8180   76.8290  221.2180 N   0  0  0  0  0  0  0  0  0  0  0  0
  140.7950   77.2660  222.1910 C   0  0  0  0  0  0  0  0  0  0  0  0
  139.4020   76.6480  221.9440 C   0  0  0  0  0  0  0  0  0  0  0  0
  139.5450   73.2350  222.4470 N   0  0  0  0  0  0  0  0  0  0  0  0
  140.7080   71.5130  224.7060 C   0  0  0  0  0  0  0  0  0  0  0  0
  139.9169   68.6894  229.2634 H   0  0  0  0  0  0  0  0  0  0  0  0
  141.3616   70.7221  229.2716 H   0  0  0  0  0  0  0  0  0  0  0  0
  141.7152   72.0153  227.1710 H   0  0  0  0  0  0  0  0  0  0  0  0
  138.8226   67.9419  227.1529 H   0  0  0  0  0  0  0  0  0  0  0  0
  139.0135   67.9940  224.6376 H   0  0  0  0  0  0  0  0  0  0  0  0
  137.8999   69.4210  224.7655 H   0  0  0  0  0  0  0  0  0  0  0  0
  140.5304   69.2204  223.2373 H   0  0  0  0  0  0  0  0  0  0  0  0
  138.8905   69.5355  222.5863 H   0  0  0  0  0  0  0  0  0  0  0  0
  134.8010   73.2980  222.3080 H   0  0  0  0  0  0  0  0  0  0  0  0
  134.1873   71.2447  220.9223 H   0  0  0  0  0  0  0  0  0  0  0  0
  135.7166   70.5225  221.5373 H   0  0  0  0  0  0  0  0  0  0  0  0
  133.3421   71.4598  223.2404 H   0  0  0  0  0  0  0  0  0  0  0  0
  133.8073   69.7438  222.8726 H   0  0  0  0  0  0  0  0  0  0  0  0
  135.9730   71.2300  223.9600 H   0  0  0  0  0  0  0  0  0  0  0  0
  135.7142   68.8011  223.6951 H   0  0  0  0  0  0  0  0  0  0  0  0
  136.3147   69.4197  225.2884 H   0  0  0  0  0  0  0  0  0  0  0  0
  133.4412   68.5798  224.6511 H   0  0  0  0  0  0  0  0  0  0  0  0
  134.6397   67.6429  225.6176 H   0  0  0  0  0  0  0  0  0  0  0  0
  132.5701   70.5014  225.4544 H   0  0  0  0  0  0  0  0  0  0  0  0
  133.1467   71.1735  227.0327 H   0  0  0  0  0  0  0  0  0  0  0  0
  134.0475   72.4018  225.0303 H   0  0  0  0  0  0  0  0  0  0  0  0
  135.3246   71.6638  226.0931 H   0  0  0  0  0  0  0  0  0  0  0  0
  136.8564   74.7258  221.0420 H   0  0  0  0  0  0  0  0  0  0  0  0
  140.9462   74.3656  220.0698 H   0  0  0  0  0  0  0  0  0  0  0  0
  139.6540   75.2475  219.1633 H   0  0  0  0  0  0  0  0  0  0  0  0
  142.0528   76.2785  219.1953 H   0  0  0  0  0  0  0  0  0  0  0  0
  140.6549   77.3558  219.5403 H   0  0  0  0  0  0  0  0  0  0  0  0
  142.5220   77.5950  221.0940 H   0  0  0  0  0  0  0  0  0  0  0  0
  142.3220   75.9880  221.5920 H   0  0  0  0  0  0  0  0  0  0  0  0
  141.1289   76.9788  223.1990 H   0  0  0  0  0  0  0  0  0  0  0  0
  140.6887   78.3552  222.0795 H   0  0  0  0  0  0  0  0  0  0  0  0
  138.8982   76.5007  222.9107 H   0  0  0  0  0  0  0  0  0  0  0  0
  138.8246   77.3337  221.3065 H   0  0  0  0  0  0  0  0  0  0  0  0
  141.7310   71.3117  224.3554 H   0  0  0  0  0  0  0  0  0  0  0  0
  140.5838   72.5832  224.9278 H   0  0  0  0  0  0  0  0  0  0  0  0
  1  2  2  0
  2  3  1  0
  3  4  2  0
  4  5  1  0
  5  6  2  0
  5  7  1  0
  7  8  1  0
  8  9  1  0
  9 10  1  0
 10 11  2  0
 11 12  1  0
 12 13  1  0
 13 14  1  0
 14 15  1  0
 15 16  1  0
 16 17  1  0
 17 18  1  0
 18 19  1  0
 19 20  1  0
 20 21  1  0
 12 22  2  0
 22 23  1  0
 23 24  1  0
 24 25  1  0
 25 26  1  0
 26 27  1  0
 27 28  1  0
 28 29  1  0
 23 30  2  0
  9 31  1  0
  6  1  1  0
 30 10  1  0
 31  4  1  0
 21 16  1  0
 29 24  1  0
  1 32  1  0
  2 33  1  0
  3 34  1  0
  6 35  1  0
  7 36  1  0
  7 37  1  0
  8 38  1  0
  8 39  1  0
 13 40  1  0
 14 41  1  0
 14 42  1  0
 15 43  1  0
 15 44  1  0
 16 45  1  0
 17 46  1  0
 17 47  1  0
 18 48  1  0
 18 49  1  0
 20 50  1  0
 20 51  1  0
 21 52  1  0
 21 53  1  0
 22 54  1  0
 25 55  1  0
 25 56  1  0
 26 57  1  0
 26 58  1  0
 27 59  1  0
 27 60  1  0
 28 61  1  0
 28 62  1  0
 29 63  1  0
 29 64  1  0
 31 65  1  0
 31 66  1  0
M  CHG  2  16   1  27   1
M  END
>  <UniqueID>  (8) 
484

>  <SMILES>  (8) 
c1ccc2c(c1)CCN(c1nc(NCC[NH+]3CCOCC3)cc(N3CC[NH2+]CC3)n1)C2

>  <Energy>  (8) 
85.75868760980674

>  <Genealogy>  (8) 
c1ccc2c(c1)CCN(c1nc(NCC[NH+]3CCOCC3)cc(N3CC[NH2+]CC3)n1)C2 (protonated)
c1ccc2c(c1)CCN(c1nc(NCC[NH+]3CCOCC3)cc(N3CC[NH2+]CC3)n1)C2 (3D coordinates assigned)
c1ccc2c(c1)CCN(c1nc(NCC[NH+]3CCOCC3)cc(N3CC[NH2+]CC3)n1)C2 (nonaromatic ring conformer: 85.75868760980674 kcal/mol)

>  <smiles>  (8) 
c1ccc2c(c1)CCN(c1nc(NCCN3CCOCC3)cc(N3CCNCC3)n1)C2

>  <score_type>  (8) 
oracle

>  <origin>  (8) 
autodockgpu

>  <m_score__min__energy>  (8) 
-8.2200000000000006

>  <m_primary>  (8) 
energy

>  <meeko>  (8) 
{"free_energy": -7.33, "intermolecular_energy": -9.12, "internal_energy": -1.93, "cluster_size": 17, "cluster_id": 1, "rank_in_cluster": 10}

>  <energy>  (8) 
-7.47

>  <cluster_rmsd>  (8) 
0.74

>  <rmsd>  (8) 
269.36

>  <cluster>  (8) 
1

$$$$
DRRGDEWGQQLPRW-DOJXPLJYNA-P
     RDKit          3D

 66 70  0  0  0  0  0  0  0  0999 V2000
  139.9540   69.9560  228.3600 C   0  0  0  0  0  0  0  0  0  0  0  0
  140.7990   71.0620  228.2640 C   0  0  0  0  0  0  0  0  0  0  0  0
  141.0300   71.6620  227.0230 C   0  0  0  0  0  0  0  0  0  0  0  0
  140.4090   71.1670  225.8660 C   0  0  0  0  0  0  0  0  0  0  0  0
  139.5760   70.0250  225.9590 C   0  0  0  0  0  0  0  0  0  0  0  0
  139.3420   69.4420  227.2150 C   0  0  0  0  0  0  0  0  0  0  0  0
  138.8610   69.4680  224.7480 C   0  0  0  0  0  0  0  0  0  0  0  0
  139.5080   69.9270  223.4430 C   0  0  0  0  0  0  0  0  0  0  0  0
  139.7520   71.3710  223.5150 N   0  0  0  0  0  0  0  0  0  0  0  0
  138.9990   72.3060  222.7110 C   0  0  0  0  0  0  0  0  0  0  0  0
  137.7350   72.0090  222.3080 N   0  0  0  0  0  0  0  0  0  0  0  0
  137.0160   72.8560  221.5260 C   0  0  0  0  0  0  0  0  0  0  0  0
  135.6860   72.4810  221.1350 N   0  0  0  0  0  0  0  0  0  0  0  0
  134.5000   73.2800  221.4450 C   0  0  0  0  0  0  0  0  0  0  0  0
  133.9670   72.9100  222.8410 C   0  0  0  0  0  0  0  0  0  0  0  0
  135.0480   72.8950  223.8660 N   0  0  0  0  0  0  0  0  0  0  0  0
  134.7080   72.0240  225.0150 C   0  0  0  0  0  0  0  0  0  0  0  0
  133.6800   72.6900  225.9400 C   0  0  0  0  0  0  0  0  0  0  0  0
  134.1820   73.9190  226.4260 O   0  0  0  0  0  0  0  0  0  0  0  0
  134.3720   74.8110  225.3460 C   0  0  0  0  0  0  0  0  0  0  0  0
  135.3980   74.2580  224.3370 C   0  0  0  0  0  0  0  0  0  0  0  0
  137.5810   74.0800  221.1430 C   0  0  0  0  0  0  0  0  0  0  0  0
  138.8850   74.3890  221.5660 C   0  0  0  0  0  0  0  0  0  0  0  0
  139.5250   75.6320  221.1980 N   0  0  0  0  0  0  0  0  0  0  0  0
  140.2700   75.7550  219.9350 C   0  0  0  0  0  0  0  0  0  0  0  0
  141.1730   76.9960  219.9450 C   0  0  0  0  0  0  0  0  0  0  0  0
  141.8230   77.1260  221.2580 N   0  0  0  0  0  0  0  0  0  0  0  0
  140.8570   77.3980  222.3430 C   0  0  0  0  0  0  0  0  0  0  0  0
  139.4540   76.8090  222.0840 C   0  0  0  0  0  0  0  0  0  0  0  0
  139.5530   73.4870  222.3330 N   0  0  0  0  0  0  0  0  0  0  0  0
  140.7050   71.8180  224.5370 C   0  0  0  0  0  0  0  0  0  0  0  0
  139.7697   69.4885  229.3385 H   0  0  0  0  0  0  0  0  0  0  0  0
  141.2842   71.4624  229.1664 H   0  0  0  0  0  0  0  0  0  0  0  0
  141.7036   72.5288  226.9527 H   0  0  0  0  0  0  0  0  0  0  0  0
  138.6715   68.5739  227.2974 H   0  0  0  0  0  0  0  0  0  0  0  0
  138.8901   68.3693  224.7921 H   0  0  0  0  0  0  0  0  0  0  0  0
  137.8253   69.8384  224.7635 H   0  0  0  0  0  0  0  0  0  0  0  0
  140.4617   69.3983  223.2979 H   0  0  0  0  0  0  0  0  0  0  0  0
  138.8402   69.7040  222.5978 H   0  0  0  0  0  0  0  0  0  0  0  0
  135.6000   71.7980  220.3490 H   0  0  0  0  0  0  0  0  0  0  0  0
  134.7649   74.3475  221.4272 H   0  0  0  0  0  0  0  0  0  0  0  0
  133.7212   73.0767  220.6953 H   0  0  0  0  0  0  0  0  0  0  0  0
  133.2067   73.6475  223.1377 H   0  0  0  0  0  0  0  0  0  0  0  0
  133.5393   71.8981  222.7839 H   0  0  0  0  0  0  0  0  0  0  0  0
  135.9090   72.4810  223.4330 H   0  0  0  0  0  0  0  0  0  0  0  0
  134.2895   71.0798  224.6364 H   0  0  0  0  0  0  0  0  0  0  0  0
  135.6257   71.8412  225.5933 H   0  0  0  0  0  0  0  0  0  0  0  0
  132.7519   72.8734  225.3788 H   0  0  0  0  0  0  0  0  0  0  0  0
  133.4795   72.0232  226.7916 H   0  0  0  0  0  0  0  0  0  0  0  0
  133.4108   74.9626  224.8330 H   0  0  0  0  0  0  0  0  0  0  0  0
  134.7546   75.7622  225.7444 H   0  0  0  0  0  0  0  0  0  0  0  0
  135.4390   74.9324  223.4689 H   0  0  0  0  0  0  0  0  0  0  0  0
  136.3712   74.1980  224.8461 H   0  0  0  0  0  0  0  0  0  0  0  0
  137.0128   74.7875  220.5212 H   0  0  0  0  0  0  0  0  0  0  0  0
  140.8925   74.8588  219.7963 H   0  0  0  0  0  0  0  0  0  0  0  0
  139.5476   75.8550  219.1115 H   0  0  0  0  0  0  0  0  0  0  0  0
  141.9419   76.8950  219.1649 H   0  0  0  0  0  0  0  0  0  0  0  0
  140.5640   77.8910  219.7500 H   0  0  0  0  0  0  0  0  0  0  0  0
  142.5170   77.9110  221.2130 H   0  0  0  0  0  0  0  0  0  0  0  0
  142.3500   76.2440  221.4690 H   0  0  0  0  0  0  0  0  0  0  0  0
  141.2495   76.9645  223.2747 H   0  0  0  0  0  0  0  0  0  0  0  0
  140.7416   78.4901  222.4055 H   0  0  0  0  0  0  0  0  0  0  0  0
  139.0079   76.5093  223.0438 H   0  0  0  0  0  0  0  0  0  0  0  0
  138.8386   77.5776  221.5935 H   0  0  0  0  0  0  0  0  0  0  0  0
  141.7241   71.5487  224.2224 H   0  0  0  0  0  0  0  0  0  0  0  0
  140.6152   72.9085  224.6504 H   0  0  0  0  0  0  0  0  0  0  0  0
  1  2  2  0
  2  3  1  0
  3  4  2  0
  4  5  1  0
  5  6  2  0
  5  7  1  0
  7  8  1  0
  8  9  1  0
  9 10  1  0
 10 11  2  0
 11 12  1  0
 12 13  1  0
 13 14  1  0
 14 15  1  0
 15 16  1  0
 16 17  1  0
 17 18  1  0
 18 19  1  0
 19 20  1  0
 20 21  1  0
 12 22  2  0
 22 23  1  0
 23 24  1  0
 24 25  1  0
 25 26  1  0
 26 27  1  0
 27 28  1  0
 28 29  1  0
 23 30  2  0
  9 31  1  0
  6  1  1  0
 30 10  1  0
 31  4  1  0
 21 16  1  0
 29 24  1  0
  1 32  1  0
  2 33  1  0
  3 34  1  0
  6 35  1  0
  7 36  1  0
  7 37  1  0
  8 38  1  0
  8 39  1  0
 13 40  1  0
 14 41  1  0
 14 42  1  0
 15 43  1  0
 15 44  1  0
 16 45  1  0
 17 46  1  0
 17 47  1  0
 18 48  1  0
 18 49  1  0
 20 50  1  0
 20 51  1  0
 21 52  1  0
 21 53  1  0
 22 54  1  0
 25 55  1  0
 25 56  1  0
 26 57  1  0
 26 58  1  0
 27 59  1  0
 27 60  1  0
 28 61  1  0
 28 62  1  0
 29 63  1  0
 29 64  1  0
 31 65  1  0
 31 66  1  0
M  CHG  2  16   1  27   1
M  END
>  <UniqueID>  (9) 
484

>  <SMILES>  (9) 
c1ccc2c(c1)CCN(c1nc(NCC[NH+]3CCOCC3)cc(N3CC[NH2+]CC3)n1)C2

>  <Energy>  (9) 
85.75868760980674

>  <Genealogy>  (9) 
c1ccc2c(c1)CCN(c1nc(NCC[NH+]3CCOCC3)cc(N3CC[NH2+]CC3)n1)C2 (protonated)
c1ccc2c(c1)CCN(c1nc(NCC[NH+]3CCOCC3)cc(N3CC[NH2+]CC3)n1)C2 (3D coordinates assigned)
c1ccc2c(c1)CCN(c1nc(NCC[NH+]3CCOCC3)cc(N3CC[NH2+]CC3)n1)C2 (nonaromatic ring conformer: 85.75868760980674 kcal/mol)

>  <smiles>  (9) 
c1ccc2c(c1)CCN(c1nc(NCCN3CCOCC3)cc(N3CCNCC3)n1)C2

>  <score_type>  (9) 
oracle

>  <origin>  (9) 
autodockgpu

>  <m_score__min__energy>  (9) 
-8.2200000000000006

>  <m_primary>  (9) 
energy

>  <meeko>  (9) 
{"free_energy": -7.77, "intermolecular_energy": -9.56, "internal_energy": -1.75, "cluster_size": 17, "cluster_id": 1, "rank_in_cluster": 5}

>  <energy>  (9) 
-7.4

>  <cluster_rmsd>  (9) 
1.31

>  <rmsd>  (9) 
269.42

>  <cluster>  (9) 
1

$$$$
DRRGDEWGQQLPRW-DOJXPLJYNA-P
     RDKit          3D

 66 70  0  0  0  0  0  0  0  0999 V2000
  139.9660   69.1470  228.2040 C   0  0  0  0  0  0  0  0  0  0  0  0
  140.8210   70.2470  228.2690 C   0  0  0  0  0  0  0  0  0  0  0  0
  141.0700   71.0100  227.1250 C   0  0  0  0  0  0  0  0  0  0  0  0
  140.4580   70.6840  225.9050 C   0  0  0  0  0  0  0  0  0  0  0  0
  139.6150   69.5470  225.8330 C   0  0  0  0  0  0  0  0  0  0  0  0
  139.3640   68.8000  226.9940 C   0  0  0  0  0  0  0  0  0  0  0  0
  138.9090   69.1680  224.5500 C   0  0  0  0  0  0  0  0  0  0  0  0
  139.5740   69.7960  223.3260 C   0  0  0  0  0  0  0  0  0  0  0  0
  139.8270   71.2150  223.5980 N   0  0  0  0  0  0  0  0  0  0  0  0
  139.0910   72.2580  222.9220 C   0  0  0  0  0  0  0  0  0  0  0  0
  137.7310   72.2660  222.9410 N   0  0  0  0  0  0  0  0  0  0  0  0
  137.0130   73.2170  222.2890 C   0  0  0  0  0  0  0  0  0  0  0  0
  135.5790   73.1670  222.3480 N   0  0  0  0  0  0  0  0  0  0  0  0
  134.8260   71.9400  222.6090 C   0  0  0  0  0  0  0  0  0  0  0  0
  135.4650   70.7600  221.8540 C   0  0  0  0  0  0  0  0  0  0  0  0
  136.2580   69.8820  222.7590 N   0  0  0  0  0  0  0  0  0  0  0  0
  136.2200   68.4650  222.3260 C   0  0  0  0  0  0  0  0  0  0  0  0
  134.8780   67.8070  222.6730 C   0  0  0  0  0  0  0  0  0  0  0  0
  134.6470   67.8700  224.0650 O   0  0  0  0  0  0  0  0  0  0  0  0
  134.5340   69.2210  224.4640 C   0  0  0  0  0  0  0  0  0  0  0  0
  135.8330   69.9990  224.1760 C   0  0  0  0  0  0  0  0  0  0  0  0
  137.6890   74.2320  221.5990 C   0  0  0  0  0  0  0  0  0  0  0  0
  139.0940   74.2270  221.5870 C   0  0  0  0  0  0  0  0  0  0  0  0
  139.8490   75.2430  220.8870 N   0  0  0  0  0  0  0  0  0  0  0  0
  140.8680   74.8760  219.8910 C   0  0  0  0  0  0  0  0  0  0  0  0
  141.7920   76.0630  219.5840 C   0  0  0  0  0  0  0  0  0  0  0  0
  142.1260   76.7680  220.8300 N   0  0  0  0  0  0  0  0  0  0  0  0
  140.9470   77.4040  221.4550 C   0  0  0  0  0  0  0  0  0  0  0  0
  139.6200   76.6740  221.1570 C   0  0  0  0  0  0  0  0  0  0  0  0
  139.7490   73.2350  222.2470 N   0  0  0  0  0  0  0  0  0  0  0  0
  140.7730   71.5090  224.6810 C   0  0  0  0  0  0  0  0  0  0  0  0
  139.7661   68.5524  229.1076 H   0  0  0  0  0  0  0  0  0  0  0  0
  141.3001   70.5144  229.2224 H   0  0  0  0  0  0  0  0  0  0  0  0
  141.7506   71.8723  227.1812 H   0  0  0  0  0  0  0  0  0  0  0  0
  138.6872   67.9339  226.9499 H   0  0  0  0  0  0  0  0  0  0  0  0
  138.9291   68.0734  224.4431 H   0  0  0  0  0  0  0  0  0  0  0  0
  137.8762   69.5424  224.6062 H   0  0  0  0  0  0  0  0  0  0  0  0
  140.5256   69.2843  223.1196 H   0  0  0  0  0  0  0  0  0  0  0  0
  138.9145   69.6961  222.4513 H   0  0  0  0  0  0  0  0  0  0  0  0
  135.0820   74.0690  222.5230 H   0  0  0  0  0  0  0  0  0  0  0  0
  134.8351   71.7296  223.6886 H   0  0  0  0  0  0  0  0  0  0  0  0
  133.7900   72.0715  222.2635 H   0  0  0  0  0  0  0  0  0  0  0  0
  134.6673   70.1624  221.3887 H   0  0  0  0  0  0  0  0  0  0  0  0
  136.1477   71.1715  221.0960 H   0  0  0  0  0  0  0  0  0  0  0  0
  137.2630   70.1740  222.7060 H   0  0  0  0  0  0  0  0  0  0  0  0
  136.3693   68.4198  221.2371 H   0  0  0  0  0  0  0  0  0  0  0  0
  137.0177   67.9213  222.8534 H   0  0  0  0  0  0  0  0  0  0  0  0
  134.0686   68.3339  222.1465 H   0  0  0  0  0  0  0  0  0  0  0  0
  134.9055   66.7522  222.3621 H   0  0  0  0  0  0  0  0  0  0  0  0
  133.7056   69.6897  223.9126 H   0  0  0  0  0  0  0  0  0  0  0  0
  134.3447   69.2491  225.5472 H   0  0  0  0  0  0  0  0  0  0  0  0
  135.6680   71.0613  224.4091 H   0  0  0  0  0  0  0  0  0  0  0  0
  136.6284   69.5687  224.8022 H   0  0  0  0  0  0  0  0  0  0  0  0
  137.1286   75.0203  221.0750 H   0  0  0  0  0  0  0  0  0  0  0  0
  141.4706   74.0435  220.2832 H   0  0  0  0  0  0  0  0  0  0  0  0
  140.3586   74.5798  218.9621 H   0  0  0  0  0  0  0  0  0  0  0  0
  142.7157   75.6949  219.1136 H   0  0  0  0  0  0  0  0  0  0  0  0
  141.2792   76.7557  218.9005 H   0  0  0  0  0  0  0  0  0  0  0  0
  142.8410   77.5040  220.6190 H   0  0  0  0  0  0  0  0  0  0  0  0
  142.5560   76.0870  221.5050 H   0  0  0  0  0  0  0  0  0  0  0  0
  141.0976   77.4206  222.5445 H   0  0  0  0  0  0  0  0  0  0  0  0
  140.8619   78.4145  221.0288 H   0  0  0  0  0  0  0  0  0  0  0  0
  138.9527   76.7731  222.0259 H   0  0  0  0  0  0  0  0  0  0  0  0
  139.1644   77.1287  220.2650 H   0  0  0  0  0  0  0  0  0  0  0  0
  141.7933   71.2765  224.3419 H   0  0  0  0  0  0  0  0  0  0  0  0
  140.6904   72.5743  224.9424 H   0  0  0  0  0  0  0  0  0  0  0  0
  1  2  2  0
  2  3  1  0
  3  4  2  0
  4  5  1  0
  5  6  2  0
  5  7  1  0
  7  8  1  0
  8  9  1  0
  9 10  1  0
 10 11  2  0
 11 12  1  0
 12 13  1  0
 13 14  1  0
 14 15  1  0
 15 16  1  0
 16 17  1  0
 17 18  1  0
 18 19  1  0
 19 20  1  0
 20 21  1  0
 12 22  2  0
 22 23  1  0
 23 24  1  0
 24 25  1  0
 25 26  1  0
 26 27  1  0
 27 28  1  0
 28 29  1  0
 23 30  2  0
  9 31  1  0
  6  1  1  0
 30 10  1  0
 31  4  1  0
 21 16  1  0
 29 24  1  0
  1 32  1  0
  2 33  1  0
  3 34  1  0
  6 35  1  0
  7 36  1  0
  7 37  1  0
  8 38  1  0
  8 39  1  0
 13 40  1  0
 14 41  1  0
 14 42  1  0
 15 43  1  0
 15 44  1  0
 16 45  1  0
 17 46  1  0
 17 47  1  0
 18 48  1  0
 18 49  1  0
 20 50  1  0
 20 51  1  0
 21 52  1  0
 21 53  1  0
 22 54  1  0
 25 55  1  0
 25 56  1  0
 26 57  1  0
 26 58  1  0
 27 59  1  0
 27 60  1  0
 28 61  1  0
 28 62  1  0
 29 63  1  0
 29 64  1  0
 31 65  1  0
 31 66  1  0
M  CHG  2  16   1  27   1
M  END
>  <UniqueID>  (10) 
484

>  <SMILES>  (10) 
c1ccc2c(c1)CCN(c1nc(NCC[NH+]3CCOCC3)cc(N3CC[NH2+]CC3)n1)C2

>  <Energy>  (10) 
85.75868760980674

>  <Genealogy>  (10) 
c1ccc2c(c1)CCN(c1nc(NCC[NH+]3CCOCC3)cc(N3CC[NH2+]CC3)n1)C2 (protonated)
c1ccc2c(c1)CCN(c1nc(NCC[NH+]3CCOCC3)cc(N3CC[NH2+]CC3)n1)C2 (3D coordinates assigned)
c1ccc2c(c1)CCN(c1nc(NCC[NH+]3CCOCC3)cc(N3CC[NH2+]CC3)n1)C2 (nonaromatic ring conformer: 85.75868760980674 kcal/mol)

>  <smiles>  (10) 
c1ccc2c(c1)CCN(c1nc(NCCN3CCOCC3)cc(N3CCNCC3)n1)C2

>  <score_type>  (10) 
oracle

>  <origin>  (10) 
autodockgpu

>  <m_score__min__energy>  (10) 
-8.2200000000000006

>  <m_primary>  (10) 
energy

>  <meeko>  (10) 
{"free_energy": -6.87, "intermolecular_energy": -8.66, "internal_energy": -1.87, "cluster_size": 1, "cluster_id": 3, "rank_in_cluster": 1}

>  <energy>  (10) 
-7.33

>  <cluster_rmsd>  (10) 
1.62

>  <rmsd>  (10) 
269.29

>  <cluster>  (10) 
1

$$$$
DRRGDEWGQQLPRW-DOJXPLJYNA-P
     RDKit          3D

 66 70  0  0  0  0  0  0  0  0999 V2000
  140.0600   70.0740  228.3590 C   0  0  0  0  0  0  0  0  0  0  0  0
  140.9650   71.1200  228.1770 C   0  0  0  0  0  0  0  0  0  0  0  0
  141.1600   71.6640  226.9040 C   0  0  0  0  0  0  0  0  0  0  0  0
  140.4440   71.1710  225.8020 C   0  0  0  0  0  0  0  0  0  0  0  0
  139.5490   70.0880  225.9830 C   0  0  0  0  0  0  0  0  0  0  0  0
  139.3530   69.5620  227.2700 C   0  0  0  0  0  0  0  0  0  0  0  0
  138.7320   69.5380  224.8340 C   0  0  0  0  0  0  0  0  0  0  0  0
  139.3290   69.9120  223.4800 C   0  0  0  0  0  0  0  0  0  0  0  0
  139.6640   71.3400  223.4860 N   0  0  0  0  0  0  0  0  0  0  0  0
  138.9250   72.2940  222.6910 C   0  0  0  0  0  0  0  0  0  0  0  0
  137.6570   72.0190  222.2850 N   0  0  0  0  0  0  0  0  0  0  0  0
  136.9500   72.8840  221.5130 C   0  0  0  0  0  0  0  0  0  0  0  0
  135.6150   72.5320  221.1180 N   0  0  0  0  0  0  0  0  0  0  0  0
  134.4170   73.0250  221.7990 C   0  0  0  0  0  0  0  0  0  0  0  0
  134.0980   72.1340  223.0130 C   0  0  0  0  0  0  0  0  0  0  0  0
  135.1070   72.2860  224.0990 N   0  0  0  0  0  0  0  0  0  0  0  0
  134.7580   71.4830  225.2940 C   0  0  0  0  0  0  0  0  0  0  0  0
  133.6240   72.1330  226.0970 C   0  0  0  0  0  0  0  0  0  0  0  0
  133.9970   73.4330  226.5080 O   0  0  0  0  0  0  0  0  0  0  0  0
  134.1900   74.2500  225.3710 C   0  0  0  0  0  0  0  0  0  0  0  0
  135.3200   73.7060  224.4760 C   0  0  0  0  0  0  0  0  0  0  0  0
  137.5330   74.1040  221.1430 C   0  0  0  0  0  0  0  0  0  0  0  0
  138.8410   74.3900  221.5690 C   0  0  0  0  0  0  0  0  0  0  0  0
  139.4980   75.6280  221.2140 N   0  0  0  0  0  0  0  0  0  0  0  0
  140.2340   75.7580  219.9460 C   0  0  0  0  0  0  0  0  0  0  0  0
  141.1580   76.9830  219.9670 C   0  0  0  0  0  0  0  0  0  0  0  0
  141.8210   77.0830  221.2750 N   0  0  0  0  0  0  0  0  0  0  0  0
  140.8700   77.3540  222.3740 C   0  0  0  0  0  0  0  0  0  0  0  0
  139.4540   76.7930  222.1180 C   0  0  0  0  0  0  0  0  0  0  0  0
  139.4960   73.4710  222.3260 N   0  0  0  0  0  0  0  0  0  0  0  0
  140.7010   71.7590  224.4350 C   0  0  0  0  0  0  0  0  0  0  0  0
  139.9034   69.6520  229.3627 H   0  0  0  0  0  0  0  0  0  0  0  0
  141.5257   71.5171  229.0360 H   0  0  0  0  0  0  0  0  0  0  0  0
  141.8797   72.4842  226.7650 H   0  0  0  0  0  0  0  0  0  0  0  0
  138.6372   68.7406  227.4211 H   0  0  0  0  0  0  0  0  0  0  0  0
  138.6961   68.4417  224.9161 H   0  0  0  0  0  0  0  0  0  0  0  0
  137.7237   69.9737  224.8938 H   0  0  0  0  0  0  0  0  0  0  0  0
  140.2388   69.3201  223.3015 H   0  0  0  0  0  0  0  0  0  0  0  0
  138.6015   69.7035  222.6817 H   0  0  0  0  0  0  0  0  0  0  0  0
  135.4890   72.1790  220.1430 H   0  0  0  0  0  0  0  0  0  0  0  0
  134.5899   74.0566  222.1395 H   0  0  0  0  0  0  0  0  0  0  0  0
  133.5681   73.0006  221.0999 H   0  0  0  0  0  0  0  0  0  0  0  0
  133.1088   72.4110  223.4063 H   0  0  0  0  0  0  0  0  0  0  0  0
  134.1148   71.0862  222.6785 H   0  0  0  0  0  0  0  0  0  0  0  0
  136.0230   71.9110  223.7550 H   0  0  0  0  0  0  0  0  0  0  0  0
  134.4383   70.4814  224.9706 H   0  0  0  0  0  0  0  0  0  0  0  0
  135.6464   71.4213  225.9396 H   0  0  0  0  0  0  0  0  0  0  0  0
  132.7236   72.1955  225.4682 H   0  0  0  0  0  0  0  0  0  0  0  0
  133.4196   71.5208  226.9878 H   0  0  0  0  0  0  0  0  0  0  0  0
  133.2565   74.2817  224.7900 H   0  0  0  0  0  0  0  0  0  0  0  0
  134.4711   75.2576  225.7112 H   0  0  0  0  0  0  0  0  0  0  0  0
  135.3677   74.3119  223.5592 H   0  0  0  0  0  0  0  0  0  0  0  0
  136.2587   73.7652  225.0464 H   0  0  0  0  0  0  0  0  0  0  0  0
  136.9751   74.8261  220.5287 H   0  0  0  0  0  0  0  0  0  0  0  0
  140.8398   74.8536  219.7878 H   0  0  0  0  0  0  0  0  0  0  0  0
  139.5062   75.8831  219.1307 H   0  0  0  0  0  0  0  0  0  0  0  0
  141.9184   76.8806  219.1788 H   0  0  0  0  0  0  0  0  0  0  0  0
  140.5623   77.8908  219.7909 H   0  0  0  0  0  0  0  0  0  0  0  0
  142.5280   77.8560  221.2360 H   0  0  0  0  0  0  0  0  0  0  0  0
  142.3350   76.1880  221.4690 H   0  0  0  0  0  0  0  0  0  0  0  0
  141.2634   76.8985  223.2947 H   0  0  0  0  0  0  0  0  0  0  0  0
  140.7743   78.4468  222.4560 H   0  0  0  0  0  0  0  0  0  0  0  0
  139.0105   76.4867  223.0769 H   0  0  0  0  0  0  0  0  0  0  0  0
  138.8478   77.5792  221.6443 H   0  0  0  0  0  0  0  0  0  0  0  0
  141.6814   71.4158  224.0730 H   0  0  0  0  0  0  0  0  0  0  0  0
  140.6853   72.8561  224.5137 H   0  0  0  0  0  0  0  0  0  0  0  0
  1  2  2  0
  2  3  1  0
  3  4  2  0
  4  5  1  0
  5  6  2  0
  5  7  1  0
  7  8  1  0
  8  9  1  0
  9 10  1  0
 10 11  2  0
 11 12  1  0
 12 13  1  0
 13 14  1  0
 14 15  1  0
 15 16  1  0
 16 17  1  0
 17 18  1  0
 18 19  1  0
 19 20  1  0
 20 21  1  0
 12 22  2  0
 22 23  1  0
 23 24  1  0
 24 25  1  0
 25 26  1  0
 26 27  1  0
 27 28  1  0
 28 29  1  0
 23 30  2  0
  9 31  1  0
  6  1  1  0
 30 10  1  0
 31  4  1  0
 21 16  1  0
 29 24  1  0
  1 32  1  0
  2 33  1  0
  3 34  1  0
  6 35  1  0
  7 36  1  0
  7 37  1  0
  8 38  1  0
  8 39  1  0
 13 40  1  0
 14 41  1  0
 14 42  1  0
 15 43  1  0
 15 44  1  0
 16 45  1  0
 17 46  1  0
 17 47  1  0
 18 48  1  0
 18 49  1  0
 20 50  1  0
 20 51  1  0
 21 52  1  0
 21 53  1  0
 22 54  1  0
 25 55  1  0
 25 56  1  0
 26 57  1  0
 26 58  1  0
 27 59  1  0
 27 60  1  0
 28 61  1  0
 28 62  1  0
 29 63  1  0
 29 64  1  0
 31 65  1  0
 31 66  1  0
M  CHG  2  16   1  27   1
M  END
>  <UniqueID>  (11) 
484

>  <SMILES>  (11) 
c1ccc2c(c1)CCN(c1nc(NCC[NH+]3CCOCC3)cc(N3CC[NH2+]CC3)n1)C2

>  <Energy>  (11) 
85.75868760980674

>  <Genealogy>  (11) 
c1ccc2c(c1)CCN(c1nc(NCC[NH+]3CCOCC3)cc(N3CC[NH2+]CC3)n1)C2 (protonated)
c1ccc2c(c1)CCN(c1nc(NCC[NH+]3CCOCC3)cc(N3CC[NH2+]CC3)n1)C2 (3D coordinates assigned)
c1ccc2c(c1)CCN(c1nc(NCC[NH+]3CCOCC3)cc(N3CC[NH2+]CC3)n1)C2 (nonaromatic ring conformer: 85.75868760980674 kcal/mol)

>  <smiles>  (11) 
c1ccc2c(c1)CCN(c1nc(NCCN3CCOCC3)cc(N3CCNCC3)n1)C2

>  <score_type>  (11) 
oracle

>  <origin>  (11) 
autodockgpu

>  <m_score__min__energy>  (11) 
-8.2200000000000006

>  <m_primary>  (11) 
energy

>  <meeko>  (11) 
{"free_energy": -7.55, "intermolecular_energy": -9.34, "internal_energy": -1.83, "cluster_size": 17, "cluster_id": 1, "rank_in_cluster": 7}

>  <energy>  (11) 
-7.3

>  <cluster_rmsd>  (11) 
1.54

>  <rmsd>  (11) 
269.27

>  <cluster>  (11) 
1

$$$$
DRRGDEWGQQLPRW-DOJXPLJYNA-P
     RDKit          3D

 66 70  0  0  0  0  0  0  0  0999 V2000
  139.8980   69.9300  228.3480 C   0  0  0  0  0  0  0  0  0  0  0  0
  140.7360   71.0430  228.2740 C   0  0  0  0  0  0  0  0  0  0  0  0
  140.9780   71.6580  227.0420 C   0  0  0  0  0  0  0  0  0  0  0  0
  140.3750   71.1690  225.8720 C   0  0  0  0  0  0  0  0  0  0  0  0
  139.5490   70.0190  225.9440 C   0  0  0  0  0  0  0  0  0  0  0  0
  139.3050   69.4220  227.1900 C   0  0  0  0  0  0  0  0  0  0  0  0
  138.8540   69.4690  224.7180 C   0  0  0  0  0  0  0  0  0  0  0  0
  139.5140   69.9460  223.4260 C   0  0  0  0  0  0  0  0  0  0  0  0
  139.7450   71.3920  223.5150 N   0  0  0  0  0  0  0  0  0  0  0  0
  138.9950   72.3280  222.7110 C   0  0  0  0  0  0  0  0  0  0  0  0
  137.7330   72.0320  222.3020 N   0  0  0  0  0  0  0  0  0  0  0  0
  137.0160   72.8810  221.5200 C   0  0  0  0  0  0  0  0  0  0  0  0
  135.6890   72.5060  221.1220 N   0  0  0  0  0  0  0  0  0  0  0  0
  134.5250   72.6070  222.0040 C   0  0  0  0  0  0  0  0  0  0  0  0
  134.6220   73.8840  222.8590 C   0  0  0  0  0  0  0  0  0  0  0  0
  135.4610   73.6810  224.0720 N   0  0  0  0  0  0  0  0  0  0  0  0
  135.0200   72.5050  224.8590 C   0  0  0  0  0  0  0  0  0  0  0  0
  133.7410   72.8070  225.6520 C   0  0  0  0  0  0  0  0  0  0  0  0
  133.9530   73.8950  226.5280 O   0  0  0  0  0  0  0  0  0  0  0  0
  134.2310   75.0590  225.7770 C   0  0  0  0  0  0  0  0  0  0  0  0
  135.5100   74.8880  224.9340 C   0  0  0  0  0  0  0  0  0  0  0  0
  137.5820   74.1070  221.1440 C   0  0  0  0  0  0  0  0  0  0  0  0
  138.8840   74.4150  221.5730 C   0  0  0  0  0  0  0  0  0  0  0  0
  139.5250   75.6600  221.2120 N   0  0  0  0  0  0  0  0  0  0  0  0
  140.5100   75.7150  220.1210 C   0  0  0  0  0  0  0  0  0  0  0  0
  141.3290   77.0120  220.1810 C   0  0  0  0  0  0  0  0  0  0  0  0
  141.6830   77.3110  221.5770 N   0  0  0  0  0  0  0  0  0  0  0  0
  140.4990   77.6160  222.4080 C   0  0  0  0  0  0  0  0  0  0  0  0
  139.2110   76.9080  221.9340 C   0  0  0  0  0  0  0  0  0  0  0  0
  139.5500   73.5120  222.3400 N   0  0  0  0  0  0  0  0  0  0  0  0
  140.6820   71.8360  224.5530 C   0  0  0  0  0  0  0  0  0  0  0  0
  139.7041   69.4520  229.3196 H   0  0  0  0  0  0  0  0  0  0  0  0
  141.2071   71.4373  229.1865 H   0  0  0  0  0  0  0  0  0  0  0  0
  141.6453   72.5309  226.9889 H   0  0  0  0  0  0  0  0  0  0  0  0
  138.6415   68.5471  227.2554 H   0  0  0  0  0  0  0  0  0  0  0  0
  138.8910   68.3701  224.7514 H   0  0  0  0  0  0  0  0  0  0  0  0
  137.8155   69.8316  224.7239 H   0  0  0  0  0  0  0  0  0  0  0  0
  140.4739   69.4267  223.2884 H   0  0  0  0  0  0  0  0  0  0  0  0
  138.8592   69.7256  222.5701 H   0  0  0  0  0  0  0  0  0  0  0  0
  135.4970   72.4630  220.0960 H   0  0  0  0  0  0  0  0  0  0  0  0
  133.6092   72.6444  221.3958 H   0  0  0  0  0  0  0  0  0  0  0  0
  134.4968   71.7296  222.6669 H   0  0  0  0  0  0  0  0  0  0  0  0
  135.0656   74.6859  222.2505 H   0  0  0  0  0  0  0  0  0  0  0  0
  133.6068   74.1498  223.1888 H   0  0  0  0  0  0  0  0  0  0  0  0
  136.4420   73.4730  223.7660 H   0  0  0  0  0  0  0  0  0  0  0  0
  134.8257   71.6678  224.1724 H   0  0  0  0  0  0  0  0  0  0  0  0
  135.8166   72.2488  225.5730 H   0  0  0  0  0  0  0  0  0  0  0  0
  132.9304   73.0574  224.9518 H   0  0  0  0  0  0  0  0  0  0  0  0
  133.4680   71.9199  226.2424 H   0  0  0  0  0  0  0  0  0  0  0  0
  133.3839   75.2634  225.1058 H   0  0  0  0  0  0  0  0  0  0  0  0
  134.3840   75.8950  226.4753 H   0  0  0  0  0  0  0  0  0  0  0  0
  135.6328   75.7744  224.2943 H   0  0  0  0  0  0  0  0  0  0  0  0
  136.3561   74.7715  225.6272 H   0  0  0  0  0  0  0  0  0  0  0  0
  137.0158   74.8167  220.5229 H   0  0  0  0  0  0  0  0  0  0  0  0
  141.1911   74.8556  220.2082 H   0  0  0  0  0  0  0  0  0  0  0  0
  139.9715   75.6857  219.1622 H   0  0  0  0  0  0  0  0  0  0  0  0
  142.2480   76.8918  219.5885 H   0  0  0  0  0  0  0  0  0  0  0  0
  140.7310   77.8396  219.7717 H   0  0  0  0  0  0  0  0  0  0  0  0
  142.3310   78.1350  221.5900 H   0  0  0  0  0  0  0  0  0  0  0  0
  142.1970   76.4920  221.9840 H   0  0  0  0  0  0  0  0  0  0  0  0
  140.7088   77.3011  223.4409 H   0  0  0  0  0  0  0  0  0  0  0  0
  140.3196   78.6984  222.3284 H   0  0  0  0  0  0  0  0  0  0  0  0
  138.5892   76.6697  222.8095 H   0  0  0  0  0  0  0  0  0  0  0  0
  138.6740   77.5815  221.2498 H   0  0  0  0  0  0  0  0  0  0  0  0
  141.7069   71.5779  224.2481 H   0  0  0  0  0  0  0  0  0  0  0  0
  140.5823   72.9245  224.6763 H   0  0  0  0  0  0  0  0  0  0  0  0
  1  2  2  0
  2  3  1  0
  3  4  2  0
  4  5  1  0
  5  6  2  0
  5  7  1  0
  7  8  1  0
  8  9  1  0
  9 10  1  0
 10 11  2  0
 11 12  1  0
 12 13  1  0
 13 14  1  0
 14 15  1  0
 15 16  1  0
 16 17  1  0
 17 18  1  0
 18 19  1  0
 19 20  1  0
 20 21  1  0
 12 22  2  0
 22 23  1  0
 23 24  1  0
 24 25  1  0
 25 26  1  0
 26 27  1  0
 27 28  1  0
 28 29  1  0
 23 30  2  0
  9 31  1  0
  6  1  1  0
 30 10  1  0
 31  4  1  0
 21 16  1  0
 29 24  1  0
  1 32  1  0
  2 33  1  0
  3 34  1  0
  6 35  1  0
  7 36  1  0
  7 37  1  0
  8 38  1  0
  8 39  1  0
 13 40  1  0
 14 41  1  0
 14 42  1  0
 15 43  1  0
 15 44  1  0
 16 45  1  0
 17 46  1  0
 17 47  1  0
 18 48  1  0
 18 49  1  0
 20 50  1  0
 20 51  1  0
 21 52  1  0
 21 53  1  0
 22 54  1  0
 25 55  1  0
 25 56  1  0
 26 57  1  0
 26 58  1  0
 27 59  1  0
 27 60  1  0
 28 61  1  0
 28 62  1  0
 29 63  1  0
 29 64  1  0
 31 65  1  0
 31 66  1  0
M  CHG  2  16   1  27   1
M  END
>  <UniqueID>  (12) 
484

>  <SMILES>  (12) 
c1ccc2c(c1)CCN(c1nc(NCC[NH+]3CCOCC3)cc(N3CC[NH2+]CC3)n1)C2

>  <Energy>  (12) 
85.75868760980674

>  <Genealogy>  (12) 
c1ccc2c(c1)CCN(c1nc(NCC[NH+]3CCOCC3)cc(N3CC[NH2+]CC3)n1)C2 (protonated)
c1ccc2c(c1)CCN(c1nc(NCC[NH+]3CCOCC3)cc(N3CC[NH2+]CC3)n1)C2 (3D coordinates assigned)
c1ccc2c(c1)CCN(c1nc(NCC[NH+]3CCOCC3)cc(N3CC[NH2+]CC3)n1)C2 (nonaromatic ring conformer: 85.75868760980674 kcal/mol)

>  <smiles>  (12) 
c1ccc2c(c1)CCN(c1nc(NCCN3CCOCC3)cc(N3CCNCC3)n1)C2

>  <score_type>  (12) 
oracle

>  <origin>  (12) 
autodockgpu

>  <m_score__min__energy>  (12) 
-8.2200000000000006

>  <m_primary>  (12) 
energy

>  <meeko>  (12) 
{"free_energy": -8.21, "intermolecular_energy": -10.0, "internal_energy": -1.42, "cluster_size": 17, "cluster_id": 1, "rank_in_cluster": 2}

>  <energy>  (12) 
-7.26

>  <cluster_rmsd>  (12) 
1.62

>  <rmsd>  (12) 
269.31

>  <cluster>  (12) 
1

$$$$
DRRGDEWGQQLPRW-DOJXPLJYNA-P
     RDKit          3D

 66 70  0  0  0  0  0  0  0  0999 V2000
  139.9490   69.9060  228.3490 C   0  0  0  0  0  0  0  0  0  0  0  0
  140.7940   71.0130  228.2580 C   0  0  0  0  0  0  0  0  0  0  0  0
  141.0250   71.6180  227.0200 C   0  0  0  0  0  0  0  0  0  0  0  0
  140.4050   71.1260  225.8610 C   0  0  0  0  0  0  0  0  0  0  0  0
  139.5720   69.9830  225.9490 C   0  0  0  0  0  0  0  0  0  0  0  0
  139.3380   69.3960  227.2030 C   0  0  0  0  0  0  0  0  0  0  0  0
  138.8580   69.4300  224.7360 C   0  0  0  0  0  0  0  0  0  0  0  0
  139.5050   69.8940  223.4330 C   0  0  0  0  0  0  0  0  0  0  0  0
  139.7480   71.3390  223.5100 N   0  0  0  0  0  0  0  0  0  0  0  0
  138.9950   72.2760  222.7090 C   0  0  0  0  0  0  0  0  0  0  0  0
  137.7290   71.9830  222.3110 N   0  0  0  0  0  0  0  0  0  0  0  0
  137.0090   72.8320  221.5330 C   0  0  0  0  0  0  0  0  0  0  0  0
  135.6760   72.4620  221.1470 N   0  0  0  0  0  0  0  0  0  0  0  0
  134.5010   73.2940  221.4080 C   0  0  0  0  0  0  0  0  0  0  0  0
  133.9620   73.0130  222.8220 C   0  0  0  0  0  0  0  0  0  0  0  0
  135.0500   72.9740  223.8380 N   0  0  0  0  0  0  0  0  0  0  0  0
  134.7050   72.1010  224.9850 C   0  0  0  0  0  0  0  0  0  0  0  0
  133.6960   72.7790  225.9230 C   0  0  0  0  0  0  0  0  0  0  0  0
  134.2220   73.9960  226.4110 O   0  0  0  0  0  0  0  0  0  0  0  0
  134.4180   74.8910  225.3350 C   0  0  0  0  0  0  0  0  0  0  0  0
  135.4270   74.3270  224.3150 C   0  0  0  0  0  0  0  0  0  0  0  0
  137.5770   74.0540  221.1470 C   0  0  0  0  0  0  0  0  0  0  0  0
  138.8830   74.3590  221.5640 C   0  0  0  0  0  0  0  0  0  0  0  0
  139.5260   75.6000  221.1940 N   0  0  0  0  0  0  0  0  0  0  0  0
  140.2780   75.7160  219.9340 C   0  0  0  0  0  0  0  0  0  0  0  0
  141.1820   76.9570  219.9430 C   0  0  0  0  0  0  0  0  0  0  0  0
  141.8240   77.0940  221.2580 N   0  0  0  0  0  0  0  0  0  0  0  0
  140.8520   77.3710  222.3370 C   0  0  0  0  0  0  0  0  0  0  0  0
  139.4500   76.7820  222.0730 C   0  0  0  0  0  0  0  0  0  0  0  0
  139.5520   73.4550  222.3290 N   0  0  0  0  0  0  0  0  0  0  0  0
  140.7010   71.7830  224.5330 C   0  0  0  0  0  0  0  0  0  0  0  0
  139.7644   69.4348  229.3257 H   0  0  0  0  0  0  0  0  0  0  0  0
  141.2788   71.4097  229.1622 H   0  0  0  0  0  0  0  0  0  0  0  0
  141.6974   72.4860  226.9532 H   0  0  0  0  0  0  0  0  0  0  0  0
  138.6678   68.5274  227.2825 H   0  0  0  0  0  0  0  0  0  0  0  0
  138.8879   68.3311  224.7761 H   0  0  0  0  0  0  0  0  0  0  0  0
  137.8221   69.7997  224.7525 H   0  0  0  0  0  0  0  0  0  0  0  0
  140.4591   69.3666  223.2865 H   0  0  0  0  0  0  0  0  0  0  0  0
  138.8377   69.6733  222.5868 H   0  0  0  0  0  0  0  0  0  0  0  0
  135.5850   71.7440  220.3930 H   0  0  0  0  0  0  0  0  0  0  0  0
  134.7807   74.3549  221.3287 H   0  0  0  0  0  0  0  0  0  0  0  0
  133.7201   73.0585  220.6700 H   0  0  0  0  0  0  0  0  0  0  0  0
  133.2503   73.8062  223.0946 H   0  0  0  0  0  0  0  0  0  0  0  0
  133.4745   72.0270  222.8093 H   0  0  0  0  0  0  0  0  0  0  0  0
  135.9000   72.5480  223.3960 H   0  0  0  0  0  0  0  0  0  0  0  0
  134.2673   71.1664  224.6042 H   0  0  0  0  0  0  0  0  0  0  0  0
  135.6243   71.8987  225.5542 H   0  0  0  0  0  0  0  0  0  0  0  0
  132.7662   72.9809  225.3710 H   0  0  0  0  0  0  0  0  0  0  0  0
  133.4921   72.1108  226.7727 H   0  0  0  0  0  0  0  0  0  0  0  0
  133.4555   75.0613  224.8305 H   0  0  0  0  0  0  0  0  0  0  0  0
  134.8190   75.8337  225.7357 H   0  0  0  0  0  0  0  0  0  0  0  0
  135.4735   75.0063  223.4510 H   0  0  0  0  0  0  0  0  0  0  0  0
  136.4027   74.2468  224.8166 H   0  0  0  0  0  0  0  0  0  0  0  0
  137.0087   74.7631  220.5271 H   0  0  0  0  0  0  0  0  0  0  0  0
  140.9007   74.8187  219.8032 H   0  0  0  0  0  0  0  0  0  0  0  0
  139.5603   75.8122  219.1060 H   0  0  0  0  0  0  0  0  0  0  0  0
  141.9554   76.8514  219.1680 H   0  0  0  0  0  0  0  0  0  0  0  0
  140.5744   77.8512  219.7398 H   0  0  0  0  0  0  0  0  0  0  0  0
  142.5190   77.8770  221.2140 H   0  0  0  0  0  0  0  0  0  0  0  0
  142.3500   76.2120  221.4770 H   0  0  0  0  0  0  0  0  0  0  0  0
  141.2392   76.9409  223.2725 H   0  0  0  0  0  0  0  0  0  0  0  0
  140.7370   78.4635  222.3944 H   0  0  0  0  0  0  0  0  0  0  0  0
  138.9978   76.4880  223.0317 H   0  0  0  0  0  0  0  0  0  0  0  0
  138.8379   77.5483  221.5749 H   0  0  0  0  0  0  0  0  0  0  0  0
  141.7202   71.5155  224.2172 H   0  0  0  0  0  0  0  0  0  0  0  0
  140.6110   72.8730  224.6503 H   0  0  0  0  0  0  0  0  0  0  0  0
  1  2  2  0
  2  3  1  0
  3  4  2  0
  4  5  1  0
  5  6  2  0
  5  7  1  0
  7  8  1  0
  8  9  1  0
  9 10  1  0
 10 11  2  0
 11 12  1  0
 12 13  1  0
 13 14  1  0
 14 15  1  0
 15 16  1  0
 16 17  1  0
 17 18  1  0
 18 19  1  0
 19 20  1  0
 20 21  1  0
 12 22  2  0
 22 23  1  0
 23 24  1  0
 24 25  1  0
 25 26  1  0
 26 27  1  0
 27 28  1  0
 28 29  1  0
 23 30  2  0
  9 31  1  0
  6  1  1  0
 30 10  1  0
 31  4  1  0
 21 16  1  0
 29 24  1  0
  1 32  1  0
  2 33  1  0
  3 34  1  0
  6 35  1  0
  7 36  1  0
  7 37  1  0
  8 38  1  0
  8 39  1  0
 13 40  1  0
 14 41  1  0
 14 42  1  0
 15 43  1  0
 15 44  1  0
 16 45  1  0
 17 46  1  0
 17 47  1  0
 18 48  1  0
 18 49  1  0
 20 50  1  0
 20 51  1  0
 21 52  1  0
 21 53  1  0
 22 54  1  0
 25 55  1  0
 25 56  1  0
 26 57  1  0
 26 58  1  0
 27 59  1  0
 27 60  1  0
 28 61  1  0
 28 62  1  0
 29 63  1  0
 29 64  1  0
 31 65  1  0
 31 66  1  0
M  CHG  2  16   1  27   1
M  END
>  <UniqueID>  (13) 
484

>  <SMILES>  (13) 
c1ccc2c(c1)CCN(c1nc(NCC[NH+]3CCOCC3)cc(N3CC[NH2+]CC3)n1)C2

>  <Energy>  (13) 
85.75868760980674

>  <Genealogy>  (13) 
c1ccc2c(c1)CCN(c1nc(NCC[NH+]3CCOCC3)cc(N3CC[NH2+]CC3)n1)C2 (protonated)
c1ccc2c(c1)CCN(c1nc(NCC[NH+]3CCOCC3)cc(N3CC[NH2+]CC3)n1)C2 (3D coordinates assigned)
c1ccc2c(c1)CCN(c1nc(NCC[NH+]3CCOCC3)cc(N3CC[NH2+]CC3)n1)C2 (nonaromatic ring conformer: 85.75868760980674 kcal/mol)

>  <smiles>  (13) 
c1ccc2c(c1)CCN(c1nc(NCCN3CCOCC3)cc(N3CCNCC3)n1)C2

>  <score_type>  (13) 
oracle

>  <origin>  (13) 
autodockgpu

>  <m_score__min__energy>  (13) 
-8.2200000000000006

>  <m_primary>  (13) 
energy

>  <meeko>  (13) 
{"free_energy": -7.8, "intermolecular_energy": -9.59, "internal_energy": -1.72, "cluster_size": 17, "cluster_id": 1, "rank_in_cluster": 4}

>  <energy>  (13) 
-7.24

>  <cluster_rmsd>  (13) 
1.78

>  <rmsd>  (13) 
269.31

>  <cluster>  (13) 
1

$$$$
DRRGDEWGQQLPRW-DOJXPLJYNA-P
     RDKit          3D

 66 70  0  0  0  0  0  0  0  0999 V2000
  140.0100   70.0540  228.3530 C   0  0  0  0  0  0  0  0  0  0  0  0
  140.8570   71.1570  228.2430 C   0  0  0  0  0  0  0  0  0  0  0  0
  141.0850   71.7450  226.9960 C   0  0  0  0  0  0  0  0  0  0  0  0
  140.4570   71.2390  225.8460 C   0  0  0  0  0  0  0  0  0  0  0  0
  139.6220   70.1000  225.9540 C   0  0  0  0  0  0  0  0  0  0  0  0
  139.3920   69.5300  227.2160 C   0  0  0  0  0  0  0  0  0  0  0  0
  138.9000   69.5330  224.7520 C   0  0  0  0  0  0  0  0  0  0  0  0
  139.5430   69.9780  223.4390 C   0  0  0  0  0  0  0  0  0  0  0  0
  139.7900   71.4220  223.4960 N   0  0  0  0  0  0  0  0  0  0  0  0
  139.0370   72.3510  222.6860 C   0  0  0  0  0  0  0  0  0  0  0  0
  137.7880   72.0330  222.2520 N   0  0  0  0  0  0  0  0  0  0  0  0
  137.0680   72.8750  221.4640 C   0  0  0  0  0  0  0  0  0  0  0  0
  135.7560   72.4780  221.0400 N   0  0  0  0  0  0  0  0  0  0  0  0
  134.5750   72.5460  221.9030 C   0  0  0  0  0  0  0  0  0  0  0  0
  134.6310   73.8170  222.7700 C   0  0  0  0  0  0  0  0  0  0  0  0
  135.5350   73.6530  223.9430 N   0  0  0  0  0  0  0  0  0  0  0  0
  135.0910   72.5550  224.8340 C   0  0  0  0  0  0  0  0  0  0  0  0
  133.8790   72.9710  225.6780 C   0  0  0  0  0  0  0  0  0  0  0  0
  134.1940   74.1020  226.4640 O   0  0  0  0  0  0  0  0  0  0  0  0
  134.4770   75.1990  225.6190 C   0  0  0  0  0  0  0  0  0  0  0  0
  135.6920   74.9110  224.7150 C   0  0  0  0  0  0  0  0  0  0  0  0
  137.6170   74.1140  221.1070 C   0  0  0  0  0  0  0  0  0  0  0  0
  138.9050   74.4440  221.5620 C   0  0  0  0  0  0  0  0  0  0  0  0
  139.5280   75.7040  221.2220 N   0  0  0  0  0  0  0  0  0  0  0  0
  140.2000   75.8900  219.9270 C   0  0  0  0  0  0  0  0  0  0  0  0
  141.1070   77.1290  219.9490 C   0  0  0  0  0  0  0  0  0  0  0  0
  141.8300   77.1920  221.2280 N   0  0  0  0  0  0  0  0  0  0  0  0
  140.9270   77.4090  222.3780 C   0  0  0  0  0  0  0  0  0  0  0  0
  139.5100   76.8350  222.1680 C   0  0  0  0  0  0  0  0  0  0  0  0
  139.5750   73.5480  222.3340 N   0  0  0  0  0  0  0  0  0  0  0  0
  140.7490   71.8770  224.5090 C   0  0  0  0  0  0  0  0  0  0  0  0
  139.8288   69.5965  229.3368 H   0  0  0  0  0  0  0  0  0  0  0  0
  141.3464   71.5647  229.1398 H   0  0  0  0  0  0  0  0  0  0  0  0
  141.7604   72.6094  226.9145 H   0  0  0  0  0  0  0  0  0  0  0  0
  138.7200   68.6642  227.3098 H   0  0  0  0  0  0  0  0  0  0  0  0
  138.9265   68.4347  224.8067 H   0  0  0  0  0  0  0  0  0  0  0  0
  137.8653   69.9060  224.7685 H   0  0  0  0  0  0  0  0  0  0  0  0
  140.4950   69.4460  223.2953 H   0  0  0  0  0  0  0  0  0  0  0  0
  138.8715   69.7479  222.5987 H   0  0  0  0  0  0  0  0  0  0  0  0
  135.5830   72.4410  220.0110 H   0  0  0  0  0  0  0  0  0  0  0  0
  133.6689   72.5694  221.2798 H   0  0  0  0  0  0  0  0  0  0  0  0
  134.5538   71.6622  222.5575 H   0  0  0  0  0  0  0  0  0  0  0  0
  134.9967   74.6515  222.1537 H   0  0  0  0  0  0  0  0  0  0  0  0
  133.6171   74.0158  223.1475 H   0  0  0  0  0  0  0  0  0  0  0  0
  136.4840   73.3770  223.5940 H   0  0  0  0  0  0  0  0  0  0  0  0
  134.8169   71.6847  224.2196 H   0  0  0  0  0  0  0  0  0  0  0  0
  135.9180   72.3080  225.5159 H   0  0  0  0  0  0  0  0  0  0  0  0
  133.0389   73.2151  225.0111 H   0  0  0  0  0  0  0  0  0  0  0  0
  133.6030   72.1390  226.3425 H   0  0  0  0  0  0  0  0  0  0  0  0
  133.5996   75.3999  224.9867 H   0  0  0  0  0  0  0  0  0  0  0  0
  134.7112   76.0704  226.2481 H   0  0  0  0  0  0  0  0  0  0  0  0
  135.8136   75.7461  224.0094 H   0  0  0  0  0  0  0  0  0  0  0  0
  136.5742   74.8001  225.3627 H   0  0  0  0  0  0  0  0  0  0  0  0
  137.0487   74.8172  220.4805 H   0  0  0  0  0  0  0  0  0  0  0  0
  140.8104   75.0015  219.7079 H   0  0  0  0  0  0  0  0  0  0  0  0
  139.4326   76.0319  219.1518 H   0  0  0  0  0  0  0  0  0  0  0  0
  141.8305   77.0671  219.1228 H   0  0  0  0  0  0  0  0  0  0  0  0
  140.4911   78.0331  219.8341 H   0  0  0  0  0  0  0  0  0  0  0  0
  142.5230   77.9780  221.1840 H   0  0  0  0  0  0  0  0  0  0  0  0
  142.3650   76.3000  221.3640 H   0  0  0  0  0  0  0  0  0  0  0  0
  141.3693   76.9282  223.2630 H   0  0  0  0  0  0  0  0  0  0  0  0
  140.8192   78.4966  222.5027 H   0  0  0  0  0  0  0  0  0  0  0  0
  139.1164   76.4880  223.1348 H   0  0  0  0  0  0  0  0  0  0  0  0
  138.8711   77.6276  221.7514 H   0  0  0  0  0  0  0  0  0  0  0  0
  141.7660   71.6023  224.1924 H   0  0  0  0  0  0  0  0  0  0  0  0
  140.6628   72.9688  224.6121 H   0  0  0  0  0  0  0  0  0  0  0  0
  1  2  2  0
  2  3  1  0
  3  4  2  0
  4  5  1  0
  5  6  2  0
  5  7  1  0
  7  8  1  0
  8  9  1  0
  9 10  1  0
 10 11  2  0
 11 12  1  0
 12 13  1  0
 13 14  1  0
 14 15  1  0
 15 16  1  0
 16 17  1  0
 17 18  1  0
 18 19  1  0
 19 20  1  0
 20 21  1  0
 12 22  2  0
 22 23  1  0
 23 24  1  0
 24 25  1  0
 25 26  1  0
 26 27  1  0
 27 28  1  0
 28 29  1  0
 23 30  2  0
  9 31  1  0
  6  1  1  0
 30 10  1  0
 31  4  1  0
 21 16  1  0
 29 24  1  0
  1 32  1  0
  2 33  1  0
  3 34  1  0
  6 35  1  0
  7 36  1  0
  7 37  1  0
  8 38  1  0
  8 39  1  0
 13 40  1  0
 14 41  1  0
 14 42  1  0
 15 43  1  0
 15 44  1  0
 16 45  1  0
 17 46  1  0
 17 47  1  0
 18 48  1  0
 18 49  1  0
 20 50  1  0
 20 51  1  0
 21 52  1  0
 21 53  1  0
 22 54  1  0
 25 55  1  0
 25 56  1  0
 26 57  1  0
 26 58  1  0
 27 59  1  0
 27 60  1  0
 28 61  1  0
 28 62  1  0
 29 63  1  0
 29 64  1  0
 31 65  1  0
 31 66  1  0
M  CHG  2  16   1  27   1
M  END
>  <UniqueID>  (14) 
484

>  <SMILES>  (14) 
c1ccc2c(c1)CCN(c1nc(NCC[NH+]3CCOCC3)cc(N3CC[NH2+]CC3)n1)C2

>  <Energy>  (14) 
85.75868760980674

>  <Genealogy>  (14) 
c1ccc2c(c1)CCN(c1nc(NCC[NH+]3CCOCC3)cc(N3CC[NH2+]CC3)n1)C2 (protonated)
c1ccc2c(c1)CCN(c1nc(NCC[NH+]3CCOCC3)cc(N3CC[NH2+]CC3)n1)C2 (3D coordinates assigned)
c1ccc2c(c1)CCN(c1nc(NCC[NH+]3CCOCC3)cc(N3CC[NH2+]CC3)n1)C2 (nonaromatic ring conformer: 85.75868760980674 kcal/mol)

>  <smiles>  (14) 
c1ccc2c(c1)CCN(c1nc(NCCN3CCOCC3)cc(N3CCNCC3)n1)C2

>  <score_type>  (14) 
oracle

>  <origin>  (14) 
autodockgpu

>  <m_score__min__energy>  (14) 
-8.2200000000000006

>  <m_primary>  (14) 
energy

>  <meeko>  (14) 
{"free_energy": -8.13, "intermolecular_energy": -9.92, "internal_energy": -1.58, "cluster_size": 17, "cluster_id": 1, "rank_in_cluster": 3}

>  <energy>  (14) 
-7.22

>  <cluster_rmsd>  (14) 
1.86

>  <rmsd>  (14) 
269.09

>  <cluster>  (14) 
1

$$$$
DRRGDEWGQQLPRW-DOJXPLJYNA-P
     RDKit          3D

 66 70  0  0  0  0  0  0  0  0999 V2000
  139.9410   69.9840  228.3660 C   0  0  0  0  0  0  0  0  0  0  0  0
  140.7800   71.0950  228.2760 C   0  0  0  0  0  0  0  0  0  0  0  0
  141.0170   71.6960  227.0370 C   0  0  0  0  0  0  0  0  0  0  0  0
  140.4080   71.1960  225.8760 C   0  0  0  0  0  0  0  0  0  0  0  0
  139.5810   70.0490  225.9630 C   0  0  0  0  0  0  0  0  0  0  0  0
  139.3410   69.4660  227.2170 C   0  0  0  0  0  0  0  0  0  0  0  0
  138.8790   69.4870  224.7470 C   0  0  0  0  0  0  0  0  0  0  0  0
  139.5330   69.9490  223.4470 C   0  0  0  0  0  0  0  0  0  0  0  0
  139.7670   71.3950  223.5190 N   0  0  0  0  0  0  0  0  0  0  0  0
  139.0150   72.3240  222.7090 C   0  0  0  0  0  0  0  0  0  0  0  0
  137.7560   72.0190  222.2960 N   0  0  0  0  0  0  0  0  0  0  0  0
  137.0370   72.8610  221.5080 C   0  0  0  0  0  0  0  0  0  0  0  0
  135.7130   72.4770  221.1070 N   0  0  0  0  0  0  0  0  0  0  0  0
  134.5180   72.7520  221.9060 C   0  0  0  0  0  0  0  0  0  0  0  0
  134.7350   74.0160  222.7580 C   0  0  0  0  0  0  0  0  0  0  0  0
  135.5830   73.7450  223.9530 N   0  0  0  0  0  0  0  0  0  0  0  0
  135.0530   72.6230  224.7630 C   0  0  0  0  0  0  0  0  0  0  0  0
  133.8290   73.0510  225.5850 C   0  0  0  0  0  0  0  0  0  0  0  0
  134.1660   74.1210  226.4430 O   0  0  0  0  0  0  0  0  0  0  0  0
  134.5340   75.2470  225.6730 C   0  0  0  0  0  0  0  0  0  0  0  0
  135.7690   74.9490  224.8000 C   0  0  0  0  0  0  0  0  0  0  0  0
  137.5980   74.0880  221.1290 C   0  0  0  0  0  0  0  0  0  0  0  0
  138.8960   74.4060  221.5620 C   0  0  0  0  0  0  0  0  0  0  0  0
  139.5310   75.6530  221.1990 N   0  0  0  0  0  0  0  0  0  0  0  0
  140.2690   75.7860  219.9320 C   0  0  0  0  0  0  0  0  0  0  0  0
  141.1690   77.0290  219.9450 C   0  0  0  0  0  0  0  0  0  0  0  0
  141.8260   77.1530  221.2550 N   0  0  0  0  0  0  0  0  0  0  0  0
  140.8650   77.4150  222.3470 C   0  0  0  0  0  0  0  0  0  0  0  0
  139.4610   76.8240  222.0920 C   0  0  0  0  0  0  0  0  0  0  0  0
  139.5640   73.5090  222.3350 N   0  0  0  0  0  0  0  0  0  0  0  0
  140.7100   71.8490  224.5480 C   0  0  0  0  0  0  0  0  0  0  0  0
  139.7521   69.5158  229.3433 H   0  0  0  0  0  0  0  0  0  0  0  0
  141.2558   71.4986  229.1820 H   0  0  0  0  0  0  0  0  0  0  0  0
  141.6856   72.5670  226.9714 H   0  0  0  0  0  0  0  0  0  0  0  0
  138.6749   68.5941  227.2949 H   0  0  0  0  0  0  0  0  0  0  0  0
  138.9146   68.3885  224.7920 H   0  0  0  0  0  0  0  0  0  0  0  0
  137.8410   69.8511  224.7543 H   0  0  0  0  0  0  0  0  0  0  0  0
  140.4913   69.4265  223.3101 H   0  0  0  0  0  0  0  0  0  0  0  0
  138.8732   69.7207  222.5970 H   0  0  0  0  0  0  0  0  0  0  0  0
  135.5650   72.2850  220.0910 H   0  0  0  0  0  0  0  0  0  0  0  0
  133.6594   72.9070  221.2361 H   0  0  0  0  0  0  0  0  0  0  0  0
  134.3227   71.8973  222.5704 H   0  0  0  0  0  0  0  0  0  0  0  0
  135.2271   74.7810  222.1395 H   0  0  0  0  0  0  0  0  0  0  0  0
  133.7518   74.3611  223.1103 H   0  0  0  0  0  0  0  0  0  0  0  0
  136.5310   73.4420  223.6240 H   0  0  0  0  0  0  0  0  0  0  0  0
  134.7626   71.8026  224.0903 H   0  0  0  0  0  0  0  0  0  0  0  0
  135.8400   72.2985  225.4596 H   0  0  0  0  0  0  0  0  0  0  0  0
  133.0275   73.3710  224.9030 H   0  0  0  0  0  0  0  0  0  0  0  0
  133.4889   72.1987  226.1916 H   0  0  0  0  0  0  0  0  0  0  0  0
  133.6930   75.5256  225.0210 H   0  0  0  0  0  0  0  0  0  0  0  0
  134.7839   76.0700  226.3588 H   0  0  0  0  0  0  0  0  0  0  0  0
  135.9583   75.8144  224.1479 H   0  0  0  0  0  0  0  0  0  0  0  0
  136.6185   74.7592  225.4726 H   0  0  0  0  0  0  0  0  0  0  0  0
  137.0306   74.7914  220.5020 H   0  0  0  0  0  0  0  0  0  0  0  0
  140.8929   74.8922  219.7841 H   0  0  0  0  0  0  0  0  0  0  0  0
  139.5418   75.8896  219.1132 H   0  0  0  0  0  0  0  0  0  0  0  0
  141.9338   76.9346  219.1601 H   0  0  0  0  0  0  0  0  0  0  0  0
  140.5565   77.9236  219.7591 H   0  0  0  0  0  0  0  0  0  0  0  0
  142.5180   77.9390  221.2120 H   0  0  0  0  0  0  0  0  0  0  0  0
  142.3560   76.2700  221.4590 H   0  0  0  0  0  0  0  0  0  0  0  0
  141.2637   76.9762  223.2735 H   0  0  0  0  0  0  0  0  0  0  0  0
  140.7470   78.5064  222.4171 H   0  0  0  0  0  0  0  0  0  0  0  0
  139.0207   76.5174  223.0523 H   0  0  0  0  0  0  0  0  0  0  0  0
  138.8407   77.5939  221.6098 H   0  0  0  0  0  0  0  0  0  0  0  0
  141.7331   71.5863  224.2411 H   0  0  0  0  0  0  0  0  0  0  0  0
  140.6126   72.9389  224.6601 H   0  0  0  0  0  0  0  0  0  0  0  0
  1  2  2  0
  2  3  1  0
  3  4  2  0
  4  5  1  0
  5  6  2  0
  5  7  1  0
  7  8  1  0
  8  9  1  0
  9 10  1  0
 10 11  2  0
 11 12  1  0
 12 13  1  0
 13 14  1  0
 14 15  1  0
 15 16  1  0
 16 17  1  0
 17 18  1  0
 18 19  1  0
 19 20  1  0
 20 21  1  0
 12 22  2  0
 22 23  1  0
 23 24  1  0
 24 25  1  0
 25 26  1  0
 26 27  1  0
 27 28  1  0
 28 29  1  0
 23 30  2  0
  9 31  1  0
  6  1  1  0
 30 10  1  0
 31  4  1  0
 21 16  1  0
 29 24  1  0
  1 32  1  0
  2 33  1  0
  3 34  1  0
  6 35  1  0
  7 36  1  0
  7 37  1  0
  8 38  1  0
  8 39  1  0
 13 40  1  0
 14 41  1  0
 14 42  1  0
 15 43  1  0
 15 44  1  0
 16 45  1  0
 17 46  1  0
 17 47  1  0
 18 48  1  0
 18 49  1  0
 20 50  1  0
 20 51  1  0
 21 52  1  0
 21 53  1  0
 22 54  1  0
 25 55  1  0
 25 56  1  0
 26 57  1  0
 26 58  1  0
 27 59  1  0
 27 60  1  0
 28 61  1  0
 28 62  1  0
 29 63  1  0
 29 64  1  0
 31 65  1  0
 31 66  1  0
M  CHG  2  16   1  27   1
M  END
>  <UniqueID>  (15) 
484

>  <SMILES>  (15) 
c1ccc2c(c1)CCN(c1nc(NCC[NH+]3CCOCC3)cc(N3CC[NH2+]CC3)n1)C2

>  <Energy>  (15) 
85.75868760980674

>  <Genealogy>  (15) 
c1ccc2c(c1)CCN(c1nc(NCC[NH+]3CCOCC3)cc(N3CC[NH2+]CC3)n1)C2 (protonated)
c1ccc2c(c1)CCN(c1nc(NCC[NH+]3CCOCC3)cc(N3CC[NH2+]CC3)n1)C2 (3D coordinates assigned)
c1ccc2c(c1)CCN(c1nc(NCC[NH+]3CCOCC3)cc(N3CC[NH2+]CC3)n1)C2 (nonaromatic ring conformer: 85.75868760980674 kcal/mol)

>  <smiles>  (15) 
c1ccc2c(c1)CCN(c1nc(NCCN3CCOCC3)cc(N3CCNCC3)n1)C2

>  <score_type>  (15) 
oracle

>  <origin>  (15) 
autodockgpu

>  <m_score__min__energy>  (15) 
-8.2200000000000006

>  <m_primary>  (15) 
energy

>  <meeko>  (15) 
{"free_energy": -8.22, "intermolecular_energy": -10.01, "internal_energy": -1.55, "cluster_size": 17, "cluster_id": 1, "rank_in_cluster": 1}

>  <energy>  (15) 
-7.21

>  <cluster_rmsd>  (15) 
1.79

>  <rmsd>  (15) 
269.02

>  <cluster>  (15) 
1

$$$$
DRRGDEWGQQLPRW-DOJXPLJYNA-P
     RDKit          3D

 66 70  0  0  0  0  0  0  0  0999 V2000
  140.0030   69.7690  228.2290 C   0  0  0  0  0  0  0  0  0  0  0  0
  140.8530   70.8740  228.1680 C   0  0  0  0  0  0  0  0  0  0  0  0
  141.0620   71.5320  226.9530 C   0  0  0  0  0  0  0  0  0  0  0  0
  140.4140   71.0950  225.7870 C   0  0  0  0  0  0  0  0  0  0  0  0
  139.5770   69.9530  225.8430 C   0  0  0  0  0  0  0  0  0  0  0  0
  139.3650   69.3130  227.0740 C   0  0  0  0  0  0  0  0  0  0  0  0
  138.8340   69.4580  224.6220 C   0  0  0  0  0  0  0  0  0  0  0  0
  139.4570   69.9750  223.3270 C   0  0  0  0  0  0  0  0  0  0  0  0
  139.7100   71.4140  223.4620 N   0  0  0  0  0  0  0  0  0  0  0  0
  138.9470   72.3890  222.7180 C   0  0  0  0  0  0  0  0  0  0  0  0
  137.6570   72.1360  222.3680 N   0  0  0  0  0  0  0  0  0  0  0  0
  136.9260   73.0220  221.6440 C   0  0  0  0  0  0  0  0  0  0  0  0
  135.5700   72.6920  221.3070 N   0  0  0  0  0  0  0  0  0  0  0  0
  134.4860   72.6380  222.2890 C   0  0  0  0  0  0  0  0  0  0  0  0
  134.1450   71.1720  222.6140 C   0  0  0  0  0  0  0  0  0  0  0  0
  135.3500   70.3940  223.0160 N   0  0  0  0  0  0  0  0  0  0  0  0
  135.2820   68.9890  222.5500 C   0  0  0  0  0  0  0  0  0  0  0  0
  134.3160   68.1580  223.4070 C   0  0  0  0  0  0  0  0  0  0  0  0
  134.7230   68.1760  224.7600 O   0  0  0  0  0  0  0  0  0  0  0  0
  134.6510   69.4960  225.2570 C   0  0  0  0  0  0  0  0  0  0  0  0
  135.5900   70.4400  224.4800 C   0  0  0  0  0  0  0  0  0  0  0  0
  137.5060   74.2410  221.2660 C   0  0  0  0  0  0  0  0  0  0  0  0
  138.8360   74.5040  221.6340 C   0  0  0  0  0  0  0  0  0  0  0  0
  139.4920   75.7400  221.2690 N   0  0  0  0  0  0  0  0  0  0  0  0
  140.2110   75.8650  219.9910 C   0  0  0  0  0  0  0  0  0  0  0  0
  141.1380   77.0880  219.9970 C   0  0  0  0  0  0  0  0  0  0  0  0
  141.8190   77.1890  221.2970 N   0  0  0  0  0  0  0  0  0  0  0  0
  140.8820   77.4650  222.4060 C   0  0  0  0  0  0  0  0  0  0  0  0
  139.4620   76.9060  222.1700 C   0  0  0  0  0  0  0  0  0  0  0  0
  139.5150   73.5650  222.3460 N   0  0  0  0  0  0  0  0  0  0  0  0
  140.6870   71.8070  224.4830 C   0  0  0  0  0  0  0  0  0  0  0  0
  139.8355   69.2568  229.1880 H   0  0  0  0  0  0  0  0  0  0  0  0
  141.3595   71.2278  229.0781 H   0  0  0  0  0  0  0  0  0  0  0  0
  141.7388   72.3981  226.9101 H   0  0  0  0  0  0  0  0  0  0  0  0
  138.6910   68.4455  227.1292 H   0  0  0  0  0  0  0  0  0  0  0  0
  138.8571   68.3583  224.6133 H   0  0  0  0  0  0  0  0  0  0  0  0
  137.8013   69.8328  224.6765 H   0  0  0  0  0  0  0  0  0  0  0  0
  140.4048   69.4497  223.1379 H   0  0  0  0  0  0  0  0  0  0  0  0
  138.7714   69.7947  222.4859 H   0  0  0  0  0  0  0  0  0  0  0  0
  135.2910   72.8050  220.3070 H   0  0  0  0  0  0  0  0  0  0  0  0
  134.8016   73.1516  223.2091 H   0  0  0  0  0  0  0  0  0  0  0  0
  133.5960   73.1330  221.8732 H   0  0  0  0  0  0  0  0  0  0  0  0
  133.4175   71.1512  223.4388 H   0  0  0  0  0  0  0  0  0  0  0  0
  133.7304   70.7105  221.7056 H   0  0  0  0  0  0  0  0  0  0  0  0
  136.1880   70.8140  222.5470 H   0  0  0  0  0  0  0  0  0  0  0  0
  134.9360   68.9751  221.5059 H   0  0  0  0  0  0  0  0  0  0  0  0
  136.2861   68.5480  222.6357 H   0  0  0  0  0  0  0  0  0  0  0  0
  133.3037   68.5809  223.3267 H   0  0  0  0  0  0  0  0  0  0  0  0
  134.3195   67.1191  223.0456 H   0  0  0  0  0  0  0  0  0  0  0  0
  133.6173   69.8594  225.1599 H   0  0  0  0  0  0  0  0  0  0  0  0
  134.9634   69.4870  226.3117 H   0  0  0  0  0  0  0  0  0  0  0  0
  135.4279   71.4692  224.8328 H   0  0  0  0  0  0  0  0  0  0  0  0
  136.6237   70.1109  224.6619 H   0  0  0  0  0  0  0  0  0  0  0  0
  136.9289   74.9797  220.6905 H   0  0  0  0  0  0  0  0  0  0  0  0
  140.8126   74.9588  219.8269 H   0  0  0  0  0  0  0  0  0  0  0  0
  139.4728   75.9896  219.1851 H   0  0  0  0  0  0  0  0  0  0  0  0
  141.8877   76.9822  219.1990 H   0  0  0  0  0  0  0  0  0  0  0  0
  140.5422   77.9969  219.8268 H   0  0  0  0  0  0  0  0  0  0  0  0
  142.5270   77.9610  221.2470 H   0  0  0  0  0  0  0  0  0  0  0  0
  142.3330   76.2940  221.4860 H   0  0  0  0  0  0  0  0  0  0  0  0
  141.2860   77.0119  223.3233 H   0  0  0  0  0  0  0  0  0  0  0  0
  140.7890   78.5582  222.4849 H   0  0  0  0  0  0  0  0  0  0  0  0
  139.0306   76.6027  223.1353 H   0  0  0  0  0  0  0  0  0  0  0  0
  138.8510   77.6922  221.7025 H   0  0  0  0  0  0  0  0  0  0  0  0
  141.6975   71.5471  224.1346 H   0  0  0  0  0  0  0  0  0  0  0  0
  140.6072   72.8914  224.6493 H   0  0  0  0  0  0  0  0  0  0  0  0
  1  2  2  0
  2  3  1  0
  3  4  2  0
  4  5  1  0
  5  6  2  0
  5  7  1  0
  7  8  1  0
  8  9  1  0
  9 10  1  0
 10 11  2  0
 11 12  1  0
 12 13  1  0
 13 14  1  0
 14 15  1  0
 15 16  1  0
 16 17  1  0
 17 18  1  0
 18 19  1  0
 19 20  1  0
 20 21  1  0
 12 22  2  0
 22 23  1  0
 23 24  1  0
 24 25  1  0
 25 26  1  0
 26 27  1  0
 27 28  1  0
 28 29  1  0
 23 30  2  0
  9 31  1  0
  6  1  1  0
 30 10  1  0
 31  4  1  0
 21 16  1  0
 29 24  1  0
  1 32  1  0
  2 33  1  0
  3 34  1  0
  6 35  1  0
  7 36  1  0
  7 37  1  0
  8 38  1  0
  8 39  1  0
 13 40  1  0
 14 41  1  0
 14 42  1  0
 15 43  1  0
 15 44  1  0
 16 45  1  0
 17 46  1  0
 17 47  1  0
 18 48  1  0
 18 49  1  0
 20 50  1  0
 20 51  1  0
 21 52  1  0
 21 53  1  0
 22 54  1  0
 25 55  1  0
 25 56  1  0
 26 57  1  0
 26 58  1  0
 27 59  1  0
 27 60  1  0
 28 61  1  0
 28 62  1  0
 29 63  1  0
 29 64  1  0
 31 65  1  0
 31 66  1  0
M  CHG  2  16   1  27   1
M  END
>  <UniqueID>  (16) 
484

>  <SMILES>  (16) 
c1ccc2c(c1)CCN(c1nc(NCC[NH+]3CCOCC3)cc(N3CC[NH2+]CC3)n1)C2

>  <Energy>  (16) 
85.75868760980674

>  <Genealogy>  (16) 
c1ccc2c(c1)CCN(c1nc(NCC[NH+]3CCOCC3)cc(N3CC[NH2+]CC3)n1)C2 (protonated)
c1ccc2c(c1)CCN(c1nc(NCC[NH+]3CCOCC3)cc(N3CC[NH2+]CC3)n1)C2 (3D coordinates assigned)
c1ccc2c(c1)CCN(c1nc(NCC[NH+]3CCOCC3)cc(N3CC[NH2+]CC3)n1)C2 (nonaromatic ring conformer: 85.75868760980674 kcal/mol)

>  <smiles>  (16) 
c1ccc2c(c1)CCN(c1nc(NCCN3CCOCC3)cc(N3CCNCC3)n1)C2

>  <score_type>  (16) 
oracle

>  <origin>  (16) 
autodockgpu

>  <m_score__min__energy>  (16) 
-8.2200000000000006

>  <m_primary>  (16) 
energy

>  <meeko>  (16) 
{"free_energy": -7.21, "intermolecular_energy": -9.0, "internal_energy": -2.1, "cluster_size": 17, "cluster_id": 1, "rank_in_cluster": 15}

>  <energy>  (16) 
-6.99

>  <cluster_rmsd>  (16) 
1.91

>  <rmsd>  (16) 
268.9

>  <cluster>  (16) 
1

$$$$
DRRGDEWGQQLPRW-DOJXPLJYNA-P
     RDKit          3D

 66 70  0  0  0  0  0  0  0  0999 V2000
  140.1090   68.5750  228.2350 C   0  0  0  0  0  0  0  0  0  0  0  0
  140.9160   69.7090  228.3370 C   0  0  0  0  0  0  0  0  0  0  0  0
  141.0990   70.5420  227.2300 C   0  0  0  0  0  0  0  0  0  0  0  0
  140.4660   70.2530  226.0100 C   0  0  0  0  0  0  0  0  0  0  0  0
  139.6720   69.0850  225.8990 C   0  0  0  0  0  0  0  0  0  0  0  0
  139.4870   68.2660  227.0240 C   0  0  0  0  0  0  0  0  0  0  0  0
  138.9470   68.7430  224.6160 C   0  0  0  0  0  0  0  0  0  0  0  0
  139.5480   69.4640  223.4110 C   0  0  0  0  0  0  0  0  0  0  0  0
  139.7460   70.8770  223.7530 N   0  0  0  0  0  0  0  0  0  0  0  0
  138.9450   71.9190  223.1550 C   0  0  0  0  0  0  0  0  0  0  0  0
  137.5880   71.8440  223.1730 N   0  0  0  0  0  0  0  0  0  0  0  0
  136.8110   72.7950  222.5920 C   0  0  0  0  0  0  0  0  0  0  0  0
  135.3830   72.6540  222.6460 N   0  0  0  0  0  0  0  0  0  0  0  0
  134.6550   71.5710  221.9830 C   0  0  0  0  0  0  0  0  0  0  0  0
  134.2020   70.5290  223.0230 C   0  0  0  0  0  0  0  0  0  0  0  0
  135.0220   70.5870  224.2650 N   0  0  0  0  0  0  0  0  0  0  0  0
  135.4500   69.2400  224.7090 C   0  0  0  0  0  0  0  0  0  0  0  0
  134.2960   68.4720  225.3670 C   0  0  0  0  0  0  0  0  0  0  0  0
  133.8040   69.1890  226.4810 O   0  0  0  0  0  0  0  0  0  0  0  0
  133.2580   70.4180  226.0470 C   0  0  0  0  0  0  0  0  0  0  0  0
  134.3280   71.2960  225.3690 C   0  0  0  0  0  0  0  0  0  0  0  0
  137.4220   73.8960  221.9780 C   0  0  0  0  0  0  0  0  0  0  0  0
  138.8250   73.9770  221.9660 C   0  0  0  0  0  0  0  0  0  0  0  0
  139.5140   75.0850  221.3430 N   0  0  0  0  0  0  0  0  0  0  0  0
  140.3740   74.8760  220.1670 C   0  0  0  0  0  0  0  0  0  0  0  0
  141.2900   76.0850  219.9310 C   0  0  0  0  0  0  0  0  0  0  0  0
  141.8170   76.5660  221.2170 N   0  0  0  0  0  0  0  0  0  0  0  0
  140.7590   77.1060  222.0960 C   0  0  0  0  0  0  0  0  0  0  0  0
  139.3770   76.4540  221.8730 C   0  0  0  0  0  0  0  0  0  0  0  0
  139.5410   72.9810  222.5520 N   0  0  0  0  0  0  0  0  0  0  0  0
  140.7090   71.1560  224.8250 C   0  0  0  0  0  0  0  0  0  0  0  0
  139.9629   67.9241  229.1096 H   0  0  0  0  0  0  0  0  0  0  0  0
  141.4091   69.9477  229.2909 H   0  0  0  0  0  0  0  0  0  0  0  0
  141.7430   71.4298  227.3147 H   0  0  0  0  0  0  0  0  0  0  0  0
  138.8472   67.3742  226.9508 H   0  0  0  0  0  0  0  0  0  0  0  0
  139.0121   67.6576  224.4495 H   0  0  0  0  0  0  0  0  0  0  0  0
  137.9009   69.0670  224.7195 H   0  0  0  0  0  0  0  0  0  0  0  0
  140.5149   69.0077  223.1521 H   0  0  0  0  0  0  0  0  0  0  0  0
  138.8688   69.3806  222.5498 H   0  0  0  0  0  0  0  0  0  0  0  0
  134.8890   73.1430  223.4260 H   0  0  0  0  0  0  0  0  0  0  0  0
  133.7725   71.9840  221.4725 H   0  0  0  0  0  0  0  0  0  0  0  0
  135.3164   71.0864  221.2498 H   0  0  0  0  0  0  0  0  0  0  0  0
  133.1503   70.7204  223.2826 H   0  0  0  0  0  0  0  0  0  0  0  0
  134.3271   69.5301  222.5797 H   0  0  0  0  0  0  0  0  0  0  0  0
  135.9030   71.1170  224.0560 H   0  0  0  0  0  0  0  0  0  0  0  0
  135.8057   68.6723  223.8365 H   0  0  0  0  0  0  0  0  0  0  0  0
  136.2526   69.3601  225.4516 H   0  0  0  0  0  0  0  0  0  0  0  0
  133.4858   68.3369  224.6354 H   0  0  0  0  0  0  0  0  0  0  0  0
  134.6642   67.4922  225.7054 H   0  0  0  0  0  0  0  0  0  0  0  0
  132.4502   70.2175  225.3277 H   0  0  0  0  0  0  0  0  0  0  0  0
  132.8715   70.9563  226.9250 H   0  0  0  0  0  0  0  0  0  0  0  0
  133.8419   72.1948  224.9617 H   0  0  0  0  0  0  0  0  0  0  0  0
  135.0808   71.5552  226.1280 H   0  0  0  0  0  0  0  0  0  0  0  0
  136.8130   74.6849  221.5125 H   0  0  0  0  0  0  0  0  0  0  0  0
  140.9938   73.9819  220.3294 H   0  0  0  0  0  0  0  0  0  0  0  0
  139.7321   74.7459  219.2832 H   0  0  0  0  0  0  0  0  0  0  0  0
  142.1264   75.7887  219.2809 H   0  0  0  0  0  0  0  0  0  0  0  0
  140.7148   76.8894  219.4492 H   0  0  0  0  0  0  0  0  0  0  0  0
  142.5240   77.3180  221.0300 H   0  0  0  0  0  0  0  0  0  0  0  0
  142.3100   75.7770  221.7030 H   0  0  0  0  0  0  0  0  0  0  0  0
  141.0573   76.9397  223.1416 H   0  0  0  0  0  0  0  0  0  0  0  0
  140.6541   78.1743  221.8555 H   0  0  0  0  0  0  0  0  0  0  0  0
  138.8392   76.4157  222.8318 H   0  0  0  0  0  0  0  0  0  0  0  0
  138.8206   77.0575  221.1408 H   0  0  0  0  0  0  0  0  0  0  0  0
  141.7284   70.9889  224.4469 H   0  0  0  0  0  0  0  0  0  0  0  0
  140.5871   72.2010  225.1462 H   0  0  0  0  0  0  0  0  0  0  0  0
  1  2  2  0
  2  3  1  0
  3  4  2  0
  4  5  1  0
  5  6  2  0
  5  7  1  0
  7  8  1  0
  8  9  1  0
  9 10  1  0
 10 11  2  0
 11 12  1  0
 12 13  1  0
 13 14  1  0
 14 15  1  0
 15 16  1  0
 16 17  1  0
 17 18  1  0
 18 19  1  0
 19 20  1  0
 20 21  1  0
 12 22  2  0
 22 23  1  0
 23 24  1  0
 24 25  1  0
 25 26  1  0
 26 27  1  0
 27 28  1  0
 28 29  1  0
 23 30  2  0
  9 31  1  0
  6  1  1  0
 30 10  1  0
 31  4  1  0
 21 16  1  0
 29 24  1  0
  1 32  1  0
  2 33  1  0
  3 34  1  0
  6 35  1  0
  7 36  1  0
  7 37  1  0
  8 38  1  0
  8 39  1  0
 13 40  1  0
 14 41  1  0
 14 42  1  0
 15 43  1  0
 15 44  1  0
 16 45  1  0
 17 46  1  0
 17 47  1  0
 18 48  1  0
 18 49  1  0
 20 50  1  0
 20 51  1  0
 21 52  1  0
 21 53  1  0
 22 54  1  0
 25 55  1  0
 25 56  1  0
 26 57  1  0
 26 58  1  0
 27 59  1  0
 27 60  1  0
 28 61  1  0
 28 62  1  0
 29 63  1  0
 29 64  1  0
 31 65  1  0
 31 66  1  0
M  CHG  2  16   1  27   1
M  END
>  <UniqueID>  (17) 
484

>  <SMILES>  (17) 
c1ccc2c(c1)CCN(c1nc(NCC[NH+]3CCOCC3)cc(N3CC[NH2+]CC3)n1)C2

>  <Energy>  (17) 
85.75868760980674

>  <Genealogy>  (17) 
c1ccc2c(c1)CCN(c1nc(NCC[NH+]3CCOCC3)cc(N3CC[NH2+]CC3)n1)C2 (protonated)
c1ccc2c(c1)CCN(c1nc(NCC[NH+]3CCOCC3)cc(N3CC[NH2+]CC3)n1)C2 (3D coordinates assigned)
c1ccc2c(c1)CCN(c1nc(NCC[NH+]3CCOCC3)cc(N3CC[NH2+]CC3)n1)C2 (nonaromatic ring conformer: 85.75868760980674 kcal/mol)

>  <smiles>  (17) 
c1ccc2c(c1)CCN(c1nc(NCCN3CCOCC3)cc(N3CCNCC3)n1)C2

>  <score_type>  (17) 
oracle

>  <origin>  (17) 
autodockgpu

>  <m_score__min__energy>  (17) 
-8.2200000000000006

>  <m_primary>  (17) 
energy

>  <meeko>  (17) 
{"free_energy": -7.24, "intermolecular_energy": -9.03, "internal_energy": -1.95, "cluster_size": 17, "cluster_id": 1, "rank_in_cluster": 13}

>  <energy>  (17) 
-6.98

>  <cluster_rmsd>  (17) 
1.9

>  <rmsd>  (17) 
269.17

>  <cluster>  (17) 
1

$$$$
DRRGDEWGQQLPRW-DOJXPLJYNA-P
     RDKit          3D

 66 70  0  0  0  0  0  0  0  0999 V2000
  139.8270   69.5860  227.2570 C   0  0  0  0  0  0  0  0  0  0  0  0
  141.0660   70.1900  227.0410 C   0  0  0  0  0  0  0  0  0  0  0  0
  141.3180   70.8640  225.8420 C   0  0  0  0  0  0  0  0  0  0  0  0
  140.3270   70.9470  224.8510 C   0  0  0  0  0  0  0  0  0  0  0  0
  139.0800   70.3060  225.0590 C   0  0  0  0  0  0  0  0  0  0  0  0
  138.8380   69.6460  226.2740 C   0  0  0  0  0  0  0  0  0  0  0  0
  137.9700   70.3890  224.0360 C   0  0  0  0  0  0  0  0  0  0  0  0
  138.4960   70.7670  222.6530 C   0  0  0  0  0  0  0  0  0  0  0  0
  139.4160   71.9010  222.7870 N   0  0  0  0  0  0  0  0  0  0  0  0
  139.0720   73.2160  222.2980 C   0  0  0  0  0  0  0  0  0  0  0  0
  137.7870   73.5180  221.9740 N   0  0  0  0  0  0  0  0  0  0  0  0
  137.4400   74.7370  221.4840 C   0  0  0  0  0  0  0  0  0  0  0  0
  136.0640   74.9900  221.1600 N   0  0  0  0  0  0  0  0  0  0  0  0
  135.0040   75.0820  222.1650 C   0  0  0  0  0  0  0  0  0  0  0  0
  134.8040   73.7160  222.8460 C   0  0  0  0  0  0  0  0  0  0  0  0
  135.5920   73.5990  224.1050 N   0  0  0  0  0  0  0  0  0  0  0  0
  135.1700   72.4310  224.9130 C   0  0  0  0  0  0  0  0  0  0  0  0
  133.8400   72.6950  225.6320 C   0  0  0  0  0  0  0  0  0  0  0  0
  133.9550   73.8220  226.4760 O   0  0  0  0  0  0  0  0  0  0  0  0
  134.2130   74.9720  225.6950 C   0  0  0  0  0  0  0  0  0  0  0  0
  135.5390   74.8370  224.9210 C   0  0  0  0  0  0  0  0  0  0  0  0
  138.4280   75.7190  221.3300 C   0  0  0  0  0  0  0  0  0  0  0  0
  139.7540   75.4080  221.6720 C   0  0  0  0  0  0  0  0  0  0  0  0
  140.8190   76.3760  221.5300 N   0  0  0  0  0  0  0  0  0  0  0  0
  140.8510   77.5930  222.3560 C   0  0  0  0  0  0  0  0  0  0  0  0
  141.8160   78.6330  221.7690 C   0  0  0  0  0  0  0  0  0  0  0  0
  141.6690   78.6780  220.3070 N   0  0  0  0  0  0  0  0  0  0  0  0
  142.0880   77.4180  219.6570 C   0  0  0  0  0  0  0  0  0  0  0  0
  141.9000   76.1710  220.5470 C   0  0  0  0  0  0  0  0  0  0  0  0
  140.0330   74.1630  222.1420 N   0  0  0  0  0  0  0  0  0  0  0  0
  140.6420   71.6550  223.5550 C   0  0  0  0  0  0  0  0  0  0  0  0
  139.6293   69.0617  228.2036 H   0  0  0  0  0  0  0  0  0  0  0  0
  141.8457   70.1359  227.8150 H   0  0  0  0  0  0  0  0  0  0  0  0
  142.2991   71.3322  225.6742 H   0  0  0  0  0  0  0  0  0  0  0  0
  137.8614   69.1724  226.4528 H   0  0  0  0  0  0  0  0  0  0  0  0
  137.4720   69.4103  223.9716 H   0  0  0  0  0  0  0  0  0  0  0  0
  137.2674   71.1715  224.3586 H   0  0  0  0  0  0  0  0  0  0  0  0
  139.0279   69.9102  222.2136 H   0  0  0  0  0  0  0  0  0  0  0  0
  137.6565   71.0442  221.9985 H   0  0  0  0  0  0  0  0  0  0  0  0
  135.8700   75.4280  220.2320 H   0  0  0  0  0  0  0  0  0  0  0  0
  135.2839   75.8291  222.9223 H   0  0  0  0  0  0  0  0  0  0  0  0
  134.0662   75.3815  221.6742 H   0  0  0  0  0  0  0  0  0  0  0  0
  133.7370   73.5897  223.0819 H   0  0  0  0  0  0  0  0  0  0  0  0
  135.1535   72.9366  222.1529 H   0  0  0  0  0  0  0  0  0  0  0  0
  136.5950   73.4300  223.8530 H   0  0  0  0  0  0  0  0  0  0  0  0
  135.0512   71.5617  224.2496 H   0  0  0  0  0  0  0  0  0  0  0  0
  135.9415   72.2408  225.6736 H   0  0  0  0  0  0  0  0  0  0  0  0
  133.0539   72.8796  224.8850 H   0  0  0  0  0  0  0  0  0  0  0  0
  133.5816   71.8163  226.2412 H   0  0  0  0  0  0  0  0  0  0  0  0
  133.3912   75.1092  224.9768 H   0  0  0  0  0  0  0  0  0  0  0  0
  134.2903   75.8387  226.3680 H   0  0  0  0  0  0  0  0  0  0  0  0
  135.6492   75.7049  224.2543 H   0  0  0  0  0  0  0  0  0  0  0  0
  136.3548   74.7894  225.6574 H   0  0  0  0  0  0  0  0  0  0  0  0
  138.1689   76.7173  220.9474 H   0  0  0  0  0  0  0  0  0  0  0  0
  139.8402   78.0247  222.3993 H   0  0  0  0  0  0  0  0  0  0  0  0
  141.1989   77.3226  223.3639 H   0  0  0  0  0  0  0  0  0  0  0  0
  141.5864   79.6230  222.1899 H   0  0  0  0  0  0  0  0  0  0  0  0
  142.8494   78.3538  222.0221 H   0  0  0  0  0  0  0  0  0  0  0  0
  142.2510   79.4660  219.9340 H   0  0  0  0  0  0  0  0  0  0  0  0
  140.6670   78.8800  220.0690 H   0  0  0  0  0  0  0  0  0  0  0  0
  141.4932   77.2846  218.7414 H   0  0  0  0  0  0  0  0  0  0  0  0
  143.1644   77.5055  219.4478 H   0  0  0  0  0  0  0  0  0  0  0  0
  141.6476   75.3103  219.9102 H   0  0  0  0  0  0  0  0  0  0  0  0
  142.8373   75.9876  221.0927 H   0  0  0  0  0  0  0  0  0  0  0  0
  141.3226   71.0299  222.9582 H   0  0  0  0  0  0  0  0  0  0  0  0
  141.1146   72.6211  223.7856 H   0  0  0  0  0  0  0  0  0  0  0  0
  1  2  2  0
  2  3  1  0
  3  4  2  0
  4  5  1  0
  5  6  2  0
  5  7  1  0
  7  8  1  0
  8  9  1  0
  9 10  1  0
 10 11  2  0
 11 12  1  0
 12 13  1  0
 13 14  1  0
 14 15  1  0
 15 16  1  0
 16 17  1  0
 17 18  1  0
 18 19  1  0
 19 20  1  0
 20 21  1  0
 12 22  2  0
 22 23  1  0
 23 24  1  0
 24 25  1  0
 25 26  1  0
 26 27  1  0
 27 28  1  0
 28 29  1  0
 23 30  2  0
  9 31  1  0
  6  1  1  0
 30 10  1  0
 31  4  1  0
 21 16  1  0
 29 24  1  0
  1 32  1  0
  2 33  1  0
  3 34  1  0
  6 35  1  0
  7 36  1  0
  7 37  1  0
  8 38  1  0
  8 39  1  0
 13 40  1  0
 14 41  1  0
 14 42  1  0
 15 43  1  0
 15 44  1  0
 16 45  1  0
 17 46  1  0
 17 47  1  0
 18 48  1  0
 18 49  1  0
 20 50  1  0
 20 51  1  0
 21 52  1  0
 21 53  1  0
 22 54  1  0
 25 55  1  0
 25 56  1  0
 26 57  1  0
 26 58  1  0
 27 59  1  0
 27 60  1  0
 28 61  1  0
 28 62  1  0
 29 63  1  0
 29 64  1  0
 31 65  1  0
 31 66  1  0
M  CHG  2  16   1  27   1
M  END
>  <UniqueID>  (18) 
484

>  <SMILES>  (18) 
c1ccc2c(c1)CCN(c1nc(NCC[NH+]3CCOCC3)cc(N3CC[NH2+]CC3)n1)C2

>  <Energy>  (18) 
85.75868760980674

>  <Genealogy>  (18) 
c1ccc2c(c1)CCN(c1nc(NCC[NH+]3CCOCC3)cc(N3CC[NH2+]CC3)n1)C2 (protonated)
c1ccc2c(c1)CCN(c1nc(NCC[NH+]3CCOCC3)cc(N3CC[NH2+]CC3)n1)C2 (3D coordinates assigned)
c1ccc2c(c1)CCN(c1nc(NCC[NH+]3CCOCC3)cc(N3CC[NH2+]CC3)n1)C2 (nonaromatic ring conformer: 85.75868760980674 kcal/mol)

>  <smiles>  (18) 
c1ccc2c(c1)CCN(c1nc(NCCN3CCOCC3)cc(N3CCNCC3)n1)C2

>  <score_type>  (18) 
oracle

>  <origin>  (18) 
autodockgpu

>  <m_score__min__energy>  (18) 
-8.2200000000000006

>  <m_primary>  (18) 
energy

>  <meeko>  (18) 
{"free_energy": -7.4, "intermolecular_energy": -9.19, "internal_energy": -1.81, "cluster_size": 17, "cluster_id": 1, "rank_in_cluster": 9}

>  <energy>  (18) 
-7.46

>  <cluster_rmsd>  (18) 
0.0

>  <rmsd>  (18) 
269.63

>  <cluster>  (18) 
2

$$$$
DRRGDEWGQQLPRW-DOJXPLJYNA-P
     RDKit          3D

 66 70  0  0  0  0  0  0  0  0999 V2000
  140.0850   69.1070  228.3000 C   0  0  0  0  0  0  0  0  0  0  0  0
  140.8810   70.2520  228.3460 C   0  0  0  0  0  0  0  0  0  0  0  0
  141.0690   71.0220  227.1950 C   0  0  0  0  0  0  0  0  0  0  0  0
  140.4540   70.6570  225.9870 C   0  0  0  0  0  0  0  0  0  0  0  0
  139.6720   69.4770  225.9330 C   0  0  0  0  0  0  0  0  0  0  0  0
  139.4810   68.7220  227.1020 C   0  0  0  0  0  0  0  0  0  0  0  0
  138.9660   69.0540  224.6640 C   0  0  0  0  0  0  0  0  0  0  0  0
  139.5740   69.7110  223.4270 C   0  0  0  0  0  0  0  0  0  0  0  0
  139.7560   71.1430  223.6890 N   0  0  0  0  0  0  0  0  0  0  0  0
  138.9530   72.1410  223.0230 C   0  0  0  0  0  0  0  0  0  0  0  0
  137.6080   71.9830  222.9090 N   0  0  0  0  0  0  0  0  0  0  0  0
  136.8320   72.8910  222.2610 C   0  0  0  0  0  0  0  0  0  0  0  0
  135.4170   72.6620  222.1770 N   0  0  0  0  0  0  0  0  0  0  0  0
  134.8310   71.3860  221.7650 C   0  0  0  0  0  0  0  0  0  0  0  0
  134.2070   70.6780  222.9820 C   0  0  0  0  0  0  0  0  0  0  0  0
  135.1150   70.6950  224.1630 N   0  0  0  0  0  0  0  0  0  0  0  0
  135.4780   69.3260  224.6010 C   0  0  0  0  0  0  0  0  0  0  0  0
  134.3220   68.6510  225.3520 C   0  0  0  0  0  0  0  0  0  0  0  0
  133.9600   69.4160  226.4840 O   0  0  0  0  0  0  0  0  0  0  0  0
  133.4730   70.6750  226.0660 C   0  0  0  0  0  0  0  0  0  0  0  0
  134.5510   71.4660  225.2990 C   0  0  0  0  0  0  0  0  0  0  0  0
  137.4300   74.0350  221.7150 C   0  0  0  0  0  0  0  0  0  0  0  0
  138.8190   74.2020  221.8400 C   0  0  0  0  0  0  0  0  0  0  0  0
  139.4950   75.3570  221.2920 N   0  0  0  0  0  0  0  0  0  0  0  0
  140.3050   75.2500  220.0680 C   0  0  0  0  0  0  0  0  0  0  0  0
  141.2240   76.4680  219.9060 C   0  0  0  0  0  0  0  0  0  0  0  0
  141.8080   76.8270  221.2070 N   0  0  0  0  0  0  0  0  0  0  0  0
  140.7910   77.2920  222.1750 C   0  0  0  0  0  0  0  0  0  0  0  0
  139.3950   76.6730  221.9500 C   0  0  0  0  0  0  0  0  0  0  0  0
  139.5360   73.2450  222.4860 N   0  0  0  0  0  0  0  0  0  0  0  0
  140.7030   71.4920  224.7540 C   0  0  0  0  0  0  0  0  0  0  0  0
  139.9332   68.5068  229.2092 H   0  0  0  0  0  0  0  0  0  0  0  0
  141.3614   70.5491  229.2899 H   0  0  0  0  0  0  0  0  0  0  0  0
  141.7030   71.9200  227.2359 H   0  0  0  0  0  0  0  0  0  0  0  0
  138.8509   67.8208  227.0731 H   0  0  0  0  0  0  0  0  0  0  0  0
  139.0442   67.9616  224.5610 H   0  0  0  0  0  0  0  0  0  0  0  0
  137.9154   69.3718  224.7367 H   0  0  0  0  0  0  0  0  0  0  0  0
  140.5477   69.2498  223.2051 H   0  0  0  0  0  0  0  0  0  0  0  0
  138.9048   69.5724  222.5651 H   0  0  0  0  0  0  0  0  0  0  0  0
  134.8010   73.3090  222.7180 H   0  0  0  0  0  0  0  0  0  0  0  0
  134.0517   71.5693  221.0106 H   0  0  0  0  0  0  0  0  0  0  0  0
  135.6184   70.7469  221.3389 H   0  0  0  0  0  0  0  0  0  0  0  0
  133.2693   71.1881  223.2475 H   0  0  0  0  0  0  0  0  0  0  0  0
  134.0249   69.6283  222.7082 H   0  0  0  0  0  0  0  0  0  0  0  0
  136.0130   71.1570  223.8840 H   0  0  0  0  0  0  0  0  0  0  0  0
  135.7303   68.7227  223.7164 H   0  0  0  0  0  0  0  0  0  0  0  0
  136.3376   69.3984  225.2835 H   0  0  0  0  0  0  0  0  0  0  0  0
  133.4550   68.5635  224.6807 H   0  0  0  0  0  0  0  0  0  0  0  0
  134.6444   67.6527  225.6828 H   0  0  0  0  0  0  0  0  0  0  0  0
  132.6044   70.5229  225.4084 H   0  0  0  0  0  0  0  0  0  0  0  0
  133.1890   71.2513  226.9589 H   0  0  0  0  0  0  0  0  0  0  0  0
  134.1008   72.3911  224.9096 H   0  0  0  0  0  0  0  0  0  0  0  0
  135.3715   71.6818  225.9991 H   0  0  0  0  0  0  0  0  0  0  0  0
  136.8210   74.7903  221.1967 H   0  0  0  0  0  0  0  0  0  0  0  0
  140.9207   74.3401  220.1229 H   0  0  0  0  0  0  0  0  0  0  0  0
  139.6270   75.2062  219.2029 H   0  0  0  0  0  0  0  0  0  0  0  0
  142.0303   76.2257  219.1980 H   0  0  0  0  0  0  0  0  0  0  0  0
  140.6383   77.3170  219.5238 H   0  0  0  0  0  0  0  0  0  0  0  0
  142.5140   77.5870  221.0610 H   0  0  0  0  0  0  0  0  0  0  0  0
  142.3110   75.9930  221.5990 H   0  0  0  0  0  0  0  0  0  0  0  0
  141.1291   77.0285  223.1881 H   0  0  0  0  0  0  0  0  0  0  0  0
  140.6880   78.3785  222.0377 H   0  0  0  0  0  0  0  0  0  0  0  0
  138.8956   76.5509  222.9225 H   0  0  0  0  0  0  0  0  0  0  0  0
  138.8168   77.3450  221.2988 H   0  0  0  0  0  0  0  0  0  0  0  0
  141.7283   71.3128  224.3980 H   0  0  0  0  0  0  0  0  0  0  0  0
  140.5677   72.5525  225.0129 H   0  0  0  0  0  0  0  0  0  0  0  0
  1  2  2  0
  2  3  1  0
  3  4  2  0
  4  5  1  0
  5  6  2  0
  5  7  1  0
  7  8  1  0
  8  9  1  0
  9 10  1  0
 10 11  2  0
 11 12  1  0
 12 13  1  0
 13 14  1  0
 14 15  1  0
 15 16  1  0
 16 17  1  0
 17 18  1  0
 18 19  1  0
 19 20  1  0
 20 21  1  0
 12 22  2  0
 22 23  1  0
 23 24  1  0
 24 25  1  0
 25 26  1  0
 26 27  1  0
 27 28  1  0
 28 29  1  0
 23 30  2  0
  9 31  1  0
  6  1  1  0
 30 10  1  0
 31  4  1  0
 21 16  1  0
 29 24  1  0
  1 32  1  0
  2 33  1  0
  3 34  1  0
  6 35  1  0
  7 36  1  0
  7 37  1  0
  8 38  1  0
  8 39  1  0
 13 40  1  0
 14 41  1  0
 14 42  1  0
 15 43  1  0
 15 44  1  0
 16 45  1  0
 17 46  1  0
 17 47  1  0
 18 48  1  0
 18 49  1  0
 20 50  1  0
 20 51  1  0
 21 52  1  0
 21 53  1  0
 22 54  1  0
 25 55  1  0
 25 56  1  0
 26 57  1  0
 26 58  1  0
 27 59  1  0
 27 60  1  0
 28 61  1  0
 28 62  1  0
 29 63  1  0
 29 64  1  0
 31 65  1  0
 31 66  1  0
M  CHG  2  16   1  27   1
M  END
>  <UniqueID>  (19) 
484

>  <SMILES>  (19) 
c1ccc2c(c1)CCN(c1nc(NCC[NH+]3CCOCC3)cc(N3CC[NH2+]CC3)n1)C2

>  <Energy>  (19) 
85.75868760980674

>  <Genealogy>  (19) 
c1ccc2c(c1)CCN(c1nc(NCC[NH+]3CCOCC3)cc(N3CC[NH2+]CC3)n1)C2 (protonated)
c1ccc2c(c1)CCN(c1nc(NCC[NH+]3CCOCC3)cc(N3CC[NH2+]CC3)n1)C2 (3D coordinates assigned)
c1ccc2c(c1)CCN(c1nc(NCC[NH+]3CCOCC3)cc(N3CC[NH2+]CC3)n1)C2 (nonaromatic ring conformer: 85.75868760980674 kcal/mol)

>  <smiles>  (19) 
c1ccc2c(c1)CCN(c1nc(NCCN3CCOCC3)cc(N3CCNCC3)n1)C2

>  <score_type>  (19) 
oracle

>  <origin>  (19) 
autodockgpu

>  <m_score__min__energy>  (19) 
-8.2200000000000006

>  <m_primary>  (19) 
energy

>  <meeko>  (19) 
{"free_energy": -7.26, "intermolecular_energy": -9.05, "internal_energy": -1.97, "cluster_size": 17, "cluster_id": 1, "rank_in_cluster": 12}

>  <energy>  (19) 
-7.04

>  <cluster_rmsd>  (19) 
1.97

>  <rmsd>  (19) 
268.92

>  <cluster>  (19) 
2

$$$$
DRRGDEWGQQLPRW-DOJXPLJYNA-P
     RDKit          3D

 66 70  0  0  0  0  0  0  0  0999 V2000
  139.7200   69.6550  228.3360 C   0  0  0  0  0  0  0  0  0  0  0  0
  140.7060   70.6430  228.3350 C   0  0  0  0  0  0  0  0  0  0  0  0
  141.0940   71.2460  227.1360 C   0  0  0  0  0  0  0  0  0  0  0  0
  140.4900   70.8730  225.9240 C   0  0  0  0  0  0  0  0  0  0  0  0
  139.5120   69.8480  225.9220 C   0  0  0  0  0  0  0  0  0  0  0  0
  139.1240   69.2620  227.1360 C   0  0  0  0  0  0  0  0  0  0  0  0
  138.8120   69.4290  224.6480 C   0  0  0  0  0  0  0  0  0  0  0  0
  139.5970   69.8390  223.4040 C   0  0  0  0  0  0  0  0  0  0  0  0
  140.0190   71.2360  223.5480 N   0  0  0  0  0  0  0  0  0  0  0  0
  139.4480   72.2870  222.7370 C   0  0  0  0  0  0  0  0  0  0  0  0
  138.1020   72.4700  222.6920 N   0  0  0  0  0  0  0  0  0  0  0  0
  137.5360   73.4300  221.9160 C   0  0  0  0  0  0  0  0  0  0  0  0
  136.1070   73.5700  221.9140 N   0  0  0  0  0  0  0  0  0  0  0  0
  135.1880   72.4450  221.7390 C   0  0  0  0  0  0  0  0  0  0  0  0
  134.8090   71.8570  223.1110 C   0  0  0  0  0  0  0  0  0  0  0  0
  135.8500   70.9240  223.6250 N   0  0  0  0  0  0  0  0  0  0  0  0
  136.1120   69.8140  222.6800 C   0  0  0  0  0  0  0  0  0  0  0  0
  134.9900   68.7670  222.7170 C   0  0  0  0  0  0  0  0  0  0  0  0
  134.8540   68.2400  224.0210 O   0  0  0  0  0  0  0  0  0  0  0  0
  134.4600   69.2680  224.9070 C   0  0  0  0  0  0  0  0  0  0  0  0
  135.5160   70.3890  224.9690 C   0  0  0  0  0  0  0  0  0  0  0  0
  138.3620   74.2710  221.1570 C   0  0  0  0  0  0  0  0  0  0  0  0
  139.7530   74.0850  221.2100 C   0  0  0  0  0  0  0  0  0  0  0  0
  140.6570   74.9160  220.4450 N   0  0  0  0  0  0  0  0  0  0  0  0
  142.0940   74.6070  220.3770 C   0  0  0  0  0  0  0  0  0  0  0  0
  142.8930   75.8110  219.8600 C   0  0  0  0  0  0  0  0  0  0  0  0
  142.3820   77.0460  220.4730 N   0  0  0  0  0  0  0  0  0  0  0  0
  140.9970   77.3530  220.0570 C   0  0  0  0  0  0  0  0  0  0  0  0
  140.1610   76.0990  219.7170 C   0  0  0  0  0  0  0  0  0  0  0  0
  140.2510   73.0940  221.9960 N   0  0  0  0  0  0  0  0  0  0  0  0
  140.9540   71.5220  224.6420 C   0  0  0  0  0  0  0  0  0  0  0  0
  139.4125   69.1859  229.2823 H   0  0  0  0  0  0  0  0  0  0  0  0
  141.1786   70.9475  229.2805 H   0  0  0  0  0  0  0  0  0  0  0  0
  141.8776   72.0179  227.1412 H   0  0  0  0  0  0  0  0  0  0  0  0
  138.3438   68.4866  227.1427 H   0  0  0  0  0  0  0  0  0  0  0  0
  138.6951   68.3352  224.6500 H   0  0  0  0  0  0  0  0  0  0  0  0
  137.8348   69.9329  224.6151 H   0  0  0  0  0  0  0  0  0  0  0  0
  140.4823   69.1949  223.2971 H   0  0  0  0  0  0  0  0  0  0  0  0
  138.9637   69.7310  222.5111 H   0  0  0  0  0  0  0  0  0  0  0  0
  135.7160   74.4300  222.3600 H   0  0  0  0  0  0  0  0  0  0  0  0
  134.2784   72.7936  221.2281 H   0  0  0  0  0  0  0  0  0  0  0  0
  135.6795   71.6674  221.1359 H   0  0  0  0  0  0  0  0  0  0  0  0
  134.6853   72.6813  223.8287 H   0  0  0  0  0  0  0  0  0  0  0  0
  133.8740   71.2901  222.9911 H   0  0  0  0  0  0  0  0  0  0  0  0
  136.7530   71.4500  223.7120 H   0  0  0  0  0  0  0  0  0  0  0  0
  136.1867   70.2220  221.6612 H   0  0  0  0  0  0  0  0  0  0  0  0
  137.0514   69.3238  222.9753 H   0  0  0  0  0  0  0  0  0  0  0  0
  134.0432   69.2389  222.4157 H   0  0  0  0  0  0  0  0  0  0  0  0
  135.2404   67.9495  222.0249 H   0  0  0  0  0  0  0  0  0  0  0  0
  133.5061   69.6930  224.5613 H   0  0  0  0  0  0  0  0  0  0  0  0
  134.3519   68.8367  225.9131 H   0  0  0  0  0  0  0  0  0  0  0  0
  135.1251   71.2092  225.5890 H   0  0  0  0  0  0  0  0  0  0  0  0
  136.4343   69.9626  225.3990 H   0  0  0  0  0  0  0  0  0  0  0  0
  137.9276   75.0637  220.5301 H   0  0  0  0  0  0  0  0  0  0  0  0
  142.4528   74.3425  221.3826 H   0  0  0  0  0  0  0  0  0  0  0  0
  142.2386   73.7667  219.6821 H   0  0  0  0  0  0  0  0  0  0  0  0
  143.9540   75.6850  220.1215 H   0  0  0  0  0  0  0  0  0  0  0  0
  142.7867   75.8762  218.7671 H   0  0  0  0  0  0  0  0  0  0  0  0
  143.0060   77.8420  220.1960 H   0  0  0  0  0  0  0  0  0  0  0  0
  142.4230   76.9540  221.5180 H   0  0  0  0  0  0  0  0  0  0  0  0
  140.4989   77.8913  220.8768 H   0  0  0  0  0  0  0  0  0  0  0  0
  141.0620   77.9560  219.1393 H   0  0  0  0  0  0  0  0  0  0  0  0
  139.1126   76.2795  219.9969 H   0  0  0  0  0  0  0  0  0  0  0  0
  140.2454   75.9053  218.6375 H   0  0  0  0  0  0  0  0  0  0  0  0
  141.9481   71.1315  224.3788 H   0  0  0  0  0  0  0  0  0  0  0  0
  140.9993   72.6106  224.7930 H   0  0  0  0  0  0  0  0  0  0  0  0
  1  2  2  0
  2  3  1  0
  3  4  2  0
  4  5  1  0
  5  6  2  0
  5  7  1  0
  7  8  1  0
  8  9  1  0
  9 10  1  0
 10 11  2  0
 11 12  1  0
 12 13  1  0
 13 14  1  0
 14 15  1  0
 15 16  1  0
 16 17  1  0
 17 18  1  0
 18 19  1  0
 19 20  1  0
 20 21  1  0
 12 22  2  0
 22 23  1  0
 23 24  1  0
 24 25  1  0
 25 26  1  0
 26 27  1  0
 27 28  1  0
 28 29  1  0
 23 30  2  0
  9 31  1  0
  6  1  1  0
 30 10  1  0
 31  4  1  0
 21 16  1  0
 29 24  1  0
  1 32  1  0
  2 33  1  0
  3 34  1  0
  6 35  1  0
  7 36  1  0
  7 37  1  0
  8 38  1  0
  8 39  1  0
 13 40  1  0
 14 41  1  0
 14 42  1  0
 15 43  1  0
 15 44  1  0
 16 45  1  0
 17 46  1  0
 17 47  1  0
 18 48  1  0
 18 49  1  0
 20 50  1  0
 20 51  1  0
 21 52  1  0
 21 53  1  0
 22 54  1  0
 25 55  1  0
 25 56  1  0
 26 57  1  0
 26 58  1  0
 27 59  1  0
 27 60  1  0
 28 61  1  0
 28 62  1  0
 29 63  1  0
 29 64  1  0
 31 65  1  0
 31 66  1  0
M  CHG  2  16   1  27   1
M  END
>  <UniqueID>  (20) 
484

>  <SMILES>  (20) 
c1ccc2c(c1)CCN(c1nc(NCC[NH+]3CCOCC3)cc(N3CC[NH2+]CC3)n1)C2

>  <Energy>  (20) 
85.75868760980674

>  <Genealogy>  (20) 
c1ccc2c(c1)CCN(c1nc(NCC[NH+]3CCOCC3)cc(N3CC[NH2+]CC3)n1)C2 (protonated)
c1ccc2c(c1)CCN(c1nc(NCC[NH+]3CCOCC3)cc(N3CC[NH2+]CC3)n1)C2 (3D coordinates assigned)
c1ccc2c(c1)CCN(c1nc(NCC[NH+]3CCOCC3)cc(N3CC[NH2+]CC3)n1)C2 (nonaromatic ring conformer: 85.75868760980674 kcal/mol)

>  <smiles>  (20) 
c1ccc2c(c1)CCN(c1nc(NCCN3CCOCC3)cc(N3CCNCC3)n1)C2

>  <score_type>  (20) 
oracle

>  <origin>  (20) 
autodockgpu

>  <m_score__min__energy>  (20) 
-8.2200000000000006

>  <m_primary>  (20) 
energy

>  <meeko>  (20) 
{"free_energy": -6.98, "intermolecular_energy": -8.77, "internal_energy": -2.09, "cluster_size": 17, "cluster_id": 1, "rank_in_cluster": 17}

>  <energy>  (20) 
-6.87

>  <cluster_rmsd>  (20) 
0.0

>  <rmsd>  (20) 
269.03

>  <cluster>  (20) 
3

$$$$
DRRGDEWGQQLPRW-CXKBQSNCNA-P
     RDKit          3D

 66 70  0  0  0  0  0  0  0  0999 V2000
  141.2036   70.4654  229.1201 H   0  0  0  0  0  0  0  0  0  0  0  0
  140.7390   70.2480  228.1470 C   0  0  0  0  0  0  0  0  0  0  0  0
  139.7810   69.2380  228.0430 C   0  0  0  0  0  0  0  0  0  0  0  0
  139.4961   68.6573  228.9327 H   0  0  0  0  0  0  0  0  0  0  0  0
  139.1840   68.9640  226.8110 C   0  0  0  0  0  0  0  0  0  0  0  0
  138.4260   68.1703  226.7368 H   0  0  0  0  0  0  0  0  0  0  0  0
  139.5430   69.6930  225.6660 C   0  0  0  0  0  0  0  0  0  0  0  0
  140.5090   70.7240  225.7750 C   0  0  0  0  0  0  0  0  0  0  0  0
  141.1090   70.9830  227.0190 C   0  0  0  0  0  0  0  0  0  0  0  0
  141.8740   71.7688  227.1046 H   0  0  0  0  0  0  0  0  0  0  0  0
  140.9570   71.5100  224.5660 C   0  0  0  0  0  0  0  0  0  0  0  0
  141.9459   71.1491  224.2469 H   0  0  0  0  0  0  0  0  0  0  0  0
  141.0081   72.5752  224.8359 H   0  0  0  0  0  0  0  0  0  0  0  0
  140.0070   71.3490  223.4620 N   0  0  0  0  0  0  0  0  0  0  0  0
  139.5450   72.4950  222.7280 C   0  0  0  0  0  0  0  0  0  0  0  0
  140.4490   73.3790  222.2330 N   0  0  0  0  0  0  0  0  0  0  0  0
  140.0730   74.5100  221.5810 C   0  0  0  0  0  0  0  0  0  0  0  0
  141.0880   75.4170  221.0830 N   0  0  0  0  0  0  0  0  0  0  0  0
  141.0530   76.8540  221.4110 C   0  0  0  0  0  0  0  0  0  0  0  0
  140.0046   77.1768  221.4929 H   0  0  0  0  0  0  0  0  0  0  0  0
  141.5836   77.0046  222.3627 H   0  0  0  0  0  0  0  0  0  0  0  0
  141.7510   77.6930  220.3310 C   0  0  0  0  0  0  0  0  0  0  0  0
  141.1255   77.7033  219.4262 H   0  0  0  0  0  0  0  0  0  0  0  0
  141.8907   78.7119  220.7213 H   0  0  0  0  0  0  0  0  0  0  0  0
  143.0710   77.1430  219.9930 N   0  0  0  0  0  0  0  0  0  0  0  0
  143.6990   77.1630  220.8290 H   0  0  0  0  0  0  0  0  0  0  0  0
  143.4980   77.7350  219.2420 H   0  0  0  0  0  0  0  0  0  0  0  0
  142.9450   75.7710  219.4890 C   0  0  0  0  0  0  0  0  0  0  0  0
  142.2914   75.7698  218.6042 H   0  0  0  0  0  0  0  0  0  0  0  0
  143.9454   75.3978  219.2246 H   0  0  0  0  0  0  0  0  0  0  0  0
  142.3450   74.8560  220.5580 C   0  0  0  0  0  0  0  0  0  0  0  0
  142.1423   73.8695  220.1156 H   0  0  0  0  0  0  0  0  0  0  0  0
  143.0628   74.7646  221.3865 H   0  0  0  0  0  0  0  0  0  0  0  0
  138.7030   74.7820  221.4400 C   0  0  0  0  0  0  0  0  0  0  0  0
  138.3663   75.7011  220.9381 H   0  0  0  0  0  0  0  0  0  0  0  0
  137.7640   73.8620  221.9500 C   0  0  0  0  0  0  0  0  0  0  0  0
  136.4740   74.0580  221.8590 N   0  0  0  0  0  0  0  0  0  0  0  0
  135.4390   73.0630  221.5700 C   0  0  0  0  0  0  0  0  0  0  0  0
  134.8902   73.3633  220.6652 H   0  0  0  0  0  0  0  0  0  0  0  0
  135.9179   72.0850  221.4148 H   0  0  0  0  0  0  0  0  0  0  0  0
  134.4540   72.9550  222.7480 C   0  0  0  0  0  0  0  0  0  0  0  0
  133.6143   73.6383  222.5532 H   0  0  0  0  0  0  0  0  0  0  0  0
  134.1565   71.8973  222.8012 H   0  0  0  0  0  0  0  0  0  0  0  0
  135.0220   73.2920  224.0820 N   0  0  0  0  0  0  0  0  0  0  0  0
  136.0540   73.3390  223.8950 H   0  0  0  0  0  0  0  0  0  0  0  0
  134.6690   74.6500  224.5710 C   0  0  0  0  0  0  0  0  0  0  0  0
  135.5417   75.0734  225.0897 H   0  0  0  0  0  0  0  0  0  0  0  0
  134.3803   75.2499  223.6953 H   0  0  0  0  0  0  0  0  0  0  0  0
  133.4780   74.6490  225.5390 C   0  0  0  0  0  0  0  0  0  0  0  0
  133.3463   75.6596  225.9529 H   0  0  0  0  0  0  0  0  0  0  0  0
  132.5736   74.3441  224.9921 H   0  0  0  0  0  0  0  0  0  0  0  0
  133.7030   73.7420  226.5920 O   0  0  0  0  0  0  0  0  0  0  0  0
  133.7000   72.4320  226.0710 C   0  0  0  0  0  0  0  0  0  0  0  0
  133.7863   71.7158  226.9015 H   0  0  0  0  0  0  0  0  0  0  0  0
  132.7595   72.2789  225.5215 H   0  0  0  0  0  0  0  0  0  0  0  0
  134.8720   72.2150  225.0980 C   0  0  0  0  0  0  0  0  0  0  0  0
  135.8018   72.1595  225.6832 H   0  0  0  0  0  0  0  0  0  0  0  0
  134.6616   71.2857  224.5483 H   0  0  0  0  0  0  0  0  0  0  0  0
  138.2120   72.7390  222.5780 N   0  0  0  0  0  0  0  0  0  0  0  0
  137.5140   72.0740  222.9870 H   0  0  0  0  0  0  0  0  0  0  0  0
  139.5430   69.9950  223.1600 C   0  0  0  0  0  0  0  0  0  0  0  0
  140.4061   69.3535  222.9285 H   0  0  0  0  0  0  0  0  0  0  0  0
  138.8664   70.0213  222.2931 H   0  0  0  0  0  0  0  0  0  0  0  0
  138.8010   69.4350  224.3730 C   0  0  0  0  0  0  0  0  0  0  0  0
  138.6805   68.3492  224.2443 H   0  0  0  0  0  0  0  0  0  0  0  0
  137.8265   69.9413  224.4361 H   0  0  0  0  0  0  0  0  0  0  0  0
  1  2  1  0
  2  3  2  0
  3  4  1  0
  3  5  1  0
  5  6  1  0
  5  7  2  0
  7  8  1  0
  8  9  2  0
  9 10  1  0
  8 11  1  0
 11 12  1  0
 11 13  1  0
 11 14  1  0
 14 15  1  0
 15 16  2  0
 16 17  1  0
 17 18  1  0
 18 19  1  0
 19 20  1  0
 19 21  1  0
 19 22  1  0
 22 23  1  0
 22 24  1  0
 22 25  1  0
 25 26  1  0
 25 27  1  0
 25 28  1  0
 28 29  1  0
 28 30  1  0
 28 31  1  0
 31 32  1  0
 31 33  1  0
 17 34  2  0
 34 35  1  0
 34 36  1  0
 36 37  2  0
 37 38  1  0
 38 39  1  0
 38 40  1  0
 38 41  1  0
 41 42  1  0
 41 43  1  0
 41 44  1  0
 44 45  1  0
 44 46  1  0
 46 47  1  0
 46 48  1  0
 46 49  1  0
 49 50  1  0
 49 51  1  0
 49 52  1  0
 52 53  1  0
 53 54  1  0
 53 55  1  0
 53 56  1  0
 56 57  1  0
 56 58  1  0
 36 59  1  0
 59 60  1  0
 14 61  1  0
 61 62  1  0
 61 63  1  0
 61 64  1  0
 64 65  1  0
 64 66  1  0
  9  2  1  0
 59 15  1  0
 64  7  1  0
 31 18  1  0
 56 44  1  0
M  CHG  2  25   1  44   1
M  END
>  <UniqueID>  (21) 
485

>  <SMILES>  (21) 
c1ccc2c(c1)CCN(c1nc(N3CC[NH2+]CC3)c/c(=N\CC[NH+]3CCOCC3)[nH]1)C2

>  <Energy>  (21) 
88.44114188630586

>  <Genealogy>  (21) 
c1ccc2c(c1)CCN(c1nc(NCC[NH+]3CCOCC3)cc(N3CC[NH2+]CC3)n1)C2 (protonated)
c1ccc2c(c1)CCN(c1nc(N3CC[NH2+]CC3)cc(=NCC[NH+]3CCOCC3)[nH]1)C2 (tautomer)
c1ccc2c(c1)CCN(c1nc(N3CC[NH2+]CC3)c/c(=N\CC[NH+]3CCOCC3)[nH]1)C2 (cis-trans isomerization)
c1ccc2c(c1)CCN(c1nc(N3CC[NH2+]CC3)c/c(=N\CC[NH+]3CCOCC3)[nH]1)C2 (3D coordinates assigned)
c1ccc2c(c1)CCN(c1nc(N3CC[NH2+]CC3)c/c(=N\CC[NH+]3CCOCC3)[nH]1)C2 (nonaromatic ring conformer: 88.44114188630586 kcal/mol)

>  <smiles>  (21) 
c1ccc2c(c1)CCN(c1nc(NCCN3CCOCC3)cc(N3CCNCC3)n1)C2

>  <score_type>  (21) 
oracle

>  <origin>  (21) 
autodockgpu

>  <m_score__min__energy>  (21) 
-9.1799999999999997

>  <m_primary>  (21) 
energy

>  <meeko>  (21) 
{"free_energy": -8.38, "intermolecular_energy": -10.17, "internal_energy": -1.46, "cluster_size": 20, "cluster_id": 1, "rank_in_cluster": 11}

>  <energy>  (21) 
-9.18

>  <cluster_rmsd>  (21) 
0.0

>  <rmsd>  (21) 
271.87

>  <cluster>  (21) 
1

$$$$
DRRGDEWGQQLPRW-CXKBQSNCNA-P
     RDKit          3D

 66 70  0  0  0  0  0  0  0  0999 V2000
  141.2679   70.6178  228.9047 H   0  0  0  0  0  0  0  0  0  0  0  0
  140.7200   70.4230  227.9710 C   0  0  0  0  0  0  0  0  0  0  0  0
  139.6660   69.5070  227.9600 C   0  0  0  0  0  0  0  0  0  0  0  0
  139.3886   68.9773  228.8833 H   0  0  0  0  0  0  0  0  0  0  0  0
  138.9640   69.2630  226.7780 C   0  0  0  0  0  0  0  0  0  0  0  0
  138.1320   68.5435  226.7764 H   0  0  0  0  0  0  0  0  0  0  0  0
  139.3110   69.9280  225.5920 C   0  0  0  0  0  0  0  0  0  0  0  0
  140.3760   70.8640  225.6060 C   0  0  0  0  0  0  0  0  0  0  0  0
  141.0800   71.0920  226.8000 C   0  0  0  0  0  0  0  0  0  0  0  0
  141.9201   71.8020  226.8123 H   0  0  0  0  0  0  0  0  0  0  0  0
  140.8130   71.5750  224.3470 C   0  0  0  0  0  0  0  0  0  0  0  0
  141.7390   71.1128  223.9742 H   0  0  0  0  0  0  0  0  0  0  0  0
  140.9836   72.6362  224.5812 H   0  0  0  0  0  0  0  0  0  0  0  0
  139.7790   71.4810  223.3140 N   0  0  0  0  0  0  0  0  0  0  0  0
  139.3770   72.6480  222.5780 C   0  0  0  0  0  0  0  0  0  0  0  0
  140.3270   73.4880  222.0920 N   0  0  0  0  0  0  0  0  0  0  0  0
  140.0110   74.6370  221.4390 C   0  0  0  0  0  0  0  0  0  0  0  0
  141.0720   75.4950  220.9500 N   0  0  0  0  0  0  0  0  0  0  0  0
  141.0700   76.9430  221.2280 C   0  0  0  0  0  0  0  0  0  0  0  0
  140.0301   77.3002  221.2579 H   0  0  0  0  0  0  0  0  0  0  0  0
  141.5683   77.1107  222.1942 H   0  0  0  0  0  0  0  0  0  0  0  0
  141.8350   77.7220  220.1480 C   0  0  0  0  0  0  0  0  0  0  0  0
  141.2447   77.7196  219.2198 H   0  0  0  0  0  0  0  0  0  0  0  0
  141.9922   78.7491  220.5091 H   0  0  0  0  0  0  0  0  0  0  0  0
  143.1490   77.1210  219.8800 N   0  0  0  0  0  0  0  0  0  0  0  0
  143.7450   77.1510  220.7390 H   0  0  0  0  0  0  0  0  0  0  0  0
  143.6220   77.6730  219.1270 H   0  0  0  0  0  0  0  0  0  0  0  0
  142.9980   75.7360  219.4190 C   0  0  0  0  0  0  0  0  0  0  0  0
  142.3782   75.7235  218.5103 H   0  0  0  0  0  0  0  0  0  0  0  0
  143.9953   75.3234  219.2066 H   0  0  0  0  0  0  0  0  0  0  0  0
  142.3300   74.8780  220.4940 C   0  0  0  0  0  0  0  0  0  0  0  0
  142.1134   73.8830  220.0780 H   0  0  0  0  0  0  0  0  0  0  0  0
  143.0127   74.7942  221.3524 H   0  0  0  0  0  0  0  0  0  0  0  0
  138.6570   74.9750  221.2880 C   0  0  0  0  0  0  0  0  0  0  0  0
  138.3691   75.9102  220.7854 H   0  0  0  0  0  0  0  0  0  0  0  0
  137.6700   74.1000  221.7890 C   0  0  0  0  0  0  0  0  0  0  0  0
  136.3920   74.3580  221.6880 N   0  0  0  0  0  0  0  0  0  0  0  0
  135.3130   73.4140  221.3900 C   0  0  0  0  0  0  0  0  0  0  0  0
  134.6993   73.8123  220.5686 H   0  0  0  0  0  0  0  0  0  0  0  0
  135.7531   72.4488  221.0988 H   0  0  0  0  0  0  0  0  0  0  0  0
  134.4260   73.2050  222.6310 C   0  0  0  0  0  0  0  0  0  0  0  0
  133.5480   73.8609  222.5359 H   0  0  0  0  0  0  0  0  0  0  0  0
  134.1752   72.1341  222.6496 H   0  0  0  0  0  0  0  0  0  0  0  0
  135.0800   73.4980  223.9350 N   0  0  0  0  0  0  0  0  0  0  0  0
  136.0960   73.5700  223.6790 H   0  0  0  0  0  0  0  0  0  0  0  0
  134.7430   74.8300  224.5030 C   0  0  0  0  0  0  0  0  0  0  0  0
  135.6435   75.2465  224.9779 H   0  0  0  0  0  0  0  0  0  0  0  0
  134.3866   75.4601  223.6748 H   0  0  0  0  0  0  0  0  0  0  0  0
  133.6220   74.7700  225.5490 C   0  0  0  0  0  0  0  0  0  0  0  0
  133.5043   75.7609  226.0118 H   0  0  0  0  0  0  0  0  0  0  0  0
  132.6864   74.4715  225.0535 H   0  0  0  0  0  0  0  0  0  0  0  0
  133.9330   73.8260  226.5460 O   0  0  0  0  0  0  0  0  0  0  0  0
  133.9120   72.5380  225.9740 C   0  0  0  0  0  0  0  0  0  0  0  0
  134.0658   71.7912  226.7669 H   0  0  0  0  0  0  0  0  0  0  0  0
  132.9378   72.3911  225.4848 H   0  0  0  0  0  0  0  0  0  0  0  0
  135.0160   72.3790  224.9150 C   0  0  0  0  0  0  0  0  0  0  0  0
  135.9849   72.3160  225.4320 H   0  0  0  0  0  0  0  0  0  0  0  0
  134.7809   71.4686  224.3440 H   0  0  0  0  0  0  0  0  0  0  0  0
  138.0590   72.9560  222.4180 N   0  0  0  0  0  0  0  0  0  0  0  0
  137.3270   72.3250  222.8200 H   0  0  0  0  0  0  0  0  0  0  0  0
  139.1680   70.1710  223.0830 C   0  0  0  0  0  0  0  0  0  0  0  0
  139.9481   69.4438  222.8137 H   0  0  0  0  0  0  0  0  0  0  0  0
  138.4390   70.2434  222.2625 H   0  0  0  0  0  0  0  0  0  0  0  0
  138.4610   69.7130  224.3580 C   0  0  0  0  0  0  0  0  0  0  0  0
  138.2299   68.6412  224.2694 H   0  0  0  0  0  0  0  0  0  0  0  0
  137.5453   70.3121  224.4702 H   0  0  0  0  0  0  0  0  0  0  0  0
  1  2  1  0
  2  3  2  0
  3  4  1  0
  3  5  1  0
  5  6  1  0
  5  7  2  0
  7  8  1  0
  8  9  2  0
  9 10  1  0
  8 11  1  0
 11 12  1  0
 11 13  1  0
 11 14  1  0
 14 15  1  0
 15 16  2  0
 16 17  1  0
 17 18  1  0
 18 19  1  0
 19 20  1  0
 19 21  1  0
 19 22  1  0
 22 23  1  0
 22 24  1  0
 22 25  1  0
 25 26  1  0
 25 27  1  0
 25 28  1  0
 28 29  1  0
 28 30  1  0
 28 31  1  0
 31 32  1  0
 31 33  1  0
 17 34  2  0
 34 35  1  0
 34 36  1  0
 36 37  2  0
 37 38  1  0
 38 39  1  0
 38 40  1  0
 38 41  1  0
 41 42  1  0
 41 43  1  0
 41 44  1  0
 44 45  1  0
 44 46  1  0
 46 47  1  0
 46 48  1  0
 46 49  1  0
 49 50  1  0
 49 51  1  0
 49 52  1  0
 52 53  1  0
 53 54  1  0
 53 55  1  0
 53 56  1  0
 56 57  1  0
 56 58  1  0
 36 59  1  0
 59 60  1  0
 14 61  1  0
 61 62  1  0
 61 63  1  0
 61 64  1  0
 64 65  1  0
 64 66  1  0
  9  2  1  0
 59 15  1  0
 64  7  1  0
 31 18  1  0
 56 44  1  0
M  CHG  2  25   1  44   1
M  END
>  <UniqueID>  (22) 
485

>  <SMILES>  (22) 
c1ccc2c(c1)CCN(c1nc(N3CC[NH2+]CC3)c/c(=N\CC[NH+]3CCOCC3)[nH]1)C2

>  <Energy>  (22) 
88.44114188630586

>  <Genealogy>  (22) 
c1ccc2c(c1)CCN(c1nc(NCC[NH+]3CCOCC3)cc(N3CC[NH2+]CC3)n1)C2 (protonated)
c1ccc2c(c1)CCN(c1nc(N3CC[NH2+]CC3)cc(=NCC[NH+]3CCOCC3)[nH]1)C2 (tautomer)
c1ccc2c(c1)CCN(c1nc(N3CC[NH2+]CC3)c/c(=N\CC[NH+]3CCOCC3)[nH]1)C2 (cis-trans isomerization)
c1ccc2c(c1)CCN(c1nc(N3CC[NH2+]CC3)c/c(=N\CC[NH+]3CCOCC3)[nH]1)C2 (3D coordinates assigned)
c1ccc2c(c1)CCN(c1nc(N3CC[NH2+]CC3)c/c(=N\CC[NH+]3CCOCC3)[nH]1)C2 (nonaromatic ring conformer: 88.44114188630586 kcal/mol)

>  <smiles>  (22) 
c1ccc2c(c1)CCN(c1nc(NCCN3CCOCC3)cc(N3CCNCC3)n1)C2

>  <score_type>  (22) 
oracle

>  <origin>  (22) 
autodockgpu

>  <m_score__min__energy>  (22) 
-9.1799999999999997

>  <m_primary>  (22) 
energy

>  <meeko>  (22) 
{"free_energy": -8.3, "intermolecular_energy": -10.09, "internal_energy": -1.55, "cluster_size": 20, "cluster_id": 1, "rank_in_cluster": 14}

>  <energy>  (22) 
-9.13

>  <cluster_rmsd>  (22) 
0.14

>  <rmsd>  (22) 
271.88

>  <cluster>  (22) 
1

$$$$
DRRGDEWGQQLPRW-CXKBQSNCNA-P
     RDKit          3D

 66 70  0  0  0  0  0  0  0  0999 V2000
  141.1919   70.6916  229.3043 H   0  0  0  0  0  0  0  0  0  0  0  0
  140.7450   70.3950  228.3440 C   0  0  0  0  0  0  0  0  0  0  0  0
  139.8530   69.3220  228.2930 C   0  0  0  0  0  0  0  0  0  0  0  0
  139.6031   68.7709  229.2116 H   0  0  0  0  0  0  0  0  0  0  0  0
  139.2780   68.9480  227.0770 C   0  0  0  0  0  0  0  0  0  0  0  0
  138.5723   68.1049  227.0439 H   0  0  0  0  0  0  0  0  0  0  0  0
  139.5930   69.6390  225.8960 C   0  0  0  0  0  0  0  0  0  0  0  0
  140.4930   70.7340  225.9510 C   0  0  0  0  0  0  0  0  0  0  0  0
  141.0710   71.0920  227.1800 C   0  0  0  0  0  0  0  0  0  0  0  0
  141.7853   71.9273  227.2252 H   0  0  0  0  0  0  0  0  0  0  0  0
  140.8940   71.4830  224.7030 C   0  0  0  0  0  0  0  0  0  0  0  0
  141.9044   71.1688  224.4022 H   0  0  0  0  0  0  0  0  0  0  0  0
  140.8778   72.5618  224.9174 H   0  0  0  0  0  0  0  0  0  0  0  0
  139.9590   71.2060  223.6100 N   0  0  0  0  0  0  0  0  0  0  0  0
  139.4270   72.2810  222.8170 C   0  0  0  0  0  0  0  0  0  0  0  0
  140.2550   73.2710  222.3960 N   0  0  0  0  0  0  0  0  0  0  0  0
  139.8030   74.3430  221.6940 C   0  0  0  0  0  0  0  0  0  0  0  0
  140.7370   75.3700  221.2790 N   0  0  0  0  0  0  0  0  0  0  0  0
  140.5730   76.7700  221.7120 C   0  0  0  0  0  0  0  0  0  0  0  0
  139.4997   76.9934  221.8018 H   0  0  0  0  0  0  0  0  0  0  0  0
  141.0800   76.8946  222.6802 H   0  0  0  0  0  0  0  0  0  0  0  0
  141.2040   77.7450  220.7070 C   0  0  0  0  0  0  0  0  0  0  0  0
  140.5867   77.7690  219.7968 H   0  0  0  0  0  0  0  0  0  0  0  0
  141.2516   78.7394  221.1749 H   0  0  0  0  0  0  0  0  0  0  0  0
  142.5690   77.3400  220.3470 N   0  0  0  0  0  0  0  0  0  0  0  0
  143.1870   77.3510  221.1920 H   0  0  0  0  0  0  0  0  0  0  0  0
  142.9480   78.0210  219.6480 H   0  0  0  0  0  0  0  0  0  0  0  0
  142.5680   76.0030  219.7420 C   0  0  0  0  0  0  0  0  0  0  0  0
  141.9237   76.0107  218.8505 H   0  0  0  0  0  0  0  0  0  0  0  0
  143.5996   75.7395  219.4655 H   0  0  0  0  0  0  0  0  0  0  0  0
  142.0430   74.9610  220.7320 C   0  0  0  0  0  0  0  0  0  0  0  0
  141.9314   73.9965  220.2150 H   0  0  0  0  0  0  0  0  0  0  0  0
  142.7598   74.8702  221.5614 H   0  0  0  0  0  0  0  0  0  0  0  0
  138.4290   74.4380  221.4220 C   0  0  0  0  0  0  0  0  0  0  0  0
  138.0281   75.3053  220.8770 H   0  0  0  0  0  0  0  0  0  0  0  0
  137.5690   73.4080  221.8560 C   0  0  0  0  0  0  0  0  0  0  0  0
  136.2790   73.4380  221.6420 N   0  0  0  0  0  0  0  0  0  0  0  0
  135.4440   74.6160  221.3970 C   0  0  0  0  0  0  0  0  0  0  0  0
  136.0692   75.4254  220.9920 H   0  0  0  0  0  0  0  0  0  0  0  0
  134.6555   74.3507  220.6773 H   0  0  0  0  0  0  0  0  0  0  0  0
  134.7860   75.0900  222.7060 C   0  0  0  0  0  0  0  0  0  0  0  0
  134.9753   76.1685  222.8112 H   0  0  0  0  0  0  0  0  0  0  0  0
  133.7186   74.8382  222.6203 H   0  0  0  0  0  0  0  0  0  0  0  0
  135.2730   74.4140  223.9400 N   0  0  0  0  0  0  0  0  0  0  0  0
  136.2580   74.1480  223.6910 H   0  0  0  0  0  0  0  0  0  0  0  0
  135.4140   75.3140  225.1140 C   0  0  0  0  0  0  0  0  0  0  0  0
  136.3118   75.0179  225.6764 H   0  0  0  0  0  0  0  0  0  0  0  0
  135.4884   76.3428  224.7318 H   0  0  0  0  0  0  0  0  0  0  0  0
  134.2070   75.2630  226.0590 C   0  0  0  0  0  0  0  0  0  0  0  0
  134.4262   75.8553  226.9596 H   0  0  0  0  0  0  0  0  0  0  0  0
  133.3292   75.6759  225.5403 H   0  0  0  0  0  0  0  0  0  0  0  0
  133.9340   73.9330  226.4330 O   0  0  0  0  0  0  0  0  0  0  0  0
  133.4880   73.2250  225.2980 C   0  0  0  0  0  0  0  0  0  0  0  0
  133.1881   72.2115  225.6027 H   0  0  0  0  0  0  0  0  0  0  0  0
  132.6363   73.7678  224.8622 H   0  0  0  0  0  0  0  0  0  0  0  0
  134.5950   73.1220  224.2340 C   0  0  0  0  0  0  0  0  0  0  0  0
  135.3516   72.4073  224.5899 H   0  0  0  0  0  0  0  0  0  0  0  0
  134.1112   72.7966  223.3013 H   0  0  0  0  0  0  0  0  0  0  0  0
  138.0940   72.3530  222.5400 N   0  0  0  0  0  0  0  0  0  0  0  0
  137.4510   71.6070  222.8920 H   0  0  0  0  0  0  0  0  0  0  0  0
  139.5810   69.8120  223.3780 C   0  0  0  0  0  0  0  0  0  0  0  0
  140.4830   69.2148  223.1785 H   0  0  0  0  0  0  0  0  0  0  0  0
  138.9058   69.7521  222.5117 H   0  0  0  0  0  0  0  0  0  0  0  0
  138.8730   69.2690  224.6180 C   0  0  0  0  0  0  0  0  0  0  0  0
  138.8220   68.1726  224.5450 H   0  0  0  0  0  0  0  0  0  0  0  0
  137.8683   69.7153  224.6554 H   0  0  0  0  0  0  0  0  0  0  0  0
  1  2  1  0
  2  3  2  0
  3  4  1  0
  3  5  1  0
  5  6  1  0
  5  7  2  0
  7  8  1  0
  8  9  2  0
  9 10  1  0
  8 11  1  0
 11 12  1  0
 11 13  1  0
 11 14  1  0
 14 15  1  0
 15 16  2  0
 16 17  1  0
 17 18  1  0
 18 19  1  0
 19 20  1  0
 19 21  1  0
 19 22  1  0
 22 23  1  0
 22 24  1  0
 22 25  1  0
 25 26  1  0
 25 27  1  0
 25 28  1  0
 28 29  1  0
 28 30  1  0
 28 31  1  0
 31 32  1  0
 31 33  1  0
 17 34  2  0
 34 35  1  0
 34 36  1  0
 36 37  2  0
 37 38  1  0
 38 39  1  0
 38 40  1  0
 38 41  1  0
 41 42  1  0
 41 43  1  0
 41 44  1  0
 44 45  1  0
 44 46  1  0
 46 47  1  0
 46 48  1  0
 46 49  1  0
 49 50  1  0
 49 51  1  0
 49 52  1  0
 52 53  1  0
 53 54  1  0
 53 55  1  0
 53 56  1  0
 56 57  1  0
 56 58  1  0
 36 59  1  0
 59 60  1  0
 14 61  1  0
 61 62  1  0
 61 63  1  0
 61 64  1  0
 64 65  1  0
 64 66  1  0
  9  2  1  0
 59 15  1  0
 64  7  1  0
 31 18  1  0
 56 44  1  0
M  CHG  2  25   1  44   1
M  END
>  <UniqueID>  (23) 
485

>  <SMILES>  (23) 
c1ccc2c(c1)CCN(c1nc(N3CC[NH2+]CC3)c/c(=N\CC[NH+]3CCOCC3)[nH]1)C2

>  <Energy>  (23) 
88.44114188630586

>  <Genealogy>  (23) 
c1ccc2c(c1)CCN(c1nc(NCC[NH+]3CCOCC3)cc(N3CC[NH2+]CC3)n1)C2 (protonated)
c1ccc2c(c1)CCN(c1nc(N3CC[NH2+]CC3)cc(=NCC[NH+]3CCOCC3)[nH]1)C2 (tautomer)
c1ccc2c(c1)CCN(c1nc(N3CC[NH2+]CC3)c/c(=N\CC[NH+]3CCOCC3)[nH]1)C2 (cis-trans isomerization)
c1ccc2c(c1)CCN(c1nc(N3CC[NH2+]CC3)c/c(=N\CC[NH+]3CCOCC3)[nH]1)C2 (3D coordinates assigned)
c1ccc2c(c1)CCN(c1nc(N3CC[NH2+]CC3)c/c(=N\CC[NH+]3CCOCC3)[nH]1)C2 (nonaromatic ring conformer: 88.44114188630586 kcal/mol)

>  <smiles>  (23) 
c1ccc2c(c1)CCN(c1nc(NCCN3CCOCC3)cc(N3CCNCC3)n1)C2

>  <score_type>  (23) 
oracle

>  <origin>  (23) 
autodockgpu

>  <m_score__min__energy>  (23) 
-9.1799999999999997

>  <m_primary>  (23) 
energy

>  <meeko>  (23) 
{"free_energy": -8.76, "intermolecular_energy": -10.55, "internal_energy": -1.45, "cluster_size": 20, "cluster_id": 1, "rank_in_cluster": 9}

>  <energy>  (23) 
-9.1

>  <cluster_rmsd>  (23) 
0.15

>  <rmsd>  (23) 
271.84

>  <cluster>  (23) 
1

$$$$
DRRGDEWGQQLPRW-CXKBQSNCNA-P
     RDKit          3D

 66 70  0  0  0  0  0  0  0  0999 V2000
  141.2280   70.8288  229.2995 H   0  0  0  0  0  0  0  0  0  0  0  0
  140.7640   70.5330  228.3470 C   0  0  0  0  0  0  0  0  0  0  0  0
  139.8160   69.5090  228.3230 C   0  0  0  0  0  0  0  0  0  0  0  0
  139.5382   68.9954  229.2552 H   0  0  0  0  0  0  0  0  0  0  0  0
  139.2200   69.1360  227.1170 C   0  0  0  0  0  0  0  0  0  0  0  0
  138.4699   68.3316  227.1052 H   0  0  0  0  0  0  0  0  0  0  0  0
  139.5700   69.7790  225.9190 C   0  0  0  0  0  0  0  0  0  0  0  0
  140.5260   70.8250  225.9460 C   0  0  0  0  0  0  0  0  0  0  0  0
  141.1250   71.1830  227.1650 C   0  0  0  0  0  0  0  0  0  0  0  0
  141.8828   71.9800  227.1887 H   0  0  0  0  0  0  0  0  0  0  0  0
  140.9650   71.5210  224.6790 C   0  0  0  0  0  0  0  0  0  0  0  0
  141.9567   71.1461  224.3859 H   0  0  0  0  0  0  0  0  0  0  0  0
  141.0069   72.6041  224.8664 H   0  0  0  0  0  0  0  0  0  0  0  0
  140.0150   71.2670  223.5940 N   0  0  0  0  0  0  0  0  0  0  0  0
  139.5390   72.3480  222.7750 C   0  0  0  0  0  0  0  0  0  0  0  0
  140.4240   73.2580  222.2940 N   0  0  0  0  0  0  0  0  0  0  0  0
  140.0310   74.3350  221.5640 C   0  0  0  0  0  0  0  0  0  0  0  0
  141.0250   75.2750  221.0850 N   0  0  0  0  0  0  0  0  0  0  0  0
  141.0160   76.6830  221.5230 C   0  0  0  0  0  0  0  0  0  0  0  0
  139.9753   77.0019  221.6820 H   0  0  0  0  0  0  0  0  0  0  0  0
  141.5940   76.7595  222.4557 H   0  0  0  0  0  0  0  0  0  0  0  0
  141.6650   77.5990  220.4750 C   0  0  0  0  0  0  0  0  0  0  0  0
  140.9950   77.6792  219.6063 H   0  0  0  0  0  0  0  0  0  0  0  0
  141.8310   78.5849  220.9337 H   0  0  0  0  0  0  0  0  0  0  0  0
  142.9630   77.0730  220.0300 N   0  0  0  0  0  0  0  0  0  0  0  0
  143.6320   77.0280  220.8330 H   0  0  0  0  0  0  0  0  0  0  0  0
  143.3550   77.7190  219.3060 H   0  0  0  0  0  0  0  0  0  0  0  0
  142.8030   75.7430  219.4320 C   0  0  0  0  0  0  0  0  0  0  0  0
  142.1063   75.8103  218.5834 H   0  0  0  0  0  0  0  0  0  0  0  0
  143.7869   75.3882  219.0915 H   0  0  0  0  0  0  0  0  0  0  0  0
  142.2510   74.7510  220.4570 C   0  0  0  0  0  0  0  0  0  0  0  0
  142.0199   73.8016  219.9518 H   0  0  0  0  0  0  0  0  0  0  0  0
  143.0084   74.5942  221.2391 H   0  0  0  0  0  0  0  0  0  0  0  0
  138.6600   74.5210  221.3240 C   0  0  0  0  0  0  0  0  0  0  0  0
  138.3073   75.3948  220.7565 H   0  0  0  0  0  0  0  0  0  0  0  0
  137.7410   73.5730  221.8200 C   0  0  0  0  0  0  0  0  0  0  0  0
  136.4510   73.6900  221.6380 N   0  0  0  0  0  0  0  0  0  0  0  0
  135.6830   74.9260  221.4780 C   0  0  0  0  0  0  0  0  0  0  0  0
  136.3663   75.7450  221.2090 H   0  0  0  0  0  0  0  0  0  0  0  0
  134.9353   74.7811  220.6843 H   0  0  0  0  0  0  0  0  0  0  0  0
  134.9570   75.2810  222.7890 C   0  0  0  0  0  0  0  0  0  0  0  0
  135.1481   76.3420  223.0076 H   0  0  0  0  0  0  0  0  0  0  0  0
  133.8942   75.0520  222.6216 H   0  0  0  0  0  0  0  0  0  0  0  0
  135.3700   74.4840  223.9770 N   0  0  0  0  0  0  0  0  0  0  0  0
  136.3480   74.1900  223.7360 H   0  0  0  0  0  0  0  0  0  0  0  0
  135.5130   75.2780  225.2250 C   0  0  0  0  0  0  0  0  0  0  0  0
  136.3768   74.8938  225.7873 H   0  0  0  0  0  0  0  0  0  0  0  0
  135.6474   76.3295  224.9311 H   0  0  0  0  0  0  0  0  0  0  0  0
  134.2740   75.2100  226.1270 C   0  0  0  0  0  0  0  0  0  0  0  0
  134.4906   75.7154  227.0797 H   0  0  0  0  0  0  0  0  0  0  0  0
  133.4342   75.7067  225.6191 H   0  0  0  0  0  0  0  0  0  0  0  0
  133.9270   73.8690  226.3810 O   0  0  0  0  0  0  0  0  0  0  0  0
  133.4870   73.2780  225.1790 C   0  0  0  0  0  0  0  0  0  0  0  0
  133.1300   72.2592  225.3901 H   0  0  0  0  0  0  0  0  0  0  0  0
  132.6767   73.8954  224.7641 H   0  0  0  0  0  0  0  0  0  0  0  0
  134.6230   73.2070  224.1440 C   0  0  0  0  0  0  0  0  0  0  0  0
  135.3333   72.4298  224.4626 H   0  0  0  0  0  0  0  0  0  0  0  0
  134.1562   72.9818  223.1737 H   0  0  0  0  0  0  0  0  0  0  0  0
  138.2080   72.5080  222.5300 N   0  0  0  0  0  0  0  0  0  0  0  0
  137.5220   71.8240  222.9270 H   0  0  0  0  0  0  0  0  0  0  0  0
  139.5630   69.8890  223.3970 C   0  0  0  0  0  0  0  0  0  0  0  0
  140.4318   69.2400  223.2127 H   0  0  0  0  0  0  0  0  0  0  0  0
  138.8845   69.8435  222.5324 H   0  0  0  0  0  0  0  0  0  0  0  0
  138.8280   69.4150  224.6510 C   0  0  0  0  0  0  0  0  0  0  0  0
  138.7187   68.3214  224.6058 H   0  0  0  0  0  0  0  0  0  0  0  0
  137.8480   69.9138  224.6775 H   0  0  0  0  0  0  0  0  0  0  0  0
  1  2  1  0
  2  3  2  0
  3  4  1  0
  3  5  1  0
  5  6  1  0
  5  7  2  0
  7  8  1  0
  8  9  2  0
  9 10  1  0
  8 11  1  0
 11 12  1  0
 11 13  1  0
 11 14  1  0
 14 15  1  0
 15 16  2  0
 16 17  1  0
 17 18  1  0
 18 19  1  0
 19 20  1  0
 19 21  1  0
 19 22  1  0
 22 23  1  0
 22 24  1  0
 22 25  1  0
 25 26  1  0
 25 27  1  0
 25 28  1  0
 28 29  1  0
 28 30  1  0
 28 31  1  0
 31 32  1  0
 31 33  1  0
 17 34  2  0
 34 35  1  0
 34 36  1  0
 36 37  2  0
 37 38  1  0
 38 39  1  0
 38 40  1  0
 38 41  1  0
 41 42  1  0
 41 43  1  0
 41 44  1  0
 44 45  1  0
 44 46  1  0
 46 47  1  0
 46 48  1  0
 46 49  1  0
 49 50  1  0
 49 51  1  0
 49 52  1  0
 52 53  1  0
 53 54  1  0
 53 55  1  0
 53 56  1  0
 56 57  1  0
 56 58  1  0
 36 59  1  0
 59 60  1  0
 14 61  1  0
 61 62  1  0
 61 63  1  0
 61 64  1  0
 64 65  1  0
 64 66  1  0
  9  2  1  0
 59 15  1  0
 64  7  1  0
 31 18  1  0
 56 44  1  0
M  CHG  2  25   1  44   1
M  END
>  <UniqueID>  (24) 
485

>  <SMILES>  (24) 
c1ccc2c(c1)CCN(c1nc(N3CC[NH2+]CC3)c/c(=N\CC[NH+]3CCOCC3)[nH]1)C2

>  <Energy>  (24) 
88.44114188630586

>  <Genealogy>  (24) 
c1ccc2c(c1)CCN(c1nc(NCC[NH+]3CCOCC3)cc(N3CC[NH2+]CC3)n1)C2 (protonated)
c1ccc2c(c1)CCN(c1nc(N3CC[NH2+]CC3)cc(=NCC[NH+]3CCOCC3)[nH]1)C2 (tautomer)
c1ccc2c(c1)CCN(c1nc(N3CC[NH2+]CC3)c/c(=N\CC[NH+]3CCOCC3)[nH]1)C2 (cis-trans isomerization)
c1ccc2c(c1)CCN(c1nc(N3CC[NH2+]CC3)c/c(=N\CC[NH+]3CCOCC3)[nH]1)C2 (3D coordinates assigned)
c1ccc2c(c1)CCN(c1nc(N3CC[NH2+]CC3)c/c(=N\CC[NH+]3CCOCC3)[nH]1)C2 (nonaromatic ring conformer: 88.44114188630586 kcal/mol)

>  <smiles>  (24) 
c1ccc2c(c1)CCN(c1nc(NCCN3CCOCC3)cc(N3CCNCC3)n1)C2

>  <score_type>  (24) 
oracle

>  <origin>  (24) 
autodockgpu

>  <m_score__min__energy>  (24) 
-9.1799999999999997

>  <m_primary>  (24) 
energy

>  <meeko>  (24) 
{"free_energy": -8.77, "intermolecular_energy": -10.56, "internal_energy": -1.47, "cluster_size": 20, "cluster_id": 1, "rank_in_cluster": 7}

>  <energy>  (24) 
-8.95

>  <cluster_rmsd>  (24) 
0.51

>  <rmsd>  (24) 
271.87

>  <cluster>  (24) 
1

$$$$
DRRGDEWGQQLPRW-CXKBQSNCNA-P
     RDKit          3D

 66 70  0  0  0  0  0  0  0  0999 V2000
  141.2388   70.4856  228.9320 H   0  0  0  0  0  0  0  0  0  0  0  0
  140.7010   70.3080  227.9890 C   0  0  0  0  0  0  0  0  0  0  0  0
  139.6500   69.3890  227.9490 C   0  0  0  0  0  0  0  0  0  0  0  0
  139.3652   68.8398  228.8586 H   0  0  0  0  0  0  0  0  0  0  0  0
  138.9610   69.1670  226.7560 C   0  0  0  0  0  0  0  0  0  0  0  0
  138.1316   68.4449  226.7317 H   0  0  0  0  0  0  0  0  0  0  0  0
  139.3170   69.8570  225.5870 C   0  0  0  0  0  0  0  0  0  0  0  0
  140.3790   70.7960  225.6300 C   0  0  0  0  0  0  0  0  0  0  0  0
  141.0710   71.0020  226.8350 C   0  0  0  0  0  0  0  0  0  0  0  0
  141.9089   71.7138  226.8698 H   0  0  0  0  0  0  0  0  0  0  0  0
  140.8260   71.5330  224.3910 C   0  0  0  0  0  0  0  0  0  0  0  0
  141.7571   71.0811  224.0183 H   0  0  0  0  0  0  0  0  0  0  0  0
  140.9908   72.5897  224.6483 H   0  0  0  0  0  0  0  0  0  0  0  0
  139.8020   71.4570  223.3450 N   0  0  0  0  0  0  0  0  0  0  0  0
  139.4040   72.6370  222.6290 C   0  0  0  0  0  0  0  0  0  0  0  0
  140.3570   73.4670  222.1300 N   0  0  0  0  0  0  0  0  0  0  0  0
  140.0460   74.6270  221.4950 C   0  0  0  0  0  0  0  0  0  0  0  0
  141.1090   75.4730  220.9920 N   0  0  0  0  0  0  0  0  0  0  0  0
  141.0840   76.9330  221.1960 C   0  0  0  0  0  0  0  0  0  0  0  0
  140.0398   77.2786  221.1804 H   0  0  0  0  0  0  0  0  0  0  0  0
  141.5546   77.1550  222.1652 H   0  0  0  0  0  0  0  0  0  0  0  0
  141.8690   77.6660  220.0990 C   0  0  0  0  0  0  0  0  0  0  0  0
  141.3039   77.6099  219.1569 H   0  0  0  0  0  0  0  0  0  0  0  0
  142.0053   78.7116  220.4122 H   0  0  0  0  0  0  0  0  0  0  0  0
  143.1960   77.0690  219.8960 N   0  0  0  0  0  0  0  0  0  0  0  0
  143.7690   77.1490  220.7680 H   0  0  0  0  0  0  0  0  0  0  0  0
  143.6830   77.5880  219.1280 H   0  0  0  0  0  0  0  0  0  0  0  0
  143.0730   75.6610  219.5020 C   0  0  0  0  0  0  0  0  0  0  0  0
  142.4780   75.5951  218.5792 H   0  0  0  0  0  0  0  0  0  0  0  0
  144.0804   75.2510  219.3373 H   0  0  0  0  0  0  0  0  0  0  0  0
  142.3860   74.8490  220.6010 C   0  0  0  0  0  0  0  0  0  0  0  0
  142.1917   73.8319  220.2299 H   0  0  0  0  0  0  0  0  0  0  0  0
  143.0462   74.8161  221.4802 H   0  0  0  0  0  0  0  0  0  0  0  0
  138.6940   74.9880  221.3770 C   0  0  0  0  0  0  0  0  0  0  0  0
  138.4103   75.9326  220.8899 H   0  0  0  0  0  0  0  0  0  0  0  0
  137.7040   74.1240  221.8910 C   0  0  0  0  0  0  0  0  0  0  0  0
  136.4290   74.4040  221.8200 N   0  0  0  0  0  0  0  0  0  0  0  0
  135.3340   73.4910  221.4840 C   0  0  0  0  0  0  0  0  0  0  0  0
  134.7413   73.9220  220.6636 H   0  0  0  0  0  0  0  0  0  0  0  0
  135.7574   72.5236  221.1762 H   0  0  0  0  0  0  0  0  0  0  0  0
  134.4240   73.2720  222.7070 C   0  0  0  0  0  0  0  0  0  0  0  0
  133.5667   73.9557  222.6201 H   0  0  0  0  0  0  0  0  0  0  0  0
  134.1416   72.2090  222.6909 H   0  0  0  0  0  0  0  0  0  0  0  0
  135.0690   73.5080  224.0270 N   0  0  0  0  0  0  0  0  0  0  0  0
  136.0890   73.5650  223.7850 H   0  0  0  0  0  0  0  0  0  0  0  0
  134.7550   74.8270  224.6350 C   0  0  0  0  0  0  0  0  0  0  0  0
  135.6588   75.2070  225.1337 H   0  0  0  0  0  0  0  0  0  0  0  0
  134.4226   75.4919  223.8242 H   0  0  0  0  0  0  0  0  0  0  0  0
  133.6200   74.7580  225.6660 C   0  0  0  0  0  0  0  0  0  0  0  0
  133.5186   75.7357  226.1598 H   0  0  0  0  0  0  0  0  0  0  0  0
  132.6841   74.4970  225.1503 H   0  0  0  0  0  0  0  0  0  0  0  0
  133.8980   73.7750  226.6350 O   0  0  0  0  0  0  0  0  0  0  0  0
  133.8550   72.5070  226.0200 C   0  0  0  0  0  0  0  0  0  0  0  0
  133.9828   71.7311  226.7892 H   0  0  0  0  0  0  0  0  0  0  0  0
  132.8835   72.3985  225.5155 H   0  0  0  0  0  0  0  0  0  0  0  0
  134.9680   72.3580  224.9680 C   0  0  0  0  0  0  0  0  0  0  0  0
  135.9290   72.2552  225.4932 H   0  0  0  0  0  0  0  0  0  0  0  0
  134.7191   71.4730  224.3640 H   0  0  0  0  0  0  0  0  0  0  0  0
  138.0880   72.9680  222.5000 N   0  0  0  0  0  0  0  0  0  0  0  0
  137.3550   72.3450  222.9130 H   0  0  0  0  0  0  0  0  0  0  0  0
  139.1990   70.1500  223.0820 C   0  0  0  0  0  0  0  0  0  0  0  0
  139.9848   69.4313  222.8064 H   0  0  0  0  0  0  0  0  0  0  0  0
  138.4781   70.2359  222.2556 H   0  0  0  0  0  0  0  0  0  0  0  0
  138.4810   69.6640  224.3400 C   0  0  0  0  0  0  0  0  0  0  0  0
  138.2549   68.5934  224.2274 H   0  0  0  0  0  0  0  0  0  0  0  0
  137.5621   70.2577  224.4546 H   0  0  0  0  0  0  0  0  0  0  0  0
  1  2  1  0
  2  3  2  0
  3  4  1  0
  3  5  1  0
  5  6  1  0
  5  7  2  0
  7  8  1  0
  8  9  2  0
  9 10  1  0
  8 11  1  0
 11 12  1  0
 11 13  1  0
 11 14  1  0
 14 15  1  0
 15 16  2  0
 16 17  1  0
 17 18  1  0
 18 19  1  0
 19 20  1  0
 19 21  1  0
 19 22  1  0
 22 23  1  0
 22 24  1  0
 22 25  1  0
 25 26  1  0
 25 27  1  0
 25 28  1  0
 28 29  1  0
 28 30  1  0
 28 31  1  0
 31 32  1  0
 31 33  1  0
 17 34  2  0
 34 35  1  0
 34 36  1  0
 36 37  2  0
 37 38  1  0
 38 39  1  0
 38 40  1  0
 38 41  1  0
 41 42  1  0
 41 43  1  0
 41 44  1  0
 44 45  1  0
 44 46  1  0
 46 47  1  0
 46 48  1  0
 46 49  1  0
 49 50  1  0
 49 51  1  0
 49 52  1  0
 52 53  1  0
 53 54  1  0
 53 55  1  0
 53 56  1  0
 56 57  1  0
 56 58  1  0
 36 59  1  0
 59 60  1  0
 14 61  1  0
 61 62  1  0
 61 63  1  0
 61 64  1  0
 64 65  1  0
 64 66  1  0
  9  2  1  0
 59 15  1  0
 64  7  1  0
 31 18  1  0
 56 44  1  0
M  CHG  2  25   1  44   1
M  END
>  <UniqueID>  (25) 
485

>  <SMILES>  (25) 
c1ccc2c(c1)CCN(c1nc(N3CC[NH2+]CC3)c/c(=N\CC[NH+]3CCOCC3)[nH]1)C2

>  <Energy>  (25) 
88.44114188630586

>  <Genealogy>  (25) 
c1ccc2c(c1)CCN(c1nc(NCC[NH+]3CCOCC3)cc(N3CC[NH2+]CC3)n1)C2 (protonated)
c1ccc2c(c1)CCN(c1nc(N3CC[NH2+]CC3)cc(=NCC[NH+]3CCOCC3)[nH]1)C2 (tautomer)
c1ccc2c(c1)CCN(c1nc(N3CC[NH2+]CC3)c/c(=N\CC[NH+]3CCOCC3)[nH]1)C2 (cis-trans isomerization)
c1ccc2c(c1)CCN(c1nc(N3CC[NH2+]CC3)c/c(=N\CC[NH+]3CCOCC3)[nH]1)C2 (3D coordinates assigned)
c1ccc2c(c1)CCN(c1nc(N3CC[NH2+]CC3)c/c(=N\CC[NH+]3CCOCC3)[nH]1)C2 (nonaromatic ring conformer: 88.44114188630586 kcal/mol)

>  <smiles>  (25) 
c1ccc2c(c1)CCN(c1nc(NCCN3CCOCC3)cc(N3CCNCC3)n1)C2

>  <score_type>  (25) 
oracle

>  <origin>  (25) 
autodockgpu

>  <m_score__min__energy>  (25) 
-9.1799999999999997

>  <m_primary>  (25) 
energy

>  <meeko>  (25) 
{"free_energy": -8.3, "intermolecular_energy": -10.08, "internal_energy": -1.54, "cluster_size": 20, "cluster_id": 1, "rank_in_cluster": 15}

>  <energy>  (25) 
-8.81

>  <cluster_rmsd>  (25) 
0.54

>  <rmsd>  (25) 
271.83

>  <cluster>  (25) 
1

$$$$
DRRGDEWGQQLPRW-CXKBQSNCNA-P
     RDKit          3D

 66 70  0  0  0  0  0  0  0  0999 V2000
  141.2526   70.5432  228.9078 H   0  0  0  0  0  0  0  0  0  0  0  0
  140.7040   70.3610  227.9720 C   0  0  0  0  0  0  0  0  0  0  0  0
  139.6430   69.4530  227.9520 C   0  0  0  0  0  0  0  0  0  0  0  0
  139.3605   68.9178  228.8706 H   0  0  0  0  0  0  0  0  0  0  0  0
  138.9410   69.2240  226.7680 C   0  0  0  0  0  0  0  0  0  0  0  0
  138.1037   68.5107  226.7599 H   0  0  0  0  0  0  0  0  0  0  0  0
  139.2940   69.8960  225.5870 C   0  0  0  0  0  0  0  0  0  0  0  0
  140.3650   70.8240  225.6100 C   0  0  0  0  0  0  0  0  0  0  0  0
  141.0700   71.0380  226.8070 C   0  0  0  0  0  0  0  0  0  0  0  0
  141.9145   71.7426  226.8261 H   0  0  0  0  0  0  0  0  0  0  0  0
  140.8090   71.5430  224.3580 C   0  0  0  0  0  0  0  0  0  0  0  0
  141.7327   71.0782  223.9828 H   0  0  0  0  0  0  0  0  0  0  0  0
  140.9863   72.6010  224.6013 H   0  0  0  0  0  0  0  0  0  0  0  0
  139.7760   71.4640  223.3230 N   0  0  0  0  0  0  0  0  0  0  0  0
  139.3830   72.6400  222.5950 C   0  0  0  0  0  0  0  0  0  0  0  0
  140.3390   73.4710  222.1070 N   0  0  0  0  0  0  0  0  0  0  0  0
  140.0330   74.6280  221.4630 C   0  0  0  0  0  0  0  0  0  0  0  0
  141.1000   75.4760  220.9710 N   0  0  0  0  0  0  0  0  0  0  0  0
  141.0800   76.9330  221.1940 C   0  0  0  0  0  0  0  0  0  0  0  0
  140.0371   77.2826  221.1819 H   0  0  0  0  0  0  0  0  0  0  0  0
  141.5501   77.1409  222.1665 H   0  0  0  0  0  0  0  0  0  0  0  0
  141.8690   77.6770  220.1070 C   0  0  0  0  0  0  0  0  0  0  0  0
  141.3048   77.6347  219.1637 H   0  0  0  0  0  0  0  0  0  0  0  0
  142.0086   78.7181  220.4335 H   0  0  0  0  0  0  0  0  0  0  0  0
  143.1940   77.0780  219.8980 N   0  0  0  0  0  0  0  0  0  0  0  0
  143.7660   77.1440  220.7710 H   0  0  0  0  0  0  0  0  0  0  0  0
  143.6840   77.6050  219.1370 H   0  0  0  0  0  0  0  0  0  0  0  0
  143.0660   75.6750  219.4850 C   0  0  0  0  0  0  0  0  0  0  0  0
  142.4715   75.6234  218.5609 H   0  0  0  0  0  0  0  0  0  0  0  0
  144.0718   75.2632  219.3153 H   0  0  0  0  0  0  0  0  0  0  0  0
  142.3750   74.8520  220.5730 C   0  0  0  0  0  0  0  0  0  0  0  0
  142.1770   73.8404  220.1890 H   0  0  0  0  0  0  0  0  0  0  0  0
  143.0344   74.8055  221.4522 H   0  0  0  0  0  0  0  0  0  0  0  0
  138.6810   74.9830  221.3240 C   0  0  0  0  0  0  0  0  0  0  0  0
  138.4004   75.9245  220.8291 H   0  0  0  0  0  0  0  0  0  0  0  0
  137.6880   74.1170  221.8270 C   0  0  0  0  0  0  0  0  0  0  0  0
  136.4130   74.3910  221.7360 N   0  0  0  0  0  0  0  0  0  0  0  0
  135.3290   73.4790  221.3640 C   0  0  0  0  0  0  0  0  0  0  0  0
  134.6730   73.9750  220.6335 H   0  0  0  0  0  0  0  0  0  0  0  0
  135.7639   72.5687  220.9255 H   0  0  0  0  0  0  0  0  0  0  0  0
  134.5040   73.0900  222.6040 C   0  0  0  0  0  0  0  0  0  0  0  0
  133.5403   73.6177  222.5510 H   0  0  0  0  0  0  0  0  0  0  0  0
  134.4068   71.9947  222.5752 H   0  0  0  0  0  0  0  0  0  0  0  0
  135.1360   73.4150  223.9120 N   0  0  0  0  0  0  0  0  0  0  0  0
  136.1560   73.4790  223.6730 H   0  0  0  0  0  0  0  0  0  0  0  0
  134.7890   74.7600  224.4420 C   0  0  0  0  0  0  0  0  0  0  0  0
  135.6812   75.1879  224.9226 H   0  0  0  0  0  0  0  0  0  0  0  0
  134.4469   75.3693  223.5925 H   0  0  0  0  0  0  0  0  0  0  0  0
  133.6500   74.7260  225.4690 C   0  0  0  0  0  0  0  0  0  0  0  0
  133.5254   75.7279  225.9056 H   0  0  0  0  0  0  0  0  0  0  0  0
  132.7230   74.4162  224.9643 H   0  0  0  0  0  0  0  0  0  0  0  0
  133.9420   73.8060  226.4940 O   0  0  0  0  0  0  0  0  0  0  0  0
  133.9290   72.5040  225.9520 C   0  0  0  0  0  0  0  0  0  0  0  0
  134.0668   71.7759  226.7649 H   0  0  0  0  0  0  0  0  0  0  0  0
  132.9636   72.3466  225.4487 H   0  0  0  0  0  0  0  0  0  0  0  0
  135.0530   72.3190  224.9170 C   0  0  0  0  0  0  0  0  0  0  0  0
  136.0121   72.2677  225.4531 H   0  0  0  0  0  0  0  0  0  0  0  0
  134.8278   71.3954  224.3636 H   0  0  0  0  0  0  0  0  0  0  0  0
  138.0670   72.9650  222.4470 N   0  0  0  0  0  0  0  0  0  0  0  0
  137.3310   72.3410  222.8510 H   0  0  0  0  0  0  0  0  0  0  0  0
  139.1570   70.1600  223.0800 C   0  0  0  0  0  0  0  0  0  0  0  0
  139.9328   69.4298  222.8062 H   0  0  0  0  0  0  0  0  0  0  0  0
  138.4302   70.2434  222.2585 H   0  0  0  0  0  0  0  0  0  0  0  0
  138.4450   69.6970  224.3500 C   0  0  0  0  0  0  0  0  0  0  0  0
  138.2065   68.6276  224.2525 H   0  0  0  0  0  0  0  0  0  0  0  0
  137.5335   70.3019  224.4654 H   0  0  0  0  0  0  0  0  0  0  0  0
  1  2  1  0
  2  3  2  0
  3  4  1  0
  3  5  1  0
  5  6  1  0
  5  7  2  0
  7  8  1  0
  8  9  2  0
  9 10  1  0
  8 11  1  0
 11 12  1  0
 11 13  1  0
 11 14  1  0
 14 15  1  0
 15 16  2  0
 16 17  1  0
 17 18  1  0
 18 19  1  0
 19 20  1  0
 19 21  1  0
 19 22  1  0
 22 23  1  0
 22 24  1  0
 22 25  1  0
 25 26  1  0
 25 27  1  0
 25 28  1  0
 28 29  1  0
 28 30  1  0
 28 31  1  0
 31 32  1  0
 31 33  1  0
 17 34  2  0
 34 35  1  0
 34 36  1  0
 36 37  2  0
 37 38  1  0
 38 39  1  0
 38 40  1  0
 38 41  1  0
 41 42  1  0
 41 43  1  0
 41 44  1  0
 44 45  1  0
 44 46  1  0
 46 47  1  0
 46 48  1  0
 46 49  1  0
 49 50  1  0
 49 51  1  0
 49 52  1  0
 52 53  1  0
 53 54  1  0
 53 55  1  0
 53 56  1  0
 56 57  1  0
 56 58  1  0
 36 59  1  0
 59 60  1  0
 14 61  1  0
 61 62  1  0
 61 63  1  0
 61 64  1  0
 64 65  1  0
 64 66  1  0
  9  2  1  0
 59 15  1  0
 64  7  1  0
 31 18  1  0
 56 44  1  0
M  CHG  2  25   1  44   1
M  END
>  <UniqueID>  (26) 
485

>  <SMILES>  (26) 
c1ccc2c(c1)CCN(c1nc(N3CC[NH2+]CC3)c/c(=N\CC[NH+]3CCOCC3)[nH]1)C2

>  <Energy>  (26) 
88.44114188630586

>  <Genealogy>  (26) 
c1ccc2c(c1)CCN(c1nc(NCC[NH+]3CCOCC3)cc(N3CC[NH2+]CC3)n1)C2 (protonated)
c1ccc2c(c1)CCN(c1nc(N3CC[NH2+]CC3)cc(=NCC[NH+]3CCOCC3)[nH]1)C2 (tautomer)
c1ccc2c(c1)CCN(c1nc(N3CC[NH2+]CC3)c/c(=N\CC[NH+]3CCOCC3)[nH]1)C2 (cis-trans isomerization)
c1ccc2c(c1)CCN(c1nc(N3CC[NH2+]CC3)c/c(=N\CC[NH+]3CCOCC3)[nH]1)C2 (3D coordinates assigned)
c1ccc2c(c1)CCN(c1nc(N3CC[NH2+]CC3)c/c(=N\CC[NH+]3CCOCC3)[nH]1)C2 (nonaromatic ring conformer: 88.44114188630586 kcal/mol)

>  <smiles>  (26) 
c1ccc2c(c1)CCN(c1nc(NCCN3CCOCC3)cc(N3CCNCC3)n1)C2

>  <score_type>  (26) 
oracle

>  <origin>  (26) 
autodockgpu

>  <m_score__min__energy>  (26) 
-9.1799999999999997

>  <m_primary>  (26) 
energy

>  <meeko>  (26) 
{"free_energy": -8.27, "intermolecular_energy": -10.06, "internal_energy": -1.56, "cluster_size": 20, "cluster_id": 1, "rank_in_cluster": 20}

>  <energy>  (26) 
-8.78

>  <cluster_rmsd>  (26) 
0.45

>  <rmsd>  (26) 
271.8

>  <cluster>  (26) 
1

$$$$
DRRGDEWGQQLPRW-CXKBQSNCNA-P
     RDKit          3D

 66 70  0  0  0  0  0  0  0  0999 V2000
  141.2637   70.5926  228.9159 H   0  0  0  0  0  0  0  0  0  0  0  0
  140.7150   70.4010  227.9820 C   0  0  0  0  0  0  0  0  0  0  0  0
  139.6580   69.4880  227.9700 C   0  0  0  0  0  0  0  0  0  0  0  0
  139.3793   68.9577  228.8926 H   0  0  0  0  0  0  0  0  0  0  0  0
  138.9550   69.2480  226.7880 C   0  0  0  0  0  0  0  0  0  0  0  0
  138.1207   68.5312  226.7857 H   0  0  0  0  0  0  0  0  0  0  0  0
  139.3040   69.9140  225.6020 C   0  0  0  0  0  0  0  0  0  0  0  0
  140.3720   70.8470  225.6180 C   0  0  0  0  0  0  0  0  0  0  0  0
  141.0770   71.0710  226.8120 C   0  0  0  0  0  0  0  0  0  0  0  0
  141.9192   71.7784  226.8252 H   0  0  0  0  0  0  0  0  0  0  0  0
  140.8100   71.5590  224.3610 C   0  0  0  0  0  0  0  0  0  0  0  0
  141.7352   71.0958  223.9875 H   0  0  0  0  0  0  0  0  0  0  0  0
  140.9821   72.6195  224.5973 H   0  0  0  0  0  0  0  0  0  0  0  0
  139.7760   71.4690  223.3270 N   0  0  0  0  0  0  0  0  0  0  0  0
  139.3780   72.6390  222.5930 C   0  0  0  0  0  0  0  0  0  0  0  0
  140.3290   73.4790  222.1110 N   0  0  0  0  0  0  0  0  0  0  0  0
  140.0170   74.6300  221.4600 C   0  0  0  0  0  0  0  0  0  0  0  0
  141.0790   75.4880  220.9760 N   0  0  0  0  0  0  0  0  0  0  0  0
  141.0600   76.9400  221.2260 C   0  0  0  0  0  0  0  0  0  0  0  0
  140.0168   77.2888  221.2287 H   0  0  0  0  0  0  0  0  0  0  0  0
  141.5382   77.1296  222.1983 H   0  0  0  0  0  0  0  0  0  0  0  0
  141.8400   77.7060  220.1470 C   0  0  0  0  0  0  0  0  0  0  0  0
  141.2678   77.6826  219.2078 H   0  0  0  0  0  0  0  0  0  0  0  0
  141.9825   78.7404  220.4929 H   0  0  0  0  0  0  0  0  0  0  0  0
  143.1630   77.1110  219.9150 N   0  0  0  0  0  0  0  0  0  0  0  0
  143.7430   77.1620  220.7850 H   0  0  0  0  0  0  0  0  0  0  0  0
  143.6460   77.6530  219.1610 H   0  0  0  0  0  0  0  0  0  0  0  0
  143.0330   75.7170  219.4770 C   0  0  0  0  0  0  0  0  0  0  0  0
  142.4314   75.6822  218.5568 H   0  0  0  0  0  0  0  0  0  0  0  0
  144.0377   75.3094  219.2917 H   0  0  0  0  0  0  0  0  0  0  0  0
  142.3510   74.8730  220.5550 C   0  0  0  0  0  0  0  0  0  0  0  0
  142.1503   73.8689  220.1532 H   0  0  0  0  0  0  0  0  0  0  0  0
  143.0178   74.8106  221.4276 H   0  0  0  0  0  0  0  0  0  0  0  0
  138.6630   74.9700  221.3070 C   0  0  0  0  0  0  0  0  0  0  0  0
  138.3771   75.9066  220.8060 H   0  0  0  0  0  0  0  0  0  0  0  0
  137.6740   74.0950  221.8040 C   0  0  0  0  0  0  0  0  0  0  0  0
  136.3970   74.3550  221.7010 N   0  0  0  0  0  0  0  0  0  0  0  0
  135.3110   73.4040  221.4560 C   0  0  0  0  0  0  0  0  0  0  0  0
  134.7204   73.7429  220.5921 H   0  0  0  0  0  0  0  0  0  0  0  0
  135.7433   72.4131  221.2528 H   0  0  0  0  0  0  0  0  0  0  0  0
  134.3950   73.3060  222.6900 C   0  0  0  0  0  0  0  0  0  0  0  0
  133.5875   74.0439  222.5740 H   0  0  0  0  0  0  0  0  0  0  0  0
  134.0382   72.2660  222.7236 H   0  0  0  0  0  0  0  0  0  0  0  0
  135.0630   73.5560  223.9960 N   0  0  0  0  0  0  0  0  0  0  0  0
  136.0740   73.6500  223.7310 H   0  0  0  0  0  0  0  0  0  0  0  0
  134.7170   74.8600  224.6200 C   0  0  0  0  0  0  0  0  0  0  0  0
  135.6186   75.2691  225.0993 H   0  0  0  0  0  0  0  0  0  0  0  0
  134.3414   75.5167  223.8214 H   0  0  0  0  0  0  0  0  0  0  0  0
  133.6110   74.7460  225.6770 C   0  0  0  0  0  0  0  0  0  0  0  0
  133.4879   75.7169  226.1792 H   0  0  0  0  0  0  0  0  0  0  0  0
  132.6725   74.4553  225.1822 H   0  0  0  0  0  0  0  0  0  0  0  0
  133.9460   73.7680  226.6330 O   0  0  0  0  0  0  0  0  0  0  0  0
  133.9330   72.5020  226.0100 C   0  0  0  0  0  0  0  0  0  0  0  0
  134.1060   71.7264  226.7706 H   0  0  0  0  0  0  0  0  0  0  0  0
  132.9543   72.3622  225.5276 H   0  0  0  0  0  0  0  0  0  0  0  0
  135.0250   72.3990  224.9320 C   0  0  0  0  0  0  0  0  0  0  0  0
  136.0011   72.3281  225.4342 H   0  0  0  0  0  0  0  0  0  0  0  0
  134.7934   71.5090  224.3285 H   0  0  0  0  0  0  0  0  0  0  0  0
  138.0600   72.9480  222.4310 N   0  0  0  0  0  0  0  0  0  0  0  0
  137.3270   72.3180  222.8300 H   0  0  0  0  0  0  0  0  0  0  0  0
  139.1630   70.1610  223.0940 C   0  0  0  0  0  0  0  0  0  0  0  0
  139.9420   69.4326  222.8245 H   0  0  0  0  0  0  0  0  0  0  0  0
  138.4349   70.2356  222.2728 H   0  0  0  0  0  0  0  0  0  0  0  0
  138.4540   69.7030  224.3680 C   0  0  0  0  0  0  0  0  0  0  0  0
  138.2200   68.6320  224.2778 H   0  0  0  0  0  0  0  0  0  0  0  0
  137.5397   70.3042  224.4806 H   0  0  0  0  0  0  0  0  0  0  0  0
  1  2  1  0
  2  3  2  0
  3  4  1  0
  3  5  1  0
  5  6  1  0
  5  7  2  0
  7  8  1  0
  8  9  2  0
  9 10  1  0
  8 11  1  0
 11 12  1  0
 11 13  1  0
 11 14  1  0
 14 15  1  0
 15 16  2  0
 16 17  1  0
 17 18  1  0
 18 19  1  0
 19 20  1  0
 19 21  1  0
 19 22  1  0
 22 23  1  0
 22 24  1  0
 22 25  1  0
 25 26  1  0
 25 27  1  0
 25 28  1  0
 28 29  1  0
 28 30  1  0
 28 31  1  0
 31 32  1  0
 31 33  1  0
 17 34  2  0
 34 35  1  0
 34 36  1  0
 36 37  2  0
 37 38  1  0
 38 39  1  0
 38 40  1  0
 38 41  1  0
 41 42  1  0
 41 43  1  0
 41 44  1  0
 44 45  1  0
 44 46  1  0
 46 47  1  0
 46 48  1  0
 46 49  1  0
 49 50  1  0
 49 51  1  0
 49 52  1  0
 52 53  1  0
 53 54  1  0
 53 55  1  0
 53 56  1  0
 56 57  1  0
 56 58  1  0
 36 59  1  0
 59 60  1  0
 14 61  1  0
 61 62  1  0
 61 63  1  0
 61 64  1  0
 64 65  1  0
 64 66  1  0
  9  2  1  0
 59 15  1  0
 64  7  1  0
 31 18  1  0
 56 44  1  0
M  CHG  2  25   1  44   1
M  END
>  <UniqueID>  (27) 
485

>  <SMILES>  (27) 
c1ccc2c(c1)CCN(c1nc(N3CC[NH2+]CC3)c/c(=N\CC[NH+]3CCOCC3)[nH]1)C2

>  <Energy>  (27) 
88.44114188630586

>  <Genealogy>  (27) 
c1ccc2c(c1)CCN(c1nc(NCC[NH+]3CCOCC3)cc(N3CC[NH2+]CC3)n1)C2 (protonated)
c1ccc2c(c1)CCN(c1nc(N3CC[NH2+]CC3)cc(=NCC[NH+]3CCOCC3)[nH]1)C2 (tautomer)
c1ccc2c(c1)CCN(c1nc(N3CC[NH2+]CC3)c/c(=N\CC[NH+]3CCOCC3)[nH]1)C2 (cis-trans isomerization)
c1ccc2c(c1)CCN(c1nc(N3CC[NH2+]CC3)c/c(=N\CC[NH+]3CCOCC3)[nH]1)C2 (3D coordinates assigned)
c1ccc2c(c1)CCN(c1nc(N3CC[NH2+]CC3)c/c(=N\CC[NH+]3CCOCC3)[nH]1)C2 (nonaromatic ring conformer: 88.44114188630586 kcal/mol)

>  <smiles>  (27) 
c1ccc2c(c1)CCN(c1nc(NCCN3CCOCC3)cc(N3CCNCC3)n1)C2

>  <score_type>  (27) 
oracle

>  <origin>  (27) 
autodockgpu

>  <m_score__min__energy>  (27) 
-9.1799999999999997

>  <m_primary>  (27) 
energy

>  <meeko>  (27) 
{"free_energy": -8.32, "intermolecular_energy": -10.11, "internal_energy": -1.54, "cluster_size": 20, "cluster_id": 1, "rank_in_cluster": 12}

>  <energy>  (27) 
-8.77

>  <cluster_rmsd>  (27) 
0.58

>  <rmsd>  (27) 
271.82

>  <cluster>  (27) 
1

$$$$
DRRGDEWGQQLPRW-CXKBQSNCNA-P
     RDKit          3D

 66 70  0  0  0  0  0  0  0  0999 V2000
  141.2469   70.6043  228.9167 H   0  0  0  0  0  0  0  0  0  0  0  0
  140.7000   70.4110  227.9820 C   0  0  0  0  0  0  0  0  0  0  0  0
  139.6400   69.5020  227.9700 C   0  0  0  0  0  0  0  0  0  0  0  0
  139.3574   68.9754  228.8935 H   0  0  0  0  0  0  0  0  0  0  0  0
  138.9390   69.2610  226.7880 C   0  0  0  0  0  0  0  0  0  0  0  0
  138.1016   68.5477  226.7866 H   0  0  0  0  0  0  0  0  0  0  0  0
  139.2930   69.9210  225.6000 C   0  0  0  0  0  0  0  0  0  0  0  0
  140.3640   70.8490  225.6150 C   0  0  0  0  0  0  0  0  0  0  0  0
  141.0670   71.0750  226.8100 C   0  0  0  0  0  0  0  0  0  0  0  0
  141.9118   71.7794  226.8224 H   0  0  0  0  0  0  0  0  0  0  0  0
  140.8080   71.5550  224.3560 C   0  0  0  0  0  0  0  0  0  0  0  0
  141.7321   71.0868  223.9862 H   0  0  0  0  0  0  0  0  0  0  0  0
  140.9842   72.6156  224.5886 H   0  0  0  0  0  0  0  0  0  0  0  0
  139.7760   71.4650  223.3210 N   0  0  0  0  0  0  0  0  0  0  0  0
  139.3830   72.6340  222.5810 C   0  0  0  0  0  0  0  0  0  0  0  0
  140.3390   73.4710  222.1030 N   0  0  0  0  0  0  0  0  0  0  0  0
  140.0320   74.6220  221.4480 C   0  0  0  0  0  0  0  0  0  0  0  0
  141.0990   75.4770  220.9680 N   0  0  0  0  0  0  0  0  0  0  0  0
  141.0740   76.9320  221.2050 C   0  0  0  0  0  0  0  0  0  0  0  0
  140.0302   77.2789  221.1926 H   0  0  0  0  0  0  0  0  0  0  0  0
  141.5398   77.1323  222.1812 H   0  0  0  0  0  0  0  0  0  0  0  0
  141.8650   77.6880  220.1270 C   0  0  0  0  0  0  0  0  0  0  0  0
  141.3040   77.6529  219.1815 H   0  0  0  0  0  0  0  0  0  0  0  0
  142.0010   78.7265  220.4633 H   0  0  0  0  0  0  0  0  0  0  0  0
  143.1920   77.0940  219.9170 N   0  0  0  0  0  0  0  0  0  0  0  0
  143.7610   77.1540  220.7930 H   0  0  0  0  0  0  0  0  0  0  0  0
  143.6830   77.6300  219.1640 H   0  0  0  0  0  0  0  0  0  0  0  0
  143.0700   75.6960  219.4910 C   0  0  0  0  0  0  0  0  0  0  0  0
  142.4798   75.6513  218.5638 H   0  0  0  0  0  0  0  0  0  0  0  0
  144.0778   75.2887  219.3222 H   0  0  0  0  0  0  0  0  0  0  0  0
  142.3760   74.8600  220.5690 C   0  0  0  0  0  0  0  0  0  0  0  0
  142.1816   73.8519  220.1741 H   0  0  0  0  0  0  0  0  0  0  0  0
  143.0321   74.8061  221.4502 H   0  0  0  0  0  0  0  0  0  0  0  0
  138.6800   74.9630  221.2860 C   0  0  0  0  0  0  0  0  0  0  0  0
  138.3985   75.8990  220.7814 H   0  0  0  0  0  0  0  0  0  0  0  0
  137.6870   74.0910  221.7780 C   0  0  0  0  0  0  0  0  0  0  0  0
  136.4100   74.3520  221.6670 N   0  0  0  0  0  0  0  0  0  0  0  0
  135.3300   73.4100  221.3670 C   0  0  0  0  0  0  0  0  0  0  0  0
  134.7062   73.8191  220.5586 H   0  0  0  0  0  0  0  0  0  0  0  0
  135.7691   72.4504  221.0565 H   0  0  0  0  0  0  0  0  0  0  0  0
  134.4570   73.1800  222.6150 C   0  0  0  0  0  0  0  0  0  0  0  0
  133.5502   73.7944  222.5140 H   0  0  0  0  0  0  0  0  0  0  0  0
  134.2538   72.0995  222.6506 H   0  0  0  0  0  0  0  0  0  0  0  0
  135.1030   73.5220  223.9120 N   0  0  0  0  0  0  0  0  0  0  0  0
  136.1220   73.5680  223.6640 H   0  0  0  0  0  0  0  0  0  0  0  0
  134.7790   74.8820  224.4160 C   0  0  0  0  0  0  0  0  0  0  0  0
  135.6805   75.3070  224.8816 H   0  0  0  0  0  0  0  0  0  0  0  0
  134.4398   75.4787  223.5564 H   0  0  0  0  0  0  0  0  0  0  0  0
  133.6470   74.8850  225.4510 C   0  0  0  0  0  0  0  0  0  0  0  0
  133.5391   75.8974  225.8673 H   0  0  0  0  0  0  0  0  0  0  0  0
  132.7126   74.5773  224.9589 H   0  0  0  0  0  0  0  0  0  0  0  0
  133.9330   73.9830  226.4930 O   0  0  0  0  0  0  0  0  0  0  0  0
  133.8990   72.6700  225.9780 C   0  0  0  0  0  0  0  0  0  0  0  0
  134.0337   71.9570  226.8048 H   0  0  0  0  0  0  0  0  0  0  0  0
  132.9278   72.5149  225.4853 H   0  0  0  0  0  0  0  0  0  0  0  0
  135.0120   72.4490  224.9390 C   0  0  0  0  0  0  0  0  0  0  0  0
  135.9743   72.3951  225.4691 H   0  0  0  0  0  0  0  0  0  0  0  0
  134.7693   71.5179  224.4058 H   0  0  0  0  0  0  0  0  0  0  0  0
  138.0670   72.9450  222.4100 N   0  0  0  0  0  0  0  0  0  0  0  0
  137.3310   72.3160  222.8060 H   0  0  0  0  0  0  0  0  0  0  0  0
  139.1570   70.1590  223.0910 C   0  0  0  0  0  0  0  0  0  0  0  0
  139.9329   69.4261  222.8248 H   0  0  0  0  0  0  0  0  0  0  0  0
  138.4304   70.2348  222.2686 H   0  0  0  0  0  0  0  0  0  0  0  0
  138.4440   69.7080  224.3650 C   0  0  0  0  0  0  0  0  0  0  0  0
  138.2067   68.6374  224.2783 H   0  0  0  0  0  0  0  0  0  0  0  0
  137.5313   70.3123  224.4737 H   0  0  0  0  0  0  0  0  0  0  0  0
  1  2  1  0
  2  3  2  0
  3  4  1  0
  3  5  1  0
  5  6  1  0
  5  7  2  0
  7  8  1  0
  8  9  2  0
  9 10  1  0
  8 11  1  0
 11 12  1  0
 11 13  1  0
 11 14  1  0
 14 15  1  0
 15 16  2  0
 16 17  1  0
 17 18  1  0
 18 19  1  0
 19 20  1  0
 19 21  1  0
 19 22  1  0
 22 23  1  0
 22 24  1  0
 22 25  1  0
 25 26  1  0
 25 27  1  0
 25 28  1  0
 28 29  1  0
 28 30  1  0
 28 31  1  0
 31 32  1  0
 31 33  1  0
 17 34  2  0
 34 35  1  0
 34 36  1  0
 36 37  2  0
 37 38  1  0
 38 39  1  0
 38 40  1  0
 38 41  1  0
 41 42  1  0
 41 43  1  0
 41 44  1  0
 44 45  1  0
 44 46  1  0
 46 47  1  0
 46 48  1  0
 46 49  1  0
 49 50  1  0
 49 51  1  0
 49 52  1  0
 52 53  1  0
 53 54  1  0
 53 55  1  0
 53 56  1  0
 56 57  1  0
 56 58  1  0
 36 59  1  0
 59 60  1  0
 14 61  1  0
 61 62  1  0
 61 63  1  0
 61 64  1  0
 64 65  1  0
 64 66  1  0
  9  2  1  0
 59 15  1  0
 64  7  1  0
 31 18  1  0
 56 44  1  0
M  CHG  2  25   1  44   1
M  END
>  <UniqueID>  (28) 
485

>  <SMILES>  (28) 
c1ccc2c(c1)CCN(c1nc(N3CC[NH2+]CC3)c/c(=N\CC[NH+]3CCOCC3)[nH]1)C2

>  <Energy>  (28) 
88.44114188630586

>  <Genealogy>  (28) 
c1ccc2c(c1)CCN(c1nc(NCC[NH+]3CCOCC3)cc(N3CC[NH2+]CC3)n1)C2 (protonated)
c1ccc2c(c1)CCN(c1nc(N3CC[NH2+]CC3)cc(=NCC[NH+]3CCOCC3)[nH]1)C2 (tautomer)
c1ccc2c(c1)CCN(c1nc(N3CC[NH2+]CC3)c/c(=N\CC[NH+]3CCOCC3)[nH]1)C2 (cis-trans isomerization)
c1ccc2c(c1)CCN(c1nc(N3CC[NH2+]CC3)c/c(=N\CC[NH+]3CCOCC3)[nH]1)C2 (3D coordinates assigned)
c1ccc2c(c1)CCN(c1nc(N3CC[NH2+]CC3)c/c(=N\CC[NH+]3CCOCC3)[nH]1)C2 (nonaromatic ring conformer: 88.44114188630586 kcal/mol)

>  <smiles>  (28) 
c1ccc2c(c1)CCN(c1nc(NCCN3CCOCC3)cc(N3CCNCC3)n1)C2

>  <score_type>  (28) 
oracle

>  <origin>  (28) 
autodockgpu

>  <m_score__min__energy>  (28) 
-9.1799999999999997

>  <m_primary>  (28) 
energy

>  <meeko>  (28) 
{"free_energy": -8.31, "intermolecular_energy": -10.1, "internal_energy": -1.55, "cluster_size": 20, "cluster_id": 1, "rank_in_cluster": 13}

>  <energy>  (28) 
-8.77

>  <cluster_rmsd>  (28) 
0.49

>  <rmsd>  (28) 
271.81

>  <cluster>  (28) 
1

$$$$
DRRGDEWGQQLPRW-CXKBQSNCNA-P
     RDKit          3D

 66 70  0  0  0  0  0  0  0  0999 V2000
  141.2679   70.5264  228.9185 H   0  0  0  0  0  0  0  0  0  0  0  0
  140.7190   70.3430  227.9830 C   0  0  0  0  0  0  0  0  0  0  0  0
  139.6630   69.4290  227.9620 C   0  0  0  0  0  0  0  0  0  0  0  0
  139.3849   68.8897  228.8795 H   0  0  0  0  0  0  0  0  0  0  0  0
  138.9600   69.1990  226.7780 C   0  0  0  0  0  0  0  0  0  0  0  0
  138.1272   68.4804  226.7690 H   0  0  0  0  0  0  0  0  0  0  0  0
  139.3070   69.8770  225.5990 C   0  0  0  0  0  0  0  0  0  0  0  0
  140.3740   70.8110  225.6230 C   0  0  0  0  0  0  0  0  0  0  0  0
  141.0790   71.0240  226.8190 C   0  0  0  0  0  0  0  0  0  0  0  0
  141.9204   71.7322  226.8385 H   0  0  0  0  0  0  0  0  0  0  0  0
  140.8110   71.5350  224.3720 C   0  0  0  0  0  0  0  0  0  0  0  0
  141.7364   71.0761  223.9938 H   0  0  0  0  0  0  0  0  0  0  0  0
  140.9826   72.5934  224.6175 H   0  0  0  0  0  0  0  0  0  0  0  0
  139.7760   71.4530  223.3380 N   0  0  0  0  0  0  0  0  0  0  0  0
  139.3760   72.6290  222.6150 C   0  0  0  0  0  0  0  0  0  0  0  0
  140.3270   73.4710  222.1340 N   0  0  0  0  0  0  0  0  0  0  0  0
  140.0120   74.6280  221.4940 C   0  0  0  0  0  0  0  0  0  0  0  0
  141.0740   75.4880  221.0110 N   0  0  0  0  0  0  0  0  0  0  0  0
  141.0670   76.9360  221.2860 C   0  0  0  0  0  0  0  0  0  0  0  0
  140.0261   77.2909  221.3085 H   0  0  0  0  0  0  0  0  0  0  0  0
  141.5589   77.1064  222.2550 H   0  0  0  0  0  0  0  0  0  0  0  0
  141.8370   77.7150  220.2100 C   0  0  0  0  0  0  0  0  0  0  0  0
  141.2526   77.7099  219.2781 H   0  0  0  0  0  0  0  0  0  0  0  0
  141.9896   78.7428  220.5709 H   0  0  0  0  0  0  0  0  0  0  0  0
  143.1540   77.1170  219.9510 N   0  0  0  0  0  0  0  0  0  0  0  0
  143.7450   77.1490  220.8140 H   0  0  0  0  0  0  0  0  0  0  0  0
  143.6310   77.6680  219.2000 H   0  0  0  0  0  0  0  0  0  0  0  0
  143.0100   75.7310  219.4920 C   0  0  0  0  0  0  0  0  0  0  0  0
  142.3969   75.7152  218.5788 H   0  0  0  0  0  0  0  0  0  0  0  0
  144.0101   75.3209  219.2882 H   0  0  0  0  0  0  0  0  0  0  0  0
  142.3360   74.8720  220.5640 C   0  0  0  0  0  0  0  0  0  0  0  0
  142.1236   73.8763  220.1474 H   0  0  0  0  0  0  0  0  0  0  0  0
  143.0132   74.7895  221.4269 H   0  0  0  0  0  0  0  0  0  0  0  0
  138.6590   74.9710  221.3510 C   0  0  0  0  0  0  0  0  0  0  0  0
  138.3724   75.9120  220.8586 H   0  0  0  0  0  0  0  0  0  0  0  0
  137.6710   74.0950  221.8460 C   0  0  0  0  0  0  0  0  0  0  0  0
  136.3930   74.3580  221.7520 N   0  0  0  0  0  0  0  0  0  0  0  0
  135.3150   73.4280  221.4110 C   0  0  0  0  0  0  0  0  0  0  0  0
  134.6787   73.8792  220.6354 H   0  0  0  0  0  0  0  0  0  0  0  0
  135.7559   72.4910  221.0400 H   0  0  0  0  0  0  0  0  0  0  0  0
  134.4590   73.1200  222.6540 C   0  0  0  0  0  0  0  0  0  0  0  0
  133.5361   73.7148  222.5875 H   0  0  0  0  0  0  0  0  0  0  0  0
  134.2838   72.0341  222.6425 H   0  0  0  0  0  0  0  0  0  0  0  0
  135.1070   73.4200  223.9600 N   0  0  0  0  0  0  0  0  0  0  0  0
  136.1250   73.4800  223.7110 H   0  0  0  0  0  0  0  0  0  0  0  0
  134.7770   74.7600  224.5120 C   0  0  0  0  0  0  0  0  0  0  0  0
  135.6778   75.1742  224.9885 H   0  0  0  0  0  0  0  0  0  0  0  0
  134.4309   75.3841  223.6749 H   0  0  0  0  0  0  0  0  0  0  0  0
  133.6490   74.7200  225.5510 C   0  0  0  0  0  0  0  0  0  0  0  0
  133.5375   75.7164  226.0036 H   0  0  0  0  0  0  0  0  0  0  0  0
  132.7142   74.4250  225.0519 H   0  0  0  0  0  0  0  0  0  0  0  0
  133.9440   73.7830  226.5590 O   0  0  0  0  0  0  0  0  0  0  0  0
  133.9150   72.4890  225.9990 C   0  0  0  0  0  0  0  0  0  0  0  0
  134.0564   71.7483  226.7999 H   0  0  0  0  0  0  0  0  0  0  0  0
  132.9429   72.3455  225.5047 H   0  0  0  0  0  0  0  0  0  0  0  0
  135.0260   72.3110  224.9490 C   0  0  0  0  0  0  0  0  0  0  0  0
  135.9905   72.2443  225.4738 H   0  0  0  0  0  0  0  0  0  0  0  0
  134.7871   71.3977  224.3844 H   0  0  0  0  0  0  0  0  0  0  0  0
  138.0580   72.9430  222.4620 N   0  0  0  0  0  0  0  0  0  0  0  0
  137.3260   72.3100  222.8610 H   0  0  0  0  0  0  0  0  0  0  0  0
  139.1640   70.1470  223.0930 C   0  0  0  0  0  0  0  0  0  0  0  0
  139.9433   69.4220  222.8156 H   0  0  0  0  0  0  0  0  0  0  0  0
  138.4349   70.2290  222.2735 H   0  0  0  0  0  0  0  0  0  0  0  0
  138.4570   69.6760  224.3630 C   0  0  0  0  0  0  0  0  0  0  0  0
  138.2250   68.6054  224.2629 H   0  0  0  0  0  0  0  0  0  0  0  0
  137.5419   70.2747  224.4817 H   0  0  0  0  0  0  0  0  0  0  0  0
  1  2  1  0
  2  3  2  0
  3  4  1  0
  3  5  1  0
  5  6  1  0
  5  7  2  0
  7  8  1  0
  8  9  2  0
  9 10  1  0
  8 11  1  0
 11 12  1  0
 11 13  1  0
 11 14  1  0
 14 15  1  0
 15 16  2  0
 16 17  1  0
 17 18  1  0
 18 19  1  0
 19 20  1  0
 19 21  1  0
 19 22  1  0
 22 23  1  0
 22 24  1  0
 22 25  1  0
 25 26  1  0
 25 27  1  0
 25 28  1  0
 28 29  1  0
 28 30  1  0
 28 31  1  0
 31 32  1  0
 31 33  1  0
 17 34  2  0
 34 35  1  0
 34 36  1  0
 36 37  2  0
 37 38  1  0
 38 39  1  0
 38 40  1  0
 38 41  1  0
 41 42  1  0
 41 43  1  0
 41 44  1  0
 44 45  1  0
 44 46  1  0
 46 47  1  0
 46 48  1  0
 46 49  1  0
 49 50  1  0
 49 51  1  0
 49 52  1  0
 52 53  1  0
 53 54  1  0
 53 55  1  0
 53 56  1  0
 56 57  1  0
 56 58  1  0
 36 59  1  0
 59 60  1  0
 14 61  1  0
 61 62  1  0
 61 63  1  0
 61 64  1  0
 64 65  1  0
 64 66  1  0
  9  2  1  0
 59 15  1  0
 64  7  1  0
 31 18  1  0
 56 44  1  0
M  CHG  2  25   1  44   1
M  END
>  <UniqueID>  (29) 
485

>  <SMILES>  (29) 
c1ccc2c(c1)CCN(c1nc(N3CC[NH2+]CC3)c/c(=N\CC[NH+]3CCOCC3)[nH]1)C2

>  <Energy>  (29) 
88.44114188630586

>  <Genealogy>  (29) 
c1ccc2c(c1)CCN(c1nc(NCC[NH+]3CCOCC3)cc(N3CC[NH2+]CC3)n1)C2 (protonated)
c1ccc2c(c1)CCN(c1nc(N3CC[NH2+]CC3)cc(=NCC[NH+]3CCOCC3)[nH]1)C2 (tautomer)
c1ccc2c(c1)CCN(c1nc(N3CC[NH2+]CC3)c/c(=N\CC[NH+]3CCOCC3)[nH]1)C2 (cis-trans isomerization)
c1ccc2c(c1)CCN(c1nc(N3CC[NH2+]CC3)c/c(=N\CC[NH+]3CCOCC3)[nH]1)C2 (3D coordinates assigned)
c1ccc2c(c1)CCN(c1nc(N3CC[NH2+]CC3)c/c(=N\CC[NH+]3CCOCC3)[nH]1)C2 (nonaromatic ring conformer: 88.44114188630586 kcal/mol)

>  <smiles>  (29) 
c1ccc2c(c1)CCN(c1nc(NCCN3CCOCC3)cc(N3CCNCC3)n1)C2

>  <score_type>  (29) 
oracle

>  <origin>  (29) 
autodockgpu

>  <m_score__min__energy>  (29) 
-9.1799999999999997

>  <m_primary>  (29) 
energy

>  <meeko>  (29) 
{"free_energy": -8.29, "intermolecular_energy": -10.08, "internal_energy": -1.56, "cluster_size": 20, "cluster_id": 1, "rank_in_cluster": 17}

>  <energy>  (29) 
-8.76

>  <cluster_rmsd>  (29) 
0.48

>  <rmsd>  (29) 
271.8

>  <cluster>  (29) 
1

$$$$
DRRGDEWGQQLPRW-CXKBQSNCNA-P
     RDKit          3D

 66 70  0  0  0  0  0  0  0  0999 V2000
  141.2696   70.5719  228.9224 H   0  0  0  0  0  0  0  0  0  0  0  0
  140.7170   70.3840  227.9900 C   0  0  0  0  0  0  0  0  0  0  0  0
  139.6530   69.4790  227.9810 C   0  0  0  0  0  0  0  0  0  0  0  0
  139.3728   68.9511  228.9044 H   0  0  0  0  0  0  0  0  0  0  0  0
  138.9450   69.2440  226.8010 C   0  0  0  0  0  0  0  0  0  0  0  0
  138.1049   68.5340  226.8014 H   0  0  0  0  0  0  0  0  0  0  0  0
  139.2960   69.9060  225.6140 C   0  0  0  0  0  0  0  0  0  0  0  0
  140.3710   70.8310  225.6260 C   0  0  0  0  0  0  0  0  0  0  0  0
  141.0810   71.0510  226.8180 C   0  0  0  0  0  0  0  0  0  0  0  0
  141.9283   71.7524  226.8285 H   0  0  0  0  0  0  0  0  0  0  0  0
  140.8110   71.5390  224.3670 C   0  0  0  0  0  0  0  0  0  0  0  0
  141.7316   71.0686  223.9912 H   0  0  0  0  0  0  0  0  0  0  0  0
  140.9920   72.5983  224.6019 H   0  0  0  0  0  0  0  0  0  0  0  0
  139.7740   71.4560  223.3370 N   0  0  0  0  0  0  0  0  0  0  0  0
  139.3830   72.6290  222.6020 C   0  0  0  0  0  0  0  0  0  0  0  0
  140.3390   73.4670  222.1270 N   0  0  0  0  0  0  0  0  0  0  0  0
  140.0330   74.6200  221.4770 C   0  0  0  0  0  0  0  0  0  0  0  0
  141.1000   75.4760  220.9990 N   0  0  0  0  0  0  0  0  0  0  0  0
  141.0650   76.9330  221.2200 C   0  0  0  0  0  0  0  0  0  0  0  0
  140.0196   77.2742  221.1920 H   0  0  0  0  0  0  0  0  0  0  0  0
  141.5189   77.1457  222.1992 H   0  0  0  0  0  0  0  0  0  0  0  0
  141.8640   77.6820  220.1440 C   0  0  0  0  0  0  0  0  0  0  0  0
  141.3132   77.6355  219.1930 H   0  0  0  0  0  0  0  0  0  0  0  0
  141.9919   78.7239  220.4727 H   0  0  0  0  0  0  0  0  0  0  0  0
  143.1960   77.0930  219.9530 N   0  0  0  0  0  0  0  0  0  0  0  0
  143.7560   77.1650  220.8350 H   0  0  0  0  0  0  0  0  0  0  0  0
  143.6930   77.6230  219.1990 H   0  0  0  0  0  0  0  0  0  0  0  0
  143.0850   75.6890  219.5410 C   0  0  0  0  0  0  0  0  0  0  0  0
  142.5043   75.6313  218.6085 H   0  0  0  0  0  0  0  0  0  0  0  0
  144.0965   75.2850  219.3868 H   0  0  0  0  0  0  0  0  0  0  0  0
  142.3850   74.8620  220.6200 C   0  0  0  0  0  0  0  0  0  0  0  0
  142.2005   73.8484  220.2344 H   0  0  0  0  0  0  0  0  0  0  0  0
  143.0321   74.8219  221.5086 H   0  0  0  0  0  0  0  0  0  0  0  0
  138.6810   74.9640  221.3180 C   0  0  0  0  0  0  0  0  0  0  0  0
  138.4004   75.9025  220.8176 H   0  0  0  0  0  0  0  0  0  0  0  0
  137.6870   74.0910  221.8080 C   0  0  0  0  0  0  0  0  0  0  0  0
  136.4110   74.3550  221.6990 N   0  0  0  0  0  0  0  0  0  0  0  0
  135.3330   73.4220  221.3660 C   0  0  0  0  0  0  0  0  0  0  0  0
  134.6762   73.8812  220.6125 H   0  0  0  0  0  0  0  0  0  0  0  0
  135.7734   72.4952  220.9696 H   0  0  0  0  0  0  0  0  0  0  0  0
  134.5070   73.0850  222.6210 C   0  0  0  0  0  0  0  0  0  0  0  0
  133.5492   73.6216  222.5523 H   0  0  0  0  0  0  0  0  0  0  0  0
  134.3976   71.9905  222.6298 H   0  0  0  0  0  0  0  0  0  0  0  0
  135.1460   73.4470  223.9160 N   0  0  0  0  0  0  0  0  0  0  0  0
  136.1660   73.4940  223.6710 H   0  0  0  0  0  0  0  0  0  0  0  0
  134.8130   74.8110  224.4020 C   0  0  0  0  0  0  0  0  0  0  0  0
  135.7105   75.2464  224.8655 H   0  0  0  0  0  0  0  0  0  0  0  0
  134.4737   75.3951  223.5339 H   0  0  0  0  0  0  0  0  0  0  0  0
  133.6770   74.8210  225.4330 C   0  0  0  0  0  0  0  0  0  0  0  0
  133.5623   75.8379  225.8365 H   0  0  0  0  0  0  0  0  0  0  0  0
  132.7456   74.5028  224.9418 H   0  0  0  0  0  0  0  0  0  0  0  0
  133.9650   73.9330  226.4870 O   0  0  0  0  0  0  0  0  0  0  0  0
  133.9390   72.6140  225.9880 C   0  0  0  0  0  0  0  0  0  0  0  0
  134.0736   71.9118  226.8240 H   0  0  0  0  0  0  0  0  0  0  0  0
  132.9705   72.4488  225.4934 H   0  0  0  0  0  0  0  0  0  0  0  0
  135.0570   72.3850  224.9560 C   0  0  0  0  0  0  0  0  0  0  0  0
  136.0177   72.3421  225.4901 H   0  0  0  0  0  0  0  0  0  0  0  0
  134.8214   71.4460  224.4336 H   0  0  0  0  0  0  0  0  0  0  0  0
  138.0660   72.9430  222.4350 N   0  0  0  0  0  0  0  0  0  0  0  0
  137.3300   72.3130  222.8290 H   0  0  0  0  0  0  0  0  0  0  0  0
  139.1500   70.1530  223.1060 C   0  0  0  0  0  0  0  0  0  0  0  0
  139.9224   69.4183  222.8345 H   0  0  0  0  0  0  0  0  0  0  0  0
  138.4202   70.2332  222.2869 H   0  0  0  0  0  0  0  0  0  0  0  0
  138.4410   69.7010  224.3820 C   0  0  0  0  0  0  0  0  0  0  0  0
  138.1986   68.6317  224.2929 H   0  0  0  0  0  0  0  0  0  0  0  0
  137.5317   70.3092  224.4968 H   0  0  0  0  0  0  0  0  0  0  0  0
  1  2  1  0
  2  3  2  0
  3  4  1  0
  3  5  1  0
  5  6  1  0
  5  7  2  0
  7  8  1  0
  8  9  2  0
  9 10  1  0
  8 11  1  0
 11 12  1  0
 11 13  1  0
 11 14  1  0
 14 15  1  0
 15 16  2  0
 16 17  1  0
 17 18  1  0
 18 19  1  0
 19 20  1  0
 19 21  1  0
 19 22  1  0
 22 23  1  0
 22 24  1  0
 22 25  1  0
 25 26  1  0
 25 27  1  0
 25 28  1  0
 28 29  1  0
 28 30  1  0
 28 31  1  0
 31 32  1  0
 31 33  1  0
 17 34  2  0
 34 35  1  0
 34 36  1  0
 36 37  2  0
 37 38  1  0
 38 39  1  0
 38 40  1  0
 38 41  1  0
 41 42  1  0
 41 43  1  0
 41 44  1  0
 44 45  1  0
 44 46  1  0
 46 47  1  0
 46 48  1  0
 46 49  1  0
 49 50  1  0
 49 51  1  0
 49 52  1  0
 52 53  1  0
 53 54  1  0
 53 55  1  0
 53 56  1  0
 56 57  1  0
 56 58  1  0
 36 59  1  0
 59 60  1  0
 14 61  1  0
 61 62  1  0
 61 63  1  0
 61 64  1  0
 64 65  1  0
 64 66  1  0
  9  2  1  0
 59 15  1  0
 64  7  1  0
 31 18  1  0
 56 44  1  0
M  CHG  2  25   1  44   1
M  END
>  <UniqueID>  (30) 
485

>  <SMILES>  (30) 
c1ccc2c(c1)CCN(c1nc(N3CC[NH2+]CC3)c/c(=N\CC[NH+]3CCOCC3)[nH]1)C2

>  <Energy>  (30) 
88.44114188630586

>  <Genealogy>  (30) 
c1ccc2c(c1)CCN(c1nc(NCC[NH+]3CCOCC3)cc(N3CC[NH2+]CC3)n1)C2 (protonated)
c1ccc2c(c1)CCN(c1nc(N3CC[NH2+]CC3)cc(=NCC[NH+]3CCOCC3)[nH]1)C2 (tautomer)
c1ccc2c(c1)CCN(c1nc(N3CC[NH2+]CC3)c/c(=N\CC[NH+]3CCOCC3)[nH]1)C2 (cis-trans isomerization)
c1ccc2c(c1)CCN(c1nc(N3CC[NH2+]CC3)c/c(=N\CC[NH+]3CCOCC3)[nH]1)C2 (3D coordinates assigned)
c1ccc2c(c1)CCN(c1nc(N3CC[NH2+]CC3)c/c(=N\CC[NH+]3CCOCC3)[nH]1)C2 (nonaromatic ring conformer: 88.44114188630586 kcal/mol)

>  <smiles>  (30) 
c1ccc2c(c1)CCN(c1nc(NCCN3CCOCC3)cc(N3CCNCC3)n1)C2

>  <score_type>  (30) 
oracle

>  <origin>  (30) 
autodockgpu

>  <m_score__min__energy>  (30) 
-9.1799999999999997

>  <m_primary>  (30) 
energy

>  <meeko>  (30) 
{"free_energy": -8.29, "intermolecular_energy": -10.08, "internal_energy": -1.55, "cluster_size": 20, "cluster_id": 1, "rank_in_cluster": 18}

>  <energy>  (30) 
-8.76

>  <cluster_rmsd>  (30) 
0.48

>  <rmsd>  (30) 
271.78

>  <cluster>  (30) 
1

$$$$
DRRGDEWGQQLPRW-CXKBQSNCNA-P
     RDKit          3D

 66 70  0  0  0  0  0  0  0  0999 V2000
  141.1670   71.0928  229.2780 H   0  0  0  0  0  0  0  0  0  0  0  0
  140.7110   70.7570  228.3350 C   0  0  0  0  0  0  0  0  0  0  0  0
  139.7910   69.7070  228.3420 C   0  0  0  0  0  0  0  0  0  0  0  0
  139.5279   69.2129  229.2889 H   0  0  0  0  0  0  0  0  0  0  0  0
  139.2050   69.2840  227.1480 C   0  0  0  0  0  0  0  0  0  0  0  0
  138.4770   68.4595  227.1605 H   0  0  0  0  0  0  0  0  0  0  0  0
  139.5360   69.9010  225.9310 C   0  0  0  0  0  0  0  0  0  0  0  0
  140.4650   70.9730  225.9270 C   0  0  0  0  0  0  0  0  0  0  0  0
  141.0540   71.3820  227.1350 C   0  0  0  0  0  0  0  0  0  0  0  0
  141.7899   72.1996  227.1352 H   0  0  0  0  0  0  0  0  0  0  0  0
  140.8840   71.6430  224.6410 C   0  0  0  0  0  0  0  0  0  0  0  0
  141.8851   71.2862  224.3575 H   0  0  0  0  0  0  0  0  0  0  0  0
  140.8970   72.7317  224.7974 H   0  0  0  0  0  0  0  0  0  0  0  0
  139.9400   71.3330  223.5640 N   0  0  0  0  0  0  0  0  0  0  0  0
  139.4360   72.3770  222.7150 C   0  0  0  0  0  0  0  0  0  0  0  0
  140.2600   73.3900  222.3430 N   0  0  0  0  0  0  0  0  0  0  0  0
  139.8290   74.4360  221.5900 C   0  0  0  0  0  0  0  0  0  0  0  0
  140.7570   75.4890  221.2330 N   0  0  0  0  0  0  0  0  0  0  0  0
  140.6390   76.8390  221.8130 C   0  0  0  0  0  0  0  0  0  0  0  0
  139.5756   77.0640  221.9820 H   0  0  0  0  0  0  0  0  0  0  0  0
  141.1980   76.8584  222.7602 H   0  0  0  0  0  0  0  0  0  0  0  0
  141.2330   77.9050  220.8800 C   0  0  0  0  0  0  0  0  0  0  0  0
  140.5704   78.0285  220.0107 H   0  0  0  0  0  0  0  0  0  0  0  0
  141.3202   78.8463  221.4424 H   0  0  0  0  0  0  0  0  0  0  0  0
  142.5710   77.5230  220.4100 N   0  0  0  0  0  0  0  0  0  0  0  0
  143.2310   77.4410  221.2170 H   0  0  0  0  0  0  0  0  0  0  0  0
  142.9250   78.2670  219.7640 H   0  0  0  0  0  0  0  0  0  0  0  0
  142.5170   76.2550  219.6740 C   0  0  0  0  0  0  0  0  0  0  0  0
  141.8279   76.3607  218.8231 H   0  0  0  0  0  0  0  0  0  0  0  0
  143.5286   76.0097  219.3183 H   0  0  0  0  0  0  0  0  0  0  0  0
  142.0270   75.1240  220.5790 C   0  0  0  0  0  0  0  0  0  0  0  0
  141.8735   74.2185  219.9735 H   0  0  0  0  0  0  0  0  0  0  0  0
  142.7838   74.9415  221.3561 H   0  0  0  0  0  0  0  0  0  0  0  0
  138.4780   74.4790  221.2100 C   0  0  0  0  0  0  0  0  0  0  0  0
  138.0918   75.3240  220.6210 H   0  0  0  0  0  0  0  0  0  0  0  0
  137.6220   73.4250  221.5930 C   0  0  0  0  0  0  0  0  0  0  0  0
  136.3530   73.4070  221.2780 N   0  0  0  0  0  0  0  0  0  0  0  0
  135.2090   73.3470  222.1910 C   0  0  0  0  0  0  0  0  0  0  0  0
  134.2773   73.3644  221.6064 H   0  0  0  0  0  0  0  0  0  0  0  0
  135.2692   72.4188  222.7782 H   0  0  0  0  0  0  0  0  0  0  0  0
  135.2270   74.5490  223.1530 C   0  0  0  0  0  0  0  0  0  0  0  0
  136.0306   75.2287  222.8332 H   0  0  0  0  0  0  0  0  0  0  0  0
  134.2241   74.9977  223.0992 H   0  0  0  0  0  0  0  0  0  0  0  0
  135.4520   74.2120  224.5850 N   0  0  0  0  0  0  0  0  0  0  0  0
  136.4980   74.1550  224.6530 H   0  0  0  0  0  0  0  0  0  0  0  0
  135.0730   75.2910  225.5340 C   0  0  0  0  0  0  0  0  0  0  0  0
  135.8077   75.3118  226.3524 H   0  0  0  0  0  0  0  0  0  0  0  0
  135.0593   76.2351  224.9696 H   0  0  0  0  0  0  0  0  0  0  0  0
  133.6750   75.0970  226.1370 C   0  0  0  0  0  0  0  0  0  0  0  0
  133.5065   75.8572  226.9139 H   0  0  0  0  0  0  0  0  0  0  0  0
  132.9245   75.1996  225.3394 H   0  0  0  0  0  0  0  0  0  0  0  0
  133.5620   73.8160  226.7090 O   0  0  0  0  0  0  0  0  0  0  0  0
  133.6080   72.8530  225.6790 C   0  0  0  0  0  0  0  0  0  0  0  0
  133.4300   71.8572  226.1111 H   0  0  0  0  0  0  0  0  0  0  0  0
  132.8333   73.0994  224.9380 H   0  0  0  0  0  0  0  0  0  0  0  0
  134.9740   72.8560  224.9730 C   0  0  0  0  0  0  0  0  0  0  0  0
  135.7152   72.4090  225.6518 H   0  0  0  0  0  0  0  0  0  0  0  0
  134.8525   72.2828  224.0421 H   0  0  0  0  0  0  0  0  0  0  0  0
  138.1270   72.3980  222.3330 N   0  0  0  0  0  0  0  0  0  0  0  0
  137.4840   71.6350  222.6460 H   0  0  0  0  0  0  0  0  0  0  0  0
  139.5260   69.9380  223.4080 C   0  0  0  0  0  0  0  0  0  0  0  0
  140.4123   69.3077  223.2429 H   0  0  0  0  0  0  0  0  0  0  0  0
  138.8495   69.8482  222.5453 H   0  0  0  0  0  0  0  0  0  0  0  0
  138.8040   69.4820  224.6750 C   0  0  0  0  0  0  0  0  0  0  0  0
  138.7228   68.3851  224.6613 H   0  0  0  0  0  0  0  0  0  0  0  0
  137.8116   69.9563  224.6879 H   0  0  0  0  0  0  0  0  0  0  0  0
  1  2  1  0
  2  3  2  0
  3  4  1  0
  3  5  1  0
  5  6  1  0
  5  7  2  0
  7  8  1  0
  8  9  2  0
  9 10  1  0
  8 11  1  0
 11 12  1  0
 11 13  1  0
 11 14  1  0
 14 15  1  0
 15 16  2  0
 16 17  1  0
 17 18  1  0
 18 19  1  0
 19 20  1  0
 19 21  1  0
 19 22  1  0
 22 23  1  0
 22 24  1  0
 22 25  1  0
 25 26  1  0
 25 27  1  0
 25 28  1  0
 28 29  1  0
 28 30  1  0
 28 31  1  0
 31 32  1  0
 31 33  1  0
 17 34  2  0
 34 35  1  0
 34 36  1  0
 36 37  2  0
 37 38  1  0
 38 39  1  0
 38 40  1  0
 38 41  1  0
 41 42  1  0
 41 43  1  0
 41 44  1  0
 44 45  1  0
 44 46  1  0
 46 47  1  0
 46 48  1  0
 46 49  1  0
 49 50  1  0
 49 51  1  0
 49 52  1  0
 52 53  1  0
 53 54  1  0
 53 55  1  0
 53 56  1  0
 56 57  1  0
 56 58  1  0
 36 59  1  0
 59 60  1  0
 14 61  1  0
 61 62  1  0
 61 63  1  0
 61 64  1  0
 64 65  1  0
 64 66  1  0
  9  2  1  0
 59 15  1  0
 64  7  1  0
 31 18  1  0
 56 44  1  0
M  CHG  2  25   1  44   1
M  END
>  <UniqueID>  (31) 
485

>  <SMILES>  (31) 
c1ccc2c(c1)CCN(c1nc(N3CC[NH2+]CC3)c/c(=N\CC[NH+]3CCOCC3)[nH]1)C2

>  <Energy>  (31) 
88.44114188630586

>  <Genealogy>  (31) 
c1ccc2c(c1)CCN(c1nc(NCC[NH+]3CCOCC3)cc(N3CC[NH2+]CC3)n1)C2 (protonated)
c1ccc2c(c1)CCN(c1nc(N3CC[NH2+]CC3)cc(=NCC[NH+]3CCOCC3)[nH]1)C2 (tautomer)
c1ccc2c(c1)CCN(c1nc(N3CC[NH2+]CC3)c/c(=N\CC[NH+]3CCOCC3)[nH]1)C2 (cis-trans isomerization)
c1ccc2c(c1)CCN(c1nc(N3CC[NH2+]CC3)c/c(=N\CC[NH+]3CCOCC3)[nH]1)C2 (3D coordinates assigned)
c1ccc2c(c1)CCN(c1nc(N3CC[NH2+]CC3)c/c(=N\CC[NH+]3CCOCC3)[nH]1)C2 (nonaromatic ring conformer: 88.44114188630586 kcal/mol)

>  <smiles>  (31) 
c1ccc2c(c1)CCN(c1nc(NCCN3CCOCC3)cc(N3CCNCC3)n1)C2

>  <score_type>  (31) 
oracle

>  <origin>  (31) 
autodockgpu

>  <m_score__min__energy>  (31) 
-9.1799999999999997

>  <m_primary>  (31) 
energy

>  <meeko>  (31) 
{"free_energy": -9.13, "intermolecular_energy": -10.92, "internal_energy": -0.74, "cluster_size": 20, "cluster_id": 1, "rank_in_cluster": 2}

>  <energy>  (31) 
-8.38

>  <cluster_rmsd>  (31) 
0.63

>  <rmsd>  (31) 
271.71

>  <cluster>  (31) 
1

$$$$
DRRGDEWGQQLPRW-CXKBQSNCNA-P
     RDKit          3D

 66 70  0  0  0  0  0  0  0  0999 V2000
  141.1983   71.0774  229.2714 H   0  0  0  0  0  0  0  0  0  0  0  0
  140.7400   70.7400  228.3300 C   0  0  0  0  0  0  0  0  0  0  0  0
  139.8210   69.6880  228.3400 C   0  0  0  0  0  0  0  0  0  0  0  0
  139.5607   69.1950  229.2882 H   0  0  0  0  0  0  0  0  0  0  0  0
  139.2330   69.2620  227.1490 C   0  0  0  0  0  0  0  0  0  0  0  0
  138.5075   68.4353  227.1644 H   0  0  0  0  0  0  0  0  0  0  0  0
  139.5590   69.8790  225.9310 C   0  0  0  0  0  0  0  0  0  0  0  0
  140.4860   70.9530  225.9230 C   0  0  0  0  0  0  0  0  0  0  0  0
  141.0780   71.3640  227.1280 C   0  0  0  0  0  0  0  0  0  0  0  0
  141.8126   72.1827  227.1248 H   0  0  0  0  0  0  0  0  0  0  0  0
  140.8990   71.6230  224.6340 C   0  0  0  0  0  0  0  0  0  0  0  0
  141.9001   71.2684  224.3475 H   0  0  0  0  0  0  0  0  0  0  0  0
  140.9095   72.7119  224.7893 H   0  0  0  0  0  0  0  0  0  0  0  0
  139.9530   71.3100  223.5610 N   0  0  0  0  0  0  0  0  0  0  0  0
  139.4440   72.3520  222.7120 C   0  0  0  0  0  0  0  0  0  0  0  0
  140.2660   73.3650  222.3360 N   0  0  0  0  0  0  0  0  0  0  0  0
  139.8290   74.4100  221.5840 C   0  0  0  0  0  0  0  0  0  0  0  0
  140.7550   75.4640  221.2210 N   0  0  0  0  0  0  0  0  0  0  0  0
  140.6420   76.8120  221.8060 C   0  0  0  0  0  0  0  0  0  0  0  0
  139.5801   77.0369  221.9841 H   0  0  0  0  0  0  0  0  0  0  0  0
  141.2081   76.8286  222.7490 H   0  0  0  0  0  0  0  0  0  0  0  0
  141.2290   77.8800  220.8710 C   0  0  0  0  0  0  0  0  0  0  0  0
  140.5591   78.0064  220.0078 H   0  0  0  0  0  0  0  0  0  0  0  0
  141.3220   78.8194  221.4358 H   0  0  0  0  0  0  0  0  0  0  0  0
  142.5630   77.4990  220.3880 N   0  0  0  0  0  0  0  0  0  0  0  0
  143.2300   77.4150  221.1890 H   0  0  0  0  0  0  0  0  0  0  0  0
  142.9110   78.2450  219.7410 H   0  0  0  0  0  0  0  0  0  0  0  0
  142.5010   76.2330  219.6480 C   0  0  0  0  0  0  0  0  0  0  0  0
  141.8042   76.3419  218.8039 H   0  0  0  0  0  0  0  0  0  0  0  0
  143.5088   75.9877  219.2816 H   0  0  0  0  0  0  0  0  0  0  0  0
  142.0180   75.1000  220.5550 C   0  0  0  0  0  0  0  0  0  0  0  0
  141.8584   74.1961  219.9488 H   0  0  0  0  0  0  0  0  0  0  0  0
  142.7816   74.9153  221.3249 H   0  0  0  0  0  0  0  0  0  0  0  0
  138.4770   74.4500  221.2090 C   0  0  0  0  0  0  0  0  0  0  0  0
  138.0875   75.2936  220.6202 H   0  0  0  0  0  0  0  0  0  0  0  0
  137.6240   73.3960  221.5960 C   0  0  0  0  0  0  0  0  0  0  0  0
  136.3540   73.3760  221.2870 N   0  0  0  0  0  0  0  0  0  0  0  0
  135.2200   73.1690  222.1900 C   0  0  0  0  0  0  0  0  0  0  0  0
  134.3016   73.0485  221.5967 H   0  0  0  0  0  0  0  0  0  0  0  0
  135.4030   72.2662  222.7912 H   0  0  0  0  0  0  0  0  0  0  0  0
  135.0590   74.3740  223.1350 C   0  0  0  0  0  0  0  0  0  0  0  0
  135.7524   75.1611  222.8039 H   0  0  0  0  0  0  0  0  0  0  0  0
  134.0006   74.6680  223.0771 H   0  0  0  0  0  0  0  0  0  0  0  0
  135.3320   74.0940  224.5710 N   0  0  0  0  0  0  0  0  0  0  0  0
  136.3610   73.8870  224.5800 H   0  0  0  0  0  0  0  0  0  0  0  0
  135.1790   75.2720  225.4630 C   0  0  0  0  0  0  0  0  0  0  0  0
  135.9642   75.2331  226.2323 H   0  0  0  0  0  0  0  0  0  0  0  0
  135.2618   76.1719  224.8358 H   0  0  0  0  0  0  0  0  0  0  0  0
  133.8130   75.3240  226.1610 C   0  0  0  0  0  0  0  0  0  0  0  0
  133.8101   76.1462  226.8917 H   0  0  0  0  0  0  0  0  0  0  0  0
  133.0313   75.4886  225.4048 H   0  0  0  0  0  0  0  0  0  0  0  0
  133.5570   74.1100  226.8270 O   0  0  0  0  0  0  0  0  0  0  0  0
  133.3920   73.0910  225.8660 C   0  0  0  0  0  0  0  0  0  0  0  0
  133.1026   72.1604  226.3762 H   0  0  0  0  0  0  0  0  0  0  0  0
  132.6113   73.4044  225.1573 H   0  0  0  0  0  0  0  0  0  0  0  0
  134.6930   72.8490  225.0810 C   0  0  0  0  0  0  0  0  0  0  0  0
  135.4077   72.3397  225.7442 H   0  0  0  0  0  0  0  0  0  0  0  0
  134.4269   72.2440  224.2017 H   0  0  0  0  0  0  0  0  0  0  0  0
  138.1340   72.3710  222.3360 N   0  0  0  0  0  0  0  0  0  0  0  0
  137.4930   71.6070  222.6530 H   0  0  0  0  0  0  0  0  0  0  0  0
  139.5410   69.9140  223.4070 C   0  0  0  0  0  0  0  0  0  0  0  0
  140.4279   69.2853  223.2391 H   0  0  0  0  0  0  0  0  0  0  0  0
  138.8617   69.8226  222.5466 H   0  0  0  0  0  0  0  0  0  0  0  0
  138.8240   69.4570  224.6770 C   0  0  0  0  0  0  0  0  0  0  0  0
  138.7456   68.3599  224.6644 H   0  0  0  0  0  0  0  0  0  0  0  0
  137.8305   69.9288  224.6926 H   0  0  0  0  0  0  0  0  0  0  0  0
  1  2  1  0
  2  3  2  0
  3  4  1  0
  3  5  1  0
  5  6  1  0
  5  7  2  0
  7  8  1  0
  8  9  2  0
  9 10  1  0
  8 11  1  0
 11 12  1  0
 11 13  1  0
 11 14  1  0
 14 15  1  0
 15 16  2  0
 16 17  1  0
 17 18  1  0
 18 19  1  0
 19 20  1  0
 19 21  1  0
 19 22  1  0
 22 23  1  0
 22 24  1  0
 22 25  1  0
 25 26  1  0
 25 27  1  0
 25 28  1  0
 28 29  1  0
 28 30  1  0
 28 31  1  0
 31 32  1  0
 31 33  1  0
 17 34  2  0
 34 35  1  0
 34 36  1  0
 36 37  2  0
 37 38  1  0
 38 39  1  0
 38 40  1  0
 38 41  1  0
 41 42  1  0
 41 43  1  0
 41 44  1  0
 44 45  1  0
 44 46  1  0
 46 47  1  0
 46 48  1  0
 46 49  1  0
 49 50  1  0
 49 51  1  0
 49 52  1  0
 52 53  1  0
 53 54  1  0
 53 55  1  0
 53 56  1  0
 56 57  1  0
 56 58  1  0
 36 59  1  0
 59 60  1  0
 14 61  1  0
 61 62  1  0
 61 63  1  0
 61 64  1  0
 64 65  1  0
 64 66  1  0
  9  2  1  0
 59 15  1  0
 64  7  1  0
 31 18  1  0
 56 44  1  0
M  CHG  2  25   1  44   1
M  END
>  <UniqueID>  (32) 
485

>  <SMILES>  (32) 
c1ccc2c(c1)CCN(c1nc(N3CC[NH2+]CC3)c/c(=N\CC[NH+]3CCOCC3)[nH]1)C2

>  <Energy>  (32) 
88.44114188630586

>  <Genealogy>  (32) 
c1ccc2c(c1)CCN(c1nc(NCC[NH+]3CCOCC3)cc(N3CC[NH2+]CC3)n1)C2 (protonated)
c1ccc2c(c1)CCN(c1nc(N3CC[NH2+]CC3)cc(=NCC[NH+]3CCOCC3)[nH]1)C2 (tautomer)
c1ccc2c(c1)CCN(c1nc(N3CC[NH2+]CC3)c/c(=N\CC[NH+]3CCOCC3)[nH]1)C2 (cis-trans isomerization)
c1ccc2c(c1)CCN(c1nc(N3CC[NH2+]CC3)c/c(=N\CC[NH+]3CCOCC3)[nH]1)C2 (3D coordinates assigned)
c1ccc2c(c1)CCN(c1nc(N3CC[NH2+]CC3)c/c(=N\CC[NH+]3CCOCC3)[nH]1)C2 (nonaromatic ring conformer: 88.44114188630586 kcal/mol)

>  <smiles>  (32) 
c1ccc2c(c1)CCN(c1nc(NCCN3CCOCC3)cc(N3CCNCC3)n1)C2

>  <score_type>  (32) 
oracle

>  <origin>  (32) 
autodockgpu

>  <m_score__min__energy>  (32) 
-9.1799999999999997

>  <m_primary>  (32) 
energy

>  <meeko>  (32) 
{"free_energy": -9.18, "intermolecular_energy": -10.97, "internal_energy": -0.71, "cluster_size": 20, "cluster_id": 1, "rank_in_cluster": 1}

>  <energy>  (32) 
-8.32

>  <cluster_rmsd>  (32) 
0.68

>  <rmsd>  (32) 
271.65

>  <cluster>  (32) 
1

$$$$
DRRGDEWGQQLPRW-CXKBQSNCNA-P
     RDKit          3D

 66 70  0  0  0  0  0  0  0  0999 V2000
  141.2675   70.6286  228.9142 H   0  0  0  0  0  0  0  0  0  0  0  0
  140.7190   70.4330  227.9810 C   0  0  0  0  0  0  0  0  0  0  0  0
  139.6630   69.5190  227.9720 C   0  0  0  0  0  0  0  0  0  0  0  0
  139.3842   68.9924  228.8967 H   0  0  0  0  0  0  0  0  0  0  0  0
  138.9610   69.2730  226.7910 C   0  0  0  0  0  0  0  0  0  0  0  0
  138.1285   68.5540  226.7913 H   0  0  0  0  0  0  0  0  0  0  0  0
  139.3080   69.9350  225.6030 C   0  0  0  0  0  0  0  0  0  0  0  0
  140.3750   70.8690  225.6150 C   0  0  0  0  0  0  0  0  0  0  0  0
  141.0800   71.0990  226.8080 C   0  0  0  0  0  0  0  0  0  0  0  0
  141.9212   71.8077  226.8182 H   0  0  0  0  0  0  0  0  0  0  0  0
  140.8120   71.5760  224.3540 C   0  0  0  0  0  0  0  0  0  0  0  0
  141.7373   71.1117  223.9822 H   0  0  0  0  0  0  0  0  0  0  0  0
  140.9833   72.6376  224.5856 H   0  0  0  0  0  0  0  0  0  0  0  0
  139.7780   71.4810  223.3210 N   0  0  0  0  0  0  0  0  0  0  0  0
  139.3780   72.6470  222.5820 C   0  0  0  0  0  0  0  0  0  0  0  0
  140.3280   73.4880  222.1000 N   0  0  0  0  0  0  0  0  0  0  0  0
  140.0140   74.6360  221.4450 C   0  0  0  0  0  0  0  0  0  0  0  0
  141.0750   75.4960  220.9600 N   0  0  0  0  0  0  0  0  0  0  0  0
  141.0620   76.9460  221.2250 C   0  0  0  0  0  0  0  0  0  0  0  0
  140.0198   77.2977  221.2400 H   0  0  0  0  0  0  0  0  0  0  0  0
  141.5485   77.1248  222.1952 H   0  0  0  0  0  0  0  0  0  0  0  0
  141.8350   77.7200  220.1470 C   0  0  0  0  0  0  0  0  0  0  0  0
  141.2552   77.7069  219.2123 H   0  0  0  0  0  0  0  0  0  0  0  0
  141.9829   78.7509  220.5009 H   0  0  0  0  0  0  0  0  0  0  0  0
  143.1550   77.1230  219.8990 N   0  0  0  0  0  0  0  0  0  0  0  0
  143.7420   77.1630  220.7640 H   0  0  0  0  0  0  0  0  0  0  0  0
  143.6330   77.6710  219.1460 H   0  0  0  0  0  0  0  0  0  0  0  0
  143.0170   75.7340  219.4480 C   0  0  0  0  0  0  0  0  0  0  0  0
  142.4078   75.7105  218.5324 H   0  0  0  0  0  0  0  0  0  0  0  0
  144.0189   75.3252  219.2504 H   0  0  0  0  0  0  0  0  0  0  0  0
  142.3410   74.8810  220.5230 C   0  0  0  0  0  0  0  0  0  0  0  0
  142.1337   73.8816  220.1128 H   0  0  0  0  0  0  0  0  0  0  0  0
  143.0146   74.8072  221.3895 H   0  0  0  0  0  0  0  0  0  0  0  0
  138.6590   74.9710  221.2870 C   0  0  0  0  0  0  0  0  0  0  0  0
  138.3717   75.9048  220.7816 H   0  0  0  0  0  0  0  0  0  0  0  0
  137.6720   74.0960  221.7840 C   0  0  0  0  0  0  0  0  0  0  0  0
  136.3940   74.3510  221.6780 N   0  0  0  0  0  0  0  0  0  0  0  0
  135.3200   73.4080  221.3620 C   0  0  0  0  0  0  0  0  0  0  0  0
  134.6908   73.8293  220.5641 H   0  0  0  0  0  0  0  0  0  0  0  0
  135.7649   72.4582  221.0304 H   0  0  0  0  0  0  0  0  0  0  0  0
  134.4530   73.1460  222.6070 C   0  0  0  0  0  0  0  0  0  0  0  0
  133.5360   73.7466  222.5155 H   0  0  0  0  0  0  0  0  0  0  0  0
  134.2684   72.0618  222.6274 H   0  0  0  0  0  0  0  0  0  0  0  0
  135.0940   73.4800  223.9080 N   0  0  0  0  0  0  0  0  0  0  0  0
  136.1130   73.5430  223.6600 H   0  0  0  0  0  0  0  0  0  0  0  0
  134.7530   74.8300  224.4290 C   0  0  0  0  0  0  0  0  0  0  0  0
  135.6492   75.2608  224.8994 H   0  0  0  0  0  0  0  0  0  0  0  0
  134.4060   75.4333  223.5772 H   0  0  0  0  0  0  0  0  0  0  0  0
  133.6210   74.8050  225.4650 C   0  0  0  0  0  0  0  0  0  0  0  0
  133.5002   75.8104  225.8946 H   0  0  0  0  0  0  0  0  0  0  0  0
  132.6901   74.4920  224.9696 H   0  0  0  0  0  0  0  0  0  0  0  0
  133.9200   73.8930  226.4950 O   0  0  0  0  0  0  0  0  0  0  0  0
  133.9030   72.5870  225.9640 C   0  0  0  0  0  0  0  0  0  0  0  0
  134.0474   71.8657  226.7819 H   0  0  0  0  0  0  0  0  0  0  0  0
  132.9337   72.4257  225.4696 H   0  0  0  0  0  0  0  0  0  0  0  0
  135.0180   72.3930  224.9220 C   0  0  0  0  0  0  0  0  0  0  0  0
  135.9813   72.3452  225.4509 H   0  0  0  0  0  0  0  0  0  0  0  0
  134.7875   71.4653  224.3778 H   0  0  0  0  0  0  0  0  0  0  0  0
  138.0600   72.9520  222.4160 N   0  0  0  0  0  0  0  0  0  0  0  0
  137.3270   72.3210  222.8160 H   0  0  0  0  0  0  0  0  0  0  0  0
  139.1660   70.1710  223.0940 C   0  0  0  0  0  0  0  0  0  0  0  0
  139.9457   69.4424  222.8271 H   0  0  0  0  0  0  0  0  0  0  0  0
  138.4372   70.2418  222.2731 H   0  0  0  0  0  0  0  0  0  0  0  0
  138.4580   69.7170  224.3700 C   0  0  0  0  0  0  0  0  0  0  0  0
  138.2261   68.6451  224.2844 H   0  0  0  0  0  0  0  0  0  0  0  0
  137.5425   70.3167  224.4802 H   0  0  0  0  0  0  0  0  0  0  0  0
  1  2  1  0
  2  3  2  0
  3  4  1  0
  3  5  1  0
  5  6  1  0
  5  7  2  0
  7  8  1  0
  8  9  2  0
  9 10  1  0
  8 11  1  0
 11 12  1  0
 11 13  1  0
 11 14  1  0
 14 15  1  0
 15 16  2  0
 16 17  1  0
 17 18  1  0
 18 19  1  0
 19 20  1  0
 19 21  1  0
 19 22  1  0
 22 23  1  0
 22 24  1  0
 22 25  1  0
 25 26  1  0
 25 27  1  0
 25 28  1  0
 28 29  1  0
 28 30  1  0
 28 31  1  0
 31 32  1  0
 31 33  1  0
 17 34  2  0
 34 35  1  0
 34 36  1  0
 36 37  2  0
 37 38  1  0
 38 39  1  0
 38 40  1  0
 38 41  1  0
 41 42  1  0
 41 43  1  0
 41 44  1  0
 44 45  1  0
 44 46  1  0
 46 47  1  0
 46 48  1  0
 46 49  1  0
 49 50  1  0
 49 51  1  0
 49 52  1  0
 52 53  1  0
 53 54  1  0
 53 55  1  0
 53 56  1  0
 56 57  1  0
 56 58  1  0
 36 59  1  0
 59 60  1  0
 14 61  1  0
 61 62  1  0
 61 63  1  0
 61 64  1  0
 64 65  1  0
 64 66  1  0
  9  2  1  0
 59 15  1  0
 64  7  1  0
 31 18  1  0
 56 44  1  0
M  CHG  2  25   1  44   1
M  END
>  <UniqueID>  (33) 
485

>  <SMILES>  (33) 
c1ccc2c(c1)CCN(c1nc(N3CC[NH2+]CC3)c/c(=N\CC[NH+]3CCOCC3)[nH]1)C2

>  <Energy>  (33) 
88.44114188630586

>  <Genealogy>  (33) 
c1ccc2c(c1)CCN(c1nc(NCC[NH+]3CCOCC3)cc(N3CC[NH2+]CC3)n1)C2 (protonated)
c1ccc2c(c1)CCN(c1nc(N3CC[NH2+]CC3)cc(=NCC[NH+]3CCOCC3)[nH]1)C2 (tautomer)
c1ccc2c(c1)CCN(c1nc(N3CC[NH2+]CC3)c/c(=N\CC[NH+]3CCOCC3)[nH]1)C2 (cis-trans isomerization)
c1ccc2c(c1)CCN(c1nc(N3CC[NH2+]CC3)c/c(=N\CC[NH+]3CCOCC3)[nH]1)C2 (3D coordinates assigned)
c1ccc2c(c1)CCN(c1nc(N3CC[NH2+]CC3)c/c(=N\CC[NH+]3CCOCC3)[nH]1)C2 (nonaromatic ring conformer: 88.44114188630586 kcal/mol)

>  <smiles>  (33) 
c1ccc2c(c1)CCN(c1nc(NCCN3CCOCC3)cc(N3CCNCC3)n1)C2

>  <score_type>  (33) 
oracle

>  <origin>  (33) 
autodockgpu

>  <m_score__min__energy>  (33) 
-9.1799999999999997

>  <m_primary>  (33) 
energy

>  <meeko>  (33) 
{"free_energy": -8.29, "intermolecular_energy": -10.08, "internal_energy": -1.55, "cluster_size": 20, "cluster_id": 1, "rank_in_cluster": 16}

>  <energy>  (33) 
-8.31

>  <cluster_rmsd>  (33) 
0.69

>  <rmsd>  (33) 
271.63

>  <cluster>  (33) 
1

$$$$
DRRGDEWGQQLPRW-CXKBQSNCNA-P
     RDKit          3D

 66 70  0  0  0  0  0  0  0  0999 V2000
  141.2773   70.5004  228.9164 H   0  0  0  0  0  0  0  0  0  0  0  0
  140.7220   70.3260  227.9830 C   0  0  0  0  0  0  0  0  0  0  0  0
  139.6570   69.4230  227.9650 C   0  0  0  0  0  0  0  0  0  0  0  0
  139.3781   68.8838  228.8823 H   0  0  0  0  0  0  0  0  0  0  0  0
  138.9460   69.2040  226.7840 C   0  0  0  0  0  0  0  0  0  0  0  0
  138.1054   68.4945  226.7769 H   0  0  0  0  0  0  0  0  0  0  0  0
  139.2950   69.8820  225.6050 C   0  0  0  0  0  0  0  0  0  0  0  0
  140.3710   70.8050  225.6270 C   0  0  0  0  0  0  0  0  0  0  0  0
  141.0840   71.0080  226.8200 C   0  0  0  0  0  0  0  0  0  0  0  0
  141.9322   71.7082  226.8380 H   0  0  0  0  0  0  0  0  0  0  0  0
  140.8090   71.5280  224.3760 C   0  0  0  0  0  0  0  0  0  0  0  0
  141.7275   71.0603  223.9918 H   0  0  0  0  0  0  0  0  0  0  0  0
  140.9927   72.5838  224.6243 H   0  0  0  0  0  0  0  0  0  0  0  0
  139.7690   71.4610  223.3470 N   0  0  0  0  0  0  0  0  0  0  0  0
  139.3780   72.6430  222.6290 C   0  0  0  0  0  0  0  0  0  0  0  0
  140.3350   73.4710  222.1370 N   0  0  0  0  0  0  0  0  0  0  0  0
  140.0300   74.6320  221.5010 C   0  0  0  0  0  0  0  0  0  0  0  0
  141.0980   75.4760  221.0040 N   0  0  0  0  0  0  0  0  0  0  0  0
  141.0780   76.9350  221.2160 C   0  0  0  0  0  0  0  0  0  0  0  0
  140.0352   77.2847  221.1994 H   0  0  0  0  0  0  0  0  0  0  0  0
  141.5466   77.1499  222.1877 H   0  0  0  0  0  0  0  0  0  0  0  0
  141.8690   77.6710  220.1250 C   0  0  0  0  0  0  0  0  0  0  0  0
  141.3057   77.6232  219.1814 H   0  0  0  0  0  0  0  0  0  0  0  0
  142.0096   78.7140  220.4450 H   0  0  0  0  0  0  0  0  0  0  0  0
  143.1940   77.0690  219.9210 N   0  0  0  0  0  0  0  0  0  0  0  0
  143.7650   77.1420  220.7950 H   0  0  0  0  0  0  0  0  0  0  0  0
  143.6850   77.5900  219.1580 H   0  0  0  0  0  0  0  0  0  0  0  0
  143.0660   75.6640  219.5190 C   0  0  0  0  0  0  0  0  0  0  0  0
  142.4726   75.6056  218.5946 H   0  0  0  0  0  0  0  0  0  0  0  0
  144.0719   75.2506  219.3538 H   0  0  0  0  0  0  0  0  0  0  0  0
  142.3730   74.8490  220.6130 C   0  0  0  0  0  0  0  0  0  0  0  0
  142.1755   73.8345  220.2366 H   0  0  0  0  0  0  0  0  0  0  0  0
  143.0311   74.8092  221.4935 H   0  0  0  0  0  0  0  0  0  0  0  0
  138.6800   74.9960  221.3750 C   0  0  0  0  0  0  0  0  0  0  0  0
  138.4011   75.9412  220.8864 H   0  0  0  0  0  0  0  0  0  0  0  0
  137.6860   74.1340  221.8830 C   0  0  0  0  0  0  0  0  0  0  0  0
  136.4110   74.4170  221.8050 N   0  0  0  0  0  0  0  0  0  0  0  0
  135.3170   73.5090  221.4520 C   0  0  0  0  0  0  0  0  0  0  0  0
  134.7072   73.9670  220.6593 H   0  0  0  0  0  0  0  0  0  0  0  0
  135.7423   72.5578  221.0995 H   0  0  0  0  0  0  0  0  0  0  0  0
  134.4300   73.2350  222.6800 C   0  0  0  0  0  0  0  0  0  0  0  0
  133.5434   73.8824  222.6106 H   0  0  0  0  0  0  0  0  0  0  0  0
  134.1933   72.1611  222.6520 H   0  0  0  0  0  0  0  0  0  0  0  0
  135.0780   73.4810  223.9980 N   0  0  0  0  0  0  0  0  0  0  0  0
  136.0970   73.5440  223.7520 H   0  0  0  0  0  0  0  0  0  0  0  0
  134.7560   74.8010  224.6000 C   0  0  0  0  0  0  0  0  0  0  0  0
  135.6587   75.1907  225.0933 H   0  0  0  0  0  0  0  0  0  0  0  0
  134.4155   75.4589  223.7868 H   0  0  0  0  0  0  0  0  0  0  0  0
  133.6260   74.7290  225.6350 C   0  0  0  0  0  0  0  0  0  0  0  0
  133.5199   75.7082  226.1247 H   0  0  0  0  0  0  0  0  0  0  0  0
  132.6901   74.4591  225.1239 H   0  0  0  0  0  0  0  0  0  0  0  0
  133.9140   73.7520  226.6080 O   0  0  0  0  0  0  0  0  0  0  0  0
  133.8770   72.4810  225.9980 C   0  0  0  0  0  0  0  0  0  0  0  0
  134.0111   71.7089  226.7699 H   0  0  0  0  0  0  0  0  0  0  0  0
  132.9051   72.3644  225.4963 H   0  0  0  0  0  0  0  0  0  0  0  0
  134.9890   72.3350  224.9440 C   0  0  0  0  0  0  0  0  0  0  0  0
  135.9521   72.2423  225.4673 H   0  0  0  0  0  0  0  0  0  0  0  0
  134.7462   71.4448  224.3451 H   0  0  0  0  0  0  0  0  0  0  0  0
  138.0630   72.9760  222.4930 N   0  0  0  0  0  0  0  0  0  0  0  0
  137.3260   72.3550  222.9010 H   0  0  0  0  0  0  0  0  0  0  0  0
  139.1430   70.1610  223.1010 C   0  0  0  0  0  0  0  0  0  0  0  0
  139.9140   69.4291  222.8184 H   0  0  0  0  0  0  0  0  0  0  0  0
  138.4114   70.2520  222.2847 H   0  0  0  0  0  0  0  0  0  0  0  0
  138.4370   69.6940  224.3730 C   0  0  0  0  0  0  0  0  0  0  0  0
  138.1928   68.6263  224.2710 H   0  0  0  0  0  0  0  0  0  0  0  0
  137.5290   70.3023  224.4979 H   0  0  0  0  0  0  0  0  0  0  0  0
  1  2  1  0
  2  3  2  0
  3  4  1  0
  3  5  1  0
  5  6  1  0
  5  7  2  0
  7  8  1  0
  8  9  2  0
  9 10  1  0
  8 11  1  0
 11 12  1  0
 11 13  1  0
 11 14  1  0
 14 15  1  0
 15 16  2  0
 16 17  1  0
 17 18  1  0
 18 19  1  0
 19 20  1  0
 19 21  1  0
 19 22  1  0
 22 23  1  0
 22 24  1  0
 22 25  1  0
 25 26  1  0
 25 27  1  0
 25 28  1  0
 28 29  1  0
 28 30  1  0
 28 31  1  0
 31 32  1  0
 31 33  1  0
 17 34  2  0
 34 35  1  0
 34 36  1  0
 36 37  2  0
 37 38  1  0
 38 39  1  0
 38 40  1  0
 38 41  1  0
 41 42  1  0
 41 43  1  0
 41 44  1  0
 44 45  1  0
 44 46  1  0
 46 47  1  0
 46 48  1  0
 46 49  1  0
 49 50  1  0
 49 51  1  0
 49 52  1  0
 52 53  1  0
 53 54  1  0
 53 55  1  0
 53 56  1  0
 56 57  1  0
 56 58  1  0
 36 59  1  0
 59 60  1  0
 14 61  1  0
 61 62  1  0
 61 63  1  0
 61 64  1  0
 64 65  1  0
 64 66  1  0
  9  2  1  0
 59 15  1  0
 64  7  1  0
 31 18  1  0
 56 44  1  0
M  CHG  2  25   1  44   1
M  END
>  <UniqueID>  (34) 
485

>  <SMILES>  (34) 
c1ccc2c(c1)CCN(c1nc(N3CC[NH2+]CC3)c/c(=N\CC[NH+]3CCOCC3)[nH]1)C2

>  <Energy>  (34) 
88.44114188630586

>  <Genealogy>  (34) 
c1ccc2c(c1)CCN(c1nc(NCC[NH+]3CCOCC3)cc(N3CC[NH2+]CC3)n1)C2 (protonated)
c1ccc2c(c1)CCN(c1nc(N3CC[NH2+]CC3)cc(=NCC[NH+]3CCOCC3)[nH]1)C2 (tautomer)
c1ccc2c(c1)CCN(c1nc(N3CC[NH2+]CC3)c/c(=N\CC[NH+]3CCOCC3)[nH]1)C2 (cis-trans isomerization)
c1ccc2c(c1)CCN(c1nc(N3CC[NH2+]CC3)c/c(=N\CC[NH+]3CCOCC3)[nH]1)C2 (3D coordinates assigned)
c1ccc2c(c1)CCN(c1nc(N3CC[NH2+]CC3)c/c(=N\CC[NH+]3CCOCC3)[nH]1)C2 (nonaromatic ring conformer: 88.44114188630586 kcal/mol)

>  <smiles>  (34) 
c1ccc2c(c1)CCN(c1nc(NCCN3CCOCC3)cc(N3CCNCC3)n1)C2

>  <score_type>  (34) 
oracle

>  <origin>  (34) 
autodockgpu

>  <m_score__min__energy>  (34) 
-9.1799999999999997

>  <m_primary>  (34) 
energy

>  <meeko>  (34) 
{"free_energy": -8.28, "intermolecular_energy": -10.07, "internal_energy": -1.55, "cluster_size": 20, "cluster_id": 1, "rank_in_cluster": 19}

>  <energy>  (34) 
-8.3

>  <cluster_rmsd>  (34) 
0.69

>  <rmsd>  (34) 
271.63

>  <cluster>  (34) 
1

$$$$
DRRGDEWGQQLPRW-CXKBQSNCNA-P
     RDKit          3D

 66 70  0  0  0  0  0  0  0  0999 V2000
  141.1725   70.7719  229.2921 H   0  0  0  0  0  0  0  0  0  0  0  0
  140.7290   70.4660  228.3330 C   0  0  0  0  0  0  0  0  0  0  0  0
  139.8360   69.3930  228.2890 C   0  0  0  0  0  0  0  0  0  0  0  0
  139.5833   68.8501  229.2117 H   0  0  0  0  0  0  0  0  0  0  0  0
  139.2640   69.0090  227.0750 C   0  0  0  0  0  0  0  0  0  0  0  0
  138.5565   68.1672  227.0476 H   0  0  0  0  0  0  0  0  0  0  0  0
  139.5840   69.6880  225.8890 C   0  0  0  0  0  0  0  0  0  0  0  0
  140.4840   70.7810  225.9360 C   0  0  0  0  0  0  0  0  0  0  0  0
  141.0600   71.1510  227.1630 C   0  0  0  0  0  0  0  0  0  0  0  0
  141.7759   71.9853  227.2016 H   0  0  0  0  0  0  0  0  0  0  0  0
  140.8900   71.5180  224.6820 C   0  0  0  0  0  0  0  0  0  0  0  0
  141.9009   71.1998  224.3875 H   0  0  0  0  0  0  0  0  0  0  0  0
  140.8743   72.5987  224.8864 H   0  0  0  0  0  0  0  0  0  0  0  0
  139.9580   71.2320  223.5880 N   0  0  0  0  0  0  0  0  0  0  0  0
  139.4300   72.3000  222.7840 C   0  0  0  0  0  0  0  0  0  0  0  0
  140.2580   73.2900  222.3640 N   0  0  0  0  0  0  0  0  0  0  0  0
  139.8090   74.3560  221.6510 C   0  0  0  0  0  0  0  0  0  0  0  0
  140.7440   75.3830  221.2380 N   0  0  0  0  0  0  0  0  0  0  0  0
  140.6080   76.7730  221.7130 C   0  0  0  0  0  0  0  0  0  0  0  0
  139.5402   77.0054  221.8385 H   0  0  0  0  0  0  0  0  0  0  0  0
  141.1430   76.8657  222.6697 H   0  0  0  0  0  0  0  0  0  0  0  0
  141.2220   77.7680  220.7180 C   0  0  0  0  0  0  0  0  0  0  0  0
  140.5800   77.8241  219.8265 H   0  0  0  0  0  0  0  0  0  0  0  0
  141.2944   78.7487  221.2109 H   0  0  0  0  0  0  0  0  0  0  0  0
  142.5720   77.3570  220.3090 N   0  0  0  0  0  0  0  0  0  0  0  0
  143.2130   77.3390  221.1360 H   0  0  0  0  0  0  0  0  0  0  0  0
  142.9400   78.0530  219.6190 H   0  0  0  0  0  0  0  0  0  0  0  0
  142.5390   76.0380  219.6690 C   0  0  0  0  0  0  0  0  0  0  0  0
  141.8709   76.0771  218.7960 H   0  0  0  0  0  0  0  0  0  0  0  0
  143.5597   75.7710  219.3577 H   0  0  0  0  0  0  0  0  0  0  0  0
  142.0290   74.9750  220.6440 C   0  0  0  0  0  0  0  0  0  0  0  0
  141.8916   74.0266  220.1039 H   0  0  0  0  0  0  0  0  0  0  0  0
  142.7672   74.8532  221.4504 H   0  0  0  0  0  0  0  0  0  0  0  0
  138.4370   74.4440  221.3650 C   0  0  0  0  0  0  0  0  0  0  0  0
  138.0381   75.3059  220.8100 H   0  0  0  0  0  0  0  0  0  0  0  0
  137.5770   73.4140  221.7980 C   0  0  0  0  0  0  0  0  0  0  0  0
  136.2890   73.4380  221.5720 N   0  0  0  0  0  0  0  0  0  0  0  0
  135.4440   74.6150  221.3580 C   0  0  0  0  0  0  0  0  0  0  0  0
  136.0592   75.4353  220.9598 H   0  0  0  0  0  0  0  0  0  0  0  0
  134.6484   74.3580  220.6432 H   0  0  0  0  0  0  0  0  0  0  0  0
  134.8000   75.0610  222.6830 C   0  0  0  0  0  0  0  0  0  0  0  0
  134.9635   76.1431  222.7935 H   0  0  0  0  0  0  0  0  0  0  0  0
  133.7383   74.7815  222.6154 H   0  0  0  0  0  0  0  0  0  0  0  0
  135.3270   74.3890  223.9020 N   0  0  0  0  0  0  0  0  0  0  0  0
  136.3070   74.1320  223.6250 H   0  0  0  0  0  0  0  0  0  0  0  0
  135.4930   75.2880  225.0730 C   0  0  0  0  0  0  0  0  0  0  0  0
  136.4088   74.9990  225.6095 H   0  0  0  0  0  0  0  0  0  0  0  0
  135.5478   76.3182  224.6912 H   0  0  0  0  0  0  0  0  0  0  0  0
  134.3120   75.2240  226.0520 C   0  0  0  0  0  0  0  0  0  0  0  0
  134.5502   75.8174  226.9471 H   0  0  0  0  0  0  0  0  0  0  0  0
  133.4161   75.6289  225.5586 H   0  0  0  0  0  0  0  0  0  0  0  0
  134.0630   73.8920  226.4310 O   0  0  0  0  0  0  0  0  0  0  0  0
  133.5920   73.1810  225.3070 C   0  0  0  0  0  0  0  0  0  0  0  0
  133.3101   72.1643  225.6181 H   0  0  0  0  0  0  0  0  0  0  0  0
  132.7234   73.7162  224.8958 H   0  0  0  0  0  0  0  0  0  0  0  0
  134.6700   73.0900  224.2130 C   0  0  0  0  0  0  0  0  0  0  0  0
  135.4431   72.3824  224.5470 H   0  0  0  0  0  0  0  0  0  0  0  0
  134.1638   72.7608  223.2935 H   0  0  0  0  0  0  0  0  0  0  0  0
  138.0990   72.3650  222.4940 N   0  0  0  0  0  0  0  0  0  0  0  0
  137.4550   71.6190  222.8450 H   0  0  0  0  0  0  0  0  0  0  0  0
  139.5790   69.8360  223.3690 C   0  0  0  0  0  0  0  0  0  0  0  0
  140.4810   69.2358  223.1787 H   0  0  0  0  0  0  0  0  0  0  0  0
  138.9065   69.7683  222.5012 H   0  0  0  0  0  0  0  0  0  0  0  0
  138.8660   69.3060  224.6120 C   0  0  0  0  0  0  0  0  0  0  0  0
  138.8134   68.2090  224.5496 H   0  0  0  0  0  0  0  0  0  0  0  0
  137.8617   69.7536  224.6421 H   0  0  0  0  0  0  0  0  0  0  0  0
  1  2  1  0
  2  3  2  0
  3  4  1  0
  3  5  1  0
  5  6  1  0
  5  7  2  0
  7  8  1  0
  8  9  2  0
  9 10  1  0
  8 11  1  0
 11 12  1  0
 11 13  1  0
 11 14  1  0
 14 15  1  0
 15 16  2  0
 16 17  1  0
 17 18  1  0
 18 19  1  0
 19 20  1  0
 19 21  1  0
 19 22  1  0
 22 23  1  0
 22 24  1  0
 22 25  1  0
 25 26  1  0
 25 27  1  0
 25 28  1  0
 28 29  1  0
 28 30  1  0
 28 31  1  0
 31 32  1  0
 31 33  1  0
 17 34  2  0
 34 35  1  0
 34 36  1  0
 36 37  2  0
 37 38  1  0
 38 39  1  0
 38 40  1  0
 38 41  1  0
 41 42  1  0
 41 43  1  0
 41 44  1  0
 44 45  1  0
 44 46  1  0
 46 47  1  0
 46 48  1  0
 46 49  1  0
 49 50  1  0
 49 51  1  0
 49 52  1  0
 52 53  1  0
 53 54  1  0
 53 55  1  0
 53 56  1  0
 56 57  1  0
 56 58  1  0
 36 59  1  0
 59 60  1  0
 14 61  1  0
 61 62  1  0
 61 63  1  0
 61 64  1  0
 64 65  1  0
 64 66  1  0
  9  2  1  0
 59 15  1  0
 64  7  1  0
 31 18  1  0
 56 44  1  0
M  CHG  2  25   1  44   1
M  END
>  <UniqueID>  (35) 
485

>  <SMILES>  (35) 
c1ccc2c(c1)CCN(c1nc(N3CC[NH2+]CC3)c/c(=N\CC[NH+]3CCOCC3)[nH]1)C2

>  <Energy>  (35) 
88.44114188630586

>  <Genealogy>  (35) 
c1ccc2c(c1)CCN(c1nc(NCC[NH+]3CCOCC3)cc(N3CC[NH2+]CC3)n1)C2 (protonated)
c1ccc2c(c1)CCN(c1nc(N3CC[NH2+]CC3)cc(=NCC[NH+]3CCOCC3)[nH]1)C2 (tautomer)
c1ccc2c(c1)CCN(c1nc(N3CC[NH2+]CC3)c/c(=N\CC[NH+]3CCOCC3)[nH]1)C2 (cis-trans isomerization)
c1ccc2c(c1)CCN(c1nc(N3CC[NH2+]CC3)c/c(=N\CC[NH+]3CCOCC3)[nH]1)C2 (3D coordinates assigned)
c1ccc2c(c1)CCN(c1nc(N3CC[NH2+]CC3)c/c(=N\CC[NH+]3CCOCC3)[nH]1)C2 (nonaromatic ring conformer: 88.44114188630586 kcal/mol)

>  <smiles>  (35) 
c1ccc2c(c1)CCN(c1nc(NCCN3CCOCC3)cc(N3CCNCC3)n1)C2

>  <score_type>  (35) 
oracle

>  <origin>  (35) 
autodockgpu

>  <m_score__min__energy>  (35) 
-9.1799999999999997

>  <m_primary>  (35) 
energy

>  <meeko>  (35) 
{"free_energy": -8.76, "intermolecular_energy": -10.55, "internal_energy": -1.46, "cluster_size": 20, "cluster_id": 1, "rank_in_cluster": 10}

>  <energy>  (35) 
-8.3

>  <cluster_rmsd>  (35) 
0.7

>  <rmsd>  (35) 
271.67

>  <cluster>  (35) 
1

$$$$
DRRGDEWGQQLPRW-CXKBQSNCNA-P
     RDKit          3D

 66 70  0  0  0  0  0  0  0  0999 V2000
  141.1854   71.0957  229.2695 H   0  0  0  0  0  0  0  0  0  0  0  0
  140.7250   70.7790  228.3220 C   0  0  0  0  0  0  0  0  0  0  0  0
  139.7500   69.7800  228.3210 C   0  0  0  0  0  0  0  0  0  0  0  0
  139.4484   69.3063  229.2669 H   0  0  0  0  0  0  0  0  0  0  0  0
  139.1570   69.3810  227.1220 C   0  0  0  0  0  0  0  0  0  0  0  0
  138.3855   68.5970  227.1290 H   0  0  0  0  0  0  0  0  0  0  0  0
  139.5380   69.9730  225.9070 C   0  0  0  0  0  0  0  0  0  0  0  0
  140.5220   70.9930  225.9090 C   0  0  0  0  0  0  0  0  0  0  0  0
  141.1170   71.3770  227.1230 C   0  0  0  0  0  0  0  0  0  0  0  0
  141.8962   72.1534  227.1284 H   0  0  0  0  0  0  0  0  0  0  0  0
  140.9930   71.6320  224.6250 C   0  0  0  0  0  0  0  0  0  0  0  0
  141.9776   71.2210  224.3572 H   0  0  0  0  0  0  0  0  0  0  0  0
  141.0612   72.7195  224.7757 H   0  0  0  0  0  0  0  0  0  0  0  0
  140.0490   71.3660  223.5370 N   0  0  0  0  0  0  0  0  0  0  0  0
  139.6120   72.4310  222.6760 C   0  0  0  0  0  0  0  0  0  0  0  0
  140.5200   73.3260  222.2110 N   0  0  0  0  0  0  0  0  0  0  0  0
  140.1620   74.3880  221.4420 C   0  0  0  0  0  0  0  0  0  0  0  0
  141.1790   75.3120  220.9830 N   0  0  0  0  0  0  0  0  0  0  0  0
  141.0790   76.7560  221.2640 C   0  0  0  0  0  0  0  0  0  0  0  0
  140.0183   77.0475  221.2672 H   0  0  0  0  0  0  0  0  0  0  0  0
  141.5401   76.9511  222.2435 H   0  0  0  0  0  0  0  0  0  0  0  0
  141.8220   77.5850  220.2060 C   0  0  0  0  0  0  0  0  0  0  0  0
  141.2574   77.5491  219.2626 H   0  0  0  0  0  0  0  0  0  0  0  0
  141.9055   78.6184  220.5737 H   0  0  0  0  0  0  0  0  0  0  0  0
  143.1770   77.0690  219.9710 N   0  0  0  0  0  0  0  0  0  0  0  0
  143.7480   77.1330  220.8450 H   0  0  0  0  0  0  0  0  0  0  0  0
  143.6340   77.6520  219.2310 H   0  0  0  0  0  0  0  0  0  0  0  0
  143.1260   75.6790  219.5030 C   0  0  0  0  0  0  0  0  0  0  0  0
  142.5326   75.6311  218.5780 H   0  0  0  0  0  0  0  0  0  0  0  0
  144.1527   75.3310  219.3165 H   0  0  0  0  0  0  0  0  0  0  0  0
  142.4850   74.7760  220.5580 C   0  0  0  0  0  0  0  0  0  0  0  0
  142.3416   73.7713  220.1336 H   0  0  0  0  0  0  0  0  0  0  0  0
  143.1492   74.7308  221.4337 H   0  0  0  0  0  0  0  0  0  0  0  0
  138.8030   74.5730  221.1430 C   0  0  0  0  0  0  0  0  0  0  0  0
  138.4777   75.4350  220.5421 H   0  0  0  0  0  0  0  0  0  0  0  0
  137.8600   73.6410  221.6220 C   0  0  0  0  0  0  0  0  0  0  0  0
  136.5790   73.7590  221.3860 N   0  0  0  0  0  0  0  0  0  0  0  0
  135.5890   74.4830  222.1850 C   0  0  0  0  0  0  0  0  0  0  0  0
  136.1005   75.2425  222.7945 H   0  0  0  0  0  0  0  0  0  0  0  0
  134.8675   74.9643  221.5084 H   0  0  0  0  0  0  0  0  0  0  0  0
  134.8340   73.5130  223.1120 C   0  0  0  0  0  0  0  0  0  0  0  0
  133.7581   73.7226  223.0202 H   0  0  0  0  0  0  0  0  0  0  0  0
  135.1136   72.5000  222.7868 H   0  0  0  0  0  0  0  0  0  0  0  0
  135.1990   73.6000  224.5530 N   0  0  0  0  0  0  0  0  0  0  0  0
  136.2340   73.4200  224.5450 H   0  0  0  0  0  0  0  0  0  0  0  0
  135.0590   74.9580  225.1390 C   0  0  0  0  0  0  0  0  0  0  0  0
  135.8882   75.1230  225.8427 H   0  0  0  0  0  0  0  0  0  0  0  0
  135.0759   75.6780  224.3075 H   0  0  0  0  0  0  0  0  0  0  0  0
  133.7350   75.1550  225.8890 C   0  0  0  0  0  0  0  0  0  0  0  0
  133.7467   76.1315  226.3953 H   0  0  0  0  0  0  0  0  0  0  0  0
  132.9058   75.1143  225.1674 H   0  0  0  0  0  0  0  0  0  0  0  0
  133.5590   74.1380  226.8460 O   0  0  0  0  0  0  0  0  0  0  0  0
  133.3730   72.9110  226.1760 C   0  0  0  0  0  0  0  0  0  0  0  0
  133.1457   72.1294  226.9159 H   0  0  0  0  0  0  0  0  0  0  0  0
  132.5422   73.0261  225.4643 H   0  0  0  0  0  0  0  0  0  0  0  0
  134.6330   72.5070  225.3910 C   0  0  0  0  0  0  0  0  0  0  0  0
  135.4019   72.1888  226.1104 H   0  0  0  0  0  0  0  0  0  0  0  0
  134.3362   71.7001  224.7049 H   0  0  0  0  0  0  0  0  0  0  0  0
  138.2920   72.5900  222.3740 N   0  0  0  0  0  0  0  0  0  0  0  0
  137.5880   71.9180  222.7580 H   0  0  0  0  0  0  0  0  0  0  0  0
  139.5620   69.9950  223.3830 C   0  0  0  0  0  0  0  0  0  0  0  0
  140.4148   69.3169  223.2318 H   0  0  0  0  0  0  0  0  0  0  0  0
  138.8918   69.9376  222.5126 H   0  0  0  0  0  0  0  0  0  0  0  0
  138.8010   69.5850  224.6430 C   0  0  0  0  0  0  0  0  0  0  0  0
  138.6628   68.4938  224.6342 H   0  0  0  0  0  0  0  0  0  0  0  0
  137.8347   70.1106  224.6403 H   0  0  0  0  0  0  0  0  0  0  0  0
  1  2  1  0
  2  3  2  0
  3  4  1  0
  3  5  1  0
  5  6  1  0
  5  7  2  0
  7  8  1  0
  8  9  2  0
  9 10  1  0
  8 11  1  0
 11 12  1  0
 11 13  1  0
 11 14  1  0
 14 15  1  0
 15 16  2  0
 16 17  1  0
 17 18  1  0
 18 19  1  0
 19 20  1  0
 19 21  1  0
 19 22  1  0
 22 23  1  0
 22 24  1  0
 22 25  1  0
 25 26  1  0
 25 27  1  0
 25 28  1  0
 28 29  1  0
 28 30  1  0
 28 31  1  0
 31 32  1  0
 31 33  1  0
 17 34  2  0
 34 35  1  0
 34 36  1  0
 36 37  2  0
 37 38  1  0
 38 39  1  0
 38 40  1  0
 38 41  1  0
 41 42  1  0
 41 43  1  0
 41 44  1  0
 44 45  1  0
 44 46  1  0
 46 47  1  0
 46 48  1  0
 46 49  1  0
 49 50  1  0
 49 51  1  0
 49 52  1  0
 52 53  1  0
 53 54  1  0
 53 55  1  0
 53 56  1  0
 56 57  1  0
 56 58  1  0
 36 59  1  0
 59 60  1  0
 14 61  1  0
 61 62  1  0
 61 63  1  0
 61 64  1  0
 64 65  1  0
 64 66  1  0
  9  2  1  0
 59 15  1  0
 64  7  1  0
 31 18  1  0
 56 44  1  0
M  CHG  2  25   1  44   1
M  END
>  <UniqueID>  (36) 
485

>  <SMILES>  (36) 
c1ccc2c(c1)CCN(c1nc(N3CC[NH2+]CC3)c/c(=N\CC[NH+]3CCOCC3)[nH]1)C2

>  <Energy>  (36) 
88.44114188630586

>  <Genealogy>  (36) 
c1ccc2c(c1)CCN(c1nc(NCC[NH+]3CCOCC3)cc(N3CC[NH2+]CC3)n1)C2 (protonated)
c1ccc2c(c1)CCN(c1nc(N3CC[NH2+]CC3)cc(=NCC[NH+]3CCOCC3)[nH]1)C2 (tautomer)
c1ccc2c(c1)CCN(c1nc(N3CC[NH2+]CC3)c/c(=N\CC[NH+]3CCOCC3)[nH]1)C2 (cis-trans isomerization)
c1ccc2c(c1)CCN(c1nc(N3CC[NH2+]CC3)c/c(=N\CC[NH+]3CCOCC3)[nH]1)C2 (3D coordinates assigned)
c1ccc2c(c1)CCN(c1nc(N3CC[NH2+]CC3)c/c(=N\CC[NH+]3CCOCC3)[nH]1)C2 (nonaromatic ring conformer: 88.44114188630586 kcal/mol)

>  <smiles>  (36) 
c1ccc2c(c1)CCN(c1nc(NCCN3CCOCC3)cc(N3CCNCC3)n1)C2

>  <score_type>  (36) 
oracle

>  <origin>  (36) 
autodockgpu

>  <m_score__min__energy>  (36) 
-9.1799999999999997

>  <m_primary>  (36) 
energy

>  <meeko>  (36) 
{"free_energy": -8.95, "intermolecular_energy": -10.73, "internal_energy": -0.73, "cluster_size": 20, "cluster_id": 1, "rank_in_cluster": 4}

>  <energy>  (36) 
-8.29

>  <cluster_rmsd>  (36) 
0.69

>  <rmsd>  (36) 
271.63

>  <cluster>  (36) 
1

$$$$
DRRGDEWGQQLPRW-CXKBQSNCNA-P
     RDKit          3D

 66 70  0  0  0  0  0  0  0  0999 V2000
  141.2072   70.5727  229.2769 H   0  0  0  0  0  0  0  0  0  0  0  0
  140.7550   70.2930  228.3140 C   0  0  0  0  0  0  0  0  0  0  0  0
  139.8590   69.2230  228.2500 C   0  0  0  0  0  0  0  0  0  0  0  0
  139.6106   68.6581  229.1606 H   0  0  0  0  0  0  0  0  0  0  0  0
  139.2790   68.8710  227.0300 C   0  0  0  0  0  0  0  0  0  0  0  0
  138.5707   68.0306  226.9858 H   0  0  0  0  0  0  0  0  0  0  0  0
  139.5910   69.5790  225.8600 C   0  0  0  0  0  0  0  0  0  0  0  0
  140.4940   70.6700  225.9280 C   0  0  0  0  0  0  0  0  0  0  0  0
  141.0780   71.0080  227.1600 C   0  0  0  0  0  0  0  0  0  0  0  0
  141.7941   71.8412  227.2154 H   0  0  0  0  0  0  0  0  0  0  0  0
  140.8910   71.4380  224.6900 C   0  0  0  0  0  0  0  0  0  0  0  0
  141.8993   71.1264  224.3797 H   0  0  0  0  0  0  0  0  0  0  0  0
  140.8779   72.5132  224.9218 H   0  0  0  0  0  0  0  0  0  0  0  0
  139.9510   71.1810  223.5970 N   0  0  0  0  0  0  0  0  0  0  0  0
  139.4190   72.2700  222.8240 C   0  0  0  0  0  0  0  0  0  0  0  0
  140.2500   73.2580  222.4030 N   0  0  0  0  0  0  0  0  0  0  0  0
  139.7990   74.3420  221.7200 C   0  0  0  0  0  0  0  0  0  0  0  0
  140.7370   75.3660  221.3060 N   0  0  0  0  0  0  0  0  0  0  0  0
  140.6010   76.7580  221.7710 C   0  0  0  0  0  0  0  0  0  0  0  0
  139.5329   76.9929  221.8894 H   0  0  0  0  0  0  0  0  0  0  0  0
  141.1312   76.8557  222.7298 H   0  0  0  0  0  0  0  0  0  0  0  0
  141.2220   77.7460  220.7730 C   0  0  0  0  0  0  0  0  0  0  0  0
  140.5851   77.7972  219.8776 H   0  0  0  0  0  0  0  0  0  0  0  0
  141.2929   78.7296  221.2603 H   0  0  0  0  0  0  0  0  0  0  0  0
  142.5740   77.3310  220.3740 N   0  0  0  0  0  0  0  0  0  0  0  0
  143.2100   77.3170  221.2050 H   0  0  0  0  0  0  0  0  0  0  0  0
  142.9450   78.0230  219.6810 H   0  0  0  0  0  0  0  0  0  0  0  0
  142.5420   76.0080  219.7420 C   0  0  0  0  0  0  0  0  0  0  0  0
  141.8786   76.0428  218.8653 H   0  0  0  0  0  0  0  0  0  0  0  0
  143.5638   75.7372  219.4377 H   0  0  0  0  0  0  0  0  0  0  0  0
  142.0250   74.9520  220.7210 C   0  0  0  0  0  0  0  0  0  0  0  0
  141.8888   74.0005  220.1862 H   0  0  0  0  0  0  0  0  0  0  0  0
  142.7587   74.8341  221.5320 H   0  0  0  0  0  0  0  0  0  0  0  0
  138.4230   74.4520  221.4660 C   0  0  0  0  0  0  0  0  0  0  0  0
  138.0230   75.3288  220.9356 H   0  0  0  0  0  0  0  0  0  0  0  0
  137.5600   73.4250  221.8990 C   0  0  0  0  0  0  0  0  0  0  0  0
  136.2680   73.4690  221.7010 N   0  0  0  0  0  0  0  0  0  0  0  0
  135.4400   74.6560  221.4780 C   0  0  0  0  0  0  0  0  0  0  0  0
  136.0296   75.4133  220.9404 H   0  0  0  0  0  0  0  0  0  0  0  0
  134.5596   74.3701  220.8837 H   0  0  0  0  0  0  0  0  0  0  0  0
  134.9670   75.2410  222.8210 C   0  0  0  0  0  0  0  0  0  0  0  0
  135.3959   76.2488  222.9231 H   0  0  0  0  0  0  0  0  0  0  0  0
  133.8675   75.2326  222.7872 H   0  0  0  0  0  0  0  0  0  0  0  0
  135.3490   74.4540  224.0250 N   0  0  0  0  0  0  0  0  0  0  0  0
  136.3150   74.1160  223.7900 H   0  0  0  0  0  0  0  0  0  0  0  0
  135.5250   75.2660  225.2570 C   0  0  0  0  0  0  0  0  0  0  0  0
  136.3731   74.8586  225.8268 H   0  0  0  0  0  0  0  0  0  0  0  0
  135.7017   76.3053  224.9429 H   0  0  0  0  0  0  0  0  0  0  0  0
  134.2840   75.2650  226.1600 C   0  0  0  0  0  0  0  0  0  0  0  0
  134.5205   75.7815  227.1020 H   0  0  0  0  0  0  0  0  0  0  0  0
  133.4640   75.7831  225.6411 H   0  0  0  0  0  0  0  0  0  0  0  0
  133.8850   73.9450  226.4420 O   0  0  0  0  0  0  0  0  0  0  0  0
  133.4210   73.3470  225.2510 C   0  0  0  0  0  0  0  0  0  0  0  0
  133.0248   72.3473  225.4825 H   0  0  0  0  0  0  0  0  0  0  0  0
  132.6351   73.9872  224.8238 H   0  0  0  0  0  0  0  0  0  0  0  0
  134.5520   73.2110  224.2180 C   0  0  0  0  0  0  0  0  0  0  0  0
  135.2314   72.4129  224.5520 H   0  0  0  0  0  0  0  0  0  0  0  0
  134.0756   72.9854  223.2525 H   0  0  0  0  0  0  0  0  0  0  0  0
  138.0830   72.3570  222.5640 N   0  0  0  0  0  0  0  0  0  0  0  0
  137.4380   71.6120  222.9150 H   0  0  0  0  0  0  0  0  0  0  0  0
  139.5690   69.7920  223.3440 C   0  0  0  0  0  0  0  0  0  0  0  0
  140.4688   69.1959  223.1316 H   0  0  0  0  0  0  0  0  0  0  0  0
  138.8906   69.7472  222.4792 H   0  0  0  0  0  0  0  0  0  0  0  0
  138.8640   69.2310  224.5790 C   0  0  0  0  0  0  0  0  0  0  0  0
  138.8094   68.1361  224.4889 H   0  0  0  0  0  0  0  0  0  0  0  0
  137.8607   69.6793  224.6278 H   0  0  0  0  0  0  0  0  0  0  0  0
  1  2  1  0
  2  3  2  0
  3  4  1  0
  3  5  1  0
  5  6  1  0
  5  7  2  0
  7  8  1  0
  8  9  2  0
  9 10  1  0
  8 11  1  0
 11 12  1  0
 11 13  1  0
 11 14  1  0
 14 15  1  0
 15 16  2  0
 16 17  1  0
 17 18  1  0
 18 19  1  0
 19 20  1  0
 19 21  1  0
 19 22  1  0
 22 23  1  0
 22 24  1  0
 22 25  1  0
 25 26  1  0
 25 27  1  0
 25 28  1  0
 28 29  1  0
 28 30  1  0
 28 31  1  0
 31 32  1  0
 31 33  1  0
 17 34  2  0
 34 35  1  0
 34 36  1  0
 36 37  2  0
 37 38  1  0
 38 39  1  0
 38 40  1  0
 38 41  1  0
 41 42  1  0
 41 43  1  0
 41 44  1  0
 44 45  1  0
 44 46  1  0
 46 47  1  0
 46 48  1  0
 46 49  1  0
 49 50  1  0
 49 51  1  0
 49 52  1  0
 52 53  1  0
 53 54  1  0
 53 55  1  0
 53 56  1  0
 56 57  1  0
 56 58  1  0
 36 59  1  0
 59 60  1  0
 14 61  1  0
 61 62  1  0
 61 63  1  0
 61 64  1  0
 64 65  1  0
 64 66  1  0
  9  2  1  0
 59 15  1  0
 64  7  1  0
 31 18  1  0
 56 44  1  0
M  CHG  2  25   1  44   1
M  END
>  <UniqueID>  (37) 
485

>  <SMILES>  (37) 
c1ccc2c(c1)CCN(c1nc(N3CC[NH2+]CC3)c/c(=N\CC[NH+]3CCOCC3)[nH]1)C2

>  <Energy>  (37) 
88.44114188630586

>  <Genealogy>  (37) 
c1ccc2c(c1)CCN(c1nc(NCC[NH+]3CCOCC3)cc(N3CC[NH2+]CC3)n1)C2 (protonated)
c1ccc2c(c1)CCN(c1nc(N3CC[NH2+]CC3)cc(=NCC[NH+]3CCOCC3)[nH]1)C2 (tautomer)
c1ccc2c(c1)CCN(c1nc(N3CC[NH2+]CC3)c/c(=N\CC[NH+]3CCOCC3)[nH]1)C2 (cis-trans isomerization)
c1ccc2c(c1)CCN(c1nc(N3CC[NH2+]CC3)c/c(=N\CC[NH+]3CCOCC3)[nH]1)C2 (3D coordinates assigned)
c1ccc2c(c1)CCN(c1nc(N3CC[NH2+]CC3)c/c(=N\CC[NH+]3CCOCC3)[nH]1)C2 (nonaromatic ring conformer: 88.44114188630586 kcal/mol)

>  <smiles>  (37) 
c1ccc2c(c1)CCN(c1nc(NCCN3CCOCC3)cc(N3CCNCC3)n1)C2

>  <score_type>  (37) 
oracle

>  <origin>  (37) 
autodockgpu

>  <m_score__min__energy>  (37) 
-9.1799999999999997

>  <m_primary>  (37) 
energy

>  <meeko>  (37) 
{"free_energy": -8.77, "intermolecular_energy": -10.56, "internal_energy": -1.43, "cluster_size": 20, "cluster_id": 1, "rank_in_cluster": 8}

>  <energy>  (37) 
-8.29

>  <cluster_rmsd>  (37) 
0.69

>  <rmsd>  (37) 
271.65

>  <cluster>  (37) 
1

$$$$
DRRGDEWGQQLPRW-CXKBQSNCNA-P
     RDKit          3D

 66 70  0  0  0  0  0  0  0  0999 V2000
  141.1854   71.0898  229.2870 H   0  0  0  0  0  0  0  0  0  0  0  0
  140.7270   70.7490  228.3470 C   0  0  0  0  0  0  0  0  0  0  0  0
  139.7820   69.7210  228.3650 C   0  0  0  0  0  0  0  0  0  0  0  0
  139.5014   69.2495  229.3184 H   0  0  0  0  0  0  0  0  0  0  0  0
  139.1930   69.2910  227.1750 C   0  0  0  0  0  0  0  0  0  0  0  0
  138.4460   68.4838  227.1966 H   0  0  0  0  0  0  0  0  0  0  0  0
  139.5460   69.8800  225.9510 C   0  0  0  0  0  0  0  0  0  0  0  0
  140.4990   70.9300  225.9340 C   0  0  0  0  0  0  0  0  0  0  0  0
  141.0910   71.3450  227.1380 C   0  0  0  0  0  0  0  0  0  0  0  0
  141.8463   72.1447  227.1285 H   0  0  0  0  0  0  0  0  0  0  0  0
  140.9400   71.5680  224.6390 C   0  0  0  0  0  0  0  0  0  0  0  0
  141.9345   71.1840  224.3677 H   0  0  0  0  0  0  0  0  0  0  0  0
  140.9763   72.6587  224.7769 H   0  0  0  0  0  0  0  0  0  0  0  0
  139.9960   71.2610  223.5620 N   0  0  0  0  0  0  0  0  0  0  0  0
  139.5210   72.3020  222.6920 C   0  0  0  0  0  0  0  0  0  0  0  0
  140.3880   73.2500  222.2520 N   0  0  0  0  0  0  0  0  0  0  0  0
  139.9890   74.2920  221.4760 C   0  0  0  0  0  0  0  0  0  0  0  0
  140.9620   75.2740  221.0450 N   0  0  0  0  0  0  0  0  0  0  0  0
  140.7360   76.7160  221.2570 C   0  0  0  0  0  0  0  0  0  0  0  0
  139.6587   76.9245  221.1798 H   0  0  0  0  0  0  0  0  0  0  0  0
  141.1149   76.9826  222.2547 H   0  0  0  0  0  0  0  0  0  0  0  0
  141.4840   77.5600  220.2150 C   0  0  0  0  0  0  0  0  0  0  0  0
  140.9880   77.4459  219.2398 H   0  0  0  0  0  0  0  0  0  0  0  0
  141.4655   78.6097  220.5434 H   0  0  0  0  0  0  0  0  0  0  0  0
  142.8870   77.1410  220.0890 N   0  0  0  0  0  0  0  0  0  0  0  0
  143.3920   77.2820  220.9950 H   0  0  0  0  0  0  0  0  0  0  0  0
  143.3480   77.7300  219.3560 H   0  0  0  0  0  0  0  0  0  0  0  0
  142.9710   75.7350  219.6790 C   0  0  0  0  0  0  0  0  0  0  0  0
  142.4461   75.6065  218.7209 H   0  0  0  0  0  0  0  0  0  0  0  0
  144.0310   75.4604  219.5739 H   0  0  0  0  0  0  0  0  0  0  0  0
  142.3300   74.8260  220.7280 C   0  0  0  0  0  0  0  0  0  0  0  0
  142.2914   73.7979  220.3388 H   0  0  0  0  0  0  0  0  0  0  0  0
  142.9351   74.8662  221.6457 H   0  0  0  0  0  0  0  0  0  0  0  0
  138.6290   74.4010  221.1440 C   0  0  0  0  0  0  0  0  0  0  0  0
  138.2701   75.2453  220.5371 H   0  0  0  0  0  0  0  0  0  0  0  0
  137.7290   73.4150  221.5980 C   0  0  0  0  0  0  0  0  0  0  0  0
  136.4500   73.4610  221.3310 N   0  0  0  0  0  0  0  0  0  0  0  0
  135.4780   74.4550  221.7920 C   0  0  0  0  0  0  0  0  0  0  0  0
  136.0144   75.3236  222.2017 H   0  0  0  0  0  0  0  0  0  0  0  0
  134.8526   74.7638  220.9414 H   0  0  0  0  0  0  0  0  0  0  0  0
  134.5740   73.8550  222.8850 C   0  0  0  0  0  0  0  0  0  0  0  0
  133.6671   74.4737  222.9540 H   0  0  0  0  0  0  0  0  0  0  0  0
  134.3755   72.8167  222.5809 H   0  0  0  0  0  0  0  0  0  0  0  0
  135.1840   73.7790  224.2410 N   0  0  0  0  0  0  0  0  0  0  0  0
  136.2130   73.7390  224.0350 H   0  0  0  0  0  0  0  0  0  0  0  0
  135.0130   75.0090  225.0570 C   0  0  0  0  0  0  0  0  0  0  0  0
  135.9348   75.1782  225.6330 H   0  0  0  0  0  0  0  0  0  0  0  0
  134.8035   75.8367  224.3634 H   0  0  0  0  0  0  0  0  0  0  0  0
  133.8340   74.9220  226.0360 C   0  0  0  0  0  0  0  0  0  0  0  0
  133.8372   75.8083  226.6875 H   0  0  0  0  0  0  0  0  0  0  0  0
  132.8958   74.8786  225.4633 H   0  0  0  0  0  0  0  0  0  0  0  0
  133.9410   73.7630  226.8280 O   0  0  0  0  0  0  0  0  0  0  0  0
  133.7640   72.6320  226.0050 C   0  0  0  0  0  0  0  0  0  0  0  0
  133.7566   71.7291  226.6332 H   0  0  0  0  0  0  0  0  0  0  0  0
  132.8104   72.7391  225.4673 H   0  0  0  0  0  0  0  0  0  0  0  0
  134.8960   72.5130  224.9690 C   0  0  0  0  0  0  0  0  0  0  0  0
  135.8115   72.1980  225.4912 H   0  0  0  0  0  0  0  0  0  0  0  0
  134.5649   71.7812  224.2175 H   0  0  0  0  0  0  0  0  0  0  0  0
  138.2020   72.3880  222.3580 N   0  0  0  0  0  0  0  0  0  0  0  0
  137.5280   71.6760  222.7240 H   0  0  0  0  0  0  0  0  0  0  0  0
  139.5490   69.8740  223.4270 C   0  0  0  0  0  0  0  0  0  0  0  0
  140.4205   69.2200  223.2763 H   0  0  0  0  0  0  0  0  0  0  0  0
  138.8741   69.7867  222.5628 H   0  0  0  0  0  0  0  0  0  0  0  0
  138.8110   69.4560  224.6970 C   0  0  0  0  0  0  0  0  0  0  0  0
  138.7054   68.3611  224.7013 H   0  0  0  0  0  0  0  0  0  0  0  0
  137.8295   69.9527  224.6964 H   0  0  0  0  0  0  0  0  0  0  0  0
  1  2  1  0
  2  3  2  0
  3  4  1  0
  3  5  1  0
  5  6  1  0
  5  7  2  0
  7  8  1  0
  8  9  2  0
  9 10  1  0
  8 11  1  0
 11 12  1  0
 11 13  1  0
 11 14  1  0
 14 15  1  0
 15 16  2  0
 16 17  1  0
 17 18  1  0
 18 19  1  0
 19 20  1  0
 19 21  1  0
 19 22  1  0
 22 23  1  0
 22 24  1  0
 22 25  1  0
 25 26  1  0
 25 27  1  0
 25 28  1  0
 28 29  1  0
 28 30  1  0
 28 31  1  0
 31 32  1  0
 31 33  1  0
 17 34  2  0
 34 35  1  0
 34 36  1  0
 36 37  2  0
 37 38  1  0
 38 39  1  0
 38 40  1  0
 38 41  1  0
 41 42  1  0
 41 43  1  0
 41 44  1  0
 44 45  1  0
 44 46  1  0
 46 47  1  0
 46 48  1  0
 46 49  1  0
 49 50  1  0
 49 51  1  0
 49 52  1  0
 52 53  1  0
 53 54  1  0
 53 55  1  0
 53 56  1  0
 56 57  1  0
 56 58  1  0
 36 59  1  0
 59 60  1  0
 14 61  1  0
 61 62  1  0
 61 63  1  0
 61 64  1  0
 64 65  1  0
 64 66  1  0
  9  2  1  0
 59 15  1  0
 64  7  1  0
 31 18  1  0
 56 44  1  0
M  CHG  2  25   1  44   1
M  END
>  <UniqueID>  (38) 
485

>  <SMILES>  (38) 
c1ccc2c(c1)CCN(c1nc(N3CC[NH2+]CC3)c/c(=N\CC[NH+]3CCOCC3)[nH]1)C2

>  <Energy>  (38) 
88.44114188630586

>  <Genealogy>  (38) 
c1ccc2c(c1)CCN(c1nc(NCC[NH+]3CCOCC3)cc(N3CC[NH2+]CC3)n1)C2 (protonated)
c1ccc2c(c1)CCN(c1nc(N3CC[NH2+]CC3)cc(=NCC[NH+]3CCOCC3)[nH]1)C2 (tautomer)
c1ccc2c(c1)CCN(c1nc(N3CC[NH2+]CC3)c/c(=N\CC[NH+]3CCOCC3)[nH]1)C2 (cis-trans isomerization)
c1ccc2c(c1)CCN(c1nc(N3CC[NH2+]CC3)c/c(=N\CC[NH+]3CCOCC3)[nH]1)C2 (3D coordinates assigned)
c1ccc2c(c1)CCN(c1nc(N3CC[NH2+]CC3)c/c(=N\CC[NH+]3CCOCC3)[nH]1)C2 (nonaromatic ring conformer: 88.44114188630586 kcal/mol)

>  <smiles>  (38) 
c1ccc2c(c1)CCN(c1nc(NCCN3CCOCC3)cc(N3CCNCC3)n1)C2

>  <score_type>  (38) 
oracle

>  <origin>  (38) 
autodockgpu

>  <m_score__min__energy>  (38) 
-9.1799999999999997

>  <m_primary>  (38) 
energy

>  <meeko>  (38) 
{"free_energy": -8.78, "intermolecular_energy": -10.57, "internal_energy": -0.92, "cluster_size": 20, "cluster_id": 1, "rank_in_cluster": 6}

>  <energy>  (38) 
-8.29

>  <cluster_rmsd>  (38) 
0.7

>  <rmsd>  (38) 
271.65

>  <cluster>  (38) 
1

$$$$
DRRGDEWGQQLPRW-CXKBQSNCNA-P
     RDKit          3D

 66 70  0  0  0  0  0  0  0  0999 V2000
  141.2185   70.9285  229.2951 H   0  0  0  0  0  0  0  0  0  0  0  0
  140.7540   70.6260  228.3450 C   0  0  0  0  0  0  0  0  0  0  0  0
  139.8060   69.6010  228.3290 C   0  0  0  0  0  0  0  0  0  0  0  0
  139.5287   69.0936  229.2648 H   0  0  0  0  0  0  0  0  0  0  0  0
  139.2100   69.2200  227.1250 C   0  0  0  0  0  0  0  0  0  0  0  0
  138.4611   68.4143  227.1184 H   0  0  0  0  0  0  0  0  0  0  0  0
  139.5580   69.8560  225.9230 C   0  0  0  0  0  0  0  0  0  0  0  0
  140.5140   70.9020  225.9430 C   0  0  0  0  0  0  0  0  0  0  0  0
  141.1140   71.2680  227.1590 C   0  0  0  0  0  0  0  0  0  0  0  0
  141.8719   72.0651  227.1768 H   0  0  0  0  0  0  0  0  0  0  0  0
  140.9510   71.5900  224.6720 C   0  0  0  0  0  0  0  0  0  0  0  0
  141.9428   71.2139  224.3805 H   0  0  0  0  0  0  0  0  0  0  0  0
  140.9919   72.6742  224.8530 H   0  0  0  0  0  0  0  0  0  0  0  0
  140.0000   71.3290  223.5880 N   0  0  0  0  0  0  0  0  0  0  0  0
  139.5240   72.4060  222.7630 C   0  0  0  0  0  0  0  0  0  0  0  0
  140.4060   73.3230  222.2910 N   0  0  0  0  0  0  0  0  0  0  0  0
  140.0110   74.3950  221.5550 C   0  0  0  0  0  0  0  0  0  0  0  0
  141.0020   75.3440  221.0870 N   0  0  0  0  0  0  0  0  0  0  0  0
  140.9800   76.7500  221.5300 C   0  0  0  0  0  0  0  0  0  0  0  0
  139.9360   77.0609  221.6828 H   0  0  0  0  0  0  0  0  0  0  0  0
  141.5510   76.8270  222.4670 H   0  0  0  0  0  0  0  0  0  0  0  0
  141.6300   77.6750  220.4900 C   0  0  0  0  0  0  0  0  0  0  0  0
  140.9649   77.7549  219.6175 H   0  0  0  0  0  0  0  0  0  0  0  0
  141.7870   78.6597  220.9544 H   0  0  0  0  0  0  0  0  0  0  0  0
  142.9330   77.1600  220.0510 N   0  0  0  0  0  0  0  0  0  0  0  0
  143.5980   77.1150  220.8570 H   0  0  0  0  0  0  0  0  0  0  0  0
  143.3260   77.8110  219.3310 H   0  0  0  0  0  0  0  0  0  0  0  0
  142.7860   75.8310  219.4460 C   0  0  0  0  0  0  0  0  0  0  0  0
  142.0938   75.8969  218.5936 H   0  0  0  0  0  0  0  0  0  0  0  0
  143.7743   75.4846  219.1094 H   0  0  0  0  0  0  0  0  0  0  0  0
  142.2350   74.8310  220.4640 C   0  0  0  0  0  0  0  0  0  0  0  0
  142.0134   73.8821  219.9537 H   0  0  0  0  0  0  0  0  0  0  0  0
  142.9890   74.6762  221.2498 H   0  0  0  0  0  0  0  0  0  0  0  0
  138.6410   74.5680  221.3010 C   0  0  0  0  0  0  0  0  0  0  0  0
  138.2863   75.4384  220.7296 H   0  0  0  0  0  0  0  0  0  0  0  0
  137.7260   73.6130  221.7870 C   0  0  0  0  0  0  0  0  0  0  0  0
  136.4370   73.7180  221.5910 N   0  0  0  0  0  0  0  0  0  0  0  0
  135.6470   74.9470  221.4970 C   0  0  0  0  0  0  0  0  0  0  0  0
  136.3246   75.8046  221.3732 H   0  0  0  0  0  0  0  0  0  0  0  0
  134.9710   74.8708  220.6326 H   0  0  0  0  0  0  0  0  0  0  0  0
  134.8060   75.1450  222.7720 C   0  0  0  0  0  0  0  0  0  0  0  0
  134.7702   76.2221  222.9923 H   0  0  0  0  0  0  0  0  0  0  0  0
  133.8196   74.7075  222.5584 H   0  0  0  0  0  0  0  0  0  0  0  0
  135.3160   74.4440  223.9820 N   0  0  0  0  0  0  0  0  0  0  0  0
  136.3040   74.2060  223.7190 H   0  0  0  0  0  0  0  0  0  0  0  0
  135.4460   75.3110  225.1820 C   0  0  0  0  0  0  0  0  0  0  0  0
  136.3538   75.0177  225.7296 H   0  0  0  0  0  0  0  0  0  0  0  0
  135.4962   76.3524  224.8315 H   0  0  0  0  0  0  0  0  0  0  0  0
  134.2460   75.2040  226.1320 C   0  0  0  0  0  0  0  0  0  0  0  0
  134.4573   75.7742  227.0486 H   0  0  0  0  0  0  0  0  0  0  0  0
  133.3560   75.6116  225.6303 H   0  0  0  0  0  0  0  0  0  0  0  0
  134.0050   73.8580  226.4680 O   0  0  0  0  0  0  0  0  0  0  0  0
  133.5670   73.1750  225.3140 C   0  0  0  0  0  0  0  0  0  0  0  0
  133.2907   72.1465  225.5894 H   0  0  0  0  0  0  0  0  0  0  0  0
  132.7013   73.7124  224.8997 H   0  0  0  0  0  0  0  0  0  0  0  0
  134.6690   73.1280  224.2410 C   0  0  0  0  0  0  0  0  0  0  0  0
  135.4437   72.4203  224.5710 H   0  0  0  0  0  0  0  0  0  0  0  0
  134.1870   72.8190  223.3018 H   0  0  0  0  0  0  0  0  0  0  0  0
  138.1940   72.5530  222.5030 N   0  0  0  0  0  0  0  0  0  0  0  0
  137.5110   71.8630  222.8940 H   0  0  0  0  0  0  0  0  0  0  0  0
  139.5490   69.9500  223.4010 C   0  0  0  0  0  0  0  0  0  0  0  0
  140.4181   69.3001  223.2212 H   0  0  0  0  0  0  0  0  0  0  0  0
  138.8703   69.8978  222.5369 H   0  0  0  0  0  0  0  0  0  0  0  0
  138.8150   69.4850  224.6580 C   0  0  0  0  0  0  0  0  0  0  0  0
  138.7045   68.3912  224.6197 H   0  0  0  0  0  0  0  0  0  0  0  0
  137.8356   69.9853  224.6821 H   0  0  0  0  0  0  0  0  0  0  0  0
  1  2  1  0
  2  3  2  0
  3  4  1  0
  3  5  1  0
  5  6  1  0
  5  7  2  0
  7  8  1  0
  8  9  2  0
  9 10  1  0
  8 11  1  0
 11 12  1  0
 11 13  1  0
 11 14  1  0
 14 15  1  0
 15 16  2  0
 16 17  1  0
 17 18  1  0
 18 19  1  0
 19 20  1  0
 19 21  1  0
 19 22  1  0
 22 23  1  0
 22 24  1  0
 22 25  1  0
 25 26  1  0
 25 27  1  0
 25 28  1  0
 28 29  1  0
 28 30  1  0
 28 31  1  0
 31 32  1  0
 31 33  1  0
 17 34  2  0
 34 35  1  0
 34 36  1  0
 36 37  2  0
 37 38  1  0
 38 39  1  0
 38 40  1  0
 38 41  1  0
 41 42  1  0
 41 43  1  0
 41 44  1  0
 44 45  1  0
 44 46  1  0
 46 47  1  0
 46 48  1  0
 46 49  1  0
 49 50  1  0
 49 51  1  0
 49 52  1  0
 52 53  1  0
 53 54  1  0
 53 55  1  0
 53 56  1  0
 56 57  1  0
 56 58  1  0
 36 59  1  0
 59 60  1  0
 14 61  1  0
 61 62  1  0
 61 63  1  0
 61 64  1  0
 64 65  1  0
 64 66  1  0
  9  2  1  0
 59 15  1  0
 64  7  1  0
 31 18  1  0
 56 44  1  0
M  CHG  2  25   1  44   1
M  END
>  <UniqueID>  (39) 
485

>  <SMILES>  (39) 
c1ccc2c(c1)CCN(c1nc(N3CC[NH2+]CC3)c/c(=N\CC[NH+]3CCOCC3)[nH]1)C2

>  <Energy>  (39) 
88.44114188630586

>  <Genealogy>  (39) 
c1ccc2c(c1)CCN(c1nc(NCC[NH+]3CCOCC3)cc(N3CC[NH2+]CC3)n1)C2 (protonated)
c1ccc2c(c1)CCN(c1nc(N3CC[NH2+]CC3)cc(=NCC[NH+]3CCOCC3)[nH]1)C2 (tautomer)
c1ccc2c(c1)CCN(c1nc(N3CC[NH2+]CC3)c/c(=N\CC[NH+]3CCOCC3)[nH]1)C2 (cis-trans isomerization)
c1ccc2c(c1)CCN(c1nc(N3CC[NH2+]CC3)c/c(=N\CC[NH+]3CCOCC3)[nH]1)C2 (3D coordinates assigned)
c1ccc2c(c1)CCN(c1nc(N3CC[NH2+]CC3)c/c(=N\CC[NH+]3CCOCC3)[nH]1)C2 (nonaromatic ring conformer: 88.44114188630586 kcal/mol)

>  <smiles>  (39) 
c1ccc2c(c1)CCN(c1nc(NCCN3CCOCC3)cc(N3CCNCC3)n1)C2

>  <score_type>  (39) 
oracle

>  <origin>  (39) 
autodockgpu

>  <m_score__min__energy>  (39) 
-9.1799999999999997

>  <m_primary>  (39) 
energy

>  <meeko>  (39) 
{"free_energy": -8.81, "intermolecular_energy": -10.6, "internal_energy": -1.46, "cluster_size": 20, "cluster_id": 1, "rank_in_cluster": 5}

>  <energy>  (39) 
-8.28

>  <cluster_rmsd>  (39) 
0.7

>  <rmsd>  (39) 
271.66

>  <cluster>  (39) 
1

$$$$
DRRGDEWGQQLPRW-CXKBQSNCNA-P
     RDKit          3D

 66 70  0  0  0  0  0  0  0  0999 V2000
  141.2110   71.0196  229.2534 H   0  0  0  0  0  0  0  0  0  0  0  0
  140.7370   70.6790  228.3210 C   0  0  0  0  0  0  0  0  0  0  0  0
  139.8140   69.6320  228.3510 C   0  0  0  0  0  0  0  0  0  0  0  0
  139.5656   69.1455  229.3058 H   0  0  0  0  0  0  0  0  0  0  0  0
  139.2060   69.2020  227.1700 C   0  0  0  0  0  0  0  0  0  0  0  0
  138.4769   68.3789  227.2005 H   0  0  0  0  0  0  0  0  0  0  0  0
  139.5170   69.8110  225.9440 C   0  0  0  0  0  0  0  0  0  0  0  0
  140.4480   70.8800  225.9160 C   0  0  0  0  0  0  0  0  0  0  0  0
  141.0600   71.2950  227.1100 C   0  0  0  0  0  0  0  0  0  0  0  0
  141.7983   72.1102  227.0912 H   0  0  0  0  0  0  0  0  0  0  0  0
  140.8450   71.5410  224.6180 C   0  0  0  0  0  0  0  0  0  0  0  0
  141.8406   71.1811  224.3193 H   0  0  0  0  0  0  0  0  0  0  0  0
  140.8618   72.6308  224.7668 H   0  0  0  0  0  0  0  0  0  0  0  0
  139.8820   71.2250  223.5600 N   0  0  0  0  0  0  0  0  0  0  0  0
  139.3640   72.2660  222.7130 C   0  0  0  0  0  0  0  0  0  0  0  0
  140.1720   73.2970  222.3570 N   0  0  0  0  0  0  0  0  0  0  0  0
  139.7260   74.3400  221.6070 C   0  0  0  0  0  0  0  0  0  0  0  0
  140.6370   75.4140  221.2660 N   0  0  0  0  0  0  0  0  0  0  0  0
  140.5820   76.7110  221.9660 C   0  0  0  0  0  0  0  0  0  0  0  0
  139.5382   76.9272  222.2374 H   0  0  0  0  0  0  0  0  0  0  0  0
  141.2137   76.6465  222.8643 H   0  0  0  0  0  0  0  0  0  0  0  0
  141.1140   77.8480  221.0820 C   0  0  0  0  0  0  0  0  0  0  0  0
  140.3860   78.0496  220.2824 H   0  0  0  0  0  0  0  0  0  0  0  0
  141.2586   78.7371  221.7133 H   0  0  0  0  0  0  0  0  0  0  0  0
  142.4050   77.4990  220.4750 N   0  0  0  0  0  0  0  0  0  0  0  0
  143.1270   77.3450  221.2170 H   0  0  0  0  0  0  0  0  0  0  0  0
  142.7160   78.2940  219.8680 H   0  0  0  0  0  0  0  0  0  0  0  0
  142.2770   76.2990  219.6410 C   0  0  0  0  0  0  0  0  0  0  0  0
  141.5244   76.4808  218.8596 H   0  0  0  0  0  0  0  0  0  0  0  0
  143.2538   76.0786  219.1858 H   0  0  0  0  0  0  0  0  0  0  0  0
  141.8450   75.0980  220.4850 C   0  0  0  0  0  0  0  0  0  0  0  0
  141.6322   74.2480  219.8200 H   0  0  0  0  0  0  0  0  0  0  0  0
  142.6585   74.8458  221.1811 H   0  0  0  0  0  0  0  0  0  0  0  0
  138.3790   74.3580  221.2140 C   0  0  0  0  0  0  0  0  0  0  0  0
  137.9814   75.1991  220.6271 H   0  0  0  0  0  0  0  0  0  0  0  0
  137.5410   73.2840  221.5810 C   0  0  0  0  0  0  0  0  0  0  0  0
  136.2760   73.2430  221.2530 N   0  0  0  0  0  0  0  0  0  0  0  0
  135.1200   73.3430  222.1460 C   0  0  0  0  0  0  0  0  0  0  0  0
  134.2102   73.4917  221.5459 H   0  0  0  0  0  0  0  0  0  0  0  0
  135.0393   72.4148  222.7308 H   0  0  0  0  0  0  0  0  0  0  0  0
  135.2900   74.5300  223.1130 C   0  0  0  0  0  0  0  0  0  0  0  0
  136.1715   75.1054  222.7939 H   0  0  0  0  0  0  0  0  0  0  0  0
  134.3511   75.1010  223.0635 H   0  0  0  0  0  0  0  0  0  0  0  0
  135.4740   74.1610  224.5430 N   0  0  0  0  0  0  0  0  0  0  0  0
  136.4980   73.9380  224.6000 H   0  0  0  0  0  0  0  0  0  0  0  0
  135.2830   75.2870  225.4940 C   0  0  0  0  0  0  0  0  0  0  0  0
  136.0203   75.1900  226.3046 H   0  0  0  0  0  0  0  0  0  0  0  0
  135.4148   76.2212  224.9283 H   0  0  0  0  0  0  0  0  0  0  0  0
  133.8780   75.3190  226.1120 C   0  0  0  0  0  0  0  0  0  0  0  0
  133.8412   76.0969  226.8889 H   0  0  0  0  0  0  0  0  0  0  0  0
  133.1451   75.5396  225.3219 H   0  0  0  0  0  0  0  0  0  0  0  0
  133.5680   74.0730  226.6880 O   0  0  0  0  0  0  0  0  0  0  0  0
  133.4480   73.1150  225.6590 C   0  0  0  0  0  0  0  0  0  0  0  0
  133.1169   72.1606  226.0944 H   0  0  0  0  0  0  0  0  0  0  0  0
  132.7151   73.4822  224.9255 H   0  0  0  0  0  0  0  0  0  0  0  0
  134.7910   72.8990  224.9390 C   0  0  0  0  0  0  0  0  0  0  0  0
  135.4585   72.3405  225.6117 H   0  0  0  0  0  0  0  0  0  0  0  0
  134.5708   72.3509  224.0110 H   0  0  0  0  0  0  0  0  0  0  0  0
  138.0600   72.2630  222.3180 N   0  0  0  0  0  0  0  0  0  0  0  0
  137.4290   71.4840  222.6200 H   0  0  0  0  0  0  0  0  0  0  0  0
  139.4600   69.8310  223.4210 C   0  0  0  0  0  0  0  0  0  0  0  0
  140.3407   69.1965  223.2427 H   0  0  0  0  0  0  0  0  0  0  0  0
  138.7664   69.7388  222.5722 H   0  0  0  0  0  0  0  0  0  0  0  0
  138.7610   69.3850  224.7040 C   0  0  0  0  0  0  0  0  0  0  0  0
  138.6776   68.2882  224.6992 H   0  0  0  0  0  0  0  0  0  0  0  0
  137.7700   69.8615  224.7321 H   0  0  0  0  0  0  0  0  0  0  0  0
  1  2  1  0
  2  3  2  0
  3  4  1  0
  3  5  1  0
  5  6  1  0
  5  7  2  0
  7  8  1  0
  8  9  2  0
  9 10  1  0
  8 11  1  0
 11 12  1  0
 11 13  1  0
 11 14  1  0
 14 15  1  0
 15 16  2  0
 16 17  1  0
 17 18  1  0
 18 19  1  0
 19 20  1  0
 19 21  1  0
 19 22  1  0
 22 23  1  0
 22 24  1  0
 22 25  1  0
 25 26  1  0
 25 27  1  0
 25 28  1  0
 28 29  1  0
 28 30  1  0
 28 31  1  0
 31 32  1  0
 31 33  1  0
 17 34  2  0
 34 35  1  0
 34 36  1  0
 36 37  2  0
 37 38  1  0
 38 39  1  0
 38 40  1  0
 38 41  1  0
 41 42  1  0
 41 43  1  0
 41 44  1  0
 44 45  1  0
 44 46  1  0
 46 47  1  0
 46 48  1  0
 46 49  1  0
 49 50  1  0
 49 51  1  0
 49 52  1  0
 52 53  1  0
 53 54  1  0
 53 55  1  0
 53 56  1  0
 56 57  1  0
 56 58  1  0
 36 59  1  0
 59 60  1  0
 14 61  1  0
 61 62  1  0
 61 63  1  0
 61 64  1  0
 64 65  1  0
 64 66  1  0
  9  2  1  0
 59 15  1  0
 64  7  1  0
 31 18  1  0
 56 44  1  0
M  CHG  2  25   1  44   1
M  END
>  <UniqueID>  (40) 
485

>  <SMILES>  (40) 
c1ccc2c(c1)CCN(c1nc(N3CC[NH2+]CC3)c/c(=N\CC[NH+]3CCOCC3)[nH]1)C2

>  <Energy>  (40) 
88.44114188630586

>  <Genealogy>  (40) 
c1ccc2c(c1)CCN(c1nc(NCC[NH+]3CCOCC3)cc(N3CC[NH2+]CC3)n1)C2 (protonated)
c1ccc2c(c1)CCN(c1nc(N3CC[NH2+]CC3)cc(=NCC[NH+]3CCOCC3)[nH]1)C2 (tautomer)
c1ccc2c(c1)CCN(c1nc(N3CC[NH2+]CC3)c/c(=N\CC[NH+]3CCOCC3)[nH]1)C2 (cis-trans isomerization)
c1ccc2c(c1)CCN(c1nc(N3CC[NH2+]CC3)c/c(=N\CC[NH+]3CCOCC3)[nH]1)C2 (3D coordinates assigned)
c1ccc2c(c1)CCN(c1nc(N3CC[NH2+]CC3)c/c(=N\CC[NH+]3CCOCC3)[nH]1)C2 (nonaromatic ring conformer: 88.44114188630586 kcal/mol)

>  <smiles>  (40) 
c1ccc2c(c1)CCN(c1nc(NCCN3CCOCC3)cc(N3CCNCC3)n1)C2

>  <score_type>  (40) 
oracle

>  <origin>  (40) 
autodockgpu

>  <m_score__min__energy>  (40) 
-9.1799999999999997

>  <m_primary>  (40) 
energy

>  <meeko>  (40) 
{"free_energy": -9.1, "intermolecular_energy": -10.89, "internal_energy": -0.74, "cluster_size": 20, "cluster_id": 1, "rank_in_cluster": 3}

>  <energy>  (40) 
-8.27

>  <cluster_rmsd>  (40) 
0.72

>  <rmsd>  (40) 
271.63

>  <cluster>  (40) 
1

$$$$
DRRGDEWGQQLPRW-GHPUHYOANA-N
     RDKit          3D

 64 68  0  0  0  0  0  0  0  0999 V2000
  141.5489   68.6010  228.3330 H   0  0  0  0  0  0  0  0  0  0  0  0
  140.9770   68.7660  227.4080 C   0  0  0  0  0  0  0  0  0  0  0  0
  140.1440   67.7580  226.9130 C   0  0  0  0  0  0  0  0  0  0  0  0
  140.0618   66.8004  227.4479 H   0  0  0  0  0  0  0  0  0  0  0  0
  139.4160   67.9670  225.7390 C   0  0  0  0  0  0  0  0  0  0  0  0
  138.7503   67.1783  225.3584 H   0  0  0  0  0  0  0  0  0  0  0  0
  139.5320   69.1810  225.0440 C   0  0  0  0  0  0  0  0  0  0  0  0
  140.3710   70.1940  225.5370 C   0  0  0  0  0  0  0  0  0  0  0  0
  141.0840   69.9830  226.7290 C   0  0  0  0  0  0  0  0  0  0  0  0
  141.7291   70.7788  227.1296 H   0  0  0  0  0  0  0  0  0  0  0  0
  140.4500   71.5250  224.8300 C   0  0  0  0  0  0  0  0  0  0  0  0
  141.4592   71.9390  224.9717 H   0  0  0  0  0  0  0  0  0  0  0  0
  139.6772   72.1768  225.2635 H   0  0  0  0  0  0  0  0  0  0  0  0
  140.1820   71.4200  223.3810 N   0  0  0  0  0  0  0  0  0  0  0  0
  140.6100   72.4780  222.4940 C   0  0  0  0  0  0  0  0  0  0  0  0
  141.7670   72.3370  221.7940 N   0  0  0  0  0  0  0  0  0  0  0  0
  142.2220   73.3000  220.9520 C   0  0  0  0  0  0  0  0  0  0  0  0
  143.4390   73.0820  220.2150 N   0  0  0  0  0  0  0  0  0  0  0  0
  143.4980   72.1500  219.0810 C   0  0  0  0  0  0  0  0  0  0  0  0
  142.6148   71.4947  219.1051 H   0  0  0  0  0  0  0  0  0  0  0  0
  143.5161   72.7291  218.1460 H   0  0  0  0  0  0  0  0  0  0  0  0
  144.7740   71.2850  219.1560 C   0  0  0  0  0  0  0  0  0  0  0  0
  144.5284   70.3499  219.6807 H   0  0  0  0  0  0  0  0  0  0  0  0
  145.1053   71.1136  218.1212 H   0  0  0  0  0  0  0  0  0  0  0  0
  145.8960   71.9350  219.8640 N   0  0  0  0  0  0  0  0  0  0  0  0
  145.8570   71.6680  220.8760 H   0  0  0  0  0  0  0  0  0  0  0  0
  145.8480   73.4000  219.7700 C   0  0  0  0  0  0  0  0  0  0  0  0
  146.7454   73.8230  220.2451 H   0  0  0  0  0  0  0  0  0  0  0  0
  145.8099   73.6878  218.7090 H   0  0  0  0  0  0  0  0  0  0  0  0
  144.5990   73.9420  220.4770 C   0  0  0  0  0  0  0  0  0  0  0  0
  144.7845   73.9775  221.5607 H   0  0  0  0  0  0  0  0  0  0  0  0
  144.3852   74.9502  220.0926 H   0  0  0  0  0  0  0  0  0  0  0  0
  141.4660   74.4640  220.7780 C   0  0  0  0  0  0  0  0  0  0  0  0
  141.8011   75.2487  220.0838 H   0  0  0  0  0  0  0  0  0  0  0  0
  140.2710   74.6160  221.5040 C   0  0  0  0  0  0  0  0  0  0  0  0
  139.5220   75.6820  221.4000 N   0  0  0  0  0  0  0  0  0  0  0  0
  139.6130   76.9230  222.1730 C   0  0  0  0  0  0  0  0  0  0  0  0
  139.2399   77.7562  221.5594 H   0  0  0  0  0  0  0  0  0  0  0  0
  139.0072   76.8112  223.0843 H   0  0  0  0  0  0  0  0  0  0  0  0
  141.0650   77.2150  222.5860 C   0  0  0  0  0  0  0  0  0  0  0  0
  141.3746   76.4821  223.3456 H   0  0  0  0  0  0  0  0  0  0  0  0
  141.6992   77.1430  221.6901 H   0  0  0  0  0  0  0  0  0  0  0  0
  141.2070   78.5760  223.1460 N   0  0  0  0  0  0  0  0  0  0  0  0
  140.0510   79.4330  222.7980 C   0  0  0  0  0  0  0  0  0  0  0  0
  139.8404   79.3325  221.7230 H   0  0  0  0  0  0  0  0  0  0  0  0
  139.1852   79.1095  223.3945 H   0  0  0  0  0  0  0  0  0  0  0  0
  140.3390   80.9140  223.1180 C   0  0  0  0  0  0  0  0  0  0  0  0
  140.5493   81.4508  222.1812 H   0  0  0  0  0  0  0  0  0  0  0  0
  139.4581   81.3441  223.6171 H   0  0  0  0  0  0  0  0  0  0  0  0
  141.4520   81.0350  223.9810 O   0  0  0  0  0  0  0  0  0  0  0  0
  142.6230   80.5980  223.3130 C   0  0  0  0  0  0  0  0  0  0  0  0
  142.8678   81.3213  222.5212 H   0  0  0  0  0  0  0  0  0  0  0  0
  143.4270   80.5279  224.0605 H   0  0  0  0  0  0  0  0  0  0  0  0
  142.4550   79.2030  222.6740 C   0  0  0  0  0  0  0  0  0  0  0  0
  142.4188   79.3063  221.5795 H   0  0  0  0  0  0  0  0  0  0  0  0
  143.3072   78.5701  222.9625 H   0  0  0  0  0  0  0  0  0  0  0  0
  139.8720   73.6170  222.3410 N   0  0  0  0  0  0  0  0  0  0  0  0
  138.9690   73.7300  222.8560 H   0  0  0  0  0  0  0  0  0  0  0  0
  139.5860   70.2080  222.7880 C   0  0  0  0  0  0  0  0  0  0  0  0
  140.3941   69.5546  222.4273 H   0  0  0  0  0  0  0  0  0  0  0  0
  138.9295   70.5206  221.9626 H   0  0  0  0  0  0  0  0  0  0  0  0
  138.7390   69.4340  223.7990 C   0  0  0  0  0  0  0  0  0  0  0  0
  138.4347   68.4727  223.3592 H   0  0  0  0  0  0  0  0  0  0  0  0
  137.8478   70.0268  224.0526 H   0  0  0  0  0  0  0  0  0  0  0  0
  1  2  1  0
  2  3  2  0
  3  4  1  0
  3  5  1  0
  5  6  1  0
  5  7  2  0
  7  8  1  0
  8  9  2  0
  9 10  1  0
  8 11  1  0
 11 12  1  0
 11 13  1  0
 11 14  1  0
 14 15  1  0
 15 16  2  0
 16 17  1  0
 17 18  1  0
 18 19  1  0
 19 20  1  0
 19 21  1  0
 19 22  1  0
 22 23  1  0
 22 24  1  0
 22 25  1  0
 25 26  1  0
 25 27  1  0
 27 28  1  0
 27 29  1  0
 27 30  1  0
 30 31  1  0
 30 32  1  0
 17 33  2  0
 33 34  1  0
 33 35  1  0
 35 36  2  0
 36 37  1  0
 37 38  1  0
 37 39  1  0
 37 40  1  0
 40 41  1  0
 40 42  1  0
 40 43  1  0
 43 44  1  0
 44 45  1  0
 44 46  1  0
 44 47  1  0
 47 48  1  0
 47 49  1  0
 47 50  1  0
 50 51  1  0
 51 52  1  0
 51 53  1  0
 51 54  1  0
 54 55  1  0
 54 56  1  0
 35 57  1  0
 57 58  1  0
 14 59  1  0
 59 60  1  0
 59 61  1  0
 59 62  1  0
 62 63  1  0
 62 64  1  0
  9  2  1  0
 57 15  1  0
 62  7  1  0
 30 18  1  0
 54 43  1  0
M  END
>  <UniqueID>  (41) 
486

>  <SMILES>  (41) 
c1ccc2c(c1)CCN(c1nc(N3CCNCC3)c/c(=N\CCN3CCOCC3)[nH]1)C2

>  <Energy>  (41) 
88.7815520603945

>  <Genealogy>  (41) 
c1ccc2c(c1)CCN(c1nc(N3CCNCC3)cc(=NCCN3CCOCC3)[nH]1)C2 (tautomer)
c1ccc2c(c1)CCN(c1nc(N3CCNCC3)c/c(=N\CCN3CCOCC3)[nH]1)C2 (cis-trans isomerization)
c1ccc2c(c1)CCN(c1nc(N3CCNCC3)c/c(=N\CCN3CCOCC3)[nH]1)C2 (3D coordinates assigned)
c1ccc2c(c1)CCN(c1nc(N3CCNCC3)c/c(=N\CCN3CCOCC3)[nH]1)C2 (nonaromatic ring conformer: 88.7815520603945 kcal/mol)

>  <smiles>  (41) 
c1ccc2c(c1)CCN(c1nc(NCCN3CCOCC3)cc(N3CCNCC3)n1)C2

>  <score_type>  (41) 
oracle

>  <origin>  (41) 
autodockgpu

>  <m_score__min__energy>  (41) 
-9.4499999999999993

>  <m_primary>  (41) 
energy

>  <meeko>  (41) 
{"free_energy": -9.43, "intermolecular_energy": -11.22, "internal_energy": -0.79, "cluster_size": 11, "cluster_id": 1, "rank_in_cluster": 2}

>  <energy>  (41) 
-9.45

>  <cluster_rmsd>  (41) 
0.0

>  <rmsd>  (41) 
271.01

>  <cluster>  (41) 
1

$$$$
DRRGDEWGQQLPRW-GHPUHYOANA-N
     RDKit          3D

 64 68  0  0  0  0  0  0  0  0999 V2000
  141.4067   68.5965  228.2962 H   0  0  0  0  0  0  0  0  0  0  0  0
  140.8570   68.7570  227.3570 C   0  0  0  0  0  0  0  0  0  0  0  0
  140.0450   67.7420  226.8410 C   0  0  0  0  0  0  0  0  0  0  0  0
  139.9574   66.7836  227.3737 H   0  0  0  0  0  0  0  0  0  0  0  0
  139.3450   67.9450  225.6490 C   0  0  0  0  0  0  0  0  0  0  0  0
  138.6954   67.1511  225.2520 H   0  0  0  0  0  0  0  0  0  0  0  0
  139.4690   69.1600  224.9570 C   0  0  0  0  0  0  0  0  0  0  0  0
  140.2870   70.1800  225.4710 C   0  0  0  0  0  0  0  0  0  0  0  0
  140.9710   69.9750  226.6810 C   0  0  0  0  0  0  0  0  0  0  0  0
  141.5987   70.7763  227.0980 H   0  0  0  0  0  0  0  0  0  0  0  0
  140.3730   71.5120  224.7660 C   0  0  0  0  0  0  0  0  0  0  0  0
  141.3750   71.9341  224.9327 H   0  0  0  0  0  0  0  0  0  0  0  0
  139.5848   72.1580  225.1800 H   0  0  0  0  0  0  0  0  0  0  0  0
  140.1420   71.4040  223.3110 N   0  0  0  0  0  0  0  0  0  0  0  0
  140.5850   72.4650  222.4340 C   0  0  0  0  0  0  0  0  0  0  0  0
  141.7420   72.3180  221.7360 N   0  0  0  0  0  0  0  0  0  0  0  0
  142.2090   73.2840  220.9040 C   0  0  0  0  0  0  0  0  0  0  0  0
  143.4260   73.0590  220.1680 N   0  0  0  0  0  0  0  0  0  0  0  0
  143.4910   72.0960  219.0600 C   0  0  0  0  0  0  0  0  0  0  0  0
  142.6157   71.4313  219.1064 H   0  0  0  0  0  0  0  0  0  0  0  0
  143.4980   72.6485  218.1088 H   0  0  0  0  0  0  0  0  0  0  0  0
  144.7770   71.2490  219.1540 C   0  0  0  0  0  0  0  0  0  0  0  0
  144.5447   70.3265  219.7063 H   0  0  0  0  0  0  0  0  0  0  0  0
  145.1061   71.0520  218.1230 H   0  0  0  0  0  0  0  0  0  0  0  0
  145.8940   71.9320  219.8380 N   0  0  0  0  0  0  0  0  0  0  0  0
  145.8630   71.6930  220.8580 H   0  0  0  0  0  0  0  0  0  0  0  0
  145.8300   73.3930  219.7030 C   0  0  0  0  0  0  0  0  0  0  0  0
  146.7244   73.8391  220.1624 H   0  0  0  0  0  0  0  0  0  0  0  0
  145.7855   73.6513  218.6347 H   0  0  0  0  0  0  0  0  0  0  0  0
  144.5760   73.9400  220.4010 C   0  0  0  0  0  0  0  0  0  0  0  0
  144.7655   74.0079  221.4824 H   0  0  0  0  0  0  0  0  0  0  0  0
  144.3482   74.9346  219.9899 H   0  0  0  0  0  0  0  0  0  0  0  0
  141.4660   74.4580  220.7380 C   0  0  0  0  0  0  0  0  0  0  0  0
  141.8108   75.2449  220.0510 H   0  0  0  0  0  0  0  0  0  0  0  0
  140.2720   74.6160  221.4630 C   0  0  0  0  0  0  0  0  0  0  0  0
  139.5340   75.6900  221.3670 N   0  0  0  0  0  0  0  0  0  0  0  0
  138.4590   76.1250  222.2640 C   0  0  0  0  0  0  0  0  0  0  0  0
  138.7069   75.8250  223.2929 H   0  0  0  0  0  0  0  0  0  0  0  0
  138.3653   77.2185  222.1906 H   0  0  0  0  0  0  0  0  0  0  0  0
  137.1150   75.4940  221.8680 C   0  0  0  0  0  0  0  0  0  0  0  0
  136.2990   76.0817  222.3139 H   0  0  0  0  0  0  0  0  0  0  0  0
  137.0435   75.4947  220.7703 H   0  0  0  0  0  0  0  0  0  0  0  0
  137.0130   74.0950  222.3390 N   0  0  0  0  0  0  0  0  0  0  0  0
  136.9650   73.1410  221.2090 C   0  0  0  0  0  0  0  0  0  0  0  0
  136.2303   73.4953  220.4710 H   0  0  0  0  0  0  0  0  0  0  0  0
  137.9674   73.0816  220.7598 H   0  0  0  0  0  0  0  0  0  0  0  0
  136.5590   71.7320  221.6870 C   0  0  0  0  0  0  0  0  0  0  0  0
  135.5118   71.5444  221.4073 H   0  0  0  0  0  0  0  0  0  0  0  0
  137.2214   70.9943  221.2105 H   0  0  0  0  0  0  0  0  0  0  0  0
  136.6910   71.6190  223.0890 O   0  0  0  0  0  0  0  0  0  0  0  0
  135.7610   72.4750  223.7270 C   0  0  0  0  0  0  0  0  0  0  0  0
  134.7475   72.0813  223.5603 H   0  0  0  0  0  0  0  0  0  0  0  0
  136.0134   72.5036  224.7973 H   0  0  0  0  0  0  0  0  0  0  0  0
  135.8240   73.9220  223.1920 C   0  0  0  0  0  0  0  0  0  0  0  0
  134.9195   74.1316  222.6022 H   0  0  0  0  0  0  0  0  0  0  0  0
  135.8862   74.6177  224.0418 H   0  0  0  0  0  0  0  0  0  0  0  0
  139.8590   73.6130  222.2900 N   0  0  0  0  0  0  0  0  0  0  0  0
  138.9570   73.7320  222.8030 H   0  0  0  0  0  0  0  0  0  0  0  0
  139.5720   70.1870  222.7020 C   0  0  0  0  0  0  0  0  0  0  0  0
  140.3946   69.5406  222.3621 H   0  0  0  0  0  0  0  0  0  0  0  0
  138.9347   70.4936  221.8595 H   0  0  0  0  0  0  0  0  0  0  0  0
  138.7060   69.4060  223.6920 C   0  0  0  0  0  0  0  0  0  0  0  0
  138.4211   68.4421  223.2452 H   0  0  0  0  0  0  0  0  0  0  0  0
  137.8038   69.9916  223.9226 H   0  0  0  0  0  0  0  0  0  0  0  0
  1  2  1  0
  2  3  2  0
  3  4  1  0
  3  5  1  0
  5  6  1  0
  5  7  2  0
  7  8  1  0
  8  9  2  0
  9 10  1  0
  8 11  1  0
 11 12  1  0
 11 13  1  0
 11 14  1  0
 14 15  1  0
 15 16  2  0
 16 17  1  0
 17 18  1  0
 18 19  1  0
 19 20  1  0
 19 21  1  0
 19 22  1  0
 22 23  1  0
 22 24  1  0
 22 25  1  0
 25 26  1  0
 25 27  1  0
 27 28  1  0
 27 29  1  0
 27 30  1  0
 30 31  1  0
 30 32  1  0
 17 33  2  0
 33 34  1  0
 33 35  1  0
 35 36  2  0
 36 37  1  0
 37 38  1  0
 37 39  1  0
 37 40  1  0
 40 41  1  0
 40 42  1  0
 40 43  1  0
 43 44  1  0
 44 45  1  0
 44 46  1  0
 44 47  1  0
 47 48  1  0
 47 49  1  0
 47 50  1  0
 50 51  1  0
 51 52  1  0
 51 53  1  0
 51 54  1  0
 54 55  1  0
 54 56  1  0
 35 57  1  0
 57 58  1  0
 14 59  1  0
 59 60  1  0
 59 61  1  0
 59 62  1  0
 62 63  1  0
 62 64  1  0
  9  2  1  0
 57 15  1  0
 62  7  1  0
 30 18  1  0
 54 43  1  0
M  END
>  <UniqueID>  (42) 
486

>  <SMILES>  (42) 
c1ccc2c(c1)CCN(c1nc(N3CCNCC3)c/c(=N\CCN3CCOCC3)[nH]1)C2

>  <Energy>  (42) 
88.7815520603945

>  <Genealogy>  (42) 
c1ccc2c(c1)CCN(c1nc(N3CCNCC3)cc(=NCCN3CCOCC3)[nH]1)C2 (tautomer)
c1ccc2c(c1)CCN(c1nc(N3CCNCC3)c/c(=N\CCN3CCOCC3)[nH]1)C2 (cis-trans isomerization)
c1ccc2c(c1)CCN(c1nc(N3CCNCC3)c/c(=N\CCN3CCOCC3)[nH]1)C2 (3D coordinates assigned)
c1ccc2c(c1)CCN(c1nc(N3CCNCC3)c/c(=N\CCN3CCOCC3)[nH]1)C2 (nonaromatic ring conformer: 88.7815520603945 kcal/mol)

>  <smiles>  (42) 
c1ccc2c(c1)CCN(c1nc(NCCN3CCOCC3)cc(N3CCNCC3)n1)C2

>  <score_type>  (42) 
oracle

>  <origin>  (42) 
autodockgpu

>  <m_score__min__energy>  (42) 
-9.4499999999999993

>  <m_primary>  (42) 
energy

>  <meeko>  (42) 
{"free_energy": -7.6, "intermolecular_energy": -9.39, "internal_energy": -2.28, "cluster_size": 5, "cluster_id": 4, "rank_in_cluster": 1}

>  <energy>  (42) 
-9.43

>  <cluster_rmsd>  (42) 
0.11

>  <rmsd>  (42) 
271.03

>  <cluster>  (42) 
1

$$$$
DRRGDEWGQQLPRW-GHPUHYOANA-N
     RDKit          3D

 64 68  0  0  0  0  0  0  0  0999 V2000
  141.4473   68.5234  228.2724 H   0  0  0  0  0  0  0  0  0  0  0  0
  140.8850   68.7070  227.3450 C   0  0  0  0  0  0  0  0  0  0  0  0
  140.0320   67.7210  226.8390 C   0  0  0  0  0  0  0  0  0  0  0  0
  139.9253   66.7621  227.3673 H   0  0  0  0  0  0  0  0  0  0  0  0
  139.3150   67.9540  225.6620 C   0  0  0  0  0  0  0  0  0  0  0  0
  138.6328   67.1837  225.2731 H   0  0  0  0  0  0  0  0  0  0  0  0
  139.4640   69.1700  224.9750 C   0  0  0  0  0  0  0  0  0  0  0  0
  140.3240   70.1590  225.4800 C   0  0  0  0  0  0  0  0  0  0  0  0
  141.0240   69.9240  226.6750 C   0  0  0  0  0  0  0  0  0  0  0  0
  141.6846   70.7023  227.0847 H   0  0  0  0  0  0  0  0  0  0  0  0
  140.4380   71.4930  224.7820 C   0  0  0  0  0  0  0  0  0  0  0  0
  141.4557   71.8825  224.9321 H   0  0  0  0  0  0  0  0  0  0  0  0
  139.6783   72.1600  225.2154 H   0  0  0  0  0  0  0  0  0  0  0  0
  140.1760   71.4030  223.3310 N   0  0  0  0  0  0  0  0  0  0  0  0
  140.6350   72.4560  222.4520 C   0  0  0  0  0  0  0  0  0  0  0  0
  141.7700   72.2760  221.7270 N   0  0  0  0  0  0  0  0  0  0  0  0
  142.2510   73.2320  220.8920 C   0  0  0  0  0  0  0  0  0  0  0  0
  143.4420   72.9720  220.1270 N   0  0  0  0  0  0  0  0  0  0  0  0
  143.5120   71.8720  219.1560 C   0  0  0  0  0  0  0  0  0  0  0  0
  142.6806   71.1753  219.3387 H   0  0  0  0  0  0  0  0  0  0  0  0
  143.4423   72.2903  218.1410 H   0  0  0  0  0  0  0  0  0  0  0  0
  144.8480   71.1130  219.2900 C   0  0  0  0  0  0  0  0  0  0  0  0
  144.6968   70.2627  219.9713 H   0  0  0  0  0  0  0  0  0  0  0  0
  145.1385   70.7956  218.2776 H   0  0  0  0  0  0  0  0  0  0  0  0
  145.9540   71.9390  219.8150 N   0  0  0  0  0  0  0  0  0  0  0  0
  145.9860   71.8390  220.8580 H   0  0  0  0  0  0  0  0  0  0  0  0
  145.7980   73.3630  219.4910 C   0  0  0  0  0  0  0  0  0  0  0  0
  146.6856   73.9129  219.8372 H   0  0  0  0  0  0  0  0  0  0  0  0
  145.6875   73.4714  218.4019 H   0  0  0  0  0  0  0  0  0  0  0  0
  144.5490   73.9340  220.1780 C   0  0  0  0  0  0  0  0  0  0  0  0
  144.7853   74.1569  221.2289 H   0  0  0  0  0  0  0  0  0  0  0  0
  144.2446   74.8508  219.6519 H   0  0  0  0  0  0  0  0  0  0  0  0
  141.5450   74.4320  220.7530 C   0  0  0  0  0  0  0  0  0  0  0  0
  141.9017   75.2133  220.0657 H   0  0  0  0  0  0  0  0  0  0  0  0
  140.3730   74.6240  221.5050 C   0  0  0  0  0  0  0  0  0  0  0  0
  139.6700   75.7240  221.4340 N   0  0  0  0  0  0  0  0  0  0  0  0
  138.9460   76.3990  222.5150 C   0  0  0  0  0  0  0  0  0  0  0  0
  137.9584   75.9293  222.6334 H   0  0  0  0  0  0  0  0  0  0  0  0
  139.5338   76.3045  223.4400 H   0  0  0  0  0  0  0  0  0  0  0  0
  138.7570   77.8930  222.2090 C   0  0  0  0  0  0  0  0  0  0  0  0
  138.8641   78.0524  221.1259 H   0  0  0  0  0  0  0  0  0  0  0  0
  137.7552   78.1915  222.5514 H   0  0  0  0  0  0  0  0  0  0  0  0
  139.7560   78.7220  222.9180 N   0  0  0  0  0  0  0  0  0  0  0  0
  139.6630   80.1460  222.5220 C   0  0  0  0  0  0  0  0  0  0  0  0
  139.6183   80.2116  221.4249 H   0  0  0  0  0  0  0  0  0  0  0  0
  138.7558   80.5754  222.9723 H   0  0  0  0  0  0  0  0  0  0  0  0
  140.8840   80.9430  223.0250 C   0  0  0  0  0  0  0  0  0  0  0  0
  141.5620   81.1343  222.1801 H   0  0  0  0  0  0  0  0  0  0  0  0
  140.5309   81.8910  223.4569 H   0  0  0  0  0  0  0  0  0  0  0  0
  141.5800   80.2240  224.0230 O   0  0  0  0  0  0  0  0  0  0  0  0
  142.1470   79.0550  223.4600 C   0  0  0  0  0  0  0  0  0  0  0  0
  142.9609   79.3497  222.7812 H   0  0  0  0  0  0  0  0  0  0  0  0
  142.5156   78.4311  224.2876 H   0  0  0  0  0  0  0  0  0  0  0  0
  141.1180   78.2200  222.6660 C   0  0  0  0  0  0  0  0  0  0  0  0
  141.3403   78.2949  221.5913 H   0  0  0  0  0  0  0  0  0  0  0  0
  141.1802   77.1703  222.9888 H   0  0  0  0  0  0  0  0  0  0  0  0
  139.9450   73.6290  222.3330 N   0  0  0  0  0  0  0  0  0  0  0  0
  139.0590   73.7740  222.8680 H   0  0  0  0  0  0  0  0  0  0  0  0
  139.5560   70.2090  222.7260 C   0  0  0  0  0  0  0  0  0  0  0  0
  140.3510   69.5391  222.3667 H   0  0  0  0  0  0  0  0  0  0  0  0
  138.9129   70.5417  221.8979 H   0  0  0  0  0  0  0  0  0  0  0  0
  138.6840   69.4490  223.7270 C   0  0  0  0  0  0  0  0  0  0  0  0
  138.3597   68.4979  223.2795 H   0  0  0  0  0  0  0  0  0  0  0  0
  137.8052   70.0608  223.9788 H   0  0  0  0  0  0  0  0  0  0  0  0
  1  2  1  0
  2  3  2  0
  3  4  1  0
  3  5  1  0
  5  6  1  0
  5  7  2  0
  7  8  1  0
  8  9  2  0
  9 10  1  0
  8 11  1  0
 11 12  1  0
 11 13  1  0
 11 14  1  0
 14 15  1  0
 15 16  2  0
 16 17  1  0
 17 18  1  0
 18 19  1  0
 19 20  1  0
 19 21  1  0
 19 22  1  0
 22 23  1  0
 22 24  1  0
 22 25  1  0
 25 26  1  0
 25 27  1  0
 27 28  1  0
 27 29  1  0
 27 30  1  0
 30 31  1  0
 30 32  1  0
 17 33  2  0
 33 34  1  0
 33 35  1  0
 35 36  2  0
 36 37  1  0
 37 38  1  0
 37 39  1  0
 37 40  1  0
 40 41  1  0
 40 42  1  0
 40 43  1  0
 43 44  1  0
 44 45  1  0
 44 46  1  0
 44 47  1  0
 47 48  1  0
 47 49  1  0
 47 50  1  0
 50 51  1  0
 51 52  1  0
 51 53  1  0
 51 54  1  0
 54 55  1  0
 54 56  1  0
 35 57  1  0
 57 58  1  0
 14 59  1  0
 59 60  1  0
 59 61  1  0
 59 62  1  0
 62 63  1  0
 62 64  1  0
  9  2  1  0
 57 15  1  0
 62  7  1  0
 30 18  1  0
 54 43  1  0
M  END
>  <UniqueID>  (43) 
486

>  <SMILES>  (43) 
c1ccc2c(c1)CCN(c1nc(N3CCNCC3)c/c(=N\CCN3CCOCC3)[nH]1)C2

>  <Energy>  (43) 
88.7815520603945

>  <Genealogy>  (43) 
c1ccc2c(c1)CCN(c1nc(N3CCNCC3)cc(=NCCN3CCOCC3)[nH]1)C2 (tautomer)
c1ccc2c(c1)CCN(c1nc(N3CCNCC3)c/c(=N\CCN3CCOCC3)[nH]1)C2 (cis-trans isomerization)
c1ccc2c(c1)CCN(c1nc(N3CCNCC3)c/c(=N\CCN3CCOCC3)[nH]1)C2 (3D coordinates assigned)
c1ccc2c(c1)CCN(c1nc(N3CCNCC3)c/c(=N\CCN3CCOCC3)[nH]1)C2 (nonaromatic ring conformer: 88.7815520603945 kcal/mol)

>  <smiles>  (43) 
c1ccc2c(c1)CCN(c1nc(NCCN3CCOCC3)cc(N3CCNCC3)n1)C2

>  <score_type>  (43) 
oracle

>  <origin>  (43) 
autodockgpu

>  <m_score__min__energy>  (43) 
-9.4499999999999993

>  <m_primary>  (43) 
energy

>  <meeko>  (43) 
{"free_energy": -9.08, "intermolecular_energy": -10.87, "internal_energy": -0.79, "cluster_size": 11, "cluster_id": 1, "rank_in_cluster": 11}

>  <energy>  (43) 
-9.42

>  <cluster_rmsd>  (43) 
0.3

>  <rmsd>  (43) 
271.01

>  <cluster>  (43) 
1

$$$$
DRRGDEWGQQLPRW-GHPUHYOANA-N
     RDKit          3D

 64 68  0  0  0  0  0  0  0  0999 V2000
  141.5837   68.4978  228.2620 H   0  0  0  0  0  0  0  0  0  0  0  0
  140.9440   68.7070  227.3920 C   0  0  0  0  0  0  0  0  0  0  0  0
  140.0190   67.7520  226.9600 C   0  0  0  0  0  0  0  0  0  0  0  0
  139.9326   66.7918  227.4897 H   0  0  0  0  0  0  0  0  0  0  0  0
  139.2040   68.0160  225.8560 C   0  0  0  0  0  0  0  0  0  0  0  0
  138.4669   67.2691  225.5262 H   0  0  0  0  0  0  0  0  0  0  0  0
  139.3250   69.2340  225.1670 C   0  0  0  0  0  0  0  0  0  0  0  0
  140.2560   70.1930  225.5970 C   0  0  0  0  0  0  0  0  0  0  0  0
  141.0570   69.9270  226.7200 C   0  0  0  0  0  0  0  0  0  0  0  0
  141.7758   70.6818  227.0716 H   0  0  0  0  0  0  0  0  0  0  0  0
  140.3440   71.5300  224.9010 C   0  0  0  0  0  0  0  0  0  0  0  0
  141.3820   71.8893  224.9594 H   0  0  0  0  0  0  0  0  0  0  0  0
  139.6471   72.2142  225.4073 H   0  0  0  0  0  0  0  0  0  0  0  0
  139.9470   71.4610  223.4790 N   0  0  0  0  0  0  0  0  0  0  0  0
  140.3540   72.5090  222.5700 C   0  0  0  0  0  0  0  0  0  0  0  0
  141.5500   72.4140  221.9310 N   0  0  0  0  0  0  0  0  0  0  0  0
  141.9860   73.3710  221.0720 C   0  0  0  0  0  0  0  0  0  0  0  0
  143.2480   73.2010  220.4010 N   0  0  0  0  0  0  0  0  0  0  0  0
  143.4400   72.1770  219.3660 C   0  0  0  0  0  0  0  0  0  0  0  0
  142.6202   71.4459  219.4242 H   0  0  0  0  0  0  0  0  0  0  0  0
  143.4448   72.6653  218.3803 H   0  0  0  0  0  0  0  0  0  0  0  0
  144.7850   71.4480  219.5670 C   0  0  0  0  0  0  0  0  0  0  0  0
  144.6036   70.5462  220.1702 H   0  0  0  0  0  0  0  0  0  0  0  0
  145.1747   71.2140  218.5653 H   0  0  0  0  0  0  0  0  0  0  0  0
  145.8110   72.2640  220.2470 N   0  0  0  0  0  0  0  0  0  0  0  0
  145.7540   72.0900  221.2790 H   0  0  0  0  0  0  0  0  0  0  0  0
  145.6360   73.7030  220.0100 C   0  0  0  0  0  0  0  0  0  0  0  0
  146.4701   74.2508  220.4728 H   0  0  0  0  0  0  0  0  0  0  0  0
  145.6189   73.8869  218.9256 H   0  0  0  0  0  0  0  0  0  0  0  0
  144.3120   74.1880  220.6190 C   0  0  0  0  0  0  0  0  0  0  0  0
  144.4465   74.3411  221.7000 H   0  0  0  0  0  0  0  0  0  0  0  0
  144.0239   75.1316  220.1327 H   0  0  0  0  0  0  0  0  0  0  0  0
  141.1700   74.4780  220.8150 C   0  0  0  0  0  0  0  0  0  0  0  0
  141.4898   75.2549  220.1049 H   0  0  0  0  0  0  0  0  0  0  0  0
  139.9340   74.5820  221.4790 C   0  0  0  0  0  0  0  0  0  0  0  0
  139.1270   75.5940  221.2960 N   0  0  0  0  0  0  0  0  0  0  0  0
  138.4570   76.4040  222.3180 C   0  0  0  0  0  0  0  0  0  0  0  0
  138.9784   76.2741  223.2778 H   0  0  0  0  0  0  0  0  0  0  0  0
  138.4845   77.4572  222.0018 H   0  0  0  0  0  0  0  0  0  0  0  0
  136.9880   75.9830  222.4840 C   0  0  0  0  0  0  0  0  0  0  0  0
  136.5626   76.5054  223.3536 H   0  0  0  0  0  0  0  0  0  0  0  0
  136.4469   76.2489  221.5640 H   0  0  0  0  0  0  0  0  0  0  0  0
  136.8620   74.5240  222.6910 N   0  0  0  0  0  0  0  0  0  0  0  0
  136.5600   73.8180  221.4260 C   0  0  0  0  0  0  0  0  0  0  0  0
  135.7431   74.3422  220.9084 H   0  0  0  0  0  0  0  0  0  0  0  0
  137.4685   73.8091  220.8059 H   0  0  0  0  0  0  0  0  0  0  0  0
  136.1340   72.3590  221.6910 C   0  0  0  0  0  0  0  0  0  0  0  0
  135.0441   72.2741  221.5693 H   0  0  0  0  0  0  0  0  0  0  0  0
  136.6522   71.7053  220.9739 H   0  0  0  0  0  0  0  0  0  0  0  0
  136.4860   71.9620  223.0010 O   0  0  0  0  0  0  0  0  0  0  0  0
  135.7380   72.7100  223.9430 C   0  0  0  0  0  0  0  0  0  0  0  0
  134.6848   72.3979  223.8846 H   0  0  0  0  0  0  0  0  0  0  0  0
  136.1640   72.5145  224.9381 H   0  0  0  0  0  0  0  0  0  0  0  0
  135.8180   74.2310  223.6900 C   0  0  0  0  0  0  0  0  0  0  0  0
  134.8471   74.5895  223.3175 H   0  0  0  0  0  0  0  0  0  0  0  0
  136.0683   74.7402  224.6324 H   0  0  0  0  0  0  0  0  0  0  0  0
  139.5560   73.5930  222.3360 N   0  0  0  0  0  0  0  0  0  0  0  0
  138.6240   73.6690  222.8040 H   0  0  0  0  0  0  0  0  0  0  0  0
  139.2400   70.2910  222.9260 C   0  0  0  0  0  0  0  0  0  0  0  0
  139.9789   69.6021  222.4907 H   0  0  0  0  0  0  0  0  0  0  0  0
  138.5336   70.6493  222.1627 H   0  0  0  0  0  0  0  0  0  0  0  0
  138.4420   69.5470  223.9980 C   0  0  0  0  0  0  0  0  0  0  0  0
  138.0501   68.6098  223.5760 H   0  0  0  0  0  0  0  0  0  0  0  0
  137.6085   70.1814  224.3339 H   0  0  0  0  0  0  0  0  0  0  0  0
  1  2  1  0
  2  3  2  0
  3  4  1  0
  3  5  1  0
  5  6  1  0
  5  7  2  0
  7  8  1  0
  8  9  2  0
  9 10  1  0
  8 11  1  0
 11 12  1  0
 11 13  1  0
 11 14  1  0
 14 15  1  0
 15 16  2  0
 16 17  1  0
 17 18  1  0
 18 19  1  0
 19 20  1  0
 19 21  1  0
 19 22  1  0
 22 23  1  0
 22 24  1  0
 22 25  1  0
 25 26  1  0
 25 27  1  0
 27 28  1  0
 27 29  1  0
 27 30  1  0
 30 31  1  0
 30 32  1  0
 17 33  2  0
 33 34  1  0
 33 35  1  0
 35 36  2  0
 36 37  1  0
 37 38  1  0
 37 39  1  0
 37 40  1  0
 40 41  1  0
 40 42  1  0
 40 43  1  0
 43 44  1  0
 44 45  1  0
 44 46  1  0
 44 47  1  0
 47 48  1  0
 47 49  1  0
 47 50  1  0
 50 51  1  0
 51 52  1  0
 51 53  1  0
 51 54  1  0
 54 55  1  0
 54 56  1  0
 35 57  1  0
 57 58  1  0
 14 59  1  0
 59 60  1  0
 59 61  1  0
 59 62  1  0
 62 63  1  0
 62 64  1  0
  9  2  1  0
 57 15  1  0
 62  7  1  0
 30 18  1  0
 54 43  1  0
M  END
>  <UniqueID>  (44) 
486

>  <SMILES>  (44) 
c1ccc2c(c1)CCN(c1nc(N3CCNCC3)c/c(=N\CCN3CCOCC3)[nH]1)C2

>  <Energy>  (44) 
88.7815520603945

>  <Genealogy>  (44) 
c1ccc2c(c1)CCN(c1nc(N3CCNCC3)cc(=NCCN3CCOCC3)[nH]1)C2 (tautomer)
c1ccc2c(c1)CCN(c1nc(N3CCNCC3)c/c(=N\CCN3CCOCC3)[nH]1)C2 (cis-trans isomerization)
c1ccc2c(c1)CCN(c1nc(N3CCNCC3)c/c(=N\CCN3CCOCC3)[nH]1)C2 (3D coordinates assigned)
c1ccc2c(c1)CCN(c1nc(N3CCNCC3)c/c(=N\CCN3CCOCC3)[nH]1)C2 (nonaromatic ring conformer: 88.7815520603945 kcal/mol)

>  <smiles>  (44) 
c1ccc2c(c1)CCN(c1nc(NCCN3CCOCC3)cc(N3CCNCC3)n1)C2

>  <score_type>  (44) 
oracle

>  <origin>  (44) 
autodockgpu

>  <m_score__min__energy>  (44) 
-9.4499999999999993

>  <m_primary>  (44) 
energy

>  <meeko>  (44) 
{"free_energy": -7.5, "intermolecular_energy": -9.29, "internal_energy": -2.32, "cluster_size": 5, "cluster_id": 4, "rank_in_cluster": 2}

>  <energy>  (44) 
-9.42

>  <cluster_rmsd>  (44) 
0.52

>  <rmsd>  (44) 
270.98

>  <cluster>  (44) 
1

$$$$
DRRGDEWGQQLPRW-GHPUHYOANA-N
     RDKit          3D

 64 68  0  0  0  0  0  0  0  0999 V2000
  141.5120   68.5420  228.2767 H   0  0  0  0  0  0  0  0  0  0  0  0
  140.9470   68.7210  227.3500 C   0  0  0  0  0  0  0  0  0  0  0  0
  140.1090   67.7250  226.8400 C   0  0  0  0  0  0  0  0  0  0  0  0
  140.0163   66.7625  227.3644 H   0  0  0  0  0  0  0  0  0  0  0  0
  139.3890   67.9520  225.6640 C   0  0  0  0  0  0  0  0  0  0  0  0
  138.7181   67.1732  225.2724 H   0  0  0  0  0  0  0  0  0  0  0  0
  139.5200   69.1720  224.9810 C   0  0  0  0  0  0  0  0  0  0  0  0
  140.3640   70.1720  225.4900 C   0  0  0  0  0  0  0  0  0  0  0  0
  141.0680   69.9440  226.6840 C   0  0  0  0  0  0  0  0  0  0  0  0
  141.7168   70.7307  227.0964 H   0  0  0  0  0  0  0  0  0  0  0  0
  140.4580   71.5100  224.7970 C   0  0  0  0  0  0  0  0  0  0  0  0
  141.4696   71.9143  224.9490 H   0  0  0  0  0  0  0  0  0  0  0  0
  139.6879   72.1636  225.2326 H   0  0  0  0  0  0  0  0  0  0  0  0
  140.1980   71.4220  223.3460 N   0  0  0  0  0  0  0  0  0  0  0  0
  140.6410   72.4850  222.4720 C   0  0  0  0  0  0  0  0  0  0  0  0
  141.7970   72.3380  221.7710 N   0  0  0  0  0  0  0  0  0  0  0  0
  142.2650   73.3060  220.9420 C   0  0  0  0  0  0  0  0  0  0  0  0
  143.4790   73.0810  220.2020 N   0  0  0  0  0  0  0  0  0  0  0  0
  143.5360   72.1370  219.0780 C   0  0  0  0  0  0  0  0  0  0  0  0
  142.6539   71.4807  219.1119 H   0  0  0  0  0  0  0  0  0  0  0  0
  143.5504   72.7062  218.1368 H   0  0  0  0  0  0  0  0  0  0  0  0
  144.8130   71.2750  219.1580 C   0  0  0  0  0  0  0  0  0  0  0  0
  144.5705   70.3453  219.6935 H   0  0  0  0  0  0  0  0  0  0  0  0
  145.1411   71.0929  218.1240 H   0  0  0  0  0  0  0  0  0  0  0  0
  145.9360   71.9340  219.8550 N   0  0  0  0  0  0  0  0  0  0  0  0
  145.9010   71.6770  220.8710 H   0  0  0  0  0  0  0  0  0  0  0  0
  145.8870   73.3970  219.7460 C   0  0  0  0  0  0  0  0  0  0  0  0
  146.7856   73.8256  220.2139 H   0  0  0  0  0  0  0  0  0  0  0  0
  145.8457   73.6742  218.6823 H   0  0  0  0  0  0  0  0  0  0  0  0
  144.6390   73.9450  220.4520 C   0  0  0  0  0  0  0  0  0  0  0  0
  144.8279   73.9913  221.5347 H   0  0  0  0  0  0  0  0  0  0  0  0
  144.4229   74.9492  220.0585 H   0  0  0  0  0  0  0  0  0  0  0  0
  141.5230   74.4810  220.7810 C   0  0  0  0  0  0  0  0  0  0  0  0
  141.8678   75.2695  220.0959 H   0  0  0  0  0  0  0  0  0  0  0  0
  140.3300   74.6390  221.5080 C   0  0  0  0  0  0  0  0  0  0  0  0
  139.5940   75.7150  221.4160 N   0  0  0  0  0  0  0  0  0  0  0  0
  139.5980   76.8840  222.3000 C   0  0  0  0  0  0  0  0  0  0  0  0
  139.0751   77.7131  221.8009 H   0  0  0  0  0  0  0  0  0  0  0  0
  139.0901   76.6136  223.2375 H   0  0  0  0  0  0  0  0  0  0  0  0
  141.0330   77.3240  222.6330 C   0  0  0  0  0  0  0  0  0  0  0  0
  141.3236   76.8918  223.6019 H   0  0  0  0  0  0  0  0  0  0  0  0
  141.6975   76.9698  221.8311 H   0  0  0  0  0  0  0  0  0  0  0  0
  141.1440   78.7970  222.7110 N   0  0  0  0  0  0  0  0  0  0  0  0
  141.4390   79.3920  221.3880 C   0  0  0  0  0  0  0  0  0  0  0  0
  142.2612   78.8326  220.9178 H   0  0  0  0  0  0  0  0  0  0  0  0
  140.5307   79.3370  220.7699 H   0  0  0  0  0  0  0  0  0  0  0  0
  141.8500   80.8720  221.5240 C   0  0  0  0  0  0  0  0  0  0  0  0
  142.9390   80.9568  221.3939 H   0  0  0  0  0  0  0  0  0  0  0  0
  141.3245   81.4550  220.7533 H   0  0  0  0  0  0  0  0  0  0  0  0
  141.4950   81.3790  222.7940 O   0  0  0  0  0  0  0  0  0  0  0  0
  142.2510   80.7240  223.7970 C   0  0  0  0  0  0  0  0  0  0  0  0
  143.3011   81.0396  223.7094 H   0  0  0  0  0  0  0  0  0  0  0  0
  141.8243   81.0025  224.7719 H   0  0  0  0  0  0  0  0  0  0  0  0
  142.1850   79.1860  223.6790 C   0  0  0  0  0  0  0  0  0  0  0  0
  143.1591   78.8050  223.3386 H   0  0  0  0  0  0  0  0  0  0  0  0
  141.9396   78.7594  224.6628 H   0  0  0  0  0  0  0  0  0  0  0  0
  139.9170   73.6350  222.3320 N   0  0  0  0  0  0  0  0  0  0  0  0
  139.0160   73.7530  222.8480 H   0  0  0  0  0  0  0  0  0  0  0  0
  139.5970   70.2200  222.7360 C   0  0  0  0  0  0  0  0  0  0  0  0
  140.4026   69.5640  222.3746 H   0  0  0  0  0  0  0  0  0  0  0  0
  138.9491   70.5453  221.9087 H   0  0  0  0  0  0  0  0  0  0  0  0
  138.7370   69.4430  223.7340 C   0  0  0  0  0  0  0  0  0  0  0  0
  138.4279   68.4885  223.2830 H   0  0  0  0  0  0  0  0  0  0  0  0
  137.8487   70.0402  223.9875 H   0  0  0  0  0  0  0  0  0  0  0  0
  1  2  1  0
  2  3  2  0
  3  4  1  0
  3  5  1  0
  5  6  1  0
  5  7  2  0
  7  8  1  0
  8  9  2  0
  9 10  1  0
  8 11  1  0
 11 12  1  0
 11 13  1  0
 11 14  1  0
 14 15  1  0
 15 16  2  0
 16 17  1  0
 17 18  1  0
 18 19  1  0
 19 20  1  0
 19 21  1  0
 19 22  1  0
 22 23  1  0
 22 24  1  0
 22 25  1  0
 25 26  1  0
 25 27  1  0
 27 28  1  0
 27 29  1  0
 27 30  1  0
 30 31  1  0
 30 32  1  0
 17 33  2  0
 33 34  1  0
 33 35  1  0
 35 36  2  0
 36 37  1  0
 37 38  1  0
 37 39  1  0
 37 40  1  0
 40 41  1  0
 40 42  1  0
 40 43  1  0
 43 44  1  0
 44 45  1  0
 44 46  1  0
 44 47  1  0
 47 48  1  0
 47 49  1  0
 47 50  1  0
 50 51  1  0
 51 52  1  0
 51 53  1  0
 51 54  1  0
 54 55  1  0
 54 56  1  0
 35 57  1  0
 57 58  1  0
 14 59  1  0
 59 60  1  0
 59 61  1  0
 59 62  1  0
 62 63  1  0
 62 64  1  0
  9  2  1  0
 57 15  1  0
 62  7  1  0
 30 18  1  0
 54 43  1  0
M  END
>  <UniqueID>  (45) 
486

>  <SMILES>  (45) 
c1ccc2c(c1)CCN(c1nc(N3CCNCC3)c/c(=N\CCN3CCOCC3)[nH]1)C2

>  <Energy>  (45) 
88.7815520603945

>  <Genealogy>  (45) 
c1ccc2c(c1)CCN(c1nc(N3CCNCC3)cc(=NCCN3CCOCC3)[nH]1)C2 (tautomer)
c1ccc2c(c1)CCN(c1nc(N3CCNCC3)c/c(=N\CCN3CCOCC3)[nH]1)C2 (cis-trans isomerization)
c1ccc2c(c1)CCN(c1nc(N3CCNCC3)c/c(=N\CCN3CCOCC3)[nH]1)C2 (3D coordinates assigned)
c1ccc2c(c1)CCN(c1nc(N3CCNCC3)c/c(=N\CCN3CCOCC3)[nH]1)C2 (nonaromatic ring conformer: 88.7815520603945 kcal/mol)

>  <smiles>  (45) 
c1ccc2c(c1)CCN(c1nc(NCCN3CCOCC3)cc(N3CCNCC3)n1)C2

>  <score_type>  (45) 
oracle

>  <origin>  (45) 
autodockgpu

>  <m_score__min__energy>  (45) 
-9.4499999999999993

>  <m_primary>  (45) 
energy

>  <meeko>  (45) 
{"free_energy": -9.42, "intermolecular_energy": -11.21, "internal_energy": -0.8, "cluster_size": 11, "cluster_id": 1, "rank_in_cluster": 4}

>  <energy>  (45) 
-9.41

>  <cluster_rmsd>  (45) 
0.28

>  <rmsd>  (45) 
271.0

>  <cluster>  (45) 
1

$$$$
DRRGDEWGQQLPRW-GHPUHYOANA-N
     RDKit          3D

 64 68  0  0  0  0  0  0  0  0999 V2000
  141.5891   69.0053  228.7581 H   0  0  0  0  0  0  0  0  0  0  0  0
  141.0120   69.0310  227.8220 C   0  0  0  0  0  0  0  0  0  0  0  0
  140.3050   67.8990  227.4070 C   0  0  0  0  0  0  0  0  0  0  0  0
  140.3275   66.9831  228.0158 H   0  0  0  0  0  0  0  0  0  0  0  0
  139.5700   67.9300  226.2200 C   0  0  0  0  0  0  0  0  0  0  0  0
  139.0022   67.0428  225.9030 H   0  0  0  0  0  0  0  0  0  0  0  0
  139.5540   69.0910  225.4300 C   0  0  0  0  0  0  0  0  0  0  0  0
  140.2680   70.2290  225.8430 C   0  0  0  0  0  0  0  0  0  0  0  0
  140.9870   70.1950  227.0500 C   0  0  0  0  0  0  0  0  0  0  0  0
  141.5323   71.0885  227.3882 H   0  0  0  0  0  0  0  0  0  0  0  0
  140.2010   71.5010  225.0330 C   0  0  0  0  0  0  0  0  0  0  0  0
  141.1545   72.0384  225.1428 H   0  0  0  0  0  0  0  0  0  0  0  0
  139.3542   72.0917  225.4126 H   0  0  0  0  0  0  0  0  0  0  0  0
  139.9620   71.2520  223.5970 N   0  0  0  0  0  0  0  0  0  0  0  0
  140.2770   72.2790  222.6290 C   0  0  0  0  0  0  0  0  0  0  0  0
  141.4710   72.2430  221.9790 N   0  0  0  0  0  0  0  0  0  0  0  0
  141.8220   73.1840  221.0660 C   0  0  0  0  0  0  0  0  0  0  0  0
  143.0870   73.0770  220.3870 N   0  0  0  0  0  0  0  0  0  0  0  0
  143.3150   72.0820  219.3320 C   0  0  0  0  0  0  0  0  0  0  0  0
  142.5251   71.3179  219.3788 H   0  0  0  0  0  0  0  0  0  0  0  0
  143.2963   72.5891  218.3560 H   0  0  0  0  0  0  0  0  0  0  0  0
  144.6890   71.4030  219.5140 C   0  0  0  0  0  0  0  0  0  0  0  0
  144.5462   70.4837  220.1009 H   0  0  0  0  0  0  0  0  0  0  0  0
  145.0829   71.2033  218.5066 H   0  0  0  0  0  0  0  0  0  0  0  0
  145.6850   72.2460  220.2050 N   0  0  0  0  0  0  0  0  0  0  0  0
  145.6400   72.0500  221.2340 H   0  0  0  0  0  0  0  0  0  0  0  0
  145.4510   73.6810  219.9970 C   0  0  0  0  0  0  0  0  0  0  0  0
  146.2649   74.2527  220.4669 H   0  0  0  0  0  0  0  0  0  0  0  0
  145.4208   73.8845  218.9164 H   0  0  0  0  0  0  0  0  0  0  0  0
  144.1130   74.1010  220.6200 C   0  0  0  0  0  0  0  0  0  0  0  0
  144.2465   74.2383  221.7032 H   0  0  0  0  0  0  0  0  0  0  0  0
  143.7857   75.0417  220.1531 H   0  0  0  0  0  0  0  0  0  0  0  0
  140.9200   74.2100  220.7640 C   0  0  0  0  0  0  0  0  0  0  0  0
  141.1718   74.9708  220.0105 H   0  0  0  0  0  0  0  0  0  0  0  0
  139.6870   74.2540  221.4380 C   0  0  0  0  0  0  0  0  0  0  0  0
  138.8020   75.1890  221.2150 N   0  0  0  0  0  0  0  0  0  0  0  0
  137.8010   75.2410  220.1450 C   0  0  0  0  0  0  0  0  0  0  0  0
  137.6209   76.2915  219.8730 H   0  0  0  0  0  0  0  0  0  0  0  0
  138.1843   74.6769  219.2819 H   0  0  0  0  0  0  0  0  0  0  0  0
  136.4760   74.6050  220.5920 C   0  0  0  0  0  0  0  0  0  0  0  0
  135.7921   75.4000  220.9241 H   0  0  0  0  0  0  0  0  0  0  0  0
  136.0524   74.0548  219.7389 H   0  0  0  0  0  0  0  0  0  0  0  0
  136.6800   73.6510  221.7040 N   0  0  0  0  0  0  0  0  0  0  0  0
  136.7240   72.2520  221.2220 C   0  0  0  0  0  0  0  0  0  0  0  0
  135.8786   72.0806  220.5394 H   0  0  0  0  0  0  0  0  0  0  0  0
  137.6800   72.0920  220.7020 H   0  0  0  0  0  0  0  0  0  0  0  0
  136.6330   71.2560  222.3960 C   0  0  0  0  0  0  0  0  0  0  0  0
  135.6214   70.8250  222.4251 H   0  0  0  0  0  0  0  0  0  0  0  0
  137.3830   70.4656  222.2454 H   0  0  0  0  0  0  0  0  0  0  0  0
  136.8970   71.9010  223.6260 O   0  0  0  0  0  0  0  0  0  0  0  0
  135.8750   72.8430  223.8990 C   0  0  0  0  0  0  0  0  0  0  0  0
  134.9449   72.2994  224.1213 H   0  0  0  0  0  0  0  0  0  0  0  0
  136.2029   73.4522  224.7542 H   0  0  0  0  0  0  0  0  0  0  0  0
  135.6180   73.7990  222.7150 C   0  0  0  0  0  0  0  0  0  0  0  0
  134.6459   73.5601  222.2590 H   0  0  0  0  0  0  0  0  0  0  0  0
  135.6142   74.8354  223.0837 H   0  0  0  0  0  0  0  0  0  0  0  0
  139.3950   73.2840  222.3510 N   0  0  0  0  0  0  0  0  0  0  0  0
  138.4650   73.3130  222.8270 H   0  0  0  0  0  0  0  0  0  0  0  0
  139.5160   69.9370  223.1000 C   0  0  0  0  0  0  0  0  0  0  0  0
  140.3977   69.3545  222.7946 H   0  0  0  0  0  0  0  0  0  0  0  0
  138.8383   70.1057  222.2501 H   0  0  0  0  0  0  0  0  0  0  0  0
  138.7510   69.1530  224.1680 C   0  0  0  0  0  0  0  0  0  0  0  0
  138.5626   68.1317  223.8054 H   0  0  0  0  0  0  0  0  0  0  0  0
  137.7954   69.6582  224.3721 H   0  0  0  0  0  0  0  0  0  0  0  0
  1  2  1  0
  2  3  2  0
  3  4  1  0
  3  5  1  0
  5  6  1  0
  5  7  2  0
  7  8  1  0
  8  9  2  0
  9 10  1  0
  8 11  1  0
 11 12  1  0
 11 13  1  0
 11 14  1  0
 14 15  1  0
 15 16  2  0
 16 17  1  0
 17 18  1  0
 18 19  1  0
 19 20  1  0
 19 21  1  0
 19 22  1  0
 22 23  1  0
 22 24  1  0
 22 25  1  0
 25 26  1  0
 25 27  1  0
 27 28  1  0
 27 29  1  0
 27 30  1  0
 30 31  1  0
 30 32  1  0
 17 33  2  0
 33 34  1  0
 33 35  1  0
 35 36  2  0
 36 37  1  0
 37 38  1  0
 37 39  1  0
 37 40  1  0
 40 41  1  0
 40 42  1  0
 40 43  1  0
 43 44  1  0
 44 45  1  0
 44 46  1  0
 44 47  1  0
 47 48  1  0
 47 49  1  0
 47 50  1  0
 50 51  1  0
 51 52  1  0
 51 53  1  0
 51 54  1  0
 54 55  1  0
 54 56  1  0
 35 57  1  0
 57 58  1  0
 14 59  1  0
 59 60  1  0
 59 61  1  0
 59 62  1  0
 62 63  1  0
 62 64  1  0
  9  2  1  0
 57 15  1  0
 62  7  1  0
 30 18  1  0
 54 43  1  0
M  END
>  <UniqueID>  (46) 
486

>  <SMILES>  (46) 
c1ccc2c(c1)CCN(c1nc(N3CCNCC3)c/c(=N\CCN3CCOCC3)[nH]1)C2

>  <Energy>  (46) 
88.7815520603945

>  <Genealogy>  (46) 
c1ccc2c(c1)CCN(c1nc(N3CCNCC3)cc(=NCCN3CCOCC3)[nH]1)C2 (tautomer)
c1ccc2c(c1)CCN(c1nc(N3CCNCC3)c/c(=N\CCN3CCOCC3)[nH]1)C2 (cis-trans isomerization)
c1ccc2c(c1)CCN(c1nc(N3CCNCC3)c/c(=N\CCN3CCOCC3)[nH]1)C2 (3D coordinates assigned)
c1ccc2c(c1)CCN(c1nc(N3CCNCC3)c/c(=N\CCN3CCOCC3)[nH]1)C2 (nonaromatic ring conformer: 88.7815520603945 kcal/mol)

>  <smiles>  (46) 
c1ccc2c(c1)CCN(c1nc(NCCN3CCOCC3)cc(N3CCNCC3)n1)C2

>  <score_type>  (46) 
oracle

>  <origin>  (46) 
autodockgpu

>  <m_score__min__energy>  (46) 
-9.4499999999999993

>  <m_primary>  (46) 
energy

>  <meeko>  (46) 
{"free_energy": -7.07, "intermolecular_energy": -8.86, "internal_energy": -2.79, "cluster_size": 5, "cluster_id": 4, "rank_in_cluster": 5}

>  <energy>  (46) 
-9.4

>  <cluster_rmsd>  (46) 
0.55

>  <rmsd>  (46) 
270.95

>  <cluster>  (46) 
1

$$$$
DRRGDEWGQQLPRW-GHPUHYOANA-N
     RDKit          3D

 64 68  0  0  0  0  0  0  0  0999 V2000
  141.5248   68.5350  228.2776 H   0  0  0  0  0  0  0  0  0  0  0  0
  140.9590   68.7170  227.3520 C   0  0  0  0  0  0  0  0  0  0  0  0
  140.1200   67.7230  226.8400 C   0  0  0  0  0  0  0  0  0  0  0  0
  140.0281   66.7590  227.3617 H   0  0  0  0  0  0  0  0  0  0  0  0
  139.3980   67.9530  225.6660 C   0  0  0  0  0  0  0  0  0  0  0  0
  138.7270   67.1753  225.2724 H   0  0  0  0  0  0  0  0  0  0  0  0
  139.5280   69.1760  224.9880 C   0  0  0  0  0  0  0  0  0  0  0  0
  140.3740   70.1740  225.4980 C   0  0  0  0  0  0  0  0  0  0  0  0
  141.0800   69.9410  226.6900 C   0  0  0  0  0  0  0  0  0  0  0  0
  141.7307   70.7256  227.1036 H   0  0  0  0  0  0  0  0  0  0  0  0
  140.4670   71.5140  224.8090 C   0  0  0  0  0  0  0  0  0  0  0  0
  141.4789   71.9178  224.9609 H   0  0  0  0  0  0  0  0  0  0  0  0
  139.6973   72.1660  225.2477 H   0  0  0  0  0  0  0  0  0  0  0  0
  140.2050   71.4310  223.3580 N   0  0  0  0  0  0  0  0  0  0  0  0
  140.6470   72.4960  222.4870 C   0  0  0  0  0  0  0  0  0  0  0  0
  141.7990   72.3500  221.7810 N   0  0  0  0  0  0  0  0  0  0  0  0
  142.2660   73.3200  220.9540 C   0  0  0  0  0  0  0  0  0  0  0  0
  143.4770   73.0950  220.2090 N   0  0  0  0  0  0  0  0  0  0  0  0
  143.5270   72.1550  219.0810 C   0  0  0  0  0  0  0  0  0  0  0  0
  142.6438   71.5003  219.1164 H   0  0  0  0  0  0  0  0  0  0  0  0
  143.5382   72.7277  218.1419 H   0  0  0  0  0  0  0  0  0  0  0  0
  144.8030   71.2900  219.1520 C   0  0  0  0  0  0  0  0  0  0  0  0
  144.5609   70.3582  219.6840 H   0  0  0  0  0  0  0  0  0  0  0  0
  145.1268   71.1120  218.1159 H   0  0  0  0  0  0  0  0  0  0  0  0
  145.9300   71.9440  219.8480 N   0  0  0  0  0  0  0  0  0  0  0  0
  145.8990   71.6830  220.8620 H   0  0  0  0  0  0  0  0  0  0  0  0
  145.8840   73.4080  219.7450 C   0  0  0  0  0  0  0  0  0  0  0  0
  146.7854   73.8326  220.2111 H   0  0  0  0  0  0  0  0  0  0  0  0
  145.8393   73.6896  218.6826 H   0  0  0  0  0  0  0  0  0  0  0  0
  144.6400   73.9560  220.4580 C   0  0  0  0  0  0  0  0  0  0  0  0
  144.8332   73.9978  221.5401 H   0  0  0  0  0  0  0  0  0  0  0  0
  144.4244   74.9623  220.0694 H   0  0  0  0  0  0  0  0  0  0  0  0
  141.5270   74.4970  220.8010 C   0  0  0  0  0  0  0  0  0  0  0  0
  141.8714   75.2876  220.1181 H   0  0  0  0  0  0  0  0  0  0  0  0
  140.3370   74.6550  221.5330 C   0  0  0  0  0  0  0  0  0  0  0  0
  139.6030   75.7330  221.4480 N   0  0  0  0  0  0  0  0  0  0  0  0
  140.0350   77.1270  221.5870 C   0  0  0  0  0  0  0  0  0  0  0  0
  140.4884   77.4583  220.6411 H   0  0  0  0  0  0  0  0  0  0  0  0
  139.1561   77.7415  221.8316 H   0  0  0  0  0  0  0  0  0  0  0  0
  141.0660   77.2790  222.7180 C   0  0  0  0  0  0  0  0  0  0  0  0
  140.7873   76.6126  223.5476 H   0  0  0  0  0  0  0  0  0  0  0  0
  142.0568   77.0151  222.3196 H   0  0  0  0  0  0  0  0  0  0  0  0
  141.1220   78.6700  223.2170 N   0  0  0  0  0  0  0  0  0  0  0  0
  139.9390   79.4500  222.7920 C   0  0  0  0  0  0  0  0  0  0  0  0
  139.7713   79.2907  221.7166 H   0  0  0  0  0  0  0  0  0  0  0  0
  139.0696   79.1102  223.3740 H   0  0  0  0  0  0  0  0  0  0  0  0
  140.1430   80.9570  223.0520 C   0  0  0  0  0  0  0  0  0  0  0  0
  140.3574   81.4614  222.0983 H   0  0  0  0  0  0  0  0  0  0  0  0
  139.2259   81.3635  223.5034 H   0  0  0  0  0  0  0  0  0  0  0  0
  141.2190   81.1730  223.9420 O   0  0  0  0  0  0  0  0  0  0  0  0
  142.4320   80.7660  223.3330 C   0  0  0  0  0  0  0  0  0  0  0  0
  142.6680   81.4636  222.5159 H   0  0  0  0  0  0  0  0  0  0  0  0
  143.2132   80.7713  224.1074 H   0  0  0  0  0  0  0  0  0  0  0  0
  142.3530   79.3360  222.7560 C   0  0  0  0  0  0  0  0  0  0  0  0
  142.3492   79.3870  221.6572 H   0  0  0  0  0  0  0  0  0  0  0  0
  143.2243   78.7602  223.1015 H   0  0  0  0  0  0  0  0  0  0  0  0
  139.9250   73.6480  222.3550 N   0  0  0  0  0  0  0  0  0  0  0  0
  139.0260   73.7670  222.8740 H   0  0  0  0  0  0  0  0  0  0  0  0
  139.6020   70.2320  222.7460 C   0  0  0  0  0  0  0  0  0  0  0  0
  140.4064   69.5765  222.3809 H   0  0  0  0  0  0  0  0  0  0  0  0
  138.9526   70.5608  221.9213 H   0  0  0  0  0  0  0  0  0  0  0  0
  138.7430   69.4520  223.7430 C   0  0  0  0  0  0  0  0  0  0  0  0
  138.4325   68.4993  223.2893 H   0  0  0  0  0  0  0  0  0  0  0  0
  137.8556   70.0490  224.0001 H   0  0  0  0  0  0  0  0  0  0  0  0
  1  2  1  0
  2  3  2  0
  3  4  1  0
  3  5  1  0
  5  6  1  0
  5  7  2  0
  7  8  1  0
  8  9  2  0
  9 10  1  0
  8 11  1  0
 11 12  1  0
 11 13  1  0
 11 14  1  0
 14 15  1  0
 15 16  2  0
 16 17  1  0
 17 18  1  0
 18 19  1  0
 19 20  1  0
 19 21  1  0
 19 22  1  0
 22 23  1  0
 22 24  1  0
 22 25  1  0
 25 26  1  0
 25 27  1  0
 27 28  1  0
 27 29  1  0
 27 30  1  0
 30 31  1  0
 30 32  1  0
 17 33  2  0
 33 34  1  0
 33 35  1  0
 35 36  2  0
 36 37  1  0
 37 38  1  0
 37 39  1  0
 37 40  1  0
 40 41  1  0
 40 42  1  0
 40 43  1  0
 43 44  1  0
 44 45  1  0
 44 46  1  0
 44 47  1  0
 47 48  1  0
 47 49  1  0
 47 50  1  0
 50 51  1  0
 51 52  1  0
 51 53  1  0
 51 54  1  0
 54 55  1  0
 54 56  1  0
 35 57  1  0
 57 58  1  0
 14 59  1  0
 59 60  1  0
 59 61  1  0
 59 62  1  0
 62 63  1  0
 62 64  1  0
  9  2  1  0
 57 15  1  0
 62  7  1  0
 30 18  1  0
 54 43  1  0
M  END
>  <UniqueID>  (47) 
486

>  <SMILES>  (47) 
c1ccc2c(c1)CCN(c1nc(N3CCNCC3)c/c(=N\CCN3CCOCC3)[nH]1)C2

>  <Energy>  (47) 
88.7815520603945

>  <Genealogy>  (47) 
c1ccc2c(c1)CCN(c1nc(N3CCNCC3)cc(=NCCN3CCOCC3)[nH]1)C2 (tautomer)
c1ccc2c(c1)CCN(c1nc(N3CCNCC3)c/c(=N\CCN3CCOCC3)[nH]1)C2 (cis-trans isomerization)
c1ccc2c(c1)CCN(c1nc(N3CCNCC3)c/c(=N\CCN3CCOCC3)[nH]1)C2 (3D coordinates assigned)
c1ccc2c(c1)CCN(c1nc(N3CCNCC3)c/c(=N\CCN3CCOCC3)[nH]1)C2 (nonaromatic ring conformer: 88.7815520603945 kcal/mol)

>  <smiles>  (47) 
c1ccc2c(c1)CCN(c1nc(NCCN3CCOCC3)cc(N3CCNCC3)n1)C2

>  <score_type>  (47) 
oracle

>  <origin>  (47) 
autodockgpu

>  <m_score__min__energy>  (47) 
-9.4499999999999993

>  <m_primary>  (47) 
energy

>  <meeko>  (47) 
{"free_energy": -9.4, "intermolecular_energy": -11.19, "internal_energy": -0.8, "cluster_size": 11, "cluster_id": 1, "rank_in_cluster": 7}

>  <energy>  (47) 
-9.4

>  <cluster_rmsd>  (47) 
0.18

>  <rmsd>  (47) 
271.02

>  <cluster>  (47) 
1

$$$$
DRRGDEWGQQLPRW-GHPUHYOANA-N
     RDKit          3D

 64 68  0  0  0  0  0  0  0  0999 V2000
  141.4969   68.7907  228.6277 H   0  0  0  0  0  0  0  0  0  0  0  0
  140.9380   68.8630  227.6830 C   0  0  0  0  0  0  0  0  0  0  0  0
  140.2070   67.7650  227.2190 C   0  0  0  0  0  0  0  0  0  0  0  0
  140.1918   66.8298  227.7980 H   0  0  0  0  0  0  0  0  0  0  0  0
  139.4960   67.8560  226.0200 C   0  0  0  0  0  0  0  0  0  0  0  0
  138.9102   66.9961  225.6632 H   0  0  0  0  0  0  0  0  0  0  0  0
  139.5270   69.0420  225.2690 C   0  0  0  0  0  0  0  0  0  0  0  0
  140.2650   70.1450  225.7320 C   0  0  0  0  0  0  0  0  0  0  0  0
  140.9600   70.0520  226.9490 C   0  0  0  0  0  0  0  0  0  0  0  0
  141.5237   70.9182  227.3257 H   0  0  0  0  0  0  0  0  0  0  0  0
  140.2490   71.4440  224.9630 C   0  0  0  0  0  0  0  0  0  0  0  0
  141.2150   71.9499  225.1074 H   0  0  0  0  0  0  0  0  0  0  0  0
  139.4120   72.0459  225.3466 H   0  0  0  0  0  0  0  0  0  0  0  0
  140.0300   71.2490  223.5150 N   0  0  0  0  0  0  0  0  0  0  0  0
  140.3920   72.2980  222.5880 C   0  0  0  0  0  0  0  0  0  0  0  0
  141.5600   72.2080  221.8980 N   0  0  0  0  0  0  0  0  0  0  0  0
  141.9530   73.1660  221.0200 C   0  0  0  0  0  0  0  0  0  0  0  0
  143.1870   73.0010  220.2960 N   0  0  0  0  0  0  0  0  0  0  0  0
  143.3370   71.9830  219.2470 C   0  0  0  0  0  0  0  0  0  0  0  0
  142.5210   71.2506  219.3344 H   0  0  0  0  0  0  0  0  0  0  0  0
  143.3005   72.4771  218.2649 H   0  0  0  0  0  0  0  0  0  0  0  0
  144.6890   71.2550  219.3880 C   0  0  0  0  0  0  0  0  0  0  0  0
  144.5337   70.3501  219.9938 H   0  0  0  0  0  0  0  0  0  0  0  0
  145.0366   71.0267  218.3697 H   0  0  0  0  0  0  0  0  0  0  0  0
  145.7430   72.0690  220.0290 N   0  0  0  0  0  0  0  0  0  0  0  0
  145.7290   71.8880  221.0620 H   0  0  0  0  0  0  0  0  0  0  0  0
  145.5550   73.5090  219.8090 C   0  0  0  0  0  0  0  0  0  0  0  0
  146.4068   74.0556  220.2399 H   0  0  0  0  0  0  0  0  0  0  0  0
  145.4915   73.6990  218.7274 H   0  0  0  0  0  0  0  0  0  0  0  0
  144.2580   73.9880  220.4750 C   0  0  0  0  0  0  0  0  0  0  0  0
  144.4373   74.1350  221.5503 H   0  0  0  0  0  0  0  0  0  0  0  0
  143.9487   74.9339  220.0065 H   0  0  0  0  0  0  0  0  0  0  0  0
  141.1210   74.2680  220.7960 C   0  0  0  0  0  0  0  0  0  0  0  0
  141.4060   75.0450  220.0714 H   0  0  0  0  0  0  0  0  0  0  0  0
  139.9140   74.3670  221.5120 C   0  0  0  0  0  0  0  0  0  0  0  0
  139.0950   75.3740  221.3620 N   0  0  0  0  0  0  0  0  0  0  0  0
  138.0170   75.5160  220.3780 C   0  0  0  0  0  0  0  0  0  0  0  0
  137.9344   76.5733  220.0861 H   0  0  0  0  0  0  0  0  0  0  0  0
  138.2569   74.8907  219.5054 H   0  0  0  0  0  0  0  0  0  0  0  0
  136.6720   75.0490  220.9570 C   0  0  0  0  0  0  0  0  0  0  0  0
  136.2097   75.8834  221.5047 H   0  0  0  0  0  0  0  0  0  0  0  0
  136.0316   74.7248  220.1234 H   0  0  0  0  0  0  0  0  0  0  0  0
  136.8460   73.9060  221.8800 N   0  0  0  0  0  0  0  0  0  0  0  0
  136.9390   72.6230  221.1480 C   0  0  0  0  0  0  0  0  0  0  0  0
  136.1281   72.5729  220.4064 H   0  0  0  0  0  0  0  0  0  0  0  0
  137.9197   72.5738  220.6523 H   0  0  0  0  0  0  0  0  0  0  0  0
  136.8160   71.4240  222.1110 C   0  0  0  0  0  0  0  0  0  0  0  0
  135.8129   70.9837  222.0114 H   0  0  0  0  0  0  0  0  0  0  0  0
  137.5880   70.6846  221.8516 H   0  0  0  0  0  0  0  0  0  0  0  0
  137.0120   71.8300  223.4500 O   0  0  0  0  0  0  0  0  0  0  0  0
  135.9600   72.6920  223.8450 C   0  0  0  0  0  0  0  0  0  0  0  0
  135.0321   72.1056  223.9169 H   0  0  0  0  0  0  0  0  0  0  0  0
  136.2367   73.1335  224.8138 H   0  0  0  0  0  0  0  0  0  0  0  0
  135.7370   73.8510  222.8490 C   0  0  0  0  0  0  0  0  0  0  0  0
  134.7911   73.6913  222.3108 H   0  0  0  0  0  0  0  0  0  0  0  0
  135.6961   74.7999  223.4039 H   0  0  0  0  0  0  0  0  0  0  0  0
  139.5780   73.3770  222.3870 N   0  0  0  0  0  0  0  0  0  0  0  0
  138.6670   73.4490  222.8940 H   0  0  0  0  0  0  0  0  0  0  0  0
  139.5560   69.9640  222.9680 C   0  0  0  0  0  0  0  0  0  0  0  0
  140.4264   69.3666  222.6589 H   0  0  0  0  0  0  0  0  0  0  0  0
  138.8986   70.1797  222.1129 H   0  0  0  0  0  0  0  0  0  0  0  0
  138.7500   69.1680  223.9960 C   0  0  0  0  0  0  0  0  0  0  0  0
  138.5399   68.1648  223.5966 H   0  0  0  0  0  0  0  0  0  0  0  0
  137.8055   69.6936  224.1999 H   0  0  0  0  0  0  0  0  0  0  0  0
  1  2  1  0
  2  3  2  0
  3  4  1  0
  3  5  1  0
  5  6  1  0
  5  7  2  0
  7  8  1  0
  8  9  2  0
  9 10  1  0
  8 11  1  0
 11 12  1  0
 11 13  1  0
 11 14  1  0
 14 15  1  0
 15 16  2  0
 16 17  1  0
 17 18  1  0
 18 19  1  0
 19 20  1  0
 19 21  1  0
 19 22  1  0
 22 23  1  0
 22 24  1  0
 22 25  1  0
 25 26  1  0
 25 27  1  0
 27 28  1  0
 27 29  1  0
 27 30  1  0
 30 31  1  0
 30 32  1  0
 17 33  2  0
 33 34  1  0
 33 35  1  0
 35 36  2  0
 36 37  1  0
 37 38  1  0
 37 39  1  0
 37 40  1  0
 40 41  1  0
 40 42  1  0
 40 43  1  0
 43 44  1  0
 44 45  1  0
 44 46  1  0
 44 47  1  0
 47 48  1  0
 47 49  1  0
 47 50  1  0
 50 51  1  0
 51 52  1  0
 51 53  1  0
 51 54  1  0
 54 55  1  0
 54 56  1  0
 35 57  1  0
 57 58  1  0
 14 59  1  0
 59 60  1  0
 59 61  1  0
 59 62  1  0
 62 63  1  0
 62 64  1  0
  9  2  1  0
 57 15  1  0
 62  7  1  0
 30 18  1  0
 54 43  1  0
M  END
>  <UniqueID>  (48) 
486

>  <SMILES>  (48) 
c1ccc2c(c1)CCN(c1nc(N3CCNCC3)c/c(=N\CCN3CCOCC3)[nH]1)C2

>  <Energy>  (48) 
88.7815520603945

>  <Genealogy>  (48) 
c1ccc2c(c1)CCN(c1nc(N3CCNCC3)cc(=NCCN3CCOCC3)[nH]1)C2 (tautomer)
c1ccc2c(c1)CCN(c1nc(N3CCNCC3)c/c(=N\CCN3CCOCC3)[nH]1)C2 (cis-trans isomerization)
c1ccc2c(c1)CCN(c1nc(N3CCNCC3)c/c(=N\CCN3CCOCC3)[nH]1)C2 (3D coordinates assigned)
c1ccc2c(c1)CCN(c1nc(N3CCNCC3)c/c(=N\CCN3CCOCC3)[nH]1)C2 (nonaromatic ring conformer: 88.7815520603945 kcal/mol)

>  <smiles>  (48) 
c1ccc2c(c1)CCN(c1nc(NCCN3CCOCC3)cc(N3CCNCC3)n1)C2

>  <score_type>  (48) 
oracle

>  <origin>  (48) 
autodockgpu

>  <m_score__min__energy>  (48) 
-9.4499999999999993

>  <m_primary>  (48) 
energy

>  <meeko>  (48) 
{"free_energy": -7.23, "intermolecular_energy": -9.02, "internal_energy": -2.64, "cluster_size": 5, "cluster_id": 4, "rank_in_cluster": 3}

>  <energy>  (48) 
-9.38

>  <cluster_rmsd>  (48) 
0.46

>  <rmsd>  (48) 
270.99

>  <cluster>  (48) 
1

$$$$
DRRGDEWGQQLPRW-GHPUHYOANA-N
     RDKit          3D

 64 68  0  0  0  0  0  0  0  0999 V2000
  141.7486   81.4712  223.8544 H   0  0  0  0  0  0  0  0  0  0  0  0
  141.0220   80.6970  223.5670 C   0  0  0  0  0  0  0  0  0  0  0  0
  139.6630   80.8800  223.8400 C   0  0  0  0  0  0  0  0  0  0  0  0
  139.3213   81.7965  224.3434 H   0  0  0  0  0  0  0  0  0  0  0  0
  138.7390   79.8980  223.4730 C   0  0  0  0  0  0  0  0  0  0  0  0
  137.6683   80.0491  223.6751 H   0  0  0  0  0  0  0  0  0  0  0  0
  139.1740   78.7190  222.8470 C   0  0  0  0  0  0  0  0  0  0  0  0
  140.5390   78.5320  222.5760 C   0  0  0  0  0  0  0  0  0  0  0  0
  141.4590   79.5330  222.9300 C   0  0  0  0  0  0  0  0  0  0  0  0
  142.5274   79.3997  222.7047 H   0  0  0  0  0  0  0  0  0  0  0  0
  141.0050   77.2960  221.8450 C   0  0  0  0  0  0  0  0  0  0  0  0
  142.0175   77.0429  222.1925 H   0  0  0  0  0  0  0  0  0  0  0  0
  140.9877   77.5214  220.7685 H   0  0  0  0  0  0  0  0  0  0  0  0
  140.1240   76.1320  222.0700 N   0  0  0  0  0  0  0  0  0  0  0  0
  140.6170   74.7990  221.8070 C   0  0  0  0  0  0  0  0  0  0  0  0
  141.7990   74.6380  221.1550 N   0  0  0  0  0  0  0  0  0  0  0  0
  142.3060   73.4100  220.8760 C   0  0  0  0  0  0  0  0  0  0  0  0
  143.5780   73.3020  220.2100 N   0  0  0  0  0  0  0  0  0  0  0  0
  143.6920   72.7690  218.8460 C   0  0  0  0  0  0  0  0  0  0  0  0
  142.7644   72.2377  218.5865 H   0  0  0  0  0  0  0  0  0  0  0  0
  143.8581   73.6050  218.1506 H   0  0  0  0  0  0  0  0  0  0  0  0
  144.8820   71.7920  218.7440 C   0  0  0  0  0  0  0  0  0  0  0  0
  144.5089   70.7721  218.9191 H   0  0  0  0  0  0  0  0  0  0  0  0
  145.3130   71.9173  217.7397 H   0  0  0  0  0  0  0  0  0  0  0  0
  145.9640   72.0640  219.7120 N   0  0  0  0  0  0  0  0  0  0  0  0
  145.7920   71.5000  220.5790 H   0  0  0  0  0  0  0  0  0  0  0  0
  146.0390   73.4820  220.0900 C   0  0  0  0  0  0  0  0  0  0  0  0
  146.9071   73.6362  220.7477 H   0  0  0  0  0  0  0  0  0  0  0  0
  146.1423   74.0889  219.1784 H   0  0  0  0  0  0  0  0  0  0  0  0
  144.7630   73.9080  220.8290 C   0  0  0  0  0  0  0  0  0  0  0  0
  144.8280   73.5838  221.8781 H   0  0  0  0  0  0  0  0  0  0  0  0
  144.6706   75.0027  220.7728 H   0  0  0  0  0  0  0  0  0  0  0  0
  141.6060   72.2730  221.2930 C   0  0  0  0  0  0  0  0  0  0  0  0
  142.0082   71.2676  221.0999 H   0  0  0  0  0  0  0  0  0  0  0  0
  140.3800   72.4350  221.9630 C   0  0  0  0  0  0  0  0  0  0  0  0
  139.6670   71.4180  222.3700 N   0  0  0  0  0  0  0  0  0  0  0  0
  139.3200   71.0600  223.7480 C   0  0  0  0  0  0  0  0  0  0  0  0
  138.6477   71.8272  224.1596 H   0  0  0  0  0  0  0  0  0  0  0  0
  138.8269   70.0768  223.7388 H   0  0  0  0  0  0  0  0  0  0  0  0
  140.5750   70.9670  224.6310 C   0  0  0  0  0  0  0  0  0  0  0  0
  141.1137   70.0388  224.3896 H   0  0  0  0  0  0  0  0  0  0  0  0
  141.2029   71.8479  224.4316 H   0  0  0  0  0  0  0  0  0  0  0  0
  140.2280   70.9610  226.0690 N   0  0  0  0  0  0  0  0  0  0  0  0
  141.0700   71.9050  226.8380 C   0  0  0  0  0  0  0  0  0  0  0  0
  142.1234   71.7572  226.5576 H   0  0  0  0  0  0  0  0  0  0  0  0
  140.7479   72.9305  226.6043 H   0  0  0  0  0  0  0  0  0  0  0  0
  140.9160   71.6770  228.3550 C   0  0  0  0  0  0  0  0  0  0  0  0
  141.8058   71.1518  228.7323 H   0  0  0  0  0  0  0  0  0  0  0  0
  140.8087   72.6545  228.8479 H   0  0  0  0  0  0  0  0  0  0  0  0
  139.7680   70.9020  228.6350 O   0  0  0  0  0  0  0  0  0  0  0  0
  139.9350   69.5960  228.1120 C   0  0  0  0  0  0  0  0  0  0  0  0
  140.7090   69.0780  228.6973 H   0  0  0  0  0  0  0  0  0  0  0  0
  138.9647   69.0823  228.1800 H   0  0  0  0  0  0  0  0  0  0  0  0
  140.3590   69.6030  226.6270 C   0  0  0  0  0  0  0  0  0  0  0  0
  141.4061   69.2759  226.5461 H   0  0  0  0  0  0  0  0  0  0  0  0
  139.7082   68.9181  226.0636 H   0  0  0  0  0  0  0  0  0  0  0  0
  139.9190   73.6950  222.2070 N   0  0  0  0  0  0  0  0  0  0  0  0
  139.0190   73.8030  222.7280 H   0  0  0  0  0  0  0  0  0  0  0  0
  138.7840   76.2770  222.6680 C   0  0  0  0  0  0  0  0  0  0  0  0
  138.8587   76.1094  223.7526 H   0  0  0  0  0  0  0  0  0  0  0  0
  138.1191   75.5380  222.1970 H   0  0  0  0  0  0  0  0  0  0  0  0
  138.1960   77.6680  222.4220 C   0  0  0  0  0  0  0  0  0  0  0  0
  137.2674   77.7787  223.0012 H   0  0  0  0  0  0  0  0  0  0  0  0
  137.9825   77.7856  221.3493 H   0  0  0  0  0  0  0  0  0  0  0  0
  1  2  1  0
  2  3  2  0
  3  4  1  0
  3  5  1  0
  5  6  1  0
  5  7  2  0
  7  8  1  0
  8  9  2  0
  9 10  1  0
  8 11  1  0
 11 12  1  0
 11 13  1  0
 11 14  1  0
 14 15  1  0
 15 16  2  0
 16 17  1  0
 17 18  1  0
 18 19  1  0
 19 20  1  0
 19 21  1  0
 19 22  1  0
 22 23  1  0
 22 24  1  0
 22 25  1  0
 25 26  1  0
 25 27  1  0
 27 28  1  0
 27 29  1  0
 27 30  1  0
 30 31  1  0
 30 32  1  0
 17 33  2  0
 33 34  1  0
 33 35  1  0
 35 36  2  0
 36 37  1  0
 37 38  1  0
 37 39  1  0
 37 40  1  0
 40 41  1  0
 40 42  1  0
 40 43  1  0
 43 44  1  0
 44 45  1  0
 44 46  1  0
 44 47  1  0
 47 48  1  0
 47 49  1  0
 47 50  1  0
 50 51  1  0
 51 52  1  0
 51 53  1  0
 51 54  1  0
 54 55  1  0
 54 56  1  0
 35 57  1  0
 57 58  1  0
 14 59  1  0
 59 60  1  0
 59 61  1  0
 59 62  1  0
 62 63  1  0
 62 64  1  0
  9  2  1  0
 57 15  1  0
 62  7  1  0
 30 18  1  0
 54 43  1  0
M  END
>  <UniqueID>  (49) 
486

>  <SMILES>  (49) 
c1ccc2c(c1)CCN(c1nc(N3CCNCC3)c/c(=N\CCN3CCOCC3)[nH]1)C2

>  <Energy>  (49) 
88.7815520603945

>  <Genealogy>  (49) 
c1ccc2c(c1)CCN(c1nc(N3CCNCC3)cc(=NCCN3CCOCC3)[nH]1)C2 (tautomer)
c1ccc2c(c1)CCN(c1nc(N3CCNCC3)c/c(=N\CCN3CCOCC3)[nH]1)C2 (cis-trans isomerization)
c1ccc2c(c1)CCN(c1nc(N3CCNCC3)c/c(=N\CCN3CCOCC3)[nH]1)C2 (3D coordinates assigned)
c1ccc2c(c1)CCN(c1nc(N3CCNCC3)c/c(=N\CCN3CCOCC3)[nH]1)C2 (nonaromatic ring conformer: 88.7815520603945 kcal/mol)

>  <smiles>  (49) 
c1ccc2c(c1)CCN(c1nc(NCCN3CCOCC3)cc(N3CCNCC3)n1)C2

>  <score_type>  (49) 
oracle

>  <origin>  (49) 
autodockgpu

>  <m_score__min__energy>  (49) 
-9.4499999999999993

>  <m_primary>  (49) 
energy

>  <meeko>  (49) 
{"free_energy": -9.43, "intermolecular_energy": -11.22, "internal_energy": -0.77, "cluster_size": 1, "cluster_id": 2, "rank_in_cluster": 1}

>  <energy>  (49) 
-9.36

>  <cluster_rmsd>  (49) 
0.99

>  <rmsd>  (49) 
270.93

>  <cluster>  (49) 
1

$$$$
DRRGDEWGQQLPRW-GHPUHYOANA-N
     RDKit          3D

 64 68  0  0  0  0  0  0  0  0999 V2000
  140.5332   83.0743  222.7746 H   0  0  0  0  0  0  0  0  0  0  0  0
  140.8710   82.3940  221.9790 C   0  0  0  0  0  0  0  0  0  0  0  0
  140.9670   82.8540  220.6630 C   0  0  0  0  0  0  0  0  0  0  0  0
  140.7026   83.8945  220.4234 H   0  0  0  0  0  0  0  0  0  0  0  0
  141.3990   81.9920  219.6510 C   0  0  0  0  0  0  0  0  0  0  0  0
  141.4885   82.3592  218.6180 H   0  0  0  0  0  0  0  0  0  0  0  0
  141.7190   80.6580  219.9510 C   0  0  0  0  0  0  0  0  0  0  0  0
  141.6190   80.1930  221.2730 C   0  0  0  0  0  0  0  0  0  0  0  0
  141.2030   81.0720  222.2870 C   0  0  0  0  0  0  0  0  0  0  0  0
  141.1384   80.7185  223.3266 H   0  0  0  0  0  0  0  0  0  0  0  0
  142.0240   78.7790  221.6120 C   0  0  0  0  0  0  0  0  0  0  0  0
  141.4073   78.4288  222.4529 H   0  0  0  0  0  0  0  0  0  0  0  0
  143.0936   78.7934  221.8685 H   0  0  0  0  0  0  0  0  0  0  0  0
  141.8510   77.8470  220.4800 N   0  0  0  0  0  0  0  0  0  0  0  0
  141.7850   76.4240  220.7260 C   0  0  0  0  0  0  0  0  0  0  0  0
  142.7880   75.6200  220.2800 N   0  0  0  0  0  0  0  0  0  0  0  0
  142.7760   74.2770  220.4770 C   0  0  0  0  0  0  0  0  0  0  0  0
  143.8810   73.4820  220.0090 N   0  0  0  0  0  0  0  0  0  0  0  0
  144.9450   73.0290  220.9140 C   0  0  0  0  0  0  0  0  0  0  0  0
  144.9020   73.6143  221.8444 H   0  0  0  0  0  0  0  0  0  0  0  0
  144.7965   71.9606  221.1297 H   0  0  0  0  0  0  0  0  0  0  0  0
  146.3300   73.2170  220.2600 C   0  0  0  0  0  0  0  0  0  0  0  0
  146.7295   74.1943  220.5688 H   0  0  0  0  0  0  0  0  0  0  0  0
  146.9591   72.3795  220.5960 H   0  0  0  0  0  0  0  0  0  0  0  0
  146.3040   73.1700  218.7840 N   0  0  0  0  0  0  0  0  0  0  0  0
  146.1850   74.1440  218.4160 H   0  0  0  0  0  0  0  0  0  0  0  0
  145.2090   72.3420  218.2640 C   0  0  0  0  0  0  0  0  0  0  0  0
  145.2886   72.2820  217.1685 H   0  0  0  0  0  0  0  0  0  0  0  0
  145.2820   71.3364  218.7039 H   0  0  0  0  0  0  0  0  0  0  0  0
  143.8510   72.9530  218.6400 C   0  0  0  0  0  0  0  0  0  0  0  0
  143.6172   73.7705  217.9421 H   0  0  0  0  0  0  0  0  0  0  0  0
  143.0819   72.1688  218.5808 H   0  0  0  0  0  0  0  0  0  0  0  0
  141.7130   73.7020  221.1810 C   0  0  0  0  0  0  0  0  0  0  0  0
  141.6919   72.6192  221.3734 H   0  0  0  0  0  0  0  0  0  0  0  0
  140.6720   74.5280  221.6390 C   0  0  0  0  0  0  0  0  0  0  0  0
  139.6430   74.0570  222.2930 N   0  0  0  0  0  0  0  0  0  0  0  0
  138.3630   73.5980  221.7440 C   0  0  0  0  0  0  0  0  0  0  0  0
  138.5294   73.1963  220.7336 H   0  0  0  0  0  0  0  0  0  0  0  0
  137.9577   72.8208  222.4086 H   0  0  0  0  0  0  0  0  0  0  0  0
  137.3470   74.7490  221.6650 C   0  0  0  0  0  0  0  0  0  0  0  0
  136.7726   74.6552  220.7316 H   0  0  0  0  0  0  0  0  0  0  0  0
  136.6844   74.6851  222.5407 H   0  0  0  0  0  0  0  0  0  0  0  0
  138.0180   76.0670  221.6860 N   0  0  0  0  0  0  0  0  0  0  0  0
  137.6120   76.8680  222.8630 C   0  0  0  0  0  0  0  0  0  0  0  0
  136.5162   76.8414  222.9548 H   0  0  0  0  0  0  0  0  0  0  0  0
  138.0860   76.4383  223.7578 H   0  0  0  0  0  0  0  0  0  0  0  0
  138.0700   78.3340  222.7230 C   0  0  0  0  0  0  0  0  0  0  0  0
  137.2033   78.9587  222.4611 H   0  0  0  0  0  0  0  0  0  0  0  0
  138.5032   78.6599  223.6802 H   0  0  0  0  0  0  0  0  0  0  0  0
  139.0530   78.4610  221.7160 O   0  0  0  0  0  0  0  0  0  0  0  0
  138.4840   78.1610  220.4540 C   0  0  0  0  0  0  0  0  0  0  0  0
  137.7781   78.9611  220.1866 H   0  0  0  0  0  0  0  0  0  0  0  0
  139.3062   78.0859  219.7271 H   0  0  0  0  0  0  0  0  0  0  0  0
  137.7300   76.8140  220.4480 C   0  0  0  0  0  0  0  0  0  0  0  0
  136.6484   77.0027  220.3801 H   0  0  0  0  0  0  0  0  0  0  0  0
  138.0611   76.2198  219.5835 H   0  0  0  0  0  0  0  0  0  0  0  0
  140.7370   75.8690  221.4030 N   0  0  0  0  0  0  0  0  0  0  0  0
  139.9690   76.4770  221.7700 H   0  0  0  0  0  0  0  0  0  0  0  0
  141.6250   78.3290  219.1040 C   0  0  0  0  0  0  0  0  0  0  0  0
  140.5424   78.3622  218.9121 H   0  0  0  0  0  0  0  0  0  0  0  0
  142.1291   77.6371  218.4132 H   0  0  0  0  0  0  0  0  0  0  0  0
  142.2090   79.7260  218.8860 C   0  0  0  0  0  0  0  0  0  0  0  0
  141.8960   80.1020  217.9008 H   0  0  0  0  0  0  0  0  0  0  0  0
  143.3066   79.6698  218.9325 H   0  0  0  0  0  0  0  0  0  0  0  0
  1  2  1  0
  2  3  2  0
  3  4  1  0
  3  5  1  0
  5  6  1  0
  5  7  2  0
  7  8  1  0
  8  9  2  0
  9 10  1  0
  8 11  1  0
 11 12  1  0
 11 13  1  0
 11 14  1  0
 14 15  1  0
 15 16  2  0
 16 17  1  0
 17 18  1  0
 18 19  1  0
 19 20  1  0
 19 21  1  0
 19 22  1  0
 22 23  1  0
 22 24  1  0
 22 25  1  0
 25 26  1  0
 25 27  1  0
 27 28  1  0
 27 29  1  0
 27 30  1  0
 30 31  1  0
 30 32  1  0
 17 33  2  0
 33 34  1  0
 33 35  1  0
 35 36  2  0
 36 37  1  0
 37 38  1  0
 37 39  1  0
 37 40  1  0
 40 41  1  0
 40 42  1  0
 40 43  1  0
 43 44  1  0
 44 45  1  0
 44 46  1  0
 44 47  1  0
 47 48  1  0
 47 49  1  0
 47 50  1  0
 50 51  1  0
 51 52  1  0
 51 53  1  0
 51 54  1  0
 54 55  1  0
 54 56  1  0
 35 57  1  0
 57 58  1  0
 14 59  1  0
 59 60  1  0
 59 61  1  0
 59 62  1  0
 62 63  1  0
 62 64  1  0
  9  2  1  0
 57 15  1  0
 62  7  1  0
 30 18  1  0
 54 43  1  0
M  END
>  <UniqueID>  (50) 
486

>  <SMILES>  (50) 
c1ccc2c(c1)CCN(c1nc(N3CCNCC3)c/c(=N\CCN3CCOCC3)[nH]1)C2

>  <Energy>  (50) 
88.7815520603945

>  <Genealogy>  (50) 
c1ccc2c(c1)CCN(c1nc(N3CCNCC3)cc(=NCCN3CCOCC3)[nH]1)C2 (tautomer)
c1ccc2c(c1)CCN(c1nc(N3CCNCC3)c/c(=N\CCN3CCOCC3)[nH]1)C2 (cis-trans isomerization)
c1ccc2c(c1)CCN(c1nc(N3CCNCC3)c/c(=N\CCN3CCOCC3)[nH]1)C2 (3D coordinates assigned)
c1ccc2c(c1)CCN(c1nc(N3CCNCC3)c/c(=N\CCN3CCOCC3)[nH]1)C2 (nonaromatic ring conformer: 88.7815520603945 kcal/mol)

>  <smiles>  (50) 
c1ccc2c(c1)CCN(c1nc(NCCN3CCOCC3)cc(N3CCNCC3)n1)C2

>  <score_type>  (50) 
oracle

>  <origin>  (50) 
autodockgpu

>  <m_score__min__energy>  (50) 
-9.4499999999999993

>  <m_primary>  (50) 
energy

>  <meeko>  (50) 
{"free_energy": -6.51, "intermolecular_energy": -8.3, "internal_energy": -3.08, "cluster_size": 2, "cluster_id": 5, "rank_in_cluster": 2}

>  <energy>  (50) 
-9.33

>  <cluster_rmsd>  (50) 
0.64

>  <rmsd>  (50) 
270.99

>  <cluster>  (50) 
1

$$$$
DRRGDEWGQQLPRW-GHPUHYOANA-N
     RDKit          3D

 64 68  0  0  0  0  0  0  0  0999 V2000
  141.5202   68.5991  228.3355 H   0  0  0  0  0  0  0  0  0  0  0  0
  140.9510   68.7650  227.4090 C   0  0  0  0  0  0  0  0  0  0  0  0
  140.1170   67.7590  226.9130 C   0  0  0  0  0  0  0  0  0  0  0  0
  140.0322   66.8016  227.4480 H   0  0  0  0  0  0  0  0  0  0  0  0
  139.3910   67.9690  225.7380 C   0  0  0  0  0  0  0  0  0  0  0  0
  138.7229   67.1821  225.3579 H   0  0  0  0  0  0  0  0  0  0  0  0
  139.5120   69.1820  225.0410 C   0  0  0  0  0  0  0  0  0  0  0  0
  140.3530   70.1930  225.5360 C   0  0  0  0  0  0  0  0  0  0  0  0
  141.0630   69.9810  226.7300 C   0  0  0  0  0  0  0  0  0  0  0  0
  141.7094   70.7753  227.1316 H   0  0  0  0  0  0  0  0  0  0  0  0
  140.4370   71.5230  224.8280 C   0  0  0  0  0  0  0  0  0  0  0  0
  141.4470   71.9344  224.9717 H   0  0  0  0  0  0  0  0  0  0  0  0
  139.6646   72.1769  225.2592 H   0  0  0  0  0  0  0  0  0  0  0  0
  140.1720   71.4180  223.3780 N   0  0  0  0  0  0  0  0  0  0  0  0
  140.6050   72.4740  222.4910 C   0  0  0  0  0  0  0  0  0  0  0  0
  141.7610   72.3270  221.7900 N   0  0  0  0  0  0  0  0  0  0  0  0
  142.2200   73.2880  220.9480 C   0  0  0  0  0  0  0  0  0  0  0  0
  143.4350   73.0630  220.2090 N   0  0  0  0  0  0  0  0  0  0  0  0
  143.4940   72.1100  219.0930 C   0  0  0  0  0  0  0  0  0  0  0  0
  142.6153   71.4496  219.1344 H   0  0  0  0  0  0  0  0  0  0  0  0
  143.5032   72.6710  218.1469 H   0  0  0  0  0  0  0  0  0  0  0  0
  144.7760   71.2550  219.1780 C   0  0  0  0  0  0  0  0  0  0  0  0
  144.5389   70.3280  219.7207 H   0  0  0  0  0  0  0  0  0  0  0  0
  145.1039   71.0671  218.1449 H   0  0  0  0  0  0  0  0  0  0  0  0
  145.8970   71.9250  219.8690 N   0  0  0  0  0  0  0  0  0  0  0  0
  145.8650   71.6760  220.8860 H   0  0  0  0  0  0  0  0  0  0  0  0
  145.8400   73.3880  219.7480 C   0  0  0  0  0  0  0  0  0  0  0  0
  146.7368   73.8252  220.2112 H   0  0  0  0  0  0  0  0  0  0  0  0
  145.7960   73.6563  218.6821 H   0  0  0  0  0  0  0  0  0  0  0  0
  144.5900   73.9350  220.4510 C   0  0  0  0  0  0  0  0  0  0  0  0
  144.7797   73.9909  221.5331 H   0  0  0  0  0  0  0  0  0  0  0  0
  144.3681   74.9350  220.0501 H   0  0  0  0  0  0  0  0  0  0  0  0
  141.4700   74.4560  220.7750 C   0  0  0  0  0  0  0  0  0  0  0  0
  141.8081   75.2389  220.0802 H   0  0  0  0  0  0  0  0  0  0  0  0
  140.2770   74.6140  221.5030 C   0  0  0  0  0  0  0  0  0  0  0  0
  139.5330   75.6830  221.3990 N   0  0  0  0  0  0  0  0  0  0  0  0
  139.9160   77.0730  221.6680 C   0  0  0  0  0  0  0  0  0  0  0  0
  140.2506   77.5409  220.7304 H   0  0  0  0  0  0  0  0  0  0  0  0
  139.0422   77.6027  222.0753 H   0  0  0  0  0  0  0  0  0  0  0  0
  141.0540   77.1460  222.6990 C   0  0  0  0  0  0  0  0  0  0  0  0
  140.6310   77.0269  223.7074 H   0  0  0  0  0  0  0  0  0  0  0  0
  141.7720   76.3424  222.4783 H   0  0  0  0  0  0  0  0  0  0  0  0
  141.7680   78.4390  222.6270 N   0  0  0  0  0  0  0  0  0  0  0  0
  141.8180   79.1090  223.9460 C   0  0  0  0  0  0  0  0  0  0  0  0
  140.8137   79.0942  224.3944 H   0  0  0  0  0  0  0  0  0  0  0  0
  142.5349   78.5708  224.5835 H   0  0  0  0  0  0  0  0  0  0  0  0
  142.2870   80.5720  223.8100 C   0  0  0  0  0  0  0  0  0  0  0  0
  141.4194   81.2399  223.9157 H   0  0  0  0  0  0  0  0  0  0  0  0
  143.0281   80.7786  224.5962 H   0  0  0  0  0  0  0  0  0  0  0  0
  142.8900   80.7920  222.5510 O   0  0  0  0  0  0  0  0  0  0  0  0
  141.9210   80.6500  221.5270 C   0  0  0  0  0  0  0  0  0  0  0  0
  141.2131   81.4894  221.5925 H   0  0  0  0  0  0  0  0  0  0  0  0
  142.4518   80.6425  220.5636 H   0  0  0  0  0  0  0  0  0  0  0  0
  141.1320   79.3270  221.6380 C   0  0  0  0  0  0  0  0  0  0  0  0
  140.1009   79.5438  221.9539 H   0  0  0  0  0  0  0  0  0  0  0  0
  141.1263   78.8281  220.6577 H   0  0  0  0  0  0  0  0  0  0  0  0
  139.8730   73.6160  222.3390 N   0  0  0  0  0  0  0  0  0  0  0  0
  138.9710   73.7340  222.8550 H   0  0  0  0  0  0  0  0  0  0  0  0
  139.5740   70.2070  222.7850 C   0  0  0  0  0  0  0  0  0  0  0  0
  140.3811   69.5512  222.4265 H   0  0  0  0  0  0  0  0  0  0  0  0
  138.9198   70.5206  221.9581 H   0  0  0  0  0  0  0  0  0  0  0  0
  138.7230   69.4360  223.7950 C   0  0  0  0  0  0  0  0  0  0  0  0
  138.4171   68.4752  223.3553 H   0  0  0  0  0  0  0  0  0  0  0  0
  137.8330   70.0315  224.0464 H   0  0  0  0  0  0  0  0  0  0  0  0
  1  2  1  0
  2  3  2  0
  3  4  1  0
  3  5  1  0
  5  6  1  0
  5  7  2  0
  7  8  1  0
  8  9  2  0
  9 10  1  0
  8 11  1  0
 11 12  1  0
 11 13  1  0
 11 14  1  0
 14 15  1  0
 15 16  2  0
 16 17  1  0
 17 18  1  0
 18 19  1  0
 19 20  1  0
 19 21  1  0
 19 22  1  0
 22 23  1  0
 22 24  1  0
 22 25  1  0
 25 26  1  0
 25 27  1  0
 27 28  1  0
 27 29  1  0
 27 30  1  0
 30 31  1  0
 30 32  1  0
 17 33  2  0
 33 34  1  0
 33 35  1  0
 35 36  2  0
 36 37  1  0
 37 38  1  0
 37 39  1  0
 37 40  1  0
 40 41  1  0
 40 42  1  0
 40 43  1  0
 43 44  1  0
 44 45  1  0
 44 46  1  0
 44 47  1  0
 47 48  1  0
 47 49  1  0
 47 50  1  0
 50 51  1  0
 51 52  1  0
 51 53  1  0
 51 54  1  0
 54 55  1  0
 54 56  1  0
 35 57  1  0
 57 58  1  0
 14 59  1  0
 59 60  1  0
 59 61  1  0
 59 62  1  0
 62 63  1  0
 62 64  1  0
  9  2  1  0
 57 15  1  0
 62  7  1  0
 30 18  1  0
 54 43  1  0
M  END
>  <UniqueID>  (51) 
486

>  <SMILES>  (51) 
c1ccc2c(c1)CCN(c1nc(N3CCNCC3)c/c(=N\CCN3CCOCC3)[nH]1)C2

>  <Energy>  (51) 
88.7815520603945

>  <Genealogy>  (51) 
c1ccc2c(c1)CCN(c1nc(N3CCNCC3)cc(=NCCN3CCOCC3)[nH]1)C2 (tautomer)
c1ccc2c(c1)CCN(c1nc(N3CCNCC3)c/c(=N\CCN3CCOCC3)[nH]1)C2 (cis-trans isomerization)
c1ccc2c(c1)CCN(c1nc(N3CCNCC3)c/c(=N\CCN3CCOCC3)[nH]1)C2 (3D coordinates assigned)
c1ccc2c(c1)CCN(c1nc(N3CCNCC3)c/c(=N\CCN3CCOCC3)[nH]1)C2 (nonaromatic ring conformer: 88.7815520603945 kcal/mol)

>  <smiles>  (51) 
c1ccc2c(c1)CCN(c1nc(NCCN3CCOCC3)cc(N3CCNCC3)n1)C2

>  <score_type>  (51) 
oracle

>  <origin>  (51) 
autodockgpu

>  <m_score__min__energy>  (51) 
-9.4499999999999993

>  <m_primary>  (51) 
energy

>  <meeko>  (51) 
{"free_energy": -9.33, "intermolecular_energy": -11.12, "internal_energy": -0.83, "cluster_size": 11, "cluster_id": 1, "rank_in_cluster": 10}

>  <energy>  (51) 
-9.08

>  <cluster_rmsd>  (51) 
0.54

>  <rmsd>  (51) 
270.87

>  <cluster>  (51) 
1

$$$$
DRRGDEWGQQLPRW-GHPUHYOANA-N
     RDKit          3D

 64 68  0  0  0  0  0  0  0  0999 V2000
  141.5750   68.8316  228.6362 H   0  0  0  0  0  0  0  0  0  0  0  0
  141.0120   68.8900  227.6930 C   0  0  0  0  0  0  0  0  0  0  0  0
  140.2930   67.7800  227.2390 C   0  0  0  0  0  0  0  0  0  0  0  0
  140.2919   66.8488  227.8245 H   0  0  0  0  0  0  0  0  0  0  0  0
  139.5760   67.8530  226.0420 C   0  0  0  0  0  0  0  0  0  0  0  0
  138.9994   66.9834  225.6936 H   0  0  0  0  0  0  0  0  0  0  0  0
  139.5900   69.0340  225.2830 C   0  0  0  0  0  0  0  0  0  0  0  0
  140.3150   70.1490  225.7350 C   0  0  0  0  0  0  0  0  0  0  0  0
  141.0160   70.0730  226.9500 C   0  0  0  0  0  0  0  0  0  0  0  0
  141.5705   70.9488  227.3180 H   0  0  0  0  0  0  0  0  0  0  0  0
  140.2800   71.4430  224.9570 C   0  0  0  0  0  0  0  0  0  0  0  0
  141.2402   71.9618  225.0941 H   0  0  0  0  0  0  0  0  0  0  0  0
  139.4373   72.0374  225.3398 H   0  0  0  0  0  0  0  0  0  0  0  0
  140.0580   71.2350  223.5120 N   0  0  0  0  0  0  0  0  0  0  0  0
  140.4030   72.2810  222.5760 C   0  0  0  0  0  0  0  0  0  0  0  0
  141.5720   72.2040  221.8860 N   0  0  0  0  0  0  0  0  0  0  0  0
  141.9500   73.1600  221.0000 C   0  0  0  0  0  0  0  0  0  0  0  0
  143.1860   73.0090  220.2760 N   0  0  0  0  0  0  0  0  0  0  0  0
  143.3400   72.0070  219.2140 C   0  0  0  0  0  0  0  0  0  0  0  0
  142.5252   71.2719  219.2896 H   0  0  0  0  0  0  0  0  0  0  0  0
  143.3046   72.5151  218.2390 H   0  0  0  0  0  0  0  0  0  0  0  0
  144.6940   71.2790  219.3470 C   0  0  0  0  0  0  0  0  0  0  0  0
  144.5394   70.3649  219.9391 H   0  0  0  0  0  0  0  0  0  0  0  0
  145.0443   71.0658  218.3263 H   0  0  0  0  0  0  0  0  0  0  0  0
  145.7440   72.0860  220.0020 N   0  0  0  0  0  0  0  0  0  0  0  0
  145.7280   71.8910  221.0320 H   0  0  0  0  0  0  0  0  0  0  0  0
  145.5540   73.5290  219.8020 C   0  0  0  0  0  0  0  0  0  0  0  0
  146.4036   74.0711  220.2429 H   0  0  0  0  0  0  0  0  0  0  0  0
  145.4933   73.7350  218.7232 H   0  0  0  0  0  0  0  0  0  0  0  0
  144.2540   73.9950  220.4720 C   0  0  0  0  0  0  0  0  0  0  0  0
  144.4305   74.1264  221.5498 H   0  0  0  0  0  0  0  0  0  0  0  0
  143.9436   74.9470  220.0166 H   0  0  0  0  0  0  0  0  0  0  0  0
  141.1010   74.2470  220.7680 C   0  0  0  0  0  0  0  0  0  0  0  0
  141.3739   75.0228  220.0375 H   0  0  0  0  0  0  0  0  0  0  0  0
  139.8930   74.3330  221.4830 C   0  0  0  0  0  0  0  0  0  0  0  0
  139.0580   75.3270  221.3260 N   0  0  0  0  0  0  0  0  0  0  0  0
  138.0650   75.5040  220.2630 C   0  0  0  0  0  0  0  0  0  0  0  0
  137.8976   76.5794  220.1036 H   0  0  0  0  0  0  0  0  0  0  0  0
  138.4475   75.0314  219.3463 H   0  0  0  0  0  0  0  0  0  0  0  0
  136.7300   74.8380  220.6340 C   0  0  0  0  0  0  0  0  0  0  0  0
  136.0419   75.6059  221.0173 H   0  0  0  0  0  0  0  0  0  0  0  0
  136.3206   74.3601  219.7318 H   0  0  0  0  0  0  0  0  0  0  0  0
  136.9120   73.7970  221.6680 N   0  0  0  0  0  0  0  0  0  0  0  0
  136.9540   72.4410  221.0760 C   0  0  0  0  0  0  0  0  0  0  0  0
  136.1173   72.3313  220.3703 H   0  0  0  0  0  0  0  0  0  0  0  0
  137.9164   72.3162  220.5582 H   0  0  0  0  0  0  0  0  0  0  0  0
  136.8400   71.3540  222.1650 C   0  0  0  0  0  0  0  0  0  0  0  0
  135.8255   70.9291  222.1453 H   0  0  0  0  0  0  0  0  0  0  0  0
  137.5870   70.5725  221.9620 H   0  0  0  0  0  0  0  0  0  0  0  0
  137.0900   71.8970  223.4460 O   0  0  0  0  0  0  0  0  0  0  0  0
  136.0700   72.8210  223.7800 C   0  0  0  0  0  0  0  0  0  0  0  0
  135.1335   72.2679  223.9445 H   0  0  0  0  0  0  0  0  0  0  0  0
  136.3890   73.3566  224.6863 H   0  0  0  0  0  0  0  0  0  0  0  0
  135.8360   73.8720  222.6730 C   0  0  0  0  0  0  0  0  0  0  0  0
  134.8690   73.6783  222.1859 H   0  0  0  0  0  0  0  0  0  0  0  0
  135.8335   74.8754  223.1238 H   0  0  0  0  0  0  0  0  0  0  0  0
  139.5730   73.3460  222.3660 N   0  0  0  0  0  0  0  0  0  0  0  0
  138.6610   73.4080  222.8730 H   0  0  0  0  0  0  0  0  0  0  0  0
  139.5980   69.9400  222.9750 C   0  0  0  0  0  0  0  0  0  0  0  0
  140.4746   69.3515  222.6664 H   0  0  0  0  0  0  0  0  0  0  0  0
  138.9348   70.1415  222.1209 H   0  0  0  0  0  0  0  0  0  0  0  0
  138.8060   69.1410  224.0120 C   0  0  0  0  0  0  0  0  0  0  0  0
  138.6071   68.1324  223.6206 H   0  0  0  0  0  0  0  0  0  0  0  0
  137.8556   69.6559  224.2160 H   0  0  0  0  0  0  0  0  0  0  0  0
  1  2  1  0
  2  3  2  0
  3  4  1  0
  3  5  1  0
  5  6  1  0
  5  7  2  0
  7  8  1  0
  8  9  2  0
  9 10  1  0
  8 11  1  0
 11 12  1  0
 11 13  1  0
 11 14  1  0
 14 15  1  0
 15 16  2  0
 16 17  1  0
 17 18  1  0
 18 19  1  0
 19 20  1  0
 19 21  1  0
 19 22  1  0
 22 23  1  0
 22 24  1  0
 22 25  1  0
 25 26  1  0
 25 27  1  0
 27 28  1  0
 27 29  1  0
 27 30  1  0
 30 31  1  0
 30 32  1  0
 17 33  2  0
 33 34  1  0
 33 35  1  0
 35 36  2  0
 36 37  1  0
 37 38  1  0
 37 39  1  0
 37 40  1  0
 40 41  1  0
 40 42  1  0
 40 43  1  0
 43 44  1  0
 44 45  1  0
 44 46  1  0
 44 47  1  0
 47 48  1  0
 47 49  1  0
 47 50  1  0
 50 51  1  0
 51 52  1  0
 51 53  1  0
 51 54  1  0
 54 55  1  0
 54 56  1  0
 35 57  1  0
 57 58  1  0
 14 59  1  0
 59 60  1  0
 59 61  1  0
 59 62  1  0
 62 63  1  0
 62 64  1  0
  9  2  1  0
 57 15  1  0
 62  7  1  0
 30 18  1  0
 54 43  1  0
M  END
>  <UniqueID>  (52) 
486

>  <SMILES>  (52) 
c1ccc2c(c1)CCN(c1nc(N3CCNCC3)c/c(=N\CCN3CCOCC3)[nH]1)C2

>  <Energy>  (52) 
88.7815520603945

>  <Genealogy>  (52) 
c1ccc2c(c1)CCN(c1nc(N3CCNCC3)cc(=NCCN3CCOCC3)[nH]1)C2 (tautomer)
c1ccc2c(c1)CCN(c1nc(N3CCNCC3)c/c(=N\CCN3CCOCC3)[nH]1)C2 (cis-trans isomerization)
c1ccc2c(c1)CCN(c1nc(N3CCNCC3)c/c(=N\CCN3CCOCC3)[nH]1)C2 (3D coordinates assigned)
c1ccc2c(c1)CCN(c1nc(N3CCNCC3)c/c(=N\CCN3CCOCC3)[nH]1)C2 (nonaromatic ring conformer: 88.7815520603945 kcal/mol)

>  <smiles>  (52) 
c1ccc2c(c1)CCN(c1nc(NCCN3CCOCC3)cc(N3CCNCC3)n1)C2

>  <score_type>  (52) 
oracle

>  <origin>  (52) 
autodockgpu

>  <m_score__min__energy>  (52) 
-9.4499999999999993

>  <m_primary>  (52) 
energy

>  <meeko>  (52) 
{"free_energy": -7.12, "intermolecular_energy": -8.91, "internal_energy": -2.79, "cluster_size": 5, "cluster_id": 4, "rank_in_cluster": 4}

>  <energy>  (52) 
-9.43

>  <cluster_rmsd>  (52) 
0.0

>  <rmsd>  (52) 
271.23

>  <cluster>  (52) 
2

$$$$
DRRGDEWGQQLPRW-GHPUHYOANA-N
     RDKit          3D

 64 68  0  0  0  0  0  0  0  0999 V2000
  141.5449   68.5577  228.2234 H   0  0  0  0  0  0  0  0  0  0  0  0
  140.9670   68.7480  227.3070 C   0  0  0  0  0  0  0  0  0  0  0  0
  140.0950   67.7720  226.8170 C   0  0  0  0  0  0  0  0  0  0  0  0
  139.9889   66.8137  227.3465 H   0  0  0  0  0  0  0  0  0  0  0  0
  139.3580   68.0130  225.6550 C   0  0  0  0  0  0  0  0  0  0  0  0
  138.6616   67.2492  225.2787 H   0  0  0  0  0  0  0  0  0  0  0  0
  139.5040   69.2280  224.9660 C   0  0  0  0  0  0  0  0  0  0  0  0
  140.3840   70.2080  225.4550 C   0  0  0  0  0  0  0  0  0  0  0  0
  141.1060   69.9650  226.6350 C   0  0  0  0  0  0  0  0  0  0  0  0
  141.7834   70.7357  227.0315 H   0  0  0  0  0  0  0  0  0  0  0  0
  140.4970   71.5410  224.7560 C   0  0  0  0  0  0  0  0  0  0  0  0
  141.5211   71.9206  224.8866 H   0  0  0  0  0  0  0  0  0  0  0  0
  139.7518   72.2143  225.2047 H   0  0  0  0  0  0  0  0  0  0  0  0
  140.2060   71.4560  223.3100 N   0  0  0  0  0  0  0  0  0  0  0  0
  140.6570   72.5050  222.4240 C   0  0  0  0  0  0  0  0  0  0  0  0
  141.8010   72.3330  221.7100 N   0  0  0  0  0  0  0  0  0  0  0  0
  142.2760   73.2860  220.8690 C   0  0  0  0  0  0  0  0  0  0  0  0
  143.4780   73.0350  220.1170 N   0  0  0  0  0  0  0  0  0  0  0  0
  143.5280   72.0150  219.0610 C   0  0  0  0  0  0  0  0  0  0  0  0
  142.6619   71.3448  219.1642 H   0  0  0  0  0  0  0  0  0  0  0  0
  143.5062   72.5161  218.0820 H   0  0  0  0  0  0  0  0  0  0  0  0
  144.8260   71.1870  219.1680 C   0  0  0  0  0  0  0  0  0  0  0  0
  144.6177   70.2924  219.7733 H   0  0  0  0  0  0  0  0  0  0  0  0
  145.1330   70.9389  218.1412 H   0  0  0  0  0  0  0  0  0  0  0  0
  145.9500   71.9170  219.7880 N   0  0  0  0  0  0  0  0  0  0  0  0
  145.9460   71.7310  220.8200 H   0  0  0  0  0  0  0  0  0  0  0  0
  145.8660   73.3680  219.5780 C   0  0  0  0  0  0  0  0  0  0  0  0
  146.7657   73.8469  219.9917 H   0  0  0  0  0  0  0  0  0  0  0  0
  145.7934   73.5691  218.4990 H   0  0  0  0  0  0  0  0  0  0  0  0
  144.6230   73.9380  220.2760 C   0  0  0  0  0  0  0  0  0  0  0  0
  144.8369   74.0644  221.3476 H   0  0  0  0  0  0  0  0  0  0  0  0
  144.3746   74.9073  219.8190 H   0  0  0  0  0  0  0  0  0  0  0  0
  141.5550   74.4740  220.7100 C   0  0  0  0  0  0  0  0  0  0  0  0
  141.9069   75.2524  220.0170 H   0  0  0  0  0  0  0  0  0  0  0  0
  140.3730   74.6580  221.4500 C   0  0  0  0  0  0  0  0  0  0  0  0
  139.6560   75.7470  221.3600 N   0  0  0  0  0  0  0  0  0  0  0  0
  140.1220   77.1360  221.4100 C   0  0  0  0  0  0  0  0  0  0  0  0
  141.2193   77.1493  221.3340 H   0  0  0  0  0  0  0  0  0  0  0  0
  139.6686   77.6860  220.5722 H   0  0  0  0  0  0  0  0  0  0  0  0
  139.7020   77.8160  222.7230 C   0  0  0  0  0  0  0  0  0  0  0  0
  138.7527   78.3480  222.5622 H   0  0  0  0  0  0  0  0  0  0  0  0
  139.5899   77.0390  223.4935 H   0  0  0  0  0  0  0  0  0  0  0  0
  140.7230   78.7830  223.1840 N   0  0  0  0  0  0  0  0  0  0  0  0
  140.1470   80.1330  223.3790 C   0  0  0  0  0  0  0  0  0  0  0  0
  139.5422   80.3960  222.4986 H   0  0  0  0  0  0  0  0  0  0  0  0
  139.5248   80.1193  224.2860 H   0  0  0  0  0  0  0  0  0  0  0  0
  141.2550   81.1890  223.5620 C   0  0  0  0  0  0  0  0  0  0  0  0
  141.3555   81.7701  222.6335 H   0  0  0  0  0  0  0  0  0  0  0  0
  140.9786   81.8469  224.3991 H   0  0  0  0  0  0  0  0  0  0  0  0
  142.4930   80.5750  223.8600 O   0  0  0  0  0  0  0  0  0  0  0  0
  142.9290   79.8150  222.7470 C   0  0  0  0  0  0  0  0  0  0  0  0
  143.2053   80.5045  221.9357 H   0  0  0  0  0  0  0  0  0  0  0  0
  143.7869   79.2082  223.0725 H   0  0  0  0  0  0  0  0  0  0  0  0
  141.8420   78.8490  222.2270 C   0  0  0  0  0  0  0  0  0  0  0  0
  141.4698   79.2087  221.2564 H   0  0  0  0  0  0  0  0  0  0  0  0
  142.2773   77.8453  222.1124 H   0  0  0  0  0  0  0  0  0  0  0  0
  139.9520   73.6670  222.2850 N   0  0  0  0  0  0  0  0  0  0  0  0
  139.0600   73.8050  222.8110 H   0  0  0  0  0  0  0  0  0  0  0  0
  139.5620   70.2680  222.7170 C   0  0  0  0  0  0  0  0  0  0  0  0
  140.3431   69.5908  222.3411 H   0  0  0  0  0  0  0  0  0  0  0  0
  138.9052   70.6077  221.9026 H   0  0  0  0  0  0  0  0  0  0  0  0
  138.7040   69.5160  223.7340 C   0  0  0  0  0  0  0  0  0  0  0  0
  138.3619   68.5685  223.2921 H   0  0  0  0  0  0  0  0  0  0  0  0
  137.8368   70.1367  224.0037 H   0  0  0  0  0  0  0  0  0  0  0  0
  1  2  1  0
  2  3  2  0
  3  4  1  0
  3  5  1  0
  5  6  1  0
  5  7  2  0
  7  8  1  0
  8  9  2  0
  9 10  1  0
  8 11  1  0
 11 12  1  0
 11 13  1  0
 11 14  1  0
 14 15  1  0
 15 16  2  0
 16 17  1  0
 17 18  1  0
 18 19  1  0
 19 20  1  0
 19 21  1  0
 19 22  1  0
 22 23  1  0
 22 24  1  0
 22 25  1  0
 25 26  1  0
 25 27  1  0
 27 28  1  0
 27 29  1  0
 27 30  1  0
 30 31  1  0
 30 32  1  0
 17 33  2  0
 33 34  1  0
 33 35  1  0
 35 36  2  0
 36 37  1  0
 37 38  1  0
 37 39  1  0
 37 40  1  0
 40 41  1  0
 40 42  1  0
 40 43  1  0
 43 44  1  0
 44 45  1  0
 44 46  1  0
 44 47  1  0
 47 48  1  0
 47 49  1  0
 47 50  1  0
 50 51  1  0
 51 52  1  0
 51 53  1  0
 51 54  1  0
 54 55  1  0
 54 56  1  0
 35 57  1  0
 57 58  1  0
 14 59  1  0
 59 60  1  0
 59 61  1  0
 59 62  1  0
 62 63  1  0
 62 64  1  0
  9  2  1  0
 57 15  1  0
 62  7  1  0
 30 18  1  0
 54 43  1  0
M  END
>  <UniqueID>  (53) 
486

>  <SMILES>  (53) 
c1ccc2c(c1)CCN(c1nc(N3CCNCC3)c/c(=N\CCN3CCOCC3)[nH]1)C2

>  <Energy>  (53) 
88.7815520603945

>  <Genealogy>  (53) 
c1ccc2c(c1)CCN(c1nc(N3CCNCC3)cc(=NCCN3CCOCC3)[nH]1)C2 (tautomer)
c1ccc2c(c1)CCN(c1nc(N3CCNCC3)c/c(=N\CCN3CCOCC3)[nH]1)C2 (cis-trans isomerization)
c1ccc2c(c1)CCN(c1nc(N3CCNCC3)c/c(=N\CCN3CCOCC3)[nH]1)C2 (3D coordinates assigned)
c1ccc2c(c1)CCN(c1nc(N3CCNCC3)c/c(=N\CCN3CCOCC3)[nH]1)C2 (nonaromatic ring conformer: 88.7815520603945 kcal/mol)

>  <smiles>  (53) 
c1ccc2c(c1)CCN(c1nc(NCCN3CCOCC3)cc(N3CCNCC3)n1)C2

>  <score_type>  (53) 
oracle

>  <origin>  (53) 
autodockgpu

>  <m_score__min__energy>  (53) 
-9.4499999999999993

>  <m_primary>  (53) 
energy

>  <meeko>  (53) 
{"free_energy": -9.38, "intermolecular_energy": -11.17, "internal_energy": -0.78, "cluster_size": 11, "cluster_id": 1, "rank_in_cluster": 8}

>  <energy>  (53) 
-8.13

>  <cluster_rmsd>  (53) 
0.0

>  <rmsd>  (53) 
270.44

>  <cluster>  (53) 
3

$$$$
DRRGDEWGQQLPRW-GHPUHYOANA-N
     RDKit          3D

 64 68  0  0  0  0  0  0  0  0999 V2000
  141.5307   68.5292  228.2456 H   0  0  0  0  0  0  0  0  0  0  0  0
  140.9600   68.7110  227.3230 C   0  0  0  0  0  0  0  0  0  0  0  0
  140.1140   67.7190  226.8190 C   0  0  0  0  0  0  0  0  0  0  0  0
  140.0219   66.7564  227.3432 H   0  0  0  0  0  0  0  0  0  0  0  0
  139.3850   67.9500  225.6490 C   0  0  0  0  0  0  0  0  0  0  0  0
  138.7075   67.1746  225.2620 H   0  0  0  0  0  0  0  0  0  0  0  0
  139.5160   69.1700  224.9670 C   0  0  0  0  0  0  0  0  0  0  0  0
  140.3700   70.1660  225.4690 C   0  0  0  0  0  0  0  0  0  0  0  0
  141.0820   69.9330  226.6570 C   0  0  0  0  0  0  0  0  0  0  0  0
  141.7384   70.7159  227.0647 H   0  0  0  0  0  0  0  0  0  0  0  0
  140.4640   71.5040  224.7760 C   0  0  0  0  0  0  0  0  0  0  0  0
  141.4785   71.9040  224.9201 H   0  0  0  0  0  0  0  0  0  0  0  0
  139.7001   72.1605  225.2181 H   0  0  0  0  0  0  0  0  0  0  0  0
  140.1920   71.4180  223.3270 N   0  0  0  0  0  0  0  0  0  0  0  0
  140.6330   72.4790  222.4500 C   0  0  0  0  0  0  0  0  0  0  0  0
  141.7890   72.3330  221.7500 N   0  0  0  0  0  0  0  0  0  0  0  0
  142.2550   73.2990  220.9180 C   0  0  0  0  0  0  0  0  0  0  0  0
  143.4700   73.0750  220.1800 N   0  0  0  0  0  0  0  0  0  0  0  0
  143.5270   72.1330  219.0540 C   0  0  0  0  0  0  0  0  0  0  0  0
  142.6445   71.4771  219.0860 H   0  0  0  0  0  0  0  0  0  0  0  0
  143.5421   72.7037  218.1137 H   0  0  0  0  0  0  0  0  0  0  0  0
  144.8040   71.2700  219.1340 C   0  0  0  0  0  0  0  0  0  0  0  0
  144.5603   70.3393  219.6673 H   0  0  0  0  0  0  0  0  0  0  0  0
  145.1334   71.0901  218.1000 H   0  0  0  0  0  0  0  0  0  0  0  0
  145.9270   71.9270  219.8340 N   0  0  0  0  0  0  0  0  0  0  0  0
  145.8910   71.6690  220.8490 H   0  0  0  0  0  0  0  0  0  0  0  0
  145.8780   73.3910  219.7270 C   0  0  0  0  0  0  0  0  0  0  0  0
  146.7761   73.8188  220.1964 H   0  0  0  0  0  0  0  0  0  0  0  0
  145.8377   73.6696  218.6636 H   0  0  0  0  0  0  0  0  0  0  0  0
  144.6300   73.9380  220.4320 C   0  0  0  0  0  0  0  0  0  0  0  0
  144.8179   73.9829  221.5149 H   0  0  0  0  0  0  0  0  0  0  0  0
  144.4145   74.9427  220.0393 H   0  0  0  0  0  0  0  0  0  0  0  0
  141.5110   74.4730  220.7540 C   0  0  0  0  0  0  0  0  0  0  0  0
  141.8550   75.2608  220.0677 H   0  0  0  0  0  0  0  0  0  0  0  0
  140.3170   74.6300  221.4800 C   0  0  0  0  0  0  0  0  0  0  0  0
  139.5780   75.7040  221.3850 N   0  0  0  0  0  0  0  0  0  0  0  0
  139.6390   76.9120  222.2130 C   0  0  0  0  0  0  0  0  0  0  0  0
  139.2802   77.7691  221.6243 H   0  0  0  0  0  0  0  0  0  0  0  0
  139.0065   76.7589  223.0999 H   0  0  0  0  0  0  0  0  0  0  0  0
  141.0760   77.1920  222.6820 C   0  0  0  0  0  0  0  0  0  0  0  0
  141.3427   76.4701  223.4679 H   0  0  0  0  0  0  0  0  0  0  0  0
  141.7473   77.0936  221.8162 H   0  0  0  0  0  0  0  0  0  0  0  0
  141.2120   78.5630  223.2220 N   0  0  0  0  0  0  0  0  0  0  0  0
  139.9550   79.3320  223.0830 C   0  0  0  0  0  0  0  0  0  0  0  0
  139.5725   79.2129  222.0585 H   0  0  0  0  0  0  0  0  0  0  0  0
  139.2282   78.9485  223.8142 H   0  0  0  0  0  0  0  0  0  0  0  0
  140.1870   80.8310  223.3630 C   0  0  0  0  0  0  0  0  0  0  0  0
  140.1951   81.3785  222.4090 H   0  0  0  0  0  0  0  0  0  0  0  0
  139.3759   81.1972  224.0096 H   0  0  0  0  0  0  0  0  0  0  0  0
  141.4180   81.0360  224.0240 O   0  0  0  0  0  0  0  0  0  0  0  0
  142.4870   80.6830  223.1630 C   0  0  0  0  0  0  0  0  0  0  0  0
  142.5407   81.4190  222.3472 H   0  0  0  0  0  0  0  0  0  0  0  0
  143.4097   80.6749  223.7618 H   0  0  0  0  0  0  0  0  0  0  0  0
  142.3130   79.2760  222.5500 C   0  0  0  0  0  0  0  0  0  0  0  0
  142.0838   79.3719  221.4784 H   0  0  0  0  0  0  0  0  0  0  0  0
  143.2449   78.7072  222.6842 H   0  0  0  0  0  0  0  0  0  0  0  0
  139.9060   73.6270  222.3070 N   0  0  0  0  0  0  0  0  0  0  0  0
  139.0040   73.7450  222.8220 H   0  0  0  0  0  0  0  0  0  0  0  0
  139.5800   70.2200  222.7220 C   0  0  0  0  0  0  0  0  0  0  0  0
  140.3793   69.5602  222.3535 H   0  0  0  0  0  0  0  0  0  0  0  0
  138.9266   70.5496  221.9007 H   0  0  0  0  0  0  0  0  0  0  0  0
  138.7240   69.4460  223.7260 C   0  0  0  0  0  0  0  0  0  0  0  0
  138.4069   68.4934  223.2766 H   0  0  0  0  0  0  0  0  0  0  0  0
  137.8405   70.0470  223.9870 H   0  0  0  0  0  0  0  0  0  0  0  0
  1  2  1  0
  2  3  2  0
  3  4  1  0
  3  5  1  0
  5  6  1  0
  5  7  2  0
  7  8  1  0
  8  9  2  0
  9 10  1  0
  8 11  1  0
 11 12  1  0
 11 13  1  0
 11 14  1  0
 14 15  1  0
 15 16  2  0
 16 17  1  0
 17 18  1  0
 18 19  1  0
 19 20  1  0
 19 21  1  0
 19 22  1  0
 22 23  1  0
 22 24  1  0
 22 25  1  0
 25 26  1  0
 25 27  1  0
 27 28  1  0
 27 29  1  0
 27 30  1  0
 30 31  1  0
 30 32  1  0
 17 33  2  0
 33 34  1  0
 33 35  1  0
 35 36  2  0
 36 37  1  0
 37 38  1  0
 37 39  1  0
 37 40  1  0
 40 41  1  0
 40 42  1  0
 40 43  1  0
 43 44  1  0
 44 45  1  0
 44 46  1  0
 44 47  1  0
 47 48  1  0
 47 49  1  0
 47 50  1  0
 50 51  1  0
 51 52  1  0
 51 53  1  0
 51 54  1  0
 54 55  1  0
 54 56  1  0
 35 57  1  0
 57 58  1  0
 14 59  1  0
 59 60  1  0
 59 61  1  0
 59 62  1  0
 62 63  1  0
 62 64  1  0
  9  2  1  0
 57 15  1  0
 62  7  1  0
 30 18  1  0
 54 43  1  0
M  END
>  <UniqueID>  (54) 
486

>  <SMILES>  (54) 
c1ccc2c(c1)CCN(c1nc(N3CCNCC3)c/c(=N\CCN3CCOCC3)[nH]1)C2

>  <Energy>  (54) 
88.7815520603945

>  <Genealogy>  (54) 
c1ccc2c(c1)CCN(c1nc(N3CCNCC3)cc(=NCCN3CCOCC3)[nH]1)C2 (tautomer)
c1ccc2c(c1)CCN(c1nc(N3CCNCC3)c/c(=N\CCN3CCOCC3)[nH]1)C2 (cis-trans isomerization)
c1ccc2c(c1)CCN(c1nc(N3CCNCC3)c/c(=N\CCN3CCOCC3)[nH]1)C2 (3D coordinates assigned)
c1ccc2c(c1)CCN(c1nc(N3CCNCC3)c/c(=N\CCN3CCOCC3)[nH]1)C2 (nonaromatic ring conformer: 88.7815520603945 kcal/mol)

>  <smiles>  (54) 
c1ccc2c(c1)CCN(c1nc(NCCN3CCOCC3)cc(N3CCNCC3)n1)C2

>  <score_type>  (54) 
oracle

>  <origin>  (54) 
autodockgpu

>  <m_score__min__energy>  (54) 
-9.4499999999999993

>  <m_primary>  (54) 
energy

>  <meeko>  (54) 
{"free_energy": -9.45, "intermolecular_energy": -11.24, "internal_energy": -0.8, "cluster_size": 11, "cluster_id": 1, "rank_in_cluster": 1}

>  <energy>  (54) 
-7.6

>  <cluster_rmsd>  (54) 
0.0

>  <rmsd>  (54) 
269.95

>  <cluster>  (54) 
4

$$$$
DRRGDEWGQQLPRW-GHPUHYOANA-N
     RDKit          3D

 64 68  0  0  0  0  0  0  0  0999 V2000
  141.5393   68.5931  228.3223 H   0  0  0  0  0  0  0  0  0  0  0  0
  140.9650   68.7650  227.4000 C   0  0  0  0  0  0  0  0  0  0  0  0
  140.1190   67.7660  226.9080 C   0  0  0  0  0  0  0  0  0  0  0  0
  140.0284   66.8093  227.4432 H   0  0  0  0  0  0  0  0  0  0  0  0
  139.3890   67.9830  225.7370 C   0  0  0  0  0  0  0  0  0  0  0  0
  138.7135   67.2018  225.3584 H   0  0  0  0  0  0  0  0  0  0  0  0
  139.5160   69.1970  225.0420 C   0  0  0  0  0  0  0  0  0  0  0  0
  140.3680   70.2000  225.5330 C   0  0  0  0  0  0  0  0  0  0  0  0
  141.0820   69.9810  226.7220 C   0  0  0  0  0  0  0  0  0  0  0  0
  141.7362   70.7701  227.1213 H   0  0  0  0  0  0  0  0  0  0  0  0
  140.4580   71.5310  224.8260 C   0  0  0  0  0  0  0  0  0  0  0  0
  141.4718   71.9348  224.9644 H   0  0  0  0  0  0  0  0  0  0  0  0
  139.6934   72.1905  225.2624 H   0  0  0  0  0  0  0  0  0  0  0  0
  140.1840   71.4290  223.3780 N   0  0  0  0  0  0  0  0  0  0  0  0
  140.6210   72.4830  222.4900 C   0  0  0  0  0  0  0  0  0  0  0  0
  141.7680   72.3250  221.7780 N   0  0  0  0  0  0  0  0  0  0  0  0
  142.2300   73.2840  220.9340 C   0  0  0  0  0  0  0  0  0  0  0  0
  143.4360   73.0480  220.1840 N   0  0  0  0  0  0  0  0  0  0  0  0
  143.4870   72.0630  219.0950 C   0  0  0  0  0  0  0  0  0  0  0  0
  142.6151   71.3964  219.1690 H   0  0  0  0  0  0  0  0  0  0  0  0
  143.4768   72.5963  218.1330 H   0  0  0  0  0  0  0  0  0  0  0  0
  144.7780   71.2220  219.1850 C   0  0  0  0  0  0  0  0  0  0  0  0
  144.5577   70.3092  219.7580 H   0  0  0  0  0  0  0  0  0  0  0  0
  145.0920   71.0067  218.1530 H   0  0  0  0  0  0  0  0  0  0  0  0
  145.9030   71.9220  219.8390 N   0  0  0  0  0  0  0  0  0  0  0  0
  145.8880   71.7030  220.8630 H   0  0  0  0  0  0  0  0  0  0  0  0
  145.8310   73.3790  219.6760 C   0  0  0  0  0  0  0  0  0  0  0  0
  146.7309   73.8373  220.1121 H   0  0  0  0  0  0  0  0  0  0  0  0
  145.7681   73.6152  218.6035 H   0  0  0  0  0  0  0  0  0  0  0  0
  144.5870   73.9360  220.3820 C   0  0  0  0  0  0  0  0  0  0  0  0
  144.7928   74.0254  221.4589 H   0  0  0  0  0  0  0  0  0  0  0  0
  144.3502   74.9217  219.9551 H   0  0  0  0  0  0  0  0  0  0  0  0
  141.4920   74.4600  220.7710 C   0  0  0  0  0  0  0  0  0  0  0  0
  141.8327   75.2412  220.0756 H   0  0  0  0  0  0  0  0  0  0  0  0
  140.3070   74.6290  221.5100 C   0  0  0  0  0  0  0  0  0  0  0  0
  139.5740   75.7070  221.4160 N   0  0  0  0  0  0  0  0  0  0  0  0
  139.5980   76.8880  222.2850 C   0  0  0  0  0  0  0  0  0  0  0  0
  138.9783   77.6775  221.8348 H   0  0  0  0  0  0  0  0  0  0  0  0
  139.2052   76.6025  223.2720 H   0  0  0  0  0  0  0  0  0  0  0  0
  141.0300   77.4160  222.4650 C   0  0  0  0  0  0  0  0  0  0  0  0
  141.4554   76.9886  223.3850 H   0  0  0  0  0  0  0  0  0  0  0  0
  141.6201   77.1190  221.5855 H   0  0  0  0  0  0  0  0  0  0  0  0
  141.0560   78.8920  222.5640 N   0  0  0  0  0  0  0  0  0  0  0  0
  142.3470   79.3800  223.0980 C   0  0  0  0  0  0  0  0  0  0  0  0
  142.6106   78.7944  223.9911 H   0  0  0  0  0  0  0  0  0  0  0  0
  143.1140   79.2629  222.3182 H   0  0  0  0  0  0  0  0  0  0  0  0
  142.2620   80.8720  223.4810 C   0  0  0  0  0  0  0  0  0  0  0  0
  142.1982   80.9599  224.5756 H   0  0  0  0  0  0  0  0  0  0  0  0
  143.1613   81.3830  223.1066 H   0  0  0  0  0  0  0  0  0  0  0  0
  141.1240   81.4770  222.9010 O   0  0  0  0  0  0  0  0  0  0  0  0
  139.9490   80.9160  223.4580 C   0  0  0  0  0  0  0  0  0  0  0  0
  139.8681   81.2368  224.5071 H   0  0  0  0  0  0  0  0  0  0  0  0
  139.0953   81.2677  222.8601 H   0  0  0  0  0  0  0  0  0  0  0  0
  139.9500   79.3720  223.4110 C   0  0  0  0  0  0  0  0  0  0  0  0
  140.0743   78.9771  224.4301 H   0  0  0  0  0  0  0  0  0  0  0  0
  138.9958   79.0240  222.9886 H   0  0  0  0  0  0  0  0  0  0  0  0
  139.9000   73.6340  222.3470 N   0  0  0  0  0  0  0  0  0  0  0  0
  139.0050   73.7600  222.8720 H   0  0  0  0  0  0  0  0  0  0  0  0
  139.5740   70.2240  222.7860 C   0  0  0  0  0  0  0  0  0  0  0  0
  140.3743   69.5626  222.4225 H   0  0  0  0  0  0  0  0  0  0  0  0
  138.9184   70.5439  221.9627 H   0  0  0  0  0  0  0  0  0  0  0  0
  138.7220   69.4580  223.7990 C   0  0  0  0  0  0  0  0  0  0  0  0
  138.4072   68.4999  223.3598 H   0  0  0  0  0  0  0  0  0  0  0  0
  137.8372   70.0593  224.0550 H   0  0  0  0  0  0  0  0  0  0  0  0
  1  2  1  0
  2  3  2  0
  3  4  1  0
  3  5  1  0
  5  6  1  0
  5  7  2  0
  7  8  1  0
  8  9  2  0
  9 10  1  0
  8 11  1  0
 11 12  1  0
 11 13  1  0
 11 14  1  0
 14 15  1  0
 15 16  2  0
 16 17  1  0
 17 18  1  0
 18 19  1  0
 19 20  1  0
 19 21  1  0
 19 22  1  0
 22 23  1  0
 22 24  1  0
 22 25  1  0
 25 26  1  0
 25 27  1  0
 27 28  1  0
 27 29  1  0
 27 30  1  0
 30 31  1  0
 30 32  1  0
 17 33  2  0
 33 34  1  0
 33 35  1  0
 35 36  2  0
 36 37  1  0
 37 38  1  0
 37 39  1  0
 37 40  1  0
 40 41  1  0
 40 42  1  0
 40 43  1  0
 43 44  1  0
 44 45  1  0
 44 46  1  0
 44 47  1  0
 47 48  1  0
 47 49  1  0
 47 50  1  0
 50 51  1  0
 51 52  1  0
 51 53  1  0
 51 54  1  0
 54 55  1  0
 54 56  1  0
 35 57  1  0
 57 58  1  0
 14 59  1  0
 59 60  1  0
 59 61  1  0
 59 62  1  0
 62 63  1  0
 62 64  1  0
  9  2  1  0
 57 15  1  0
 62  7  1  0
 30 18  1  0
 54 43  1  0
M  END
>  <UniqueID>  (55) 
486

>  <SMILES>  (55) 
c1ccc2c(c1)CCN(c1nc(N3CCNCC3)c/c(=N\CCN3CCOCC3)[nH]1)C2

>  <Energy>  (55) 
88.7815520603945

>  <Genealogy>  (55) 
c1ccc2c(c1)CCN(c1nc(N3CCNCC3)cc(=NCCN3CCOCC3)[nH]1)C2 (tautomer)
c1ccc2c(c1)CCN(c1nc(N3CCNCC3)c/c(=N\CCN3CCOCC3)[nH]1)C2 (cis-trans isomerization)
c1ccc2c(c1)CCN(c1nc(N3CCNCC3)c/c(=N\CCN3CCOCC3)[nH]1)C2 (3D coordinates assigned)
c1ccc2c(c1)CCN(c1nc(N3CCNCC3)c/c(=N\CCN3CCOCC3)[nH]1)C2 (nonaromatic ring conformer: 88.7815520603945 kcal/mol)

>  <smiles>  (55) 
c1ccc2c(c1)CCN(c1nc(NCCN3CCOCC3)cc(N3CCNCC3)n1)C2

>  <score_type>  (55) 
oracle

>  <origin>  (55) 
autodockgpu

>  <m_score__min__energy>  (55) 
-9.4499999999999993

>  <m_primary>  (55) 
energy

>  <meeko>  (55) 
{"free_energy": -9.42, "intermolecular_energy": -11.21, "internal_energy": -0.77, "cluster_size": 11, "cluster_id": 1, "rank_in_cluster": 3}

>  <energy>  (55) 
-7.5

>  <cluster_rmsd>  (55) 
0.42

>  <rmsd>  (55) 
270.06

>  <cluster>  (55) 
4

$$$$
DRRGDEWGQQLPRW-GHPUHYOANA-N
     RDKit          3D

 64 68  0  0  0  0  0  0  0  0999 V2000
  140.6226   83.0883  222.7855 H   0  0  0  0  0  0  0  0  0  0  0  0
  140.9420   82.4060  221.9840 C   0  0  0  0  0  0  0  0  0  0  0  0
  141.0180   82.8650  220.6660 C   0  0  0  0  0  0  0  0  0  0  0  0
  140.7573   83.9075  220.4309 H   0  0  0  0  0  0  0  0  0  0  0  0
  141.4250   82.0000  219.6470 C   0  0  0  0  0  0  0  0  0  0  0  0
  141.4980   82.3668  218.6125 H   0  0  0  0  0  0  0  0  0  0  0  0
  141.7410   80.6640  219.9400 C   0  0  0  0  0  0  0  0  0  0  0  0
  141.6610   80.2000  221.2640 C   0  0  0  0  0  0  0  0  0  0  0  0
  141.2710   81.0820  222.2850 C   0  0  0  0  0  0  0  0  0  0  0  0
  141.2244   80.7290  223.3258 H   0  0  0  0  0  0  0  0  0  0  0  0
  142.0620   78.7830  221.5960 C   0  0  0  0  0  0  0  0  0  0  0  0
  141.4583   78.4372  222.4481 H   0  0  0  0  0  0  0  0  0  0  0  0
  143.1361   78.7894  221.8332 H   0  0  0  0  0  0  0  0  0  0  0  0
  141.8610   77.8520  220.4660 N   0  0  0  0  0  0  0  0  0  0  0  0
  141.7910   76.4290  220.7140 C   0  0  0  0  0  0  0  0  0  0  0  0
  142.7900   75.6220  220.2700 N   0  0  0  0  0  0  0  0  0  0  0  0
  142.7730   74.2790  220.4670 C   0  0  0  0  0  0  0  0  0  0  0  0
  143.8750   73.4790  220.0000 N   0  0  0  0  0  0  0  0  0  0  0  0
  144.9280   73.0090  220.9100 C   0  0  0  0  0  0  0  0  0  0  0  0
  144.8823   73.5863  221.8452 H   0  0  0  0  0  0  0  0  0  0  0  0
  144.7692   71.9401  221.1157 H   0  0  0  0  0  0  0  0  0  0  0  0
  146.3190   73.1920  220.2680 C   0  0  0  0  0  0  0  0  0  0  0  0
  146.7235   74.1632  220.5891 H   0  0  0  0  0  0  0  0  0  0  0  0
  146.9379   72.3457  220.6007 H   0  0  0  0  0  0  0  0  0  0  0  0
  146.3060   73.1590  218.7920 N   0  0  0  0  0  0  0  0  0  0  0  0
  146.1970   74.1370  218.4320 H   0  0  0  0  0  0  0  0  0  0  0  0
  145.2070   72.3440  218.2560 C   0  0  0  0  0  0  0  0  0  0  0  0
  145.2948   72.2927  217.1607 H   0  0  0  0  0  0  0  0  0  0  0  0
  145.2683   71.3343  218.6882 H   0  0  0  0  0  0  0  0  0  0  0  0
  143.8520   72.9620  218.6260 C   0  0  0  0  0  0  0  0  0  0  0  0
  143.6304   73.7873  217.9334 H   0  0  0  0  0  0  0  0  0  0  0  0
  143.0773   72.1845  218.5537 H   0  0  0  0  0  0  0  0  0  0  0  0
  141.7070   73.7080  221.1710 C   0  0  0  0  0  0  0  0  0  0  0  0
  141.6817   72.6255  221.3646 H   0  0  0  0  0  0  0  0  0  0  0  0
  140.6690   74.5390  221.6270 C   0  0  0  0  0  0  0  0  0  0  0  0
  139.6370   74.0730  222.2810 N   0  0  0  0  0  0  0  0  0  0  0  0
  138.3720   73.5810  221.7280 C   0  0  0  0  0  0  0  0  0  0  0  0
  138.5677   73.0960  220.7603 H   0  0  0  0  0  0  0  0  0  0  0  0
  137.9357   72.8642  222.4392 H   0  0  0  0  0  0  0  0  0  0  0  0
  137.3730   74.7310  221.5200 C   0  0  0  0  0  0  0  0  0  0  0  0
  136.9022   74.6209  220.5320 H   0  0  0  0  0  0  0  0  0  0  0  0
  136.6203   74.6827  222.3207 H   0  0  0  0  0  0  0  0  0  0  0  0
  138.0400   76.0490  221.5900 N   0  0  0  0  0  0  0  0  0  0  0  0
  137.6730   76.7820  222.8230 C   0  0  0  0  0  0  0  0  0  0  0  0
  136.5811   76.7449  222.9511 H   0  0  0  0  0  0  0  0  0  0  0  0
  138.1795   76.3059  223.6755 H   0  0  0  0  0  0  0  0  0  0  0  0
  138.1210   78.2550  222.7490 C   0  0  0  0  0  0  0  0  0  0  0  0
  137.2439   78.8889  222.5517 H   0  0  0  0  0  0  0  0  0  0  0  0
  138.5855   78.5300  223.7074 H   0  0  0  0  0  0  0  0  0  0  0  0
  139.0690   78.4420  221.7170 O   0  0  0  0  0  0  0  0  0  0  0  0
  138.4570   78.2100  220.4600 C   0  0  0  0  0  0  0  0  0  0  0  0
  137.7399   79.0203  220.2620 H   0  0  0  0  0  0  0  0  0  0  0  0
  139.2530   78.1798  219.7014 H   0  0  0  0  0  0  0  0  0  0  0  0
  137.7070   76.8610  220.4070 C   0  0  0  0  0  0  0  0  0  0  0  0
  136.6232   77.0480  220.3876 H   0  0  0  0  0  0  0  0  0  0  0  0
  138.0096   76.3166  219.5003 H   0  0  0  0  0  0  0  0  0  0  0  0
  140.7390   75.8800  221.3910 N   0  0  0  0  0  0  0  0  0  0  0  0
  139.9740   76.4910  221.7570 H   0  0  0  0  0  0  0  0  0  0  0  0
  141.6140   78.3370  219.0950 C   0  0  0  0  0  0  0  0  0  0  0  0
  140.5284   78.3785  218.9228 H   0  0  0  0  0  0  0  0  0  0  0  0
  142.1007   77.6419  218.3950 H   0  0  0  0  0  0  0  0  0  0  0  0
  142.2040   79.7290  218.8670 C   0  0  0  0  0  0  0  0  0  0  0  0
  141.8760   80.1076  217.8877 H   0  0  0  0  0  0  0  0  0  0  0  0
  143.3018   79.6644  218.8938 H   0  0  0  0  0  0  0  0  0  0  0  0
  1  2  1  0
  2  3  2  0
  3  4  1  0
  3  5  1  0
  5  6  1  0
  5  7  2  0
  7  8  1  0
  8  9  2  0
  9 10  1  0
  8 11  1  0
 11 12  1  0
 11 13  1  0
 11 14  1  0
 14 15  1  0
 15 16  2  0
 16 17  1  0
 17 18  1  0
 18 19  1  0
 19 20  1  0
 19 21  1  0
 19 22  1  0
 22 23  1  0
 22 24  1  0
 22 25  1  0
 25 26  1  0
 25 27  1  0
 27 28  1  0
 27 29  1  0
 27 30  1  0
 30 31  1  0
 30 32  1  0
 17 33  2  0
 33 34  1  0
 33 35  1  0
 35 36  2  0
 36 37  1  0
 37 38  1  0
 37 39  1  0
 37 40  1  0
 40 41  1  0
 40 42  1  0
 40 43  1  0
 43 44  1  0
 44 45  1  0
 44 46  1  0
 44 47  1  0
 47 48  1  0
 47 49  1  0
 47 50  1  0
 50 51  1  0
 51 52  1  0
 51 53  1  0
 51 54  1  0
 54 55  1  0
 54 56  1  0
 35 57  1  0
 57 58  1  0
 14 59  1  0
 59 60  1  0
 59 61  1  0
 59 62  1  0
 62 63  1  0
 62 64  1  0
  9  2  1  0
 57 15  1  0
 62  7  1  0
 30 18  1  0
 54 43  1  0
M  END
>  <UniqueID>  (56) 
486

>  <SMILES>  (56) 
c1ccc2c(c1)CCN(c1nc(N3CCNCC3)c/c(=N\CCN3CCOCC3)[nH]1)C2

>  <Energy>  (56) 
88.7815520603945

>  <Genealogy>  (56) 
c1ccc2c(c1)CCN(c1nc(N3CCNCC3)cc(=NCCN3CCOCC3)[nH]1)C2 (tautomer)
c1ccc2c(c1)CCN(c1nc(N3CCNCC3)c/c(=N\CCN3CCOCC3)[nH]1)C2 (cis-trans isomerization)
c1ccc2c(c1)CCN(c1nc(N3CCNCC3)c/c(=N\CCN3CCOCC3)[nH]1)C2 (3D coordinates assigned)
c1ccc2c(c1)CCN(c1nc(N3CCNCC3)c/c(=N\CCN3CCOCC3)[nH]1)C2 (nonaromatic ring conformer: 88.7815520603945 kcal/mol)

>  <smiles>  (56) 
c1ccc2c(c1)CCN(c1nc(NCCN3CCOCC3)cc(N3CCNCC3)n1)C2

>  <score_type>  (56) 
oracle

>  <origin>  (56) 
autodockgpu

>  <m_score__min__energy>  (56) 
-9.4499999999999993

>  <m_primary>  (56) 
energy

>  <meeko>  (56) 
{"free_energy": -6.52, "intermolecular_energy": -8.31, "internal_energy": -3.08, "cluster_size": 2, "cluster_id": 5, "rank_in_cluster": 1}

>  <energy>  (56) 
-7.23

>  <cluster_rmsd>  (56) 
0.51

>  <rmsd>  (56) 
269.9

>  <cluster>  (56) 
4

$$$$
DRRGDEWGQQLPRW-GHPUHYOANA-N
     RDKit          3D

 64 68  0  0  0  0  0  0  0  0999 V2000
  141.4903   68.5169  228.1806 H   0  0  0  0  0  0  0  0  0  0  0  0
  140.9170   68.7200  227.2640 C   0  0  0  0  0  0  0  0  0  0  0  0
  140.0300   67.7600  226.7690 C   0  0  0  0  0  0  0  0  0  0  0  0
  139.9064   66.8021  227.2955 H   0  0  0  0  0  0  0  0  0  0  0  0
  139.3000   68.0170  225.6050 C   0  0  0  0  0  0  0  0  0  0  0  0
  138.5917   67.2664  225.2243 H   0  0  0  0  0  0  0  0  0  0  0  0
  139.4690   69.2310  224.9210 C   0  0  0  0  0  0  0  0  0  0  0  0
  140.3630   70.1960  225.4160 C   0  0  0  0  0  0  0  0  0  0  0  0
  141.0770   69.9370  226.5970 C   0  0  0  0  0  0  0  0  0  0  0  0
  141.7651   70.6954  226.9986 H   0  0  0  0  0  0  0  0  0  0  0  0
  140.5000   71.5290  224.7220 C   0  0  0  0  0  0  0  0  0  0  0  0
  141.5298   71.8913  224.8569 H   0  0  0  0  0  0  0  0  0  0  0  0
  139.7648   72.2132  225.1707 H   0  0  0  0  0  0  0  0  0  0  0  0
  140.2120   71.4530  223.2750 N   0  0  0  0  0  0  0  0  0  0  0  0
  140.6830   72.4980  222.3940 C   0  0  0  0  0  0  0  0  0  0  0  0
  141.7710   72.2730  221.6100 N   0  0  0  0  0  0  0  0  0  0  0  0
  142.2620   73.2190  220.7690 C   0  0  0  0  0  0  0  0  0  0  0  0
  143.3980   72.9130  219.9410 N   0  0  0  0  0  0  0  0  0  0  0  0
  144.3390   71.8390  220.2870 C   0  0  0  0  0  0  0  0  0  0  0  0
  144.1972   71.5597  221.3415 H   0  0  0  0  0  0  0  0  0  0  0  0
  144.1457   70.9741  219.6354 H   0  0  0  0  0  0  0  0  0  0  0  0
  145.7950   72.3050  220.0770 C   0  0  0  0  0  0  0  0  0  0  0  0
  146.1733   72.7005  221.0311 H   0  0  0  0  0  0  0  0  0  0  0  0
  146.3636   71.4304  219.7280 H   0  0  0  0  0  0  0  0  0  0  0  0
  145.9440   73.3530  219.0470 N   0  0  0  0  0  0  0  0  0  0  0  0
  145.8880   74.2920  219.5090 H   0  0  0  0  0  0  0  0  0  0  0  0
  144.9010   73.2820  218.0150 C   0  0  0  0  0  0  0  0  0  0  0  0
  145.1084   74.0326  217.2381 H   0  0  0  0  0  0  0  0  0  0  0  0
  144.9016   72.2732  217.5764 H   0  0  0  0  0  0  0  0  0  0  0  0
  143.5210   73.5570  218.6280 C   0  0  0  0  0  0  0  0  0  0  0  0
  143.3877   74.6427  218.7446 H   0  0  0  0  0  0  0  0  0  0  0  0
  142.7495   73.1469  217.9597 H   0  0  0  0  0  0  0  0  0  0  0  0
  141.6150   74.4570  220.6860 C   0  0  0  0  0  0  0  0  0  0  0  0
  141.9784   75.2316  219.9946 H   0  0  0  0  0  0  0  0  0  0  0  0
  140.4930   74.6960  221.5000 C   0  0  0  0  0  0  0  0  0  0  0  0
  139.8470   75.8320  221.4820 N   0  0  0  0  0  0  0  0  0  0  0  0
  140.0840   77.0120  222.3200 C   0  0  0  0  0  0  0  0  0  0  0  0
  139.1699   77.6233  222.3455 H   0  0  0  0  0  0  0  0  0  0  0  0
  140.3522   76.6724  223.3313 H   0  0  0  0  0  0  0  0  0  0  0  0
  141.2400   77.8620  221.7700 C   0  0  0  0  0  0  0  0  0  0  0  0
  142.1894   77.3402  221.9610 H   0  0  0  0  0  0  0  0  0  0  0  0
  141.0805   78.0036  220.6909 H   0  0  0  0  0  0  0  0  0  0  0  0
  141.2870   79.1940  222.4100 N   0  0  0  0  0  0  0  0  0  0  0  0
  141.1080   80.2810  221.4220 C   0  0  0  0  0  0  0  0  0  0  0  0
  141.7669   80.0955  220.5609 H   0  0  0  0  0  0  0  0  0  0  0  0
  140.0541   80.2961  221.1071 H   0  0  0  0  0  0  0  0  0  0  0  0
  141.4550   81.6530  222.0350 C   0  0  0  0  0  0  0  0  0  0  0  0
  142.4381   81.9759  221.6619 H   0  0  0  0  0  0  0  0  0  0  0  0
  140.6776   82.3747  221.7439 H   0  0  0  0  0  0  0  0  0  0  0  0
  141.4970   81.5790  223.4450 O   0  0  0  0  0  0  0  0  0  0  0  0
  142.5710   80.7460  223.8470 C   0  0  0  0  0  0  0  0  0  0  0  0
  143.5180   81.2559  223.6164 H   0  0  0  0  0  0  0  0  0  0  0  0
  142.4633   80.5600  224.9258 H   0  0  0  0  0  0  0  0  0  0  0  0
  142.5590   79.3770  223.1320 C   0  0  0  0  0  0  0  0  0  0  0  0
  143.3932   79.3329  222.4163 H   0  0  0  0  0  0  0  0  0  0  0  0
  142.6660   78.5786  223.8810 H   0  0  0  0  0  0  0  0  0  0  0  0
  140.0530   73.7080  222.3300 N   0  0  0  0  0  0  0  0  0  0  0  0
  139.2030   73.8890  222.9110 H   0  0  0  0  0  0  0  0  0  0  0  0
  139.5510   70.2790  222.6750 C   0  0  0  0  0  0  0  0  0  0  0  0
  140.3219   69.5905  222.2986 H   0  0  0  0  0  0  0  0  0  0  0  0
  138.9028   70.6323  221.8595 H   0  0  0  0  0  0  0  0  0  0  0  0
  138.6770   69.5370  223.6880 C   0  0  0  0  0  0  0  0  0  0  0  0
  138.3202   68.5970  223.2417 H   0  0  0  0  0  0  0  0  0  0  0  0
  137.8196   70.1711  223.9579 H   0  0  0  0  0  0  0  0  0  0  0  0
  1  2  1  0
  2  3  2  0
  3  4  1  0
  3  5  1  0
  5  6  1  0
  5  7  2  0
  7  8  1  0
  8  9  2  0
  9 10  1  0
  8 11  1  0
 11 12  1  0
 11 13  1  0
 11 14  1  0
 14 15  1  0
 15 16  2  0
 16 17  1  0
 17 18  1  0
 18 19  1  0
 19 20  1  0
 19 21  1  0
 19 22  1  0
 22 23  1  0
 22 24  1  0
 22 25  1  0
 25 26  1  0
 25 27  1  0
 27 28  1  0
 27 29  1  0
 27 30  1  0
 30 31  1  0
 30 32  1  0
 17 33  2  0
 33 34  1  0
 33 35  1  0
 35 36  2  0
 36 37  1  0
 37 38  1  0
 37 39  1  0
 37 40  1  0
 40 41  1  0
 40 42  1  0
 40 43  1  0
 43 44  1  0
 44 45  1  0
 44 46  1  0
 44 47  1  0
 47 48  1  0
 47 49  1  0
 47 50  1  0
 50 51  1  0
 51 52  1  0
 51 53  1  0
 51 54  1  0
 54 55  1  0
 54 56  1  0
 35 57  1  0
 57 58  1  0
 14 59  1  0
 59 60  1  0
 59 61  1  0
 59 62  1  0
 62 63  1  0
 62 64  1  0
  9  2  1  0
 57 15  1  0
 62  7  1  0
 30 18  1  0
 54 43  1  0
M  END
>  <UniqueID>  (57) 
486

>  <SMILES>  (57) 
c1ccc2c(c1)CCN(c1nc(N3CCNCC3)c/c(=N\CCN3CCOCC3)[nH]1)C2

>  <Energy>  (57) 
88.7815520603945

>  <Genealogy>  (57) 
c1ccc2c(c1)CCN(c1nc(N3CCNCC3)cc(=NCCN3CCOCC3)[nH]1)C2 (tautomer)
c1ccc2c(c1)CCN(c1nc(N3CCNCC3)c/c(=N\CCN3CCOCC3)[nH]1)C2 (cis-trans isomerization)
c1ccc2c(c1)CCN(c1nc(N3CCNCC3)c/c(=N\CCN3CCOCC3)[nH]1)C2 (3D coordinates assigned)
c1ccc2c(c1)CCN(c1nc(N3CCNCC3)c/c(=N\CCN3CCOCC3)[nH]1)C2 (nonaromatic ring conformer: 88.7815520603945 kcal/mol)

>  <smiles>  (57) 
c1ccc2c(c1)CCN(c1nc(NCCN3CCOCC3)cc(N3CCNCC3)n1)C2

>  <score_type>  (57) 
oracle

>  <origin>  (57) 
autodockgpu

>  <m_score__min__energy>  (57) 
-9.4499999999999993

>  <m_primary>  (57) 
energy

>  <meeko>  (57) 
{"free_energy": -9.36, "intermolecular_energy": -11.15, "internal_energy": -0.71, "cluster_size": 11, "cluster_id": 1, "rank_in_cluster": 9}

>  <energy>  (57) 
-7.12

>  <cluster_rmsd>  (57) 
0.58

>  <rmsd>  (57) 
269.89

>  <cluster>  (57) 
4

$$$$
DRRGDEWGQQLPRW-GHPUHYOANA-N
     RDKit          3D

 64 68  0  0  0  0  0  0  0  0999 V2000
  141.4657   68.4875  228.1199 H   0  0  0  0  0  0  0  0  0  0  0  0
  140.8950   68.7050  227.2050 C   0  0  0  0  0  0  0  0  0  0  0  0
  140.0110   67.7520  226.6910 C   0  0  0  0  0  0  0  0  0  0  0  0
  139.8877   66.7851  227.2008 H   0  0  0  0  0  0  0  0  0  0  0  0
  139.2840   68.0270  225.5300 C   0  0  0  0  0  0  0  0  0  0  0  0
  138.5781   67.2817  225.1347 H   0  0  0  0  0  0  0  0  0  0  0  0
  139.4530   69.2530  224.8670 C   0  0  0  0  0  0  0  0  0  0  0  0
  140.3440   70.2100  225.3800 C   0  0  0  0  0  0  0  0  0  0  0  0
  141.0550   69.9330  226.5590 C   0  0  0  0  0  0  0  0  0  0  0  0
  141.7404   70.6859  226.9753 H   0  0  0  0  0  0  0  0  0  0  0  0
  140.4800   71.5560  224.7080 C   0  0  0  0  0  0  0  0  0  0  0  0
  141.5086   71.9184  224.8516 H   0  0  0  0  0  0  0  0  0  0  0  0
  139.7422   72.2312  225.1659 H   0  0  0  0  0  0  0  0  0  0  0  0
  140.1960   71.5030  223.2590 N   0  0  0  0  0  0  0  0  0  0  0  0
  140.6680   72.5630  222.3970 C   0  0  0  0  0  0  0  0  0  0  0  0
  141.8240   72.3960  221.7010 N   0  0  0  0  0  0  0  0  0  0  0  0
  142.3180   73.3590  220.8820 C   0  0  0  0  0  0  0  0  0  0  0  0
  143.5310   73.1130  220.1470 N   0  0  0  0  0  0  0  0  0  0  0  0
  143.5690   72.1820  219.0110 C   0  0  0  0  0  0  0  0  0  0  0  0
  142.6699   71.5486  219.0321 H   0  0  0  0  0  0  0  0  0  0  0  0
  143.6029   72.7622  218.0771 H   0  0  0  0  0  0  0  0  0  0  0  0
  144.8230   71.2860  219.0870 C   0  0  0  0  0  0  0  0  0  0  0  0
  144.5534   70.3561  219.6091 H   0  0  0  0  0  0  0  0  0  0  0  0
  145.1524   71.1086  218.0526 H   0  0  0  0  0  0  0  0  0  0  0  0
  145.9590   71.9070  219.7990 N   0  0  0  0  0  0  0  0  0  0  0  0
  145.9120   71.6380  220.8110 H   0  0  0  0  0  0  0  0  0  0  0  0
  145.9480   73.3730  219.7080 C   0  0  0  0  0  0  0  0  0  0  0  0
  146.8548   73.7727  220.1854 H   0  0  0  0  0  0  0  0  0  0  0  0
  145.9194   73.6647  218.6478 H   0  0  0  0  0  0  0  0  0  0  0  0
  144.7110   73.9430  220.4150 C   0  0  0  0  0  0  0  0  0  0  0  0
  144.8950   73.9694  221.4992 H   0  0  0  0  0  0  0  0  0  0  0  0
  144.5229   74.9578  220.0346 H   0  0  0  0  0  0  0  0  0  0  0  0
  141.6050   74.5530  220.7280 C   0  0  0  0  0  0  0  0  0  0  0  0
  141.9718   75.3394  220.0520 H   0  0  0  0  0  0  0  0  0  0  0  0
  140.4120   74.7320  221.4510 C   0  0  0  0  0  0  0  0  0  0  0  0
  139.7020   75.8260  221.3650 N   0  0  0  0  0  0  0  0  0  0  0  0
  139.6360   76.9320  222.3260 C   0  0  0  0  0  0  0  0  0  0  0  0
  139.0881   77.7704  221.8712 H   0  0  0  0  0  0  0  0  0  0  0  0
  139.1205   76.5773  223.2307 H   0  0  0  0  0  0  0  0  0  0  0  0
  141.0420   77.4080  222.7220 C   0  0  0  0  0  0  0  0  0  0  0  0
  141.2826   77.0184  223.7222 H   0  0  0  0  0  0  0  0  0  0  0  0
  141.7561   77.0342  221.9735 H   0  0  0  0  0  0  0  0  0  0  0  0
  141.1280   78.8850  222.7480 N   0  0  0  0  0  0  0  0  0  0  0  0
  141.4130   79.4380  221.4050 C   0  0  0  0  0  0  0  0  0  0  0  0
  142.2451   78.8770  220.9546 H   0  0  0  0  0  0  0  0  0  0  0  0
  140.5062   79.3452  220.7892 H   0  0  0  0  0  0  0  0  0  0  0  0
  141.7980   80.9300  221.4890 C   0  0  0  0  0  0  0  0  0  0  0  0
  142.8855   81.0295  221.3568 H   0  0  0  0  0  0  0  0  0  0  0  0
  141.2636   81.4763  220.6978 H   0  0  0  0  0  0  0  0  0  0  0  0
  141.4320   81.4750  222.7410 O   0  0  0  0  0  0  0  0  0  0  0  0
  142.1990   80.8690  223.7660 C   0  0  0  0  0  0  0  0  0  0  0  0
  143.2435   81.1997  223.6671 H   0  0  0  0  0  0  0  0  0  0  0  0
  141.7672   81.1740  224.7306 H   0  0  0  0  0  0  0  0  0  0  0  0
  142.1600   79.3260  223.7020 C   0  0  0  0  0  0  0  0  0  0  0  0
  143.1412   78.9504  223.3760 H   0  0  0  0  0  0  0  0  0  0  0  0
  141.9205   78.9301  224.7000 H   0  0  0  0  0  0  0  0  0  0  0  0
  139.9720   73.7310  222.2640 N   0  0  0  0  0  0  0  0  0  0  0  0
  139.0710   73.8650  222.7770 H   0  0  0  0  0  0  0  0  0  0  0  0
  139.5390   70.3370  222.6390 C   0  0  0  0  0  0  0  0  0  0  0  0
  140.3126   69.6563  222.2541 H   0  0  0  0  0  0  0  0  0  0  0  0
  138.8920   70.7024  221.8279 H   0  0  0  0  0  0  0  0  0  0  0  0
  138.6640   69.5770  223.6360 C   0  0  0  0  0  0  0  0  0  0  0  0
  138.3112   68.6435  223.1733 H   0  0  0  0  0  0  0  0  0  0  0  0
  137.8040   70.2044  223.9131 H   0  0  0  0  0  0  0  0  0  0  0  0
  1  2  1  0
  2  3  2  0
  3  4  1  0
  3  5  1  0
  5  6  1  0
  5  7  2  0
  7  8  1  0
  8  9  2  0
  9 10  1  0
  8 11  1  0
 11 12  1  0
 11 13  1  0
 11 14  1  0
 14 15  1  0
 15 16  2  0
 16 17  1  0
 17 18  1  0
 18 19  1  0
 19 20  1  0
 19 21  1  0
 19 22  1  0
 22 23  1  0
 22 24  1  0
 22 25  1  0
 25 26  1  0
 25 27  1  0
 27 28  1  0
 27 29  1  0
 27 30  1  0
 30 31  1  0
 30 32  1  0
 17 33  2  0
 33 34  1  0
 33 35  1  0
 35 36  2  0
 36 37  1  0
 37 38  1  0
 37 39  1  0
 37 40  1  0
 40 41  1  0
 40 42  1  0
 40 43  1  0
 43 44  1  0
 44 45  1  0
 44 46  1  0
 44 47  1  0
 47 48  1  0
 47 49  1  0
 47 50  1  0
 50 51  1  0
 51 52  1  0
 51 53  1  0
 51 54  1  0
 54 55  1  0
 54 56  1  0
 35 57  1  0
 57 58  1  0
 14 59  1  0
 59 60  1  0
 59 61  1  0
 59 62  1  0
 62 63  1  0
 62 64  1  0
  9  2  1  0
 57 15  1  0
 62  7  1  0
 30 18  1  0
 54 43  1  0
M  END
>  <UniqueID>  (58) 
486

>  <SMILES>  (58) 
c1ccc2c(c1)CCN(c1nc(N3CCNCC3)c/c(=N\CCN3CCOCC3)[nH]1)C2

>  <Energy>  (58) 
88.7815520603945

>  <Genealogy>  (58) 
c1ccc2c(c1)CCN(c1nc(N3CCNCC3)cc(=NCCN3CCOCC3)[nH]1)C2 (tautomer)
c1ccc2c(c1)CCN(c1nc(N3CCNCC3)c/c(=N\CCN3CCOCC3)[nH]1)C2 (cis-trans isomerization)
c1ccc2c(c1)CCN(c1nc(N3CCNCC3)c/c(=N\CCN3CCOCC3)[nH]1)C2 (3D coordinates assigned)
c1ccc2c(c1)CCN(c1nc(N3CCNCC3)c/c(=N\CCN3CCOCC3)[nH]1)C2 (nonaromatic ring conformer: 88.7815520603945 kcal/mol)

>  <smiles>  (58) 
c1ccc2c(c1)CCN(c1nc(NCCN3CCOCC3)cc(N3CCNCC3)n1)C2

>  <score_type>  (58) 
oracle

>  <origin>  (58) 
autodockgpu

>  <m_score__min__energy>  (58) 
-9.4499999999999993

>  <m_primary>  (58) 
energy

>  <meeko>  (58) 
{"free_energy": -9.4, "intermolecular_energy": -11.19, "internal_energy": -0.79, "cluster_size": 11, "cluster_id": 1, "rank_in_cluster": 6}

>  <energy>  (58) 
-7.07

>  <cluster_rmsd>  (58) 
0.7

>  <rmsd>  (58) 
269.9

>  <cluster>  (58) 
4

$$$$
DRRGDEWGQQLPRW-GHPUHYOANA-N
     RDKit          3D

 64 68  0  0  0  0  0  0  0  0999 V2000
  141.5642   68.5481  228.2502 H   0  0  0  0  0  0  0  0  0  0  0  0
  140.9930   68.7250  227.3270 C   0  0  0  0  0  0  0  0  0  0  0  0
  140.1530   67.7270  226.8250 C   0  0  0  0  0  0  0  0  0  0  0  0
  140.0649   66.7655  227.3521 H   0  0  0  0  0  0  0  0  0  0  0  0
  139.4250   67.9510  225.6530 C   0  0  0  0  0  0  0  0  0  0  0  0
  138.7526   67.1706  225.2671 H   0  0  0  0  0  0  0  0  0  0  0  0
  139.5500   69.1700  224.9670 C   0  0  0  0  0  0  0  0  0  0  0  0
  140.3970   70.1720  225.4690 C   0  0  0  0  0  0  0  0  0  0  0  0
  141.1090   69.9470  226.6590 C   0  0  0  0  0  0  0  0  0  0  0  0
  141.7597   70.7350  227.0661 H   0  0  0  0  0  0  0  0  0  0  0  0
  140.4850   71.5090  224.7730 C   0  0  0  0  0  0  0  0  0  0  0  0
  141.4973   71.9145  224.9173 H   0  0  0  0  0  0  0  0  0  0  0  0
  139.7173   72.1627  225.2127 H   0  0  0  0  0  0  0  0  0  0  0  0
  140.2150   71.4180  223.3230 N   0  0  0  0  0  0  0  0  0  0  0  0
  140.6520   72.4800  222.4440 C   0  0  0  0  0  0  0  0  0  0  0  0
  141.8070   72.3360  221.7430 N   0  0  0  0  0  0  0  0  0  0  0  0
  142.2690   73.3030  220.9090 C   0  0  0  0  0  0  0  0  0  0  0  0
  143.4840   73.0820  220.1700 N   0  0  0  0  0  0  0  0  0  0  0  0
  143.5400   72.1460  219.0390 C   0  0  0  0  0  0  0  0  0  0  0  0
  142.6571   71.4905  219.0680 H   0  0  0  0  0  0  0  0  0  0  0  0
  143.5551   72.7220  218.1020 H   0  0  0  0  0  0  0  0  0  0  0  0
  144.8160   71.2820  219.1130 C   0  0  0  0  0  0  0  0  0  0  0  0
  144.5719   70.3481  219.6404 H   0  0  0  0  0  0  0  0  0  0  0  0
  145.1449   71.1085  218.0778 H   0  0  0  0  0  0  0  0  0  0  0  0
  145.9400   71.9340  219.8170 N   0  0  0  0  0  0  0  0  0  0  0  0
  145.9030   71.6690  220.8300 H   0  0  0  0  0  0  0  0  0  0  0  0
  145.8930   73.3980  219.7190 C   0  0  0  0  0  0  0  0  0  0  0  0
  146.7915   73.8217  220.1914 H   0  0  0  0  0  0  0  0  0  0  0  0
  145.8534   73.6830  218.6573 H   0  0  0  0  0  0  0  0  0  0  0  0
  144.6450   73.9430  220.4270 C   0  0  0  0  0  0  0  0  0  0  0  0
  144.8327   73.9821  221.5102 H   0  0  0  0  0  0  0  0  0  0  0  0
  144.4306   74.9500  220.0398 H   0  0  0  0  0  0  0  0  0  0  0  0
  141.5210   74.4740  220.7440 C   0  0  0  0  0  0  0  0  0  0  0  0
  141.8612   75.2618  220.0558 H   0  0  0  0  0  0  0  0  0  0  0  0
  140.3270   74.6280  221.4720 C   0  0  0  0  0  0  0  0  0  0  0  0
  139.5850   75.7000  221.3760 N   0  0  0  0  0  0  0  0  0  0  0  0
  139.5870   76.8740  222.2530 C   0  0  0  0  0  0  0  0  0  0  0  0
  139.0252   77.6855  221.7675 H   0  0  0  0  0  0  0  0  0  0  0  0
  139.1186   76.5957  223.2086 H   0  0  0  0  0  0  0  0  0  0  0  0
  141.0200   77.3550  222.5350 C   0  0  0  0  0  0  0  0  0  0  0  0
  141.3567   76.9322  223.4930 H   0  0  0  0  0  0  0  0  0  0  0  0
  141.6650   77.0190  221.7097 H   0  0  0  0  0  0  0  0  0  0  0  0
  141.0930   78.8300  222.6090 N   0  0  0  0  0  0  0  0  0  0  0  0
  142.4040   79.2870  223.1220 C   0  0  0  0  0  0  0  0  0  0  0  0
  142.6584   78.7093  224.0228 H   0  0  0  0  0  0  0  0  0  0  0  0
  143.1591   79.1325  222.3372 H   0  0  0  0  0  0  0  0  0  0  0  0
  142.3690   80.7870  223.4790 C   0  0  0  0  0  0  0  0  0  0  0  0
  142.3187   80.8959  224.5724 H   0  0  0  0  0  0  0  0  0  0  0  0
  143.2800   81.2630  223.0871 H   0  0  0  0  0  0  0  0  0  0  0  0
  141.2450   81.4170  222.8990 O   0  0  0  0  0  0  0  0  0  0  0  0
  140.0590   80.9030  223.4770 C   0  0  0  0  0  0  0  0  0  0  0  0
  139.9993   81.2440  224.5211 H   0  0  0  0  0  0  0  0  0  0  0  0
  139.2109   81.2713  222.8812 H   0  0  0  0  0  0  0  0  0  0  0  0
  140.0100   79.3600  223.4570 C   0  0  0  0  0  0  0  0  0  0  0  0
  140.1306   78.9788  224.4818 H   0  0  0  0  0  0  0  0  0  0  0  0
  139.0414   79.0357  223.0487 H   0  0  0  0  0  0  0  0  0  0  0  0
  139.9210   73.6250  222.3000 N   0  0  0  0  0  0  0  0  0  0  0  0
  139.0200   73.7400  222.8170 H   0  0  0  0  0  0  0  0  0  0  0  0
  139.6110   70.2150  222.7200 C   0  0  0  0  0  0  0  0  0  0  0  0
  140.4146   69.5591  222.3540 H   0  0  0  0  0  0  0  0  0  0  0  0
  138.9568   70.5384  221.8969 H   0  0  0  0  0  0  0  0  0  0  0  0
  138.7590   69.4390  223.7250 C   0  0  0  0  0  0  0  0  0  0  0  0
  138.4475   68.4837  223.2775 H   0  0  0  0  0  0  0  0  0  0  0  0
  137.8724   70.0364  223.9840 H   0  0  0  0  0  0  0  0  0  0  0  0
  1  2  1  0
  2  3  2  0
  3  4  1  0
  3  5  1  0
  5  6  1  0
  5  7  2  0
  7  8  1  0
  8  9  2  0
  9 10  1  0
  8 11  1  0
 11 12  1  0
 11 13  1  0
 11 14  1  0
 14 15  1  0
 15 16  2  0
 16 17  1  0
 17 18  1  0
 18 19  1  0
 19 20  1  0
 19 21  1  0
 19 22  1  0
 22 23  1  0
 22 24  1  0
 22 25  1  0
 25 26  1  0
 25 27  1  0
 27 28  1  0
 27 29  1  0
 27 30  1  0
 30 31  1  0
 30 32  1  0
 17 33  2  0
 33 34  1  0
 33 35  1  0
 35 36  2  0
 36 37  1  0
 37 38  1  0
 37 39  1  0
 37 40  1  0
 40 41  1  0
 40 42  1  0
 40 43  1  0
 43 44  1  0
 44 45  1  0
 44 46  1  0
 44 47  1  0
 47 48  1  0
 47 49  1  0
 47 50  1  0
 50 51  1  0
 51 52  1  0
 51 53  1  0
 51 54  1  0
 54 55  1  0
 54 56  1  0
 35 57  1  0
 57 58  1  0
 14 59  1  0
 59 60  1  0
 59 61  1  0
 59 62  1  0
 62 63  1  0
 62 64  1  0
  9  2  1  0
 57 15  1  0
 62  7  1  0
 30 18  1  0
 54 43  1  0
M  END
>  <UniqueID>  (59) 
486

>  <SMILES>  (59) 
c1ccc2c(c1)CCN(c1nc(N3CCNCC3)c/c(=N\CCN3CCOCC3)[nH]1)C2

>  <Energy>  (59) 
88.7815520603945

>  <Genealogy>  (59) 
c1ccc2c(c1)CCN(c1nc(N3CCNCC3)cc(=NCCN3CCOCC3)[nH]1)C2 (tautomer)
c1ccc2c(c1)CCN(c1nc(N3CCNCC3)c/c(=N\CCN3CCOCC3)[nH]1)C2 (cis-trans isomerization)
c1ccc2c(c1)CCN(c1nc(N3CCNCC3)c/c(=N\CCN3CCOCC3)[nH]1)C2 (3D coordinates assigned)
c1ccc2c(c1)CCN(c1nc(N3CCNCC3)c/c(=N\CCN3CCOCC3)[nH]1)C2 (nonaromatic ring conformer: 88.7815520603945 kcal/mol)

>  <smiles>  (59) 
c1ccc2c(c1)CCN(c1nc(NCCN3CCOCC3)cc(N3CCNCC3)n1)C2

>  <score_type>  (59) 
oracle

>  <origin>  (59) 
autodockgpu

>  <m_score__min__energy>  (59) 
-9.4499999999999993

>  <m_primary>  (59) 
energy

>  <meeko>  (59) 
{"free_energy": -9.41, "intermolecular_energy": -11.2, "internal_energy": -0.78, "cluster_size": 11, "cluster_id": 1, "rank_in_cluster": 5}

>  <energy>  (59) 
-6.52

>  <cluster_rmsd>  (59) 
0.0

>  <rmsd>  (59) 
270.28

>  <cluster>  (59) 
5

$$$$
DRRGDEWGQQLPRW-GHPUHYOANA-N
     RDKit          3D

 64 68  0  0  0  0  0  0  0  0999 V2000
  141.7553   70.5297  229.2207 H   0  0  0  0  0  0  0  0  0  0  0  0
  141.1450   70.3030  228.3340 C   0  0  0  0  0  0  0  0  0  0  0  0
  140.3840   69.1310  228.2920 C   0  0  0  0  0  0  0  0  0  0  0  0
  140.3969   68.4358  229.1444 H   0  0  0  0  0  0  0  0  0  0  0  0
  139.6070   68.8430  227.1670 C   0  0  0  0  0  0  0  0  0  0  0  0
  138.9967   67.9282  227.1415 H   0  0  0  0  0  0  0  0  0  0  0  0
  139.6030   69.7180  226.0690 C   0  0  0  0  0  0  0  0  0  0  0  0
  140.3700   70.8940  226.1080 C   0  0  0  0  0  0  0  0  0  0  0  0
  141.1320   71.1870  227.2520 C   0  0  0  0  0  0  0  0  0  0  0  0
  141.7202   72.1155  227.2957 H   0  0  0  0  0  0  0  0  0  0  0  0
  140.3190   71.8710  224.9590 C   0  0  0  0  0  0  0  0  0  0  0  0
  141.2945   72.3734  224.8813 H   0  0  0  0  0  0  0  0  0  0  0  0
  139.5080   72.5845  225.1666 H   0  0  0  0  0  0  0  0  0  0  0  0
  140.0190   71.2200  223.6670 N   0  0  0  0  0  0  0  0  0  0  0  0
  140.3340   71.9000  222.4310 C   0  0  0  0  0  0  0  0  0  0  0  0
  140.2700   73.2570  222.3780 N   0  0  0  0  0  0  0  0  0  0  0  0
  140.5480   73.9480  221.2430 C   0  0  0  0  0  0  0  0  0  0  0  0
  140.4920   75.3860  221.2560 N   0  0  0  0  0  0  0  0  0  0  0  0
  140.9550   76.1870  220.1150 C   0  0  0  0  0  0  0  0  0  0  0  0
  141.5710   75.5565  219.4570 H   0  0  0  0  0  0  0  0  0  0  0  0
  140.0785   76.5652  219.5684 H   0  0  0  0  0  0  0  0  0  0  0  0
  141.7950   77.3870  220.5990 C   0  0  0  0  0  0  0  0  0  0  0  0
  142.8550   77.0932  220.5926 H   0  0  0  0  0  0  0  0  0  0  0  0
  141.5849   78.2217  219.9141 H   0  0  0  0  0  0  0  0  0  0  0  0
  141.4480   77.8490  221.9590 N   0  0  0  0  0  0  0  0  0  0  0  0
  142.0610   77.3550  222.6510 H   0  0  0  0  0  0  0  0  0  0  0  0
  140.0470   77.5780  222.3060 C   0  0  0  0  0  0  0  0  0  0  0  0
  139.8275   78.0125  223.2924 H   0  0  0  0  0  0  0  0  0  0  0  0
  139.3968   78.0280  221.5413 H   0  0  0  0  0  0  0  0  0  0  0  0
  139.7890   76.0650  222.3510 C   0  0  0  0  0  0  0  0  0  0  0  0
  140.1465   75.6662  223.3118 H   0  0  0  0  0  0  0  0  0  0  0  0
  138.7090   75.8870  222.2420 H   0  0  0  0  0  0  0  0  0  0  0  0
  140.9370   73.2460  220.0970 C   0  0  0  0  0  0  0  0  0  0  0  0
  141.1904   73.7838  219.1715 H   0  0  0  0  0  0  0  0  0  0  0  0
  140.9990   71.8410  220.1470 C   0  0  0  0  0  0  0  0  0  0  0  0
  141.3430   71.1210  219.1120 N   0  0  0  0  0  0  0  0  0  0  0  0
  142.6050   70.4080  218.8940 C   0  0  0  0  0  0  0  0  0  0  0  0
  142.3930   69.3377  218.7540 H   0  0  0  0  0  0  0  0  0  0  0  0
  143.0921   70.8267  218.0010 H   0  0  0  0  0  0  0  0  0  0  0  0
  143.5540   70.5790  220.0920 C   0  0  0  0  0  0  0  0  0  0  0  0
  142.9752   70.9295  220.9592 H   0  0  0  0  0  0  0  0  0  0  0  0
  144.0237   69.6067  220.3015 H   0  0  0  0  0  0  0  0  0  0  0  0
  144.6240   71.5580  219.8010 N   0  0  0  0  0  0  0  0  0  0  0  0
  144.7140   72.5960  220.8520 C   0  0  0  0  0  0  0  0  0  0  0  0
  143.7052   72.9783  221.0666 H   0  0  0  0  0  0  0  0  0  0  0  0
  145.1560   72.1441  221.7522 H   0  0  0  0  0  0  0  0  0  0  0  0
  145.6110   73.7670  220.4010 C   0  0  0  0  0  0  0  0  0  0  0  0
  144.9760   74.6230  220.1288 H   0  0  0  0  0  0  0  0  0  0  0  0
  146.2824   74.0350  221.2301 H   0  0  0  0  0  0  0  0  0  0  0  0
  146.3960   73.4000  219.2850 O   0  0  0  0  0  0  0  0  0  0  0  0
  145.5580   73.1650  218.1680 C   0  0  0  0  0  0  0  0  0  0  0  0
  145.1300   74.1239  217.8403 H   0  0  0  0  0  0  0  0  0  0  0  0
  146.1728   72.7059  217.3799 H   0  0  0  0  0  0  0  0  0  0  0  0
  144.4030   72.1910  218.4890 C   0  0  0  0  0  0  0  0  0  0  0  0
  143.4536   72.7463  218.5083 H   0  0  0  0  0  0  0  0  0  0  0  0
  144.3646   71.4106  217.7147 H   0  0  0  0  0  0  0  0  0  0  0  0
  140.7000   71.2050  221.3140 N   0  0  0  0  0  0  0  0  0  0  0  0
  140.7740   70.1630  221.3450 H   0  0  0  0  0  0  0  0  0  0  0  0
  139.5080   69.8380  223.5950 C   0  0  0  0  0  0  0  0  0  0  0  0
  140.3565   69.1524  223.4536 H   0  0  0  0  0  0  0  0  0  0  0  0
  138.8045   69.7789  222.7515 H   0  0  0  0  0  0  0  0  0  0  0  0
  138.7570   69.4390  224.8660 C   0  0  0  0  0  0  0  0  0  0  0  0
  138.5208   68.3653  224.8278 H   0  0  0  0  0  0  0  0  0  0  0  0
  137.8274   70.0231  224.9347 H   0  0  0  0  0  0  0  0  0  0  0  0
  1  2  1  0
  2  3  2  0
  3  4  1  0
  3  5  1  0
  5  6  1  0
  5  7  2  0
  7  8  1  0
  8  9  2  0
  9 10  1  0
  8 11  1  0
 11 12  1  0
 11 13  1  0
 11 14  1  0
 14 15  1  0
 15 16  2  0
 16 17  1  0
 17 18  1  0
 18 19  1  0
 19 20  1  0
 19 21  1  0
 19 22  1  0
 22 23  1  0
 22 24  1  0
 22 25  1  0
 25 26  1  0
 25 27  1  0
 27 28  1  0
 27 29  1  0
 27 30  1  0
 30 31  1  0
 30 32  1  0
 17 33  2  0
 33 34  1  0
 33 35  1  0
 35 36  2  0
 36 37  1  0
 37 38  1  0
 37 39  1  0
 37 40  1  0
 40 41  1  0
 40 42  1  0
 40 43  1  0
 43 44  1  0
 44 45  1  0
 44 46  1  0
 44 47  1  0
 47 48  1  0
 47 49  1  0
 47 50  1  0
 50 51  1  0
 51 52  1  0
 51 53  1  0
 51 54  1  0
 54 55  1  0
 54 56  1  0
 35 57  1  0
 57 58  1  0
 14 59  1  0
 59 60  1  0
 59 61  1  0
 59 62  1  0
 62 63  1  0
 62 64  1  0
  9  2  1  0
 57 15  1  0
 62  7  1  0
 30 18  1  0
 54 43  1  0
M  END
>  <UniqueID>  (60) 
486

>  <SMILES>  (60) 
c1ccc2c(c1)CCN(c1nc(N3CCNCC3)c/c(=N\CCN3CCOCC3)[nH]1)C2

>  <Energy>  (60) 
88.7815520603945

>  <Genealogy>  (60) 
c1ccc2c(c1)CCN(c1nc(N3CCNCC3)cc(=NCCN3CCOCC3)[nH]1)C2 (tautomer)
c1ccc2c(c1)CCN(c1nc(N3CCNCC3)c/c(=N\CCN3CCOCC3)[nH]1)C2 (cis-trans isomerization)
c1ccc2c(c1)CCN(c1nc(N3CCNCC3)c/c(=N\CCN3CCOCC3)[nH]1)C2 (3D coordinates assigned)
c1ccc2c(c1)CCN(c1nc(N3CCNCC3)c/c(=N\CCN3CCOCC3)[nH]1)C2 (nonaromatic ring conformer: 88.7815520603945 kcal/mol)

>  <smiles>  (60) 
c1ccc2c(c1)CCN(c1nc(NCCN3CCOCC3)cc(N3CCNCC3)n1)C2

>  <score_type>  (60) 
oracle

>  <origin>  (60) 
autodockgpu

>  <m_score__min__energy>  (60) 
-9.4499999999999993

>  <m_primary>  (60) 
energy

>  <meeko>  (60) 
{"free_energy": -8.13, "intermolecular_energy": -9.92, "internal_energy": -1.23, "cluster_size": 1, "cluster_id": 3, "rank_in_cluster": 1}

>  <energy>  (60) 
-6.51

>  <cluster_rmsd>  (60) 
0.05

>  <rmsd>  (60) 
270.29

>  <cluster>  (60) 
5

$$$$
DRRGDEWGQQLPRW-CXKBQSNCNA-P
     RDKit          3D

 66 70  0  0  0  0  0  0  0  0999 V2000
  141.2036   70.4654  229.1201 H   0  0  0  0  0  0  0  0  0  0  0  0
  140.7390   70.2480  228.1470 C   0  0  0  0  0  0  0  0  0  0  0  0
  139.7810   69.2380  228.0430 C   0  0  0  0  0  0  0  0  0  0  0  0
  139.4961   68.6573  228.9327 H   0  0  0  0  0  0  0  0  0  0  0  0
  139.1840   68.9640  226.8110 C   0  0  0  0  0  0  0  0  0  0  0  0
  138.4260   68.1703  226.7368 H   0  0  0  0  0  0  0  0  0  0  0  0
  139.5430   69.6930  225.6660 C   0  0  0  0  0  0  0  0  0  0  0  0
  140.5090   70.7240  225.7750 C   0  0  0  0  0  0  0  0  0  0  0  0
  141.1090   70.9830  227.0190 C   0  0  0  0  0  0  0  0  0  0  0  0
  141.8740   71.7688  227.1046 H   0  0  0  0  0  0  0  0  0  0  0  0
  140.9570   71.5100  224.5660 C   0  0  0  0  0  0  0  0  0  0  0  0
  141.9459   71.1491  224.2469 H   0  0  0  0  0  0  0  0  0  0  0  0
  141.0081   72.5752  224.8359 H   0  0  0  0  0  0  0  0  0  0  0  0
  140.0070   71.3490  223.4620 N   0  0  0  0  0  0  0  0  0  0  0  0
  139.5450   72.4950  222.7280 C   0  0  0  0  0  0  0  0  0  0  0  0
  140.4490   73.3790  222.2330 N   0  0  0  0  0  0  0  0  0  0  0  0
  140.0730   74.5100  221.5810 C   0  0  0  0  0  0  0  0  0  0  0  0
  141.0880   75.4170  221.0830 N   0  0  0  0  0  0  0  0  0  0  0  0
  141.0530   76.8540  221.4110 C   0  0  0  0  0  0  0  0  0  0  0  0
  140.0046   77.1768  221.4929 H   0  0  0  0  0  0  0  0  0  0  0  0
  141.5836   77.0046  222.3627 H   0  0  0  0  0  0  0  0  0  0  0  0
  141.7510   77.6930  220.3310 C   0  0  0  0  0  0  0  0  0  0  0  0
  141.1255   77.7033  219.4262 H   0  0  0  0  0  0  0  0  0  0  0  0
  141.8907   78.7119  220.7213 H   0  0  0  0  0  0  0  0  0  0  0  0
  143.0710   77.1430  219.9930 N   0  0  0  0  0  0  0  0  0  0  0  0
  143.6990   77.1630  220.8290 H   0  0  0  0  0  0  0  0  0  0  0  0
  143.4980   77.7350  219.2420 H   0  0  0  0  0  0  0  0  0  0  0  0
  142.9450   75.7710  219.4890 C   0  0  0  0  0  0  0  0  0  0  0  0
  142.2914   75.7698  218.6042 H   0  0  0  0  0  0  0  0  0  0  0  0
  143.9454   75.3978  219.2246 H   0  0  0  0  0  0  0  0  0  0  0  0
  142.3450   74.8560  220.5580 C   0  0  0  0  0  0  0  0  0  0  0  0
  142.1423   73.8695  220.1156 H   0  0  0  0  0  0  0  0  0  0  0  0
  143.0628   74.7646  221.3865 H   0  0  0  0  0  0  0  0  0  0  0  0
  138.7030   74.7820  221.4400 C   0  0  0  0  0  0  0  0  0  0  0  0
  138.3663   75.7011  220.9381 H   0  0  0  0  0  0  0  0  0  0  0  0
  137.7640   73.8620  221.9500 C   0  0  0  0  0  0  0  0  0  0  0  0
  136.4740   74.0580  221.8590 N   0  0  0  0  0  0  0  0  0  0  0  0
  135.4390   73.0630  221.5700 C   0  0  0  0  0  0  0  0  0  0  0  0
  134.8902   73.3633  220.6652 H   0  0  0  0  0  0  0  0  0  0  0  0
  135.9179   72.0850  221.4148 H   0  0  0  0  0  0  0  0  0  0  0  0
  134.4540   72.9550  222.7480 C   0  0  0  0  0  0  0  0  0  0  0  0
  133.6143   73.6383  222.5532 H   0  0  0  0  0  0  0  0  0  0  0  0
  134.1565   71.8973  222.8012 H   0  0  0  0  0  0  0  0  0  0  0  0
  135.0220   73.2920  224.0820 N   0  0  0  0  0  0  0  0  0  0  0  0
  136.0540   73.3390  223.8950 H   0  0  0  0  0  0  0  0  0  0  0  0
  134.6690   74.6500  224.5710 C   0  0  0  0  0  0  0  0  0  0  0  0
  135.5417   75.0734  225.0897 H   0  0  0  0  0  0  0  0  0  0  0  0
  134.3803   75.2499  223.6953 H   0  0  0  0  0  0  0  0  0  0  0  0
  133.4780   74.6490  225.5390 C   0  0  0  0  0  0  0  0  0  0  0  0
  133.3463   75.6596  225.9529 H   0  0  0  0  0  0  0  0  0  0  0  0
  132.5736   74.3441  224.9921 H   0  0  0  0  0  0  0  0  0  0  0  0
  133.7030   73.7420  226.5920 O   0  0  0  0  0  0  0  0  0  0  0  0
  133.7000   72.4320  226.0710 C   0  0  0  0  0  0  0  0  0  0  0  0
  133.7863   71.7158  226.9015 H   0  0  0  0  0  0  0  0  0  0  0  0
  132.7595   72.2789  225.5215 H   0  0  0  0  0  0  0  0  0  0  0  0
  134.8720   72.2150  225.0980 C   0  0  0  0  0  0  0  0  0  0  0  0
  135.8018   72.1595  225.6832 H   0  0  0  0  0  0  0  0  0  0  0  0
  134.6616   71.2857  224.5483 H   0  0  0  0  0  0  0  0  0  0  0  0
  138.2120   72.7390  222.5780 N   0  0  0  0  0  0  0  0  0  0  0  0
  137.5140   72.0740  222.9870 H   0  0  0  0  0  0  0  0  0  0  0  0
  139.5430   69.9950  223.1600 C   0  0  0  0  0  0  0  0  0  0  0  0
  140.4061   69.3535  222.9285 H   0  0  0  0  0  0  0  0  0  0  0  0
  138.8664   70.0213  222.2931 H   0  0  0  0  0  0  0  0  0  0  0  0
  138.8010   69.4350  224.3730 C   0  0  0  0  0  0  0  0  0  0  0  0
  138.6805   68.3492  224.2443 H   0  0  0  0  0  0  0  0  0  0  0  0
  137.8265   69.9413  224.4361 H   0  0  0  0  0  0  0  0  0  0  0  0
  1  2  1  0
  2  3  2  0
  3  4  1  0
  3  5  1  0
  5  6  1  0
  5  7  2  0
  7  8  1  0
  8  9  2  0
  9 10  1  0
  8 11  1  0
 11 12  1  0
 11 13  1  0
 11 14  1  0
 14 15  1  0
 15 16  2  0
 16 17  1  0
 17 18  1  0
 18 19  1  0
 19 20  1  0
 19 21  1  0
 19 22  1  0
 22 23  1  0
 22 24  1  0
 22 25  1  0
 25 26  1  0
 25 27  1  0
 25 28  1  0
 28 29  1  0
 28 30  1  0
 28 31  1  0
 31 32  1  0
 31 33  1  0
 17 34  2  0
 34 35  1  0
 34 36  1  0
 36 37  2  0
 37 38  1  0
 38 39  1  0
 38 40  1  0
 38 41  1  0
 41 42  1  0
 41 43  1  0
 41 44  1  0
 44 45  1  0
 44 46  1  0
 46 47  1  0
 46 48  1  0
 46 49  1  0
 49 50  1  0
 49 51  1  0
 49 52  1  0
 52 53  1  0
 53 54  1  0
 53 55  1  0
 53 56  1  0
 56 57  1  0
 56 58  1  0
 36 59  1  0
 59 60  1  0
 14 61  1  0
 61 62  1  0
 61 63  1  0
 61 64  1  0
 64 65  1  0
 64 66  1  0
  9  2  1  0
 59 15  1  0
 64  7  1  0
 31 18  1  0
 56 44  1  0
M  CHG  2  25   1  44   1
M  END
>  <UniqueID>  (61) 
487

>  <SMILES>  (61) 
c1ccc2c(c1)CCN(c1nc(N3CC[NH2+]CC3)c/c(=N\CC[NH+]3CCOCC3)[nH]1)C2

>  <Energy>  (61) 
89.6390617243663

>  <Genealogy>  (61) 
c1ccc2c(c1)CCN(c1nc(NCC[NH+]3CCOCC3)cc(N3CC[NH2+]CC3)n1)C2 (protonated)
c1ccc2c(c1)CCN(c1nc(N3CC[NH2+]CC3)cc(=NCC[NH+]3CCOCC3)[nH]1)C2 (tautomer)
c1ccc2c(c1)CCN(c1nc(N3CC[NH2+]CC3)c/c(=N\CC[NH+]3CCOCC3)[nH]1)C2 (cis-trans isomerization)
c1ccc2c(c1)CCN(c1nc(N3CC[NH2+]CC3)c/c(=N\CC[NH+]3CCOCC3)[nH]1)C2 (3D coordinates assigned)
c1ccc2c(c1)CCN(c1nc(N3CC[NH2+]CC3)c/c(=N\CC[NH+]3CCOCC3)[nH]1)C2 (nonaromatic ring conformer: 89.6390617243663 kcal/mol)

>  <smiles>  (61) 
c1ccc2c(c1)CCN(c1nc(NCCN3CCOCC3)cc(N3CCNCC3)n1)C2

>  <score_type>  (61) 
oracle

>  <origin>  (61) 
autodockgpu

>  <m_score__min__energy>  (61) 
-9.1799999999999997

>  <m_primary>  (61) 
energy

>  <meeko>  (61) 
{"free_energy": -8.38, "intermolecular_energy": -10.17, "internal_energy": -1.46, "cluster_size": 20, "cluster_id": 1, "rank_in_cluster": 11}

>  <energy>  (61) 
-9.18

>  <cluster_rmsd>  (61) 
0.0

>  <rmsd>  (61) 
271.87

>  <cluster>  (61) 
1

$$$$
DRRGDEWGQQLPRW-CXKBQSNCNA-P
     RDKit          3D

 66 70  0  0  0  0  0  0  0  0999 V2000
  141.2679   70.6178  228.9047 H   0  0  0  0  0  0  0  0  0  0  0  0
  140.7200   70.4230  227.9710 C   0  0  0  0  0  0  0  0  0  0  0  0
  139.6660   69.5070  227.9600 C   0  0  0  0  0  0  0  0  0  0  0  0
  139.3886   68.9773  228.8833 H   0  0  0  0  0  0  0  0  0  0  0  0
  138.9640   69.2630  226.7780 C   0  0  0  0  0  0  0  0  0  0  0  0
  138.1320   68.5435  226.7764 H   0  0  0  0  0  0  0  0  0  0  0  0
  139.3110   69.9280  225.5920 C   0  0  0  0  0  0  0  0  0  0  0  0
  140.3760   70.8640  225.6060 C   0  0  0  0  0  0  0  0  0  0  0  0
  141.0800   71.0920  226.8000 C   0  0  0  0  0  0  0  0  0  0  0  0
  141.9201   71.8020  226.8123 H   0  0  0  0  0  0  0  0  0  0  0  0
  140.8130   71.5750  224.3470 C   0  0  0  0  0  0  0  0  0  0  0  0
  141.7390   71.1128  223.9742 H   0  0  0  0  0  0  0  0  0  0  0  0
  140.9836   72.6362  224.5812 H   0  0  0  0  0  0  0  0  0  0  0  0
  139.7790   71.4810  223.3140 N   0  0  0  0  0  0  0  0  0  0  0  0
  139.3770   72.6480  222.5780 C   0  0  0  0  0  0  0  0  0  0  0  0
  140.3270   73.4880  222.0920 N   0  0  0  0  0  0  0  0  0  0  0  0
  140.0110   74.6370  221.4390 C   0  0  0  0  0  0  0  0  0  0  0  0
  141.0720   75.4950  220.9500 N   0  0  0  0  0  0  0  0  0  0  0  0
  141.0700   76.9430  221.2280 C   0  0  0  0  0  0  0  0  0  0  0  0
  140.0301   77.3002  221.2579 H   0  0  0  0  0  0  0  0  0  0  0  0
  141.5683   77.1107  222.1942 H   0  0  0  0  0  0  0  0  0  0  0  0
  141.8350   77.7220  220.1480 C   0  0  0  0  0  0  0  0  0  0  0  0
  141.2447   77.7196  219.2198 H   0  0  0  0  0  0  0  0  0  0  0  0
  141.9922   78.7491  220.5091 H   0  0  0  0  0  0  0  0  0  0  0  0
  143.1490   77.1210  219.8800 N   0  0  0  0  0  0  0  0  0  0  0  0
  143.7450   77.1510  220.7390 H   0  0  0  0  0  0  0  0  0  0  0  0
  143.6220   77.6730  219.1270 H   0  0  0  0  0  0  0  0  0  0  0  0
  142.9980   75.7360  219.4190 C   0  0  0  0  0  0  0  0  0  0  0  0
  142.3782   75.7235  218.5103 H   0  0  0  0  0  0  0  0  0  0  0  0
  143.9953   75.3234  219.2066 H   0  0  0  0  0  0  0  0  0  0  0  0
  142.3300   74.8780  220.4940 C   0  0  0  0  0  0  0  0  0  0  0  0
  142.1134   73.8830  220.0780 H   0  0  0  0  0  0  0  0  0  0  0  0
  143.0127   74.7942  221.3524 H   0  0  0  0  0  0  0  0  0  0  0  0
  138.6570   74.9750  221.2880 C   0  0  0  0  0  0  0  0  0  0  0  0
  138.3691   75.9102  220.7854 H   0  0  0  0  0  0  0  0  0  0  0  0
  137.6700   74.1000  221.7890 C   0  0  0  0  0  0  0  0  0  0  0  0
  136.3920   74.3580  221.6880 N   0  0  0  0  0  0  0  0  0  0  0  0
  135.3130   73.4140  221.3900 C   0  0  0  0  0  0  0  0  0  0  0  0
  134.6993   73.8123  220.5686 H   0  0  0  0  0  0  0  0  0  0  0  0
  135.7531   72.4488  221.0988 H   0  0  0  0  0  0  0  0  0  0  0  0
  134.4260   73.2050  222.6310 C   0  0  0  0  0  0  0  0  0  0  0  0
  133.5480   73.8609  222.5359 H   0  0  0  0  0  0  0  0  0  0  0  0
  134.1752   72.1341  222.6496 H   0  0  0  0  0  0  0  0  0  0  0  0
  135.0800   73.4980  223.9350 N   0  0  0  0  0  0  0  0  0  0  0  0
  136.0960   73.5700  223.6790 H   0  0  0  0  0  0  0  0  0  0  0  0
  134.7430   74.8300  224.5030 C   0  0  0  0  0  0  0  0  0  0  0  0
  135.6435   75.2465  224.9779 H   0  0  0  0  0  0  0  0  0  0  0  0
  134.3866   75.4601  223.6748 H   0  0  0  0  0  0  0  0  0  0  0  0
  133.6220   74.7700  225.5490 C   0  0  0  0  0  0  0  0  0  0  0  0
  133.5043   75.7609  226.0118 H   0  0  0  0  0  0  0  0  0  0  0  0
  132.6864   74.4715  225.0535 H   0  0  0  0  0  0  0  0  0  0  0  0
  133.9330   73.8260  226.5460 O   0  0  0  0  0  0  0  0  0  0  0  0
  133.9120   72.5380  225.9740 C   0  0  0  0  0  0  0  0  0  0  0  0
  134.0658   71.7912  226.7669 H   0  0  0  0  0  0  0  0  0  0  0  0
  132.9378   72.3911  225.4848 H   0  0  0  0  0  0  0  0  0  0  0  0
  135.0160   72.3790  224.9150 C   0  0  0  0  0  0  0  0  0  0  0  0
  135.9849   72.3160  225.4320 H   0  0  0  0  0  0  0  0  0  0  0  0
  134.7809   71.4686  224.3440 H   0  0  0  0  0  0  0  0  0  0  0  0
  138.0590   72.9560  222.4180 N   0  0  0  0  0  0  0  0  0  0  0  0
  137.3270   72.3250  222.8200 H   0  0  0  0  0  0  0  0  0  0  0  0
  139.1680   70.1710  223.0830 C   0  0  0  0  0  0  0  0  0  0  0  0
  139.9481   69.4438  222.8137 H   0  0  0  0  0  0  0  0  0  0  0  0
  138.4390   70.2434  222.2625 H   0  0  0  0  0  0  0  0  0  0  0  0
  138.4610   69.7130  224.3580 C   0  0  0  0  0  0  0  0  0  0  0  0
  138.2299   68.6412  224.2694 H   0  0  0  0  0  0  0  0  0  0  0  0
  137.5453   70.3121  224.4702 H   0  0  0  0  0  0  0  0  0  0  0  0
  1  2  1  0
  2  3  2  0
  3  4  1  0
  3  5  1  0
  5  6  1  0
  5  7  2  0
  7  8  1  0
  8  9  2  0
  9 10  1  0
  8 11  1  0
 11 12  1  0
 11 13  1  0
 11 14  1  0
 14 15  1  0
 15 16  2  0
 16 17  1  0
 17 18  1  0
 18 19  1  0
 19 20  1  0
 19 21  1  0
 19 22  1  0
 22 23  1  0
 22 24  1  0
 22 25  1  0
 25 26  1  0
 25 27  1  0
 25 28  1  0
 28 29  1  0
 28 30  1  0
 28 31  1  0
 31 32  1  0
 31 33  1  0
 17 34  2  0
 34 35  1  0
 34 36  1  0
 36 37  2  0
 37 38  1  0
 38 39  1  0
 38 40  1  0
 38 41  1  0
 41 42  1  0
 41 43  1  0
 41 44  1  0
 44 45  1  0
 44 46  1  0
 46 47  1  0
 46 48  1  0
 46 49  1  0
 49 50  1  0
 49 51  1  0
 49 52  1  0
 52 53  1  0
 53 54  1  0
 53 55  1  0
 53 56  1  0
 56 57  1  0
 56 58  1  0
 36 59  1  0
 59 60  1  0
 14 61  1  0
 61 62  1  0
 61 63  1  0
 61 64  1  0
 64 65  1  0
 64 66  1  0
  9  2  1  0
 59 15  1  0
 64  7  1  0
 31 18  1  0
 56 44  1  0
M  CHG  2  25   1  44   1
M  END
>  <UniqueID>  (62) 
487

>  <SMILES>  (62) 
c1ccc2c(c1)CCN(c1nc(N3CC[NH2+]CC3)c/c(=N\CC[NH+]3CCOCC3)[nH]1)C2

>  <Energy>  (62) 
89.6390617243663

>  <Genealogy>  (62) 
c1ccc2c(c1)CCN(c1nc(NCC[NH+]3CCOCC3)cc(N3CC[NH2+]CC3)n1)C2 (protonated)
c1ccc2c(c1)CCN(c1nc(N3CC[NH2+]CC3)cc(=NCC[NH+]3CCOCC3)[nH]1)C2 (tautomer)
c1ccc2c(c1)CCN(c1nc(N3CC[NH2+]CC3)c/c(=N\CC[NH+]3CCOCC3)[nH]1)C2 (cis-trans isomerization)
c1ccc2c(c1)CCN(c1nc(N3CC[NH2+]CC3)c/c(=N\CC[NH+]3CCOCC3)[nH]1)C2 (3D coordinates assigned)
c1ccc2c(c1)CCN(c1nc(N3CC[NH2+]CC3)c/c(=N\CC[NH+]3CCOCC3)[nH]1)C2 (nonaromatic ring conformer: 89.6390617243663 kcal/mol)

>  <smiles>  (62) 
c1ccc2c(c1)CCN(c1nc(NCCN3CCOCC3)cc(N3CCNCC3)n1)C2

>  <score_type>  (62) 
oracle

>  <origin>  (62) 
autodockgpu

>  <m_score__min__energy>  (62) 
-9.1799999999999997

>  <m_primary>  (62) 
energy

>  <meeko>  (62) 
{"free_energy": -8.3, "intermolecular_energy": -10.09, "internal_energy": -1.55, "cluster_size": 20, "cluster_id": 1, "rank_in_cluster": 14}

>  <energy>  (62) 
-9.13

>  <cluster_rmsd>  (62) 
0.14

>  <rmsd>  (62) 
271.88

>  <cluster>  (62) 
1

$$$$
DRRGDEWGQQLPRW-CXKBQSNCNA-P
     RDKit          3D

 66 70  0  0  0  0  0  0  0  0999 V2000
  141.1919   70.6916  229.3043 H   0  0  0  0  0  0  0  0  0  0  0  0
  140.7450   70.3950  228.3440 C   0  0  0  0  0  0  0  0  0  0  0  0
  139.8530   69.3220  228.2930 C   0  0  0  0  0  0  0  0  0  0  0  0
  139.6031   68.7709  229.2116 H   0  0  0  0  0  0  0  0  0  0  0  0
  139.2780   68.9480  227.0770 C   0  0  0  0  0  0  0  0  0  0  0  0
  138.5723   68.1049  227.0439 H   0  0  0  0  0  0  0  0  0  0  0  0
  139.5930   69.6390  225.8960 C   0  0  0  0  0  0  0  0  0  0  0  0
  140.4930   70.7340  225.9510 C   0  0  0  0  0  0  0  0  0  0  0  0
  141.0710   71.0920  227.1800 C   0  0  0  0  0  0  0  0  0  0  0  0
  141.7853   71.9273  227.2252 H   0  0  0  0  0  0  0  0  0  0  0  0
  140.8940   71.4830  224.7030 C   0  0  0  0  0  0  0  0  0  0  0  0
  141.9044   71.1688  224.4022 H   0  0  0  0  0  0  0  0  0  0  0  0
  140.8778   72.5618  224.9174 H   0  0  0  0  0  0  0  0  0  0  0  0
  139.9590   71.2060  223.6100 N   0  0  0  0  0  0  0  0  0  0  0  0
  139.4270   72.2810  222.8170 C   0  0  0  0  0  0  0  0  0  0  0  0
  140.2550   73.2710  222.3960 N   0  0  0  0  0  0  0  0  0  0  0  0
  139.8030   74.3430  221.6940 C   0  0  0  0  0  0  0  0  0  0  0  0
  140.7370   75.3700  221.2790 N   0  0  0  0  0  0  0  0  0  0  0  0
  140.5730   76.7700  221.7120 C   0  0  0  0  0  0  0  0  0  0  0  0
  139.4997   76.9934  221.8018 H   0  0  0  0  0  0  0  0  0  0  0  0
  141.0800   76.8946  222.6802 H   0  0  0  0  0  0  0  0  0  0  0  0
  141.2040   77.7450  220.7070 C   0  0  0  0  0  0  0  0  0  0  0  0
  140.5867   77.7690  219.7968 H   0  0  0  0  0  0  0  0  0  0  0  0
  141.2516   78.7394  221.1749 H   0  0  0  0  0  0  0  0  0  0  0  0
  142.5690   77.3400  220.3470 N   0  0  0  0  0  0  0  0  0  0  0  0
  143.1870   77.3510  221.1920 H   0  0  0  0  0  0  0  0  0  0  0  0
  142.9480   78.0210  219.6480 H   0  0  0  0  0  0  0  0  0  0  0  0
  142.5680   76.0030  219.7420 C   0  0  0  0  0  0  0  0  0  0  0  0
  141.9237   76.0107  218.8505 H   0  0  0  0  0  0  0  0  0  0  0  0
  143.5996   75.7395  219.4655 H   0  0  0  0  0  0  0  0  0  0  0  0
  142.0430   74.9610  220.7320 C   0  0  0  0  0  0  0  0  0  0  0  0
  141.9314   73.9965  220.2150 H   0  0  0  0  0  0  0  0  0  0  0  0
  142.7598   74.8702  221.5614 H   0  0  0  0  0  0  0  0  0  0  0  0
  138.4290   74.4380  221.4220 C   0  0  0  0  0  0  0  0  0  0  0  0
  138.0281   75.3053  220.8770 H   0  0  0  0  0  0  0  0  0  0  0  0
  137.5690   73.4080  221.8560 C   0  0  0  0  0  0  0  0  0  0  0  0
  136.2790   73.4380  221.6420 N   0  0  0  0  0  0  0  0  0  0  0  0
  135.4440   74.6160  221.3970 C   0  0  0  0  0  0  0  0  0  0  0  0
  136.0692   75.4254  220.9920 H   0  0  0  0  0  0  0  0  0  0  0  0
  134.6555   74.3507  220.6773 H   0  0  0  0  0  0  0  0  0  0  0  0
  134.7860   75.0900  222.7060 C   0  0  0  0  0  0  0  0  0  0  0  0
  134.9753   76.1685  222.8112 H   0  0  0  0  0  0  0  0  0  0  0  0
  133.7186   74.8382  222.6203 H   0  0  0  0  0  0  0  0  0  0  0  0
  135.2730   74.4140  223.9400 N   0  0  0  0  0  0  0  0  0  0  0  0
  136.2580   74.1480  223.6910 H   0  0  0  0  0  0  0  0  0  0  0  0
  135.4140   75.3140  225.1140 C   0  0  0  0  0  0  0  0  0  0  0  0
  136.3118   75.0179  225.6764 H   0  0  0  0  0  0  0  0  0  0  0  0
  135.4884   76.3428  224.7318 H   0  0  0  0  0  0  0  0  0  0  0  0
  134.2070   75.2630  226.0590 C   0  0  0  0  0  0  0  0  0  0  0  0
  134.4262   75.8553  226.9596 H   0  0  0  0  0  0  0  0  0  0  0  0
  133.3292   75.6759  225.5403 H   0  0  0  0  0  0  0  0  0  0  0  0
  133.9340   73.9330  226.4330 O   0  0  0  0  0  0  0  0  0  0  0  0
  133.4880   73.2250  225.2980 C   0  0  0  0  0  0  0  0  0  0  0  0
  133.1881   72.2115  225.6027 H   0  0  0  0  0  0  0  0  0  0  0  0
  132.6363   73.7678  224.8622 H   0  0  0  0  0  0  0  0  0  0  0  0
  134.5950   73.1220  224.2340 C   0  0  0  0  0  0  0  0  0  0  0  0
  135.3516   72.4073  224.5899 H   0  0  0  0  0  0  0  0  0  0  0  0
  134.1112   72.7966  223.3013 H   0  0  0  0  0  0  0  0  0  0  0  0
  138.0940   72.3530  222.5400 N   0  0  0  0  0  0  0  0  0  0  0  0
  137.4510   71.6070  222.8920 H   0  0  0  0  0  0  0  0  0  0  0  0
  139.5810   69.8120  223.3780 C   0  0  0  0  0  0  0  0  0  0  0  0
  140.4830   69.2148  223.1785 H   0  0  0  0  0  0  0  0  0  0  0  0
  138.9058   69.7521  222.5117 H   0  0  0  0  0  0  0  0  0  0  0  0
  138.8730   69.2690  224.6180 C   0  0  0  0  0  0  0  0  0  0  0  0
  138.8220   68.1726  224.5450 H   0  0  0  0  0  0  0  0  0  0  0  0
  137.8683   69.7153  224.6554 H   0  0  0  0  0  0  0  0  0  0  0  0
  1  2  1  0
  2  3  2  0
  3  4  1  0
  3  5  1  0
  5  6  1  0
  5  7  2  0
  7  8  1  0
  8  9  2  0
  9 10  1  0
  8 11  1  0
 11 12  1  0
 11 13  1  0
 11 14  1  0
 14 15  1  0
 15 16  2  0
 16 17  1  0
 17 18  1  0
 18 19  1  0
 19 20  1  0
 19 21  1  0
 19 22  1  0
 22 23  1  0
 22 24  1  0
 22 25  1  0
 25 26  1  0
 25 27  1  0
 25 28  1  0
 28 29  1  0
 28 30  1  0
 28 31  1  0
 31 32  1  0
 31 33  1  0
 17 34  2  0
 34 35  1  0
 34 36  1  0
 36 37  2  0
 37 38  1  0
 38 39  1  0
 38 40  1  0
 38 41  1  0
 41 42  1  0
 41 43  1  0
 41 44  1  0
 44 45  1  0
 44 46  1  0
 46 47  1  0
 46 48  1  0
 46 49  1  0
 49 50  1  0
 49 51  1  0
 49 52  1  0
 52 53  1  0
 53 54  1  0
 53 55  1  0
 53 56  1  0
 56 57  1  0
 56 58  1  0
 36 59  1  0
 59 60  1  0
 14 61  1  0
 61 62  1  0
 61 63  1  0
 61 64  1  0
 64 65  1  0
 64 66  1  0
  9  2  1  0
 59 15  1  0
 64  7  1  0
 31 18  1  0
 56 44  1  0
M  CHG  2  25   1  44   1
M  END
>  <UniqueID>  (63) 
487

>  <SMILES>  (63) 
c1ccc2c(c1)CCN(c1nc(N3CC[NH2+]CC3)c/c(=N\CC[NH+]3CCOCC3)[nH]1)C2

>  <Energy>  (63) 
89.6390617243663

>  <Genealogy>  (63) 
c1ccc2c(c1)CCN(c1nc(NCC[NH+]3CCOCC3)cc(N3CC[NH2+]CC3)n1)C2 (protonated)
c1ccc2c(c1)CCN(c1nc(N3CC[NH2+]CC3)cc(=NCC[NH+]3CCOCC3)[nH]1)C2 (tautomer)
c1ccc2c(c1)CCN(c1nc(N3CC[NH2+]CC3)c/c(=N\CC[NH+]3CCOCC3)[nH]1)C2 (cis-trans isomerization)
c1ccc2c(c1)CCN(c1nc(N3CC[NH2+]CC3)c/c(=N\CC[NH+]3CCOCC3)[nH]1)C2 (3D coordinates assigned)
c1ccc2c(c1)CCN(c1nc(N3CC[NH2+]CC3)c/c(=N\CC[NH+]3CCOCC3)[nH]1)C2 (nonaromatic ring conformer: 89.6390617243663 kcal/mol)

>  <smiles>  (63) 
c1ccc2c(c1)CCN(c1nc(NCCN3CCOCC3)cc(N3CCNCC3)n1)C2

>  <score_type>  (63) 
oracle

>  <origin>  (63) 
autodockgpu

>  <m_score__min__energy>  (63) 
-9.1799999999999997

>  <m_primary>  (63) 
energy

>  <meeko>  (63) 
{"free_energy": -8.76, "intermolecular_energy": -10.55, "internal_energy": -1.45, "cluster_size": 20, "cluster_id": 1, "rank_in_cluster": 9}

>  <energy>  (63) 
-9.1

>  <cluster_rmsd>  (63) 
0.15

>  <rmsd>  (63) 
271.84

>  <cluster>  (63) 
1

$$$$
DRRGDEWGQQLPRW-CXKBQSNCNA-P
     RDKit          3D

 66 70  0  0  0  0  0  0  0  0999 V2000
  141.2280   70.8288  229.2995 H   0  0  0  0  0  0  0  0  0  0  0  0
  140.7640   70.5330  228.3470 C   0  0  0  0  0  0  0  0  0  0  0  0
  139.8160   69.5090  228.3230 C   0  0  0  0  0  0  0  0  0  0  0  0
  139.5382   68.9954  229.2552 H   0  0  0  0  0  0  0  0  0  0  0  0
  139.2200   69.1360  227.1170 C   0  0  0  0  0  0  0  0  0  0  0  0
  138.4699   68.3316  227.1052 H   0  0  0  0  0  0  0  0  0  0  0  0
  139.5700   69.7790  225.9190 C   0  0  0  0  0  0  0  0  0  0  0  0
  140.5260   70.8250  225.9460 C   0  0  0  0  0  0  0  0  0  0  0  0
  141.1250   71.1830  227.1650 C   0  0  0  0  0  0  0  0  0  0  0  0
  141.8828   71.9800  227.1887 H   0  0  0  0  0  0  0  0  0  0  0  0
  140.9650   71.5210  224.6790 C   0  0  0  0  0  0  0  0  0  0  0  0
  141.9567   71.1461  224.3859 H   0  0  0  0  0  0  0  0  0  0  0  0
  141.0069   72.6041  224.8664 H   0  0  0  0  0  0  0  0  0  0  0  0
  140.0150   71.2670  223.5940 N   0  0  0  0  0  0  0  0  0  0  0  0
  139.5390   72.3480  222.7750 C   0  0  0  0  0  0  0  0  0  0  0  0
  140.4240   73.2580  222.2940 N   0  0  0  0  0  0  0  0  0  0  0  0
  140.0310   74.3350  221.5640 C   0  0  0  0  0  0  0  0  0  0  0  0
  141.0250   75.2750  221.0850 N   0  0  0  0  0  0  0  0  0  0  0  0
  141.0160   76.6830  221.5230 C   0  0  0  0  0  0  0  0  0  0  0  0
  139.9753   77.0019  221.6820 H   0  0  0  0  0  0  0  0  0  0  0  0
  141.5940   76.7595  222.4557 H   0  0  0  0  0  0  0  0  0  0  0  0
  141.6650   77.5990  220.4750 C   0  0  0  0  0  0  0  0  0  0  0  0
  140.9950   77.6792  219.6063 H   0  0  0  0  0  0  0  0  0  0  0  0
  141.8310   78.5849  220.9337 H   0  0  0  0  0  0  0  0  0  0  0  0
  142.9630   77.0730  220.0300 N   0  0  0  0  0  0  0  0  0  0  0  0
  143.6320   77.0280  220.8330 H   0  0  0  0  0  0  0  0  0  0  0  0
  143.3550   77.7190  219.3060 H   0  0  0  0  0  0  0  0  0  0  0  0
  142.8030   75.7430  219.4320 C   0  0  0  0  0  0  0  0  0  0  0  0
  142.1063   75.8103  218.5834 H   0  0  0  0  0  0  0  0  0  0  0  0
  143.7869   75.3882  219.0915 H   0  0  0  0  0  0  0  0  0  0  0  0
  142.2510   74.7510  220.4570 C   0  0  0  0  0  0  0  0  0  0  0  0
  142.0199   73.8016  219.9518 H   0  0  0  0  0  0  0  0  0  0  0  0
  143.0084   74.5942  221.2391 H   0  0  0  0  0  0  0  0  0  0  0  0
  138.6600   74.5210  221.3240 C   0  0  0  0  0  0  0  0  0  0  0  0
  138.3073   75.3948  220.7565 H   0  0  0  0  0  0  0  0  0  0  0  0
  137.7410   73.5730  221.8200 C   0  0  0  0  0  0  0  0  0  0  0  0
  136.4510   73.6900  221.6380 N   0  0  0  0  0  0  0  0  0  0  0  0
  135.6830   74.9260  221.4780 C   0  0  0  0  0  0  0  0  0  0  0  0
  136.3663   75.7450  221.2090 H   0  0  0  0  0  0  0  0  0  0  0  0
  134.9353   74.7811  220.6843 H   0  0  0  0  0  0  0  0  0  0  0  0
  134.9570   75.2810  222.7890 C   0  0  0  0  0  0  0  0  0  0  0  0
  135.1481   76.3420  223.0076 H   0  0  0  0  0  0  0  0  0  0  0  0
  133.8942   75.0520  222.6216 H   0  0  0  0  0  0  0  0  0  0  0  0
  135.3700   74.4840  223.9770 N   0  0  0  0  0  0  0  0  0  0  0  0
  136.3480   74.1900  223.7360 H   0  0  0  0  0  0  0  0  0  0  0  0
  135.5130   75.2780  225.2250 C   0  0  0  0  0  0  0  0  0  0  0  0
  136.3768   74.8938  225.7873 H   0  0  0  0  0  0  0  0  0  0  0  0
  135.6474   76.3295  224.9311 H   0  0  0  0  0  0  0  0  0  0  0  0
  134.2740   75.2100  226.1270 C   0  0  0  0  0  0  0  0  0  0  0  0
  134.4906   75.7154  227.0797 H   0  0  0  0  0  0  0  0  0  0  0  0
  133.4342   75.7067  225.6191 H   0  0  0  0  0  0  0  0  0  0  0  0
  133.9270   73.8690  226.3810 O   0  0  0  0  0  0  0  0  0  0  0  0
  133.4870   73.2780  225.1790 C   0  0  0  0  0  0  0  0  0  0  0  0
  133.1300   72.2592  225.3901 H   0  0  0  0  0  0  0  0  0  0  0  0
  132.6767   73.8954  224.7641 H   0  0  0  0  0  0  0  0  0  0  0  0
  134.6230   73.2070  224.1440 C   0  0  0  0  0  0  0  0  0  0  0  0
  135.3333   72.4298  224.4626 H   0  0  0  0  0  0  0  0  0  0  0  0
  134.1562   72.9818  223.1737 H   0  0  0  0  0  0  0  0  0  0  0  0
  138.2080   72.5080  222.5300 N   0  0  0  0  0  0  0  0  0  0  0  0
  137.5220   71.8240  222.9270 H   0  0  0  0  0  0  0  0  0  0  0  0
  139.5630   69.8890  223.3970 C   0  0  0  0  0  0  0  0  0  0  0  0
  140.4318   69.2400  223.2127 H   0  0  0  0  0  0  0  0  0  0  0  0
  138.8845   69.8435  222.5324 H   0  0  0  0  0  0  0  0  0  0  0  0
  138.8280   69.4150  224.6510 C   0  0  0  0  0  0  0  0  0  0  0  0
  138.7187   68.3214  224.6058 H   0  0  0  0  0  0  0  0  0  0  0  0
  137.8480   69.9138  224.6775 H   0  0  0  0  0  0  0  0  0  0  0  0
  1  2  1  0
  2  3  2  0
  3  4  1  0
  3  5  1  0
  5  6  1  0
  5  7  2  0
  7  8  1  0
  8  9  2  0
  9 10  1  0
  8 11  1  0
 11 12  1  0
 11 13  1  0
 11 14  1  0
 14 15  1  0
 15 16  2  0
 16 17  1  0
 17 18  1  0
 18 19  1  0
 19 20  1  0
 19 21  1  0
 19 22  1  0
 22 23  1  0
 22 24  1  0
 22 25  1  0
 25 26  1  0
 25 27  1  0
 25 28  1  0
 28 29  1  0
 28 30  1  0
 28 31  1  0
 31 32  1  0
 31 33  1  0
 17 34  2  0
 34 35  1  0
 34 36  1  0
 36 37  2  0
 37 38  1  0
 38 39  1  0
 38 40  1  0
 38 41  1  0
 41 42  1  0
 41 43  1  0
 41 44  1  0
 44 45  1  0
 44 46  1  0
 46 47  1  0
 46 48  1  0
 46 49  1  0
 49 50  1  0
 49 51  1  0
 49 52  1  0
 52 53  1  0
 53 54  1  0
 53 55  1  0
 53 56  1  0
 56 57  1  0
 56 58  1  0
 36 59  1  0
 59 60  1  0
 14 61  1  0
 61 62  1  0
 61 63  1  0
 61 64  1  0
 64 65  1  0
 64 66  1  0
  9  2  1  0
 59 15  1  0
 64  7  1  0
 31 18  1  0
 56 44  1  0
M  CHG  2  25   1  44   1
M  END
>  <UniqueID>  (64) 
487

>  <SMILES>  (64) 
c1ccc2c(c1)CCN(c1nc(N3CC[NH2+]CC3)c/c(=N\CC[NH+]3CCOCC3)[nH]1)C2

>  <Energy>  (64) 
89.6390617243663

>  <Genealogy>  (64) 
c1ccc2c(c1)CCN(c1nc(NCC[NH+]3CCOCC3)cc(N3CC[NH2+]CC3)n1)C2 (protonated)
c1ccc2c(c1)CCN(c1nc(N3CC[NH2+]CC3)cc(=NCC[NH+]3CCOCC3)[nH]1)C2 (tautomer)
c1ccc2c(c1)CCN(c1nc(N3CC[NH2+]CC3)c/c(=N\CC[NH+]3CCOCC3)[nH]1)C2 (cis-trans isomerization)
c1ccc2c(c1)CCN(c1nc(N3CC[NH2+]CC3)c/c(=N\CC[NH+]3CCOCC3)[nH]1)C2 (3D coordinates assigned)
c1ccc2c(c1)CCN(c1nc(N3CC[NH2+]CC3)c/c(=N\CC[NH+]3CCOCC3)[nH]1)C2 (nonaromatic ring conformer: 89.6390617243663 kcal/mol)

>  <smiles>  (64) 
c1ccc2c(c1)CCN(c1nc(NCCN3CCOCC3)cc(N3CCNCC3)n1)C2

>  <score_type>  (64) 
oracle

>  <origin>  (64) 
autodockgpu

>  <m_score__min__energy>  (64) 
-9.1799999999999997

>  <m_primary>  (64) 
energy

>  <meeko>  (64) 
{"free_energy": -8.77, "intermolecular_energy": -10.56, "internal_energy": -1.47, "cluster_size": 20, "cluster_id": 1, "rank_in_cluster": 7}

>  <energy>  (64) 
-8.95

>  <cluster_rmsd>  (64) 
0.51

>  <rmsd>  (64) 
271.87

>  <cluster>  (64) 
1

$$$$
DRRGDEWGQQLPRW-CXKBQSNCNA-P
     RDKit          3D

 66 70  0  0  0  0  0  0  0  0999 V2000
  141.2388   70.4856  228.9320 H   0  0  0  0  0  0  0  0  0  0  0  0
  140.7010   70.3080  227.9890 C   0  0  0  0  0  0  0  0  0  0  0  0
  139.6500   69.3890  227.9490 C   0  0  0  0  0  0  0  0  0  0  0  0
  139.3652   68.8398  228.8586 H   0  0  0  0  0  0  0  0  0  0  0  0
  138.9610   69.1670  226.7560 C   0  0  0  0  0  0  0  0  0  0  0  0
  138.1316   68.4449  226.7317 H   0  0  0  0  0  0  0  0  0  0  0  0
  139.3170   69.8570  225.5870 C   0  0  0  0  0  0  0  0  0  0  0  0
  140.3790   70.7960  225.6300 C   0  0  0  0  0  0  0  0  0  0  0  0
  141.0710   71.0020  226.8350 C   0  0  0  0  0  0  0  0  0  0  0  0
  141.9089   71.7138  226.8698 H   0  0  0  0  0  0  0  0  0  0  0  0
  140.8260   71.5330  224.3910 C   0  0  0  0  0  0  0  0  0  0  0  0
  141.7571   71.0811  224.0183 H   0  0  0  0  0  0  0  0  0  0  0  0
  140.9908   72.5897  224.6483 H   0  0  0  0  0  0  0  0  0  0  0  0
  139.8020   71.4570  223.3450 N   0  0  0  0  0  0  0  0  0  0  0  0
  139.4040   72.6370  222.6290 C   0  0  0  0  0  0  0  0  0  0  0  0
  140.3570   73.4670  222.1300 N   0  0  0  0  0  0  0  0  0  0  0  0
  140.0460   74.6270  221.4950 C   0  0  0  0  0  0  0  0  0  0  0  0
  141.1090   75.4730  220.9920 N   0  0  0  0  0  0  0  0  0  0  0  0
  141.0840   76.9330  221.1960 C   0  0  0  0  0  0  0  0  0  0  0  0
  140.0398   77.2786  221.1804 H   0  0  0  0  0  0  0  0  0  0  0  0
  141.5546   77.1550  222.1652 H   0  0  0  0  0  0  0  0  0  0  0  0
  141.8690   77.6660  220.0990 C   0  0  0  0  0  0  0  0  0  0  0  0
  141.3039   77.6099  219.1569 H   0  0  0  0  0  0  0  0  0  0  0  0
  142.0053   78.7116  220.4122 H   0  0  0  0  0  0  0  0  0  0  0  0
  143.1960   77.0690  219.8960 N   0  0  0  0  0  0  0  0  0  0  0  0
  143.7690   77.1490  220.7680 H   0  0  0  0  0  0  0  0  0  0  0  0
  143.6830   77.5880  219.1280 H   0  0  0  0  0  0  0  0  0  0  0  0
  143.0730   75.6610  219.5020 C   0  0  0  0  0  0  0  0  0  0  0  0
  142.4780   75.5951  218.5792 H   0  0  0  0  0  0  0  0  0  0  0  0
  144.0804   75.2510  219.3373 H   0  0  0  0  0  0  0  0  0  0  0  0
  142.3860   74.8490  220.6010 C   0  0  0  0  0  0  0  0  0  0  0  0
  142.1917   73.8319  220.2299 H   0  0  0  0  0  0  0  0  0  0  0  0
  143.0462   74.8161  221.4802 H   0  0  0  0  0  0  0  0  0  0  0  0
  138.6940   74.9880  221.3770 C   0  0  0  0  0  0  0  0  0  0  0  0
  138.4103   75.9326  220.8899 H   0  0  0  0  0  0  0  0  0  0  0  0
  137.7040   74.1240  221.8910 C   0  0  0  0  0  0  0  0  0  0  0  0
  136.4290   74.4040  221.8200 N   0  0  0  0  0  0  0  0  0  0  0  0
  135.3340   73.4910  221.4840 C   0  0  0  0  0  0  0  0  0  0  0  0
  134.7413   73.9220  220.6636 H   0  0  0  0  0  0  0  0  0  0  0  0
  135.7574   72.5236  221.1762 H   0  0  0  0  0  0  0  0  0  0  0  0
  134.4240   73.2720  222.7070 C   0  0  0  0  0  0  0  0  0  0  0  0
  133.5667   73.9557  222.6201 H   0  0  0  0  0  0  0  0  0  0  0  0
  134.1416   72.2090  222.6909 H   0  0  0  0  0  0  0  0  0  0  0  0
  135.0690   73.5080  224.0270 N   0  0  0  0  0  0  0  0  0  0  0  0
  136.0890   73.5650  223.7850 H   0  0  0  0  0  0  0  0  0  0  0  0
  134.7550   74.8270  224.6350 C   0  0  0  0  0  0  0  0  0  0  0  0
  135.6588   75.2070  225.1337 H   0  0  0  0  0  0  0  0  0  0  0  0
  134.4226   75.4919  223.8242 H   0  0  0  0  0  0  0  0  0  0  0  0
  133.6200   74.7580  225.6660 C   0  0  0  0  0  0  0  0  0  0  0  0
  133.5186   75.7357  226.1598 H   0  0  0  0  0  0  0  0  0  0  0  0
  132.6841   74.4970  225.1503 H   0  0  0  0  0  0  0  0  0  0  0  0
  133.8980   73.7750  226.6350 O   0  0  0  0  0  0  0  0  0  0  0  0
  133.8550   72.5070  226.0200 C   0  0  0  0  0  0  0  0  0  0  0  0
  133.9828   71.7311  226.7892 H   0  0  0  0  0  0  0  0  0  0  0  0
  132.8835   72.3985  225.5155 H   0  0  0  0  0  0  0  0  0  0  0  0
  134.9680   72.3580  224.9680 C   0  0  0  0  0  0  0  0  0  0  0  0
  135.9290   72.2552  225.4932 H   0  0  0  0  0  0  0  0  0  0  0  0
  134.7191   71.4730  224.3640 H   0  0  0  0  0  0  0  0  0  0  0  0
  138.0880   72.9680  222.5000 N   0  0  0  0  0  0  0  0  0  0  0  0
  137.3550   72.3450  222.9130 H   0  0  0  0  0  0  0  0  0  0  0  0
  139.1990   70.1500  223.0820 C   0  0  0  0  0  0  0  0  0  0  0  0
  139.9848   69.4313  222.8064 H   0  0  0  0  0  0  0  0  0  0  0  0
  138.4781   70.2359  222.2556 H   0  0  0  0  0  0  0  0  0  0  0  0
  138.4810   69.6640  224.3400 C   0  0  0  0  0  0  0  0  0  0  0  0
  138.2549   68.5934  224.2274 H   0  0  0  0  0  0  0  0  0  0  0  0
  137.5621   70.2577  224.4546 H   0  0  0  0  0  0  0  0  0  0  0  0
  1  2  1  0
  2  3  2  0
  3  4  1  0
  3  5  1  0
  5  6  1  0
  5  7  2  0
  7  8  1  0
  8  9  2  0
  9 10  1  0
  8 11  1  0
 11 12  1  0
 11 13  1  0
 11 14  1  0
 14 15  1  0
 15 16  2  0
 16 17  1  0
 17 18  1  0
 18 19  1  0
 19 20  1  0
 19 21  1  0
 19 22  1  0
 22 23  1  0
 22 24  1  0
 22 25  1  0
 25 26  1  0
 25 27  1  0
 25 28  1  0
 28 29  1  0
 28 30  1  0
 28 31  1  0
 31 32  1  0
 31 33  1  0
 17 34  2  0
 34 35  1  0
 34 36  1  0
 36 37  2  0
 37 38  1  0
 38 39  1  0
 38 40  1  0
 38 41  1  0
 41 42  1  0
 41 43  1  0
 41 44  1  0
 44 45  1  0
 44 46  1  0
 46 47  1  0
 46 48  1  0
 46 49  1  0
 49 50  1  0
 49 51  1  0
 49 52  1  0
 52 53  1  0
 53 54  1  0
 53 55  1  0
 53 56  1  0
 56 57  1  0
 56 58  1  0
 36 59  1  0
 59 60  1  0
 14 61  1  0
 61 62  1  0
 61 63  1  0
 61 64  1  0
 64 65  1  0
 64 66  1  0
  9  2  1  0
 59 15  1  0
 64  7  1  0
 31 18  1  0
 56 44  1  0
M  CHG  2  25   1  44   1
M  END
>  <UniqueID>  (65) 
487

>  <SMILES>  (65) 
c1ccc2c(c1)CCN(c1nc(N3CC[NH2+]CC3)c/c(=N\CC[NH+]3CCOCC3)[nH]1)C2

>  <Energy>  (65) 
89.6390617243663

>  <Genealogy>  (65) 
c1ccc2c(c1)CCN(c1nc(NCC[NH+]3CCOCC3)cc(N3CC[NH2+]CC3)n1)C2 (protonated)
c1ccc2c(c1)CCN(c1nc(N3CC[NH2+]CC3)cc(=NCC[NH+]3CCOCC3)[nH]1)C2 (tautomer)
c1ccc2c(c1)CCN(c1nc(N3CC[NH2+]CC3)c/c(=N\CC[NH+]3CCOCC3)[nH]1)C2 (cis-trans isomerization)
c1ccc2c(c1)CCN(c1nc(N3CC[NH2+]CC3)c/c(=N\CC[NH+]3CCOCC3)[nH]1)C2 (3D coordinates assigned)
c1ccc2c(c1)CCN(c1nc(N3CC[NH2+]CC3)c/c(=N\CC[NH+]3CCOCC3)[nH]1)C2 (nonaromatic ring conformer: 89.6390617243663 kcal/mol)

>  <smiles>  (65) 
c1ccc2c(c1)CCN(c1nc(NCCN3CCOCC3)cc(N3CCNCC3)n1)C2

>  <score_type>  (65) 
oracle

>  <origin>  (65) 
autodockgpu

>  <m_score__min__energy>  (65) 
-9.1799999999999997

>  <m_primary>  (65) 
energy

>  <meeko>  (65) 
{"free_energy": -8.3, "intermolecular_energy": -10.08, "internal_energy": -1.54, "cluster_size": 20, "cluster_id": 1, "rank_in_cluster": 15}

>  <energy>  (65) 
-8.81

>  <cluster_rmsd>  (65) 
0.54

>  <rmsd>  (65) 
271.83

>  <cluster>  (65) 
1

$$$$
DRRGDEWGQQLPRW-CXKBQSNCNA-P
     RDKit          3D

 66 70  0  0  0  0  0  0  0  0999 V2000
  141.2526   70.5432  228.9078 H   0  0  0  0  0  0  0  0  0  0  0  0
  140.7040   70.3610  227.9720 C   0  0  0  0  0  0  0  0  0  0  0  0
  139.6430   69.4530  227.9520 C   0  0  0  0  0  0  0  0  0  0  0  0
  139.3605   68.9178  228.8706 H   0  0  0  0  0  0  0  0  0  0  0  0
  138.9410   69.2240  226.7680 C   0  0  0  0  0  0  0  0  0  0  0  0
  138.1037   68.5107  226.7599 H   0  0  0  0  0  0  0  0  0  0  0  0
  139.2940   69.8960  225.5870 C   0  0  0  0  0  0  0  0  0  0  0  0
  140.3650   70.8240  225.6100 C   0  0  0  0  0  0  0  0  0  0  0  0
  141.0700   71.0380  226.8070 C   0  0  0  0  0  0  0  0  0  0  0  0
  141.9145   71.7426  226.8261 H   0  0  0  0  0  0  0  0  0  0  0  0
  140.8090   71.5430  224.3580 C   0  0  0  0  0  0  0  0  0  0  0  0
  141.7327   71.0782  223.9828 H   0  0  0  0  0  0  0  0  0  0  0  0
  140.9863   72.6010  224.6013 H   0  0  0  0  0  0  0  0  0  0  0  0
  139.7760   71.4640  223.3230 N   0  0  0  0  0  0  0  0  0  0  0  0
  139.3830   72.6400  222.5950 C   0  0  0  0  0  0  0  0  0  0  0  0
  140.3390   73.4710  222.1070 N   0  0  0  0  0  0  0  0  0  0  0  0
  140.0330   74.6280  221.4630 C   0  0  0  0  0  0  0  0  0  0  0  0
  141.1000   75.4760  220.9710 N   0  0  0  0  0  0  0  0  0  0  0  0
  141.0800   76.9330  221.1940 C   0  0  0  0  0  0  0  0  0  0  0  0
  140.0371   77.2826  221.1819 H   0  0  0  0  0  0  0  0  0  0  0  0
  141.5501   77.1409  222.1665 H   0  0  0  0  0  0  0  0  0  0  0  0
  141.8690   77.6770  220.1070 C   0  0  0  0  0  0  0  0  0  0  0  0
  141.3048   77.6347  219.1637 H   0  0  0  0  0  0  0  0  0  0  0  0
  142.0086   78.7181  220.4335 H   0  0  0  0  0  0  0  0  0  0  0  0
  143.1940   77.0780  219.8980 N   0  0  0  0  0  0  0  0  0  0  0  0
  143.7660   77.1440  220.7710 H   0  0  0  0  0  0  0  0  0  0  0  0
  143.6840   77.6050  219.1370 H   0  0  0  0  0  0  0  0  0  0  0  0
  143.0660   75.6750  219.4850 C   0  0  0  0  0  0  0  0  0  0  0  0
  142.4715   75.6234  218.5609 H   0  0  0  0  0  0  0  0  0  0  0  0
  144.0718   75.2632  219.3153 H   0  0  0  0  0  0  0  0  0  0  0  0
  142.3750   74.8520  220.5730 C   0  0  0  0  0  0  0  0  0  0  0  0
  142.1770   73.8404  220.1890 H   0  0  0  0  0  0  0  0  0  0  0  0
  143.0344   74.8055  221.4522 H   0  0  0  0  0  0  0  0  0  0  0  0
  138.6810   74.9830  221.3240 C   0  0  0  0  0  0  0  0  0  0  0  0
  138.4004   75.9245  220.8291 H   0  0  0  0  0  0  0  0  0  0  0  0
  137.6880   74.1170  221.8270 C   0  0  0  0  0  0  0  0  0  0  0  0
  136.4130   74.3910  221.7360 N   0  0  0  0  0  0  0  0  0  0  0  0
  135.3290   73.4790  221.3640 C   0  0  0  0  0  0  0  0  0  0  0  0
  134.6730   73.9750  220.6335 H   0  0  0  0  0  0  0  0  0  0  0  0
  135.7639   72.5687  220.9255 H   0  0  0  0  0  0  0  0  0  0  0  0
  134.5040   73.0900  222.6040 C   0  0  0  0  0  0  0  0  0  0  0  0
  133.5403   73.6177  222.5510 H   0  0  0  0  0  0  0  0  0  0  0  0
  134.4068   71.9947  222.5752 H   0  0  0  0  0  0  0  0  0  0  0  0
  135.1360   73.4150  223.9120 N   0  0  0  0  0  0  0  0  0  0  0  0
  136.1560   73.4790  223.6730 H   0  0  0  0  0  0  0  0  0  0  0  0
  134.7890   74.7600  224.4420 C   0  0  0  0  0  0  0  0  0  0  0  0
  135.6812   75.1879  224.9226 H   0  0  0  0  0  0  0  0  0  0  0  0
  134.4469   75.3693  223.5925 H   0  0  0  0  0  0  0  0  0  0  0  0
  133.6500   74.7260  225.4690 C   0  0  0  0  0  0  0  0  0  0  0  0
  133.5254   75.7279  225.9056 H   0  0  0  0  0  0  0  0  0  0  0  0
  132.7230   74.4162  224.9643 H   0  0  0  0  0  0  0  0  0  0  0  0
  133.9420   73.8060  226.4940 O   0  0  0  0  0  0  0  0  0  0  0  0
  133.9290   72.5040  225.9520 C   0  0  0  0  0  0  0  0  0  0  0  0
  134.0668   71.7759  226.7649 H   0  0  0  0  0  0  0  0  0  0  0  0
  132.9636   72.3466  225.4487 H   0  0  0  0  0  0  0  0  0  0  0  0
  135.0530   72.3190  224.9170 C   0  0  0  0  0  0  0  0  0  0  0  0
  136.0121   72.2677  225.4531 H   0  0  0  0  0  0  0  0  0  0  0  0
  134.8278   71.3954  224.3636 H   0  0  0  0  0  0  0  0  0  0  0  0
  138.0670   72.9650  222.4470 N   0  0  0  0  0  0  0  0  0  0  0  0
  137.3310   72.3410  222.8510 H   0  0  0  0  0  0  0  0  0  0  0  0
  139.1570   70.1600  223.0800 C   0  0  0  0  0  0  0  0  0  0  0  0
  139.9328   69.4298  222.8062 H   0  0  0  0  0  0  0  0  0  0  0  0
  138.4302   70.2434  222.2585 H   0  0  0  0  0  0  0  0  0  0  0  0
  138.4450   69.6970  224.3500 C   0  0  0  0  0  0  0  0  0  0  0  0
  138.2065   68.6276  224.2525 H   0  0  0  0  0  0  0  0  0  0  0  0
  137.5335   70.3019  224.4654 H   0  0  0  0  0  0  0  0  0  0  0  0
  1  2  1  0
  2  3  2  0
  3  4  1  0
  3  5  1  0
  5  6  1  0
  5  7  2  0
  7  8  1  0
  8  9  2  0
  9 10  1  0
  8 11  1  0
 11 12  1  0
 11 13  1  0
 11 14  1  0
 14 15  1  0
 15 16  2  0
 16 17  1  0
 17 18  1  0
 18 19  1  0
 19 20  1  0
 19 21  1  0
 19 22  1  0
 22 23  1  0
 22 24  1  0
 22 25  1  0
 25 26  1  0
 25 27  1  0
 25 28  1  0
 28 29  1  0
 28 30  1  0
 28 31  1  0
 31 32  1  0
 31 33  1  0
 17 34  2  0
 34 35  1  0
 34 36  1  0
 36 37  2  0
 37 38  1  0
 38 39  1  0
 38 40  1  0
 38 41  1  0
 41 42  1  0
 41 43  1  0
 41 44  1  0
 44 45  1  0
 44 46  1  0
 46 47  1  0
 46 48  1  0
 46 49  1  0
 49 50  1  0
 49 51  1  0
 49 52  1  0
 52 53  1  0
 53 54  1  0
 53 55  1  0
 53 56  1  0
 56 57  1  0
 56 58  1  0
 36 59  1  0
 59 60  1  0
 14 61  1  0
 61 62  1  0
 61 63  1  0
 61 64  1  0
 64 65  1  0
 64 66  1  0
  9  2  1  0
 59 15  1  0
 64  7  1  0
 31 18  1  0
 56 44  1  0
M  CHG  2  25   1  44   1
M  END
>  <UniqueID>  (66) 
487

>  <SMILES>  (66) 
c1ccc2c(c1)CCN(c1nc(N3CC[NH2+]CC3)c/c(=N\CC[NH+]3CCOCC3)[nH]1)C2

>  <Energy>  (66) 
89.6390617243663

>  <Genealogy>  (66) 
c1ccc2c(c1)CCN(c1nc(NCC[NH+]3CCOCC3)cc(N3CC[NH2+]CC3)n1)C2 (protonated)
c1ccc2c(c1)CCN(c1nc(N3CC[NH2+]CC3)cc(=NCC[NH+]3CCOCC3)[nH]1)C2 (tautomer)
c1ccc2c(c1)CCN(c1nc(N3CC[NH2+]CC3)c/c(=N\CC[NH+]3CCOCC3)[nH]1)C2 (cis-trans isomerization)
c1ccc2c(c1)CCN(c1nc(N3CC[NH2+]CC3)c/c(=N\CC[NH+]3CCOCC3)[nH]1)C2 (3D coordinates assigned)
c1ccc2c(c1)CCN(c1nc(N3CC[NH2+]CC3)c/c(=N\CC[NH+]3CCOCC3)[nH]1)C2 (nonaromatic ring conformer: 89.6390617243663 kcal/mol)

>  <smiles>  (66) 
c1ccc2c(c1)CCN(c1nc(NCCN3CCOCC3)cc(N3CCNCC3)n1)C2

>  <score_type>  (66) 
oracle

>  <origin>  (66) 
autodockgpu

>  <m_score__min__energy>  (66) 
-9.1799999999999997

>  <m_primary>  (66) 
energy

>  <meeko>  (66) 
{"free_energy": -8.27, "intermolecular_energy": -10.06, "internal_energy": -1.56, "cluster_size": 20, "cluster_id": 1, "rank_in_cluster": 20}

>  <energy>  (66) 
-8.78

>  <cluster_rmsd>  (66) 
0.45

>  <rmsd>  (66) 
271.8

>  <cluster>  (66) 
1

$$$$
DRRGDEWGQQLPRW-CXKBQSNCNA-P
     RDKit          3D

 66 70  0  0  0  0  0  0  0  0999 V2000
  141.2637   70.5926  228.9159 H   0  0  0  0  0  0  0  0  0  0  0  0
  140.7150   70.4010  227.9820 C   0  0  0  0  0  0  0  0  0  0  0  0
  139.6580   69.4880  227.9700 C   0  0  0  0  0  0  0  0  0  0  0  0
  139.3793   68.9577  228.8926 H   0  0  0  0  0  0  0  0  0  0  0  0
  138.9550   69.2480  226.7880 C   0  0  0  0  0  0  0  0  0  0  0  0
  138.1207   68.5312  226.7857 H   0  0  0  0  0  0  0  0  0  0  0  0
  139.3040   69.9140  225.6020 C   0  0  0  0  0  0  0  0  0  0  0  0
  140.3720   70.8470  225.6180 C   0  0  0  0  0  0  0  0  0  0  0  0
  141.0770   71.0710  226.8120 C   0  0  0  0  0  0  0  0  0  0  0  0
  141.9192   71.7784  226.8252 H   0  0  0  0  0  0  0  0  0  0  0  0
  140.8100   71.5590  224.3610 C   0  0  0  0  0  0  0  0  0  0  0  0
  141.7352   71.0958  223.9875 H   0  0  0  0  0  0  0  0  0  0  0  0
  140.9821   72.6195  224.5973 H   0  0  0  0  0  0  0  0  0  0  0  0
  139.7760   71.4690  223.3270 N   0  0  0  0  0  0  0  0  0  0  0  0
  139.3780   72.6390  222.5930 C   0  0  0  0  0  0  0  0  0  0  0  0
  140.3290   73.4790  222.1110 N   0  0  0  0  0  0  0  0  0  0  0  0
  140.0170   74.6300  221.4600 C   0  0  0  0  0  0  0  0  0  0  0  0
  141.0790   75.4880  220.9760 N   0  0  0  0  0  0  0  0  0  0  0  0
  141.0600   76.9400  221.2260 C   0  0  0  0  0  0  0  0  0  0  0  0
  140.0168   77.2888  221.2287 H   0  0  0  0  0  0  0  0  0  0  0  0
  141.5382   77.1296  222.1983 H   0  0  0  0  0  0  0  0  0  0  0  0
  141.8400   77.7060  220.1470 C   0  0  0  0  0  0  0  0  0  0  0  0
  141.2678   77.6826  219.2078 H   0  0  0  0  0  0  0  0  0  0  0  0
  141.9825   78.7404  220.4929 H   0  0  0  0  0  0  0  0  0  0  0  0
  143.1630   77.1110  219.9150 N   0  0  0  0  0  0  0  0  0  0  0  0
  143.7430   77.1620  220.7850 H   0  0  0  0  0  0  0  0  0  0  0  0
  143.6460   77.6530  219.1610 H   0  0  0  0  0  0  0  0  0  0  0  0
  143.0330   75.7170  219.4770 C   0  0  0  0  0  0  0  0  0  0  0  0
  142.4314   75.6822  218.5568 H   0  0  0  0  0  0  0  0  0  0  0  0
  144.0377   75.3094  219.2917 H   0  0  0  0  0  0  0  0  0  0  0  0
  142.3510   74.8730  220.5550 C   0  0  0  0  0  0  0  0  0  0  0  0
  142.1503   73.8689  220.1532 H   0  0  0  0  0  0  0  0  0  0  0  0
  143.0178   74.8106  221.4276 H   0  0  0  0  0  0  0  0  0  0  0  0
  138.6630   74.9700  221.3070 C   0  0  0  0  0  0  0  0  0  0  0  0
  138.3771   75.9066  220.8060 H   0  0  0  0  0  0  0  0  0  0  0  0
  137.6740   74.0950  221.8040 C   0  0  0  0  0  0  0  0  0  0  0  0
  136.3970   74.3550  221.7010 N   0  0  0  0  0  0  0  0  0  0  0  0
  135.3110   73.4040  221.4560 C   0  0  0  0  0  0  0  0  0  0  0  0
  134.7204   73.7429  220.5921 H   0  0  0  0  0  0  0  0  0  0  0  0
  135.7433   72.4131  221.2528 H   0  0  0  0  0  0  0  0  0  0  0  0
  134.3950   73.3060  222.6900 C   0  0  0  0  0  0  0  0  0  0  0  0
  133.5875   74.0439  222.5740 H   0  0  0  0  0  0  0  0  0  0  0  0
  134.0382   72.2660  222.7236 H   0  0  0  0  0  0  0  0  0  0  0  0
  135.0630   73.5560  223.9960 N   0  0  0  0  0  0  0  0  0  0  0  0
  136.0740   73.6500  223.7310 H   0  0  0  0  0  0  0  0  0  0  0  0
  134.7170   74.8600  224.6200 C   0  0  0  0  0  0  0  0  0  0  0  0
  135.6186   75.2691  225.0993 H   0  0  0  0  0  0  0  0  0  0  0  0
  134.3414   75.5167  223.8214 H   0  0  0  0  0  0  0  0  0  0  0  0
  133.6110   74.7460  225.6770 C   0  0  0  0  0  0  0  0  0  0  0  0
  133.4879   75.7169  226.1792 H   0  0  0  0  0  0  0  0  0  0  0  0
  132.6725   74.4553  225.1822 H   0  0  0  0  0  0  0  0  0  0  0  0
  133.9460   73.7680  226.6330 O   0  0  0  0  0  0  0  0  0  0  0  0
  133.9330   72.5020  226.0100 C   0  0  0  0  0  0  0  0  0  0  0  0
  134.1060   71.7264  226.7706 H   0  0  0  0  0  0  0  0  0  0  0  0
  132.9543   72.3622  225.5276 H   0  0  0  0  0  0  0  0  0  0  0  0
  135.0250   72.3990  224.9320 C   0  0  0  0  0  0  0  0  0  0  0  0
  136.0011   72.3281  225.4342 H   0  0  0  0  0  0  0  0  0  0  0  0
  134.7934   71.5090  224.3285 H   0  0  0  0  0  0  0  0  0  0  0  0
  138.0600   72.9480  222.4310 N   0  0  0  0  0  0  0  0  0  0  0  0
  137.3270   72.3180  222.8300 H   0  0  0  0  0  0  0  0  0  0  0  0
  139.1630   70.1610  223.0940 C   0  0  0  0  0  0  0  0  0  0  0  0
  139.9420   69.4326  222.8245 H   0  0  0  0  0  0  0  0  0  0  0  0
  138.4349   70.2356  222.2728 H   0  0  0  0  0  0  0  0  0  0  0  0
  138.4540   69.7030  224.3680 C   0  0  0  0  0  0  0  0  0  0  0  0
  138.2200   68.6320  224.2778 H   0  0  0  0  0  0  0  0  0  0  0  0
  137.5397   70.3042  224.4806 H   0  0  0  0  0  0  0  0  0  0  0  0
  1  2  1  0
  2  3  2  0
  3  4  1  0
  3  5  1  0
  5  6  1  0
  5  7  2  0
  7  8  1  0
  8  9  2  0
  9 10  1  0
  8 11  1  0
 11 12  1  0
 11 13  1  0
 11 14  1  0
 14 15  1  0
 15 16  2  0
 16 17  1  0
 17 18  1  0
 18 19  1  0
 19 20  1  0
 19 21  1  0
 19 22  1  0
 22 23  1  0
 22 24  1  0
 22 25  1  0
 25 26  1  0
 25 27  1  0
 25 28  1  0
 28 29  1  0
 28 30  1  0
 28 31  1  0
 31 32  1  0
 31 33  1  0
 17 34  2  0
 34 35  1  0
 34 36  1  0
 36 37  2  0
 37 38  1  0
 38 39  1  0
 38 40  1  0
 38 41  1  0
 41 42  1  0
 41 43  1  0
 41 44  1  0
 44 45  1  0
 44 46  1  0
 46 47  1  0
 46 48  1  0
 46 49  1  0
 49 50  1  0
 49 51  1  0
 49 52  1  0
 52 53  1  0
 53 54  1  0
 53 55  1  0
 53 56  1  0
 56 57  1  0
 56 58  1  0
 36 59  1  0
 59 60  1  0
 14 61  1  0
 61 62  1  0
 61 63  1  0
 61 64  1  0
 64 65  1  0
 64 66  1  0
  9  2  1  0
 59 15  1  0
 64  7  1  0
 31 18  1  0
 56 44  1  0
M  CHG  2  25   1  44   1
M  END
>  <UniqueID>  (67) 
487

>  <SMILES>  (67) 
c1ccc2c(c1)CCN(c1nc(N3CC[NH2+]CC3)c/c(=N\CC[NH+]3CCOCC3)[nH]1)C2

>  <Energy>  (67) 
89.6390617243663

>  <Genealogy>  (67) 
c1ccc2c(c1)CCN(c1nc(NCC[NH+]3CCOCC3)cc(N3CC[NH2+]CC3)n1)C2 (protonated)
c1ccc2c(c1)CCN(c1nc(N3CC[NH2+]CC3)cc(=NCC[NH+]3CCOCC3)[nH]1)C2 (tautomer)
c1ccc2c(c1)CCN(c1nc(N3CC[NH2+]CC3)c/c(=N\CC[NH+]3CCOCC3)[nH]1)C2 (cis-trans isomerization)
c1ccc2c(c1)CCN(c1nc(N3CC[NH2+]CC3)c/c(=N\CC[NH+]3CCOCC3)[nH]1)C2 (3D coordinates assigned)
c1ccc2c(c1)CCN(c1nc(N3CC[NH2+]CC3)c/c(=N\CC[NH+]3CCOCC3)[nH]1)C2 (nonaromatic ring conformer: 89.6390617243663 kcal/mol)

>  <smiles>  (67) 
c1ccc2c(c1)CCN(c1nc(NCCN3CCOCC3)cc(N3CCNCC3)n1)C2

>  <score_type>  (67) 
oracle

>  <origin>  (67) 
autodockgpu

>  <m_score__min__energy>  (67) 
-9.1799999999999997

>  <m_primary>  (67) 
energy

>  <meeko>  (67) 
{"free_energy": -8.32, "intermolecular_energy": -10.11, "internal_energy": -1.54, "cluster_size": 20, "cluster_id": 1, "rank_in_cluster": 12}

>  <energy>  (67) 
-8.77

>  <cluster_rmsd>  (67) 
0.58

>  <rmsd>  (67) 
271.82

>  <cluster>  (67) 
1

$$$$
DRRGDEWGQQLPRW-CXKBQSNCNA-P
     RDKit          3D

 66 70  0  0  0  0  0  0  0  0999 V2000
  141.2469   70.6043  228.9167 H   0  0  0  0  0  0  0  0  0  0  0  0
  140.7000   70.4110  227.9820 C   0  0  0  0  0  0  0  0  0  0  0  0
  139.6400   69.5020  227.9700 C   0  0  0  0  0  0  0  0  0  0  0  0
  139.3574   68.9754  228.8935 H   0  0  0  0  0  0  0  0  0  0  0  0
  138.9390   69.2610  226.7880 C   0  0  0  0  0  0  0  0  0  0  0  0
  138.1016   68.5477  226.7866 H   0  0  0  0  0  0  0  0  0  0  0  0
  139.2930   69.9210  225.6000 C   0  0  0  0  0  0  0  0  0  0  0  0
  140.3640   70.8490  225.6150 C   0  0  0  0  0  0  0  0  0  0  0  0
  141.0670   71.0750  226.8100 C   0  0  0  0  0  0  0  0  0  0  0  0
  141.9118   71.7794  226.8224 H   0  0  0  0  0  0  0  0  0  0  0  0
  140.8080   71.5550  224.3560 C   0  0  0  0  0  0  0  0  0  0  0  0
  141.7321   71.0868  223.9862 H   0  0  0  0  0  0  0  0  0  0  0  0
  140.9842   72.6156  224.5886 H   0  0  0  0  0  0  0  0  0  0  0  0
  139.7760   71.4650  223.3210 N   0  0  0  0  0  0  0  0  0  0  0  0
  139.3830   72.6340  222.5810 C   0  0  0  0  0  0  0  0  0  0  0  0
  140.3390   73.4710  222.1030 N   0  0  0  0  0  0  0  0  0  0  0  0
  140.0320   74.6220  221.4480 C   0  0  0  0  0  0  0  0  0  0  0  0
  141.0990   75.4770  220.9680 N   0  0  0  0  0  0  0  0  0  0  0  0
  141.0740   76.9320  221.2050 C   0  0  0  0  0  0  0  0  0  0  0  0
  140.0302   77.2789  221.1926 H   0  0  0  0  0  0  0  0  0  0  0  0
  141.5398   77.1323  222.1812 H   0  0  0  0  0  0  0  0  0  0  0  0
  141.8650   77.6880  220.1270 C   0  0  0  0  0  0  0  0  0  0  0  0
  141.3040   77.6529  219.1815 H   0  0  0  0  0  0  0  0  0  0  0  0
  142.0010   78.7265  220.4633 H   0  0  0  0  0  0  0  0  0  0  0  0
  143.1920   77.0940  219.9170 N   0  0  0  0  0  0  0  0  0  0  0  0
  143.7610   77.1540  220.7930 H   0  0  0  0  0  0  0  0  0  0  0  0
  143.6830   77.6300  219.1640 H   0  0  0  0  0  0  0  0  0  0  0  0
  143.0700   75.6960  219.4910 C   0  0  0  0  0  0  0  0  0  0  0  0
  142.4798   75.6513  218.5638 H   0  0  0  0  0  0  0  0  0  0  0  0
  144.0778   75.2887  219.3222 H   0  0  0  0  0  0  0  0  0  0  0  0
  142.3760   74.8600  220.5690 C   0  0  0  0  0  0  0  0  0  0  0  0
  142.1816   73.8519  220.1741 H   0  0  0  0  0  0  0  0  0  0  0  0
  143.0321   74.8061  221.4502 H   0  0  0  0  0  0  0  0  0  0  0  0
  138.6800   74.9630  221.2860 C   0  0  0  0  0  0  0  0  0  0  0  0
  138.3985   75.8990  220.7814 H   0  0  0  0  0  0  0  0  0  0  0  0
  137.6870   74.0910  221.7780 C   0  0  0  0  0  0  0  0  0  0  0  0
  136.4100   74.3520  221.6670 N   0  0  0  0  0  0  0  0  0  0  0  0
  135.3300   73.4100  221.3670 C   0  0  0  0  0  0  0  0  0  0  0  0
  134.7062   73.8191  220.5586 H   0  0  0  0  0  0  0  0  0  0  0  0
  135.7691   72.4504  221.0565 H   0  0  0  0  0  0  0  0  0  0  0  0
  134.4570   73.1800  222.6150 C   0  0  0  0  0  0  0  0  0  0  0  0
  133.5502   73.7944  222.5140 H   0  0  0  0  0  0  0  0  0  0  0  0
  134.2538   72.0995  222.6506 H   0  0  0  0  0  0  0  0  0  0  0  0
  135.1030   73.5220  223.9120 N   0  0  0  0  0  0  0  0  0  0  0  0
  136.1220   73.5680  223.6640 H   0  0  0  0  0  0  0  0  0  0  0  0
  134.7790   74.8820  224.4160 C   0  0  0  0  0  0  0  0  0  0  0  0
  135.6805   75.3070  224.8816 H   0  0  0  0  0  0  0  0  0  0  0  0
  134.4398   75.4787  223.5564 H   0  0  0  0  0  0  0  0  0  0  0  0
  133.6470   74.8850  225.4510 C   0  0  0  0  0  0  0  0  0  0  0  0
  133.5391   75.8974  225.8673 H   0  0  0  0  0  0  0  0  0  0  0  0
  132.7126   74.5773  224.9589 H   0  0  0  0  0  0  0  0  0  0  0  0
  133.9330   73.9830  226.4930 O   0  0  0  0  0  0  0  0  0  0  0  0
  133.8990   72.6700  225.9780 C   0  0  0  0  0  0  0  0  0  0  0  0
  134.0337   71.9570  226.8048 H   0  0  0  0  0  0  0  0  0  0  0  0
  132.9278   72.5149  225.4853 H   0  0  0  0  0  0  0  0  0  0  0  0
  135.0120   72.4490  224.9390 C   0  0  0  0  0  0  0  0  0  0  0  0
  135.9743   72.3951  225.4691 H   0  0  0  0  0  0  0  0  0  0  0  0
  134.7693   71.5179  224.4058 H   0  0  0  0  0  0  0  0  0  0  0  0
  138.0670   72.9450  222.4100 N   0  0  0  0  0  0  0  0  0  0  0  0
  137.3310   72.3160  222.8060 H   0  0  0  0  0  0  0  0  0  0  0  0
  139.1570   70.1590  223.0910 C   0  0  0  0  0  0  0  0  0  0  0  0
  139.9329   69.4261  222.8248 H   0  0  0  0  0  0  0  0  0  0  0  0
  138.4304   70.2348  222.2686 H   0  0  0  0  0  0  0  0  0  0  0  0
  138.4440   69.7080  224.3650 C   0  0  0  0  0  0  0  0  0  0  0  0
  138.2067   68.6374  224.2783 H   0  0  0  0  0  0  0  0  0  0  0  0
  137.5313   70.3123  224.4737 H   0  0  0  0  0  0  0  0  0  0  0  0
  1  2  1  0
  2  3  2  0
  3  4  1  0
  3  5  1  0
  5  6  1  0
  5  7  2  0
  7  8  1  0
  8  9  2  0
  9 10  1  0
  8 11  1  0
 11 12  1  0
 11 13  1  0
 11 14  1  0
 14 15  1  0
 15 16  2  0
 16 17  1  0
 17 18  1  0
 18 19  1  0
 19 20  1  0
 19 21  1  0
 19 22  1  0
 22 23  1  0
 22 24  1  0
 22 25  1  0
 25 26  1  0
 25 27  1  0
 25 28  1  0
 28 29  1  0
 28 30  1  0
 28 31  1  0
 31 32  1  0
 31 33  1  0
 17 34  2  0
 34 35  1  0
 34 36  1  0
 36 37  2  0
 37 38  1  0
 38 39  1  0
 38 40  1  0
 38 41  1  0
 41 42  1  0
 41 43  1  0
 41 44  1  0
 44 45  1  0
 44 46  1  0
 46 47  1  0
 46 48  1  0
 46 49  1  0
 49 50  1  0
 49 51  1  0
 49 52  1  0
 52 53  1  0
 53 54  1  0
 53 55  1  0
 53 56  1  0
 56 57  1  0
 56 58  1  0
 36 59  1  0
 59 60  1  0
 14 61  1  0
 61 62  1  0
 61 63  1  0
 61 64  1  0
 64 65  1  0
 64 66  1  0
  9  2  1  0
 59 15  1  0
 64  7  1  0
 31 18  1  0
 56 44  1  0
M  CHG  2  25   1  44   1
M  END
>  <UniqueID>  (68) 
487

>  <SMILES>  (68) 
c1ccc2c(c1)CCN(c1nc(N3CC[NH2+]CC3)c/c(=N\CC[NH+]3CCOCC3)[nH]1)C2

>  <Energy>  (68) 
89.6390617243663

>  <Genealogy>  (68) 
c1ccc2c(c1)CCN(c1nc(NCC[NH+]3CCOCC3)cc(N3CC[NH2+]CC3)n1)C2 (protonated)
c1ccc2c(c1)CCN(c1nc(N3CC[NH2+]CC3)cc(=NCC[NH+]3CCOCC3)[nH]1)C2 (tautomer)
c1ccc2c(c1)CCN(c1nc(N3CC[NH2+]CC3)c/c(=N\CC[NH+]3CCOCC3)[nH]1)C2 (cis-trans isomerization)
c1ccc2c(c1)CCN(c1nc(N3CC[NH2+]CC3)c/c(=N\CC[NH+]3CCOCC3)[nH]1)C2 (3D coordinates assigned)
c1ccc2c(c1)CCN(c1nc(N3CC[NH2+]CC3)c/c(=N\CC[NH+]3CCOCC3)[nH]1)C2 (nonaromatic ring conformer: 89.6390617243663 kcal/mol)

>  <smiles>  (68) 
c1ccc2c(c1)CCN(c1nc(NCCN3CCOCC3)cc(N3CCNCC3)n1)C2

>  <score_type>  (68) 
oracle

>  <origin>  (68) 
autodockgpu

>  <m_score__min__energy>  (68) 
-9.1799999999999997

>  <m_primary>  (68) 
energy

>  <meeko>  (68) 
{"free_energy": -8.31, "intermolecular_energy": -10.1, "internal_energy": -1.55, "cluster_size": 20, "cluster_id": 1, "rank_in_cluster": 13}

>  <energy>  (68) 
-8.77

>  <cluster_rmsd>  (68) 
0.49

>  <rmsd>  (68) 
271.81

>  <cluster>  (68) 
1

$$$$
DRRGDEWGQQLPRW-CXKBQSNCNA-P
     RDKit          3D

 66 70  0  0  0  0  0  0  0  0999 V2000
  141.2679   70.5264  228.9185 H   0  0  0  0  0  0  0  0  0  0  0  0
  140.7190   70.3430  227.9830 C   0  0  0  0  0  0  0  0  0  0  0  0
  139.6630   69.4290  227.9620 C   0  0  0  0  0  0  0  0  0  0  0  0
  139.3849   68.8897  228.8795 H   0  0  0  0  0  0  0  0  0  0  0  0
  138.9600   69.1990  226.7780 C   0  0  0  0  0  0  0  0  0  0  0  0
  138.1272   68.4804  226.7690 H   0  0  0  0  0  0  0  0  0  0  0  0
  139.3070   69.8770  225.5990 C   0  0  0  0  0  0  0  0  0  0  0  0
  140.3740   70.8110  225.6230 C   0  0  0  0  0  0  0  0  0  0  0  0
  141.0790   71.0240  226.8190 C   0  0  0  0  0  0  0  0  0  0  0  0
  141.9204   71.7322  226.8385 H   0  0  0  0  0  0  0  0  0  0  0  0
  140.8110   71.5350  224.3720 C   0  0  0  0  0  0  0  0  0  0  0  0
  141.7364   71.0761  223.9938 H   0  0  0  0  0  0  0  0  0  0  0  0
  140.9826   72.5934  224.6175 H   0  0  0  0  0  0  0  0  0  0  0  0
  139.7760   71.4530  223.3380 N   0  0  0  0  0  0  0  0  0  0  0  0
  139.3760   72.6290  222.6150 C   0  0  0  0  0  0  0  0  0  0  0  0
  140.3270   73.4710  222.1340 N   0  0  0  0  0  0  0  0  0  0  0  0
  140.0120   74.6280  221.4940 C   0  0  0  0  0  0  0  0  0  0  0  0
  141.0740   75.4880  221.0110 N   0  0  0  0  0  0  0  0  0  0  0  0
  141.0670   76.9360  221.2860 C   0  0  0  0  0  0  0  0  0  0  0  0
  140.0261   77.2909  221.3085 H   0  0  0  0  0  0  0  0  0  0  0  0
  141.5589   77.1064  222.2550 H   0  0  0  0  0  0  0  0  0  0  0  0
  141.8370   77.7150  220.2100 C   0  0  0  0  0  0  0  0  0  0  0  0
  141.2526   77.7099  219.2781 H   0  0  0  0  0  0  0  0  0  0  0  0
  141.9896   78.7428  220.5709 H   0  0  0  0  0  0  0  0  0  0  0  0
  143.1540   77.1170  219.9510 N   0  0  0  0  0  0  0  0  0  0  0  0
  143.7450   77.1490  220.8140 H   0  0  0  0  0  0  0  0  0  0  0  0
  143.6310   77.6680  219.2000 H   0  0  0  0  0  0  0  0  0  0  0  0
  143.0100   75.7310  219.4920 C   0  0  0  0  0  0  0  0  0  0  0  0
  142.3969   75.7152  218.5788 H   0  0  0  0  0  0  0  0  0  0  0  0
  144.0101   75.3209  219.2882 H   0  0  0  0  0  0  0  0  0  0  0  0
  142.3360   74.8720  220.5640 C   0  0  0  0  0  0  0  0  0  0  0  0
  142.1236   73.8763  220.1474 H   0  0  0  0  0  0  0  0  0  0  0  0
  143.0132   74.7895  221.4269 H   0  0  0  0  0  0  0  0  0  0  0  0
  138.6590   74.9710  221.3510 C   0  0  0  0  0  0  0  0  0  0  0  0
  138.3724   75.9120  220.8586 H   0  0  0  0  0  0  0  0  0  0  0  0
  137.6710   74.0950  221.8460 C   0  0  0  0  0  0  0  0  0  0  0  0
  136.3930   74.3580  221.7520 N   0  0  0  0  0  0  0  0  0  0  0  0
  135.3150   73.4280  221.4110 C   0  0  0  0  0  0  0  0  0  0  0  0
  134.6787   73.8792  220.6354 H   0  0  0  0  0  0  0  0  0  0  0  0
  135.7559   72.4910  221.0400 H   0  0  0  0  0  0  0  0  0  0  0  0
  134.4590   73.1200  222.6540 C   0  0  0  0  0  0  0  0  0  0  0  0
  133.5361   73.7148  222.5875 H   0  0  0  0  0  0  0  0  0  0  0  0
  134.2838   72.0341  222.6425 H   0  0  0  0  0  0  0  0  0  0  0  0
  135.1070   73.4200  223.9600 N   0  0  0  0  0  0  0  0  0  0  0  0
  136.1250   73.4800  223.7110 H   0  0  0  0  0  0  0  0  0  0  0  0
  134.7770   74.7600  224.5120 C   0  0  0  0  0  0  0  0  0  0  0  0
  135.6778   75.1742  224.9885 H   0  0  0  0  0  0  0  0  0  0  0  0
  134.4309   75.3841  223.6749 H   0  0  0  0  0  0  0  0  0  0  0  0
  133.6490   74.7200  225.5510 C   0  0  0  0  0  0  0  0  0  0  0  0
  133.5375   75.7164  226.0036 H   0  0  0  0  0  0  0  0  0  0  0  0
  132.7142   74.4250  225.0519 H   0  0  0  0  0  0  0  0  0  0  0  0
  133.9440   73.7830  226.5590 O   0  0  0  0  0  0  0  0  0  0  0  0
  133.9150   72.4890  225.9990 C   0  0  0  0  0  0  0  0  0  0  0  0
  134.0564   71.7483  226.7999 H   0  0  0  0  0  0  0  0  0  0  0  0
  132.9429   72.3455  225.5047 H   0  0  0  0  0  0  0  0  0  0  0  0
  135.0260   72.3110  224.9490 C   0  0  0  0  0  0  0  0  0  0  0  0
  135.9905   72.2443  225.4738 H   0  0  0  0  0  0  0  0  0  0  0  0
  134.7871   71.3977  224.3844 H   0  0  0  0  0  0  0  0  0  0  0  0
  138.0580   72.9430  222.4620 N   0  0  0  0  0  0  0  0  0  0  0  0
  137.3260   72.3100  222.8610 H   0  0  0  0  0  0  0  0  0  0  0  0
  139.1640   70.1470  223.0930 C   0  0  0  0  0  0  0  0  0  0  0  0
  139.9433   69.4220  222.8156 H   0  0  0  0  0  0  0  0  0  0  0  0
  138.4349   70.2290  222.2735 H   0  0  0  0  0  0  0  0  0  0  0  0
  138.4570   69.6760  224.3630 C   0  0  0  0  0  0  0  0  0  0  0  0
  138.2250   68.6054  224.2629 H   0  0  0  0  0  0  0  0  0  0  0  0
  137.5419   70.2747  224.4817 H   0  0  0  0  0  0  0  0  0  0  0  0
  1  2  1  0
  2  3  2  0
  3  4  1  0
  3  5  1  0
  5  6  1  0
  5  7  2  0
  7  8  1  0
  8  9  2  0
  9 10  1  0
  8 11  1  0
 11 12  1  0
 11 13  1  0
 11 14  1  0
 14 15  1  0
 15 16  2  0
 16 17  1  0
 17 18  1  0
 18 19  1  0
 19 20  1  0
 19 21  1  0
 19 22  1  0
 22 23  1  0
 22 24  1  0
 22 25  1  0
 25 26  1  0
 25 27  1  0
 25 28  1  0
 28 29  1  0
 28 30  1  0
 28 31  1  0
 31 32  1  0
 31 33  1  0
 17 34  2  0
 34 35  1  0
 34 36  1  0
 36 37  2  0
 37 38  1  0
 38 39  1  0
 38 40  1  0
 38 41  1  0
 41 42  1  0
 41 43  1  0
 41 44  1  0
 44 45  1  0
 44 46  1  0
 46 47  1  0
 46 48  1  0
 46 49  1  0
 49 50  1  0
 49 51  1  0
 49 52  1  0
 52 53  1  0
 53 54  1  0
 53 55  1  0
 53 56  1  0
 56 57  1  0
 56 58  1  0
 36 59  1  0
 59 60  1  0
 14 61  1  0
 61 62  1  0
 61 63  1  0
 61 64  1  0
 64 65  1  0
 64 66  1  0
  9  2  1  0
 59 15  1  0
 64  7  1  0
 31 18  1  0
 56 44  1  0
M  CHG  2  25   1  44   1
M  END
>  <UniqueID>  (69) 
487

>  <SMILES>  (69) 
c1ccc2c(c1)CCN(c1nc(N3CC[NH2+]CC3)c/c(=N\CC[NH+]3CCOCC3)[nH]1)C2

>  <Energy>  (69) 
89.6390617243663

>  <Genealogy>  (69) 
c1ccc2c(c1)CCN(c1nc(NCC[NH+]3CCOCC3)cc(N3CC[NH2+]CC3)n1)C2 (protonated)
c1ccc2c(c1)CCN(c1nc(N3CC[NH2+]CC3)cc(=NCC[NH+]3CCOCC3)[nH]1)C2 (tautomer)
c1ccc2c(c1)CCN(c1nc(N3CC[NH2+]CC3)c/c(=N\CC[NH+]3CCOCC3)[nH]1)C2 (cis-trans isomerization)
c1ccc2c(c1)CCN(c1nc(N3CC[NH2+]CC3)c/c(=N\CC[NH+]3CCOCC3)[nH]1)C2 (3D coordinates assigned)
c1ccc2c(c1)CCN(c1nc(N3CC[NH2+]CC3)c/c(=N\CC[NH+]3CCOCC3)[nH]1)C2 (nonaromatic ring conformer: 89.6390617243663 kcal/mol)

>  <smiles>  (69) 
c1ccc2c(c1)CCN(c1nc(NCCN3CCOCC3)cc(N3CCNCC3)n1)C2

>  <score_type>  (69) 
oracle

>  <origin>  (69) 
autodockgpu

>  <m_score__min__energy>  (69) 
-9.1799999999999997

>  <m_primary>  (69) 
energy

>  <meeko>  (69) 
{"free_energy": -8.29, "intermolecular_energy": -10.08, "internal_energy": -1.56, "cluster_size": 20, "cluster_id": 1, "rank_in_cluster": 17}

>  <energy>  (69) 
-8.76

>  <cluster_rmsd>  (69) 
0.48

>  <rmsd>  (69) 
271.8

>  <cluster>  (69) 
1

$$$$
DRRGDEWGQQLPRW-CXKBQSNCNA-P
     RDKit          3D

 66 70  0  0  0  0  0  0  0  0999 V2000
  141.2696   70.5719  228.9224 H   0  0  0  0  0  0  0  0  0  0  0  0
  140.7170   70.3840  227.9900 C   0  0  0  0  0  0  0  0  0  0  0  0
  139.6530   69.4790  227.9810 C   0  0  0  0  0  0  0  0  0  0  0  0
  139.3728   68.9511  228.9044 H   0  0  0  0  0  0  0  0  0  0  0  0
  138.9450   69.2440  226.8010 C   0  0  0  0  0  0  0  0  0  0  0  0
  138.1049   68.5340  226.8014 H   0  0  0  0  0  0  0  0  0  0  0  0
  139.2960   69.9060  225.6140 C   0  0  0  0  0  0  0  0  0  0  0  0
  140.3710   70.8310  225.6260 C   0  0  0  0  0  0  0  0  0  0  0  0
  141.0810   71.0510  226.8180 C   0  0  0  0  0  0  0  0  0  0  0  0
  141.9283   71.7524  226.8285 H   0  0  0  0  0  0  0  0  0  0  0  0
  140.8110   71.5390  224.3670 C   0  0  0  0  0  0  0  0  0  0  0  0
  141.7316   71.0686  223.9912 H   0  0  0  0  0  0  0  0  0  0  0  0
  140.9920   72.5983  224.6019 H   0  0  0  0  0  0  0  0  0  0  0  0
  139.7740   71.4560  223.3370 N   0  0  0  0  0  0  0  0  0  0  0  0
  139.3830   72.6290  222.6020 C   0  0  0  0  0  0  0  0  0  0  0  0
  140.3390   73.4670  222.1270 N   0  0  0  0  0  0  0  0  0  0  0  0
  140.0330   74.6200  221.4770 C   0  0  0  0  0  0  0  0  0  0  0  0
  141.1000   75.4760  220.9990 N   0  0  0  0  0  0  0  0  0  0  0  0
  141.0650   76.9330  221.2200 C   0  0  0  0  0  0  0  0  0  0  0  0
  140.0196   77.2742  221.1920 H   0  0  0  0  0  0  0  0  0  0  0  0
  141.5189   77.1457  222.1992 H   0  0  0  0  0  0  0  0  0  0  0  0
  141.8640   77.6820  220.1440 C   0  0  0  0  0  0  0  0  0  0  0  0
  141.3132   77.6355  219.1930 H   0  0  0  0  0  0  0  0  0  0  0  0
  141.9919   78.7239  220.4727 H   0  0  0  0  0  0  0  0  0  0  0  0
  143.1960   77.0930  219.9530 N   0  0  0  0  0  0  0  0  0  0  0  0
  143.7560   77.1650  220.8350 H   0  0  0  0  0  0  0  0  0  0  0  0
  143.6930   77.6230  219.1990 H   0  0  0  0  0  0  0  0  0  0  0  0
  143.0850   75.6890  219.5410 C   0  0  0  0  0  0  0  0  0  0  0  0
  142.5043   75.6313  218.6085 H   0  0  0  0  0  0  0  0  0  0  0  0
  144.0965   75.2850  219.3868 H   0  0  0  0  0  0  0  0  0  0  0  0
  142.3850   74.8620  220.6200 C   0  0  0  0  0  0  0  0  0  0  0  0
  142.2005   73.8484  220.2344 H   0  0  0  0  0  0  0  0  0  0  0  0
  143.0321   74.8219  221.5086 H   0  0  0  0  0  0  0  0  0  0  0  0
  138.6810   74.9640  221.3180 C   0  0  0  0  0  0  0  0  0  0  0  0
  138.4004   75.9025  220.8176 H   0  0  0  0  0  0  0  0  0  0  0  0
  137.6870   74.0910  221.8080 C   0  0  0  0  0  0  0  0  0  0  0  0
  136.4110   74.3550  221.6990 N   0  0  0  0  0  0  0  0  0  0  0  0
  135.3330   73.4220  221.3660 C   0  0  0  0  0  0  0  0  0  0  0  0
  134.6762   73.8812  220.6125 H   0  0  0  0  0  0  0  0  0  0  0  0
  135.7734   72.4952  220.9696 H   0  0  0  0  0  0  0  0  0  0  0  0
  134.5070   73.0850  222.6210 C   0  0  0  0  0  0  0  0  0  0  0  0
  133.5492   73.6216  222.5523 H   0  0  0  0  0  0  0  0  0  0  0  0
  134.3976   71.9905  222.6298 H   0  0  0  0  0  0  0  0  0  0  0  0
  135.1460   73.4470  223.9160 N   0  0  0  0  0  0  0  0  0  0  0  0
  136.1660   73.4940  223.6710 H   0  0  0  0  0  0  0  0  0  0  0  0
  134.8130   74.8110  224.4020 C   0  0  0  0  0  0  0  0  0  0  0  0
  135.7105   75.2464  224.8655 H   0  0  0  0  0  0  0  0  0  0  0  0
  134.4737   75.3951  223.5339 H   0  0  0  0  0  0  0  0  0  0  0  0
  133.6770   74.8210  225.4330 C   0  0  0  0  0  0  0  0  0  0  0  0
  133.5623   75.8379  225.8365 H   0  0  0  0  0  0  0  0  0  0  0  0
  132.7456   74.5028  224.9418 H   0  0  0  0  0  0  0  0  0  0  0  0
  133.9650   73.9330  226.4870 O   0  0  0  0  0  0  0  0  0  0  0  0
  133.9390   72.6140  225.9880 C   0  0  0  0  0  0  0  0  0  0  0  0
  134.0736   71.9118  226.8240 H   0  0  0  0  0  0  0  0  0  0  0  0
  132.9705   72.4488  225.4934 H   0  0  0  0  0  0  0  0  0  0  0  0
  135.0570   72.3850  224.9560 C   0  0  0  0  0  0  0  0  0  0  0  0
  136.0177   72.3421  225.4901 H   0  0  0  0  0  0  0  0  0  0  0  0
  134.8214   71.4460  224.4336 H   0  0  0  0  0  0  0  0  0  0  0  0
  138.0660   72.9430  222.4350 N   0  0  0  0  0  0  0  0  0  0  0  0
  137.3300   72.3130  222.8290 H   0  0  0  0  0  0  0  0  0  0  0  0
  139.1500   70.1530  223.1060 C   0  0  0  0  0  0  0  0  0  0  0  0
  139.9224   69.4183  222.8345 H   0  0  0  0  0  0  0  0  0  0  0  0
  138.4202   70.2332  222.2869 H   0  0  0  0  0  0  0  0  0  0  0  0
  138.4410   69.7010  224.3820 C   0  0  0  0  0  0  0  0  0  0  0  0
  138.1986   68.6317  224.2929 H   0  0  0  0  0  0  0  0  0  0  0  0
  137.5317   70.3092  224.4968 H   0  0  0  0  0  0  0  0  0  0  0  0
  1  2  1  0
  2  3  2  0
  3  4  1  0
  3  5  1  0
  5  6  1  0
  5  7  2  0
  7  8  1  0
  8  9  2  0
  9 10  1  0
  8 11  1  0
 11 12  1  0
 11 13  1  0
 11 14  1  0
 14 15  1  0
 15 16  2  0
 16 17  1  0
 17 18  1  0
 18 19  1  0
 19 20  1  0
 19 21  1  0
 19 22  1  0
 22 23  1  0
 22 24  1  0
 22 25  1  0
 25 26  1  0
 25 27  1  0
 25 28  1  0
 28 29  1  0
 28 30  1  0
 28 31  1  0
 31 32  1  0
 31 33  1  0
 17 34  2  0
 34 35  1  0
 34 36  1  0
 36 37  2  0
 37 38  1  0
 38 39  1  0
 38 40  1  0
 38 41  1  0
 41 42  1  0
 41 43  1  0
 41 44  1  0
 44 45  1  0
 44 46  1  0
 46 47  1  0
 46 48  1  0
 46 49  1  0
 49 50  1  0
 49 51  1  0
 49 52  1  0
 52 53  1  0
 53 54  1  0
 53 55  1  0
 53 56  1  0
 56 57  1  0
 56 58  1  0
 36 59  1  0
 59 60  1  0
 14 61  1  0
 61 62  1  0
 61 63  1  0
 61 64  1  0
 64 65  1  0
 64 66  1  0
  9  2  1  0
 59 15  1  0
 64  7  1  0
 31 18  1  0
 56 44  1  0
M  CHG  2  25   1  44   1
M  END
>  <UniqueID>  (70) 
487

>  <SMILES>  (70) 
c1ccc2c(c1)CCN(c1nc(N3CC[NH2+]CC3)c/c(=N\CC[NH+]3CCOCC3)[nH]1)C2

>  <Energy>  (70) 
89.6390617243663

>  <Genealogy>  (70) 
c1ccc2c(c1)CCN(c1nc(NCC[NH+]3CCOCC3)cc(N3CC[NH2+]CC3)n1)C2 (protonated)
c1ccc2c(c1)CCN(c1nc(N3CC[NH2+]CC3)cc(=NCC[NH+]3CCOCC3)[nH]1)C2 (tautomer)
c1ccc2c(c1)CCN(c1nc(N3CC[NH2+]CC3)c/c(=N\CC[NH+]3CCOCC3)[nH]1)C2 (cis-trans isomerization)
c1ccc2c(c1)CCN(c1nc(N3CC[NH2+]CC3)c/c(=N\CC[NH+]3CCOCC3)[nH]1)C2 (3D coordinates assigned)
c1ccc2c(c1)CCN(c1nc(N3CC[NH2+]CC3)c/c(=N\CC[NH+]3CCOCC3)[nH]1)C2 (nonaromatic ring conformer: 89.6390617243663 kcal/mol)

>  <smiles>  (70) 
c1ccc2c(c1)CCN(c1nc(NCCN3CCOCC3)cc(N3CCNCC3)n1)C2

>  <score_type>  (70) 
oracle

>  <origin>  (70) 
autodockgpu

>  <m_score__min__energy>  (70) 
-9.1799999999999997

>  <m_primary>  (70) 
energy

>  <meeko>  (70) 
{"free_energy": -8.29, "intermolecular_energy": -10.08, "internal_energy": -1.55, "cluster_size": 20, "cluster_id": 1, "rank_in_cluster": 18}

>  <energy>  (70) 
-8.76

>  <cluster_rmsd>  (70) 
0.48

>  <rmsd>  (70) 
271.78

>  <cluster>  (70) 
1

$$$$
DRRGDEWGQQLPRW-CXKBQSNCNA-P
     RDKit          3D

 66 70  0  0  0  0  0  0  0  0999 V2000
  141.1670   71.0928  229.2780 H   0  0  0  0  0  0  0  0  0  0  0  0
  140.7110   70.7570  228.3350 C   0  0  0  0  0  0  0  0  0  0  0  0
  139.7910   69.7070  228.3420 C   0  0  0  0  0  0  0  0  0  0  0  0
  139.5279   69.2129  229.2889 H   0  0  0  0  0  0  0  0  0  0  0  0
  139.2050   69.2840  227.1480 C   0  0  0  0  0  0  0  0  0  0  0  0
  138.4770   68.4595  227.1605 H   0  0  0  0  0  0  0  0  0  0  0  0
  139.5360   69.9010  225.9310 C   0  0  0  0  0  0  0  0  0  0  0  0
  140.4650   70.9730  225.9270 C   0  0  0  0  0  0  0  0  0  0  0  0
  141.0540   71.3820  227.1350 C   0  0  0  0  0  0  0  0  0  0  0  0
  141.7899   72.1996  227.1352 H   0  0  0  0  0  0  0  0  0  0  0  0
  140.8840   71.6430  224.6410 C   0  0  0  0  0  0  0  0  0  0  0  0
  141.8851   71.2862  224.3575 H   0  0  0  0  0  0  0  0  0  0  0  0
  140.8970   72.7317  224.7974 H   0  0  0  0  0  0  0  0  0  0  0  0
  139.9400   71.3330  223.5640 N   0  0  0  0  0  0  0  0  0  0  0  0
  139.4360   72.3770  222.7150 C   0  0  0  0  0  0  0  0  0  0  0  0
  140.2600   73.3900  222.3430 N   0  0  0  0  0  0  0  0  0  0  0  0
  139.8290   74.4360  221.5900 C   0  0  0  0  0  0  0  0  0  0  0  0
  140.7570   75.4890  221.2330 N   0  0  0  0  0  0  0  0  0  0  0  0
  140.6390   76.8390  221.8130 C   0  0  0  0  0  0  0  0  0  0  0  0
  139.5756   77.0640  221.9820 H   0  0  0  0  0  0  0  0  0  0  0  0
  141.1980   76.8584  222.7602 H   0  0  0  0  0  0  0  0  0  0  0  0
  141.2330   77.9050  220.8800 C   0  0  0  0  0  0  0  0  0  0  0  0
  140.5704   78.0285  220.0107 H   0  0  0  0  0  0  0  0  0  0  0  0
  141.3202   78.8463  221.4424 H   0  0  0  0  0  0  0  0  0  0  0  0
  142.5710   77.5230  220.4100 N   0  0  0  0  0  0  0  0  0  0  0  0
  143.2310   77.4410  221.2170 H   0  0  0  0  0  0  0  0  0  0  0  0
  142.9250   78.2670  219.7640 H   0  0  0  0  0  0  0  0  0  0  0  0
  142.5170   76.2550  219.6740 C   0  0  0  0  0  0  0  0  0  0  0  0
  141.8279   76.3607  218.8231 H   0  0  0  0  0  0  0  0  0  0  0  0
  143.5286   76.0097  219.3183 H   0  0  0  0  0  0  0  0  0  0  0  0
  142.0270   75.1240  220.5790 C   0  0  0  0  0  0  0  0  0  0  0  0
  141.8735   74.2185  219.9735 H   0  0  0  0  0  0  0  0  0  0  0  0
  142.7838   74.9415  221.3561 H   0  0  0  0  0  0  0  0  0  0  0  0
  138.4780   74.4790  221.2100 C   0  0  0  0  0  0  0  0  0  0  0  0
  138.0918   75.3240  220.6210 H   0  0  0  0  0  0  0  0  0  0  0  0
  137.6220   73.4250  221.5930 C   0  0  0  0  0  0  0  0  0  0  0  0
  136.3530   73.4070  221.2780 N   0  0  0  0  0  0  0  0  0  0  0  0
  135.2090   73.3470  222.1910 C   0  0  0  0  0  0  0  0  0  0  0  0
  134.2773   73.3644  221.6064 H   0  0  0  0  0  0  0  0  0  0  0  0
  135.2692   72.4188  222.7782 H   0  0  0  0  0  0  0  0  0  0  0  0
  135.2270   74.5490  223.1530 C   0  0  0  0  0  0  0  0  0  0  0  0
  136.0306   75.2287  222.8332 H   0  0  0  0  0  0  0  0  0  0  0  0
  134.2241   74.9977  223.0992 H   0  0  0  0  0  0  0  0  0  0  0  0
  135.4520   74.2120  224.5850 N   0  0  0  0  0  0  0  0  0  0  0  0
  136.4980   74.1550  224.6530 H   0  0  0  0  0  0  0  0  0  0  0  0
  135.0730   75.2910  225.5340 C   0  0  0  0  0  0  0  0  0  0  0  0
  135.8077   75.3118  226.3524 H   0  0  0  0  0  0  0  0  0  0  0  0
  135.0593   76.2351  224.9696 H   0  0  0  0  0  0  0  0  0  0  0  0
  133.6750   75.0970  226.1370 C   0  0  0  0  0  0  0  0  0  0  0  0
  133.5065   75.8572  226.9139 H   0  0  0  0  0  0  0  0  0  0  0  0
  132.9245   75.1996  225.3394 H   0  0  0  0  0  0  0  0  0  0  0  0
  133.5620   73.8160  226.7090 O   0  0  0  0  0  0  0  0  0  0  0  0
  133.6080   72.8530  225.6790 C   0  0  0  0  0  0  0  0  0  0  0  0
  133.4300   71.8572  226.1111 H   0  0  0  0  0  0  0  0  0  0  0  0
  132.8333   73.0994  224.9380 H   0  0  0  0  0  0  0  0  0  0  0  0
  134.9740   72.8560  224.9730 C   0  0  0  0  0  0  0  0  0  0  0  0
  135.7152   72.4090  225.6518 H   0  0  0  0  0  0  0  0  0  0  0  0
  134.8525   72.2828  224.0421 H   0  0  0  0  0  0  0  0  0  0  0  0
  138.1270   72.3980  222.3330 N   0  0  0  0  0  0  0  0  0  0  0  0
  137.4840   71.6350  222.6460 H   0  0  0  0  0  0  0  0  0  0  0  0
  139.5260   69.9380  223.4080 C   0  0  0  0  0  0  0  0  0  0  0  0
  140.4123   69.3077  223.2429 H   0  0  0  0  0  0  0  0  0  0  0  0
  138.8495   69.8482  222.5453 H   0  0  0  0  0  0  0  0  0  0  0  0
  138.8040   69.4820  224.6750 C   0  0  0  0  0  0  0  0  0  0  0  0
  138.7228   68.3851  224.6613 H   0  0  0  0  0  0  0  0  0  0  0  0
  137.8116   69.9563  224.6879 H   0  0  0  0  0  0  0  0  0  0  0  0
  1  2  1  0
  2  3  2  0
  3  4  1  0
  3  5  1  0
  5  6  1  0
  5  7  2  0
  7  8  1  0
  8  9  2  0
  9 10  1  0
  8 11  1  0
 11 12  1  0
 11 13  1  0
 11 14  1  0
 14 15  1  0
 15 16  2  0
 16 17  1  0
 17 18  1  0
 18 19  1  0
 19 20  1  0
 19 21  1  0
 19 22  1  0
 22 23  1  0
 22 24  1  0
 22 25  1  0
 25 26  1  0
 25 27  1  0
 25 28  1  0
 28 29  1  0
 28 30  1  0
 28 31  1  0
 31 32  1  0
 31 33  1  0
 17 34  2  0
 34 35  1  0
 34 36  1  0
 36 37  2  0
 37 38  1  0
 38 39  1  0
 38 40  1  0
 38 41  1  0
 41 42  1  0
 41 43  1  0
 41 44  1  0
 44 45  1  0
 44 46  1  0
 46 47  1  0
 46 48  1  0
 46 49  1  0
 49 50  1  0
 49 51  1  0
 49 52  1  0
 52 53  1  0
 53 54  1  0
 53 55  1  0
 53 56  1  0
 56 57  1  0
 56 58  1  0
 36 59  1  0
 59 60  1  0
 14 61  1  0
 61 62  1  0
 61 63  1  0
 61 64  1  0
 64 65  1  0
 64 66  1  0
  9  2  1  0
 59 15  1  0
 64  7  1  0
 31 18  1  0
 56 44  1  0
M  CHG  2  25   1  44   1
M  END
>  <UniqueID>  (71) 
487

>  <SMILES>  (71) 
c1ccc2c(c1)CCN(c1nc(N3CC[NH2+]CC3)c/c(=N\CC[NH+]3CCOCC3)[nH]1)C2

>  <Energy>  (71) 
89.6390617243663

>  <Genealogy>  (71) 
c1ccc2c(c1)CCN(c1nc(NCC[NH+]3CCOCC3)cc(N3CC[NH2+]CC3)n1)C2 (protonated)
c1ccc2c(c1)CCN(c1nc(N3CC[NH2+]CC3)cc(=NCC[NH+]3CCOCC3)[nH]1)C2 (tautomer)
c1ccc2c(c1)CCN(c1nc(N3CC[NH2+]CC3)c/c(=N\CC[NH+]3CCOCC3)[nH]1)C2 (cis-trans isomerization)
c1ccc2c(c1)CCN(c1nc(N3CC[NH2+]CC3)c/c(=N\CC[NH+]3CCOCC3)[nH]1)C2 (3D coordinates assigned)
c1ccc2c(c1)CCN(c1nc(N3CC[NH2+]CC3)c/c(=N\CC[NH+]3CCOCC3)[nH]1)C2 (nonaromatic ring conformer: 89.6390617243663 kcal/mol)

>  <smiles>  (71) 
c1ccc2c(c1)CCN(c1nc(NCCN3CCOCC3)cc(N3CCNCC3)n1)C2

>  <score_type>  (71) 
oracle

>  <origin>  (71) 
autodockgpu

>  <m_score__min__energy>  (71) 
-9.1799999999999997

>  <m_primary>  (71) 
energy

>  <meeko>  (71) 
{"free_energy": -9.13, "intermolecular_energy": -10.92, "internal_energy": -0.74, "cluster_size": 20, "cluster_id": 1, "rank_in_cluster": 2}

>  <energy>  (71) 
-8.38

>  <cluster_rmsd>  (71) 
0.63

>  <rmsd>  (71) 
271.71

>  <cluster>  (71) 
1

$$$$
DRRGDEWGQQLPRW-CXKBQSNCNA-P
     RDKit          3D

 66 70  0  0  0  0  0  0  0  0999 V2000
  141.1983   71.0774  229.2714 H   0  0  0  0  0  0  0  0  0  0  0  0
  140.7400   70.7400  228.3300 C   0  0  0  0  0  0  0  0  0  0  0  0
  139.8210   69.6880  228.3400 C   0  0  0  0  0  0  0  0  0  0  0  0
  139.5607   69.1950  229.2882 H   0  0  0  0  0  0  0  0  0  0  0  0
  139.2330   69.2620  227.1490 C   0  0  0  0  0  0  0  0  0  0  0  0
  138.5075   68.4353  227.1644 H   0  0  0  0  0  0  0  0  0  0  0  0
  139.5590   69.8790  225.9310 C   0  0  0  0  0  0  0  0  0  0  0  0
  140.4860   70.9530  225.9230 C   0  0  0  0  0  0  0  0  0  0  0  0
  141.0780   71.3640  227.1280 C   0  0  0  0  0  0  0  0  0  0  0  0
  141.8126   72.1827  227.1248 H   0  0  0  0  0  0  0  0  0  0  0  0
  140.8990   71.6230  224.6340 C   0  0  0  0  0  0  0  0  0  0  0  0
  141.9001   71.2684  224.3475 H   0  0  0  0  0  0  0  0  0  0  0  0
  140.9095   72.7119  224.7893 H   0  0  0  0  0  0  0  0  0  0  0  0
  139.9530   71.3100  223.5610 N   0  0  0  0  0  0  0  0  0  0  0  0
  139.4440   72.3520  222.7120 C   0  0  0  0  0  0  0  0  0  0  0  0
  140.2660   73.3650  222.3360 N   0  0  0  0  0  0  0  0  0  0  0  0
  139.8290   74.4100  221.5840 C   0  0  0  0  0  0  0  0  0  0  0  0
  140.7550   75.4640  221.2210 N   0  0  0  0  0  0  0  0  0  0  0  0
  140.6420   76.8120  221.8060 C   0  0  0  0  0  0  0  0  0  0  0  0
  139.5801   77.0369  221.9841 H   0  0  0  0  0  0  0  0  0  0  0  0
  141.2081   76.8286  222.7490 H   0  0  0  0  0  0  0  0  0  0  0  0
  141.2290   77.8800  220.8710 C   0  0  0  0  0  0  0  0  0  0  0  0
  140.5591   78.0064  220.0078 H   0  0  0  0  0  0  0  0  0  0  0  0
  141.3220   78.8194  221.4358 H   0  0  0  0  0  0  0  0  0  0  0  0
  142.5630   77.4990  220.3880 N   0  0  0  0  0  0  0  0  0  0  0  0
  143.2300   77.4150  221.1890 H   0  0  0  0  0  0  0  0  0  0  0  0
  142.9110   78.2450  219.7410 H   0  0  0  0  0  0  0  0  0  0  0  0
  142.5010   76.2330  219.6480 C   0  0  0  0  0  0  0  0  0  0  0  0
  141.8042   76.3419  218.8039 H   0  0  0  0  0  0  0  0  0  0  0  0
  143.5088   75.9877  219.2816 H   0  0  0  0  0  0  0  0  0  0  0  0
  142.0180   75.1000  220.5550 C   0  0  0  0  0  0  0  0  0  0  0  0
  141.8584   74.1961  219.9488 H   0  0  0  0  0  0  0  0  0  0  0  0
  142.7816   74.9153  221.3249 H   0  0  0  0  0  0  0  0  0  0  0  0
  138.4770   74.4500  221.2090 C   0  0  0  0  0  0  0  0  0  0  0  0
  138.0875   75.2936  220.6202 H   0  0  0  0  0  0  0  0  0  0  0  0
  137.6240   73.3960  221.5960 C   0  0  0  0  0  0  0  0  0  0  0  0
  136.3540   73.3760  221.2870 N   0  0  0  0  0  0  0  0  0  0  0  0
  135.2200   73.1690  222.1900 C   0  0  0  0  0  0  0  0  0  0  0  0
  134.3016   73.0485  221.5967 H   0  0  0  0  0  0  0  0  0  0  0  0
  135.4030   72.2662  222.7912 H   0  0  0  0  0  0  0  0  0  0  0  0
  135.0590   74.3740  223.1350 C   0  0  0  0  0  0  0  0  0  0  0  0
  135.7524   75.1611  222.8039 H   0  0  0  0  0  0  0  0  0  0  0  0
  134.0006   74.6680  223.0771 H   0  0  0  0  0  0  0  0  0  0  0  0
  135.3320   74.0940  224.5710 N   0  0  0  0  0  0  0  0  0  0  0  0
  136.3610   73.8870  224.5800 H   0  0  0  0  0  0  0  0  0  0  0  0
  135.1790   75.2720  225.4630 C   0  0  0  0  0  0  0  0  0  0  0  0
  135.9642   75.2331  226.2323 H   0  0  0  0  0  0  0  0  0  0  0  0
  135.2618   76.1719  224.8358 H   0  0  0  0  0  0  0  0  0  0  0  0
  133.8130   75.3240  226.1610 C   0  0  0  0  0  0  0  0  0  0  0  0
  133.8101   76.1462  226.8917 H   0  0  0  0  0  0  0  0  0  0  0  0
  133.0313   75.4886  225.4048 H   0  0  0  0  0  0  0  0  0  0  0  0
  133.5570   74.1100  226.8270 O   0  0  0  0  0  0  0  0  0  0  0  0
  133.3920   73.0910  225.8660 C   0  0  0  0  0  0  0  0  0  0  0  0
  133.1026   72.1604  226.3762 H   0  0  0  0  0  0  0  0  0  0  0  0
  132.6113   73.4044  225.1573 H   0  0  0  0  0  0  0  0  0  0  0  0
  134.6930   72.8490  225.0810 C   0  0  0  0  0  0  0  0  0  0  0  0
  135.4077   72.3397  225.7442 H   0  0  0  0  0  0  0  0  0  0  0  0
  134.4269   72.2440  224.2017 H   0  0  0  0  0  0  0  0  0  0  0  0
  138.1340   72.3710  222.3360 N   0  0  0  0  0  0  0  0  0  0  0  0
  137.4930   71.6070  222.6530 H   0  0  0  0  0  0  0  0  0  0  0  0
  139.5410   69.9140  223.4070 C   0  0  0  0  0  0  0  0  0  0  0  0
  140.4279   69.2853  223.2391 H   0  0  0  0  0  0  0  0  0  0  0  0
  138.8617   69.8226  222.5466 H   0  0  0  0  0  0  0  0  0  0  0  0
  138.8240   69.4570  224.6770 C   0  0  0  0  0  0  0  0  0  0  0  0
  138.7456   68.3599  224.6644 H   0  0  0  0  0  0  0  0  0  0  0  0
  137.8305   69.9288  224.6926 H   0  0  0  0  0  0  0  0  0  0  0  0
  1  2  1  0
  2  3  2  0
  3  4  1  0
  3  5  1  0
  5  6  1  0
  5  7  2  0
  7  8  1  0
  8  9  2  0
  9 10  1  0
  8 11  1  0
 11 12  1  0
 11 13  1  0
 11 14  1  0
 14 15  1  0
 15 16  2  0
 16 17  1  0
 17 18  1  0
 18 19  1  0
 19 20  1  0
 19 21  1  0
 19 22  1  0
 22 23  1  0
 22 24  1  0
 22 25  1  0
 25 26  1  0
 25 27  1  0
 25 28  1  0
 28 29  1  0
 28 30  1  0
 28 31  1  0
 31 32  1  0
 31 33  1  0
 17 34  2  0
 34 35  1  0
 34 36  1  0
 36 37  2  0
 37 38  1  0
 38 39  1  0
 38 40  1  0
 38 41  1  0
 41 42  1  0
 41 43  1  0
 41 44  1  0
 44 45  1  0
 44 46  1  0
 46 47  1  0
 46 48  1  0
 46 49  1  0
 49 50  1  0
 49 51  1  0
 49 52  1  0
 52 53  1  0
 53 54  1  0
 53 55  1  0
 53 56  1  0
 56 57  1  0
 56 58  1  0
 36 59  1  0
 59 60  1  0
 14 61  1  0
 61 62  1  0
 61 63  1  0
 61 64  1  0
 64 65  1  0
 64 66  1  0
  9  2  1  0
 59 15  1  0
 64  7  1  0
 31 18  1  0
 56 44  1  0
M  CHG  2  25   1  44   1
M  END
>  <UniqueID>  (72) 
487

>  <SMILES>  (72) 
c1ccc2c(c1)CCN(c1nc(N3CC[NH2+]CC3)c/c(=N\CC[NH+]3CCOCC3)[nH]1)C2

>  <Energy>  (72) 
89.6390617243663

>  <Genealogy>  (72) 
c1ccc2c(c1)CCN(c1nc(NCC[NH+]3CCOCC3)cc(N3CC[NH2+]CC3)n1)C2 (protonated)
c1ccc2c(c1)CCN(c1nc(N3CC[NH2+]CC3)cc(=NCC[NH+]3CCOCC3)[nH]1)C2 (tautomer)
c1ccc2c(c1)CCN(c1nc(N3CC[NH2+]CC3)c/c(=N\CC[NH+]3CCOCC3)[nH]1)C2 (cis-trans isomerization)
c1ccc2c(c1)CCN(c1nc(N3CC[NH2+]CC3)c/c(=N\CC[NH+]3CCOCC3)[nH]1)C2 (3D coordinates assigned)
c1ccc2c(c1)CCN(c1nc(N3CC[NH2+]CC3)c/c(=N\CC[NH+]3CCOCC3)[nH]1)C2 (nonaromatic ring conformer: 89.6390617243663 kcal/mol)

>  <smiles>  (72) 
c1ccc2c(c1)CCN(c1nc(NCCN3CCOCC3)cc(N3CCNCC3)n1)C2

>  <score_type>  (72) 
oracle

>  <origin>  (72) 
autodockgpu

>  <m_score__min__energy>  (72) 
-9.1799999999999997

>  <m_primary>  (72) 
energy

>  <meeko>  (72) 
{"free_energy": -9.18, "intermolecular_energy": -10.97, "internal_energy": -0.71, "cluster_size": 20, "cluster_id": 1, "rank_in_cluster": 1}

>  <energy>  (72) 
-8.32

>  <cluster_rmsd>  (72) 
0.68

>  <rmsd>  (72) 
271.65

>  <cluster>  (72) 
1

$$$$
DRRGDEWGQQLPRW-CXKBQSNCNA-P
     RDKit          3D

 66 70  0  0  0  0  0  0  0  0999 V2000
  141.2675   70.6286  228.9142 H   0  0  0  0  0  0  0  0  0  0  0  0
  140.7190   70.4330  227.9810 C   0  0  0  0  0  0  0  0  0  0  0  0
  139.6630   69.5190  227.9720 C   0  0  0  0  0  0  0  0  0  0  0  0
  139.3842   68.9924  228.8967 H   0  0  0  0  0  0  0  0  0  0  0  0
  138.9610   69.2730  226.7910 C   0  0  0  0  0  0  0  0  0  0  0  0
  138.1285   68.5540  226.7913 H   0  0  0  0  0  0  0  0  0  0  0  0
  139.3080   69.9350  225.6030 C   0  0  0  0  0  0  0  0  0  0  0  0
  140.3750   70.8690  225.6150 C   0  0  0  0  0  0  0  0  0  0  0  0
  141.0800   71.0990  226.8080 C   0  0  0  0  0  0  0  0  0  0  0  0
  141.9212   71.8077  226.8182 H   0  0  0  0  0  0  0  0  0  0  0  0
  140.8120   71.5760  224.3540 C   0  0  0  0  0  0  0  0  0  0  0  0
  141.7373   71.1117  223.9822 H   0  0  0  0  0  0  0  0  0  0  0  0
  140.9833   72.6376  224.5856 H   0  0  0  0  0  0  0  0  0  0  0  0
  139.7780   71.4810  223.3210 N   0  0  0  0  0  0  0  0  0  0  0  0
  139.3780   72.6470  222.5820 C   0  0  0  0  0  0  0  0  0  0  0  0
  140.3280   73.4880  222.1000 N   0  0  0  0  0  0  0  0  0  0  0  0
  140.0140   74.6360  221.4450 C   0  0  0  0  0  0  0  0  0  0  0  0
  141.0750   75.4960  220.9600 N   0  0  0  0  0  0  0  0  0  0  0  0
  141.0620   76.9460  221.2250 C   0  0  0  0  0  0  0  0  0  0  0  0
  140.0198   77.2977  221.2400 H   0  0  0  0  0  0  0  0  0  0  0  0
  141.5485   77.1248  222.1952 H   0  0  0  0  0  0  0  0  0  0  0  0
  141.8350   77.7200  220.1470 C   0  0  0  0  0  0  0  0  0  0  0  0
  141.2552   77.7069  219.2123 H   0  0  0  0  0  0  0  0  0  0  0  0
  141.9829   78.7509  220.5009 H   0  0  0  0  0  0  0  0  0  0  0  0
  143.1550   77.1230  219.8990 N   0  0  0  0  0  0  0  0  0  0  0  0
  143.7420   77.1630  220.7640 H   0  0  0  0  0  0  0  0  0  0  0  0
  143.6330   77.6710  219.1460 H   0  0  0  0  0  0  0  0  0  0  0  0
  143.0170   75.7340  219.4480 C   0  0  0  0  0  0  0  0  0  0  0  0
  142.4078   75.7105  218.5324 H   0  0  0  0  0  0  0  0  0  0  0  0
  144.0189   75.3252  219.2504 H   0  0  0  0  0  0  0  0  0  0  0  0
  142.3410   74.8810  220.5230 C   0  0  0  0  0  0  0  0  0  0  0  0
  142.1337   73.8816  220.1128 H   0  0  0  0  0  0  0  0  0  0  0  0
  143.0146   74.8072  221.3895 H   0  0  0  0  0  0  0  0  0  0  0  0
  138.6590   74.9710  221.2870 C   0  0  0  0  0  0  0  0  0  0  0  0
  138.3717   75.9048  220.7816 H   0  0  0  0  0  0  0  0  0  0  0  0
  137.6720   74.0960  221.7840 C   0  0  0  0  0  0  0  0  0  0  0  0
  136.3940   74.3510  221.6780 N   0  0  0  0  0  0  0  0  0  0  0  0
  135.3200   73.4080  221.3620 C   0  0  0  0  0  0  0  0  0  0  0  0
  134.6908   73.8293  220.5641 H   0  0  0  0  0  0  0  0  0  0  0  0
  135.7649   72.4582  221.0304 H   0  0  0  0  0  0  0  0  0  0  0  0
  134.4530   73.1460  222.6070 C   0  0  0  0  0  0  0  0  0  0  0  0
  133.5360   73.7466  222.5155 H   0  0  0  0  0  0  0  0  0  0  0  0
  134.2684   72.0618  222.6274 H   0  0  0  0  0  0  0  0  0  0  0  0
  135.0940   73.4800  223.9080 N   0  0  0  0  0  0  0  0  0  0  0  0
  136.1130   73.5430  223.6600 H   0  0  0  0  0  0  0  0  0  0  0  0
  134.7530   74.8300  224.4290 C   0  0  0  0  0  0  0  0  0  0  0  0
  135.6492   75.2608  224.8994 H   0  0  0  0  0  0  0  0  0  0  0  0
  134.4060   75.4333  223.5772 H   0  0  0  0  0  0  0  0  0  0  0  0
  133.6210   74.8050  225.4650 C   0  0  0  0  0  0  0  0  0  0  0  0
  133.5002   75.8104  225.8946 H   0  0  0  0  0  0  0  0  0  0  0  0
  132.6901   74.4920  224.9696 H   0  0  0  0  0  0  0  0  0  0  0  0
  133.9200   73.8930  226.4950 O   0  0  0  0  0  0  0  0  0  0  0  0
  133.9030   72.5870  225.9640 C   0  0  0  0  0  0  0  0  0  0  0  0
  134.0474   71.8657  226.7819 H   0  0  0  0  0  0  0  0  0  0  0  0
  132.9337   72.4257  225.4696 H   0  0  0  0  0  0  0  0  0  0  0  0
  135.0180   72.3930  224.9220 C   0  0  0  0  0  0  0  0  0  0  0  0
  135.9813   72.3452  225.4509 H   0  0  0  0  0  0  0  0  0  0  0  0
  134.7875   71.4653  224.3778 H   0  0  0  0  0  0  0  0  0  0  0  0
  138.0600   72.9520  222.4160 N   0  0  0  0  0  0  0  0  0  0  0  0
  137.3270   72.3210  222.8160 H   0  0  0  0  0  0  0  0  0  0  0  0
  139.1660   70.1710  223.0940 C   0  0  0  0  0  0  0  0  0  0  0  0
  139.9457   69.4424  222.8271 H   0  0  0  0  0  0  0  0  0  0  0  0
  138.4372   70.2418  222.2731 H   0  0  0  0  0  0  0  0  0  0  0  0
  138.4580   69.7170  224.3700 C   0  0  0  0  0  0  0  0  0  0  0  0
  138.2261   68.6451  224.2844 H   0  0  0  0  0  0  0  0  0  0  0  0
  137.5425   70.3167  224.4802 H   0  0  0  0  0  0  0  0  0  0  0  0
  1  2  1  0
  2  3  2  0
  3  4  1  0
  3  5  1  0
  5  6  1  0
  5  7  2  0
  7  8  1  0
  8  9  2  0
  9 10  1  0
  8 11  1  0
 11 12  1  0
 11 13  1  0
 11 14  1  0
 14 15  1  0
 15 16  2  0
 16 17  1  0
 17 18  1  0
 18 19  1  0
 19 20  1  0
 19 21  1  0
 19 22  1  0
 22 23  1  0
 22 24  1  0
 22 25  1  0
 25 26  1  0
 25 27  1  0
 25 28  1  0
 28 29  1  0
 28 30  1  0
 28 31  1  0
 31 32  1  0
 31 33  1  0
 17 34  2  0
 34 35  1  0
 34 36  1  0
 36 37  2  0
 37 38  1  0
 38 39  1  0
 38 40  1  0
 38 41  1  0
 41 42  1  0
 41 43  1  0
 41 44  1  0
 44 45  1  0
 44 46  1  0
 46 47  1  0
 46 48  1  0
 46 49  1  0
 49 50  1  0
 49 51  1  0
 49 52  1  0
 52 53  1  0
 53 54  1  0
 53 55  1  0
 53 56  1  0
 56 57  1  0
 56 58  1  0
 36 59  1  0
 59 60  1  0
 14 61  1  0
 61 62  1  0
 61 63  1  0
 61 64  1  0
 64 65  1  0
 64 66  1  0
  9  2  1  0
 59 15  1  0
 64  7  1  0
 31 18  1  0
 56 44  1  0
M  CHG  2  25   1  44   1
M  END
>  <UniqueID>  (73) 
487

>  <SMILES>  (73) 
c1ccc2c(c1)CCN(c1nc(N3CC[NH2+]CC3)c/c(=N\CC[NH+]3CCOCC3)[nH]1)C2

>  <Energy>  (73) 
89.6390617243663

>  <Genealogy>  (73) 
c1ccc2c(c1)CCN(c1nc(NCC[NH+]3CCOCC3)cc(N3CC[NH2+]CC3)n1)C2 (protonated)
c1ccc2c(c1)CCN(c1nc(N3CC[NH2+]CC3)cc(=NCC[NH+]3CCOCC3)[nH]1)C2 (tautomer)
c1ccc2c(c1)CCN(c1nc(N3CC[NH2+]CC3)c/c(=N\CC[NH+]3CCOCC3)[nH]1)C2 (cis-trans isomerization)
c1ccc2c(c1)CCN(c1nc(N3CC[NH2+]CC3)c/c(=N\CC[NH+]3CCOCC3)[nH]1)C2 (3D coordinates assigned)
c1ccc2c(c1)CCN(c1nc(N3CC[NH2+]CC3)c/c(=N\CC[NH+]3CCOCC3)[nH]1)C2 (nonaromatic ring conformer: 89.6390617243663 kcal/mol)

>  <smiles>  (73) 
c1ccc2c(c1)CCN(c1nc(NCCN3CCOCC3)cc(N3CCNCC3)n1)C2

>  <score_type>  (73) 
oracle

>  <origin>  (73) 
autodockgpu

>  <m_score__min__energy>  (73) 
-9.1799999999999997

>  <m_primary>  (73) 
energy

>  <meeko>  (73) 
{"free_energy": -8.29, "intermolecular_energy": -10.08, "internal_energy": -1.55, "cluster_size": 20, "cluster_id": 1, "rank_in_cluster": 16}

>  <energy>  (73) 
-8.31

>  <cluster_rmsd>  (73) 
0.69

>  <rmsd>  (73) 
271.63

>  <cluster>  (73) 
1

$$$$
DRRGDEWGQQLPRW-CXKBQSNCNA-P
     RDKit          3D

 66 70  0  0  0  0  0  0  0  0999 V2000
  141.2773   70.5004  228.9164 H   0  0  0  0  0  0  0  0  0  0  0  0
  140.7220   70.3260  227.9830 C   0  0  0  0  0  0  0  0  0  0  0  0
  139.6570   69.4230  227.9650 C   0  0  0  0  0  0  0  0  0  0  0  0
  139.3781   68.8838  228.8823 H   0  0  0  0  0  0  0  0  0  0  0  0
  138.9460   69.2040  226.7840 C   0  0  0  0  0  0  0  0  0  0  0  0
  138.1054   68.4945  226.7769 H   0  0  0  0  0  0  0  0  0  0  0  0
  139.2950   69.8820  225.6050 C   0  0  0  0  0  0  0  0  0  0  0  0
  140.3710   70.8050  225.6270 C   0  0  0  0  0  0  0  0  0  0  0  0
  141.0840   71.0080  226.8200 C   0  0  0  0  0  0  0  0  0  0  0  0
  141.9322   71.7082  226.8380 H   0  0  0  0  0  0  0  0  0  0  0  0
  140.8090   71.5280  224.3760 C   0  0  0  0  0  0  0  0  0  0  0  0
  141.7275   71.0603  223.9918 H   0  0  0  0  0  0  0  0  0  0  0  0
  140.9927   72.5838  224.6243 H   0  0  0  0  0  0  0  0  0  0  0  0
  139.7690   71.4610  223.3470 N   0  0  0  0  0  0  0  0  0  0  0  0
  139.3780   72.6430  222.6290 C   0  0  0  0  0  0  0  0  0  0  0  0
  140.3350   73.4710  222.1370 N   0  0  0  0  0  0  0  0  0  0  0  0
  140.0300   74.6320  221.5010 C   0  0  0  0  0  0  0  0  0  0  0  0
  141.0980   75.4760  221.0040 N   0  0  0  0  0  0  0  0  0  0  0  0
  141.0780   76.9350  221.2160 C   0  0  0  0  0  0  0  0  0  0  0  0
  140.0352   77.2847  221.1994 H   0  0  0  0  0  0  0  0  0  0  0  0
  141.5466   77.1499  222.1877 H   0  0  0  0  0  0  0  0  0  0  0  0
  141.8690   77.6710  220.1250 C   0  0  0  0  0  0  0  0  0  0  0  0
  141.3057   77.6232  219.1814 H   0  0  0  0  0  0  0  0  0  0  0  0
  142.0096   78.7140  220.4450 H   0  0  0  0  0  0  0  0  0  0  0  0
  143.1940   77.0690  219.9210 N   0  0  0  0  0  0  0  0  0  0  0  0
  143.7650   77.1420  220.7950 H   0  0  0  0  0  0  0  0  0  0  0  0
  143.6850   77.5900  219.1580 H   0  0  0  0  0  0  0  0  0  0  0  0
  143.0660   75.6640  219.5190 C   0  0  0  0  0  0  0  0  0  0  0  0
  142.4726   75.6056  218.5946 H   0  0  0  0  0  0  0  0  0  0  0  0
  144.0719   75.2506  219.3538 H   0  0  0  0  0  0  0  0  0  0  0  0
  142.3730   74.8490  220.6130 C   0  0  0  0  0  0  0  0  0  0  0  0
  142.1755   73.8345  220.2366 H   0  0  0  0  0  0  0  0  0  0  0  0
  143.0311   74.8092  221.4935 H   0  0  0  0  0  0  0  0  0  0  0  0
  138.6800   74.9960  221.3750 C   0  0  0  0  0  0  0  0  0  0  0  0
  138.4011   75.9412  220.8864 H   0  0  0  0  0  0  0  0  0  0  0  0
  137.6860   74.1340  221.8830 C   0  0  0  0  0  0  0  0  0  0  0  0
  136.4110   74.4170  221.8050 N   0  0  0  0  0  0  0  0  0  0  0  0
  135.3170   73.5090  221.4520 C   0  0  0  0  0  0  0  0  0  0  0  0
  134.7072   73.9670  220.6593 H   0  0  0  0  0  0  0  0  0  0  0  0
  135.7423   72.5578  221.0995 H   0  0  0  0  0  0  0  0  0  0  0  0
  134.4300   73.2350  222.6800 C   0  0  0  0  0  0  0  0  0  0  0  0
  133.5434   73.8824  222.6106 H   0  0  0  0  0  0  0  0  0  0  0  0
  134.1933   72.1611  222.6520 H   0  0  0  0  0  0  0  0  0  0  0  0
  135.0780   73.4810  223.9980 N   0  0  0  0  0  0  0  0  0  0  0  0
  136.0970   73.5440  223.7520 H   0  0  0  0  0  0  0  0  0  0  0  0
  134.7560   74.8010  224.6000 C   0  0  0  0  0  0  0  0  0  0  0  0
  135.6587   75.1907  225.0933 H   0  0  0  0  0  0  0  0  0  0  0  0
  134.4155   75.4589  223.7868 H   0  0  0  0  0  0  0  0  0  0  0  0
  133.6260   74.7290  225.6350 C   0  0  0  0  0  0  0  0  0  0  0  0
  133.5199   75.7082  226.1247 H   0  0  0  0  0  0  0  0  0  0  0  0
  132.6901   74.4591  225.1239 H   0  0  0  0  0  0  0  0  0  0  0  0
  133.9140   73.7520  226.6080 O   0  0  0  0  0  0  0  0  0  0  0  0
  133.8770   72.4810  225.9980 C   0  0  0  0  0  0  0  0  0  0  0  0
  134.0111   71.7089  226.7699 H   0  0  0  0  0  0  0  0  0  0  0  0
  132.9051   72.3644  225.4963 H   0  0  0  0  0  0  0  0  0  0  0  0
  134.9890   72.3350  224.9440 C   0  0  0  0  0  0  0  0  0  0  0  0
  135.9521   72.2423  225.4673 H   0  0  0  0  0  0  0  0  0  0  0  0
  134.7462   71.4448  224.3451 H   0  0  0  0  0  0  0  0  0  0  0  0
  138.0630   72.9760  222.4930 N   0  0  0  0  0  0  0  0  0  0  0  0
  137.3260   72.3550  222.9010 H   0  0  0  0  0  0  0  0  0  0  0  0
  139.1430   70.1610  223.1010 C   0  0  0  0  0  0  0  0  0  0  0  0
  139.9140   69.4291  222.8184 H   0  0  0  0  0  0  0  0  0  0  0  0
  138.4114   70.2520  222.2847 H   0  0  0  0  0  0  0  0  0  0  0  0
  138.4370   69.6940  224.3730 C   0  0  0  0  0  0  0  0  0  0  0  0
  138.1928   68.6263  224.2710 H   0  0  0  0  0  0  0  0  0  0  0  0
  137.5290   70.3023  224.4979 H   0  0  0  0  0  0  0  0  0  0  0  0
  1  2  1  0
  2  3  2  0
  3  4  1  0
  3  5  1  0
  5  6  1  0
  5  7  2  0
  7  8  1  0
  8  9  2  0
  9 10  1  0
  8 11  1  0
 11 12  1  0
 11 13  1  0
 11 14  1  0
 14 15  1  0
 15 16  2  0
 16 17  1  0
 17 18  1  0
 18 19  1  0
 19 20  1  0
 19 21  1  0
 19 22  1  0
 22 23  1  0
 22 24  1  0
 22 25  1  0
 25 26  1  0
 25 27  1  0
 25 28  1  0
 28 29  1  0
 28 30  1  0
 28 31  1  0
 31 32  1  0
 31 33  1  0
 17 34  2  0
 34 35  1  0
 34 36  1  0
 36 37  2  0
 37 38  1  0
 38 39  1  0
 38 40  1  0
 38 41  1  0
 41 42  1  0
 41 43  1  0
 41 44  1  0
 44 45  1  0
 44 46  1  0
 46 47  1  0
 46 48  1  0
 46 49  1  0
 49 50  1  0
 49 51  1  0
 49 52  1  0
 52 53  1  0
 53 54  1  0
 53 55  1  0
 53 56  1  0
 56 57  1  0
 56 58  1  0
 36 59  1  0
 59 60  1  0
 14 61  1  0
 61 62  1  0
 61 63  1  0
 61 64  1  0
 64 65  1  0
 64 66  1  0
  9  2  1  0
 59 15  1  0
 64  7  1  0
 31 18  1  0
 56 44  1  0
M  CHG  2  25   1  44   1
M  END
>  <UniqueID>  (74) 
487

>  <SMILES>  (74) 
c1ccc2c(c1)CCN(c1nc(N3CC[NH2+]CC3)c/c(=N\CC[NH+]3CCOCC3)[nH]1)C2

>  <Energy>  (74) 
89.6390617243663

>  <Genealogy>  (74) 
c1ccc2c(c1)CCN(c1nc(NCC[NH+]3CCOCC3)cc(N3CC[NH2+]CC3)n1)C2 (protonated)
c1ccc2c(c1)CCN(c1nc(N3CC[NH2+]CC3)cc(=NCC[NH+]3CCOCC3)[nH]1)C2 (tautomer)
c1ccc2c(c1)CCN(c1nc(N3CC[NH2+]CC3)c/c(=N\CC[NH+]3CCOCC3)[nH]1)C2 (cis-trans isomerization)
c1ccc2c(c1)CCN(c1nc(N3CC[NH2+]CC3)c/c(=N\CC[NH+]3CCOCC3)[nH]1)C2 (3D coordinates assigned)
c1ccc2c(c1)CCN(c1nc(N3CC[NH2+]CC3)c/c(=N\CC[NH+]3CCOCC3)[nH]1)C2 (nonaromatic ring conformer: 89.6390617243663 kcal/mol)

>  <smiles>  (74) 
c1ccc2c(c1)CCN(c1nc(NCCN3CCOCC3)cc(N3CCNCC3)n1)C2

>  <score_type>  (74) 
oracle

>  <origin>  (74) 
autodockgpu

>  <m_score__min__energy>  (74) 
-9.1799999999999997

>  <m_primary>  (74) 
energy

>  <meeko>  (74) 
{"free_energy": -8.28, "intermolecular_energy": -10.07, "internal_energy": -1.55, "cluster_size": 20, "cluster_id": 1, "rank_in_cluster": 19}

>  <energy>  (74) 
-8.3

>  <cluster_rmsd>  (74) 
0.69

>  <rmsd>  (74) 
271.63

>  <cluster>  (74) 
1

$$$$
DRRGDEWGQQLPRW-CXKBQSNCNA-P
     RDKit          3D

 66 70  0  0  0  0  0  0  0  0999 V2000
  141.1725   70.7719  229.2921 H   0  0  0  0  0  0  0  0  0  0  0  0
  140.7290   70.4660  228.3330 C   0  0  0  0  0  0  0  0  0  0  0  0
  139.8360   69.3930  228.2890 C   0  0  0  0  0  0  0  0  0  0  0  0
  139.5833   68.8501  229.2117 H   0  0  0  0  0  0  0  0  0  0  0  0
  139.2640   69.0090  227.0750 C   0  0  0  0  0  0  0  0  0  0  0  0
  138.5565   68.1672  227.0476 H   0  0  0  0  0  0  0  0  0  0  0  0
  139.5840   69.6880  225.8890 C   0  0  0  0  0  0  0  0  0  0  0  0
  140.4840   70.7810  225.9360 C   0  0  0  0  0  0  0  0  0  0  0  0
  141.0600   71.1510  227.1630 C   0  0  0  0  0  0  0  0  0  0  0  0
  141.7759   71.9853  227.2016 H   0  0  0  0  0  0  0  0  0  0  0  0
  140.8900   71.5180  224.6820 C   0  0  0  0  0  0  0  0  0  0  0  0
  141.9009   71.1998  224.3875 H   0  0  0  0  0  0  0  0  0  0  0  0
  140.8743   72.5987  224.8864 H   0  0  0  0  0  0  0  0  0  0  0  0
  139.9580   71.2320  223.5880 N   0  0  0  0  0  0  0  0  0  0  0  0
  139.4300   72.3000  222.7840 C   0  0  0  0  0  0  0  0  0  0  0  0
  140.2580   73.2900  222.3640 N   0  0  0  0  0  0  0  0  0  0  0  0
  139.8090   74.3560  221.6510 C   0  0  0  0  0  0  0  0  0  0  0  0
  140.7440   75.3830  221.2380 N   0  0  0  0  0  0  0  0  0  0  0  0
  140.6080   76.7730  221.7130 C   0  0  0  0  0  0  0  0  0  0  0  0
  139.5402   77.0054  221.8385 H   0  0  0  0  0  0  0  0  0  0  0  0
  141.1430   76.8657  222.6697 H   0  0  0  0  0  0  0  0  0  0  0  0
  141.2220   77.7680  220.7180 C   0  0  0  0  0  0  0  0  0  0  0  0
  140.5800   77.8241  219.8265 H   0  0  0  0  0  0  0  0  0  0  0  0
  141.2944   78.7487  221.2109 H   0  0  0  0  0  0  0  0  0  0  0  0
  142.5720   77.3570  220.3090 N   0  0  0  0  0  0  0  0  0  0  0  0
  143.2130   77.3390  221.1360 H   0  0  0  0  0  0  0  0  0  0  0  0
  142.9400   78.0530  219.6190 H   0  0  0  0  0  0  0  0  0  0  0  0
  142.5390   76.0380  219.6690 C   0  0  0  0  0  0  0  0  0  0  0  0
  141.8709   76.0771  218.7960 H   0  0  0  0  0  0  0  0  0  0  0  0
  143.5597   75.7710  219.3577 H   0  0  0  0  0  0  0  0  0  0  0  0
  142.0290   74.9750  220.6440 C   0  0  0  0  0  0  0  0  0  0  0  0
  141.8916   74.0266  220.1039 H   0  0  0  0  0  0  0  0  0  0  0  0
  142.7672   74.8532  221.4504 H   0  0  0  0  0  0  0  0  0  0  0  0
  138.4370   74.4440  221.3650 C   0  0  0  0  0  0  0  0  0  0  0  0
  138.0381   75.3059  220.8100 H   0  0  0  0  0  0  0  0  0  0  0  0
  137.5770   73.4140  221.7980 C   0  0  0  0  0  0  0  0  0  0  0  0
  136.2890   73.4380  221.5720 N   0  0  0  0  0  0  0  0  0  0  0  0
  135.4440   74.6150  221.3580 C   0  0  0  0  0  0  0  0  0  0  0  0
  136.0592   75.4353  220.9598 H   0  0  0  0  0  0  0  0  0  0  0  0
  134.6484   74.3580  220.6432 H   0  0  0  0  0  0  0  0  0  0  0  0
  134.8000   75.0610  222.6830 C   0  0  0  0  0  0  0  0  0  0  0  0
  134.9635   76.1431  222.7935 H   0  0  0  0  0  0  0  0  0  0  0  0
  133.7383   74.7815  222.6154 H   0  0  0  0  0  0  0  0  0  0  0  0
  135.3270   74.3890  223.9020 N   0  0  0  0  0  0  0  0  0  0  0  0
  136.3070   74.1320  223.6250 H   0  0  0  0  0  0  0  0  0  0  0  0
  135.4930   75.2880  225.0730 C   0  0  0  0  0  0  0  0  0  0  0  0
  136.4088   74.9990  225.6095 H   0  0  0  0  0  0  0  0  0  0  0  0
  135.5478   76.3182  224.6912 H   0  0  0  0  0  0  0  0  0  0  0  0
  134.3120   75.2240  226.0520 C   0  0  0  0  0  0  0  0  0  0  0  0
  134.5502   75.8174  226.9471 H   0  0  0  0  0  0  0  0  0  0  0  0
  133.4161   75.6289  225.5586 H   0  0  0  0  0  0  0  0  0  0  0  0
  134.0630   73.8920  226.4310 O   0  0  0  0  0  0  0  0  0  0  0  0
  133.5920   73.1810  225.3070 C   0  0  0  0  0  0  0  0  0  0  0  0
  133.3101   72.1643  225.6181 H   0  0  0  0  0  0  0  0  0  0  0  0
  132.7234   73.7162  224.8958 H   0  0  0  0  0  0  0  0  0  0  0  0
  134.6700   73.0900  224.2130 C   0  0  0  0  0  0  0  0  0  0  0  0
  135.4431   72.3824  224.5470 H   0  0  0  0  0  0  0  0  0  0  0  0
  134.1638   72.7608  223.2935 H   0  0  0  0  0  0  0  0  0  0  0  0
  138.0990   72.3650  222.4940 N   0  0  0  0  0  0  0  0  0  0  0  0
  137.4550   71.6190  222.8450 H   0  0  0  0  0  0  0  0  0  0  0  0
  139.5790   69.8360  223.3690 C   0  0  0  0  0  0  0  0  0  0  0  0
  140.4810   69.2358  223.1787 H   0  0  0  0  0  0  0  0  0  0  0  0
  138.9065   69.7683  222.5012 H   0  0  0  0  0  0  0  0  0  0  0  0
  138.8660   69.3060  224.6120 C   0  0  0  0  0  0  0  0  0  0  0  0
  138.8134   68.2090  224.5496 H   0  0  0  0  0  0  0  0  0  0  0  0
  137.8617   69.7536  224.6421 H   0  0  0  0  0  0  0  0  0  0  0  0
  1  2  1  0
  2  3  2  0
  3  4  1  0
  3  5  1  0
  5  6  1  0
  5  7  2  0
  7  8  1  0
  8  9  2  0
  9 10  1  0
  8 11  1  0
 11 12  1  0
 11 13  1  0
 11 14  1  0
 14 15  1  0
 15 16  2  0
 16 17  1  0
 17 18  1  0
 18 19  1  0
 19 20  1  0
 19 21  1  0
 19 22  1  0
 22 23  1  0
 22 24  1  0
 22 25  1  0
 25 26  1  0
 25 27  1  0
 25 28  1  0
 28 29  1  0
 28 30  1  0
 28 31  1  0
 31 32  1  0
 31 33  1  0
 17 34  2  0
 34 35  1  0
 34 36  1  0
 36 37  2  0
 37 38  1  0
 38 39  1  0
 38 40  1  0
 38 41  1  0
 41 42  1  0
 41 43  1  0
 41 44  1  0
 44 45  1  0
 44 46  1  0
 46 47  1  0
 46 48  1  0
 46 49  1  0
 49 50  1  0
 49 51  1  0
 49 52  1  0
 52 53  1  0
 53 54  1  0
 53 55  1  0
 53 56  1  0
 56 57  1  0
 56 58  1  0
 36 59  1  0
 59 60  1  0
 14 61  1  0
 61 62  1  0
 61 63  1  0
 61 64  1  0
 64 65  1  0
 64 66  1  0
  9  2  1  0
 59 15  1  0
 64  7  1  0
 31 18  1  0
 56 44  1  0
M  CHG  2  25   1  44   1
M  END
>  <UniqueID>  (75) 
487

>  <SMILES>  (75) 
c1ccc2c(c1)CCN(c1nc(N3CC[NH2+]CC3)c/c(=N\CC[NH+]3CCOCC3)[nH]1)C2

>  <Energy>  (75) 
89.6390617243663

>  <Genealogy>  (75) 
c1ccc2c(c1)CCN(c1nc(NCC[NH+]3CCOCC3)cc(N3CC[NH2+]CC3)n1)C2 (protonated)
c1ccc2c(c1)CCN(c1nc(N3CC[NH2+]CC3)cc(=NCC[NH+]3CCOCC3)[nH]1)C2 (tautomer)
c1ccc2c(c1)CCN(c1nc(N3CC[NH2+]CC3)c/c(=N\CC[NH+]3CCOCC3)[nH]1)C2 (cis-trans isomerization)
c1ccc2c(c1)CCN(c1nc(N3CC[NH2+]CC3)c/c(=N\CC[NH+]3CCOCC3)[nH]1)C2 (3D coordinates assigned)
c1ccc2c(c1)CCN(c1nc(N3CC[NH2+]CC3)c/c(=N\CC[NH+]3CCOCC3)[nH]1)C2 (nonaromatic ring conformer: 89.6390617243663 kcal/mol)

>  <smiles>  (75) 
c1ccc2c(c1)CCN(c1nc(NCCN3CCOCC3)cc(N3CCNCC3)n1)C2

>  <score_type>  (75) 
oracle

>  <origin>  (75) 
autodockgpu

>  <m_score__min__energy>  (75) 
-9.1799999999999997

>  <m_primary>  (75) 
energy

>  <meeko>  (75) 
{"free_energy": -8.76, "intermolecular_energy": -10.55, "internal_energy": -1.46, "cluster_size": 20, "cluster_id": 1, "rank_in_cluster": 10}

>  <energy>  (75) 
-8.3

>  <cluster_rmsd>  (75) 
0.7

>  <rmsd>  (75) 
271.67

>  <cluster>  (75) 
1

$$$$
DRRGDEWGQQLPRW-CXKBQSNCNA-P
     RDKit          3D

 66 70  0  0  0  0  0  0  0  0999 V2000
  141.1854   71.0957  229.2695 H   0  0  0  0  0  0  0  0  0  0  0  0
  140.7250   70.7790  228.3220 C   0  0  0  0  0  0  0  0  0  0  0  0
  139.7500   69.7800  228.3210 C   0  0  0  0  0  0  0  0  0  0  0  0
  139.4484   69.3063  229.2669 H   0  0  0  0  0  0  0  0  0  0  0  0
  139.1570   69.3810  227.1220 C   0  0  0  0  0  0  0  0  0  0  0  0
  138.3855   68.5970  227.1290 H   0  0  0  0  0  0  0  0  0  0  0  0
  139.5380   69.9730  225.9070 C   0  0  0  0  0  0  0  0  0  0  0  0
  140.5220   70.9930  225.9090 C   0  0  0  0  0  0  0  0  0  0  0  0
  141.1170   71.3770  227.1230 C   0  0  0  0  0  0  0  0  0  0  0  0
  141.8962   72.1534  227.1284 H   0  0  0  0  0  0  0  0  0  0  0  0
  140.9930   71.6320  224.6250 C   0  0  0  0  0  0  0  0  0  0  0  0
  141.9776   71.2210  224.3572 H   0  0  0  0  0  0  0  0  0  0  0  0
  141.0612   72.7195  224.7757 H   0  0  0  0  0  0  0  0  0  0  0  0
  140.0490   71.3660  223.5370 N   0  0  0  0  0  0  0  0  0  0  0  0
  139.6120   72.4310  222.6760 C   0  0  0  0  0  0  0  0  0  0  0  0
  140.5200   73.3260  222.2110 N   0  0  0  0  0  0  0  0  0  0  0  0
  140.1620   74.3880  221.4420 C   0  0  0  0  0  0  0  0  0  0  0  0
  141.1790   75.3120  220.9830 N   0  0  0  0  0  0  0  0  0  0  0  0
  141.0790   76.7560  221.2640 C   0  0  0  0  0  0  0  0  0  0  0  0
  140.0183   77.0475  221.2672 H   0  0  0  0  0  0  0  0  0  0  0  0
  141.5401   76.9511  222.2435 H   0  0  0  0  0  0  0  0  0  0  0  0
  141.8220   77.5850  220.2060 C   0  0  0  0  0  0  0  0  0  0  0  0
  141.2574   77.5491  219.2626 H   0  0  0  0  0  0  0  0  0  0  0  0
  141.9055   78.6184  220.5737 H   0  0  0  0  0  0  0  0  0  0  0  0
  143.1770   77.0690  219.9710 N   0  0  0  0  0  0  0  0  0  0  0  0
  143.7480   77.1330  220.8450 H   0  0  0  0  0  0  0  0  0  0  0  0
  143.6340   77.6520  219.2310 H   0  0  0  0  0  0  0  0  0  0  0  0
  143.1260   75.6790  219.5030 C   0  0  0  0  0  0  0  0  0  0  0  0
  142.5326   75.6311  218.5780 H   0  0  0  0  0  0  0  0  0  0  0  0
  144.1527   75.3310  219.3165 H   0  0  0  0  0  0  0  0  0  0  0  0
  142.4850   74.7760  220.5580 C   0  0  0  0  0  0  0  0  0  0  0  0
  142.3416   73.7713  220.1336 H   0  0  0  0  0  0  0  0  0  0  0  0
  143.1492   74.7308  221.4337 H   0  0  0  0  0  0  0  0  0  0  0  0
  138.8030   74.5730  221.1430 C   0  0  0  0  0  0  0  0  0  0  0  0
  138.4777   75.4350  220.5421 H   0  0  0  0  0  0  0  0  0  0  0  0
  137.8600   73.6410  221.6220 C   0  0  0  0  0  0  0  0  0  0  0  0
  136.5790   73.7590  221.3860 N   0  0  0  0  0  0  0  0  0  0  0  0
  135.5890   74.4830  222.1850 C   0  0  0  0  0  0  0  0  0  0  0  0
  136.1005   75.2425  222.7945 H   0  0  0  0  0  0  0  0  0  0  0  0
  134.8675   74.9643  221.5084 H   0  0  0  0  0  0  0  0  0  0  0  0
  134.8340   73.5130  223.1120 C   0  0  0  0  0  0  0  0  0  0  0  0
  133.7581   73.7226  223.0202 H   0  0  0  0  0  0  0  0  0  0  0  0
  135.1136   72.5000  222.7868 H   0  0  0  0  0  0  0  0  0  0  0  0
  135.1990   73.6000  224.5530 N   0  0  0  0  0  0  0  0  0  0  0  0
  136.2340   73.4200  224.5450 H   0  0  0  0  0  0  0  0  0  0  0  0
  135.0590   74.9580  225.1390 C   0  0  0  0  0  0  0  0  0  0  0  0
  135.8882   75.1230  225.8427 H   0  0  0  0  0  0  0  0  0  0  0  0
  135.0759   75.6780  224.3075 H   0  0  0  0  0  0  0  0  0  0  0  0
  133.7350   75.1550  225.8890 C   0  0  0  0  0  0  0  0  0  0  0  0
  133.7467   76.1315  226.3953 H   0  0  0  0  0  0  0  0  0  0  0  0
  132.9058   75.1143  225.1674 H   0  0  0  0  0  0  0  0  0  0  0  0
  133.5590   74.1380  226.8460 O   0  0  0  0  0  0  0  0  0  0  0  0
  133.3730   72.9110  226.1760 C   0  0  0  0  0  0  0  0  0  0  0  0
  133.1457   72.1294  226.9159 H   0  0  0  0  0  0  0  0  0  0  0  0
  132.5422   73.0261  225.4643 H   0  0  0  0  0  0  0  0  0  0  0  0
  134.6330   72.5070  225.3910 C   0  0  0  0  0  0  0  0  0  0  0  0
  135.4019   72.1888  226.1104 H   0  0  0  0  0  0  0  0  0  0  0  0
  134.3362   71.7001  224.7049 H   0  0  0  0  0  0  0  0  0  0  0  0
  138.2920   72.5900  222.3740 N   0  0  0  0  0  0  0  0  0  0  0  0
  137.5880   71.9180  222.7580 H   0  0  0  0  0  0  0  0  0  0  0  0
  139.5620   69.9950  223.3830 C   0  0  0  0  0  0  0  0  0  0  0  0
  140.4148   69.3169  223.2318 H   0  0  0  0  0  0  0  0  0  0  0  0
  138.8918   69.9376  222.5126 H   0  0  0  0  0  0  0  0  0  0  0  0
  138.8010   69.5850  224.6430 C   0  0  0  0  0  0  0  0  0  0  0  0
  138.6628   68.4938  224.6342 H   0  0  0  0  0  0  0  0  0  0  0  0
  137.8347   70.1106  224.6403 H   0  0  0  0  0  0  0  0  0  0  0  0
  1  2  1  0
  2  3  2  0
  3  4  1  0
  3  5  1  0
  5  6  1  0
  5  7  2  0
  7  8  1  0
  8  9  2  0
  9 10  1  0
  8 11  1  0
 11 12  1  0
 11 13  1  0
 11 14  1  0
 14 15  1  0
 15 16  2  0
 16 17  1  0
 17 18  1  0
 18 19  1  0
 19 20  1  0
 19 21  1  0
 19 22  1  0
 22 23  1  0
 22 24  1  0
 22 25  1  0
 25 26  1  0
 25 27  1  0
 25 28  1  0
 28 29  1  0
 28 30  1  0
 28 31  1  0
 31 32  1  0
 31 33  1  0
 17 34  2  0
 34 35  1  0
 34 36  1  0
 36 37  2  0
 37 38  1  0
 38 39  1  0
 38 40  1  0
 38 41  1  0
 41 42  1  0
 41 43  1  0
 41 44  1  0
 44 45  1  0
 44 46  1  0
 46 47  1  0
 46 48  1  0
 46 49  1  0
 49 50  1  0
 49 51  1  0
 49 52  1  0
 52 53  1  0
 53 54  1  0
 53 55  1  0
 53 56  1  0
 56 57  1  0
 56 58  1  0
 36 59  1  0
 59 60  1  0
 14 61  1  0
 61 62  1  0
 61 63  1  0
 61 64  1  0
 64 65  1  0
 64 66  1  0
  9  2  1  0
 59 15  1  0
 64  7  1  0
 31 18  1  0
 56 44  1  0
M  CHG  2  25   1  44   1
M  END
>  <UniqueID>  (76) 
487

>  <SMILES>  (76) 
c1ccc2c(c1)CCN(c1nc(N3CC[NH2+]CC3)c/c(=N\CC[NH+]3CCOCC3)[nH]1)C2

>  <Energy>  (76) 
89.6390617243663

>  <Genealogy>  (76) 
c1ccc2c(c1)CCN(c1nc(NCC[NH+]3CCOCC3)cc(N3CC[NH2+]CC3)n1)C2 (protonated)
c1ccc2c(c1)CCN(c1nc(N3CC[NH2+]CC3)cc(=NCC[NH+]3CCOCC3)[nH]1)C2 (tautomer)
c1ccc2c(c1)CCN(c1nc(N3CC[NH2+]CC3)c/c(=N\CC[NH+]3CCOCC3)[nH]1)C2 (cis-trans isomerization)
c1ccc2c(c1)CCN(c1nc(N3CC[NH2+]CC3)c/c(=N\CC[NH+]3CCOCC3)[nH]1)C2 (3D coordinates assigned)
c1ccc2c(c1)CCN(c1nc(N3CC[NH2+]CC3)c/c(=N\CC[NH+]3CCOCC3)[nH]1)C2 (nonaromatic ring conformer: 89.6390617243663 kcal/mol)

>  <smiles>  (76) 
c1ccc2c(c1)CCN(c1nc(NCCN3CCOCC3)cc(N3CCNCC3)n1)C2

>  <score_type>  (76) 
oracle

>  <origin>  (76) 
autodockgpu

>  <m_score__min__energy>  (76) 
-9.1799999999999997

>  <m_primary>  (76) 
energy

>  <meeko>  (76) 
{"free_energy": -8.95, "intermolecular_energy": -10.73, "internal_energy": -0.73, "cluster_size": 20, "cluster_id": 1, "rank_in_cluster": 4}

>  <energy>  (76) 
-8.29

>  <cluster_rmsd>  (76) 
0.69

>  <rmsd>  (76) 
271.63

>  <cluster>  (76) 
1

$$$$
DRRGDEWGQQLPRW-CXKBQSNCNA-P
     RDKit          3D

 66 70  0  0  0  0  0  0  0  0999 V2000
  141.2072   70.5727  229.2769 H   0  0  0  0  0  0  0  0  0  0  0  0
  140.7550   70.2930  228.3140 C   0  0  0  0  0  0  0  0  0  0  0  0
  139.8590   69.2230  228.2500 C   0  0  0  0  0  0  0  0  0  0  0  0
  139.6106   68.6581  229.1606 H   0  0  0  0  0  0  0  0  0  0  0  0
  139.2790   68.8710  227.0300 C   0  0  0  0  0  0  0  0  0  0  0  0
  138.5707   68.0306  226.9858 H   0  0  0  0  0  0  0  0  0  0  0  0
  139.5910   69.5790  225.8600 C   0  0  0  0  0  0  0  0  0  0  0  0
  140.4940   70.6700  225.9280 C   0  0  0  0  0  0  0  0  0  0  0  0
  141.0780   71.0080  227.1600 C   0  0  0  0  0  0  0  0  0  0  0  0
  141.7941   71.8412  227.2154 H   0  0  0  0  0  0  0  0  0  0  0  0
  140.8910   71.4380  224.6900 C   0  0  0  0  0  0  0  0  0  0  0  0
  141.8993   71.1264  224.3797 H   0  0  0  0  0  0  0  0  0  0  0  0
  140.8779   72.5132  224.9218 H   0  0  0  0  0  0  0  0  0  0  0  0
  139.9510   71.1810  223.5970 N   0  0  0  0  0  0  0  0  0  0  0  0
  139.4190   72.2700  222.8240 C   0  0  0  0  0  0  0  0  0  0  0  0
  140.2500   73.2580  222.4030 N   0  0  0  0  0  0  0  0  0  0  0  0
  139.7990   74.3420  221.7200 C   0  0  0  0  0  0  0  0  0  0  0  0
  140.7370   75.3660  221.3060 N   0  0  0  0  0  0  0  0  0  0  0  0
  140.6010   76.7580  221.7710 C   0  0  0  0  0  0  0  0  0  0  0  0
  139.5329   76.9929  221.8894 H   0  0  0  0  0  0  0  0  0  0  0  0
  141.1312   76.8557  222.7298 H   0  0  0  0  0  0  0  0  0  0  0  0
  141.2220   77.7460  220.7730 C   0  0  0  0  0  0  0  0  0  0  0  0
  140.5851   77.7972  219.8776 H   0  0  0  0  0  0  0  0  0  0  0  0
  141.2929   78.7296  221.2603 H   0  0  0  0  0  0  0  0  0  0  0  0
  142.5740   77.3310  220.3740 N   0  0  0  0  0  0  0  0  0  0  0  0
  143.2100   77.3170  221.2050 H   0  0  0  0  0  0  0  0  0  0  0  0
  142.9450   78.0230  219.6810 H   0  0  0  0  0  0  0  0  0  0  0  0
  142.5420   76.0080  219.7420 C   0  0  0  0  0  0  0  0  0  0  0  0
  141.8786   76.0428  218.8653 H   0  0  0  0  0  0  0  0  0  0  0  0
  143.5638   75.7372  219.4377 H   0  0  0  0  0  0  0  0  0  0  0  0
  142.0250   74.9520  220.7210 C   0  0  0  0  0  0  0  0  0  0  0  0
  141.8888   74.0005  220.1862 H   0  0  0  0  0  0  0  0  0  0  0  0
  142.7587   74.8341  221.5320 H   0  0  0  0  0  0  0  0  0  0  0  0
  138.4230   74.4520  221.4660 C   0  0  0  0  0  0  0  0  0  0  0  0
  138.0230   75.3288  220.9356 H   0  0  0  0  0  0  0  0  0  0  0  0
  137.5600   73.4250  221.8990 C   0  0  0  0  0  0  0  0  0  0  0  0
  136.2680   73.4690  221.7010 N   0  0  0  0  0  0  0  0  0  0  0  0
  135.4400   74.6560  221.4780 C   0  0  0  0  0  0  0  0  0  0  0  0
  136.0296   75.4133  220.9404 H   0  0  0  0  0  0  0  0  0  0  0  0
  134.5596   74.3701  220.8837 H   0  0  0  0  0  0  0  0  0  0  0  0
  134.9670   75.2410  222.8210 C   0  0  0  0  0  0  0  0  0  0  0  0
  135.3959   76.2488  222.9231 H   0  0  0  0  0  0  0  0  0  0  0  0
  133.8675   75.2326  222.7872 H   0  0  0  0  0  0  0  0  0  0  0  0
  135.3490   74.4540  224.0250 N   0  0  0  0  0  0  0  0  0  0  0  0
  136.3150   74.1160  223.7900 H   0  0  0  0  0  0  0  0  0  0  0  0
  135.5250   75.2660  225.2570 C   0  0  0  0  0  0  0  0  0  0  0  0
  136.3731   74.8586  225.8268 H   0  0  0  0  0  0  0  0  0  0  0  0
  135.7017   76.3053  224.9429 H   0  0  0  0  0  0  0  0  0  0  0  0
  134.2840   75.2650  226.1600 C   0  0  0  0  0  0  0  0  0  0  0  0
  134.5205   75.7815  227.1020 H   0  0  0  0  0  0  0  0  0  0  0  0
  133.4640   75.7831  225.6411 H   0  0  0  0  0  0  0  0  0  0  0  0
  133.8850   73.9450  226.4420 O   0  0  0  0  0  0  0  0  0  0  0  0
  133.4210   73.3470  225.2510 C   0  0  0  0  0  0  0  0  0  0  0  0
  133.0248   72.3473  225.4825 H   0  0  0  0  0  0  0  0  0  0  0  0
  132.6351   73.9872  224.8238 H   0  0  0  0  0  0  0  0  0  0  0  0
  134.5520   73.2110  224.2180 C   0  0  0  0  0  0  0  0  0  0  0  0
  135.2314   72.4129  224.5520 H   0  0  0  0  0  0  0  0  0  0  0  0
  134.0756   72.9854  223.2525 H   0  0  0  0  0  0  0  0  0  0  0  0
  138.0830   72.3570  222.5640 N   0  0  0  0  0  0  0  0  0  0  0  0
  137.4380   71.6120  222.9150 H   0  0  0  0  0  0  0  0  0  0  0  0
  139.5690   69.7920  223.3440 C   0  0  0  0  0  0  0  0  0  0  0  0
  140.4688   69.1959  223.1316 H   0  0  0  0  0  0  0  0  0  0  0  0
  138.8906   69.7472  222.4792 H   0  0  0  0  0  0  0  0  0  0  0  0
  138.8640   69.2310  224.5790 C   0  0  0  0  0  0  0  0  0  0  0  0
  138.8094   68.1361  224.4889 H   0  0  0  0  0  0  0  0  0  0  0  0
  137.8607   69.6793  224.6278 H   0  0  0  0  0  0  0  0  0  0  0  0
  1  2  1  0
  2  3  2  0
  3  4  1  0
  3  5  1  0
  5  6  1  0
  5  7  2  0
  7  8  1  0
  8  9  2  0
  9 10  1  0
  8 11  1  0
 11 12  1  0
 11 13  1  0
 11 14  1  0
 14 15  1  0
 15 16  2  0
 16 17  1  0
 17 18  1  0
 18 19  1  0
 19 20  1  0
 19 21  1  0
 19 22  1  0
 22 23  1  0
 22 24  1  0
 22 25  1  0
 25 26  1  0
 25 27  1  0
 25 28  1  0
 28 29  1  0
 28 30  1  0
 28 31  1  0
 31 32  1  0
 31 33  1  0
 17 34  2  0
 34 35  1  0
 34 36  1  0
 36 37  2  0
 37 38  1  0
 38 39  1  0
 38 40  1  0
 38 41  1  0
 41 42  1  0
 41 43  1  0
 41 44  1  0
 44 45  1  0
 44 46  1  0
 46 47  1  0
 46 48  1  0
 46 49  1  0
 49 50  1  0
 49 51  1  0
 49 52  1  0
 52 53  1  0
 53 54  1  0
 53 55  1  0
 53 56  1  0
 56 57  1  0
 56 58  1  0
 36 59  1  0
 59 60  1  0
 14 61  1  0
 61 62  1  0
 61 63  1  0
 61 64  1  0
 64 65  1  0
 64 66  1  0
  9  2  1  0
 59 15  1  0
 64  7  1  0
 31 18  1  0
 56 44  1  0
M  CHG  2  25   1  44   1
M  END
>  <UniqueID>  (77) 
487

>  <SMILES>  (77) 
c1ccc2c(c1)CCN(c1nc(N3CC[NH2+]CC3)c/c(=N\CC[NH+]3CCOCC3)[nH]1)C2

>  <Energy>  (77) 
89.6390617243663

>  <Genealogy>  (77) 
c1ccc2c(c1)CCN(c1nc(NCC[NH+]3CCOCC3)cc(N3CC[NH2+]CC3)n1)C2 (protonated)
c1ccc2c(c1)CCN(c1nc(N3CC[NH2+]CC3)cc(=NCC[NH+]3CCOCC3)[nH]1)C2 (tautomer)
c1ccc2c(c1)CCN(c1nc(N3CC[NH2+]CC3)c/c(=N\CC[NH+]3CCOCC3)[nH]1)C2 (cis-trans isomerization)
c1ccc2c(c1)CCN(c1nc(N3CC[NH2+]CC3)c/c(=N\CC[NH+]3CCOCC3)[nH]1)C2 (3D coordinates assigned)
c1ccc2c(c1)CCN(c1nc(N3CC[NH2+]CC3)c/c(=N\CC[NH+]3CCOCC3)[nH]1)C2 (nonaromatic ring conformer: 89.6390617243663 kcal/mol)

>  <smiles>  (77) 
c1ccc2c(c1)CCN(c1nc(NCCN3CCOCC3)cc(N3CCNCC3)n1)C2

>  <score_type>  (77) 
oracle

>  <origin>  (77) 
autodockgpu

>  <m_score__min__energy>  (77) 
-9.1799999999999997

>  <m_primary>  (77) 
energy

>  <meeko>  (77) 
{"free_energy": -8.77, "intermolecular_energy": -10.56, "internal_energy": -1.43, "cluster_size": 20, "cluster_id": 1, "rank_in_cluster": 8}

>  <energy>  (77) 
-8.29

>  <cluster_rmsd>  (77) 
0.69

>  <rmsd>  (77) 
271.65

>  <cluster>  (77) 
1

$$$$
DRRGDEWGQQLPRW-CXKBQSNCNA-P
     RDKit          3D

 66 70  0  0  0  0  0  0  0  0999 V2000
  141.1854   71.0898  229.2870 H   0  0  0  0  0  0  0  0  0  0  0  0
  140.7270   70.7490  228.3470 C   0  0  0  0  0  0  0  0  0  0  0  0
  139.7820   69.7210  228.3650 C   0  0  0  0  0  0  0  0  0  0  0  0
  139.5014   69.2495  229.3184 H   0  0  0  0  0  0  0  0  0  0  0  0
  139.1930   69.2910  227.1750 C   0  0  0  0  0  0  0  0  0  0  0  0
  138.4460   68.4838  227.1966 H   0  0  0  0  0  0  0  0  0  0  0  0
  139.5460   69.8800  225.9510 C   0  0  0  0  0  0  0  0  0  0  0  0
  140.4990   70.9300  225.9340 C   0  0  0  0  0  0  0  0  0  0  0  0
  141.0910   71.3450  227.1380 C   0  0  0  0  0  0  0  0  0  0  0  0
  141.8463   72.1447  227.1285 H   0  0  0  0  0  0  0  0  0  0  0  0
  140.9400   71.5680  224.6390 C   0  0  0  0  0  0  0  0  0  0  0  0
  141.9345   71.1840  224.3677 H   0  0  0  0  0  0  0  0  0  0  0  0
  140.9763   72.6587  224.7769 H   0  0  0  0  0  0  0  0  0  0  0  0
  139.9960   71.2610  223.5620 N   0  0  0  0  0  0  0  0  0  0  0  0
  139.5210   72.3020  222.6920 C   0  0  0  0  0  0  0  0  0  0  0  0
  140.3880   73.2500  222.2520 N   0  0  0  0  0  0  0  0  0  0  0  0
  139.9890   74.2920  221.4760 C   0  0  0  0  0  0  0  0  0  0  0  0
  140.9620   75.2740  221.0450 N   0  0  0  0  0  0  0  0  0  0  0  0
  140.7360   76.7160  221.2570 C   0  0  0  0  0  0  0  0  0  0  0  0
  139.6587   76.9245  221.1798 H   0  0  0  0  0  0  0  0  0  0  0  0
  141.1149   76.9826  222.2547 H   0  0  0  0  0  0  0  0  0  0  0  0
  141.4840   77.5600  220.2150 C   0  0  0  0  0  0  0  0  0  0  0  0
  140.9880   77.4459  219.2398 H   0  0  0  0  0  0  0  0  0  0  0  0
  141.4655   78.6097  220.5434 H   0  0  0  0  0  0  0  0  0  0  0  0
  142.8870   77.1410  220.0890 N   0  0  0  0  0  0  0  0  0  0  0  0
  143.3920   77.2820  220.9950 H   0  0  0  0  0  0  0  0  0  0  0  0
  143.3480   77.7300  219.3560 H   0  0  0  0  0  0  0  0  0  0  0  0
  142.9710   75.7350  219.6790 C   0  0  0  0  0  0  0  0  0  0  0  0
  142.4461   75.6065  218.7209 H   0  0  0  0  0  0  0  0  0  0  0  0
  144.0310   75.4604  219.5739 H   0  0  0  0  0  0  0  0  0  0  0  0
  142.3300   74.8260  220.7280 C   0  0  0  0  0  0  0  0  0  0  0  0
  142.2914   73.7979  220.3388 H   0  0  0  0  0  0  0  0  0  0  0  0
  142.9351   74.8662  221.6457 H   0  0  0  0  0  0  0  0  0  0  0  0
  138.6290   74.4010  221.1440 C   0  0  0  0  0  0  0  0  0  0  0  0
  138.2701   75.2453  220.5371 H   0  0  0  0  0  0  0  0  0  0  0  0
  137.7290   73.4150  221.5980 C   0  0  0  0  0  0  0  0  0  0  0  0
  136.4500   73.4610  221.3310 N   0  0  0  0  0  0  0  0  0  0  0  0
  135.4780   74.4550  221.7920 C   0  0  0  0  0  0  0  0  0  0  0  0
  136.0144   75.3236  222.2017 H   0  0  0  0  0  0  0  0  0  0  0  0
  134.8526   74.7638  220.9414 H   0  0  0  0  0  0  0  0  0  0  0  0
  134.5740   73.8550  222.8850 C   0  0  0  0  0  0  0  0  0  0  0  0
  133.6671   74.4737  222.9540 H   0  0  0  0  0  0  0  0  0  0  0  0
  134.3755   72.8167  222.5809 H   0  0  0  0  0  0  0  0  0  0  0  0
  135.1840   73.7790  224.2410 N   0  0  0  0  0  0  0  0  0  0  0  0
  136.2130   73.7390  224.0350 H   0  0  0  0  0  0  0  0  0  0  0  0
  135.0130   75.0090  225.0570 C   0  0  0  0  0  0  0  0  0  0  0  0
  135.9348   75.1782  225.6330 H   0  0  0  0  0  0  0  0  0  0  0  0
  134.8035   75.8367  224.3634 H   0  0  0  0  0  0  0  0  0  0  0  0
  133.8340   74.9220  226.0360 C   0  0  0  0  0  0  0  0  0  0  0  0
  133.8372   75.8083  226.6875 H   0  0  0  0  0  0  0  0  0  0  0  0
  132.8958   74.8786  225.4633 H   0  0  0  0  0  0  0  0  0  0  0  0
  133.9410   73.7630  226.8280 O   0  0  0  0  0  0  0  0  0  0  0  0
  133.7640   72.6320  226.0050 C   0  0  0  0  0  0  0  0  0  0  0  0
  133.7566   71.7291  226.6332 H   0  0  0  0  0  0  0  0  0  0  0  0
  132.8104   72.7391  225.4673 H   0  0  0  0  0  0  0  0  0  0  0  0
  134.8960   72.5130  224.9690 C   0  0  0  0  0  0  0  0  0  0  0  0
  135.8115   72.1980  225.4912 H   0  0  0  0  0  0  0  0  0  0  0  0
  134.5649   71.7812  224.2175 H   0  0  0  0  0  0  0  0  0  0  0  0
  138.2020   72.3880  222.3580 N   0  0  0  0  0  0  0  0  0  0  0  0
  137.5280   71.6760  222.7240 H   0  0  0  0  0  0  0  0  0  0  0  0
  139.5490   69.8740  223.4270 C   0  0  0  0  0  0  0  0  0  0  0  0
  140.4205   69.2200  223.2763 H   0  0  0  0  0  0  0  0  0  0  0  0
  138.8741   69.7867  222.5628 H   0  0  0  0  0  0  0  0  0  0  0  0
  138.8110   69.4560  224.6970 C   0  0  0  0  0  0  0  0  0  0  0  0
  138.7054   68.3611  224.7013 H   0  0  0  0  0  0  0  0  0  0  0  0
  137.8295   69.9527  224.6964 H   0  0  0  0  0  0  0  0  0  0  0  0
  1  2  1  0
  2  3  2  0
  3  4  1  0
  3  5  1  0
  5  6  1  0
  5  7  2  0
  7  8  1  0
  8  9  2  0
  9 10  1  0
  8 11  1  0
 11 12  1  0
 11 13  1  0
 11 14  1  0
 14 15  1  0
 15 16  2  0
 16 17  1  0
 17 18  1  0
 18 19  1  0
 19 20  1  0
 19 21  1  0
 19 22  1  0
 22 23  1  0
 22 24  1  0
 22 25  1  0
 25 26  1  0
 25 27  1  0
 25 28  1  0
 28 29  1  0
 28 30  1  0
 28 31  1  0
 31 32  1  0
 31 33  1  0
 17 34  2  0
 34 35  1  0
 34 36  1  0
 36 37  2  0
 37 38  1  0
 38 39  1  0
 38 40  1  0
 38 41  1  0
 41 42  1  0
 41 43  1  0
 41 44  1  0
 44 45  1  0
 44 46  1  0
 46 47  1  0
 46 48  1  0
 46 49  1  0
 49 50  1  0
 49 51  1  0
 49 52  1  0
 52 53  1  0
 53 54  1  0
 53 55  1  0
 53 56  1  0
 56 57  1  0
 56 58  1  0
 36 59  1  0
 59 60  1  0
 14 61  1  0
 61 62  1  0
 61 63  1  0
 61 64  1  0
 64 65  1  0
 64 66  1  0
  9  2  1  0
 59 15  1  0
 64  7  1  0
 31 18  1  0
 56 44  1  0
M  CHG  2  25   1  44   1
M  END
>  <UniqueID>  (78) 
487

>  <SMILES>  (78) 
c1ccc2c(c1)CCN(c1nc(N3CC[NH2+]CC3)c/c(=N\CC[NH+]3CCOCC3)[nH]1)C2

>  <Energy>  (78) 
89.6390617243663

>  <Genealogy>  (78) 
c1ccc2c(c1)CCN(c1nc(NCC[NH+]3CCOCC3)cc(N3CC[NH2+]CC3)n1)C2 (protonated)
c1ccc2c(c1)CCN(c1nc(N3CC[NH2+]CC3)cc(=NCC[NH+]3CCOCC3)[nH]1)C2 (tautomer)
c1ccc2c(c1)CCN(c1nc(N3CC[NH2+]CC3)c/c(=N\CC[NH+]3CCOCC3)[nH]1)C2 (cis-trans isomerization)
c1ccc2c(c1)CCN(c1nc(N3CC[NH2+]CC3)c/c(=N\CC[NH+]3CCOCC3)[nH]1)C2 (3D coordinates assigned)
c1ccc2c(c1)CCN(c1nc(N3CC[NH2+]CC3)c/c(=N\CC[NH+]3CCOCC3)[nH]1)C2 (nonaromatic ring conformer: 89.6390617243663 kcal/mol)

>  <smiles>  (78) 
c1ccc2c(c1)CCN(c1nc(NCCN3CCOCC3)cc(N3CCNCC3)n1)C2

>  <score_type>  (78) 
oracle

>  <origin>  (78) 
autodockgpu

>  <m_score__min__energy>  (78) 
-9.1799999999999997

>  <m_primary>  (78) 
energy

>  <meeko>  (78) 
{"free_energy": -8.78, "intermolecular_energy": -10.57, "internal_energy": -0.92, "cluster_size": 20, "cluster_id": 1, "rank_in_cluster": 6}

>  <energy>  (78) 
-8.29

>  <cluster_rmsd>  (78) 
0.7

>  <rmsd>  (78) 
271.65

>  <cluster>  (78) 
1

$$$$
DRRGDEWGQQLPRW-CXKBQSNCNA-P
     RDKit          3D

 66 70  0  0  0  0  0  0  0  0999 V2000
  141.2185   70.9285  229.2951 H   0  0  0  0  0  0  0  0  0  0  0  0
  140.7540   70.6260  228.3450 C   0  0  0  0  0  0  0  0  0  0  0  0
  139.8060   69.6010  228.3290 C   0  0  0  0  0  0  0  0  0  0  0  0
  139.5287   69.0936  229.2648 H   0  0  0  0  0  0  0  0  0  0  0  0
  139.2100   69.2200  227.1250 C   0  0  0  0  0  0  0  0  0  0  0  0
  138.4611   68.4143  227.1184 H   0  0  0  0  0  0  0  0  0  0  0  0
  139.5580   69.8560  225.9230 C   0  0  0  0  0  0  0  0  0  0  0  0
  140.5140   70.9020  225.9430 C   0  0  0  0  0  0  0  0  0  0  0  0
  141.1140   71.2680  227.1590 C   0  0  0  0  0  0  0  0  0  0  0  0
  141.8719   72.0651  227.1768 H   0  0  0  0  0  0  0  0  0  0  0  0
  140.9510   71.5900  224.6720 C   0  0  0  0  0  0  0  0  0  0  0  0
  141.9428   71.2139  224.3805 H   0  0  0  0  0  0  0  0  0  0  0  0
  140.9919   72.6742  224.8530 H   0  0  0  0  0  0  0  0  0  0  0  0
  140.0000   71.3290  223.5880 N   0  0  0  0  0  0  0  0  0  0  0  0
  139.5240   72.4060  222.7630 C   0  0  0  0  0  0  0  0  0  0  0  0
  140.4060   73.3230  222.2910 N   0  0  0  0  0  0  0  0  0  0  0  0
  140.0110   74.3950  221.5550 C   0  0  0  0  0  0  0  0  0  0  0  0
  141.0020   75.3440  221.0870 N   0  0  0  0  0  0  0  0  0  0  0  0
  140.9800   76.7500  221.5300 C   0  0  0  0  0  0  0  0  0  0  0  0
  139.9360   77.0609  221.6828 H   0  0  0  0  0  0  0  0  0  0  0  0
  141.5510   76.8270  222.4670 H   0  0  0  0  0  0  0  0  0  0  0  0
  141.6300   77.6750  220.4900 C   0  0  0  0  0  0  0  0  0  0  0  0
  140.9649   77.7549  219.6175 H   0  0  0  0  0  0  0  0  0  0  0  0
  141.7870   78.6597  220.9544 H   0  0  0  0  0  0  0  0  0  0  0  0
  142.9330   77.1600  220.0510 N   0  0  0  0  0  0  0  0  0  0  0  0
  143.5980   77.1150  220.8570 H   0  0  0  0  0  0  0  0  0  0  0  0
  143.3260   77.8110  219.3310 H   0  0  0  0  0  0  0  0  0  0  0  0
  142.7860   75.8310  219.4460 C   0  0  0  0  0  0  0  0  0  0  0  0
  142.0938   75.8969  218.5936 H   0  0  0  0  0  0  0  0  0  0  0  0
  143.7743   75.4846  219.1094 H   0  0  0  0  0  0  0  0  0  0  0  0
  142.2350   74.8310  220.4640 C   0  0  0  0  0  0  0  0  0  0  0  0
  142.0134   73.8821  219.9537 H   0  0  0  0  0  0  0  0  0  0  0  0
  142.9890   74.6762  221.2498 H   0  0  0  0  0  0  0  0  0  0  0  0
  138.6410   74.5680  221.3010 C   0  0  0  0  0  0  0  0  0  0  0  0
  138.2863   75.4384  220.7296 H   0  0  0  0  0  0  0  0  0  0  0  0
  137.7260   73.6130  221.7870 C   0  0  0  0  0  0  0  0  0  0  0  0
  136.4370   73.7180  221.5910 N   0  0  0  0  0  0  0  0  0  0  0  0
  135.6470   74.9470  221.4970 C   0  0  0  0  0  0  0  0  0  0  0  0
  136.3246   75.8046  221.3732 H   0  0  0  0  0  0  0  0  0  0  0  0
  134.9710   74.8708  220.6326 H   0  0  0  0  0  0  0  0  0  0  0  0
  134.8060   75.1450  222.7720 C   0  0  0  0  0  0  0  0  0  0  0  0
  134.7702   76.2221  222.9923 H   0  0  0  0  0  0  0  0  0  0  0  0
  133.8196   74.7075  222.5584 H   0  0  0  0  0  0  0  0  0  0  0  0
  135.3160   74.4440  223.9820 N   0  0  0  0  0  0  0  0  0  0  0  0
  136.3040   74.2060  223.7190 H   0  0  0  0  0  0  0  0  0  0  0  0
  135.4460   75.3110  225.1820 C   0  0  0  0  0  0  0  0  0  0  0  0
  136.3538   75.0177  225.7296 H   0  0  0  0  0  0  0  0  0  0  0  0
  135.4962   76.3524  224.8315 H   0  0  0  0  0  0  0  0  0  0  0  0
  134.2460   75.2040  226.1320 C   0  0  0  0  0  0  0  0  0  0  0  0
  134.4573   75.7742  227.0486 H   0  0  0  0  0  0  0  0  0  0  0  0
  133.3560   75.6116  225.6303 H   0  0  0  0  0  0  0  0  0  0  0  0
  134.0050   73.8580  226.4680 O   0  0  0  0  0  0  0  0  0  0  0  0
  133.5670   73.1750  225.3140 C   0  0  0  0  0  0  0  0  0  0  0  0
  133.2907   72.1465  225.5894 H   0  0  0  0  0  0  0  0  0  0  0  0
  132.7013   73.7124  224.8997 H   0  0  0  0  0  0  0  0  0  0  0  0
  134.6690   73.1280  224.2410 C   0  0  0  0  0  0  0  0  0  0  0  0
  135.4437   72.4203  224.5710 H   0  0  0  0  0  0  0  0  0  0  0  0
  134.1870   72.8190  223.3018 H   0  0  0  0  0  0  0  0  0  0  0  0
  138.1940   72.5530  222.5030 N   0  0  0  0  0  0  0  0  0  0  0  0
  137.5110   71.8630  222.8940 H   0  0  0  0  0  0  0  0  0  0  0  0
  139.5490   69.9500  223.4010 C   0  0  0  0  0  0  0  0  0  0  0  0
  140.4181   69.3001  223.2212 H   0  0  0  0  0  0  0  0  0  0  0  0
  138.8703   69.8978  222.5369 H   0  0  0  0  0  0  0  0  0  0  0  0
  138.8150   69.4850  224.6580 C   0  0  0  0  0  0  0  0  0  0  0  0
  138.7045   68.3912  224.6197 H   0  0  0  0  0  0  0  0  0  0  0  0
  137.8356   69.9853  224.6821 H   0  0  0  0  0  0  0  0  0  0  0  0
  1  2  1  0
  2  3  2  0
  3  4  1  0
  3  5  1  0
  5  6  1  0
  5  7  2  0
  7  8  1  0
  8  9  2  0
  9 10  1  0
  8 11  1  0
 11 12  1  0
 11 13  1  0
 11 14  1  0
 14 15  1  0
 15 16  2  0
 16 17  1  0
 17 18  1  0
 18 19  1  0
 19 20  1  0
 19 21  1  0
 19 22  1  0
 22 23  1  0
 22 24  1  0
 22 25  1  0
 25 26  1  0
 25 27  1  0
 25 28  1  0
 28 29  1  0
 28 30  1  0
 28 31  1  0
 31 32  1  0
 31 33  1  0
 17 34  2  0
 34 35  1  0
 34 36  1  0
 36 37  2  0
 37 38  1  0
 38 39  1  0
 38 40  1  0
 38 41  1  0
 41 42  1  0
 41 43  1  0
 41 44  1  0
 44 45  1  0
 44 46  1  0
 46 47  1  0
 46 48  1  0
 46 49  1  0
 49 50  1  0
 49 51  1  0
 49 52  1  0
 52 53  1  0
 53 54  1  0
 53 55  1  0
 53 56  1  0
 56 57  1  0
 56 58  1  0
 36 59  1  0
 59 60  1  0
 14 61  1  0
 61 62  1  0
 61 63  1  0
 61 64  1  0
 64 65  1  0
 64 66  1  0
  9  2  1  0
 59 15  1  0
 64  7  1  0
 31 18  1  0
 56 44  1  0
M  CHG  2  25   1  44   1
M  END
>  <UniqueID>  (79) 
487

>  <SMILES>  (79) 
c1ccc2c(c1)CCN(c1nc(N3CC[NH2+]CC3)c/c(=N\CC[NH+]3CCOCC3)[nH]1)C2

>  <Energy>  (79) 
89.6390617243663

>  <Genealogy>  (79) 
c1ccc2c(c1)CCN(c1nc(NCC[NH+]3CCOCC3)cc(N3CC[NH2+]CC3)n1)C2 (protonated)
c1ccc2c(c1)CCN(c1nc(N3CC[NH2+]CC3)cc(=NCC[NH+]3CCOCC3)[nH]1)C2 (tautomer)
c1ccc2c(c1)CCN(c1nc(N3CC[NH2+]CC3)c/c(=N\CC[NH+]3CCOCC3)[nH]1)C2 (cis-trans isomerization)
c1ccc2c(c1)CCN(c1nc(N3CC[NH2+]CC3)c/c(=N\CC[NH+]3CCOCC3)[nH]1)C2 (3D coordinates assigned)
c1ccc2c(c1)CCN(c1nc(N3CC[NH2+]CC3)c/c(=N\CC[NH+]3CCOCC3)[nH]1)C2 (nonaromatic ring conformer: 89.6390617243663 kcal/mol)

>  <smiles>  (79) 
c1ccc2c(c1)CCN(c1nc(NCCN3CCOCC3)cc(N3CCNCC3)n1)C2

>  <score_type>  (79) 
oracle

>  <origin>  (79) 
autodockgpu

>  <m_score__min__energy>  (79) 
-9.1799999999999997

>  <m_primary>  (79) 
energy

>  <meeko>  (79) 
{"free_energy": -8.81, "intermolecular_energy": -10.6, "internal_energy": -1.46, "cluster_size": 20, "cluster_id": 1, "rank_in_cluster": 5}

>  <energy>  (79) 
-8.28

>  <cluster_rmsd>  (79) 
0.7

>  <rmsd>  (79) 
271.66

>  <cluster>  (79) 
1

$$$$
DRRGDEWGQQLPRW-CXKBQSNCNA-P
     RDKit          3D

 66 70  0  0  0  0  0  0  0  0999 V2000
  141.2110   71.0196  229.2534 H   0  0  0  0  0  0  0  0  0  0  0  0
  140.7370   70.6790  228.3210 C   0  0  0  0  0  0  0  0  0  0  0  0
  139.8140   69.6320  228.3510 C   0  0  0  0  0  0  0  0  0  0  0  0
  139.5656   69.1455  229.3058 H   0  0  0  0  0  0  0  0  0  0  0  0
  139.2060   69.2020  227.1700 C   0  0  0  0  0  0  0  0  0  0  0  0
  138.4769   68.3789  227.2005 H   0  0  0  0  0  0  0  0  0  0  0  0
  139.5170   69.8110  225.9440 C   0  0  0  0  0  0  0  0  0  0  0  0
  140.4480   70.8800  225.9160 C   0  0  0  0  0  0  0  0  0  0  0  0
  141.0600   71.2950  227.1100 C   0  0  0  0  0  0  0  0  0  0  0  0
  141.7983   72.1102  227.0912 H   0  0  0  0  0  0  0  0  0  0  0  0
  140.8450   71.5410  224.6180 C   0  0  0  0  0  0  0  0  0  0  0  0
  141.8406   71.1811  224.3193 H   0  0  0  0  0  0  0  0  0  0  0  0
  140.8618   72.6308  224.7668 H   0  0  0  0  0  0  0  0  0  0  0  0
  139.8820   71.2250  223.5600 N   0  0  0  0  0  0  0  0  0  0  0  0
  139.3640   72.2660  222.7130 C   0  0  0  0  0  0  0  0  0  0  0  0
  140.1720   73.2970  222.3570 N   0  0  0  0  0  0  0  0  0  0  0  0
  139.7260   74.3400  221.6070 C   0  0  0  0  0  0  0  0  0  0  0  0
  140.6370   75.4140  221.2660 N   0  0  0  0  0  0  0  0  0  0  0  0
  140.5820   76.7110  221.9660 C   0  0  0  0  0  0  0  0  0  0  0  0
  139.5382   76.9272  222.2374 H   0  0  0  0  0  0  0  0  0  0  0  0
  141.2137   76.6465  222.8643 H   0  0  0  0  0  0  0  0  0  0  0  0
  141.1140   77.8480  221.0820 C   0  0  0  0  0  0  0  0  0  0  0  0
  140.3860   78.0496  220.2824 H   0  0  0  0  0  0  0  0  0  0  0  0
  141.2586   78.7371  221.7133 H   0  0  0  0  0  0  0  0  0  0  0  0
  142.4050   77.4990  220.4750 N   0  0  0  0  0  0  0  0  0  0  0  0
  143.1270   77.3450  221.2170 H   0  0  0  0  0  0  0  0  0  0  0  0
  142.7160   78.2940  219.8680 H   0  0  0  0  0  0  0  0  0  0  0  0
  142.2770   76.2990  219.6410 C   0  0  0  0  0  0  0  0  0  0  0  0
  141.5244   76.4808  218.8596 H   0  0  0  0  0  0  0  0  0  0  0  0
  143.2538   76.0786  219.1858 H   0  0  0  0  0  0  0  0  0  0  0  0
  141.8450   75.0980  220.4850 C   0  0  0  0  0  0  0  0  0  0  0  0
  141.6322   74.2480  219.8200 H   0  0  0  0  0  0  0  0  0  0  0  0
  142.6585   74.8458  221.1811 H   0  0  0  0  0  0  0  0  0  0  0  0
  138.3790   74.3580  221.2140 C   0  0  0  0  0  0  0  0  0  0  0  0
  137.9814   75.1991  220.6271 H   0  0  0  0  0  0  0  0  0  0  0  0
  137.5410   73.2840  221.5810 C   0  0  0  0  0  0  0  0  0  0  0  0
  136.2760   73.2430  221.2530 N   0  0  0  0  0  0  0  0  0  0  0  0
  135.1200   73.3430  222.1460 C   0  0  0  0  0  0  0  0  0  0  0  0
  134.2102   73.4917  221.5459 H   0  0  0  0  0  0  0  0  0  0  0  0
  135.0393   72.4148  222.7308 H   0  0  0  0  0  0  0  0  0  0  0  0
  135.2900   74.5300  223.1130 C   0  0  0  0  0  0  0  0  0  0  0  0
  136.1715   75.1054  222.7939 H   0  0  0  0  0  0  0  0  0  0  0  0
  134.3511   75.1010  223.0635 H   0  0  0  0  0  0  0  0  0  0  0  0
  135.4740   74.1610  224.5430 N   0  0  0  0  0  0  0  0  0  0  0  0
  136.4980   73.9380  224.6000 H   0  0  0  0  0  0  0  0  0  0  0  0
  135.2830   75.2870  225.4940 C   0  0  0  0  0  0  0  0  0  0  0  0
  136.0203   75.1900  226.3046 H   0  0  0  0  0  0  0  0  0  0  0  0
  135.4148   76.2212  224.9283 H   0  0  0  0  0  0  0  0  0  0  0  0
  133.8780   75.3190  226.1120 C   0  0  0  0  0  0  0  0  0  0  0  0
  133.8412   76.0969  226.8889 H   0  0  0  0  0  0  0  0  0  0  0  0
  133.1451   75.5396  225.3219 H   0  0  0  0  0  0  0  0  0  0  0  0
  133.5680   74.0730  226.6880 O   0  0  0  0  0  0  0  0  0  0  0  0
  133.4480   73.1150  225.6590 C   0  0  0  0  0  0  0  0  0  0  0  0
  133.1169   72.1606  226.0944 H   0  0  0  0  0  0  0  0  0  0  0  0
  132.7151   73.4822  224.9255 H   0  0  0  0  0  0  0  0  0  0  0  0
  134.7910   72.8990  224.9390 C   0  0  0  0  0  0  0  0  0  0  0  0
  135.4585   72.3405  225.6117 H   0  0  0  0  0  0  0  0  0  0  0  0
  134.5708   72.3509  224.0110 H   0  0  0  0  0  0  0  0  0  0  0  0
  138.0600   72.2630  222.3180 N   0  0  0  0  0  0  0  0  0  0  0  0
  137.4290   71.4840  222.6200 H   0  0  0  0  0  0  0  0  0  0  0  0
  139.4600   69.8310  223.4210 C   0  0  0  0  0  0  0  0  0  0  0  0
  140.3407   69.1965  223.2427 H   0  0  0  0  0  0  0  0  0  0  0  0
  138.7664   69.7388  222.5722 H   0  0  0  0  0  0  0  0  0  0  0  0
  138.7610   69.3850  224.7040 C   0  0  0  0  0  0  0  0  0  0  0  0
  138.6776   68.2882  224.6992 H   0  0  0  0  0  0  0  0  0  0  0  0
  137.7700   69.8615  224.7321 H   0  0  0  0  0  0  0  0  0  0  0  0
  1  2  1  0
  2  3  2  0
  3  4  1  0
  3  5  1  0
  5  6  1  0
  5  7  2  0
  7  8  1  0
  8  9  2  0
  9 10  1  0
  8 11  1  0
 11 12  1  0
 11 13  1  0
 11 14  1  0
 14 15  1  0
 15 16  2  0
 16 17  1  0
 17 18  1  0
 18 19  1  0
 19 20  1  0
 19 21  1  0
 19 22  1  0
 22 23  1  0
 22 24  1  0
 22 25  1  0
 25 26  1  0
 25 27  1  0
 25 28  1  0
 28 29  1  0
 28 30  1  0
 28 31  1  0
 31 32  1  0
 31 33  1  0
 17 34  2  0
 34 35  1  0
 34 36  1  0
 36 37  2  0
 37 38  1  0
 38 39  1  0
 38 40  1  0
 38 41  1  0
 41 42  1  0
 41 43  1  0
 41 44  1  0
 44 45  1  0
 44 46  1  0
 46 47  1  0
 46 48  1  0
 46 49  1  0
 49 50  1  0
 49 51  1  0
 49 52  1  0
 52 53  1  0
 53 54  1  0
 53 55  1  0
 53 56  1  0
 56 57  1  0
 56 58  1  0
 36 59  1  0
 59 60  1  0
 14 61  1  0
 61 62  1  0
 61 63  1  0
 61 64  1  0
 64 65  1  0
 64 66  1  0
  9  2  1  0
 59 15  1  0
 64  7  1  0
 31 18  1  0
 56 44  1  0
M  CHG  2  25   1  44   1
M  END
>  <UniqueID>  (80) 
487

>  <SMILES>  (80) 
c1ccc2c(c1)CCN(c1nc(N3CC[NH2+]CC3)c/c(=N\CC[NH+]3CCOCC3)[nH]1)C2

>  <Energy>  (80) 
89.6390617243663

>  <Genealogy>  (80) 
c1ccc2c(c1)CCN(c1nc(NCC[NH+]3CCOCC3)cc(N3CC[NH2+]CC3)n1)C2 (protonated)
c1ccc2c(c1)CCN(c1nc(N3CC[NH2+]CC3)cc(=NCC[NH+]3CCOCC3)[nH]1)C2 (tautomer)
c1ccc2c(c1)CCN(c1nc(N3CC[NH2+]CC3)c/c(=N\CC[NH+]3CCOCC3)[nH]1)C2 (cis-trans isomerization)
c1ccc2c(c1)CCN(c1nc(N3CC[NH2+]CC3)c/c(=N\CC[NH+]3CCOCC3)[nH]1)C2 (3D coordinates assigned)
c1ccc2c(c1)CCN(c1nc(N3CC[NH2+]CC3)c/c(=N\CC[NH+]3CCOCC3)[nH]1)C2 (nonaromatic ring conformer: 89.6390617243663 kcal/mol)

>  <smiles>  (80) 
c1ccc2c(c1)CCN(c1nc(NCCN3CCOCC3)cc(N3CCNCC3)n1)C2

>  <score_type>  (80) 
oracle

>  <origin>  (80) 
autodockgpu

>  <m_score__min__energy>  (80) 
-9.1799999999999997

>  <m_primary>  (80) 
energy

>  <meeko>  (80) 
{"free_energy": -9.1, "intermolecular_energy": -10.89, "internal_energy": -0.74, "cluster_size": 20, "cluster_id": 1, "rank_in_cluster": 3}

>  <energy>  (80) 
-8.27

>  <cluster_rmsd>  (80) 
0.72

>  <rmsd>  (80) 
271.63

>  <cluster>  (80) 
1

$$$$
