ISFQUULIKQOBJE-JMMJYVQQNA-N
     RDKit          3D

 35 37  0  0  0  0  0  0  0  0999 V2000
  137.1430   68.4910  224.6430 H   0  0  0  0  0  0  0  0  0  0  0  0
  136.4550   68.8910  224.0510 O   0  0  0  0  0  0  0  0  0  0  0  0
  137.0090   68.9320  222.7640 C   0  0  0  0  0  0  0  0  0  0  0  0
  136.8767   69.9401  222.3442 H   0  0  0  0  0  0  0  0  0  0  0  0
  136.4993   68.1900  222.1319 H   0  0  0  0  0  0  0  0  0  0  0  0
  138.5020   68.5990  222.8160 C   0  0  0  0  0  0  0  0  0  0  0  0
  138.9491   68.7845  221.8282 H   0  0  0  0  0  0  0  0  0  0  0  0
  138.6218   67.5412  223.0931 H   0  0  0  0  0  0  0  0  0  0  0  0
  139.1840   69.4390  223.8250 N   0  0  0  0  0  0  0  0  0  0  0  0
  139.5250   70.7460  223.5450 C   0  0  0  0  0  0  0  0  0  0  0  0
  139.3050   71.3490  222.2100 C   0  0  0  0  0  0  0  0  0  0  0  0
  138.3575   71.1315  221.6952 H   0  0  0  0  0  0  0  0  0  0  0  0
  140.1890   72.1430  221.5910 C   0  0  0  0  0  0  0  0  0  0  0  0
  140.9060   71.6672  220.9058 H   0  0  0  0  0  0  0  0  0  0  0  0
  140.2750   73.6090  221.7580 C   0  0  0  0  0  0  0  0  0  0  0  0
  141.2660   74.4110  221.2420 C   0  0  0  0  0  0  0  0  0  0  0  0
  142.1490   74.0565  220.6901 H   0  0  0  0  0  0  0  0  0  0  0  0
  140.9850   75.6990  221.5190 N   0  0  0  0  0  0  0  0  0  0  0  0
  139.8130   75.6480  222.1880 C   0  0  0  0  0  0  0  0  0  0  0  0
  139.2913   76.5382  222.5692 H   0  0  0  0  0  0  0  0  0  0  0  0
  139.3510   74.3940  222.3390 N   0  0  0  0  0  0  0  0  0  0  0  0
  138.4430   74.1150  222.7740 H   0  0  0  0  0  0  0  0  0  0  0  0
  140.1010   71.5200  224.5020 N   0  0  0  0  0  0  0  0  0  0  0  0
  140.3370   71.0580  225.7510 C   0  0  0  0  0  0  0  0  0  0  0  0
  140.9240   71.8950  226.7070 C   0  0  0  0  0  0  0  0  0  0  0  0
  141.2002   72.9258  226.4403 H   0  0  0  0  0  0  0  0  0  0  0  0
  141.1590   71.4210  228.0000 C   0  0  0  0  0  0  0  0  0  0  0  0
  141.6212   72.0792  228.7504 H   0  0  0  0  0  0  0  0  0  0  0  0
  140.8080   70.1120  228.3420 C   0  0  0  0  0  0  0  0  0  0  0  0
  140.9942   69.7421  229.3611 H   0  0  0  0  0  0  0  0  0  0  0  0
  140.2200   69.2710  227.3900 C   0  0  0  0  0  0  0  0  0  0  0  0
  139.9442   68.2415  227.6623 H   0  0  0  0  0  0  0  0  0  0  0  0
  139.9810   69.7410  226.0840 C   0  0  0  0  0  0  0  0  0  0  0  0
  139.3890   68.9400  225.0920 C   0  0  0  0  0  0  0  0  0  0  0  0
  139.0390   67.7600  225.3760 O   0  0  0  0  0  0  0  0  0  0  0  0
  1  2  1  0
  2  3  1  0
  3  4  1  0
  3  5  1  0
  3  6  1  0
  6  7  1  0
  6  8  1  0
  6  9  1  0
  9 10  1  0
 10 11  1  0
 11 12  1  0
 11 13  2  0
 13 14  1  0
 13 15  1  0
 15 16  2  0
 16 17  1  0
 16 18  1  0
 18 19  2  0
 19 20  1  0
 19 21  1  0
 21 22  1  0
 10 23  2  0
 23 24  1  0
 24 25  2  0
 25 26  1  0
 25 27  1  0
 27 28  1  0
 27 29  2  0
 29 30  1  0
 29 31  1  0
 31 32  1  0
 31 33  2  0
 33 34  1  0
 34 35  2  0
 34  9  1  0
 21 15  1  0
 33 24  1  0
M  END
>  <UniqueID>  (1) 
400

>  <SMILES>  (1) 
O=c1c2ccccc2nc(/C=C\c2cnc[nH]2)n1CCO

>  <Energy>  (1) 
79.37269714745092

>  <Genealogy>  (1) 
O=c1c2ccccc2nc(C=Cc2cnc[nH]2)n1CCO (tautomer)
O=c1c2ccccc2nc(/C=C\c2cnc[nH]2)n1CCO (cis-trans isomerization)
O=c1c2ccccc2nc(/C=C\c2cnc[nH]2)n1CCO (3D coordinates assigned)
O=c1c2ccccc2nc(/C=C\c2cnc[nH]2)n1CCO (optimized conformer: 79.37269714745092 kcal/mol)

>  <smiles>  (1) 
O=c1c2ccccc2nc(/C=C/c2cnc[nH]2)n1CCO

>  <score_type>  (1) 
oracle

>  <origin>  (1) 
autodockgpu

>  <m_score__min__energy>  (1) 
-6.1799999999999997

>  <m_primary>  (1) 
energy

>  <meeko>  (1) 
{"free_energy": -6.18, "intermolecular_energy": -7.97, "internal_energy": -1.37, "cluster_size": 2, "cluster_id": 1, "rank_in_cluster": 1}

>  <energy>  (1) 
-6.18

>  <cluster_rmsd>  (1) 
0.0

>  <rmsd>  (1) 
272.72

>  <cluster>  (1) 
1

$$$$
ISFQUULIKQOBJE-JMMJYVQQNA-N
     RDKit          3D

 35 37  0  0  0  0  0  0  0  0999 V2000
  138.1380   74.2140  222.8240 H   0  0  0  0  0  0  0  0  0  0  0  0
  137.3700   74.4290  222.2340 O   0  0  0  0  0  0  0  0  0  0  0  0
  137.4330   75.8050  221.9770 C   0  0  0  0  0  0  0  0  0  0  0  0
  136.5099   76.2838  222.3358 H   0  0  0  0  0  0  0  0  0  0  0  0
  137.5425   75.9620  220.8938 H   0  0  0  0  0  0  0  0  0  0  0  0
  138.6350   76.4250  222.6940 C   0  0  0  0  0  0  0  0  0  0  0  0
  138.8081   75.8902  223.6395 H   0  0  0  0  0  0  0  0  0  0  0  0
  138.4231   77.4860  222.8924 H   0  0  0  0  0  0  0  0  0  0  0  0
  139.8460   76.3280  221.8510 N   0  0  0  0  0  0  0  0  0  0  0  0
  140.3840   77.4490  221.2520 C   0  0  0  0  0  0  0  0  0  0  0  0
  139.7410   78.7790  221.3490 C   0  0  0  0  0  0  0  0  0  0  0  0
  138.9953   79.0483  220.5865 H   0  0  0  0  0  0  0  0  0  0  0  0
  140.0110   79.6750  222.3080 C   0  0  0  0  0  0  0  0  0  0  0  0
  139.1577   80.1697  222.7950 H   0  0  0  0  0  0  0  0  0  0  0  0
  141.3660   80.0500  222.7620 C   0  0  0  0  0  0  0  0  0  0  0  0
  141.6490   80.8430  223.8500 C   0  0  0  0  0  0  0  0  0  0  0  0
  140.9031   81.3438  224.4846 H   0  0  0  0  0  0  0  0  0  0  0  0
  142.9840   80.9090  224.0150 N   0  0  0  0  0  0  0  0  0  0  0  0
  143.4820   80.1370  223.0260 C   0  0  0  0  0  0  0  0  0  0  0  0
  144.5577   79.9705  222.8675 H   0  0  0  0  0  0  0  0  0  0  0  0
  142.5240   79.5930  222.2550 N   0  0  0  0  0  0  0  0  0  0  0  0
  142.6680   78.9210  221.4680 H   0  0  0  0  0  0  0  0  0  0  0  0
  141.5290   77.3500  220.5260 N   0  0  0  0  0  0  0  0  0  0  0  0
  142.1880   76.1790  220.3840 C   0  0  0  0  0  0  0  0  0  0  0  0
  143.3700   76.1280  219.6340 C   0  0  0  0  0  0  0  0  0  0  0  0
  143.7570   77.0393  219.1546 H   0  0  0  0  0  0  0  0  0  0  0  0
  144.0570   74.9200  219.4950 C   0  0  0  0  0  0  0  0  0  0  0  0
  144.9847   74.8809  218.9052 H   0  0  0  0  0  0  0  0  0  0  0  0
  143.5680   73.7600  220.1040 C   0  0  0  0  0  0  0  0  0  0  0  0
  144.1112   72.8101  219.9920 H   0  0  0  0  0  0  0  0  0  0  0  0
  142.3880   73.8060  220.8560 C   0  0  0  0  0  0  0  0  0  0  0  0
  142.0063   72.8924  221.3352 H   0  0  0  0  0  0  0  0  0  0  0  0
  141.6890   75.0200  221.0000 C   0  0  0  0  0  0  0  0  0  0  0  0
  140.5020   75.1220  221.7460 C   0  0  0  0  0  0  0  0  0  0  0  0
  140.0480   74.0970  222.3290 O   0  0  0  0  0  0  0  0  0  0  0  0
  1  2  1  0
  2  3  1  0
  3  4  1  0
  3  5  1  0
  3  6  1  0
  6  7  1  0
  6  8  1  0
  6  9  1  0
  9 10  1  0
 10 11  1  0
 11 12  1  0
 11 13  2  0
 13 14  1  0
 13 15  1  0
 15 16  2  0
 16 17  1  0
 16 18  1  0
 18 19  2  0
 19 20  1  0
 19 21  1  0
 21 22  1  0
 10 23  2  0
 23 24  1  0
 24 25  2  0
 25 26  1  0
 25 27  1  0
 27 28  1  0
 27 29  2  0
 29 30  1  0
 29 31  1  0
 31 32  1  0
 31 33  2  0
 33 34  1  0
 34 35  2  0
 34  9  1  0
 21 15  1  0
 33 24  1  0
M  END
>  <UniqueID>  (2) 
400

>  <SMILES>  (2) 
O=c1c2ccccc2nc(/C=C\c2cnc[nH]2)n1CCO

>  <Energy>  (2) 
79.37269714745092

>  <Genealogy>  (2) 
O=c1c2ccccc2nc(C=Cc2cnc[nH]2)n1CCO (tautomer)
O=c1c2ccccc2nc(/C=C\c2cnc[nH]2)n1CCO (cis-trans isomerization)
O=c1c2ccccc2nc(/C=C\c2cnc[nH]2)n1CCO (3D coordinates assigned)
O=c1c2ccccc2nc(/C=C\c2cnc[nH]2)n1CCO (optimized conformer: 79.37269714745092 kcal/mol)

>  <smiles>  (2) 
O=c1c2ccccc2nc(/C=C/c2cnc[nH]2)n1CCO

>  <score_type>  (2) 
oracle

>  <origin>  (2) 
autodockgpu

>  <m_score__min__energy>  (2) 
-6.1799999999999997

>  <m_primary>  (2) 
energy

>  <meeko>  (2) 
{"free_energy": -5.55, "intermolecular_energy": -7.34, "internal_energy": -2.06, "cluster_size": 17, "cluster_id": 3, "rank_in_cluster": 12}

>  <energy>  (2) 
-6.15

>  <cluster_rmsd>  (2) 
0.16

>  <rmsd>  (2) 
272.73

>  <cluster>  (2) 
1

$$$$
ISFQUULIKQOBJE-JMMJYVQQNA-N
     RDKit          3D

 35 37  0  0  0  0  0  0  0  0999 V2000
  138.2080   74.2200  222.7440 H   0  0  0  0  0  0  0  0  0  0  0  0
  137.3380   74.4520  222.3270 O   0  0  0  0  0  0  0  0  0  0  0  0
  137.4280   75.7930  221.9320 C   0  0  0  0  0  0  0  0  0  0  0  0
  136.4947   76.3120  222.1957 H   0  0  0  0  0  0  0  0  0  0  0  0
  137.5893   75.8349  220.8447 H   0  0  0  0  0  0  0  0  0  0  0  0
  138.6020   76.4780  222.6350 C   0  0  0  0  0  0  0  0  0  0  0  0
  138.7693   75.9985  223.6108 H   0  0  0  0  0  0  0  0  0  0  0  0
  138.3625   77.5428  222.7719 H   0  0  0  0  0  0  0  0  0  0  0  0
  139.8310   76.3650  221.8200 N   0  0  0  0  0  0  0  0  0  0  0  0
  140.4020   77.4810  221.2430 C   0  0  0  0  0  0  0  0  0  0  0  0
  139.7820   78.8220  221.3370 C   0  0  0  0  0  0  0  0  0  0  0  0
  139.0643   79.1146  220.5564 H   0  0  0  0  0  0  0  0  0  0  0  0
  140.0410   79.7010  222.3140 C   0  0  0  0  0  0  0  0  0  0  0  0
  139.1816   80.1754  222.8103 H   0  0  0  0  0  0  0  0  0  0  0  0
  141.3910   80.0830  222.7770 C   0  0  0  0  0  0  0  0  0  0  0  0
  141.6620   80.9090  223.8420 C   0  0  0  0  0  0  0  0  0  0  0  0
  140.9092   81.4355  224.4470 H   0  0  0  0  0  0  0  0  0  0  0  0
  142.9950   80.9720  224.0280 N   0  0  0  0  0  0  0  0  0  0  0  0
  143.5040   80.1650  223.0730 C   0  0  0  0  0  0  0  0  0  0  0  0
  144.5810   79.9866  222.9378 H   0  0  0  0  0  0  0  0  0  0  0  0
  142.5540   79.6020  222.3040 N   0  0  0  0  0  0  0  0  0  0  0  0
  142.7060   78.9040  221.5420 H   0  0  0  0  0  0  0  0  0  0  0  0
  141.5620   77.3670  220.5430 N   0  0  0  0  0  0  0  0  0  0  0  0
  142.2030   76.1850  220.4060 C   0  0  0  0  0  0  0  0  0  0  0  0
  143.4000   76.1180  219.6830 C   0  0  0  0  0  0  0  0  0  0  0  0
  143.8146   77.0258  219.2204 H   0  0  0  0  0  0  0  0  0  0  0  0
  144.0680   74.8980  219.5490 C   0  0  0  0  0  0  0  0  0  0  0  0
  145.0081   74.8461  218.9802 H   0  0  0  0  0  0  0  0  0  0  0  0
  143.5430   73.7430  220.1370 C   0  0  0  0  0  0  0  0  0  0  0  0
  144.0709   72.7839  220.0299 H   0  0  0  0  0  0  0  0  0  0  0  0
  142.3480   73.8050  220.8610 C   0  0  0  0  0  0  0  0  0  0  0  0
  141.9389   72.8945  221.3231 H   0  0  0  0  0  0  0  0  0  0  0  0
  141.6670   75.0300  221.0000 C   0  0  0  0  0  0  0  0  0  0  0  0
  140.4660   75.1480  221.7200 C   0  0  0  0  0  0  0  0  0  0  0  0
  139.9790   74.1270  222.2820 O   0  0  0  0  0  0  0  0  0  0  0  0
  1  2  1  0
  2  3  1  0
  3  4  1  0
  3  5  1  0
  3  6  1  0
  6  7  1  0
  6  8  1  0
  6  9  1  0
  9 10  1  0
 10 11  1  0
 11 12  1  0
 11 13  2  0
 13 14  1  0
 13 15  1  0
 15 16  2  0
 16 17  1  0
 16 18  1  0
 18 19  2  0
 19 20  1  0
 19 21  1  0
 21 22  1  0
 10 23  2  0
 23 24  1  0
 24 25  2  0
 25 26  1  0
 25 27  1  0
 27 28  1  0
 27 29  2  0
 29 30  1  0
 29 31  1  0
 31 32  1  0
 31 33  2  0
 33 34  1  0
 34 35  2  0
 34  9  1  0
 21 15  1  0
 33 24  1  0
M  END
>  <UniqueID>  (3) 
400

>  <SMILES>  (3) 
O=c1c2ccccc2nc(/C=C\c2cnc[nH]2)n1CCO

>  <Energy>  (3) 
79.37269714745092

>  <Genealogy>  (3) 
O=c1c2ccccc2nc(C=Cc2cnc[nH]2)n1CCO (tautomer)
O=c1c2ccccc2nc(/C=C\c2cnc[nH]2)n1CCO (cis-trans isomerization)
O=c1c2ccccc2nc(/C=C\c2cnc[nH]2)n1CCO (3D coordinates assigned)
O=c1c2ccccc2nc(/C=C\c2cnc[nH]2)n1CCO (optimized conformer: 79.37269714745092 kcal/mol)

>  <smiles>  (3) 
O=c1c2ccccc2nc(/C=C/c2cnc[nH]2)n1CCO

>  <score_type>  (3) 
oracle

>  <origin>  (3) 
autodockgpu

>  <m_score__min__energy>  (3) 
-6.1799999999999997

>  <m_primary>  (3) 
energy

>  <meeko>  (3) 
{"free_energy": -5.57, "intermolecular_energy": -7.36, "internal_energy": -2.06, "cluster_size": 17, "cluster_id": 3, "rank_in_cluster": 6}

>  <energy>  (3) 
-6.14

>  <cluster_rmsd>  (3) 
0.0

>  <rmsd>  (3) 
272.56

>  <cluster>  (3) 
2

$$$$
ISFQUULIKQOBJE-JMMJYVQQNA-N
     RDKit          3D

 35 37  0  0  0  0  0  0  0  0999 V2000
  138.0770   74.1660  222.8160 H   0  0  0  0  0  0  0  0  0  0  0  0
  137.2520   74.3690  222.3050 O   0  0  0  0  0  0  0  0  0  0  0  0
  137.3010   75.7340  221.9910 C   0  0  0  0  0  0  0  0  0  0  0  0
  136.3542   76.2087  222.2881 H   0  0  0  0  0  0  0  0  0  0  0  0
  137.4556   75.8462  220.9077 H   0  0  0  0  0  0  0  0  0  0  0  0
  138.4580   76.4090  222.7310 C   0  0  0  0  0  0  0  0  0  0  0  0
  138.6492   75.8713  223.6714 H   0  0  0  0  0  0  0  0  0  0  0  0
  138.1853   77.4538  222.9407 H   0  0  0  0  0  0  0  0  0  0  0  0
  139.6830   76.3910  221.9020 N   0  0  0  0  0  0  0  0  0  0  0  0
  140.1850   77.5540  221.3560 C   0  0  0  0  0  0  0  0  0  0  0  0
  139.4920   78.8550  221.4970 C   0  0  0  0  0  0  0  0  0  0  0  0
  138.3923   78.8535  221.5211 H   0  0  0  0  0  0  0  0  0  0  0  0
  140.1210   80.0340  221.5970 C   0  0  0  0  0  0  0  0  0  0  0  0
  139.6810   80.8907  221.0656 H   0  0  0  0  0  0  0  0  0  0  0  0
  141.3600   80.2720  222.3660 C   0  0  0  0  0  0  0  0  0  0  0  0
  141.4630   81.0750  223.4780 C   0  0  0  0  0  0  0  0  0  0  0  0
  140.6511   81.6851  223.9005 H   0  0  0  0  0  0  0  0  0  0  0  0
  142.7160   80.9960  223.9680 N   0  0  0  0  0  0  0  0  0  0  0  0
  143.3420   80.1290  223.1450 C   0  0  0  0  0  0  0  0  0  0  0  0
  144.3955   79.8343  223.2601 H   0  0  0  0  0  0  0  0  0  0  0  0
  142.5420   79.6630  222.1690 N   0  0  0  0  0  0  0  0  0  0  0  0
  142.7910   78.9450  221.4530 H   0  0  0  0  0  0  0  0  0  0  0  0
  141.3420   77.5280  220.6440 N   0  0  0  0  0  0  0  0  0  0  0  0
  142.0480   76.3890  220.4640 C   0  0  0  0  0  0  0  0  0  0  0  0
  143.2390   76.4110  219.7300 C   0  0  0  0  0  0  0  0  0  0  0  0
  143.5977   77.3542  219.2921 H   0  0  0  0  0  0  0  0  0  0  0  0
  143.9730   75.2350  219.5530 C   0  0  0  0  0  0  0  0  0  0  0  0
  144.9092   75.2539  218.9757 H   0  0  0  0  0  0  0  0  0  0  0  0
  143.5200   74.0350  220.1080 C   0  0  0  0  0  0  0  0  0  0  0  0
  144.0998   73.1110  219.9661 H   0  0  0  0  0  0  0  0  0  0  0  0
  142.3300   74.0070  220.8440 C   0  0  0  0  0  0  0  0  0  0  0  0
  141.9771   73.0613  221.2812 H   0  0  0  0  0  0  0  0  0  0  0  0
  141.5830   75.1880  221.0260 C   0  0  0  0  0  0  0  0  0  0  0  0
  140.3850   75.2150  221.7590 C   0  0  0  0  0  0  0  0  0  0  0  0
  139.9610   74.1520  222.2940 O   0  0  0  0  0  0  0  0  0  0  0  0
  1  2  1  0
  2  3  1  0
  3  4  1  0
  3  5  1  0
  3  6  1  0
  6  7  1  0
  6  8  1  0
  6  9  1  0
  9 10  1  0
 10 11  1  0
 11 12  1  0
 11 13  2  0
 13 14  1  0
 13 15  1  0
 15 16  2  0
 16 17  1  0
 16 18  1  0
 18 19  2  0
 19 20  1  0
 19 21  1  0
 21 22  1  0
 10 23  2  0
 23 24  1  0
 24 25  2  0
 25 26  1  0
 25 27  1  0
 27 28  1  0
 27 29  2  0
 29 30  1  0
 29 31  1  0
 31 32  1  0
 31 33  2  0
 33 34  1  0
 34 35  2  0
 34  9  1  0
 21 15  1  0
 33 24  1  0
M  END
>  <UniqueID>  (4) 
400

>  <SMILES>  (4) 
O=c1c2ccccc2nc(/C=C\c2cnc[nH]2)n1CCO

>  <Energy>  (4) 
79.37269714745092

>  <Genealogy>  (4) 
O=c1c2ccccc2nc(C=Cc2cnc[nH]2)n1CCO (tautomer)
O=c1c2ccccc2nc(/C=C\c2cnc[nH]2)n1CCO (cis-trans isomerization)
O=c1c2ccccc2nc(/C=C\c2cnc[nH]2)n1CCO (3D coordinates assigned)
O=c1c2ccccc2nc(/C=C\c2cnc[nH]2)n1CCO (optimized conformer: 79.37269714745092 kcal/mol)

>  <smiles>  (4) 
O=c1c2ccccc2nc(/C=C/c2cnc[nH]2)n1CCO

>  <score_type>  (4) 
oracle

>  <origin>  (4) 
autodockgpu

>  <m_score__min__energy>  (4) 
-6.1799999999999997

>  <m_primary>  (4) 
energy

>  <meeko>  (4) 
{"free_energy": -5.52, "intermolecular_energy": -7.31, "internal_energy": -2.07, "cluster_size": 17, "cluster_id": 3, "rank_in_cluster": 15}

>  <energy>  (4) 
-5.59

>  <cluster_rmsd>  (4) 
0.0

>  <rmsd>  (4) 
273.16

>  <cluster>  (4) 
3

$$$$
ISFQUULIKQOBJE-JMMJYVQQNA-N
     RDKit          3D

 35 37  0  0  0  0  0  0  0  0999 V2000
  138.0750   74.2070  222.7470 H   0  0  0  0  0  0  0  0  0  0  0  0
  137.2270   74.4960  222.3220 O   0  0  0  0  0  0  0  0  0  0  0  0
  137.4140   75.8250  221.9190 C   0  0  0  0  0  0  0  0  0  0  0  0
  136.5081   76.4048  222.1496 H   0  0  0  0  0  0  0  0  0  0  0  0
  137.6102   75.8460  220.8369 H   0  0  0  0  0  0  0  0  0  0  0  0
  138.6080   76.4410  222.6530 C   0  0  0  0  0  0  0  0  0  0  0  0
  138.7612   75.9105  223.6044 H   0  0  0  0  0  0  0  0  0  0  0  0
  138.4000   77.5046  222.8416 H   0  0  0  0  0  0  0  0  0  0  0  0
  139.8320   76.3310  221.8320 N   0  0  0  0  0  0  0  0  0  0  0  0
  140.4040   77.4480  221.2600 C   0  0  0  0  0  0  0  0  0  0  0  0
  139.7870   78.7910  221.3640 C   0  0  0  0  0  0  0  0  0  0  0  0
  139.0700   79.0915  220.5858 H   0  0  0  0  0  0  0  0  0  0  0  0
  140.0490   79.6620  222.3480 C   0  0  0  0  0  0  0  0  0  0  0  0
  139.1910   80.1224  222.8598 H   0  0  0  0  0  0  0  0  0  0  0  0
  141.4010   80.0520  222.7990 C   0  0  0  0  0  0  0  0  0  0  0  0
  141.6760   80.8940  223.8510 C   0  0  0  0  0  0  0  0  0  0  0  0
  140.9256   81.4283  224.4521 H   0  0  0  0  0  0  0  0  0  0  0  0
  143.0100   80.9610  224.0290 N   0  0  0  0  0  0  0  0  0  0  0  0
  143.5150   80.1410  223.0830 C   0  0  0  0  0  0  0  0  0  0  0  0
  144.5915   79.9619  222.9448 H   0  0  0  0  0  0  0  0  0  0  0  0
  142.5620   79.5660  222.3270 N   0  0  0  0  0  0  0  0  0  0  0  0
  142.7110   78.8570  221.5750 H   0  0  0  0  0  0  0  0  0  0  0  0
  141.5600   77.3370  220.5540 N   0  0  0  0  0  0  0  0  0  0  0  0
  142.1990   76.1540  220.4070 C   0  0  0  0  0  0  0  0  0  0  0  0
  143.3930   76.0890  219.6790 C   0  0  0  0  0  0  0  0  0  0  0  0
  143.8080   76.9987  219.2205 H   0  0  0  0  0  0  0  0  0  0  0  0
  144.0570   74.8690  219.5350 C   0  0  0  0  0  0  0  0  0  0  0  0
  144.9948   74.8191  218.9622 H   0  0  0  0  0  0  0  0  0  0  0  0
  143.5330   73.7110  220.1170 C   0  0  0  0  0  0  0  0  0  0  0  0
  144.0586   72.7517  220.0012 H   0  0  0  0  0  0  0  0  0  0  0  0
  142.3400   73.7710  220.8470 C   0  0  0  0  0  0  0  0  0  0  0  0
  141.9305   72.8587  221.3052 H   0  0  0  0  0  0  0  0  0  0  0  0
  141.6630   74.9970  220.9960 C   0  0  0  0  0  0  0  0  0  0  0  0
  140.4650   75.1130  221.7220 C   0  0  0  0  0  0  0  0  0  0  0  0
  139.9780   74.0900  222.2800 O   0  0  0  0  0  0  0  0  0  0  0  0
  1  2  1  0
  2  3  1  0
  3  4  1  0
  3  5  1  0
  3  6  1  0
  6  7  1  0
  6  8  1  0
  6  9  1  0
  9 10  1  0
 10 11  1  0
 11 12  1  0
 11 13  2  0
 13 14  1  0
 13 15  1  0
 15 16  2  0
 16 17  1  0
 16 18  1  0
 18 19  2  0
 19 20  1  0
 19 21  1  0
 21 22  1  0
 10 23  2  0
 23 24  1  0
 24 25  2  0
 25 26  1  0
 25 27  1  0
 27 28  1  0
 27 29  2  0
 29 30  1  0
 29 31  1  0
 31 32  1  0
 31 33  2  0
 33 34  1  0
 34 35  2  0
 34  9  1  0
 21 15  1  0
 33 24  1  0
M  END
>  <UniqueID>  (5) 
400

>  <SMILES>  (5) 
O=c1c2ccccc2nc(/C=C\c2cnc[nH]2)n1CCO

>  <Energy>  (5) 
79.37269714745092

>  <Genealogy>  (5) 
O=c1c2ccccc2nc(C=Cc2cnc[nH]2)n1CCO (tautomer)
O=c1c2ccccc2nc(/C=C\c2cnc[nH]2)n1CCO (cis-trans isomerization)
O=c1c2ccccc2nc(/C=C\c2cnc[nH]2)n1CCO (3D coordinates assigned)
O=c1c2ccccc2nc(/C=C\c2cnc[nH]2)n1CCO (optimized conformer: 79.37269714745092 kcal/mol)

>  <smiles>  (5) 
O=c1c2ccccc2nc(/C=C/c2cnc[nH]2)n1CCO

>  <score_type>  (5) 
oracle

>  <origin>  (5) 
autodockgpu

>  <m_score__min__energy>  (5) 
-6.1799999999999997

>  <m_primary>  (5) 
energy

>  <meeko>  (5) 
{"free_energy": -5.58, "intermolecular_energy": -7.37, "internal_energy": -2.06, "cluster_size": 17, "cluster_id": 3, "rank_in_cluster": 3}

>  <energy>  (5) 
-5.58

>  <cluster_rmsd>  (5) 
0.04

>  <rmsd>  (5) 
273.15

>  <cluster>  (5) 
3

$$$$
ISFQUULIKQOBJE-JMMJYVQQNA-N
     RDKit          3D

 35 37  0  0  0  0  0  0  0  0999 V2000
  138.1270   74.2560  222.7800 H   0  0  0  0  0  0  0  0  0  0  0  0
  137.2760   74.5170  222.3420 O   0  0  0  0  0  0  0  0  0  0  0  0
  137.4220   75.8540  221.9480 C   0  0  0  0  0  0  0  0  0  0  0  0
  136.5070   76.4091  222.2023 H   0  0  0  0  0  0  0  0  0  0  0  0
  137.5954   75.8900  220.8624 H   0  0  0  0  0  0  0  0  0  0  0  0
  138.6150   76.4920  222.6640 C   0  0  0  0  0  0  0  0  0  0  0  0
  138.7758   75.9817  223.6251 H   0  0  0  0  0  0  0  0  0  0  0  0
  138.4011   77.5578  222.8323 H   0  0  0  0  0  0  0  0  0  0  0  0
  139.8370   76.3730  221.8390 N   0  0  0  0  0  0  0  0  0  0  0  0
  140.4030   77.4840  221.2490 C   0  0  0  0  0  0  0  0  0  0  0  0
  139.7830   78.8260  221.3370 C   0  0  0  0  0  0  0  0  0  0  0  0
  139.0610   79.1129  220.5583 H   0  0  0  0  0  0  0  0  0  0  0  0
  140.0470   79.7120  222.3060 C   0  0  0  0  0  0  0  0  0  0  0  0
  139.1906   80.2024  222.7920 H   0  0  0  0  0  0  0  0  0  0  0  0
  141.3990   80.0820  222.7730 C   0  0  0  0  0  0  0  0  0  0  0  0
  141.6740   80.9000  223.8440 C   0  0  0  0  0  0  0  0  0  0  0  0
  140.9240   81.4275  224.4517 H   0  0  0  0  0  0  0  0  0  0  0  0
  143.0070   80.9530  224.0310 N   0  0  0  0  0  0  0  0  0  0  0  0
  143.5110   80.1480  223.0730 C   0  0  0  0  0  0  0  0  0  0  0  0
  144.5870   79.9633  222.9381 H   0  0  0  0  0  0  0  0  0  0  0  0
  142.5590   79.5950  222.3000 N   0  0  0  0  0  0  0  0  0  0  0  0
  142.7070   78.9010  221.5340 H   0  0  0  0  0  0  0  0  0  0  0  0
  141.5570   77.3650  220.5410 N   0  0  0  0  0  0  0  0  0  0  0  0
  142.1980   76.1830  220.4080 C   0  0  0  0  0  0  0  0  0  0  0  0
  143.3890   76.1100  219.6760 C   0  0  0  0  0  0  0  0  0  0  0  0
  143.7998   77.0138  219.2024 H   0  0  0  0  0  0  0  0  0  0  0  0
  144.0560   74.8890  219.5470 C   0  0  0  0  0  0  0  0  0  0  0  0
  144.9916   74.8328  218.9712 H   0  0  0  0  0  0  0  0  0  0  0  0
  143.5370   73.7390  220.1480 C   0  0  0  0  0  0  0  0  0  0  0  0
  144.0646   72.7794  220.0440 H   0  0  0  0  0  0  0  0  0  0  0  0
  142.3470   73.8060  220.8820 C   0  0  0  0  0  0  0  0  0  0  0  0
  141.9419   72.8993  221.3551 H   0  0  0  0  0  0  0  0  0  0  0  0
  141.6670   75.0330  221.0160 C   0  0  0  0  0  0  0  0  0  0  0  0
  140.4720   75.1560  221.7440 C   0  0  0  0  0  0  0  0  0  0  0  0
  139.9900   74.1390  222.3190 O   0  0  0  0  0  0  0  0  0  0  0  0
  1  2  1  0
  2  3  1  0
  3  4  1  0
  3  5  1  0
  3  6  1  0
  6  7  1  0
  6  8  1  0
  6  9  1  0
  9 10  1  0
 10 11  1  0
 11 12  1  0
 11 13  2  0
 13 14  1  0
 13 15  1  0
 15 16  2  0
 16 17  1  0
 16 18  1  0
 18 19  2  0
 19 20  1  0
 19 21  1  0
 21 22  1  0
 10 23  2  0
 23 24  1  0
 24 25  2  0
 25 26  1  0
 25 27  1  0
 27 28  1  0
 27 29  2  0
 29 30  1  0
 29 31  1  0
 31 32  1  0
 31 33  2  0
 33 34  1  0
 34 35  2  0
 34  9  1  0
 21 15  1  0
 33 24  1  0
M  END
>  <UniqueID>  (6) 
400

>  <SMILES>  (6) 
O=c1c2ccccc2nc(/C=C\c2cnc[nH]2)n1CCO

>  <Energy>  (6) 
79.37269714745092

>  <Genealogy>  (6) 
O=c1c2ccccc2nc(C=Cc2cnc[nH]2)n1CCO (tautomer)
O=c1c2ccccc2nc(/C=C\c2cnc[nH]2)n1CCO (cis-trans isomerization)
O=c1c2ccccc2nc(/C=C\c2cnc[nH]2)n1CCO (3D coordinates assigned)
O=c1c2ccccc2nc(/C=C\c2cnc[nH]2)n1CCO (optimized conformer: 79.37269714745092 kcal/mol)

>  <smiles>  (6) 
O=c1c2ccccc2nc(/C=C/c2cnc[nH]2)n1CCO

>  <score_type>  (6) 
oracle

>  <origin>  (6) 
autodockgpu

>  <m_score__min__energy>  (6) 
-6.1799999999999997

>  <m_primary>  (6) 
energy

>  <meeko>  (6) 
{"free_energy": -5.56, "intermolecular_energy": -7.35, "internal_energy": -2.07, "cluster_size": 17, "cluster_id": 3, "rank_in_cluster": 9}

>  <energy>  (6) 
-5.58

>  <cluster_rmsd>  (6) 
0.09

>  <rmsd>  (6) 
273.14

>  <cluster>  (6) 
3

$$$$
ISFQUULIKQOBJE-JMMJYVQQNA-N
     RDKit          3D

 35 37  0  0  0  0  0  0  0  0999 V2000
  138.1800   74.2010  222.7760 H   0  0  0  0  0  0  0  0  0  0  0  0
  137.3370   74.4450  222.3140 O   0  0  0  0  0  0  0  0  0  0  0  0
  137.4500   75.7970  221.9620 C   0  0  0  0  0  0  0  0  0  0  0  0
  136.5300   76.3256  222.2522 H   0  0  0  0  0  0  0  0  0  0  0  0
  137.6010   75.8723  220.8750 H   0  0  0  0  0  0  0  0  0  0  0  0
  138.6450   76.4340  222.6760 C   0  0  0  0  0  0  0  0  0  0  0  0
  138.8150   75.9152  223.6310 H   0  0  0  0  0  0  0  0  0  0  0  0
  138.4271   77.4970  222.8563 H   0  0  0  0  0  0  0  0  0  0  0  0
  139.8620   76.3290  221.8410 N   0  0  0  0  0  0  0  0  0  0  0  0
  140.4180   77.4480  221.2560 C   0  0  0  0  0  0  0  0  0  0  0  0
  139.7910   78.7860  221.3600 C   0  0  0  0  0  0  0  0  0  0  0  0
  139.0668   79.0778  220.5852 H   0  0  0  0  0  0  0  0  0  0  0  0
  140.0510   79.6630  222.3390 C   0  0  0  0  0  0  0  0  0  0  0  0
  139.1920   80.1239  222.8487 H   0  0  0  0  0  0  0  0  0  0  0  0
  141.4020   80.0590  222.7870 C   0  0  0  0  0  0  0  0  0  0  0  0
  141.6750   80.9010  223.8390 C   0  0  0  0  0  0  0  0  0  0  0  0
  140.9234   81.4304  224.4430 H   0  0  0  0  0  0  0  0  0  0  0  0
  143.0090   80.9750  224.0130 N   0  0  0  0  0  0  0  0  0  0  0  0
  143.5160   80.1590  223.0650 C   0  0  0  0  0  0  0  0  0  0  0  0
  144.5931   79.9863  222.9236 H   0  0  0  0  0  0  0  0  0  0  0  0
  142.5640   79.5790  222.3110 N   0  0  0  0  0  0  0  0  0  0  0  0
  142.7150   78.8720  221.5580 H   0  0  0  0  0  0  0  0  0  0  0  0
  141.5670   77.3420  220.5390 N   0  0  0  0  0  0  0  0  0  0  0  0
  142.2130   76.1640  220.3910 C   0  0  0  0  0  0  0  0  0  0  0  0
  143.4000   76.1040  219.6510 C   0  0  0  0  0  0  0  0  0  0  0  0
  143.8028   77.0146  219.1835 H   0  0  0  0  0  0  0  0  0  0  0  0
  144.0730   74.8890  219.5060 C   0  0  0  0  0  0  0  0  0  0  0  0
  145.0046   74.8431  218.9230 H   0  0  0  0  0  0  0  0  0  0  0  0
  143.5640   73.7310  220.1010 C   0  0  0  0  0  0  0  0  0  0  0  0
  144.0961   72.7753  219.9846 H   0  0  0  0  0  0  0  0  0  0  0  0
  142.3800   73.7840  220.8440 C   0  0  0  0  0  0  0  0  0  0  0  0
  141.9840   72.8709  221.3125 H   0  0  0  0  0  0  0  0  0  0  0  0
  141.6940   75.0060  220.9930 C   0  0  0  0  0  0  0  0  0  0  0  0
  140.5030   75.1160  221.7310 C   0  0  0  0  0  0  0  0  0  0  0  0
  140.0310   74.0920  222.3010 O   0  0  0  0  0  0  0  0  0  0  0  0
  1  2  1  0
  2  3  1  0
  3  4  1  0
  3  5  1  0
  3  6  1  0
  6  7  1  0
  6  8  1  0
  6  9  1  0
  9 10  1  0
 10 11  1  0
 11 12  1  0
 11 13  2  0
 13 14  1  0
 13 15  1  0
 15 16  2  0
 16 17  1  0
 16 18  1  0
 18 19  2  0
 19 20  1  0
 19 21  1  0
 21 22  1  0
 10 23  2  0
 23 24  1  0
 24 25  2  0
 25 26  1  0
 25 27  1  0
 27 28  1  0
 27 29  2  0
 29 30  1  0
 29 31  1  0
 31 32  1  0
 31 33  2  0
 33 34  1  0
 34 35  2  0
 34  9  1  0
 21 15  1  0
 33 24  1  0
M  END
>  <UniqueID>  (7) 
400

>  <SMILES>  (7) 
O=c1c2ccccc2nc(/C=C\c2cnc[nH]2)n1CCO

>  <Energy>  (7) 
79.37269714745092

>  <Genealogy>  (7) 
O=c1c2ccccc2nc(C=Cc2cnc[nH]2)n1CCO (tautomer)
O=c1c2ccccc2nc(/C=C\c2cnc[nH]2)n1CCO (cis-trans isomerization)
O=c1c2ccccc2nc(/C=C\c2cnc[nH]2)n1CCO (3D coordinates assigned)
O=c1c2ccccc2nc(/C=C\c2cnc[nH]2)n1CCO (optimized conformer: 79.37269714745092 kcal/mol)

>  <smiles>  (7) 
O=c1c2ccccc2nc(/C=C/c2cnc[nH]2)n1CCO

>  <score_type>  (7) 
oracle

>  <origin>  (7) 
autodockgpu

>  <m_score__min__energy>  (7) 
-6.1799999999999997

>  <m_primary>  (7) 
energy

>  <meeko>  (7) 
{"free_energy": -5.57, "intermolecular_energy": -7.36, "internal_energy": -2.06, "cluster_size": 17, "cluster_id": 3, "rank_in_cluster": 5}

>  <energy>  (7) 
-5.58

>  <cluster_rmsd>  (7) 
0.07

>  <rmsd>  (7) 
273.14

>  <cluster>  (7) 
3

$$$$
ISFQUULIKQOBJE-JMMJYVQQNA-N
     RDKit          3D

 35 37  0  0  0  0  0  0  0  0999 V2000
  138.1800   74.2530  222.7890 H   0  0  0  0  0  0  0  0  0  0  0  0
  137.3480   74.4740  222.2950 O   0  0  0  0  0  0  0  0  0  0  0  0
  137.4260   75.8340  221.9670 C   0  0  0  0  0  0  0  0  0  0  0  0
  136.5008   76.3373  222.2843 H   0  0  0  0  0  0  0  0  0  0  0  0
  137.5549   75.9325  220.8790 H   0  0  0  0  0  0  0  0  0  0  0  0
  138.6200   76.4830  222.6700 C   0  0  0  0  0  0  0  0  0  0  0  0
  138.7942   75.9759  223.6305 H   0  0  0  0  0  0  0  0  0  0  0  0
  138.3987   77.5473  222.8381 H   0  0  0  0  0  0  0  0  0  0  0  0
  139.8350   76.3730  221.8340 N   0  0  0  0  0  0  0  0  0  0  0  0
  140.3890   77.4880  221.2400 C   0  0  0  0  0  0  0  0  0  0  0  0
  139.7630   78.8270  221.3370 C   0  0  0  0  0  0  0  0  0  0  0  0
  139.0330   79.1119  220.5650 H   0  0  0  0  0  0  0  0  0  0  0  0
  140.0300   79.7130  222.3060 C   0  0  0  0  0  0  0  0  0  0  0  0
  139.1756   80.2067  222.7920 H   0  0  0  0  0  0  0  0  0  0  0  0
  141.3840   80.0780  222.7720 C   0  0  0  0  0  0  0  0  0  0  0  0
  141.6630   80.8770  223.8550 C   0  0  0  0  0  0  0  0  0  0  0  0
  140.9149   81.3914  224.4762 H   0  0  0  0  0  0  0  0  0  0  0  0
  142.9970   80.9310  224.0360 N   0  0  0  0  0  0  0  0  0  0  0  0
  143.4980   80.1440  223.0600 C   0  0  0  0  0  0  0  0  0  0  0  0
  144.5736   79.9641  222.9161 H   0  0  0  0  0  0  0  0  0  0  0  0
  142.5430   79.6030  222.2820 N   0  0  0  0  0  0  0  0  0  0  0  0
  142.6880   78.9230  221.5030 H   0  0  0  0  0  0  0  0  0  0  0  0
  141.5370   77.3780  220.5210 N   0  0  0  0  0  0  0  0  0  0  0  0
  142.1830   76.1990  220.3800 C   0  0  0  0  0  0  0  0  0  0  0  0
  143.3680   76.1340  219.6370 C   0  0  0  0  0  0  0  0  0  0  0  0
  143.7692   77.0413  219.1616 H   0  0  0  0  0  0  0  0  0  0  0  0
  144.0410   74.9180  219.4990 C   0  0  0  0  0  0  0  0  0  0  0  0
  144.9713   74.8684  218.9142 H   0  0  0  0  0  0  0  0  0  0  0  0
  143.5340   73.7640  220.1030 C   0  0  0  0  0  0  0  0  0  0  0  0
  144.0663   72.8078  219.9924 H   0  0  0  0  0  0  0  0  0  0  0  0
  142.3510   73.8220  220.8480 C   0  0  0  0  0  0  0  0  0  0  0  0
  141.9554   72.9119  221.3225 H   0  0  0  0  0  0  0  0  0  0  0  0
  141.6660   75.0450  220.9910 C   0  0  0  0  0  0  0  0  0  0  0  0
  140.4770   75.1600  221.7310 C   0  0  0  0  0  0  0  0  0  0  0  0
  140.0060   74.1390  222.3080 O   0  0  0  0  0  0  0  0  0  0  0  0
  1  2  1  0
  2  3  1  0
  3  4  1  0
  3  5  1  0
  3  6  1  0
  6  7  1  0
  6  8  1  0
  6  9  1  0
  9 10  1  0
 10 11  1  0
 11 12  1  0
 11 13  2  0
 13 14  1  0
 13 15  1  0
 15 16  2  0
 16 17  1  0
 16 18  1  0
 18 19  2  0
 19 20  1  0
 19 21  1  0
 21 22  1  0
 10 23  2  0
 23 24  1  0
 24 25  2  0
 25 26  1  0
 25 27  1  0
 27 28  1  0
 27 29  2  0
 29 30  1  0
 29 31  1  0
 31 32  1  0
 31 33  2  0
 33 34  1  0
 34 35  2  0
 34  9  1  0
 21 15  1  0
 33 24  1  0
M  END
>  <UniqueID>  (8) 
400

>  <SMILES>  (8) 
O=c1c2ccccc2nc(/C=C\c2cnc[nH]2)n1CCO

>  <Energy>  (8) 
79.37269714745092

>  <Genealogy>  (8) 
O=c1c2ccccc2nc(C=Cc2cnc[nH]2)n1CCO (tautomer)
O=c1c2ccccc2nc(/C=C\c2cnc[nH]2)n1CCO (cis-trans isomerization)
O=c1c2ccccc2nc(/C=C\c2cnc[nH]2)n1CCO (3D coordinates assigned)
O=c1c2ccccc2nc(/C=C\c2cnc[nH]2)n1CCO (optimized conformer: 79.37269714745092 kcal/mol)

>  <smiles>  (8) 
O=c1c2ccccc2nc(/C=C/c2cnc[nH]2)n1CCO

>  <score_type>  (8) 
oracle

>  <origin>  (8) 
autodockgpu

>  <m_score__min__energy>  (8) 
-6.1799999999999997

>  <m_primary>  (8) 
energy

>  <meeko>  (8) 
{"free_energy": -5.56, "intermolecular_energy": -7.35, "internal_energy": -2.06, "cluster_size": 17, "cluster_id": 3, "rank_in_cluster": 10}

>  <energy>  (8) 
-5.57

>  <cluster_rmsd>  (8) 
0.1

>  <rmsd>  (8) 
273.15

>  <cluster>  (8) 
3

$$$$
ISFQUULIKQOBJE-JMMJYVQQNA-N
     RDKit          3D

 35 37  0  0  0  0  0  0  0  0999 V2000
  138.0660   74.1320  222.7850 H   0  0  0  0  0  0  0  0  0  0  0  0
  137.5090   74.3780  222.0020 O   0  0  0  0  0  0  0  0  0  0  0  0
  137.4390   75.7780  221.9840 C   0  0  0  0  0  0  0  0  0  0  0  0
  136.5171   76.1015  222.4894 H   0  0  0  0  0  0  0  0  0  0  0  0
  137.4376   76.1221  220.9392 H   0  0  0  0  0  0  0  0  0  0  0  0
  138.6470   76.3810  222.7040 C   0  0  0  0  0  0  0  0  0  0  0  0
  138.8294   75.8236  223.6346 H   0  0  0  0  0  0  0  0  0  0  0  0
  138.4366   77.4367  222.9301 H   0  0  0  0  0  0  0  0  0  0  0  0
  139.8500   76.3050  221.8470 N   0  0  0  0  0  0  0  0  0  0  0  0
  140.3560   77.4340  221.2360 C   0  0  0  0  0  0  0  0  0  0  0  0
  139.6860   78.7510  221.3340 C   0  0  0  0  0  0  0  0  0  0  0  0
  138.9135   78.9932  220.5893 H   0  0  0  0  0  0  0  0  0  0  0  0
  139.9620   79.6660  222.2730 C   0  0  0  0  0  0  0  0  0  0  0  0
  139.1127   80.1864  222.7397 H   0  0  0  0  0  0  0  0  0  0  0  0
  141.3190   80.0300  222.7300 C   0  0  0  0  0  0  0  0  0  0  0  0
  141.6080   80.7640  223.8560 C   0  0  0  0  0  0  0  0  0  0  0  0
  140.8652   81.2204  224.5268 H   0  0  0  0  0  0  0  0  0  0  0  0
  142.9450   80.8360  224.0080 N   0  0  0  0  0  0  0  0  0  0  0  0
  143.4380   80.1240  222.9720 C   0  0  0  0  0  0  0  0  0  0  0  0
  144.5132   79.9774  222.7915 H   0  0  0  0  0  0  0  0  0  0  0  0
  142.4750   79.6130  222.1840 N   0  0  0  0  0  0  0  0  0  0  0  0
  142.6150   78.9880  221.3600 H   0  0  0  0  0  0  0  0  0  0  0  0
  141.4940   77.3570  220.4970 N   0  0  0  0  0  0  0  0  0  0  0  0
  142.1780   76.2000  220.3530 C   0  0  0  0  0  0  0  0  0  0  0  0
  143.3510   76.1690  219.5900 C   0  0  0  0  0  0  0  0  0  0  0  0
  143.7129   77.0855  219.1010 H   0  0  0  0  0  0  0  0  0  0  0  0
  144.0620   74.9760  219.4490 C   0  0  0  0  0  0  0  0  0  0  0  0
  144.9830   74.9536  218.8479 H   0  0  0  0  0  0  0  0  0  0  0  0
  143.6060   73.8100  220.0700 C   0  0  0  0  0  0  0  0  0  0  0  0
  144.1689   72.8717  219.9571 H   0  0  0  0  0  0  0  0  0  0  0  0
  142.4350   73.8340  220.8350 C   0  0  0  0  0  0  0  0  0  0  0  0
  142.0796   72.9147  221.3235 H   0  0  0  0  0  0  0  0  0  0  0  0
  141.7100   75.0330  220.9810 C   0  0  0  0  0  0  0  0  0  0  0  0
  140.5310   75.1130  221.7410 C   0  0  0  0  0  0  0  0  0  0  0  0
  140.1060   74.0820  222.3340 O   0  0  0  0  0  0  0  0  0  0  0  0
  1  2  1  0
  2  3  1  0
  3  4  1  0
  3  5  1  0
  3  6  1  0
  6  7  1  0
  6  8  1  0
  6  9  1  0
  9 10  1  0
 10 11  1  0
 11 12  1  0
 11 13  2  0
 13 14  1  0
 13 15  1  0
 15 16  2  0
 16 17  1  0
 16 18  1  0
 18 19  2  0
 19 20  1  0
 19 21  1  0
 21 22  1  0
 10 23  2  0
 23 24  1  0
 24 25  2  0
 25 26  1  0
 25 27  1  0
 27 28  1  0
 27 29  2  0
 29 30  1  0
 29 31  1  0
 31 32  1  0
 31 33  2  0
 33 34  1  0
 34 35  2  0
 34  9  1  0
 21 15  1  0
 33 24  1  0
M  END
>  <UniqueID>  (9) 
400

>  <SMILES>  (9) 
O=c1c2ccccc2nc(/C=C\c2cnc[nH]2)n1CCO

>  <Energy>  (9) 
79.37269714745092

>  <Genealogy>  (9) 
O=c1c2ccccc2nc(C=Cc2cnc[nH]2)n1CCO (tautomer)
O=c1c2ccccc2nc(/C=C\c2cnc[nH]2)n1CCO (cis-trans isomerization)
O=c1c2ccccc2nc(/C=C\c2cnc[nH]2)n1CCO (3D coordinates assigned)
O=c1c2ccccc2nc(/C=C\c2cnc[nH]2)n1CCO (optimized conformer: 79.37269714745092 kcal/mol)

>  <smiles>  (9) 
O=c1c2ccccc2nc(/C=C/c2cnc[nH]2)n1CCO

>  <score_type>  (9) 
oracle

>  <origin>  (9) 
autodockgpu

>  <m_score__min__energy>  (9) 
-6.1799999999999997

>  <m_primary>  (9) 
energy

>  <meeko>  (9) 
{"free_energy": -5.52, "intermolecular_energy": -7.31, "internal_energy": -2.05, "cluster_size": 17, "cluster_id": 3, "rank_in_cluster": 16}

>  <energy>  (9) 
-5.57

>  <cluster_rmsd>  (9) 
0.12

>  <rmsd>  (9) 
273.14

>  <cluster>  (9) 
3

$$$$
ISFQUULIKQOBJE-JMMJYVQQNA-N
     RDKit          3D

 35 37  0  0  0  0  0  0  0  0999 V2000
  138.0590   73.8270  222.8400 H   0  0  0  0  0  0  0  0  0  0  0  0
  137.3960   74.0290  222.1300 O   0  0  0  0  0  0  0  0  0  0  0  0
  137.4060   75.4200  221.9570 C   0  0  0  0  0  0  0  0  0  0  0  0
  136.4644   75.8400  222.3404 H   0  0  0  0  0  0  0  0  0  0  0  0
  137.5113   75.6463  220.8857 H   0  0  0  0  0  0  0  0  0  0  0  0
  138.5820   76.0420  222.7150 C   0  0  0  0  0  0  0  0  0  0  0  0
  138.7561   75.4752  223.6415 H   0  0  0  0  0  0  0  0  0  0  0  0
  138.3399   77.0887  222.9511 H   0  0  0  0  0  0  0  0  0  0  0  0
  139.8060   76.0090  221.8870 N   0  0  0  0  0  0  0  0  0  0  0  0
  140.3200   77.1640  221.3350 C   0  0  0  0  0  0  0  0  0  0  0  0
  139.6390   78.4720  221.4690 C   0  0  0  0  0  0  0  0  0  0  0  0
  138.8705   78.7315  220.7260 H   0  0  0  0  0  0  0  0  0  0  0  0
  139.9000   79.3590  222.4380 C   0  0  0  0  0  0  0  0  0  0  0  0
  139.0479   79.7419  223.0188 H   0  0  0  0  0  0  0  0  0  0  0  0
  141.2450   79.8630  222.7870 C   0  0  0  0  0  0  0  0  0  0  0  0
  141.5030   80.9770  223.5510 C   0  0  0  0  0  0  0  0  0  0  0  0
  140.7433   81.6649  223.9505 H   0  0  0  0  0  0  0  0  0  0  0  0
  142.8330   81.0930  223.7330 N   0  0  0  0  0  0  0  0  0  0  0  0
  143.3520   80.0290  223.0840 C   0  0  0  0  0  0  0  0  0  0  0  0
  144.4299   79.8159  223.0311 H   0  0  0  0  0  0  0  0  0  0  0  0
  142.4130   79.2570  222.5090 N   0  0  0  0  0  0  0  0  0  0  0  0
  142.5730   78.3580  222.0020 H   0  0  0  0  0  0  0  0  0  0  0  0
  141.4770   77.1230  220.6230 N   0  0  0  0  0  0  0  0  0  0  0  0
  142.1720   75.9760  220.4500 C   0  0  0  0  0  0  0  0  0  0  0  0
  143.3640   75.9840  219.7170 C   0  0  0  0  0  0  0  0  0  0  0  0
  143.7317   76.9220  219.2754 H   0  0  0  0  0  0  0  0  0  0  0  0
  144.0870   74.8010  219.5460 C   0  0  0  0  0  0  0  0  0  0  0  0
  145.0236   74.8082  218.9691 H   0  0  0  0  0  0  0  0  0  0  0  0
  143.6220   73.6080  220.1070 C   0  0  0  0  0  0  0  0  0  0  0  0
  144.1933   72.6780  219.9701 H   0  0  0  0  0  0  0  0  0  0  0  0
  142.4320   73.5940  220.8420 C   0  0  0  0  0  0  0  0  0  0  0  0
  142.0701   72.6536  221.2833 H   0  0  0  0  0  0  0  0  0  0  0  0
  141.6960   74.7830  221.0180 C   0  0  0  0  0  0  0  0  0  0  0  0
  140.4980   74.8260  221.7500 C   0  0  0  0  0  0  0  0  0  0  0  0
  140.0640   73.7690  222.2900 O   0  0  0  0  0  0  0  0  0  0  0  0
  1  2  1  0
  2  3  1  0
  3  4  1  0
  3  5  1  0
  3  6  1  0
  6  7  1  0
  6  8  1  0
  6  9  1  0
  9 10  1  0
 10 11  1  0
 11 12  1  0
 11 13  2  0
 13 14  1  0
 13 15  1  0
 15 16  2  0
 16 17  1  0
 16 18  1  0
 18 19  2  0
 19 20  1  0
 19 21  1  0
 21 22  1  0
 10 23  2  0
 23 24  1  0
 24 25  2  0
 25 26  1  0
 25 27  1  0
 27 28  1  0
 27 29  2  0
 29 30  1  0
 29 31  1  0
 31 32  1  0
 31 33  2  0
 33 34  1  0
 34 35  2  0
 34  9  1  0
 21 15  1  0
 33 24  1  0
M  END
>  <UniqueID>  (10) 
400

>  <SMILES>  (10) 
O=c1c2ccccc2nc(/C=C\c2cnc[nH]2)n1CCO

>  <Energy>  (10) 
79.37269714745092

>  <Genealogy>  (10) 
O=c1c2ccccc2nc(C=Cc2cnc[nH]2)n1CCO (tautomer)
O=c1c2ccccc2nc(/C=C\c2cnc[nH]2)n1CCO (cis-trans isomerization)
O=c1c2ccccc2nc(/C=C\c2cnc[nH]2)n1CCO (3D coordinates assigned)
O=c1c2ccccc2nc(/C=C\c2cnc[nH]2)n1CCO (optimized conformer: 79.37269714745092 kcal/mol)

>  <smiles>  (10) 
O=c1c2ccccc2nc(/C=C/c2cnc[nH]2)n1CCO

>  <score_type>  (10) 
oracle

>  <origin>  (10) 
autodockgpu

>  <m_score__min__energy>  (10) 
-6.1799999999999997

>  <m_primary>  (10) 
energy

>  <meeko>  (10) 
{"free_energy": -5.56, "intermolecular_energy": -7.35, "internal_energy": -2.03, "cluster_size": 17, "cluster_id": 3, "rank_in_cluster": 8}

>  <energy>  (10) 
-5.57

>  <cluster_rmsd>  (10) 
0.06

>  <rmsd>  (10) 
273.14

>  <cluster>  (10) 
3

$$$$
ISFQUULIKQOBJE-JMMJYVQQNA-N
     RDKit          3D

 35 37  0  0  0  0  0  0  0  0999 V2000
  138.1140   74.1810  222.7960 H   0  0  0  0  0  0  0  0  0  0  0  0
  137.3650   74.4070  222.1860 O   0  0  0  0  0  0  0  0  0  0  0  0
  137.4350   75.7870  221.9580 C   0  0  0  0  0  0  0  0  0  0  0  0
  136.5133   76.2624  222.3246 H   0  0  0  0  0  0  0  0  0  0  0  0
  137.5480   75.9656  220.8785 H   0  0  0  0  0  0  0  0  0  0  0  0
  138.6380   76.3870  222.6900 C   0  0  0  0  0  0  0  0  0  0  0  0
  138.7984   75.8409  223.6313 H   0  0  0  0  0  0  0  0  0  0  0  0
  138.4356   77.4481  222.8973 H   0  0  0  0  0  0  0  0  0  0  0  0
  139.8550   76.2860  221.8550 N   0  0  0  0  0  0  0  0  0  0  0  0
  140.4160   77.4080  221.2830 C   0  0  0  0  0  0  0  0  0  0  0  0
  139.7950   78.7470  221.4000 C   0  0  0  0  0  0  0  0  0  0  0  0
  139.0676   79.0471  220.6314 H   0  0  0  0  0  0  0  0  0  0  0  0
  140.0640   79.6160  222.3840 C   0  0  0  0  0  0  0  0  0  0  0  0
  139.2103   80.0566  222.9197 H   0  0  0  0  0  0  0  0  0  0  0  0
  141.4200   80.0280  222.8050 C   0  0  0  0  0  0  0  0  0  0  0  0
  141.7030   80.8830  223.8430 C   0  0  0  0  0  0  0  0  0  0  0  0
  140.9568   81.4127  224.4534 H   0  0  0  0  0  0  0  0  0  0  0  0
  143.0400   80.9700  223.9950 N   0  0  0  0  0  0  0  0  0  0  0  0
  143.5370   80.1470  223.0480 C   0  0  0  0  0  0  0  0  0  0  0  0
  144.6130   79.9808  222.8910 H   0  0  0  0  0  0  0  0  0  0  0  0
  142.5780   79.5510  222.3160 N   0  0  0  0  0  0  0  0  0  0  0  0
  142.7220   78.8380  221.5680 H   0  0  0  0  0  0  0  0  0  0  0  0
  141.5660   77.3040  220.5650 N   0  0  0  0  0  0  0  0  0  0  0  0
  142.2070   76.1250  220.4060 C   0  0  0  0  0  0  0  0  0  0  0  0
  143.3930   76.0670  219.6650 C   0  0  0  0  0  0  0  0  0  0  0  0
  143.7993   76.9800  219.2053 H   0  0  0  0  0  0  0  0  0  0  0  0
  144.0610   74.8500  219.5090 C   0  0  0  0  0  0  0  0  0  0  0  0
  144.9934   74.8062  218.9270 H   0  0  0  0  0  0  0  0  0  0  0  0
  143.5470   73.6880  220.0910 C   0  0  0  0  0  0  0  0  0  0  0  0
  144.0746   72.7310  219.9650 H   0  0  0  0  0  0  0  0  0  0  0  0
  142.3620   73.7400  220.8340 C   0  0  0  0  0  0  0  0  0  0  0  0
  141.9611   72.8243  221.2930 H   0  0  0  0  0  0  0  0  0  0  0  0
  141.6820   74.9630  220.9950 C   0  0  0  0  0  0  0  0  0  0  0  0
  140.4910   75.0710  221.7330 C   0  0  0  0  0  0  0  0  0  0  0  0
  140.0140   74.0430  222.2920 O   0  0  0  0  0  0  0  0  0  0  0  0
  1  2  1  0
  2  3  1  0
  3  4  1  0
  3  5  1  0
  3  6  1  0
  6  7  1  0
  6  8  1  0
  6  9  1  0
  9 10  1  0
 10 11  1  0
 11 12  1  0
 11 13  2  0
 13 14  1  0
 13 15  1  0
 15 16  2  0
 16 17  1  0
 16 18  1  0
 18 19  2  0
 19 20  1  0
 19 21  1  0
 21 22  1  0
 10 23  2  0
 23 24  1  0
 24 25  2  0
 25 26  1  0
 25 27  1  0
 27 28  1  0
 27 29  2  0
 29 30  1  0
 29 31  1  0
 31 32  1  0
 31 33  2  0
 33 34  1  0
 34 35  2  0
 34  9  1  0
 21 15  1  0
 33 24  1  0
M  END
>  <UniqueID>  (11) 
400

>  <SMILES>  (11) 
O=c1c2ccccc2nc(/C=C\c2cnc[nH]2)n1CCO

>  <Energy>  (11) 
79.37269714745092

>  <Genealogy>  (11) 
O=c1c2ccccc2nc(C=Cc2cnc[nH]2)n1CCO (tautomer)
O=c1c2ccccc2nc(/C=C\c2cnc[nH]2)n1CCO (cis-trans isomerization)
O=c1c2ccccc2nc(/C=C\c2cnc[nH]2)n1CCO (3D coordinates assigned)
O=c1c2ccccc2nc(/C=C\c2cnc[nH]2)n1CCO (optimized conformer: 79.37269714745092 kcal/mol)

>  <smiles>  (11) 
O=c1c2ccccc2nc(/C=C/c2cnc[nH]2)n1CCO

>  <score_type>  (11) 
oracle

>  <origin>  (11) 
autodockgpu

>  <m_score__min__energy>  (11) 
-6.1799999999999997

>  <m_primary>  (11) 
energy

>  <meeko>  (11) 
{"free_energy": -5.58, "intermolecular_energy": -7.37, "internal_energy": -2.04, "cluster_size": 17, "cluster_id": 3, "rank_in_cluster": 4}

>  <energy>  (11) 
-5.56

>  <cluster_rmsd>  (11) 
0.27

>  <rmsd>  (11) 
273.07

>  <cluster>  (11) 
3

$$$$
ISFQUULIKQOBJE-JMMJYVQQNA-N
     RDKit          3D

 35 37  0  0  0  0  0  0  0  0999 V2000
  138.1760   74.1320  222.7890 H   0  0  0  0  0  0  0  0  0  0  0  0
  137.3500   74.3570  222.2880 O   0  0  0  0  0  0  0  0  0  0  0  0
  137.4330   75.7200  221.9700 C   0  0  0  0  0  0  0  0  0  0  0  0
  136.5044   76.2219  222.2795 H   0  0  0  0  0  0  0  0  0  0  0  0
  137.5751   75.8259  220.8844 H   0  0  0  0  0  0  0  0  0  0  0  0
  138.6190   76.3630  222.6920 C   0  0  0  0  0  0  0  0  0  0  0  0
  138.7848   75.8451  223.6482 H   0  0  0  0  0  0  0  0  0  0  0  0
  138.3940   77.4249  222.8701 H   0  0  0  0  0  0  0  0  0  0  0  0
  139.8420   76.2650  221.8670 N   0  0  0  0  0  0  0  0  0  0  0  0
  140.4050   77.3890  221.2980 C   0  0  0  0  0  0  0  0  0  0  0  0
  139.7790   78.7260  221.4110 C   0  0  0  0  0  0  0  0  0  0  0  0
  139.0553   79.0235  220.6379 H   0  0  0  0  0  0  0  0  0  0  0  0
  140.0390   79.5960  222.3960 C   0  0  0  0  0  0  0  0  0  0  0  0
  139.1805   80.0298  222.9297 H   0  0  0  0  0  0  0  0  0  0  0  0
  141.3900   80.0180  222.8210 C   0  0  0  0  0  0  0  0  0  0  0  0
  141.6630   80.9010  223.8390 C   0  0  0  0  0  0  0  0  0  0  0  0
  140.9108   81.4476  224.4267 H   0  0  0  0  0  0  0  0  0  0  0  0
  142.9970   80.9910  224.0030 N   0  0  0  0  0  0  0  0  0  0  0  0
  143.5050   80.1420  223.0840 C   0  0  0  0  0  0  0  0  0  0  0  0
  144.5825   79.9706  222.9438 H   0  0  0  0  0  0  0  0  0  0  0  0
  142.5530   79.5280  222.3580 N   0  0  0  0  0  0  0  0  0  0  0  0
  142.7050   78.7940  221.6310 H   0  0  0  0  0  0  0  0  0  0  0  0
  141.5600   77.2890  220.5890 N   0  0  0  0  0  0  0  0  0  0  0  0
  142.2050   76.1110  220.4340 C   0  0  0  0  0  0  0  0  0  0  0  0
  143.3980   76.0570  219.7020 C   0  0  0  0  0  0  0  0  0  0  0  0
  143.8055   76.9714  219.2461 H   0  0  0  0  0  0  0  0  0  0  0  0
  144.0700   74.8420  219.5510 C   0  0  0  0  0  0  0  0  0  0  0  0
  145.0064   74.8004  218.9753 H   0  0  0  0  0  0  0  0  0  0  0  0
  143.5550   73.6790  220.1300 C   0  0  0  0  0  0  0  0  0  0  0  0
  144.0868   72.7237  220.0089 H   0  0  0  0  0  0  0  0  0  0  0  0
  142.3650   73.7270  220.8630 C   0  0  0  0  0  0  0  0  0  0  0  0
  141.9631   72.8096  221.3179 H   0  0  0  0  0  0  0  0  0  0  0  0
  141.6800   74.9480  221.0200 C   0  0  0  0  0  0  0  0  0  0  0  0
  140.4830   75.0520  221.7490 C   0  0  0  0  0  0  0  0  0  0  0  0
  140.0050   74.0230  222.3040 O   0  0  0  0  0  0  0  0  0  0  0  0
  1  2  1  0
  2  3  1  0
  3  4  1  0
  3  5  1  0
  3  6  1  0
  6  7  1  0
  6  8  1  0
  6  9  1  0
  9 10  1  0
 10 11  1  0
 11 12  1  0
 11 13  2  0
 13 14  1  0
 13 15  1  0
 15 16  2  0
 16 17  1  0
 16 18  1  0
 18 19  2  0
 19 20  1  0
 19 21  1  0
 21 22  1  0
 10 23  2  0
 23 24  1  0
 24 25  2  0
 25 26  1  0
 25 27  1  0
 27 28  1  0
 27 29  2  0
 29 30  1  0
 29 31  1  0
 31 32  1  0
 31 33  2  0
 33 34  1  0
 34 35  2  0
 34  9  1  0
 21 15  1  0
 33 24  1  0
M  END
>  <UniqueID>  (12) 
400

>  <SMILES>  (12) 
O=c1c2ccccc2nc(/C=C\c2cnc[nH]2)n1CCO

>  <Energy>  (12) 
79.37269714745092

>  <Genealogy>  (12) 
O=c1c2ccccc2nc(C=Cc2cnc[nH]2)n1CCO (tautomer)
O=c1c2ccccc2nc(/C=C\c2cnc[nH]2)n1CCO (cis-trans isomerization)
O=c1c2ccccc2nc(/C=C\c2cnc[nH]2)n1CCO (3D coordinates assigned)
O=c1c2ccccc2nc(/C=C\c2cnc[nH]2)n1CCO (optimized conformer: 79.37269714745092 kcal/mol)

>  <smiles>  (12) 
O=c1c2ccccc2nc(/C=C/c2cnc[nH]2)n1CCO

>  <score_type>  (12) 
oracle

>  <origin>  (12) 
autodockgpu

>  <m_score__min__energy>  (12) 
-6.1799999999999997

>  <m_primary>  (12) 
energy

>  <meeko>  (12) 
{"free_energy": -5.58, "intermolecular_energy": -7.37, "internal_energy": -2.05, "cluster_size": 17, "cluster_id": 3, "rank_in_cluster": 2}

>  <energy>  (12) 
-5.56

>  <cluster_rmsd>  (12) 
0.13

>  <rmsd>  (12) 
273.15

>  <cluster>  (12) 
3

$$$$
ISFQUULIKQOBJE-JMMJYVQQNA-N
     RDKit          3D

 35 37  0  0  0  0  0  0  0  0999 V2000
  138.1140   74.5780  222.8440 H   0  0  0  0  0  0  0  0  0  0  0  0
  137.2000   74.8650  222.5880 O   0  0  0  0  0  0  0  0  0  0  0  0
  137.3280   76.1330  222.0060 C   0  0  0  0  0  0  0  0  0  0  0  0
  136.3958   76.6970  222.1572 H   0  0  0  0  0  0  0  0  0  0  0  0
  137.5274   76.0136  220.9308 H   0  0  0  0  0  0  0  0  0  0  0  0
  138.4890   76.8980  222.6440 C   0  0  0  0  0  0  0  0  0  0  0  0
  138.7031   76.4709  223.6348 H   0  0  0  0  0  0  0  0  0  0  0  0
  138.2072   77.9569  222.7407 H   0  0  0  0  0  0  0  0  0  0  0  0
  139.6990   76.8000  221.8000 N   0  0  0  0  0  0  0  0  0  0  0  0
  140.2200   77.9160  221.1770 C   0  0  0  0  0  0  0  0  0  0  0  0
  139.5600   79.2400  221.2510 C   0  0  0  0  0  0  0  0  0  0  0  0
  138.6703   79.4084  220.6264 H   0  0  0  0  0  0  0  0  0  0  0  0
  139.9790   80.2450  222.0310 C   0  0  0  0  0  0  0  0  0  0  0  0
  139.2636   81.0523  222.2465 H   0  0  0  0  0  0  0  0  0  0  0  0
  141.3270   80.3530  222.6240 C   0  0  0  0  0  0  0  0  0  0  0  0
  141.6140   80.9020  223.8520 C   0  0  0  0  0  0  0  0  0  0  0  0
  140.8842   81.3808  224.5215 H   0  0  0  0  0  0  0  0  0  0  0  0
  142.9300   80.7610  224.1060 N   0  0  0  0  0  0  0  0  0  0  0  0
  143.4100   80.1120  223.0240 C   0  0  0  0  0  0  0  0  0  0  0  0
  144.4672   79.8341  222.9014 H   0  0  0  0  0  0  0  0  0  0  0  0
  142.4600   79.8410  222.1120 N   0  0  0  0  0  0  0  0  0  0  0  0
  142.5860   79.3020  221.2260 H   0  0  0  0  0  0  0  0  0  0  0  0
  141.3640   77.8190  220.4500 N   0  0  0  0  0  0  0  0  0  0  0  0
  142.0390   76.6540  220.3280 C   0  0  0  0  0  0  0  0  0  0  0  0
  143.2180   76.6030  219.5760 C   0  0  0  0  0  0  0  0  0  0  0  0
  143.5913   77.5093  219.0768 H   0  0  0  0  0  0  0  0  0  0  0  0
  143.9210   75.4020  219.4590 C   0  0  0  0  0  0  0  0  0  0  0  0
  144.8477   75.3635  218.8676 H   0  0  0  0  0  0  0  0  0  0  0  0
  143.4490   74.2490  220.0920 C   0  0  0  0  0  0  0  0  0  0  0  0
  144.0047   73.3044  219.9969 H   0  0  0  0  0  0  0  0  0  0  0  0
  142.2720   74.2930  220.8460 C   0  0  0  0  0  0  0  0  0  0  0  0
  141.9044   73.3836  221.3438 H   0  0  0  0  0  0  0  0  0  0  0  0
  141.5560   75.5010  220.9690 C   0  0  0  0  0  0  0  0  0  0  0  0
  140.3710   75.6010  221.7170 C   0  0  0  0  0  0  0  0  0  0  0  0
  139.9310   74.5820  222.3200 O   0  0  0  0  0  0  0  0  0  0  0  0
  1  2  1  0
  2  3  1  0
  3  4  1  0
  3  5  1  0
  3  6  1  0
  6  7  1  0
  6  8  1  0
  6  9  1  0
  9 10  1  0
 10 11  1  0
 11 12  1  0
 11 13  2  0
 13 14  1  0
 13 15  1  0
 15 16  2  0
 16 17  1  0
 16 18  1  0
 18 19  2  0
 19 20  1  0
 19 21  1  0
 21 22  1  0
 10 23  2  0
 23 24  1  0
 24 25  2  0
 25 26  1  0
 25 27  1  0
 27 28  1  0
 27 29  2  0
 29 30  1  0
 29 31  1  0
 31 32  1  0
 31 33  2  0
 33 34  1  0
 34 35  2  0
 34  9  1  0
 21 15  1  0
 33 24  1  0
M  END
>  <UniqueID>  (13) 
400

>  <SMILES>  (13) 
O=c1c2ccccc2nc(/C=C\c2cnc[nH]2)n1CCO

>  <Energy>  (13) 
79.37269714745092

>  <Genealogy>  (13) 
O=c1c2ccccc2nc(C=Cc2cnc[nH]2)n1CCO (tautomer)
O=c1c2ccccc2nc(/C=C\c2cnc[nH]2)n1CCO (cis-trans isomerization)
O=c1c2ccccc2nc(/C=C\c2cnc[nH]2)n1CCO (3D coordinates assigned)
O=c1c2ccccc2nc(/C=C\c2cnc[nH]2)n1CCO (optimized conformer: 79.37269714745092 kcal/mol)

>  <smiles>  (13) 
O=c1c2ccccc2nc(/C=C/c2cnc[nH]2)n1CCO

>  <score_type>  (13) 
oracle

>  <origin>  (13) 
autodockgpu

>  <m_score__min__energy>  (13) 
-6.1799999999999997

>  <m_primary>  (13) 
energy

>  <meeko>  (13) 
{"free_energy": -5.31, "intermolecular_energy": -7.1, "internal_energy": -2.11, "cluster_size": 17, "cluster_id": 3, "rank_in_cluster": 17}

>  <energy>  (13) 
-5.56

>  <cluster_rmsd>  (13) 
0.14

>  <rmsd>  (13) 
273.14

>  <cluster>  (13) 
3

$$$$
ISFQUULIKQOBJE-JMMJYVQQNA-N
     RDKit          3D

 35 37  0  0  0  0  0  0  0  0999 V2000
  138.0910   74.1320  222.7750 H   0  0  0  0  0  0  0  0  0  0  0  0
  137.2150   74.4360  222.4220 O   0  0  0  0  0  0  0  0  0  0  0  0
  137.4120   75.7320  221.9270 C   0  0  0  0  0  0  0  0  0  0  0  0
  136.4999   76.3248  222.0900 H   0  0  0  0  0  0  0  0  0  0  0  0
  137.6373   75.6731  220.8519 H   0  0  0  0  0  0  0  0  0  0  0  0
  138.5850   76.4040  222.6440 C   0  0  0  0  0  0  0  0  0  0  0  0
  138.7432   75.9149  223.6165 H   0  0  0  0  0  0  0  0  0  0  0  0
  138.3507   77.4689  222.7893 H   0  0  0  0  0  0  0  0  0  0  0  0
  139.8180   76.2910  221.8360 N   0  0  0  0  0  0  0  0  0  0  0  0
  140.4040   77.4090  221.2780 C   0  0  0  0  0  0  0  0  0  0  0  0
  139.7950   78.7550  221.3870 C   0  0  0  0  0  0  0  0  0  0  0  0
  139.0859   79.0650  220.6053 H   0  0  0  0  0  0  0  0  0  0  0  0
  140.0540   79.6180  222.3780 C   0  0  0  0  0  0  0  0  0  0  0  0
  139.1947   80.0562  222.9068 H   0  0  0  0  0  0  0  0  0  0  0  0
  141.4050   80.0270  222.8160 C   0  0  0  0  0  0  0  0  0  0  0  0
  141.6770   80.8860  223.8540 C   0  0  0  0  0  0  0  0  0  0  0  0
  140.9244   81.4212  224.4516 H   0  0  0  0  0  0  0  0  0  0  0  0
  143.0110   80.9690  224.0240 N   0  0  0  0  0  0  0  0  0  0  0  0
  143.5190   80.1400  223.0870 C   0  0  0  0  0  0  0  0  0  0  0  0
  144.5964   79.9694  222.9455 H   0  0  0  0  0  0  0  0  0  0  0  0
  142.5680   79.5450  222.3450 N   0  0  0  0  0  0  0  0  0  0  0  0
  142.7200   78.8270  221.6020 H   0  0  0  0  0  0  0  0  0  0  0  0
  141.5670   77.2950  220.5850 N   0  0  0  0  0  0  0  0  0  0  0  0
  142.1990   76.1090  220.4360 C   0  0  0  0  0  0  0  0  0  0  0  0
  143.4000   76.0410  219.7200 C   0  0  0  0  0  0  0  0  0  0  0  0
  143.8257   76.9511  219.2723 H   0  0  0  0  0  0  0  0  0  0  0  0
  144.0580   74.8170  219.5740 C   0  0  0  0  0  0  0  0  0  0  0  0
  145.0017   74.7646  219.0112 H   0  0  0  0  0  0  0  0  0  0  0  0
  143.5190   73.6590  220.1420 C   0  0  0  0  0  0  0  0  0  0  0  0
  144.0393   72.6969  220.0250 H   0  0  0  0  0  0  0  0  0  0  0  0
  142.3190   73.7210  220.8590 C   0  0  0  0  0  0  0  0  0  0  0  0
  141.8982   72.8080  221.3054 H   0  0  0  0  0  0  0  0  0  0  0  0
  141.6490   74.9510  221.0100 C   0  0  0  0  0  0  0  0  0  0  0  0
  140.4440   75.0700  221.7230 C   0  0  0  0  0  0  0  0  0  0  0  0
  139.9440   74.0460  222.2680 O   0  0  0  0  0  0  0  0  0  0  0  0
  1  2  1  0
  2  3  1  0
  3  4  1  0
  3  5  1  0
  3  6  1  0
  6  7  1  0
  6  8  1  0
  6  9  1  0
  9 10  1  0
 10 11  1  0
 11 12  1  0
 11 13  2  0
 13 14  1  0
 13 15  1  0
 15 16  2  0
 16 17  1  0
 16 18  1  0
 18 19  2  0
 19 20  1  0
 19 21  1  0
 21 22  1  0
 10 23  2  0
 23 24  1  0
 24 25  2  0
 25 26  1  0
 25 27  1  0
 27 28  1  0
 27 29  2  0
 29 30  1  0
 29 31  1  0
 31 32  1  0
 31 33  2  0
 33 34  1  0
 34 35  2  0
 34  9  1  0
 21 15  1  0
 33 24  1  0
M  END
>  <UniqueID>  (14) 
400

>  <SMILES>  (14) 
O=c1c2ccccc2nc(/C=C\c2cnc[nH]2)n1CCO

>  <Energy>  (14) 
79.37269714745092

>  <Genealogy>  (14) 
O=c1c2ccccc2nc(C=Cc2cnc[nH]2)n1CCO (tautomer)
O=c1c2ccccc2nc(/C=C\c2cnc[nH]2)n1CCO (cis-trans isomerization)
O=c1c2ccccc2nc(/C=C\c2cnc[nH]2)n1CCO (3D coordinates assigned)
O=c1c2ccccc2nc(/C=C\c2cnc[nH]2)n1CCO (optimized conformer: 79.37269714745092 kcal/mol)

>  <smiles>  (14) 
O=c1c2ccccc2nc(/C=C/c2cnc[nH]2)n1CCO

>  <score_type>  (14) 
oracle

>  <origin>  (14) 
autodockgpu

>  <m_score__min__energy>  (14) 
-6.1799999999999997

>  <m_primary>  (14) 
energy

>  <meeko>  (14) 
{"free_energy": -5.57, "intermolecular_energy": -7.36, "internal_energy": -2.05, "cluster_size": 17, "cluster_id": 3, "rank_in_cluster": 7}

>  <energy>  (14) 
-5.56

>  <cluster_rmsd>  (14) 
0.17

>  <rmsd>  (14) 
273.11

>  <cluster>  (14) 
3

$$$$
ISFQUULIKQOBJE-JMMJYVQQNA-N
     RDKit          3D

 35 37  0  0  0  0  0  0  0  0999 V2000
  138.0840   74.2590  222.7410 H   0  0  0  0  0  0  0  0  0  0  0  0
  137.2220   74.5480  222.3440 O   0  0  0  0  0  0  0  0  0  0  0  0
  137.4140   75.8530  221.8730 C   0  0  0  0  0  0  0  0  0  0  0  0
  136.5038   76.4426  222.0571 H   0  0  0  0  0  0  0  0  0  0  0  0
  137.6279   75.8159  220.7946 H   0  0  0  0  0  0  0  0  0  0  0  0
  138.5950   76.5100  222.5920 C   0  0  0  0  0  0  0  0  0  0  0  0
  138.7536   76.0107  223.5593 H   0  0  0  0  0  0  0  0  0  0  0  0
  138.3693   77.5751  222.7487 H   0  0  0  0  0  0  0  0  0  0  0  0
  139.8240   76.3950  221.7770 N   0  0  0  0  0  0  0  0  0  0  0  0
  140.3910   77.5080  221.1910 C   0  0  0  0  0  0  0  0  0  0  0  0
  139.7650   78.8470  221.2730 C   0  0  0  0  0  0  0  0  0  0  0  0
  139.0450   79.1286  220.4905 H   0  0  0  0  0  0  0  0  0  0  0  0
  140.0210   79.7370  222.2410 C   0  0  0  0  0  0  0  0  0  0  0  0
  139.1620   80.2460  222.7025 H   0  0  0  0  0  0  0  0  0  0  0  0
  141.3690   80.0880  222.7370 C   0  0  0  0  0  0  0  0  0  0  0  0
  141.6320   80.8640  223.8410 C   0  0  0  0  0  0  0  0  0  0  0  0
  140.8753   81.3684  224.4599 H   0  0  0  0  0  0  0  0  0  0  0  0
  142.9630   80.9090  224.0450 N   0  0  0  0  0  0  0  0  0  0  0  0
  143.4780   80.1420  223.0600 C   0  0  0  0  0  0  0  0  0  0  0  0
  144.5553   79.9624  222.9291 H   0  0  0  0  0  0  0  0  0  0  0  0
  142.5340   79.6210  222.2560 N   0  0  0  0  0  0  0  0  0  0  0  0
  142.6900   78.9570  221.4650 H   0  0  0  0  0  0  0  0  0  0  0  0
  141.5510   77.3930  220.4920 N   0  0  0  0  0  0  0  0  0  0  0  0
  142.1980   76.2130  220.3650 C   0  0  0  0  0  0  0  0  0  0  0  0
  143.3950   76.1440  219.6430 C   0  0  0  0  0  0  0  0  0  0  0  0
  143.8060   77.0492  219.1722 H   0  0  0  0  0  0  0  0  0  0  0  0
  144.0680   74.9260  219.5200 C   0  0  0  0  0  0  0  0  0  0  0  0
  145.0084   74.8731  218.9518 H   0  0  0  0  0  0  0  0  0  0  0  0
  143.5480   73.7740  220.1180 C   0  0  0  0  0  0  0  0  0  0  0  0
  144.0799   72.8162  220.0188 H   0  0  0  0  0  0  0  0  0  0  0  0
  142.3530   73.8370  220.8420 C   0  0  0  0  0  0  0  0  0  0  0  0
  141.9480   72.9292  221.3131 H   0  0  0  0  0  0  0  0  0  0  0  0
  141.6670   75.0610  220.9690 C   0  0  0  0  0  0  0  0  0  0  0  0
  140.4650   75.1800  221.6880 C   0  0  0  0  0  0  0  0  0  0  0  0
  139.9830   74.1620  222.2600 O   0  0  0  0  0  0  0  0  0  0  0  0
  1  2  1  0
  2  3  1  0
  3  4  1  0
  3  5  1  0
  3  6  1  0
  6  7  1  0
  6  8  1  0
  6  9  1  0
  9 10  1  0
 10 11  1  0
 11 12  1  0
 11 13  2  0
 13 14  1  0
 13 15  1  0
 15 16  2  0
 16 17  1  0
 16 18  1  0
 18 19  2  0
 19 20  1  0
 19 21  1  0
 21 22  1  0
 10 23  2  0
 23 24  1  0
 24 25  2  0
 25 26  1  0
 25 27  1  0
 27 28  1  0
 27 29  2  0
 29 30  1  0
 29 31  1  0
 31 32  1  0
 31 33  2  0
 33 34  1  0
 34 35  2  0
 34  9  1  0
 21 15  1  0
 33 24  1  0
M  END
>  <UniqueID>  (15) 
400

>  <SMILES>  (15) 
O=c1c2ccccc2nc(/C=C\c2cnc[nH]2)n1CCO

>  <Energy>  (15) 
79.37269714745092

>  <Genealogy>  (15) 
O=c1c2ccccc2nc(C=Cc2cnc[nH]2)n1CCO (tautomer)
O=c1c2ccccc2nc(/C=C\c2cnc[nH]2)n1CCO (cis-trans isomerization)
O=c1c2ccccc2nc(/C=C\c2cnc[nH]2)n1CCO (3D coordinates assigned)
O=c1c2ccccc2nc(/C=C\c2cnc[nH]2)n1CCO (optimized conformer: 79.37269714745092 kcal/mol)

>  <smiles>  (15) 
O=c1c2ccccc2nc(/C=C/c2cnc[nH]2)n1CCO

>  <score_type>  (15) 
oracle

>  <origin>  (15) 
autodockgpu

>  <m_score__min__energy>  (15) 
-6.1799999999999997

>  <m_primary>  (15) 
energy

>  <meeko>  (15) 
{"free_energy": -5.56, "intermolecular_energy": -7.35, "internal_energy": -2.06, "cluster_size": 17, "cluster_id": 3, "rank_in_cluster": 11}

>  <energy>  (15) 
-5.55

>  <cluster_rmsd>  (15) 
0.12

>  <rmsd>  (15) 
273.13

>  <cluster>  (15) 
3

$$$$
ISFQUULIKQOBJE-JMMJYVQQNA-N
     RDKit          3D

 35 37  0  0  0  0  0  0  0  0999 V2000
  137.0140   68.5730  224.8170 H   0  0  0  0  0  0  0  0  0  0  0  0
  136.2840   68.8830  224.2200 O   0  0  0  0  0  0  0  0  0  0  0  0
  136.8380   69.0010  222.9380 C   0  0  0  0  0  0  0  0  0  0  0  0
  136.7594   70.0460  222.6036 H   0  0  0  0  0  0  0  0  0  0  0  0
  136.2889   68.3423  222.2492 H   0  0  0  0  0  0  0  0  0  0  0  0
  138.3110   68.5860  222.9550 C   0  0  0  0  0  0  0  0  0  0  0  0
  138.7337   68.7101  221.9471 H   0  0  0  0  0  0  0  0  0  0  0  0
  138.3805   67.5339  223.2685 H   0  0  0  0  0  0  0  0  0  0  0  0
  139.0730   69.4200  223.9080 N   0  0  0  0  0  0  0  0  0  0  0  0
  139.4860   70.6910  223.5650 C   0  0  0  0  0  0  0  0  0  0  0  0
  139.2660   71.2530  222.2120 C   0  0  0  0  0  0  0  0  0  0  0  0
  138.3419   70.9770  221.6829 H   0  0  0  0  0  0  0  0  0  0  0  0
  140.1220   72.0760  221.5930 C   0  0  0  0  0  0  0  0  0  0  0  0
  140.8318   71.6283  220.8819 H   0  0  0  0  0  0  0  0  0  0  0  0
  140.1870   73.5380  221.7910 C   0  0  0  0  0  0  0  0  0  0  0  0
  141.1950   74.3570  221.3380 C   0  0  0  0  0  0  0  0  0  0  0  0
  142.1062   74.0198  220.8221 H   0  0  0  0  0  0  0  0  0  0  0  0
  140.8900   75.6380  221.6260 N   0  0  0  0  0  0  0  0  0  0  0  0
  139.6880   75.5650  222.2370 C   0  0  0  0  0  0  0  0  0  0  0  0
  139.1411   76.4437  222.6096 H   0  0  0  0  0  0  0  0  0  0  0  0
  139.2300   74.3050  222.3420 N   0  0  0  0  0  0  0  0  0  0  0  0
  138.3050   74.0110  222.7270 H   0  0  0  0  0  0  0  0  0  0  0  0
  140.1370   71.4650  224.4730 N   0  0  0  0  0  0  0  0  0  0  0  0
  140.3810   71.0400  225.7330 C   0  0  0  0  0  0  0  0  0  0  0  0
  141.0470   71.8750  226.6370 C   0  0  0  0  0  0  0  0  0  0  0  0
  141.3794   72.8745  226.3198 H   0  0  0  0  0  0  0  0  0  0  0  0
  141.2900   71.4400  227.9420 C   0  0  0  0  0  0  0  0  0  0  0  0
  141.8135   72.0978  228.6515 H   0  0  0  0  0  0  0  0  0  0  0  0
  140.8690   70.1700  228.3480 C   0  0  0  0  0  0  0  0  0  0  0  0
  141.0629   69.8296  229.3759 H   0  0  0  0  0  0  0  0  0  0  0  0
  140.2010   69.3310  227.4480 C   0  0  0  0  0  0  0  0  0  0  0  0
  139.8691   68.3332  227.7707 H   0  0  0  0  0  0  0  0  0  0  0  0
  139.9530   69.7620  226.1300 C   0  0  0  0  0  0  0  0  0  0  0  0
  139.2840   68.9610  225.1890 C   0  0  0  0  0  0  0  0  0  0  0  0
  138.8700   67.8180  225.5320 O   0  0  0  0  0  0  0  0  0  0  0  0
  1  2  1  0
  2  3  1  0
  3  4  1  0
  3  5  1  0
  3  6  1  0
  6  7  1  0
  6  8  1  0
  6  9  1  0
  9 10  1  0
 10 11  1  0
 11 12  1  0
 11 13  2  0
 13 14  1  0
 13 15  1  0
 15 16  2  0
 16 17  1  0
 16 18  1  0
 18 19  2  0
 19 20  1  0
 19 21  1  0
 21 22  1  0
 10 23  2  0
 23 24  1  0
 24 25  2  0
 25 26  1  0
 25 27  1  0
 27 28  1  0
 27 29  2  0
 29 30  1  0
 29 31  1  0
 31 32  1  0
 31 33  2  0
 33 34  1  0
 34 35  2  0
 34  9  1  0
 21 15  1  0
 33 24  1  0
M  END
>  <UniqueID>  (16) 
400

>  <SMILES>  (16) 
O=c1c2ccccc2nc(/C=C\c2cnc[nH]2)n1CCO

>  <Energy>  (16) 
79.37269714745092

>  <Genealogy>  (16) 
O=c1c2ccccc2nc(C=Cc2cnc[nH]2)n1CCO (tautomer)
O=c1c2ccccc2nc(/C=C\c2cnc[nH]2)n1CCO (cis-trans isomerization)
O=c1c2ccccc2nc(/C=C\c2cnc[nH]2)n1CCO (3D coordinates assigned)
O=c1c2ccccc2nc(/C=C\c2cnc[nH]2)n1CCO (optimized conformer: 79.37269714745092 kcal/mol)

>  <smiles>  (16) 
O=c1c2ccccc2nc(/C=C/c2cnc[nH]2)n1CCO

>  <score_type>  (16) 
oracle

>  <origin>  (16) 
autodockgpu

>  <m_score__min__energy>  (16) 
-6.1799999999999997

>  <m_primary>  (16) 
energy

>  <meeko>  (16) 
{"free_energy": -6.15, "intermolecular_energy": -7.94, "internal_energy": -1.37, "cluster_size": 2, "cluster_id": 1, "rank_in_cluster": 2}

>  <energy>  (16) 
-5.55

>  <cluster_rmsd>  (16) 
0.13

>  <rmsd>  (16) 
273.11

>  <cluster>  (16) 
3

$$$$
ISFQUULIKQOBJE-JMMJYVQQNA-N
     RDKit          3D

 35 37  0  0  0  0  0  0  0  0999 V2000
  139.6810   73.3430  223.4700 H   0  0  0  0  0  0  0  0  0  0  0  0
  140.1220   73.1250  222.6090 O   0  0  0  0  0  0  0  0  0  0  0  0
  139.8190   71.7850  222.3320 C   0  0  0  0  0  0  0  0  0  0  0  0
  140.6276   71.1440  222.7133 H   0  0  0  0  0  0  0  0  0  0  0  0
  139.7187   71.6588  221.2439 H   0  0  0  0  0  0  0  0  0  0  0  0
  138.5020   71.3880  223.0020 C   0  0  0  0  0  0  0  0  0  0  0  0
  137.8609   70.8792  222.2671 H   0  0  0  0  0  0  0  0  0  0  0  0
  138.0047   72.2956  223.3749 H   0  0  0  0  0  0  0  0  0  0  0  0
  138.7540   70.4780  224.1410 N   0  0  0  0  0  0  0  0  0  0  0  0
  138.1540   69.2380  224.2020 C   0  0  0  0  0  0  0  0  0  0  0  0
  137.1720   68.7860  223.1900 C   0  0  0  0  0  0  0  0  0  0  0  0
  137.5576   68.3584  222.2527 H   0  0  0  0  0  0  0  0  0  0  0  0
  135.8440   68.8650  223.3440 C   0  0  0  0  0  0  0  0  0  0  0  0
  135.2164   68.6177  222.4751 H   0  0  0  0  0  0  0  0  0  0  0  0
  135.1570   69.2590  224.5920 C   0  0  0  0  0  0  0  0  0  0  0  0
  134.3300   68.4490  225.3340 C   0  0  0  0  0  0  0  0  0  0  0  0
  134.0301   67.4259  225.0630 H   0  0  0  0  0  0  0  0  0  0  0  0
  133.9450   69.1060  226.4450 N   0  0  0  0  0  0  0  0  0  0  0  0
  134.5640   70.3020  226.3570 C   0  0  0  0  0  0  0  0  0  0  0  0
  134.4642   71.0955  227.1122 H   0  0  0  0  0  0  0  0  0  0  0  0
  135.3160   70.4210  225.2480 N   0  0  0  0  0  0  0  0  0  0  0  0
  135.9250   71.2310  224.9960 H   0  0  0  0  0  0  0  0  0  0  0  0
  138.4400   68.3920  225.2270 N   0  0  0  0  0  0  0  0  0  0  0  0
  139.3260   68.7150  226.1960 C   0  0  0  0  0  0  0  0  0  0  0  0
  139.5960   67.8080  227.2280 C   0  0  0  0  0  0  0  0  0  0  0  0
  139.0821   66.8358  227.2544 H   0  0  0  0  0  0  0  0  0  0  0  0
  140.5180   68.1380  228.2240 C   0  0  0  0  0  0  0  0  0  0  0  0
  140.7290   67.4249  229.0346 H   0  0  0  0  0  0  0  0  0  0  0  0
  141.1730   69.3720  228.1930 C   0  0  0  0  0  0  0  0  0  0  0  0
  141.8981   69.6287  228.9794 H   0  0  0  0  0  0  0  0  0  0  0  0
  140.9080   70.2820  227.1630 C   0  0  0  0  0  0  0  0  0  0  0  0
  141.4266   71.2518  227.1403 H   0  0  0  0  0  0  0  0  0  0  0  0
  139.9780   69.9580  226.1550 C   0  0  0  0  0  0  0  0  0  0  0  0
  139.6780   70.8330  225.0980 C   0  0  0  0  0  0  0  0  0  0  0  0
  140.2710   71.9470  225.0280 O   0  0  0  0  0  0  0  0  0  0  0  0
  1  2  1  0
  2  3  1  0
  3  4  1  0
  3  5  1  0
  3  6  1  0
  6  7  1  0
  6  8  1  0
  6  9  1  0
  9 10  1  0
 10 11  1  0
 11 12  1  0
 11 13  2  0
 13 14  1  0
 13 15  1  0
 15 16  2  0
 16 17  1  0
 16 18  1  0
 18 19  2  0
 19 20  1  0
 19 21  1  0
 21 22  1  0
 10 23  2  0
 23 24  1  0
 24 25  2  0
 25 26  1  0
 25 27  1  0
 27 28  1  0
 27 29  2  0
 29 30  1  0
 29 31  1  0
 31 32  1  0
 31 33  2  0
 33 34  1  0
 34 35  2  0
 34  9  1  0
 21 15  1  0
 33 24  1  0
M  END
>  <UniqueID>  (17) 
400

>  <SMILES>  (17) 
O=c1c2ccccc2nc(/C=C\c2cnc[nH]2)n1CCO

>  <Energy>  (17) 
79.37269714745092

>  <Genealogy>  (17) 
O=c1c2ccccc2nc(C=Cc2cnc[nH]2)n1CCO (tautomer)
O=c1c2ccccc2nc(/C=C\c2cnc[nH]2)n1CCO (cis-trans isomerization)
O=c1c2ccccc2nc(/C=C\c2cnc[nH]2)n1CCO (3D coordinates assigned)
O=c1c2ccccc2nc(/C=C\c2cnc[nH]2)n1CCO (optimized conformer: 79.37269714745092 kcal/mol)

>  <smiles>  (17) 
O=c1c2ccccc2nc(/C=C/c2cnc[nH]2)n1CCO

>  <score_type>  (17) 
oracle

>  <origin>  (17) 
autodockgpu

>  <m_score__min__energy>  (17) 
-6.1799999999999997

>  <m_primary>  (17) 
energy

>  <meeko>  (17) 
{"free_energy": -6.14, "intermolecular_energy": -7.93, "internal_energy": -1.41, "cluster_size": 1, "cluster_id": 2, "rank_in_cluster": 1}

>  <energy>  (17) 
-5.55

>  <cluster_rmsd>  (17) 
0.13

>  <rmsd>  (17) 
273.11

>  <cluster>  (17) 
3

$$$$
ISFQUULIKQOBJE-JMMJYVQQNA-N
     RDKit          3D

 35 37  0  0  0  0  0  0  0  0999 V2000
  138.1030   74.1650  222.7590 H   0  0  0  0  0  0  0  0  0  0  0  0
  137.4140   74.3930  222.0830 O   0  0  0  0  0  0  0  0  0  0  0  0
  137.4280   75.7880  221.9530 C   0  0  0  0  0  0  0  0  0  0  0  0
  136.5028   76.2013  222.3811 H   0  0  0  0  0  0  0  0  0  0  0  0
  137.4989   76.0465  220.8862 H   0  0  0  0  0  0  0  0  0  0  0  0
  138.6330   76.3800  222.6890 C   0  0  0  0  0  0  0  0  0  0  0  0
  138.7966   75.8225  223.6230 H   0  0  0  0  0  0  0  0  0  0  0  0
  138.4305   77.4383  222.9103 H   0  0  0  0  0  0  0  0  0  0  0  0
  139.8470   76.2900  221.8490 N   0  0  0  0  0  0  0  0  0  0  0  0
  140.3820   77.4140  221.2560 C   0  0  0  0  0  0  0  0  0  0  0  0
  139.7350   78.7420  221.3560 C   0  0  0  0  0  0  0  0  0  0  0  0
  138.9893   79.0111  220.5934 H   0  0  0  0  0  0  0  0  0  0  0  0
  140.0010   79.6360  222.3170 C   0  0  0  0  0  0  0  0  0  0  0  0
  139.1456   80.1185  222.8124 H   0  0  0  0  0  0  0  0  0  0  0  0
  141.3550   80.0240  222.7630 C   0  0  0  0  0  0  0  0  0  0  0  0
  141.6370   80.8140  223.8530 C   0  0  0  0  0  0  0  0  0  0  0  0
  140.8897   81.3027  224.4954 H   0  0  0  0  0  0  0  0  0  0  0  0
  142.9730   80.8950  224.0100 N   0  0  0  0  0  0  0  0  0  0  0  0
  143.4730   80.1340  223.0140 C   0  0  0  0  0  0  0  0  0  0  0  0
  144.5494   79.9804  222.8475 H   0  0  0  0  0  0  0  0  0  0  0  0
  142.5150   79.5830  222.2460 N   0  0  0  0  0  0  0  0  0  0  0  0
  142.6610   78.9180  221.4540 H   0  0  0  0  0  0  0  0  0  0  0  0
  141.5300   77.3220  220.5330 N   0  0  0  0  0  0  0  0  0  0  0  0
  142.1940   76.1530  220.3880 C   0  0  0  0  0  0  0  0  0  0  0  0
  143.3770   76.1080  219.6420 C   0  0  0  0  0  0  0  0  0  0  0  0
  143.7628   77.0219  219.1667 H   0  0  0  0  0  0  0  0  0  0  0  0
  144.0680   74.9020  219.5010 C   0  0  0  0  0  0  0  0  0  0  0  0
  144.9976   74.8675  218.9139 H   0  0  0  0  0  0  0  0  0  0  0  0
  143.5810   73.7400  220.1040 C   0  0  0  0  0  0  0  0  0  0  0  0
  144.1275   72.7922  219.9901 H   0  0  0  0  0  0  0  0  0  0  0  0
  142.3990   73.7790  220.8530 C   0  0  0  0  0  0  0  0  0  0  0  0
  142.0193   72.8625  221.3282 H   0  0  0  0  0  0  0  0  0  0  0  0
  141.6950   74.9910  220.9990 C   0  0  0  0  0  0  0  0  0  0  0  0
  140.5070   75.0860  221.7420 C   0  0  0  0  0  0  0  0  0  0  0  0
  140.0530   74.0580  222.3200 O   0  0  0  0  0  0  0  0  0  0  0  0
  1  2  1  0
  2  3  1  0
  3  4  1  0
  3  5  1  0
  3  6  1  0
  6  7  1  0
  6  8  1  0
  6  9  1  0
  9 10  1  0
 10 11  1  0
 11 12  1  0
 11 13  2  0
 13 14  1  0
 13 15  1  0
 15 16  2  0
 16 17  1  0
 16 18  1  0
 18 19  2  0
 19 20  1  0
 19 21  1  0
 21 22  1  0
 10 23  2  0
 23 24  1  0
 24 25  2  0
 25 26  1  0
 25 27  1  0
 27 28  1  0
 27 29  2  0
 29 30  1  0
 29 31  1  0
 31 32  1  0
 31 33  2  0
 33 34  1  0
 34 35  2  0
 34  9  1  0
 21 15  1  0
 33 24  1  0
M  END
>  <UniqueID>  (18) 
400

>  <SMILES>  (18) 
O=c1c2ccccc2nc(/C=C\c2cnc[nH]2)n1CCO

>  <Energy>  (18) 
79.37269714745092

>  <Genealogy>  (18) 
O=c1c2ccccc2nc(C=Cc2cnc[nH]2)n1CCO (tautomer)
O=c1c2ccccc2nc(/C=C\c2cnc[nH]2)n1CCO (cis-trans isomerization)
O=c1c2ccccc2nc(/C=C\c2cnc[nH]2)n1CCO (3D coordinates assigned)
O=c1c2ccccc2nc(/C=C\c2cnc[nH]2)n1CCO (optimized conformer: 79.37269714745092 kcal/mol)

>  <smiles>  (18) 
O=c1c2ccccc2nc(/C=C/c2cnc[nH]2)n1CCO

>  <score_type>  (18) 
oracle

>  <origin>  (18) 
autodockgpu

>  <m_score__min__energy>  (18) 
-6.1799999999999997

>  <m_primary>  (18) 
energy

>  <meeko>  (18) 
{"free_energy": -5.55, "intermolecular_energy": -7.34, "internal_energy": -2.06, "cluster_size": 17, "cluster_id": 3, "rank_in_cluster": 14}

>  <energy>  (18) 
-5.52

>  <cluster_rmsd>  (18) 
0.36

>  <rmsd>  (18) 
273.09

>  <cluster>  (18) 
3

$$$$
ISFQUULIKQOBJE-JMMJYVQQNA-N
     RDKit          3D

 35 37  0  0  0  0  0  0  0  0999 V2000
  138.1320   74.1890  222.7360 H   0  0  0  0  0  0  0  0  0  0  0  0
  137.2910   74.4330  222.2690 O   0  0  0  0  0  0  0  0  0  0  0  0
  137.4070   75.7830  221.9130 C   0  0  0  0  0  0  0  0  0  0  0  0
  136.4828   76.3117  222.1893 H   0  0  0  0  0  0  0  0  0  0  0  0
  137.5720   75.8535  220.8277 H   0  0  0  0  0  0  0  0  0  0  0  0
  138.5920   76.4250  222.6390 C   0  0  0  0  0  0  0  0  0  0  0  0
  138.7560   75.9051  223.5944 H   0  0  0  0  0  0  0  0  0  0  0  0
  138.3664   77.4865  222.8189 H   0  0  0  0  0  0  0  0  0  0  0  0
  139.8170   76.3290  221.8160 N   0  0  0  0  0  0  0  0  0  0  0  0
  140.3730   77.4520  221.2390 C   0  0  0  0  0  0  0  0  0  0  0  0
  139.7380   78.7860  221.3410 C   0  0  0  0  0  0  0  0  0  0  0  0
  138.9981   79.0651  220.5764 H   0  0  0  0  0  0  0  0  0  0  0  0
  140.0090   79.6740  222.3070 C   0  0  0  0  0  0  0  0  0  0  0  0
  139.1561   80.1566  222.8066 H   0  0  0  0  0  0  0  0  0  0  0  0
  141.3650   80.0550  222.7530 C   0  0  0  0  0  0  0  0  0  0  0  0
  141.6510   80.8410  223.8450 C   0  0  0  0  0  0  0  0  0  0  0  0
  140.9064   81.3316  224.4891 H   0  0  0  0  0  0  0  0  0  0  0  0
  142.9870   80.9150  224.0010 N   0  0  0  0  0  0  0  0  0  0  0  0
  143.4830   80.1540  223.0030 C   0  0  0  0  0  0  0  0  0  0  0  0
  144.5586   79.9960  222.8352 H   0  0  0  0  0  0  0  0  0  0  0  0
  142.5220   79.6090  222.2350 N   0  0  0  0  0  0  0  0  0  0  0  0
  142.6650   78.9450  221.4420 H   0  0  0  0  0  0  0  0  0  0  0  0
  141.5290   77.3530  220.5320 N   0  0  0  0  0  0  0  0  0  0  0  0
  142.1830   76.1790  220.3870 C   0  0  0  0  0  0  0  0  0  0  0  0
  143.3760   76.1270  219.6580 C   0  0  0  0  0  0  0  0  0  0  0  0
  143.7787   77.0407  219.1965 H   0  0  0  0  0  0  0  0  0  0  0  0
  144.0560   74.9150  219.5160 C   0  0  0  0  0  0  0  0  0  0  0  0
  144.9927   74.8755  218.9407 H   0  0  0  0  0  0  0  0  0  0  0  0
  143.5490   73.7530  220.1030 C   0  0  0  0  0  0  0  0  0  0  0  0
  144.0875   72.8005  219.9897 H   0  0  0  0  0  0  0  0  0  0  0  0
  142.3570   73.7990  220.8350 C   0  0  0  0  0  0  0  0  0  0  0  0
  141.9606   72.8828  221.2970 H   0  0  0  0  0  0  0  0  0  0  0  0
  141.6640   75.0170  220.9810 C   0  0  0  0  0  0  0  0  0  0  0  0
  140.4660   75.1190  221.7090 C   0  0  0  0  0  0  0  0  0  0  0  0
  139.9930   74.0910  222.2710 O   0  0  0  0  0  0  0  0  0  0  0  0
  1  2  1  0
  2  3  1  0
  3  4  1  0
  3  5  1  0
  3  6  1  0
  6  7  1  0
  6  8  1  0
  6  9  1  0
  9 10  1  0
 10 11  1  0
 11 12  1  0
 11 13  2  0
 13 14  1  0
 13 15  1  0
 15 16  2  0
 16 17  1  0
 16 18  1  0
 18 19  2  0
 19 20  1  0
 19 21  1  0
 21 22  1  0
 10 23  2  0
 23 24  1  0
 24 25  2  0
 25 26  1  0
 25 27  1  0
 27 28  1  0
 27 29  2  0
 29 30  1  0
 29 31  1  0
 31 32  1  0
 31 33  2  0
 33 34  1  0
 34 35  2  0
 34  9  1  0
 21 15  1  0
 33 24  1  0
M  END
>  <UniqueID>  (19) 
400

>  <SMILES>  (19) 
O=c1c2ccccc2nc(/C=C\c2cnc[nH]2)n1CCO

>  <Energy>  (19) 
79.37269714745092

>  <Genealogy>  (19) 
O=c1c2ccccc2nc(C=Cc2cnc[nH]2)n1CCO (tautomer)
O=c1c2ccccc2nc(/C=C\c2cnc[nH]2)n1CCO (cis-trans isomerization)
O=c1c2ccccc2nc(/C=C\c2cnc[nH]2)n1CCO (3D coordinates assigned)
O=c1c2ccccc2nc(/C=C\c2cnc[nH]2)n1CCO (optimized conformer: 79.37269714745092 kcal/mol)

>  <smiles>  (19) 
O=c1c2ccccc2nc(/C=C/c2cnc[nH]2)n1CCO

>  <score_type>  (19) 
oracle

>  <origin>  (19) 
autodockgpu

>  <m_score__min__energy>  (19) 
-6.1799999999999997

>  <m_primary>  (19) 
energy

>  <meeko>  (19) 
{"free_energy": -5.55, "intermolecular_energy": -7.34, "internal_energy": -2.06, "cluster_size": 17, "cluster_id": 3, "rank_in_cluster": 13}

>  <energy>  (19) 
-5.52

>  <cluster_rmsd>  (19) 
0.19

>  <rmsd>  (19) 
273.1

>  <cluster>  (19) 
3

$$$$
ISFQUULIKQOBJE-JMMJYVQQNA-N
     RDKit          3D

 35 37  0  0  0  0  0  0  0  0999 V2000
  138.1090   74.1300  222.8400 H   0  0  0  0  0  0  0  0  0  0  0  0
  137.2910   74.3790  222.3370 O   0  0  0  0  0  0  0  0  0  0  0  0
  137.4260   75.7310  221.9960 C   0  0  0  0  0  0  0  0  0  0  0  0
  136.5111   76.2703  222.2826 H   0  0  0  0  0  0  0  0  0  0  0  0
  137.5875   75.8111  220.9109 H   0  0  0  0  0  0  0  0  0  0  0  0
  138.6230   76.3470  222.7230 C   0  0  0  0  0  0  0  0  0  0  0  0
  138.7855   75.8124  223.6705 H   0  0  0  0  0  0  0  0  0  0  0  0
  138.4130   77.4089  222.9184 H   0  0  0  0  0  0  0  0  0  0  0  0
  139.8420   76.2450  221.8910 N   0  0  0  0  0  0  0  0  0  0  0  0
  140.4100   77.3680  221.3270 C   0  0  0  0  0  0  0  0  0  0  0  0
  139.7950   78.7090  221.4510 C   0  0  0  0  0  0  0  0  0  0  0  0
  139.0737   79.0193  220.6807 H   0  0  0  0  0  0  0  0  0  0  0  0
  140.0630   79.5680  222.4440 C   0  0  0  0  0  0  0  0  0  0  0  0
  139.2095   79.9812  223.0015 H   0  0  0  0  0  0  0  0  0  0  0  0
  141.4150   80.0030  222.8480 C   0  0  0  0  0  0  0  0  0  0  0  0
  141.6950   80.8980  223.8540 C   0  0  0  0  0  0  0  0  0  0  0  0
  140.9464   81.4461  224.4449 H   0  0  0  0  0  0  0  0  0  0  0  0
  143.0310   80.9980  224.0020 N   0  0  0  0  0  0  0  0  0  0  0  0
  143.5320   80.1430  223.0850 C   0  0  0  0  0  0  0  0  0  0  0  0
  144.6087   79.9768  222.9331 H   0  0  0  0  0  0  0  0  0  0  0  0
  142.5760   79.5160  222.3770 N   0  0  0  0  0  0  0  0  0  0  0  0
  142.7240   78.7760  221.6550 H   0  0  0  0  0  0  0  0  0  0  0  0
  141.5610   77.2630  220.6110 N   0  0  0  0  0  0  0  0  0  0  0  0
  142.1970   76.0820  220.4460 C   0  0  0  0  0  0  0  0  0  0  0  0
  143.3850   76.0230  219.7090 C   0  0  0  0  0  0  0  0  0  0  0  0
  143.7978   76.9373  219.2577 H   0  0  0  0  0  0  0  0  0  0  0  0
  144.0470   74.8040  219.5460 C   0  0  0  0  0  0  0  0  0  0  0  0
  144.9799   74.7592  218.9649 H   0  0  0  0  0  0  0  0  0  0  0  0
  143.5260   73.6410  220.1200 C   0  0  0  0  0  0  0  0  0  0  0  0
  144.0501   72.6826  219.9901 H   0  0  0  0  0  0  0  0  0  0  0  0
  142.3400   73.6930  220.8590 C   0  0  0  0  0  0  0  0  0  0  0  0
  141.9332   72.7758  221.3099 H   0  0  0  0  0  0  0  0  0  0  0  0
  141.6650   74.9190  221.0270 C   0  0  0  0  0  0  0  0  0  0  0  0
  140.4720   75.0270  221.7630 C   0  0  0  0  0  0  0  0  0  0  0  0
  139.9890   73.9980  222.3140 O   0  0  0  0  0  0  0  0  0  0  0  0
  1  2  1  0
  2  3  1  0
  3  4  1  0
  3  5  1  0
  3  6  1  0
  6  7  1  0
  6  8  1  0
  6  9  1  0
  9 10  1  0
 10 11  1  0
 11 12  1  0
 11 13  2  0
 13 14  1  0
 13 15  1  0
 15 16  2  0
 16 17  1  0
 16 18  1  0
 18 19  2  0
 19 20  1  0
 19 21  1  0
 21 22  1  0
 10 23  2  0
 23 24  1  0
 24 25  2  0
 25 26  1  0
 25 27  1  0
 27 28  1  0
 27 29  2  0
 29 30  1  0
 29 31  1  0
 31 32  1  0
 31 33  2  0
 33 34  1  0
 34 35  2  0
 34  9  1  0
 21 15  1  0
 33 24  1  0
M  END
>  <UniqueID>  (20) 
400

>  <SMILES>  (20) 
O=c1c2ccccc2nc(/C=C\c2cnc[nH]2)n1CCO

>  <Energy>  (20) 
79.37269714745092

>  <Genealogy>  (20) 
O=c1c2ccccc2nc(C=Cc2cnc[nH]2)n1CCO (tautomer)
O=c1c2ccccc2nc(/C=C\c2cnc[nH]2)n1CCO (cis-trans isomerization)
O=c1c2ccccc2nc(/C=C\c2cnc[nH]2)n1CCO (3D coordinates assigned)
O=c1c2ccccc2nc(/C=C\c2cnc[nH]2)n1CCO (optimized conformer: 79.37269714745092 kcal/mol)

>  <smiles>  (20) 
O=c1c2ccccc2nc(/C=C/c2cnc[nH]2)n1CCO

>  <score_type>  (20) 
oracle

>  <origin>  (20) 
autodockgpu

>  <m_score__min__energy>  (20) 
-6.1799999999999997

>  <m_primary>  (20) 
energy

>  <meeko>  (20) 
{"free_energy": -5.59, "intermolecular_energy": -7.38, "internal_energy": -2.04, "cluster_size": 17, "cluster_id": 3, "rank_in_cluster": 1}

>  <energy>  (20) 
-5.31

>  <cluster_rmsd>  (20) 
0.55

>  <rmsd>  (20) 
273.15

>  <cluster>  (20) 
3

$$$$
ISFQUULIKQOBJE-LYKDAOFZNA-N
     RDKit          3D

 35 37  0  0  0  0  0  0  0  0999 V2000
  137.2590   68.4410  224.5080 H   0  0  0  0  0  0  0  0  0  0  0  0
  136.6180   68.9060  223.9100 O   0  0  0  0  0  0  0  0  0  0  0  0
  137.1870   68.8740  222.6310 C   0  0  0  0  0  0  0  0  0  0  0  0
  137.0194   69.8411  222.1343 H   0  0  0  0  0  0  0  0  0  0  0  0
  136.7177   68.0671  222.0491 H   0  0  0  0  0  0  0  0  0  0  0  0
  138.6900   68.6100  222.7290 C   0  0  0  0  0  0  0  0  0  0  0  0
  139.1584   68.8325  221.7589 H   0  0  0  0  0  0  0  0  0  0  0  0
  138.8439   67.5545  222.9978 H   0  0  0  0  0  0  0  0  0  0  0  0
  139.3100   69.4580  223.7720 N   0  0  0  0  0  0  0  0  0  0  0  0
  139.6680   70.7640  223.5110 C   0  0  0  0  0  0  0  0  0  0  0  0
  139.5120   71.3760  222.1790 C   0  0  0  0  0  0  0  0  0  0  0  0
  139.8291   70.7924  221.3022 H   0  0  0  0  0  0  0  0  0  0  0  0
  139.0070   72.6010  221.9710 C   0  0  0  0  0  0  0  0  0  0  0  0
  137.9209   72.6813  221.8164 H   0  0  0  0  0  0  0  0  0  0  0  0
  139.7940   73.8520  221.9330 C   0  0  0  0  0  0  0  0  0  0  0  0
  139.3520   75.0690  222.3130 N   0  0  0  0  0  0  0  0  0  0  0  0
  140.4060   75.8820  222.0970 C   0  0  0  0  0  0  0  0  0  0  0  0
  140.3937   76.9624  222.3032 H   0  0  0  0  0  0  0  0  0  0  0  0
  141.4750   75.2300  221.6020 N   0  0  0  0  0  0  0  0  0  0  0  0
  142.4030   75.6370  221.3530 H   0  0  0  0  0  0  0  0  0  0  0  0
  141.0950   73.9490  221.4950 C   0  0  0  0  0  0  0  0  0  0  0  0
  141.7148   73.1202  221.1222 H   0  0  0  0  0  0  0  0  0  0  0  0
  140.1810   71.5440  224.4970 N   0  0  0  0  0  0  0  0  0  0  0  0
  140.3720   71.0750  225.7510 C   0  0  0  0  0  0  0  0  0  0  0  0
  140.9110   71.9090  226.7360 C   0  0  0  0  0  0  0  0  0  0  0  0
  141.1816   72.9464  226.4900 H   0  0  0  0  0  0  0  0  0  0  0  0
  141.1060   71.4250  228.0330 C   0  0  0  0  0  0  0  0  0  0  0  0
  141.5294   72.0825  228.8066 H   0  0  0  0  0  0  0  0  0  0  0  0
  140.7640   70.1080  228.3480 C   0  0  0  0  0  0  0  0  0  0  0  0
  140.9204   69.7296  229.3690 H   0  0  0  0  0  0  0  0  0  0  0  0
  140.2230   69.2690  227.3680 C   0  0  0  0  0  0  0  0  0  0  0  0
  139.9527   68.2330  227.6201 H   0  0  0  0  0  0  0  0  0  0  0  0
  140.0240   69.7490  226.0590 C   0  0  0  0  0  0  0  0  0  0  0  0
  139.4800   68.9490  225.0390 C   0  0  0  0  0  0  0  0  0  0  0  0
  139.1450   67.7580  225.2960 O   0  0  0  0  0  0  0  0  0  0  0  0
  1  2  1  0
  2  3  1  0
  3  4  1  0
  3  5  1  0
  3  6  1  0
  6  7  1  0
  6  8  1  0
  6  9  1  0
  9 10  1  0
 10 11  1  0
 11 12  1  0
 11 13  2  0
 13 14  1  0
 13 15  1  0
 15 16  1  0
 16 17  2  0
 17 18  1  0
 17 19  1  0
 19 20  1  0
 19 21  1  0
 21 22  1  0
 10 23  2  0
 23 24  1  0
 24 25  2  0
 25 26  1  0
 25 27  1  0
 27 28  1  0
 27 29  2  0
 29 30  1  0
 29 31  1  0
 31 32  1  0
 31 33  2  0
 33 34  1  0
 34 35  2  0
 34  9  1  0
 21 15  2  0
 33 24  1  0
M  END
>  <UniqueID>  (21) 
401

>  <SMILES>  (21) 
O=c1c2ccccc2nc(/C=C\c2c[nH]cn2)n1CCO

>  <Energy>  (21) 
79.69483078507324

>  <Genealogy>  (21) 
O=c1c2ccccc2nc(C=Cc2c[nH]cn2)n1CCO (tautomer)
O=c1c2ccccc2nc(/C=C\c2c[nH]cn2)n1CCO (cis-trans isomerization)
O=c1c2ccccc2nc(/C=C\c2c[nH]cn2)n1CCO (3D coordinates assigned)
O=c1c2ccccc2nc(/C=C\c2c[nH]cn2)n1CCO (optimized conformer: 79.69483078507324 kcal/mol)

>  <smiles>  (21) 
O=c1c2ccccc2nc(/C=C/c2cnc[nH]2)n1CCO

>  <score_type>  (21) 
oracle

>  <origin>  (21) 
autodockgpu

>  <m_score__min__energy>  (21) 
-6.6299999999999999

>  <m_primary>  (21) 
energy

>  <meeko>  (21) 
{"free_energy": -6.36, "intermolecular_energy": -8.15, "internal_energy": -1.41, "cluster_size": 13, "cluster_id": 1, "rank_in_cluster": 13}

>  <energy>  (21) 
-6.63

>  <cluster_rmsd>  (21) 
0.0

>  <rmsd>  (21) 
272.45

>  <cluster>  (21) 
1

$$$$
ISFQUULIKQOBJE-LYKDAOFZNA-N
     RDKit          3D

 35 37  0  0  0  0  0  0  0  0999 V2000
  139.7120   73.2910  223.4690 H   0  0  0  0  0  0  0  0  0  0  0  0
  140.2330   73.1470  222.6380 O   0  0  0  0  0  0  0  0  0  0  0  0
  140.1240   71.7820  222.3420 C   0  0  0  0  0  0  0  0  0  0  0  0
  140.9676   71.2427  222.7975 H   0  0  0  0  0  0  0  0  0  0  0  0
  140.1392   71.6487  221.2502 H   0  0  0  0  0  0  0  0  0  0  0  0
  138.8110   71.2260  222.8950 C   0  0  0  0  0  0  0  0  0  0  0  0
  138.2999   70.6566  222.1047 H   0  0  0  0  0  0  0  0  0  0  0  0
  138.1859   72.0676  223.2281 H   0  0  0  0  0  0  0  0  0  0  0  0
  139.0590   70.3350  224.0510 N   0  0  0  0  0  0  0  0  0  0  0  0
  138.5620   69.0490  224.0800 C   0  0  0  0  0  0  0  0  0  0  0  0
  137.7160   68.5020  223.0040 C   0  0  0  0  0  0  0  0  0  0  0  0
  138.1991   67.8907  222.2275 H   0  0  0  0  0  0  0  0  0  0  0  0
  136.3940   68.7040  222.9140 C   0  0  0  0  0  0  0  0  0  0  0  0
  135.9464   68.6877  221.9093 H   0  0  0  0  0  0  0  0  0  0  0  0
  135.4900   68.9470  224.0580 C   0  0  0  0  0  0  0  0  0  0  0  0
  134.4930   68.1290  224.4590 N   0  0  0  0  0  0  0  0  0  0  0  0
  133.9560   68.7630  225.5210 C   0  0  0  0  0  0  0  0  0  0  0  0
  133.1084   68.3687  226.1007 H   0  0  0  0  0  0  0  0  0  0  0  0
  134.5680   69.9300  225.7960 N   0  0  0  0  0  0  0  0  0  0  0  0
  134.3370   70.5990  226.5630 H   0  0  0  0  0  0  0  0  0  0  0  0
  135.5360   70.0530  224.8760 C   0  0  0  0  0  0  0  0  0  0  0  0
  136.2431   70.8912  224.7902 H   0  0  0  0  0  0  0  0  0  0  0  0
  138.8480   68.2280  225.1230 N   0  0  0  0  0  0  0  0  0  0  0  0
  139.6090   68.6350  226.1640 C   0  0  0  0  0  0  0  0  0  0  0  0
  139.8740   67.7600  227.2230 C   0  0  0  0  0  0  0  0  0  0  0  0
  139.4624   66.7400  227.2088 H   0  0  0  0  0  0  0  0  0  0  0  0
  140.6610   68.1800  228.2990 C   0  0  0  0  0  0  0  0  0  0  0  0
  140.8688   67.4903  229.1304 H   0  0  0  0  0  0  0  0  0  0  0  0
  141.1840   69.4760  228.3190 C   0  0  0  0  0  0  0  0  0  0  0  0
  141.8019   69.8050  229.1675 H   0  0  0  0  0  0  0  0  0  0  0  0
  140.9240   70.3560  227.2630 C   0  0  0  0  0  0  0  0  0  0  0  0
  141.3395   71.3743  227.2817 H   0  0  0  0  0  0  0  0  0  0  0  0
  140.1310   69.9400  226.1760 C   0  0  0  0  0  0  0  0  0  0  0  0
  139.8440   70.7820  225.0890 C   0  0  0  0  0  0  0  0  0  0  0  0
  140.3160   71.9540  225.0690 O   0  0  0  0  0  0  0  0  0  0  0  0
  1  2  1  0
  2  3  1  0
  3  4  1  0
  3  5  1  0
  3  6  1  0
  6  7  1  0
  6  8  1  0
  6  9  1  0
  9 10  1  0
 10 11  1  0
 11 12  1  0
 11 13  2  0
 13 14  1  0
 13 15  1  0
 15 16  1  0
 16 17  2  0
 17 18  1  0
 17 19  1  0
 19 20  1  0
 19 21  1  0
 21 22  1  0
 10 23  2  0
 23 24  1  0
 24 25  2  0
 25 26  1  0
 25 27  1  0
 27 28  1  0
 27 29  2  0
 29 30  1  0
 29 31  1  0
 31 32  1  0
 31 33  2  0
 33 34  1  0
 34 35  2  0
 34  9  1  0
 21 15  2  0
 33 24  1  0
M  END
>  <UniqueID>  (22) 
401

>  <SMILES>  (22) 
O=c1c2ccccc2nc(/C=C\c2c[nH]cn2)n1CCO

>  <Energy>  (22) 
79.69483078507324

>  <Genealogy>  (22) 
O=c1c2ccccc2nc(C=Cc2c[nH]cn2)n1CCO (tautomer)
O=c1c2ccccc2nc(/C=C\c2c[nH]cn2)n1CCO (cis-trans isomerization)
O=c1c2ccccc2nc(/C=C\c2c[nH]cn2)n1CCO (3D coordinates assigned)
O=c1c2ccccc2nc(/C=C\c2c[nH]cn2)n1CCO (optimized conformer: 79.69483078507324 kcal/mol)

>  <smiles>  (22) 
O=c1c2ccccc2nc(/C=C/c2cnc[nH]2)n1CCO

>  <score_type>  (22) 
oracle

>  <origin>  (22) 
autodockgpu

>  <m_score__min__energy>  (22) 
-6.6299999999999999

>  <m_primary>  (22) 
energy

>  <meeko>  (22) 
{"free_energy": -6.35, "intermolecular_energy": -8.14, "internal_energy": -1.33, "cluster_size": 6, "cluster_id": 2, "rank_in_cluster": 1}

>  <energy>  (22) 
-6.62

>  <cluster_rmsd>  (22) 
0.1

>  <rmsd>  (22) 
272.44

>  <cluster>  (22) 
1

$$$$
ISFQUULIKQOBJE-LYKDAOFZNA-N
     RDKit          3D

 35 37  0  0  0  0  0  0  0  0999 V2000
  137.2330   68.3290  224.6850 H   0  0  0  0  0  0  0  0  0  0  0  0
  136.6600   68.9090  224.1210 O   0  0  0  0  0  0  0  0  0  0  0  0
  137.1010   68.7280  222.8040 C   0  0  0  0  0  0  0  0  0  0  0  0
  136.8088   69.5996  222.1998 H   0  0  0  0  0  0  0  0  0  0  0  0
  136.6424   67.8162  222.3938 H   0  0  0  0  0  0  0  0  0  0  0  0
  138.6220   68.5790  222.7730 C   0  0  0  0  0  0  0  0  0  0  0  0
  138.9937   68.8861  221.7843 H   0  0  0  0  0  0  0  0  0  0  0  0
  138.8757   67.5269  222.9696 H   0  0  0  0  0  0  0  0  0  0  0  0
  139.2580   69.4210  223.8130 N   0  0  0  0  0  0  0  0  0  0  0  0
  139.5740   70.7400  223.5690 C   0  0  0  0  0  0  0  0  0  0  0  0
  139.3560   71.3770  222.2570 C   0  0  0  0  0  0  0  0  0  0  0  0
  138.3391   71.3612  221.8379 H   0  0  0  0  0  0  0  0  0  0  0  0
  140.3210   71.9740  221.5440 C   0  0  0  0  0  0  0  0  0  0  0  0
  140.9044   71.3450  220.8556 H   0  0  0  0  0  0  0  0  0  0  0  0
  140.6640   73.4110  221.6090 C   0  0  0  0  0  0  0  0  0  0  0  0
  139.8880   74.3790  222.1400 N   0  0  0  0  0  0  0  0  0  0  0  0
  140.6090   75.5070  221.9680 C   0  0  0  0  0  0  0  0  0  0  0  0
  140.2695   76.5020  222.2917 H   0  0  0  0  0  0  0  0  0  0  0  0
  141.7880   75.2840  221.3580 N   0  0  0  0  0  0  0  0  0  0  0  0
  142.5160   75.9910  221.1150 H   0  0  0  0  0  0  0  0  0  0  0  0
  141.8290   73.9630  221.1270 C   0  0  0  0  0  0  0  0  0  0  0  0
  142.6495   73.4171  220.6383 H   0  0  0  0  0  0  0  0  0  0  0  0
  140.1030   71.5110  224.5530 N   0  0  0  0  0  0  0  0  0  0  0  0
  140.3490   71.0210  225.7890 C   0  0  0  0  0  0  0  0  0  0  0  0
  140.9020   71.8470  226.7730 C   0  0  0  0  0  0  0  0  0  0  0  0
  141.1372   72.8963  226.5412 H   0  0  0  0  0  0  0  0  0  0  0  0
  141.1560   71.3400  228.0510 C   0  0  0  0  0  0  0  0  0  0  0  0
  141.5911   71.9909  228.8236 H   0  0  0  0  0  0  0  0  0  0  0  0
  140.8580   70.0080  228.3480 C   0  0  0  0  0  0  0  0  0  0  0  0
  141.0602   69.6116  229.3540 H   0  0  0  0  0  0  0  0  0  0  0  0
  140.3030   69.1770  227.3690 C   0  0  0  0  0  0  0  0  0  0  0  0
  140.0670   68.1293  227.6072 H   0  0  0  0  0  0  0  0  0  0  0  0
  140.0460   69.6800  226.0790 C   0  0  0  0  0  0  0  0  0  0  0  0
  139.4860   68.8890  225.0610 C   0  0  0  0  0  0  0  0  0  0  0  0
  139.1900   67.6840  225.3030 O   0  0  0  0  0  0  0  0  0  0  0  0
  1  2  1  0
  2  3  1  0
  3  4  1  0
  3  5  1  0
  3  6  1  0
  6  7  1  0
  6  8  1  0
  6  9  1  0
  9 10  1  0
 10 11  1  0
 11 12  1  0
 11 13  2  0
 13 14  1  0
 13 15  1  0
 15 16  1  0
 16 17  2  0
 17 18  1  0
 17 19  1  0
 19 20  1  0
 19 21  1  0
 21 22  1  0
 10 23  2  0
 23 24  1  0
 24 25  2  0
 25 26  1  0
 25 27  1  0
 27 28  1  0
 27 29  2  0
 29 30  1  0
 29 31  1  0
 31 32  1  0
 31 33  2  0
 33 34  1  0
 34 35  2  0
 34  9  1  0
 21 15  2  0
 33 24  1  0
M  END
>  <UniqueID>  (23) 
401

>  <SMILES>  (23) 
O=c1c2ccccc2nc(/C=C\c2c[nH]cn2)n1CCO

>  <Energy>  (23) 
79.69483078507324

>  <Genealogy>  (23) 
O=c1c2ccccc2nc(C=Cc2c[nH]cn2)n1CCO (tautomer)
O=c1c2ccccc2nc(/C=C\c2c[nH]cn2)n1CCO (cis-trans isomerization)
O=c1c2ccccc2nc(/C=C\c2c[nH]cn2)n1CCO (3D coordinates assigned)
O=c1c2ccccc2nc(/C=C\c2c[nH]cn2)n1CCO (optimized conformer: 79.69483078507324 kcal/mol)

>  <smiles>  (23) 
O=c1c2ccccc2nc(/C=C/c2cnc[nH]2)n1CCO

>  <score_type>  (23) 
oracle

>  <origin>  (23) 
autodockgpu

>  <m_score__min__energy>  (23) 
-6.6299999999999999

>  <m_primary>  (23) 
energy

>  <meeko>  (23) 
{"free_energy": -6.55, "intermolecular_energy": -8.34, "internal_energy": -1.39, "cluster_size": 13, "cluster_id": 1, "rank_in_cluster": 7}

>  <energy>  (23) 
-6.61

>  <cluster_rmsd>  (23) 
0.09

>  <rmsd>  (23) 
272.47

>  <cluster>  (23) 
1

$$$$
ISFQUULIKQOBJE-LYKDAOFZNA-N
     RDKit          3D

 35 37  0  0  0  0  0  0  0  0999 V2000
  139.7350   73.2740  223.4750 H   0  0  0  0  0  0  0  0  0  0  0  0
  140.2670   73.1180  222.6530 O   0  0  0  0  0  0  0  0  0  0  0  0
  140.1230   71.7580  222.3500 C   0  0  0  0  0  0  0  0  0  0  0  0
  140.9611   71.1970  222.7892 H   0  0  0  0  0  0  0  0  0  0  0  0
  140.1188   71.6317  221.2573 H   0  0  0  0  0  0  0  0  0  0  0  0
  138.8070   71.2280  222.9190 C   0  0  0  0  0  0  0  0  0  0  0  0
  138.2746   70.6697  222.1349 H   0  0  0  0  0  0  0  0  0  0  0  0
  138.2031   72.0815  223.2608 H   0  0  0  0  0  0  0  0  0  0  0  0
  139.0520   70.3310  224.0710 N   0  0  0  0  0  0  0  0  0  0  0  0
  138.5430   69.0500  224.1000 C   0  0  0  0  0  0  0  0  0  0  0  0
  137.6880   68.5130  223.0260 C   0  0  0  0  0  0  0  0  0  0  0  0
  138.1641   67.9073  222.2408 H   0  0  0  0  0  0  0  0  0  0  0  0
  136.3650   68.7180  222.9480 C   0  0  0  0  0  0  0  0  0  0  0  0
  135.9114   68.7237  221.9459 H   0  0  0  0  0  0  0  0  0  0  0  0
  135.4680   68.9370  224.1030 C   0  0  0  0  0  0  0  0  0  0  0  0
  134.4760   68.1090  224.4940 N   0  0  0  0  0  0  0  0  0  0  0  0
  133.9450   68.7210  225.5730 C   0  0  0  0  0  0  0  0  0  0  0  0
  133.1027   68.3133  226.1511 H   0  0  0  0  0  0  0  0  0  0  0  0
  134.5560   69.8830  225.8660 N   0  0  0  0  0  0  0  0  0  0  0  0
  134.3290   70.5370  226.6480 H   0  0  0  0  0  0  0  0  0  0  0  0
  135.5180   70.0270  224.9420 C   0  0  0  0  0  0  0  0  0  0  0  0
  136.2228   70.8683  224.8679 H   0  0  0  0  0  0  0  0  0  0  0  0
  138.8270   68.2230  225.1390 N   0  0  0  0  0  0  0  0  0  0  0  0
  139.5960   68.6210  226.1780 C   0  0  0  0  0  0  0  0  0  0  0  0
  139.8580   67.7410  227.2330 C   0  0  0  0  0  0  0  0  0  0  0  0
  139.4379   66.7245  227.2180 H   0  0  0  0  0  0  0  0  0  0  0  0
  140.6530   68.1520  228.3060 C   0  0  0  0  0  0  0  0  0  0  0  0
  140.8581   67.4584  229.1347 H   0  0  0  0  0  0  0  0  0  0  0  0
  141.1880   69.4430  228.3280 C   0  0  0  0  0  0  0  0  0  0  0  0
  141.8116   69.7644  229.1752 H   0  0  0  0  0  0  0  0  0  0  0  0
  140.9320   70.3270  227.2750 C   0  0  0  0  0  0  0  0  0  0  0  0
  141.3578   71.3411  227.2935 H   0  0  0  0  0  0  0  0  0  0  0  0
  140.1300   69.9210  226.1910 C   0  0  0  0  0  0  0  0  0  0  0  0
  139.8460   70.7680  225.1070 C   0  0  0  0  0  0  0  0  0  0  0  0
  140.3280   71.9360  225.0880 O   0  0  0  0  0  0  0  0  0  0  0  0
  1  2  1  0
  2  3  1  0
  3  4  1  0
  3  5  1  0
  3  6  1  0
  6  7  1  0
  6  8  1  0
  6  9  1  0
  9 10  1  0
 10 11  1  0
 11 12  1  0
 11 13  2  0
 13 14  1  0
 13 15  1  0
 15 16  1  0
 16 17  2  0
 17 18  1  0
 17 19  1  0
 19 20  1  0
 19 21  1  0
 21 22  1  0
 10 23  2  0
 23 24  1  0
 24 25  2  0
 25 26  1  0
 25 27  1  0
 27 28  1  0
 27 29  2  0
 29 30  1  0
 29 31  1  0
 31 32  1  0
 31 33  2  0
 33 34  1  0
 34 35  2  0
 34  9  1  0
 21 15  2  0
 33 24  1  0
M  END
>  <UniqueID>  (24) 
401

>  <SMILES>  (24) 
O=c1c2ccccc2nc(/C=C\c2c[nH]cn2)n1CCO

>  <Energy>  (24) 
79.69483078507324

>  <Genealogy>  (24) 
O=c1c2ccccc2nc(C=Cc2c[nH]cn2)n1CCO (tautomer)
O=c1c2ccccc2nc(/C=C\c2c[nH]cn2)n1CCO (cis-trans isomerization)
O=c1c2ccccc2nc(/C=C\c2c[nH]cn2)n1CCO (3D coordinates assigned)
O=c1c2ccccc2nc(/C=C\c2c[nH]cn2)n1CCO (optimized conformer: 79.69483078507324 kcal/mol)

>  <smiles>  (24) 
O=c1c2ccccc2nc(/C=C/c2cnc[nH]2)n1CCO

>  <score_type>  (24) 
oracle

>  <origin>  (24) 
autodockgpu

>  <m_score__min__energy>  (24) 
-6.6299999999999999

>  <m_primary>  (24) 
energy

>  <meeko>  (24) 
{"free_energy": -6.34, "intermolecular_energy": -8.13, "internal_energy": -1.33, "cluster_size": 6, "cluster_id": 2, "rank_in_cluster": 2}

>  <energy>  (24) 
-6.57

>  <cluster_rmsd>  (24) 
0.93

>  <rmsd>  (24) 
272.41

>  <cluster>  (24) 
1

$$$$
ISFQUULIKQOBJE-LYKDAOFZNA-N
     RDKit          3D

 35 37  0  0  0  0  0  0  0  0999 V2000
  137.2730   68.4730  224.7290 H   0  0  0  0  0  0  0  0  0  0  0  0
  136.5830   68.9080  224.1650 O   0  0  0  0  0  0  0  0  0  0  0  0
  137.0490   68.8220  222.8470 C   0  0  0  0  0  0  0  0  0  0  0  0
  136.8105   69.7551  222.3155 H   0  0  0  0  0  0  0  0  0  0  0  0
  136.5617   67.9712  222.3484 H   0  0  0  0  0  0  0  0  0  0  0  0
  138.5630   68.6070  222.8360 C   0  0  0  0  0  0  0  0  0  0  0  0
  138.9569   68.8719  221.8437 H   0  0  0  0  0  0  0  0  0  0  0  0
  138.7689   67.5504  223.0624 H   0  0  0  0  0  0  0  0  0  0  0  0
  139.2250   69.4470  223.8600 N   0  0  0  0  0  0  0  0  0  0  0  0
  139.5370   70.7660  223.6090 C   0  0  0  0  0  0  0  0  0  0  0  0
  139.2890   71.4040  222.3030 C   0  0  0  0  0  0  0  0  0  0  0  0
  138.2592   71.4058  221.9164 H   0  0  0  0  0  0  0  0  0  0  0  0
  140.2420   71.9820  221.5580 C   0  0  0  0  0  0  0  0  0  0  0  0
  140.7823   71.3444  220.8428 H   0  0  0  0  0  0  0  0  0  0  0  0
  140.6240   73.4090  221.6220 C   0  0  0  0  0  0  0  0  0  0  0  0
  139.8560   74.4050  222.1120 N   0  0  0  0  0  0  0  0  0  0  0  0
  140.6160   75.5100  221.9580 C   0  0  0  0  0  0  0  0  0  0  0  0
  140.2935   76.5178  222.2586 H   0  0  0  0  0  0  0  0  0  0  0  0
  141.8110   75.2460  221.3970 N   0  0  0  0  0  0  0  0  0  0  0  0
  142.5680   75.9290  221.1750 H   0  0  0  0  0  0  0  0  0  0  0  0
  141.8220   73.9230  221.1810 C   0  0  0  0  0  0  0  0  0  0  0  0
  142.6447   73.3487  220.7301 H   0  0  0  0  0  0  0  0  0  0  0  0
  140.0910   71.5360  224.5800 N   0  0  0  0  0  0  0  0  0  0  0  0
  140.3660   71.0450  225.8100 C   0  0  0  0  0  0  0  0  0  0  0  0
  140.9450   71.8710  226.7800 C   0  0  0  0  0  0  0  0  0  0  0  0
  141.1775   72.9195  226.5421 H   0  0  0  0  0  0  0  0  0  0  0  0
  141.2280   71.3630  228.0520 C   0  0  0  0  0  0  0  0  0  0  0  0
  141.6826   72.0128  228.8142 H   0  0  0  0  0  0  0  0  0  0  0  0
  140.9340   70.0310  228.3560 C   0  0  0  0  0  0  0  0  0  0  0  0
  141.1587   69.6344  229.3571 H   0  0  0  0  0  0  0  0  0  0  0  0
  140.3550   69.2010  227.3910 C   0  0  0  0  0  0  0  0  0  0  0  0
  140.1241   68.1534  227.6345 H   0  0  0  0  0  0  0  0  0  0  0  0
  140.0670   69.7050  226.1070 C   0  0  0  0  0  0  0  0  0  0  0  0
  139.4820   68.9150  225.1030 C   0  0  0  0  0  0  0  0  0  0  0  0
  139.1890   67.7110  225.3510 O   0  0  0  0  0  0  0  0  0  0  0  0
  1  2  1  0
  2  3  1  0
  3  4  1  0
  3  5  1  0
  3  6  1  0
  6  7  1  0
  6  8  1  0
  6  9  1  0
  9 10  1  0
 10 11  1  0
 11 12  1  0
 11 13  2  0
 13 14  1  0
 13 15  1  0
 15 16  1  0
 16 17  2  0
 17 18  1  0
 17 19  1  0
 19 20  1  0
 19 21  1  0
 21 22  1  0
 10 23  2  0
 23 24  1  0
 24 25  2  0
 25 26  1  0
 25 27  1  0
 27 28  1  0
 27 29  2  0
 29 30  1  0
 29 31  1  0
 31 32  1  0
 31 33  2  0
 33 34  1  0
 34 35  2  0
 34  9  1  0
 21 15  2  0
 33 24  1  0
M  END
>  <UniqueID>  (25) 
401

>  <SMILES>  (25) 
O=c1c2ccccc2nc(/C=C\c2c[nH]cn2)n1CCO

>  <Energy>  (25) 
79.69483078507324

>  <Genealogy>  (25) 
O=c1c2ccccc2nc(C=Cc2c[nH]cn2)n1CCO (tautomer)
O=c1c2ccccc2nc(/C=C\c2c[nH]cn2)n1CCO (cis-trans isomerization)
O=c1c2ccccc2nc(/C=C\c2c[nH]cn2)n1CCO (3D coordinates assigned)
O=c1c2ccccc2nc(/C=C\c2c[nH]cn2)n1CCO (optimized conformer: 79.69483078507324 kcal/mol)

>  <smiles>  (25) 
O=c1c2ccccc2nc(/C=C/c2cnc[nH]2)n1CCO

>  <score_type>  (25) 
oracle

>  <origin>  (25) 
autodockgpu

>  <m_score__min__energy>  (25) 
-6.6299999999999999

>  <m_primary>  (25) 
energy

>  <meeko>  (25) 
{"free_energy": -6.55, "intermolecular_energy": -8.34, "internal_energy": -1.39, "cluster_size": 13, "cluster_id": 1, "rank_in_cluster": 6}

>  <energy>  (25) 
-6.55

>  <cluster_rmsd>  (25) 
0.93

>  <rmsd>  (25) 
272.45

>  <cluster>  (25) 
1

$$$$
ISFQUULIKQOBJE-LYKDAOFZNA-N
     RDKit          3D

 35 37  0  0  0  0  0  0  0  0999 V2000
  137.2790   68.4180  224.6280 H   0  0  0  0  0  0  0  0  0  0  0  0
  136.6770   68.9080  224.0110 O   0  0  0  0  0  0  0  0  0  0  0  0
  137.1840   68.6960  222.7230 C   0  0  0  0  0  0  0  0  0  0  0  0
  136.9731   69.5774  222.0995 H   0  0  0  0  0  0  0  0  0  0  0  0
  136.7036   67.8066  222.2892 H   0  0  0  0  0  0  0  0  0  0  0  0
  138.6950   68.4690  222.7830 C   0  0  0  0  0  0  0  0  0  0  0  0
  139.1308   68.6857  221.7965 H   0  0  0  0  0  0  0  0  0  0  0  0
  138.8812   67.4222  223.0651 H   0  0  0  0  0  0  0  0  0  0  0  0
  139.3240   69.3490  223.7940 N   0  0  0  0  0  0  0  0  0  0  0  0
  139.6760   70.6470  223.4910 C   0  0  0  0  0  0  0  0  0  0  0  0
  139.5050   71.2200  222.1430 C   0  0  0  0  0  0  0  0  0  0  0  0
  138.5282   71.1010  221.6515 H   0  0  0  0  0  0  0  0  0  0  0  0
  140.4670   71.8770  221.4800 C   0  0  0  0  0  0  0  0  0  0  0  0
  141.1147   71.2893  220.8128 H   0  0  0  0  0  0  0  0  0  0  0  0
  140.7260   73.3300  221.5750 C   0  0  0  0  0  0  0  0  0  0  0  0
  139.8810   74.2450  222.0930 N   0  0  0  0  0  0  0  0  0  0  0  0
  140.5420   75.4140  221.9590 C   0  0  0  0  0  0  0  0  0  0  0  0
  140.1368   76.3836  222.2841 H   0  0  0  0  0  0  0  0  0  0  0  0
  141.7500   75.2660  221.3850 N   0  0  0  0  0  0  0  0  0  0  0  0
  142.4450   76.0160  221.1740 H   0  0  0  0  0  0  0  0  0  0  0  0
  141.8720   73.9540  221.1380 C   0  0  0  0  0  0  0  0  0  0  0  0
  142.7367   73.4624  220.6683 H   0  0  0  0  0  0  0  0  0  0  0  0
  140.1980   71.4560  224.4480 N   0  0  0  0  0  0  0  0  0  0  0  0
  140.4020   71.0250  225.7130 C   0  0  0  0  0  0  0  0  0  0  0  0
  140.9500   71.8900  226.6680 C   0  0  0  0  0  0  0  0  0  0  0  0
  141.2152   72.9204  226.3890 H   0  0  0  0  0  0  0  0  0  0  0  0
  141.1600   71.4440  227.9760 C   0  0  0  0  0  0  0  0  0  0  0  0
  141.5906   72.1243  228.7255 H   0  0  0  0  0  0  0  0  0  0  0  0
  140.8240   70.1360  228.3330 C   0  0  0  0  0  0  0  0  0  0  0  0
  140.9915   69.7883  229.3631 H   0  0  0  0  0  0  0  0  0  0  0  0
  140.2750   69.2670  227.3840 C   0  0  0  0  0  0  0  0  0  0  0  0
  140.0102   68.2382  227.6693 H   0  0  0  0  0  0  0  0  0  0  0  0
  140.0610   69.7080  226.0640 C   0  0  0  0  0  0  0  0  0  0  0  0
  139.5080   68.8780  225.0740 C   0  0  0  0  0  0  0  0  0  0  0  0
  139.1790   67.6940  225.3690 O   0  0  0  0  0  0  0  0  0  0  0  0
  1  2  1  0
  2  3  1  0
  3  4  1  0
  3  5  1  0
  3  6  1  0
  6  7  1  0
  6  8  1  0
  6  9  1  0
  9 10  1  0
 10 11  1  0
 11 12  1  0
 11 13  2  0
 13 14  1  0
 13 15  1  0
 15 16  1  0
 16 17  2  0
 17 18  1  0
 17 19  1  0
 19 20  1  0
 19 21  1  0
 21 22  1  0
 10 23  2  0
 23 24  1  0
 24 25  2  0
 25 26  1  0
 25 27  1  0
 27 28  1  0
 27 29  2  0
 29 30  1  0
 29 31  1  0
 31 32  1  0
 31 33  2  0
 33 34  1  0
 34 35  2  0
 34  9  1  0
 21 15  2  0
 33 24  1  0
M  END
>  <UniqueID>  (26) 
401

>  <SMILES>  (26) 
O=c1c2ccccc2nc(/C=C\c2c[nH]cn2)n1CCO

>  <Energy>  (26) 
79.69483078507324

>  <Genealogy>  (26) 
O=c1c2ccccc2nc(C=Cc2c[nH]cn2)n1CCO (tautomer)
O=c1c2ccccc2nc(/C=C\c2c[nH]cn2)n1CCO (cis-trans isomerization)
O=c1c2ccccc2nc(/C=C\c2c[nH]cn2)n1CCO (3D coordinates assigned)
O=c1c2ccccc2nc(/C=C\c2c[nH]cn2)n1CCO (optimized conformer: 79.69483078507324 kcal/mol)

>  <smiles>  (26) 
O=c1c2ccccc2nc(/C=C/c2cnc[nH]2)n1CCO

>  <score_type>  (26) 
oracle

>  <origin>  (26) 
autodockgpu

>  <m_score__min__energy>  (26) 
-6.6299999999999999

>  <m_primary>  (26) 
energy

>  <meeko>  (26) 
{"free_energy": -6.54, "intermolecular_energy": -8.33, "internal_energy": -1.4, "cluster_size": 13, "cluster_id": 1, "rank_in_cluster": 10}

>  <energy>  (26) 
-6.55

>  <cluster_rmsd>  (26) 
0.91

>  <rmsd>  (26) 
272.44

>  <cluster>  (26) 
1

$$$$
ISFQUULIKQOBJE-LYKDAOFZNA-N
     RDKit          3D

 35 37  0  0  0  0  0  0  0  0999 V2000
  139.7580   67.0850  224.0410 H   0  0  0  0  0  0  0  0  0  0  0  0
  139.1580   66.6630  223.3740 O   0  0  0  0  0  0  0  0  0  0  0  0
  138.8650   67.6570  222.4310 C   0  0  0  0  0  0  0  0  0  0  0  0
  138.2817   67.2173  221.6086 H   0  0  0  0  0  0  0  0  0  0  0  0
  139.8064   68.0727  222.0425 H   0  0  0  0  0  0  0  0  0  0  0  0
  138.0550   68.7780  223.0820 C   0  0  0  0  0  0  0  0  0  0  0  0
  137.2174   68.3378  223.6430 H   0  0  0  0  0  0  0  0  0  0  0  0
  137.6805   69.4449  222.2914 H   0  0  0  0  0  0  0  0  0  0  0  0
  138.8960   69.5700  224.0090 N   0  0  0  0  0  0  0  0  0  0  0  0
  139.3650   70.8180  223.6580 C   0  0  0  0  0  0  0  0  0  0  0  0
  139.1140   71.4150  222.3340 C   0  0  0  0  0  0  0  0  0  0  0  0
  138.0913   71.3678  221.9318 H   0  0  0  0  0  0  0  0  0  0  0  0
  140.0560   72.0120  221.5900 C   0  0  0  0  0  0  0  0  0  0  0  0
  140.6257   71.3807  220.8922 H   0  0  0  0  0  0  0  0  0  0  0  0
  140.3900   73.4520  221.6330 C   0  0  0  0  0  0  0  0  0  0  0  0
  139.5930   74.4280  222.1180 N   0  0  0  0  0  0  0  0  0  0  0  0
  140.3140   75.5550  221.9440 C   0  0  0  0  0  0  0  0  0  0  0  0
  139.9603   76.5550  222.2353 H   0  0  0  0  0  0  0  0  0  0  0  0
  141.5120   75.3250  221.3760 N   0  0  0  0  0  0  0  0  0  0  0  0
  142.2450   76.0300  221.1390 H   0  0  0  0  0  0  0  0  0  0  0  0
  141.5660   74.0000  221.1760 C   0  0  0  0  0  0  0  0  0  0  0  0
  142.4040   73.4480  220.7254 H   0  0  0  0  0  0  0  0  0  0  0  0
  140.0860   71.5520  224.5440 N   0  0  0  0  0  0  0  0  0  0  0  0
  140.3780   71.0920  225.7820 C   0  0  0  0  0  0  0  0  0  0  0  0
  141.1310   71.8770  226.6610 C   0  0  0  0  0  0  0  0  0  0  0  0
  141.4867   72.8688  226.3451 H   0  0  0  0  0  0  0  0  0  0  0  0
  141.4320   71.4020  227.9410 C   0  0  0  0  0  0  0  0  0  0  0  0
  142.0227   72.0212  228.6322 H   0  0  0  0  0  0  0  0  0  0  0  0
  140.9830   70.1410  228.3430 C   0  0  0  0  0  0  0  0  0  0  0  0
  141.2233   69.7687  229.3498 H   0  0  0  0  0  0  0  0  0  0  0  0
  140.2290   69.3510  227.4690 C   0  0  0  0  0  0  0  0  0  0  0  0
  139.8755   68.3601  227.7902 H   0  0  0  0  0  0  0  0  0  0  0  0
  139.9220   69.8230  226.1780 C   0  0  0  0  0  0  0  0  0  0  0  0
  139.1650   69.0720  225.2630 C   0  0  0  0  0  0  0  0  0  0  0  0
  138.7310   67.9350  225.6020 O   0  0  0  0  0  0  0  0  0  0  0  0
  1  2  1  0
  2  3  1  0
  3  4  1  0
  3  5  1  0
  3  6  1  0
  6  7  1  0
  6  8  1  0
  6  9  1  0
  9 10  1  0
 10 11  1  0
 11 12  1  0
 11 13  2  0
 13 14  1  0
 13 15  1  0
 15 16  1  0
 16 17  2  0
 17 18  1  0
 17 19  1  0
 19 20  1  0
 19 21  1  0
 21 22  1  0
 10 23  2  0
 23 24  1  0
 24 25  2  0
 25 26  1  0
 25 27  1  0
 27 28  1  0
 27 29  2  0
 29 30  1  0
 29 31  1  0
 31 32  1  0
 31 33  2  0
 33 34  1  0
 34 35  2  0
 34  9  1  0
 21 15  2  0
 33 24  1  0
M  END
>  <UniqueID>  (27) 
401

>  <SMILES>  (27) 
O=c1c2ccccc2nc(/C=C\c2c[nH]cn2)n1CCO

>  <Energy>  (27) 
79.69483078507324

>  <Genealogy>  (27) 
O=c1c2ccccc2nc(C=Cc2c[nH]cn2)n1CCO (tautomer)
O=c1c2ccccc2nc(/C=C\c2c[nH]cn2)n1CCO (cis-trans isomerization)
O=c1c2ccccc2nc(/C=C\c2c[nH]cn2)n1CCO (3D coordinates assigned)
O=c1c2ccccc2nc(/C=C\c2c[nH]cn2)n1CCO (optimized conformer: 79.69483078507324 kcal/mol)

>  <smiles>  (27) 
O=c1c2ccccc2nc(/C=C/c2cnc[nH]2)n1CCO

>  <score_type>  (27) 
oracle

>  <origin>  (27) 
autodockgpu

>  <m_score__min__energy>  (27) 
-6.6299999999999999

>  <m_primary>  (27) 
energy

>  <meeko>  (27) 
{"free_energy": -6.62, "intermolecular_energy": -8.41, "internal_energy": -1.29, "cluster_size": 13, "cluster_id": 1, "rank_in_cluster": 2}

>  <energy>  (27) 
-6.55

>  <cluster_rmsd>  (27) 
0.91

>  <rmsd>  (27) 
272.41

>  <cluster>  (27) 
1

$$$$
ISFQUULIKQOBJE-LYKDAOFZNA-N
     RDKit          3D

 35 37  0  0  0  0  0  0  0  0999 V2000
  137.2460   68.5220  224.6120 H   0  0  0  0  0  0  0  0  0  0  0  0
  136.5330   68.8710  224.0180 O   0  0  0  0  0  0  0  0  0  0  0  0
  137.0880   68.9220  222.7330 C   0  0  0  0  0  0  0  0  0  0  0  0
  136.9287   69.9239  222.3077 H   0  0  0  0  0  0  0  0  0  0  0  0
  136.6013   68.1645  222.1010 H   0  0  0  0  0  0  0  0  0  0  0  0
  138.5880   68.6320  222.7950 C   0  0  0  0  0  0  0  0  0  0  0  0
  139.0363   68.8432  221.8130 H   0  0  0  0  0  0  0  0  0  0  0  0
  138.7303   67.5748  223.0636 H   0  0  0  0  0  0  0  0  0  0  0  0
  139.2480   69.4730  223.8200 N   0  0  0  0  0  0  0  0  0  0  0  0
  139.5980   70.7800  223.5540 C   0  0  0  0  0  0  0  0  0  0  0  0
  139.3930   71.4010  222.2330 C   0  0  0  0  0  0  0  0  0  0  0  0
  138.3812   71.3771  221.8022 H   0  0  0  0  0  0  0  0  0  0  0  0
  140.3650   71.9930  221.5250 C   0  0  0  0  0  0  0  0  0  0  0  0
  140.9584   71.3584  220.8503 H   0  0  0  0  0  0  0  0  0  0  0  0
  140.7030   73.4320  221.5790 C   0  0  0  0  0  0  0  0  0  0  0  0
  139.9300   74.3990  222.1160 N   0  0  0  0  0  0  0  0  0  0  0  0
  140.6440   75.5290  221.9290 C   0  0  0  0  0  0  0  0  0  0  0  0
  140.3053   76.5240  222.2534 H   0  0  0  0  0  0  0  0  0  0  0  0
  141.8150   75.3080  221.3030 N   0  0  0  0  0  0  0  0  0  0  0  0
  142.5370   76.0170  221.0460 H   0  0  0  0  0  0  0  0  0  0  0  0
  141.8580   73.9870  221.0780 C   0  0  0  0  0  0  0  0  0  0  0  0
  142.6737   73.4423  220.5801 H   0  0  0  0  0  0  0  0  0  0  0  0
  140.1490   71.5520  224.5250 N   0  0  0  0  0  0  0  0  0  0  0  0
  140.3860   71.0750  225.7680 C   0  0  0  0  0  0  0  0  0  0  0  0
  140.9640   71.9020  226.7380 C   0  0  0  0  0  0  0  0  0  0  0  0
  141.2272   72.9406  226.4889 H   0  0  0  0  0  0  0  0  0  0  0  0
  141.2070   71.4090  228.0230 C   0  0  0  0  0  0  0  0  0  0  0  0
  141.6602   72.0606  228.7846 H   0  0  0  0  0  0  0  0  0  0  0  0
  140.8750   70.0890  228.3420 C   0  0  0  0  0  0  0  0  0  0  0  0
  141.0697   69.7033  229.3536 H   0  0  0  0  0  0  0  0  0  0  0  0
  140.2960   69.2580  227.3780 C   0  0  0  0  0  0  0  0  0  0  0  0
  140.0337   68.2207  227.6334 H   0  0  0  0  0  0  0  0  0  0  0  0
  140.0480   69.7470  226.0800 C   0  0  0  0  0  0  0  0  0  0  0  0
  139.4650   68.9550  225.0760 C   0  0  0  0  0  0  0  0  0  0  0  0
  139.1380   67.7630  225.3380 O   0  0  0  0  0  0  0  0  0  0  0  0
  1  2  1  0
  2  3  1  0
  3  4  1  0
  3  5  1  0
  3  6  1  0
  6  7  1  0
  6  8  1  0
  6  9  1  0
  9 10  1  0
 10 11  1  0
 11 12  1  0
 11 13  2  0
 13 14  1  0
 13 15  1  0
 15 16  1  0
 16 17  2  0
 17 18  1  0
 17 19  1  0
 19 20  1  0
 19 21  1  0
 21 22  1  0
 10 23  2  0
 23 24  1  0
 24 25  2  0
 25 26  1  0
 25 27  1  0
 27 28  1  0
 27 29  2  0
 29 30  1  0
 29 31  1  0
 31 32  1  0
 31 33  2  0
 33 34  1  0
 34 35  2  0
 34  9  1  0
 21 15  2  0
 33 24  1  0
M  END
>  <UniqueID>  (28) 
401

>  <SMILES>  (28) 
O=c1c2ccccc2nc(/C=C\c2c[nH]cn2)n1CCO

>  <Energy>  (28) 
79.69483078507324

>  <Genealogy>  (28) 
O=c1c2ccccc2nc(C=Cc2c[nH]cn2)n1CCO (tautomer)
O=c1c2ccccc2nc(/C=C\c2c[nH]cn2)n1CCO (cis-trans isomerization)
O=c1c2ccccc2nc(/C=C\c2c[nH]cn2)n1CCO (3D coordinates assigned)
O=c1c2ccccc2nc(/C=C\c2c[nH]cn2)n1CCO (optimized conformer: 79.69483078507324 kcal/mol)

>  <smiles>  (28) 
O=c1c2ccccc2nc(/C=C/c2cnc[nH]2)n1CCO

>  <score_type>  (28) 
oracle

>  <origin>  (28) 
autodockgpu

>  <m_score__min__energy>  (28) 
-6.6299999999999999

>  <m_primary>  (28) 
energy

>  <meeko>  (28) 
{"free_energy": -6.57, "intermolecular_energy": -8.36, "internal_energy": -1.38, "cluster_size": 13, "cluster_id": 1, "rank_in_cluster": 4}

>  <energy>  (28) 
-6.54

>  <cluster_rmsd>  (28) 
0.94

>  <rmsd>  (28) 
272.42

>  <cluster>  (28) 
1

$$$$
ISFQUULIKQOBJE-LYKDAOFZNA-N
     RDKit          3D

 35 37  0  0  0  0  0  0  0  0999 V2000
  137.2330   68.4870  224.7660 H   0  0  0  0  0  0  0  0  0  0  0  0
  136.5170   68.8850  224.2070 O   0  0  0  0  0  0  0  0  0  0  0  0
  137.0100   68.8990  222.8960 C   0  0  0  0  0  0  0  0  0  0  0  0
  136.8207   69.8851  222.4468 H   0  0  0  0  0  0  0  0  0  0  0  0
  136.5016   68.1174  222.3124 H   0  0  0  0  0  0  0  0  0  0  0  0
  138.5140   68.6240  222.8960 C   0  0  0  0  0  0  0  0  0  0  0  0
  138.9208   68.8478  221.8988 H   0  0  0  0  0  0  0  0  0  0  0  0
  138.6772   67.5662  223.1497 H   0  0  0  0  0  0  0  0  0  0  0  0
  139.2060   69.4630  223.9010 N   0  0  0  0  0  0  0  0  0  0  0  0
  139.5350   70.7740  223.6310 C   0  0  0  0  0  0  0  0  0  0  0  0
  139.2750   71.4040  222.3240 C   0  0  0  0  0  0  0  0  0  0  0  0
  138.2431   71.3963  221.9431 H   0  0  0  0  0  0  0  0  0  0  0  0
  140.2200   71.9860  221.5710 C   0  0  0  0  0  0  0  0  0  0  0  0
  140.7528   71.3518  220.8471 H   0  0  0  0  0  0  0  0  0  0  0  0
  140.6020   73.4120  221.6370 C   0  0  0  0  0  0  0  0  0  0  0  0
  139.8360   74.4080  222.1300 N   0  0  0  0  0  0  0  0  0  0  0  0
  140.5960   75.5120  221.9770 C   0  0  0  0  0  0  0  0  0  0  0  0
  140.2744   76.5194  222.2799 H   0  0  0  0  0  0  0  0  0  0  0  0
  141.7900   75.2490  221.4140 N   0  0  0  0  0  0  0  0  0  0  0  0
  142.5480   75.9320  221.1920 H   0  0  0  0  0  0  0  0  0  0  0  0
  141.8000   73.9260  221.1950 C   0  0  0  0  0  0  0  0  0  0  0  0
  142.6216   73.3521  220.7416 H   0  0  0  0  0  0  0  0  0  0  0  0
  140.1180   71.5440  224.5860 N   0  0  0  0  0  0  0  0  0  0  0  0
  140.4060   71.0600  225.8160 C   0  0  0  0  0  0  0  0  0  0  0  0
  141.0130   71.8850  226.7680 C   0  0  0  0  0  0  0  0  0  0  0  0
  141.2569   72.9278  226.5168 H   0  0  0  0  0  0  0  0  0  0  0  0
  141.3100   71.3840  228.0400 C   0  0  0  0  0  0  0  0  0  0  0  0
  141.7875   72.0335  228.7884 H   0  0  0  0  0  0  0  0  0  0  0  0
  141.0010   70.0600  228.3610 C   0  0  0  0  0  0  0  0  0  0  0  0
  141.2371   69.6684  229.3615 H   0  0  0  0  0  0  0  0  0  0  0  0
  140.3920   69.2310  227.4130 C   0  0  0  0  0  0  0  0  0  0  0  0
  140.1478   68.1898  227.6703 H   0  0  0  0  0  0  0  0  0  0  0  0
  140.0910   69.7270  226.1300 C   0  0  0  0  0  0  0  0  0  0  0  0
  139.4750   68.9380  225.1440 C   0  0  0  0  0  0  0  0  0  0  0  0
  139.1680   67.7410  225.4080 O   0  0  0  0  0  0  0  0  0  0  0  0
  1  2  1  0
  2  3  1  0
  3  4  1  0
  3  5  1  0
  3  6  1  0
  6  7  1  0
  6  8  1  0
  6  9  1  0
  9 10  1  0
 10 11  1  0
 11 12  1  0
 11 13  2  0
 13 14  1  0
 13 15  1  0
 15 16  1  0
 16 17  2  0
 17 18  1  0
 17 19  1  0
 19 20  1  0
 19 21  1  0
 21 22  1  0
 10 23  2  0
 23 24  1  0
 24 25  2  0
 25 26  1  0
 25 27  1  0
 27 28  1  0
 27 29  2  0
 29 30  1  0
 29 31  1  0
 31 32  1  0
 31 33  2  0
 33 34  1  0
 34 35  2  0
 34  9  1  0
 21 15  2  0
 33 24  1  0
M  END
>  <UniqueID>  (29) 
401

>  <SMILES>  (29) 
O=c1c2ccccc2nc(/C=C\c2c[nH]cn2)n1CCO

>  <Energy>  (29) 
79.69483078507324

>  <Genealogy>  (29) 
O=c1c2ccccc2nc(C=Cc2c[nH]cn2)n1CCO (tautomer)
O=c1c2ccccc2nc(/C=C\c2c[nH]cn2)n1CCO (cis-trans isomerization)
O=c1c2ccccc2nc(/C=C\c2c[nH]cn2)n1CCO (3D coordinates assigned)
O=c1c2ccccc2nc(/C=C\c2c[nH]cn2)n1CCO (optimized conformer: 79.69483078507324 kcal/mol)

>  <smiles>  (29) 
O=c1c2ccccc2nc(/C=C/c2cnc[nH]2)n1CCO

>  <score_type>  (29) 
oracle

>  <origin>  (29) 
autodockgpu

>  <m_score__min__energy>  (29) 
-6.6299999999999999

>  <m_primary>  (29) 
energy

>  <meeko>  (29) 
{"free_energy": -6.54, "intermolecular_energy": -8.33, "internal_energy": -1.38, "cluster_size": 13, "cluster_id": 1, "rank_in_cluster": 9}

>  <energy>  (29) 
-6.54

>  <cluster_rmsd>  (29) 
0.92

>  <rmsd>  (29) 
272.46

>  <cluster>  (29) 
1

$$$$
ISFQUULIKQOBJE-LYKDAOFZNA-N
     RDKit          3D

 35 37  0  0  0  0  0  0  0  0999 V2000
  139.7780   73.2720  223.4760 H   0  0  0  0  0  0  0  0  0  0  0  0
  140.2860   73.1090  222.6400 O   0  0  0  0  0  0  0  0  0  0  0  0
  140.1360   71.7460  222.3530 C   0  0  0  0  0  0  0  0  0  0  0  0
  140.9716   71.1864  222.7986 H   0  0  0  0  0  0  0  0  0  0  0  0
  140.1313   71.6065  221.2619 H   0  0  0  0  0  0  0  0  0  0  0  0
  138.8170   71.2290  222.9290 C   0  0  0  0  0  0  0  0  0  0  0  0
  138.2774   70.6717  222.1491 H   0  0  0  0  0  0  0  0  0  0  0  0
  138.2211   72.0888  223.2690 H   0  0  0  0  0  0  0  0  0  0  0  0
  139.0590   70.3350  224.0840 N   0  0  0  0  0  0  0  0  0  0  0  0
  138.5390   69.0580  224.1200 C   0  0  0  0  0  0  0  0  0  0  0  0
  137.6730   68.5260  223.0520 C   0  0  0  0  0  0  0  0  0  0  0  0
  138.1376   67.9033  222.2733 H   0  0  0  0  0  0  0  0  0  0  0  0
  136.3550   68.7540  222.9710 C   0  0  0  0  0  0  0  0  0  0  0  0
  135.9081   68.7924  221.9666 H   0  0  0  0  0  0  0  0  0  0  0  0
  135.4540   68.9580  224.1260 C   0  0  0  0  0  0  0  0  0  0  0  0
  134.4670   68.1200  224.5080 N   0  0  0  0  0  0  0  0  0  0  0  0
  133.9290   68.7210  225.5900 C   0  0  0  0  0  0  0  0  0  0  0  0
  133.0882   68.3033  226.1631 H   0  0  0  0  0  0  0  0  0  0  0  0
  134.5310   69.8860  225.8930 N   0  0  0  0  0  0  0  0  0  0  0  0
  134.2970   70.5330  226.6780 H   0  0  0  0  0  0  0  0  0  0  0  0
  135.4930   70.0430  224.9720 C   0  0  0  0  0  0  0  0  0  0  0  0
  136.1910   70.8905  224.9045 H   0  0  0  0  0  0  0  0  0  0  0  0
  138.8190   68.2340  225.1620 N   0  0  0  0  0  0  0  0  0  0  0  0
  139.5960   68.6290  226.1960 C   0  0  0  0  0  0  0  0  0  0  0  0
  139.8540   67.7500  227.2540 C   0  0  0  0  0  0  0  0  0  0  0  0
  139.4239   66.7376  227.2450 H   0  0  0  0  0  0  0  0  0  0  0  0
  140.6580   68.1580  228.3220 C   0  0  0  0  0  0  0  0  0  0  0  0
  140.8604   67.4663  229.1530 H   0  0  0  0  0  0  0  0  0  0  0  0
  141.2050   69.4440  228.3350 C   0  0  0  0  0  0  0  0  0  0  0  0
  141.8364   69.7628  229.1774 H   0  0  0  0  0  0  0  0  0  0  0  0
  140.9520   70.3270  227.2800 C   0  0  0  0  0  0  0  0  0  0  0  0
  141.3864   71.3375  227.2933 H   0  0  0  0  0  0  0  0  0  0  0  0
  140.1420   69.9240  226.2010 C   0  0  0  0  0  0  0  0  0  0  0  0
  139.8610   70.7690  225.1140 C   0  0  0  0  0  0  0  0  0  0  0  0
  140.3540   71.9320  225.0890 O   0  0  0  0  0  0  0  0  0  0  0  0
  1  2  1  0
  2  3  1  0
  3  4  1  0
  3  5  1  0
  3  6  1  0
  6  7  1  0
  6  8  1  0
  6  9  1  0
  9 10  1  0
 10 11  1  0
 11 12  1  0
 11 13  2  0
 13 14  1  0
 13 15  1  0
 15 16  1  0
 16 17  2  0
 17 18  1  0
 17 19  1  0
 19 20  1  0
 19 21  1  0
 21 22  1  0
 10 23  2  0
 23 24  1  0
 24 25  2  0
 25 26  1  0
 25 27  1  0
 27 28  1  0
 27 29  2  0
 29 30  1  0
 29 31  1  0
 31 32  1  0
 31 33  2  0
 33 34  1  0
 34 35  2  0
 34  9  1  0
 21 15  2  0
 33 24  1  0
M  END
>  <UniqueID>  (30) 
401

>  <SMILES>  (30) 
O=c1c2ccccc2nc(/C=C\c2c[nH]cn2)n1CCO

>  <Energy>  (30) 
79.69483078507324

>  <Genealogy>  (30) 
O=c1c2ccccc2nc(C=Cc2c[nH]cn2)n1CCO (tautomer)
O=c1c2ccccc2nc(/C=C\c2c[nH]cn2)n1CCO (cis-trans isomerization)
O=c1c2ccccc2nc(/C=C\c2c[nH]cn2)n1CCO (3D coordinates assigned)
O=c1c2ccccc2nc(/C=C\c2c[nH]cn2)n1CCO (optimized conformer: 79.69483078507324 kcal/mol)

>  <smiles>  (30) 
O=c1c2ccccc2nc(/C=C/c2cnc[nH]2)n1CCO

>  <score_type>  (30) 
oracle

>  <origin>  (30) 
autodockgpu

>  <m_score__min__energy>  (30) 
-6.6299999999999999

>  <m_primary>  (30) 
energy

>  <meeko>  (30) 
{"free_energy": -6.34, "intermolecular_energy": -8.13, "internal_energy": -1.34, "cluster_size": 6, "cluster_id": 2, "rank_in_cluster": 4}

>  <energy>  (30) 
-6.54

>  <cluster_rmsd>  (30) 
0.91

>  <rmsd>  (30) 
272.4

>  <cluster>  (30) 
1

$$$$
ISFQUULIKQOBJE-LYKDAOFZNA-N
     RDKit          3D

 35 37  0  0  0  0  0  0  0  0999 V2000
  139.7600   73.2900  223.4890 H   0  0  0  0  0  0  0  0  0  0  0  0
  140.3040   73.1310  222.6750 O   0  0  0  0  0  0  0  0  0  0  0  0
  140.1430   71.7760  222.3590 C   0  0  0  0  0  0  0  0  0  0  0  0
  140.9778   71.2012  222.7864 H   0  0  0  0  0  0  0  0  0  0  0  0
  140.1301   71.6609  221.2651 H   0  0  0  0  0  0  0  0  0  0  0  0
  138.8250   71.2550  222.9320 C   0  0  0  0  0  0  0  0  0  0  0  0
  138.2881   70.6970  222.1507 H   0  0  0  0  0  0  0  0  0  0  0  0
  138.2260   72.1127  223.2719 H   0  0  0  0  0  0  0  0  0  0  0  0
  139.0680   70.3600  224.0870 N   0  0  0  0  0  0  0  0  0  0  0  0
  138.5490   69.0820  224.1210 C   0  0  0  0  0  0  0  0  0  0  0  0
  137.6850   68.5490  223.0520 C   0  0  0  0  0  0  0  0  0  0  0  0
  138.1536   67.9422  222.2632 H   0  0  0  0  0  0  0  0  0  0  0  0
  136.3630   68.7590  222.9830 C   0  0  0  0  0  0  0  0  0  0  0  0
  135.9038   68.7725  221.9835 H   0  0  0  0  0  0  0  0  0  0  0  0
  135.4730   68.9740  224.1440 C   0  0  0  0  0  0  0  0  0  0  0  0
  134.4860   68.1430  224.5410 N   0  0  0  0  0  0  0  0  0  0  0  0
  133.9600   68.7530  225.6240 C   0  0  0  0  0  0  0  0  0  0  0  0
  133.1224   68.3427  226.2071 H   0  0  0  0  0  0  0  0  0  0  0  0
  134.5700   69.9170  225.9140 N   0  0  0  0  0  0  0  0  0  0  0  0
  134.3460   70.5690  226.6970 H   0  0  0  0  0  0  0  0  0  0  0  0
  135.5250   70.0630  224.9830 C   0  0  0  0  0  0  0  0  0  0  0  0
  136.2270   70.9062  224.9043 H   0  0  0  0  0  0  0  0  0  0  0  0
  138.8310   68.2570  225.1610 N   0  0  0  0  0  0  0  0  0  0  0  0
  139.6070   68.6520  226.1960 C   0  0  0  0  0  0  0  0  0  0  0  0
  139.8660   67.7720  227.2530 C   0  0  0  0  0  0  0  0  0  0  0  0
  139.4368   66.7592  227.2432 H   0  0  0  0  0  0  0  0  0  0  0  0
  140.6700   68.1800  228.3210 C   0  0  0  0  0  0  0  0  0  0  0  0
  140.8742   67.4870  229.1505 H   0  0  0  0  0  0  0  0  0  0  0  0
  141.2150   69.4670  228.3370 C   0  0  0  0  0  0  0  0  0  0  0  0
  141.8447   69.7861  229.1806 H   0  0  0  0  0  0  0  0  0  0  0  0
  140.9610   70.3500  227.2820 C   0  0  0  0  0  0  0  0  0  0  0  0
  141.3943   71.3610  227.2958 H   0  0  0  0  0  0  0  0  0  0  0  0
  140.1520   69.9470  226.2030 C   0  0  0  0  0  0  0  0  0  0  0  0
  139.8690   70.7940  225.1170 C   0  0  0  0  0  0  0  0  0  0  0  0
  140.3610   71.9580  225.0930 O   0  0  0  0  0  0  0  0  0  0  0  0
  1  2  1  0
  2  3  1  0
  3  4  1  0
  3  5  1  0
  3  6  1  0
  6  7  1  0
  6  8  1  0
  6  9  1  0
  9 10  1  0
 10 11  1  0
 11 12  1  0
 11 13  2  0
 13 14  1  0
 13 15  1  0
 15 16  1  0
 16 17  2  0
 17 18  1  0
 17 19  1  0
 19 20  1  0
 19 21  1  0
 21 22  1  0
 10 23  2  0
 23 24  1  0
 24 25  2  0
 25 26  1  0
 25 27  1  0
 27 28  1  0
 27 29  2  0
 29 30  1  0
 29 31  1  0
 31 32  1  0
 31 33  2  0
 33 34  1  0
 34 35  2  0
 34  9  1  0
 21 15  2  0
 33 24  1  0
M  END
>  <UniqueID>  (31) 
401

>  <SMILES>  (31) 
O=c1c2ccccc2nc(/C=C\c2c[nH]cn2)n1CCO

>  <Energy>  (31) 
79.69483078507324

>  <Genealogy>  (31) 
O=c1c2ccccc2nc(C=Cc2c[nH]cn2)n1CCO (tautomer)
O=c1c2ccccc2nc(/C=C\c2c[nH]cn2)n1CCO (cis-trans isomerization)
O=c1c2ccccc2nc(/C=C\c2c[nH]cn2)n1CCO (3D coordinates assigned)
O=c1c2ccccc2nc(/C=C\c2c[nH]cn2)n1CCO (optimized conformer: 79.69483078507324 kcal/mol)

>  <smiles>  (31) 
O=c1c2ccccc2nc(/C=C/c2cnc[nH]2)n1CCO

>  <score_type>  (31) 
oracle

>  <origin>  (31) 
autodockgpu

>  <m_score__min__energy>  (31) 
-6.6299999999999999

>  <m_primary>  (31) 
energy

>  <meeko>  (31) 
{"free_energy": -6.34, "intermolecular_energy": -8.13, "internal_energy": -1.34, "cluster_size": 6, "cluster_id": 2, "rank_in_cluster": 3}

>  <energy>  (31) 
-6.52

>  <cluster_rmsd>  (31) 
0.94

>  <rmsd>  (31) 
272.4

>  <cluster>  (31) 
1

$$$$
ISFQUULIKQOBJE-LYKDAOFZNA-N
     RDKit          3D

 35 37  0  0  0  0  0  0  0  0999 V2000
  139.7860   67.1840  224.1070 H   0  0  0  0  0  0  0  0  0  0  0  0
  139.2020   66.6960  223.4710 O   0  0  0  0  0  0  0  0  0  0  0  0
  138.8870   67.6060  222.4550 C   0  0  0  0  0  0  0  0  0  0  0  0
  138.2715   67.1030  221.6946 H   0  0  0  0  0  0  0  0  0  0  0  0
  139.8189   67.9735  222.0006 H   0  0  0  0  0  0  0  0  0  0  0  0
  138.1110   68.7910  223.0300 C   0  0  0  0  0  0  0  0  0  0  0  0
  137.2322   68.4154  223.5746 H   0  0  0  0  0  0  0  0  0  0  0  0
  137.8004   69.4426  222.1999 H   0  0  0  0  0  0  0  0  0  0  0  0
  138.9550   69.5780  223.9570 N   0  0  0  0  0  0  0  0  0  0  0  0
  139.5180   70.7750  223.5680 C   0  0  0  0  0  0  0  0  0  0  0  0
  139.3640   71.3160  222.2050 C   0  0  0  0  0  0  0  0  0  0  0  0
  138.3922   71.1897  221.7053 H   0  0  0  0  0  0  0  0  0  0  0  0
  140.3380   71.9530  221.5380 C   0  0  0  0  0  0  0  0  0  0  0  0
  140.9820   71.3480  220.8829 H   0  0  0  0  0  0  0  0  0  0  0  0
  140.6150   73.4030  221.6130 C   0  0  0  0  0  0  0  0  0  0  0  0
  139.7800   74.3360  222.1180 N   0  0  0  0  0  0  0  0  0  0  0  0
  140.4560   75.4940  221.9700 C   0  0  0  0  0  0  0  0  0  0  0  0
  140.0628   76.4726  222.2826 H   0  0  0  0  0  0  0  0  0  0  0  0
  141.6630   75.3240  221.3990 N   0  0  0  0  0  0  0  0  0  0  0  0
  142.3670   76.0620  221.1800 H   0  0  0  0  0  0  0  0  0  0  0  0
  141.7690   74.0070  221.1700 C   0  0  0  0  0  0  0  0  0  0  0  0
  142.6284   73.4985  220.7086 H   0  0  0  0  0  0  0  0  0  0  0  0
  140.2410   71.5110  224.4510 N   0  0  0  0  0  0  0  0  0  0  0  0
  140.4480   71.0990  225.7220 C   0  0  0  0  0  0  0  0  0  0  0  0
  141.2070   71.8830  226.5980 C   0  0  0  0  0  0  0  0  0  0  0  0
  141.6370   72.8345  226.2519 H   0  0  0  0  0  0  0  0  0  0  0  0
  141.4190   71.4580  227.9120 C   0  0  0  0  0  0  0  0  0  0  0  0
  142.0161   72.0755  228.5991 H   0  0  0  0  0  0  0  0  0  0  0  0
  140.8740   70.2500  228.3550 C   0  0  0  0  0  0  0  0  0  0  0  0
  141.0431   69.9183  229.3901 H   0  0  0  0  0  0  0  0  0  0  0  0
  140.1140   69.4620  227.4850 C   0  0  0  0  0  0  0  0  0  0  0  0
  139.6855   68.5122  227.8375 H   0  0  0  0  0  0  0  0  0  0  0  0
  139.8960   69.8820  226.1580 C   0  0  0  0  0  0  0  0  0  0  0  0
  139.1360   69.1310  225.2460 C   0  0  0  0  0  0  0  0  0  0  0  0
  138.6170   68.0410  225.6190 O   0  0  0  0  0  0  0  0  0  0  0  0
  1  2  1  0
  2  3  1  0
  3  4  1  0
  3  5  1  0
  3  6  1  0
  6  7  1  0
  6  8  1  0
  6  9  1  0
  9 10  1  0
 10 11  1  0
 11 12  1  0
 11 13  2  0
 13 14  1  0
 13 15  1  0
 15 16  1  0
 16 17  2  0
 17 18  1  0
 17 19  1  0
 19 20  1  0
 19 21  1  0
 21 22  1  0
 10 23  2  0
 23 24  1  0
 24 25  2  0
 25 26  1  0
 25 27  1  0
 27 28  1  0
 27 29  2  0
 29 30  1  0
 29 31  1  0
 31 32  1  0
 31 33  2  0
 33 34  1  0
 34 35  2  0
 34  9  1  0
 21 15  2  0
 33 24  1  0
M  END
>  <UniqueID>  (32) 
401

>  <SMILES>  (32) 
O=c1c2ccccc2nc(/C=C\c2c[nH]cn2)n1CCO

>  <Energy>  (32) 
79.69483078507324

>  <Genealogy>  (32) 
O=c1c2ccccc2nc(C=Cc2c[nH]cn2)n1CCO (tautomer)
O=c1c2ccccc2nc(/C=C\c2c[nH]cn2)n1CCO (cis-trans isomerization)
O=c1c2ccccc2nc(/C=C\c2c[nH]cn2)n1CCO (3D coordinates assigned)
O=c1c2ccccc2nc(/C=C\c2c[nH]cn2)n1CCO (optimized conformer: 79.69483078507324 kcal/mol)

>  <smiles>  (32) 
O=c1c2ccccc2nc(/C=C/c2cnc[nH]2)n1CCO

>  <score_type>  (32) 
oracle

>  <origin>  (32) 
autodockgpu

>  <m_score__min__energy>  (32) 
-6.6299999999999999

>  <m_primary>  (32) 
energy

>  <meeko>  (32) 
{"free_energy": -6.61, "intermolecular_energy": -8.4, "internal_energy": -1.29, "cluster_size": 13, "cluster_id": 1, "rank_in_cluster": 3}

>  <energy>  (32) 
-6.51

>  <cluster_rmsd>  (32) 
0.96

>  <rmsd>  (32) 
272.41

>  <cluster>  (32) 
1

$$$$
ISFQUULIKQOBJE-LYKDAOFZNA-N
     RDKit          3D

 35 37  0  0  0  0  0  0  0  0999 V2000
  139.8440   67.1210  224.0720 H   0  0  0  0  0  0  0  0  0  0  0  0
  139.2030   66.6570  223.4730 O   0  0  0  0  0  0  0  0  0  0  0  0
  138.8670   67.5790  222.4740 C   0  0  0  0  0  0  0  0  0  0  0  0
  138.2581   67.0783  221.7068 H   0  0  0  0  0  0  0  0  0  0  0  0
  139.7897   67.9721  222.0222 H   0  0  0  0  0  0  0  0  0  0  0  0
  138.0710   68.7380  223.0740 C   0  0  0  0  0  0  0  0  0  0  0  0
  137.2148   68.3344  223.6343 H   0  0  0  0  0  0  0  0  0  0  0  0
  137.7247   69.3863  222.2556 H   0  0  0  0  0  0  0  0  0  0  0  0
  138.9130   69.5420  223.9890 N   0  0  0  0  0  0  0  0  0  0  0  0
  139.4320   70.7580  223.5970 C   0  0  0  0  0  0  0  0  0  0  0  0
  139.2340   71.3050  222.2430 C   0  0  0  0  0  0  0  0  0  0  0  0
  138.2467   71.1787  221.7746 H   0  0  0  0  0  0  0  0  0  0  0  0
  140.1830   71.9470  221.5470 C   0  0  0  0  0  0  0  0  0  0  0  0
  140.7907   71.3507  220.8505 H   0  0  0  0  0  0  0  0  0  0  0  0
  140.4780   73.3930  221.6410 C   0  0  0  0  0  0  0  0  0  0  0  0
  139.6440   74.3320  222.1350 N   0  0  0  0  0  0  0  0  0  0  0  0
  140.3380   75.4830  222.0110 C   0  0  0  0  0  0  0  0  0  0  0  0
  139.9511   76.4642  222.3232 H   0  0  0  0  0  0  0  0  0  0  0  0
  141.5550   75.3010  221.4640 N   0  0  0  0  0  0  0  0  0  0  0  0
  142.2740   76.0320  221.2650 H   0  0  0  0  0  0  0  0  0  0  0  0
  141.6490   73.9850  221.2270 C   0  0  0  0  0  0  0  0  0  0  0  0
  142.5113   73.4688  220.7799 H   0  0  0  0  0  0  0  0  0  0  0  0
  140.1540   71.5070  224.4700 N   0  0  0  0  0  0  0  0  0  0  0  0
  140.4000   71.0920  225.7330 C   0  0  0  0  0  0  0  0  0  0  0  0
  141.1550   71.8910  226.5990 C   0  0  0  0  0  0  0  0  0  0  0  0
  141.5496   72.8573  226.2517 H   0  0  0  0  0  0  0  0  0  0  0  0
  141.4080   71.4620  227.9050 C   0  0  0  0  0  0  0  0  0  0  0  0
  142.0017   72.0913  228.5844 H   0  0  0  0  0  0  0  0  0  0  0  0
  140.9080   70.2350  228.3490 C   0  0  0  0  0  0  0  0  0  0  0  0
  141.1100   69.8997  229.3770 H   0  0  0  0  0  0  0  0  0  0  0  0
  140.1510   69.4320  227.4890 C   0  0  0  0  0  0  0  0  0  0  0  0
  139.7569   68.4678  227.8424 H   0  0  0  0  0  0  0  0  0  0  0  0
  139.8930   69.8570  226.1710 C   0  0  0  0  0  0  0  0  0  0  0  0
  139.1350   69.0910  225.2690 C   0  0  0  0  0  0  0  0  0  0  0  0
  138.6550   67.9840  225.6450 O   0  0  0  0  0  0  0  0  0  0  0  0
  1  2  1  0
  2  3  1  0
  3  4  1  0
  3  5  1  0
  3  6  1  0
  6  7  1  0
  6  8  1  0
  6  9  1  0
  9 10  1  0
 10 11  1  0
 11 12  1  0
 11 13  2  0
 13 14  1  0
 13 15  1  0
 15 16  1  0
 16 17  2  0
 17 18  1  0
 17 19  1  0
 19 20  1  0
 19 21  1  0
 21 22  1  0
 10 23  2  0
 23 24  1  0
 24 25  2  0
 25 26  1  0
 25 27  1  0
 27 28  1  0
 27 29  2  0
 29 30  1  0
 29 31  1  0
 31 32  1  0
 31 33  2  0
 33 34  1  0
 34 35  2  0
 34  9  1  0
 21 15  2  0
 33 24  1  0
M  END
>  <UniqueID>  (33) 
401

>  <SMILES>  (33) 
O=c1c2ccccc2nc(/C=C\c2c[nH]cn2)n1CCO

>  <Energy>  (33) 
79.69483078507324

>  <Genealogy>  (33) 
O=c1c2ccccc2nc(C=Cc2c[nH]cn2)n1CCO (tautomer)
O=c1c2ccccc2nc(/C=C\c2c[nH]cn2)n1CCO (cis-trans isomerization)
O=c1c2ccccc2nc(/C=C\c2c[nH]cn2)n1CCO (3D coordinates assigned)
O=c1c2ccccc2nc(/C=C\c2c[nH]cn2)n1CCO (optimized conformer: 79.69483078507324 kcal/mol)

>  <smiles>  (33) 
O=c1c2ccccc2nc(/C=C/c2cnc[nH]2)n1CCO

>  <score_type>  (33) 
oracle

>  <origin>  (33) 
autodockgpu

>  <m_score__min__energy>  (33) 
-6.6299999999999999

>  <m_primary>  (33) 
energy

>  <meeko>  (33) 
{"free_energy": -6.63, "intermolecular_energy": -8.42, "internal_energy": -1.29, "cluster_size": 13, "cluster_id": 1, "rank_in_cluster": 1}

>  <energy>  (33) 
-6.36

>  <cluster_rmsd>  (33) 
1.01

>  <rmsd>  (33) 
272.39

>  <cluster>  (33) 
1

$$$$
ISFQUULIKQOBJE-LYKDAOFZNA-N
     RDKit          3D

 35 37  0  0  0  0  0  0  0  0999 V2000
  137.0240   68.5130  224.7430 H   0  0  0  0  0  0  0  0  0  0  0  0
  136.3170   68.9120  224.1740 O   0  0  0  0  0  0  0  0  0  0  0  0
  136.8740   69.0370  222.8940 C   0  0  0  0  0  0  0  0  0  0  0  0
  136.7729   70.0781  222.5535 H   0  0  0  0  0  0  0  0  0  0  0  0
  136.3442   68.3639  222.2039 H   0  0  0  0  0  0  0  0  0  0  0  0
  138.3540   68.6570  222.9250 C   0  0  0  0  0  0  0  0  0  0  0  0
  138.7822   68.7965  221.9214 H   0  0  0  0  0  0  0  0  0  0  0  0
  138.4393   67.6059  223.2379 H   0  0  0  0  0  0  0  0  0  0  0  0
  139.0980   69.4980  223.8900 N   0  0  0  0  0  0  0  0  0  0  0  0
  139.5490   70.7540  223.5440 C   0  0  0  0  0  0  0  0  0  0  0  0
  139.3740   71.3130  222.1910 C   0  0  0  0  0  0  0  0  0  0  0  0
  138.3877   71.2129  221.7144 H   0  0  0  0  0  0  0  0  0  0  0  0
  140.3440   71.9360  221.5060 C   0  0  0  0  0  0  0  0  0  0  0  0
  140.9613   71.3243  220.8316 H   0  0  0  0  0  0  0  0  0  0  0  0
  140.6490   73.3810  221.5860 C   0  0  0  0  0  0  0  0  0  0  0  0
  139.8280   74.3290  222.0840 N   0  0  0  0  0  0  0  0  0  0  0  0
  140.5270   75.4740  221.9440 C   0  0  0  0  0  0  0  0  0  0  0  0
  140.1497   76.4597  222.2541 H   0  0  0  0  0  0  0  0  0  0  0  0
  141.7360   75.2810  221.3840 N   0  0  0  0  0  0  0  0  0  0  0  0
  142.4570   76.0060  221.1710 H   0  0  0  0  0  0  0  0  0  0  0  0
  141.8180   73.9620  221.1540 C   0  0  0  0  0  0  0  0  0  0  0  0
  142.6711   73.4371  220.6994 H   0  0  0  0  0  0  0  0  0  0  0  0
  140.1780   71.5330  224.4610 N   0  0  0  0  0  0  0  0  0  0  0  0
  140.3950   71.1100  225.7270 C   0  0  0  0  0  0  0  0  0  0  0  0
  141.0540   71.9420  226.6400 C   0  0  0  0  0  0  0  0  0  0  0  0
  141.3963   72.9395  226.3273 H   0  0  0  0  0  0  0  0  0  0  0  0
  141.2770   71.5050  227.9490 C   0  0  0  0  0  0  0  0  0  0  0  0
  141.7946   72.1597  228.6655 H   0  0  0  0  0  0  0  0  0  0  0  0
  140.8440   70.2390  228.3490 C   0  0  0  0  0  0  0  0  0  0  0  0
  141.0229   69.8981  229.3794 H   0  0  0  0  0  0  0  0  0  0  0  0
  140.1830   69.4030  227.4420 C   0  0  0  0  0  0  0  0  0  0  0  0
  139.8411   68.4074  227.7612 H   0  0  0  0  0  0  0  0  0  0  0  0
  139.9550   69.8350  226.1210 C   0  0  0  0  0  0  0  0  0  0  0  0
  139.2920   69.0370  225.1720 C   0  0  0  0  0  0  0  0  0  0  0  0
  138.8730   67.8930  225.5070 O   0  0  0  0  0  0  0  0  0  0  0  0
  1  2  1  0
  2  3  1  0
  3  4  1  0
  3  5  1  0
  3  6  1  0
  6  7  1  0
  6  8  1  0
  6  9  1  0
  9 10  1  0
 10 11  1  0
 11 12  1  0
 11 13  2  0
 13 14  1  0
 13 15  1  0
 15 16  1  0
 16 17  2  0
 17 18  1  0
 17 19  1  0
 19 20  1  0
 19 21  1  0
 21 22  1  0
 10 23  2  0
 23 24  1  0
 24 25  2  0
 25 26  1  0
 25 27  1  0
 27 28  1  0
 27 29  2  0
 29 30  1  0
 29 31  1  0
 31 32  1  0
 31 33  2  0
 33 34  1  0
 34 35  2  0
 34  9  1  0
 21 15  2  0
 33 24  1  0
M  END
>  <UniqueID>  (34) 
401

>  <SMILES>  (34) 
O=c1c2ccccc2nc(/C=C\c2c[nH]cn2)n1CCO

>  <Energy>  (34) 
79.69483078507324

>  <Genealogy>  (34) 
O=c1c2ccccc2nc(C=Cc2c[nH]cn2)n1CCO (tautomer)
O=c1c2ccccc2nc(/C=C\c2c[nH]cn2)n1CCO (cis-trans isomerization)
O=c1c2ccccc2nc(/C=C\c2c[nH]cn2)n1CCO (3D coordinates assigned)
O=c1c2ccccc2nc(/C=C\c2c[nH]cn2)n1CCO (optimized conformer: 79.69483078507324 kcal/mol)

>  <smiles>  (34) 
O=c1c2ccccc2nc(/C=C/c2cnc[nH]2)n1CCO

>  <score_type>  (34) 
oracle

>  <origin>  (34) 
autodockgpu

>  <m_score__min__energy>  (34) 
-6.6299999999999999

>  <m_primary>  (34) 
energy

>  <meeko>  (34) 
{"free_energy": -6.51, "intermolecular_energy": -8.3, "internal_energy": -1.4, "cluster_size": 13, "cluster_id": 1, "rank_in_cluster": 12}

>  <energy>  (34) 
-6.35

>  <cluster_rmsd>  (34) 
0.0

>  <rmsd>  (34) 
272.06

>  <cluster>  (34) 
2

$$$$
ISFQUULIKQOBJE-LYKDAOFZNA-N
     RDKit          3D

 35 37  0  0  0  0  0  0  0  0999 V2000
  137.3050   68.4890  224.4620 H   0  0  0  0  0  0  0  0  0  0  0  0
  136.6400   68.8860  223.8420 O   0  0  0  0  0  0  0  0  0  0  0  0
  137.2560   68.9220  222.5840 C   0  0  0  0  0  0  0  0  0  0  0  0
  137.1315   69.9237  222.1468 H   0  0  0  0  0  0  0  0  0  0  0  0
  136.7888   68.1680  221.9335 H   0  0  0  0  0  0  0  0  0  0  0  0
  138.7470   68.6110  222.7180 C   0  0  0  0  0  0  0  0  0  0  0  0
  139.2418   68.7981  221.7535 H   0  0  0  0  0  0  0  0  0  0  0  0
  138.8606   67.5568  223.0107 H   0  0  0  0  0  0  0  0  0  0  0  0
  139.3740   69.4600  223.7570 N   0  0  0  0  0  0  0  0  0  0  0  0
  139.7630   70.7540  223.4820 C   0  0  0  0  0  0  0  0  0  0  0  0
  139.6360   71.3510  222.1400 C   0  0  0  0  0  0  0  0  0  0  0  0
  138.6918   71.2022  221.5956 H   0  0  0  0  0  0  0  0  0  0  0  0
  140.6010   72.0640  221.5430 C   0  0  0  0  0  0  0  0  0  0  0  0
  141.3444   71.5120  220.9492 H   0  0  0  0  0  0  0  0  0  0  0  0
  140.7460   73.5340  221.6190 C   0  0  0  0  0  0  0  0  0  0  0  0
  139.8280   74.3880  222.1190 N   0  0  0  0  0  0  0  0  0  0  0  0
  140.3980   75.6020  221.9740 C   0  0  0  0  0  0  0  0  0  0  0  0
  139.9168   76.5414  222.2838 H   0  0  0  0  0  0  0  0  0  0  0  0
  141.6180   75.5410  221.4100 N   0  0  0  0  0  0  0  0  0  0  0  0
  142.2550   76.3400  221.1940 H   0  0  0  0  0  0  0  0  0  0  0  0
  141.8440   74.2390  221.1820 C   0  0  0  0  0  0  0  0  0  0  0  0
  142.7483   73.8099  220.7258 H   0  0  0  0  0  0  0  0  0  0  0  0
  140.2830   71.5360  224.4630 N   0  0  0  0  0  0  0  0  0  0  0  0
  140.4490   71.0800  225.7260 C   0  0  0  0  0  0  0  0  0  0  0  0
  140.9960   71.9160  226.7060 C   0  0  0  0  0  0  0  0  0  0  0  0
  141.2923   72.9437  226.4489 H   0  0  0  0  0  0  0  0  0  0  0  0
  141.1660   71.4460  228.0110 C   0  0  0  0  0  0  0  0  0  0  0  0
  141.5948   72.1048  228.7805 H   0  0  0  0  0  0  0  0  0  0  0  0
  140.7920   70.1400  228.3400 C   0  0  0  0  0  0  0  0  0  0  0  0
  140.9296   69.7719  229.3674 H   0  0  0  0  0  0  0  0  0  0  0  0
  140.2430   69.3000  227.3650 C   0  0  0  0  0  0  0  0  0  0  0  0
  139.9468   68.2738  227.6280 H   0  0  0  0  0  0  0  0  0  0  0  0
  140.0690   69.7660  226.0480 C   0  0  0  0  0  0  0  0  0  0  0  0
  139.5190   68.9650  225.0320 C   0  0  0  0  0  0  0  0  0  0  0  0
  139.1550   67.7850  225.3010 O   0  0  0  0  0  0  0  0  0  0  0  0
  1  2  1  0
  2  3  1  0
  3  4  1  0
  3  5  1  0
  3  6  1  0
  6  7  1  0
  6  8  1  0
  6  9  1  0
  9 10  1  0
 10 11  1  0
 11 12  1  0
 11 13  2  0
 13 14  1  0
 13 15  1  0
 15 16  1  0
 16 17  2  0
 17 18  1  0
 17 19  1  0
 19 20  1  0
 19 21  1  0
 21 22  1  0
 10 23  2  0
 23 24  1  0
 24 25  2  0
 25 26  1  0
 25 27  1  0
 27 28  1  0
 27 29  2  0
 29 30  1  0
 29 31  1  0
 31 32  1  0
 31 33  2  0
 33 34  1  0
 34 35  2  0
 34  9  1  0
 21 15  2  0
 33 24  1  0
M  END
>  <UniqueID>  (35) 
401

>  <SMILES>  (35) 
O=c1c2ccccc2nc(/C=C\c2c[nH]cn2)n1CCO

>  <Energy>  (35) 
79.69483078507324

>  <Genealogy>  (35) 
O=c1c2ccccc2nc(C=Cc2c[nH]cn2)n1CCO (tautomer)
O=c1c2ccccc2nc(/C=C\c2c[nH]cn2)n1CCO (cis-trans isomerization)
O=c1c2ccccc2nc(/C=C\c2c[nH]cn2)n1CCO (3D coordinates assigned)
O=c1c2ccccc2nc(/C=C\c2c[nH]cn2)n1CCO (optimized conformer: 79.69483078507324 kcal/mol)

>  <smiles>  (35) 
O=c1c2ccccc2nc(/C=C/c2cnc[nH]2)n1CCO

>  <score_type>  (35) 
oracle

>  <origin>  (35) 
autodockgpu

>  <m_score__min__energy>  (35) 
-6.6299999999999999

>  <m_primary>  (35) 
energy

>  <meeko>  (35) 
{"free_energy": -6.54, "intermolecular_energy": -8.33, "internal_energy": -1.38, "cluster_size": 13, "cluster_id": 1, "rank_in_cluster": 8}

>  <energy>  (35) 
-6.34

>  <cluster_rmsd>  (35) 
0.05

>  <rmsd>  (35) 
272.08

>  <cluster>  (35) 
2

$$$$
ISFQUULIKQOBJE-LYKDAOFZNA-N
     RDKit          3D

 35 37  0  0  0  0  0  0  0  0999 V2000
  139.7390   73.2800  223.4630 H   0  0  0  0  0  0  0  0  0  0  0  0
  140.2910   73.1460  222.6500 O   0  0  0  0  0  0  0  0  0  0  0  0
  140.1980   71.7830  222.3390 C   0  0  0  0  0  0  0  0  0  0  0  0
  141.0346   71.2451  222.8089 H   0  0  0  0  0  0  0  0  0  0  0  0
  140.2391   71.6602  221.2466 H   0  0  0  0  0  0  0  0  0  0  0  0
  138.8770   71.2130  222.8560 C   0  0  0  0  0  0  0  0  0  0  0  0
  138.3938   70.6383  222.0521 H   0  0  0  0  0  0  0  0  0  0  0  0
  138.2342   72.0478  223.1720 H   0  0  0  0  0  0  0  0  0  0  0  0
  139.1030   70.3240  224.0190 N   0  0  0  0  0  0  0  0  0  0  0  0
  138.6120   69.0360  224.0380 C   0  0  0  0  0  0  0  0  0  0  0  0
  137.7940   68.4830  222.9420 C   0  0  0  0  0  0  0  0  0  0  0  0
  138.3118   67.9675  222.1198 H   0  0  0  0  0  0  0  0  0  0  0  0
  136.4580   68.5710  222.8880 C   0  0  0  0  0  0  0  0  0  0  0  0
  135.9742   68.3423  221.9269 H   0  0  0  0  0  0  0  0  0  0  0  0
  135.5820   68.9510  224.0170 C   0  0  0  0  0  0  0  0  0  0  0  0
  134.6690   68.1500  224.6050 N   0  0  0  0  0  0  0  0  0  0  0  0
  134.1250   68.9260  225.5660 C   0  0  0  0  0  0  0  0  0  0  0  0
  133.3337   68.5839  226.2493 H   0  0  0  0  0  0  0  0  0  0  0  0
  134.6540   70.1630  225.5990 N   0  0  0  0  0  0  0  0  0  0  0  0
  134.4010   70.9410  226.2480 H   0  0  0  0  0  0  0  0  0  0  0  0
  135.5740   70.1860  224.6230 C   0  0  0  0  0  0  0  0  0  0  0  0
  136.2103   71.0421  224.3544 H   0  0  0  0  0  0  0  0  0  0  0  0
  138.8790   68.2170  225.0880 N   0  0  0  0  0  0  0  0  0  0  0  0
  139.6130   68.6300  226.1460 C   0  0  0  0  0  0  0  0  0  0  0  0
  139.8570   67.7570  227.2120 C   0  0  0  0  0  0  0  0  0  0  0  0
  139.4505   66.7351  227.1898 H   0  0  0  0  0  0  0  0  0  0  0  0
  140.6170   68.1830  228.3050 C   0  0  0  0  0  0  0  0  0  0  0  0
  140.8091   67.4954  229.1418 H   0  0  0  0  0  0  0  0  0  0  0  0
  141.1330   69.4810  228.3360 C   0  0  0  0  0  0  0  0  0  0  0  0
  141.7296   69.8138  229.1982 H   0  0  0  0  0  0  0  0  0  0  0  0
  140.8930   70.3580  227.2740 C   0  0  0  0  0  0  0  0  0  0  0  0
  141.3024   71.3786  227.3015 H   0  0  0  0  0  0  0  0  0  0  0  0
  140.1280   69.9370  226.1690 C   0  0  0  0  0  0  0  0  0  0  0  0
  139.8610   70.7770  225.0740 C   0  0  0  0  0  0  0  0  0  0  0  0
  140.3270   71.9510  225.0640 O   0  0  0  0  0  0  0  0  0  0  0  0
  1  2  1  0
  2  3  1  0
  3  4  1  0
  3  5  1  0
  3  6  1  0
  6  7  1  0
  6  8  1  0
  6  9  1  0
  9 10  1  0
 10 11  1  0
 11 12  1  0
 11 13  2  0
 13 14  1  0
 13 15  1  0
 15 16  1  0
 16 17  2  0
 17 18  1  0
 17 19  1  0
 19 20  1  0
 19 21  1  0
 21 22  1  0
 10 23  2  0
 23 24  1  0
 24 25  2  0
 25 26  1  0
 25 27  1  0
 27 28  1  0
 27 29  2  0
 29 30  1  0
 29 31  1  0
 31 32  1  0
 31 33  2  0
 33 34  1  0
 34 35  2  0
 34  9  1  0
 21 15  2  0
 33 24  1  0
M  END
>  <UniqueID>  (36) 
401

>  <SMILES>  (36) 
O=c1c2ccccc2nc(/C=C\c2c[nH]cn2)n1CCO

>  <Energy>  (36) 
79.69483078507324

>  <Genealogy>  (36) 
O=c1c2ccccc2nc(C=Cc2c[nH]cn2)n1CCO (tautomer)
O=c1c2ccccc2nc(/C=C\c2c[nH]cn2)n1CCO (cis-trans isomerization)
O=c1c2ccccc2nc(/C=C\c2c[nH]cn2)n1CCO (3D coordinates assigned)
O=c1c2ccccc2nc(/C=C\c2c[nH]cn2)n1CCO (optimized conformer: 79.69483078507324 kcal/mol)

>  <smiles>  (36) 
O=c1c2ccccc2nc(/C=C/c2cnc[nH]2)n1CCO

>  <score_type>  (36) 
oracle

>  <origin>  (36) 
autodockgpu

>  <m_score__min__energy>  (36) 
-6.6299999999999999

>  <m_primary>  (36) 
energy

>  <meeko>  (36) 
{"free_energy": -6.31, "intermolecular_energy": -8.1, "internal_energy": -1.35, "cluster_size": 6, "cluster_id": 2, "rank_in_cluster": 6}

>  <energy>  (36) 
-6.34

>  <cluster_rmsd>  (36) 
0.07

>  <rmsd>  (36) 
272.11

>  <cluster>  (36) 
2

$$$$
ISFQUULIKQOBJE-LYKDAOFZNA-N
     RDKit          3D

 35 37  0  0  0  0  0  0  0  0999 V2000
  137.2310   68.4870  224.7360 H   0  0  0  0  0  0  0  0  0  0  0  0
  136.5100   68.9070  224.2000 O   0  0  0  0  0  0  0  0  0  0  0  0
  136.9810   68.9530  222.8820 C   0  0  0  0  0  0  0  0  0  0  0  0
  136.7631   69.9418  222.4522 H   0  0  0  0  0  0  0  0  0  0  0  0
  136.4802   68.1701  222.2935 H   0  0  0  0  0  0  0  0  0  0  0  0
  138.4910   68.7110  222.8540 C   0  0  0  0  0  0  0  0  0  0  0  0
  138.8809   68.9843  221.8624 H   0  0  0  0  0  0  0  0  0  0  0  0
  138.6797   67.6475  223.0622 H   0  0  0  0  0  0  0  0  0  0  0  0
  139.1770   69.5230  223.8850 N   0  0  0  0  0  0  0  0  0  0  0  0
  139.4810   70.8490  223.6640 C   0  0  0  0  0  0  0  0  0  0  0  0
  139.2000   71.5230  222.3840 C   0  0  0  0  0  0  0  0  0  0  0  0
  138.1529   71.5862  222.0530 H   0  0  0  0  0  0  0  0  0  0  0  0
  140.1420   72.0640  221.5980 C   0  0  0  0  0  0  0  0  0  0  0  0
  140.6380   71.4018  220.8731 H   0  0  0  0  0  0  0  0  0  0  0  0
  140.5670   73.4790  221.6280 C   0  0  0  0  0  0  0  0  0  0  0  0
  139.8430   74.5050  222.1240 N   0  0  0  0  0  0  0  0  0  0  0  0
  140.6300   75.5840  221.9290 C   0  0  0  0  0  0  0  0  0  0  0  0
  140.3462   76.6054  222.2226 H   0  0  0  0  0  0  0  0  0  0  0  0
  141.7990   75.2770  221.3370 N   0  0  0  0  0  0  0  0  0  0  0  0
  142.5690   75.9340  221.0820 H   0  0  0  0  0  0  0  0  0  0  0  0
  141.7650   73.9510  221.1430 C   0  0  0  0  0  0  0  0  0  0  0  0
  142.5568   73.3458  220.6773 H   0  0  0  0  0  0  0  0  0  0  0  0
  140.0580   71.5920  224.6440 N   0  0  0  0  0  0  0  0  0  0  0  0
  140.3640   71.0660  225.8510 C   0  0  0  0  0  0  0  0  0  0  0  0
  140.9660   71.8640  226.8310 C   0  0  0  0  0  0  0  0  0  0  0  0
  141.1911   72.9196  226.6186 H   0  0  0  0  0  0  0  0  0  0  0  0
  141.2810   71.3200  228.0790 C   0  0  0  0  0  0  0  0  0  0  0  0
  141.7535   71.9485  228.8482 H   0  0  0  0  0  0  0  0  0  0  0  0
  140.9970   69.9790  228.3520 C   0  0  0  0  0  0  0  0  0  0  0  0
  141.2483   69.5537  229.3348 H   0  0  0  0  0  0  0  0  0  0  0  0
  140.3940   69.1770  227.3780 C   0  0  0  0  0  0  0  0  0  0  0  0
  140.1684   68.1230  227.5974 H   0  0  0  0  0  0  0  0  0  0  0  0
  140.0750   69.7160  226.1170 C   0  0  0  0  0  0  0  0  0  0  0  0
  139.4650   68.9550  225.1050 C   0  0  0  0  0  0  0  0  0  0  0  0
  139.1800   67.7440  225.3260 O   0  0  0  0  0  0  0  0  0  0  0  0
  1  2  1  0
  2  3  1  0
  3  4  1  0
  3  5  1  0
  3  6  1  0
  6  7  1  0
  6  8  1  0
  6  9  1  0
  9 10  1  0
 10 11  1  0
 11 12  1  0
 11 13  2  0
 13 14  1  0
 13 15  1  0
 15 16  1  0
 16 17  2  0
 17 18  1  0
 17 19  1  0
 19 20  1  0
 19 21  1  0
 21 22  1  0
 10 23  2  0
 23 24  1  0
 24 25  2  0
 25 26  1  0
 25 27  1  0
 27 28  1  0
 27 29  2  0
 29 30  1  0
 29 31  1  0
 31 32  1  0
 31 33  2  0
 33 34  1  0
 34 35  2  0
 34  9  1  0
 21 15  2  0
 33 24  1  0
M  END
>  <UniqueID>  (37) 
401

>  <SMILES>  (37) 
O=c1c2ccccc2nc(/C=C\c2c[nH]cn2)n1CCO

>  <Energy>  (37) 
79.69483078507324

>  <Genealogy>  (37) 
O=c1c2ccccc2nc(C=Cc2c[nH]cn2)n1CCO (tautomer)
O=c1c2ccccc2nc(/C=C\c2c[nH]cn2)n1CCO (cis-trans isomerization)
O=c1c2ccccc2nc(/C=C\c2c[nH]cn2)n1CCO (3D coordinates assigned)
O=c1c2ccccc2nc(/C=C\c2c[nH]cn2)n1CCO (optimized conformer: 79.69483078507324 kcal/mol)

>  <smiles>  (37) 
O=c1c2ccccc2nc(/C=C/c2cnc[nH]2)n1CCO

>  <score_type>  (37) 
oracle

>  <origin>  (37) 
autodockgpu

>  <m_score__min__energy>  (37) 
-6.6299999999999999

>  <m_primary>  (37) 
energy

>  <meeko>  (37) 
{"free_energy": -6.55, "intermolecular_energy": -8.34, "internal_energy": -1.37, "cluster_size": 13, "cluster_id": 1, "rank_in_cluster": 5}

>  <energy>  (37) 
-6.34

>  <cluster_rmsd>  (37) 
0.07

>  <rmsd>  (37) 
272.09

>  <cluster>  (37) 
2

$$$$
ISFQUULIKQOBJE-LYKDAOFZNA-N
     RDKit          3D

 35 37  0  0  0  0  0  0  0  0999 V2000
  139.2420   74.4430  222.7370 H   0  0  0  0  0  0  0  0  0  0  0  0
  139.9390   73.7380  222.6970 O   0  0  0  0  0  0  0  0  0  0  0  0
  140.4190   73.7420  221.3810 C   0  0  0  0  0  0  0  0  0  0  0  0
  140.1093   72.8138  220.8784 H   0  0  0  0  0  0  0  0  0  0  0  0
  141.5167   73.8107  221.3995 H   0  0  0  0  0  0  0  0  0  0  0  0
  139.8570   74.9410  220.6180 C   0  0  0  0  0  0  0  0  0  0  0  0
  138.7731   75.0041  220.7945 H   0  0  0  0  0  0  0  0  0  0  0  0
  140.0650   74.8040  219.5466 H   0  0  0  0  0  0  0  0  0  0  0  0
  140.4950   76.2000  221.0660 N   0  0  0  0  0  0  0  0  0  0  0  0
  141.6660   76.6500  220.4940 C   0  0  0  0  0  0  0  0  0  0  0  0
  142.3820   75.8900  219.4520 C   0  0  0  0  0  0  0  0  0  0  0  0
  141.7977   75.4928  218.6089 H   0  0  0  0  0  0  0  0  0  0  0  0
  143.7010   75.6540  219.4700 C   0  0  0  0  0  0  0  0  0  0  0  0
  144.3492   76.3585  218.9281 H   0  0  0  0  0  0  0  0  0  0  0  0
  144.3540   74.5210  220.1610 C   0  0  0  0  0  0  0  0  0  0  0  0
  145.5790   74.5490  220.7280 N   0  0  0  0  0  0  0  0  0  0  0  0
  145.7390   73.3030  221.2200 C   0  0  0  0  0  0  0  0  0  0  0  0
  146.6405   72.9714  221.7561 H   0  0  0  0  0  0  0  0  0  0  0  0
  144.6780   72.5090  220.9850 N   0  0  0  0  0  0  0  0  0  0  0  0
  144.5630   71.5090  221.2630 H   0  0  0  0  0  0  0  0  0  0  0  0
  143.8010   73.2710  220.3150 C   0  0  0  0  0  0  0  0  0  0  0  0
  142.8127   72.9522  219.9522 H   0  0  0  0  0  0  0  0  0  0  0  0
  142.2050   77.8360  220.8780 N   0  0  0  0  0  0  0  0  0  0  0  0
  141.6310   78.6050  221.8310 C   0  0  0  0  0  0  0  0  0  0  0  0
  142.2230   79.8170  222.2040 C   0  0  0  0  0  0  0  0  0  0  0  0
  143.1563   80.1441  221.7224 H   0  0  0  0  0  0  0  0  0  0  0  0
  141.6290   80.6120  223.1880 C   0  0  0  0  0  0  0  0  0  0  0  0
  142.0949   81.5649  223.4795 H   0  0  0  0  0  0  0  0  0  0  0  0
  140.4440   80.1980  223.8020 C   0  0  0  0  0  0  0  0  0  0  0  0
  139.9798   80.8249  224.5776 H   0  0  0  0  0  0  0  0  0  0  0  0
  139.8470   78.9890  223.4330 C   0  0  0  0  0  0  0  0  0  0  0  0
  138.9128   78.6681  223.9170 H   0  0  0  0  0  0  0  0  0  0  0  0
  140.4390   78.1810  222.4430 C   0  0  0  0  0  0  0  0  0  0  0  0
  139.8780   76.9600  222.0330 C   0  0  0  0  0  0  0  0  0  0  0  0
  138.7980   76.5660  222.5570 O   0  0  0  0  0  0  0  0  0  0  0  0
  1  2  1  0
  2  3  1  0
  3  4  1  0
  3  5  1  0
  3  6  1  0
  6  7  1  0
  6  8  1  0
  6  9  1  0
  9 10  1  0
 10 11  1  0
 11 12  1  0
 11 13  2  0
 13 14  1  0
 13 15  1  0
 15 16  1  0
 16 17  2  0
 17 18  1  0
 17 19  1  0
 19 20  1  0
 19 21  1  0
 21 22  1  0
 10 23  2  0
 23 24  1  0
 24 25  2  0
 25 26  1  0
 25 27  1  0
 27 28  1  0
 27 29  2  0
 29 30  1  0
 29 31  1  0
 31 32  1  0
 31 33  2  0
 33 34  1  0
 34 35  2  0
 34  9  1  0
 21 15  2  0
 33 24  1  0
M  END
>  <UniqueID>  (38) 
401

>  <SMILES>  (38) 
O=c1c2ccccc2nc(/C=C\c2c[nH]cn2)n1CCO

>  <Energy>  (38) 
79.69483078507324

>  <Genealogy>  (38) 
O=c1c2ccccc2nc(C=Cc2c[nH]cn2)n1CCO (tautomer)
O=c1c2ccccc2nc(/C=C\c2c[nH]cn2)n1CCO (cis-trans isomerization)
O=c1c2ccccc2nc(/C=C\c2c[nH]cn2)n1CCO (3D coordinates assigned)
O=c1c2ccccc2nc(/C=C\c2c[nH]cn2)n1CCO (optimized conformer: 79.69483078507324 kcal/mol)

>  <smiles>  (38) 
O=c1c2ccccc2nc(/C=C/c2cnc[nH]2)n1CCO

>  <score_type>  (38) 
oracle

>  <origin>  (38) 
autodockgpu

>  <m_score__min__energy>  (38) 
-6.6299999999999999

>  <m_primary>  (38) 
energy

>  <meeko>  (38) 
{"free_energy": -6.07, "intermolecular_energy": -7.86, "internal_energy": -1.44, "cluster_size": 1, "cluster_id": 3, "rank_in_cluster": 1}

>  <energy>  (38) 
-6.32

>  <cluster_rmsd>  (38) 
0.09

>  <rmsd>  (38) 
272.06

>  <cluster>  (38) 
2

$$$$
ISFQUULIKQOBJE-LYKDAOFZNA-N
     RDKit          3D

 35 37  0  0  0  0  0  0  0  0999 V2000
  139.7380   73.2860  223.4570 H   0  0  0  0  0  0  0  0  0  0  0  0
  140.2560   73.1330  222.6260 O   0  0  0  0  0  0  0  0  0  0  0  0
  140.1190   71.7710  222.3280 C   0  0  0  0  0  0  0  0  0  0  0  0
  140.9601   71.2160  222.7691 H   0  0  0  0  0  0  0  0  0  0  0  0
  140.1152   71.6408  221.2357 H   0  0  0  0  0  0  0  0  0  0  0  0
  138.8060   71.2360  222.8990 C   0  0  0  0  0  0  0  0  0  0  0  0
  138.2757   70.6739  222.1162 H   0  0  0  0  0  0  0  0  0  0  0  0
  138.1989   72.0877  223.2397 H   0  0  0  0  0  0  0  0  0  0  0  0
  139.0550   70.3420  224.0530 N   0  0  0  0  0  0  0  0  0  0  0  0
  138.5540   69.0580  224.0820 C   0  0  0  0  0  0  0  0  0  0  0  0
  137.7010   68.5150  223.0090 C   0  0  0  0  0  0  0  0  0  0  0  0
  138.1756   67.8896  222.2386 H   0  0  0  0  0  0  0  0  0  0  0  0
  136.3820   68.7370  222.9150 C   0  0  0  0  0  0  0  0  0  0  0  0
  135.9354   68.7173  221.9099 H   0  0  0  0  0  0  0  0  0  0  0  0
  135.4810   69.0060  224.0550 C   0  0  0  0  0  0  0  0  0  0  0  0
  134.5910   68.1340  224.5750 N   0  0  0  0  0  0  0  0  0  0  0  0
  134.0080   68.8220  225.5790 C   0  0  0  0  0  0  0  0  0  0  0  0
  133.2216   68.4055  226.2256 H   0  0  0  0  0  0  0  0  0  0  0  0
  134.4910   70.0720  225.7050 N   0  0  0  0  0  0  0  0  0  0  0  0
  134.2030   70.7930  226.4010 H   0  0  0  0  0  0  0  0  0  0  0  0
  135.4200   70.1950  224.7450 C   0  0  0  0  0  0  0  0  0  0  0  0
  136.0270   71.0901  224.5444 H   0  0  0  0  0  0  0  0  0  0  0  0
  138.8420   68.2340  225.1230 N   0  0  0  0  0  0  0  0  0  0  0  0
  139.6080   68.6370  226.1620 C   0  0  0  0  0  0  0  0  0  0  0  0
  139.8740   67.7600  227.2180 C   0  0  0  0  0  0  0  0  0  0  0  0
  139.4586   66.7415  227.2042 H   0  0  0  0  0  0  0  0  0  0  0  0
  140.6670   68.1760  228.2910 C   0  0  0  0  0  0  0  0  0  0  0  0
  140.8758   67.4844  229.1205 H   0  0  0  0  0  0  0  0  0  0  0  0
  141.1950   69.4700  228.3110 C   0  0  0  0  0  0  0  0  0  0  0  0
  141.8173   69.7956  229.1576 H   0  0  0  0  0  0  0  0  0  0  0  0
  140.9340   70.3520  227.2570 C   0  0  0  0  0  0  0  0  0  0  0  0
  141.3535   71.3687  227.2750 H   0  0  0  0  0  0  0  0  0  0  0  0
  140.1350   69.9400  226.1730 C   0  0  0  0  0  0  0  0  0  0  0  0
  139.8460   70.7850  225.0880 C   0  0  0  0  0  0  0  0  0  0  0  0
  140.3220   71.9550  225.0680 O   0  0  0  0  0  0  0  0  0  0  0  0
  1  2  1  0
  2  3  1  0
  3  4  1  0
  3  5  1  0
  3  6  1  0
  6  7  1  0
  6  8  1  0
  6  9  1  0
  9 10  1  0
 10 11  1  0
 11 12  1  0
 11 13  2  0
 13 14  1  0
 13 15  1  0
 15 16  1  0
 16 17  2  0
 17 18  1  0
 17 19  1  0
 19 20  1  0
 19 21  1  0
 21 22  1  0
 10 23  2  0
 23 24  1  0
 24 25  2  0
 25 26  1  0
 25 27  1  0
 27 28  1  0
 27 29  2  0
 29 30  1  0
 29 31  1  0
 31 32  1  0
 31 33  2  0
 33 34  1  0
 34 35  2  0
 34  9  1  0
 21 15  2  0
 33 24  1  0
M  END
>  <UniqueID>  (39) 
401

>  <SMILES>  (39) 
O=c1c2ccccc2nc(/C=C\c2c[nH]cn2)n1CCO

>  <Energy>  (39) 
79.69483078507324

>  <Genealogy>  (39) 
O=c1c2ccccc2nc(C=Cc2c[nH]cn2)n1CCO (tautomer)
O=c1c2ccccc2nc(/C=C\c2c[nH]cn2)n1CCO (cis-trans isomerization)
O=c1c2ccccc2nc(/C=C\c2c[nH]cn2)n1CCO (3D coordinates assigned)
O=c1c2ccccc2nc(/C=C\c2c[nH]cn2)n1CCO (optimized conformer: 79.69483078507324 kcal/mol)

>  <smiles>  (39) 
O=c1c2ccccc2nc(/C=C/c2cnc[nH]2)n1CCO

>  <score_type>  (39) 
oracle

>  <origin>  (39) 
autodockgpu

>  <m_score__min__energy>  (39) 
-6.6299999999999999

>  <m_primary>  (39) 
energy

>  <meeko>  (39) 
{"free_energy": -6.32, "intermolecular_energy": -8.11, "internal_energy": -1.35, "cluster_size": 6, "cluster_id": 2, "rank_in_cluster": 5}

>  <energy>  (39) 
-6.31

>  <cluster_rmsd>  (39) 
0.16

>  <rmsd>  (39) 
272.06

>  <cluster>  (39) 
2

$$$$
ISFQUULIKQOBJE-LYKDAOFZNA-N
     RDKit          3D

 35 37  0  0  0  0  0  0  0  0999 V2000
  137.2480   68.2850  224.6490 H   0  0  0  0  0  0  0  0  0  0  0  0
  136.7090   68.9180  224.1070 O   0  0  0  0  0  0  0  0  0  0  0  0
  137.1000   68.7190  222.7770 C   0  0  0  0  0  0  0  0  0  0  0  0
  136.7106   69.5400  222.1571 H   0  0  0  0  0  0  0  0  0  0  0  0
  136.6968   67.7582  222.4243 H   0  0  0  0  0  0  0  0  0  0  0  0
  138.6250   68.6880  222.6740 C   0  0  0  0  0  0  0  0  0  0  0  0
  138.9303   69.1352  221.7165 H   0  0  0  0  0  0  0  0  0  0  0  0
  138.9596   67.6419  222.7341 H   0  0  0  0  0  0  0  0  0  0  0  0
  139.2460   69.4470  223.7830 N   0  0  0  0  0  0  0  0  0  0  0  0
  139.5290   70.7910  223.6580 C   0  0  0  0  0  0  0  0  0  0  0  0
  139.2870   71.5380  222.4090 C   0  0  0  0  0  0  0  0  0  0  0  0
  138.2458   71.6713  222.0800 H   0  0  0  0  0  0  0  0  0  0  0  0
  140.2590   72.0640  221.6510 C   0  0  0  0  0  0  0  0  0  0  0  0
  140.8080   71.3813  220.9858 H   0  0  0  0  0  0  0  0  0  0  0  0
  140.6520   73.4900  221.6380 C   0  0  0  0  0  0  0  0  0  0  0  0
  139.9220   74.5090  222.1390 N   0  0  0  0  0  0  0  0  0  0  0  0
  140.6760   75.6010  221.8960 C   0  0  0  0  0  0  0  0  0  0  0  0
  140.3782   76.6216  222.1783 H   0  0  0  0  0  0  0  0  0  0  0  0
  141.8320   75.3080  221.2710 N   0  0  0  0  0  0  0  0  0  0  0  0
  142.5780   75.9770  220.9770 H   0  0  0  0  0  0  0  0  0  0  0  0
  141.8220   73.9780  221.1040 C   0  0  0  0  0  0  0  0  0  0  0  0
  142.6115   73.3811  220.6239 H   0  0  0  0  0  0  0  0  0  0  0  0
  140.0450   71.4830  224.7050 N   0  0  0  0  0  0  0  0  0  0  0  0
  140.3110   70.8890  225.8910 C   0  0  0  0  0  0  0  0  0  0  0  0
  140.8500   71.6370  226.9430 C   0  0  0  0  0  0  0  0  0  0  0  0
  141.0584   72.7083  226.8054 H   0  0  0  0  0  0  0  0  0  0  0  0
  141.1240   71.0240  228.1690 C   0  0  0  0  0  0  0  0  0  0  0  0
  141.5478   71.6134  228.9954 H   0  0  0  0  0  0  0  0  0  0  0  0
  140.8600   69.6630  228.3460 C   0  0  0  0  0  0  0  0  0  0  0  0
  141.0783   69.1828  229.3113 H   0  0  0  0  0  0  0  0  0  0  0  0
  140.3190   68.9100  227.2990 C   0  0  0  0  0  0  0  0  0  0  0  0
  140.1095   67.8398  227.4433 H   0  0  0  0  0  0  0  0  0  0  0  0
  140.0420   69.5200  226.0600 C   0  0  0  0  0  0  0  0  0  0  0  0
  139.4950   68.8110  224.9780 C   0  0  0  0  0  0  0  0  0  0  0  0
  139.2290   67.5830  225.1110 O   0  0  0  0  0  0  0  0  0  0  0  0
  1  2  1  0
  2  3  1  0
  3  4  1  0
  3  5  1  0
  3  6  1  0
  6  7  1  0
  6  8  1  0
  6  9  1  0
  9 10  1  0
 10 11  1  0
 11 12  1  0
 11 13  2  0
 13 14  1  0
 13 15  1  0
 15 16  1  0
 16 17  2  0
 17 18  1  0
 17 19  1  0
 19 20  1  0
 19 21  1  0
 21 22  1  0
 10 23  2  0
 23 24  1  0
 24 25  2  0
 25 26  1  0
 25 27  1  0
 27 28  1  0
 27 29  2  0
 29 30  1  0
 29 31  1  0
 31 32  1  0
 31 33  2  0
 33 34  1  0
 34 35  2  0
 34  9  1  0
 21 15  2  0
 33 24  1  0
M  END
>  <UniqueID>  (40) 
401

>  <SMILES>  (40) 
O=c1c2ccccc2nc(/C=C\c2c[nH]cn2)n1CCO

>  <Energy>  (40) 
79.69483078507324

>  <Genealogy>  (40) 
O=c1c2ccccc2nc(C=Cc2c[nH]cn2)n1CCO (tautomer)
O=c1c2ccccc2nc(/C=C\c2c[nH]cn2)n1CCO (cis-trans isomerization)
O=c1c2ccccc2nc(/C=C\c2c[nH]cn2)n1CCO (3D coordinates assigned)
O=c1c2ccccc2nc(/C=C\c2c[nH]cn2)n1CCO (optimized conformer: 79.69483078507324 kcal/mol)

>  <smiles>  (40) 
O=c1c2ccccc2nc(/C=C/c2cnc[nH]2)n1CCO

>  <score_type>  (40) 
oracle

>  <origin>  (40) 
autodockgpu

>  <m_score__min__energy>  (40) 
-6.6299999999999999

>  <m_primary>  (40) 
energy

>  <meeko>  (40) 
{"free_energy": -6.52, "intermolecular_energy": -8.31, "internal_energy": -1.36, "cluster_size": 13, "cluster_id": 1, "rank_in_cluster": 11}

>  <energy>  (40) 
-6.07

>  <cluster_rmsd>  (40) 
0.0

>  <rmsd>  (40) 
272.72

>  <cluster>  (40) 
3

$$$$
ISFQUULIKQOBJE-WSTWIXMCNA-N
     RDKit          3D

 35 37  0  0  0  0  0  0  0  0999 V2000
  139.6460   73.2570  223.4870 H   0  0  0  0  0  0  0  0  0  0  0  0
  140.1510   73.1310  222.6450 O   0  0  0  0  0  0  0  0  0  0  0  0
  140.0360   71.7760  222.3170 C   0  0  0  0  0  0  0  0  0  0  0  0
  140.8977   71.2291  222.7273 H   0  0  0  0  0  0  0  0  0  0  0  0
  140.0112   71.6742  221.2220 H   0  0  0  0  0  0  0  0  0  0  0  0
  138.7430   71.1940  222.9010 C   0  0  0  0  0  0  0  0  0  0  0  0
  138.2061   70.6488  222.1107 H   0  0  0  0  0  0  0  0  0  0  0  0
  138.1308   72.0231  223.2854 H   0  0  0  0  0  0  0  0  0  0  0  0
  139.0300   70.2640  224.0210 N   0  0  0  0  0  0  0  0  0  0  0  0
  138.5860   68.9520  224.0210 C   0  0  0  0  0  0  0  0  0  0  0  0
  137.8030   68.3600  222.8970 C   0  0  0  0  0  0  0  0  0  0  0  0
  138.3295   67.7592  222.1408 H   0  0  0  0  0  0  0  0  0  0  0  0
  136.4790   68.5360  222.7780 C   0  0  0  0  0  0  0  0  0  0  0  0
  136.0090   68.3847  221.7951 H   0  0  0  0  0  0  0  0  0  0  0  0
  135.6330   68.9250  223.9190 C   0  0  0  0  0  0  0  0  0  0  0  0
  134.7010   68.1410  224.4970 N   0  0  0  0  0  0  0  0  0  0  0  0
  134.1780   68.9150  225.4700 C   0  0  0  0  0  0  0  0  0  0  0  0
  133.3811   68.5827  226.1515 H   0  0  0  0  0  0  0  0  0  0  0  0
  134.7370   70.1370  225.5160 N   0  0  0  0  0  0  0  0  0  0  0  0
  134.5010   70.9130  226.1720 H   0  0  0  0  0  0  0  0  0  0  0  0
  135.6540   70.1550  224.5360 C   0  0  0  0  0  0  0  0  0  0  0  0
  136.3056   71.0013  224.2731 H   0  0  0  0  0  0  0  0  0  0  0  0
  138.8690   68.1490  225.0820 N   0  0  0  0  0  0  0  0  0  0  0  0
  139.5880   68.5770  226.1440 C   0  0  0  0  0  0  0  0  0  0  0  0
  139.8320   67.7110  227.2180 C   0  0  0  0  0  0  0  0  0  0  0  0
  139.4333   66.6860  227.1999 H   0  0  0  0  0  0  0  0  0  0  0  0
  140.5820   68.1500  228.3120 C   0  0  0  0  0  0  0  0  0  0  0  0
  140.7706   67.4712  229.1568 H   0  0  0  0  0  0  0  0  0  0  0  0
  141.0930   69.4510  228.3340 C   0  0  0  0  0  0  0  0  0  0  0  0
  141.6907   69.7913  229.1924 H   0  0  0  0  0  0  0  0  0  0  0  0
  140.8460   70.3210  227.2670 C   0  0  0  0  0  0  0  0  0  0  0  0
  141.2474   71.3449  227.2881 H   0  0  0  0  0  0  0  0  0  0  0  0
  140.0830   69.8860  226.1650 C   0  0  0  0  0  0  0  0  0  0  0  0
  139.8040   70.7170  225.0690 C   0  0  0  0  0  0  0  0  0  0  0  0
  140.2710   71.8920  225.0540 O   0  0  0  0  0  0  0  0  0  0  0  0
  1  2  1  0
  2  3  1  0
  3  4  1  0
  3  5  1  0
  3  6  1  0
  6  7  1  0
  6  8  1  0
  6  9  1  0
  9 10  1  0
 10 11  1  0
 11 12  1  0
 11 13  2  0
 13 14  1  0
 13 15  1  0
 15 16  1  0
 16 17  2  0
 17 18  1  0
 17 19  1  0
 19 20  1  0
 19 21  1  0
 21 22  1  0
 10 23  2  0
 23 24  1  0
 24 25  2  0
 25 26  1  0
 25 27  1  0
 27 28  1  0
 27 29  2  0
 29 30  1  0
 29 31  1  0
 31 32  1  0
 31 33  2  0
 33 34  1  0
 34 35  2  0
 34  9  1  0
 21 15  2  0
 33 24  1  0
M  END
>  <UniqueID>  (41) 
402

>  <SMILES>  (41) 
O=c1c2ccccc2nc(/C=C/c2c[nH]cn2)n1CCO

>  <Energy>  (41) 
74.02091278396843

>  <Genealogy>  (41) 
O=c1c2ccccc2nc(C=Cc2c[nH]cn2)n1CCO (tautomer)
O=c1c2ccccc2nc(/C=C/c2c[nH]cn2)n1CCO (cis-trans isomerization)
O=c1c2ccccc2nc(/C=C/c2c[nH]cn2)n1CCO (3D coordinates assigned)
O=c1c2ccccc2nc(/C=C/c2c[nH]cn2)n1CCO (optimized conformer: 74.02091278396843 kcal/mol)

>  <smiles>  (41) 
O=c1c2ccccc2nc(/C=C/c2cnc[nH]2)n1CCO

>  <score_type>  (41) 
oracle

>  <origin>  (41) 
autodockgpu

>  <m_score__min__energy>  (41) 
-6.5499999999999998

>  <m_primary>  (41) 
energy

>  <meeko>  (41) 
{"free_energy": -6.33, "intermolecular_energy": -8.12, "internal_energy": -1.37, "cluster_size": 5, "cluster_id": 2, "rank_in_cluster": 3}

>  <energy>  (41) 
-6.55

>  <cluster_rmsd>  (41) 
0.0

>  <rmsd>  (41) 
272.22

>  <cluster>  (41) 
1

$$$$
ISFQUULIKQOBJE-WSTWIXMCNA-N
     RDKit          3D

 35 37  0  0  0  0  0  0  0  0999 V2000
  137.2560   68.4010  224.7360 H   0  0  0  0  0  0  0  0  0  0  0  0
  136.6410   68.8770  224.1240 O   0  0  0  0  0  0  0  0  0  0  0  0
  137.1080   68.6330  222.8280 C   0  0  0  0  0  0  0  0  0  0  0  0
  136.7916   69.4541  222.1680 H   0  0  0  0  0  0  0  0  0  0  0  0
  136.6906   67.6798  222.4715 H   0  0  0  0  0  0  0  0  0  0  0  0
  138.6380   68.5400  222.8210 C   0  0  0  0  0  0  0  0  0  0  0  0
  139.0105   68.8339  221.8286 H   0  0  0  0  0  0  0  0  0  0  0  0
  138.9242   67.5034  223.0524 H   0  0  0  0  0  0  0  0  0  0  0  0
  139.2360   69.4310  223.8450 N   0  0  0  0  0  0  0  0  0  0  0  0
  139.4990   70.7670  223.5950 C   0  0  0  0  0  0  0  0  0  0  0  0
  139.1910   71.4250  222.2910 C   0  0  0  0  0  0  0  0  0  0  0  0
  138.1475   71.4547  221.9443 H   0  0  0  0  0  0  0  0  0  0  0  0
  140.1430   71.9810  221.5280 C   0  0  0  0  0  0  0  0  0  0  0  0
  140.6932   71.3462  220.8178 H   0  0  0  0  0  0  0  0  0  0  0  0
  140.4770   73.4140  221.6090 C   0  0  0  0  0  0  0  0  0  0  0  0
  139.6600   74.3740  222.0870 N   0  0  0  0  0  0  0  0  0  0  0  0
  140.3730   75.5110  221.9460 C   0  0  0  0  0  0  0  0  0  0  0  0
  140.0043   76.5035  222.2444 H   0  0  0  0  0  0  0  0  0  0  0  0
  141.5830   75.2980  221.4010 N   0  0  0  0  0  0  0  0  0  0  0  0
  142.3120   76.0140  221.1860 H   0  0  0  0  0  0  0  0  0  0  0  0
  141.6560   73.9770  221.1790 C   0  0  0  0  0  0  0  0  0  0  0  0
  142.5063   73.4403  220.7330 H   0  0  0  0  0  0  0  0  0  0  0  0
  140.0600   71.5330  224.5690 N   0  0  0  0  0  0  0  0  0  0  0  0
  140.3620   71.0450  225.7920 C   0  0  0  0  0  0  0  0  0  0  0  0
  140.9570   71.8760  226.7500 C   0  0  0  0  0  0  0  0  0  0  0  0
  141.1847   72.9239  226.5048 H   0  0  0  0  0  0  0  0  0  0  0  0
  141.2610   71.3720  228.0180 C   0  0  0  0  0  0  0  0  0  0  0  0
  141.7318   72.0232  228.7692 H   0  0  0  0  0  0  0  0  0  0  0  0
  140.9680   70.0430  228.3330 C   0  0  0  0  0  0  0  0  0  0  0  0
  141.1995   69.6525  229.3350 H   0  0  0  0  0  0  0  0  0  0  0  0
  140.3810   69.2080  227.3770 C   0  0  0  0  0  0  0  0  0  0  0  0
  140.1550   68.1608  227.6265 H   0  0  0  0  0  0  0  0  0  0  0  0
  140.0790   69.7070  226.0950 C   0  0  0  0  0  0  0  0  0  0  0  0
  139.4910   68.9130  225.0980 C   0  0  0  0  0  0  0  0  0  0  0  0
  139.1970   67.7130  225.3620 O   0  0  0  0  0  0  0  0  0  0  0  0
  1  2  1  0
  2  3  1  0
  3  4  1  0
  3  5  1  0
  3  6  1  0
  6  7  1  0
  6  8  1  0
  6  9  1  0
  9 10  1  0
 10 11  1  0
 11 12  1  0
 11 13  2  0
 13 14  1  0
 13 15  1  0
 15 16  1  0
 16 17  2  0
 17 18  1  0
 17 19  1  0
 19 20  1  0
 19 21  1  0
 21 22  1  0
 10 23  2  0
 23 24  1  0
 24 25  2  0
 25 26  1  0
 25 27  1  0
 27 28  1  0
 27 29  2  0
 29 30  1  0
 29 31  1  0
 31 32  1  0
 31 33  2  0
 33 34  1  0
 34 35  2  0
 34  9  1  0
 21 15  2  0
 33 24  1  0
M  END
>  <UniqueID>  (42) 
402

>  <SMILES>  (42) 
O=c1c2ccccc2nc(/C=C/c2c[nH]cn2)n1CCO

>  <Energy>  (42) 
74.02091278396843

>  <Genealogy>  (42) 
O=c1c2ccccc2nc(C=Cc2c[nH]cn2)n1CCO (tautomer)
O=c1c2ccccc2nc(/C=C/c2c[nH]cn2)n1CCO (cis-trans isomerization)
O=c1c2ccccc2nc(/C=C/c2c[nH]cn2)n1CCO (3D coordinates assigned)
O=c1c2ccccc2nc(/C=C/c2c[nH]cn2)n1CCO (optimized conformer: 74.02091278396843 kcal/mol)

>  <smiles>  (42) 
O=c1c2ccccc2nc(/C=C/c2cnc[nH]2)n1CCO

>  <score_type>  (42) 
oracle

>  <origin>  (42) 
autodockgpu

>  <m_score__min__energy>  (42) 
-6.5499999999999998

>  <m_primary>  (42) 
energy

>  <meeko>  (42) 
{"free_energy": -6.51, "intermolecular_energy": -8.3, "internal_energy": -1.4, "cluster_size": 12, "cluster_id": 1, "rank_in_cluster": 8}

>  <energy>  (42) 
-6.53

>  <cluster_rmsd>  (42) 
0.17

>  <rmsd>  (42) 
272.21

>  <cluster>  (42) 
1

$$$$
ISFQUULIKQOBJE-WSTWIXMCNA-N
     RDKit          3D

 35 37  0  0  0  0  0  0  0  0999 V2000
  137.2430   68.3790  224.5000 H   0  0  0  0  0  0  0  0  0  0  0  0
  136.7770   68.9550  223.8430 O   0  0  0  0  0  0  0  0  0  0  0  0
  137.3090   68.6350  222.5900 C   0  0  0  0  0  0  0  0  0  0  0  0
  137.0179   69.4084  221.8640 H   0  0  0  0  0  0  0  0  0  0  0  0
  136.9184   67.6561  222.2751 H   0  0  0  0  0  0  0  0  0  0  0  0
  138.8390   68.5610  222.6640 C   0  0  0  0  0  0  0  0  0  0  0  0
  139.2600   68.8665  221.6948 H   0  0  0  0  0  0  0  0  0  0  0  0
  139.1258   67.5264  222.9036 H   0  0  0  0  0  0  0  0  0  0  0  0
  139.3700   69.4520  223.7240 N   0  0  0  0  0  0  0  0  0  0  0  0
  139.6920   70.7760  223.4800 C   0  0  0  0  0  0  0  0  0  0  0  0
  139.5160   71.4230  222.1460 C   0  0  0  0  0  0  0  0  0  0  0  0
  139.8831   70.9012  221.2499 H   0  0  0  0  0  0  0  0  0  0  0  0
  138.9260   72.6180  222.0030 C   0  0  0  0  0  0  0  0  0  0  0  0
  137.8315   72.6617  221.9024 H   0  0  0  0  0  0  0  0  0  0  0  0
  139.6940   73.8750  221.9760 C   0  0  0  0  0  0  0  0  0  0  0  0
  139.2160   75.0840  222.3330 N   0  0  0  0  0  0  0  0  0  0  0  0
  140.2540   75.9210  222.1280 C   0  0  0  0  0  0  0  0  0  0  0  0
  140.2133   77.0028  222.3231 H   0  0  0  0  0  0  0  0  0  0  0  0
  141.3440   75.2880  221.6590 N   0  0  0  0  0  0  0  0  0  0  0  0
  142.2650   75.7150  221.4180 H   0  0  0  0  0  0  0  0  0  0  0  0
  140.9980   73.9960  221.5540 C   0  0  0  0  0  0  0  0  0  0  0  0
  141.6417   73.1795  221.1948 H   0  0  0  0  0  0  0  0  0  0  0  0
  140.1870   71.5420  224.4890 N   0  0  0  0  0  0  0  0  0  0  0  0
  140.3690   71.0650  225.7400 C   0  0  0  0  0  0  0  0  0  0  0  0
  140.9010   71.8940  226.7360 C   0  0  0  0  0  0  0  0  0  0  0  0
  141.1778   72.9317  226.4980 H   0  0  0  0  0  0  0  0  0  0  0  0
  141.0800   71.4030  228.0310 C   0  0  0  0  0  0  0  0  0  0  0  0
  141.5017   72.0534  228.8115 H   0  0  0  0  0  0  0  0  0  0  0  0
  140.7240   70.0860  228.3370 C   0  0  0  0  0  0  0  0  0  0  0  0
  140.8573   69.7048  229.3602 H   0  0  0  0  0  0  0  0  0  0  0  0
  140.1990   69.2530  227.3450 C   0  0  0  0  0  0  0  0  0  0  0  0
  139.9230   68.2162  227.5875 H   0  0  0  0  0  0  0  0  0  0  0  0
  140.0230   69.7400  226.0350 C   0  0  0  0  0  0  0  0  0  0  0  0
  139.5010   68.9470  225.0010 C   0  0  0  0  0  0  0  0  0  0  0  0
  139.1520   67.7590  225.2540 O   0  0  0  0  0  0  0  0  0  0  0  0
  1  2  1  0
  2  3  1  0
  3  4  1  0
  3  5  1  0
  3  6  1  0
  6  7  1  0
  6  8  1  0
  6  9  1  0
  9 10  1  0
 10 11  1  0
 11 12  1  0
 11 13  2  0
 13 14  1  0
 13 15  1  0
 15 16  1  0
 16 17  2  0
 17 18  1  0
 17 19  1  0
 19 20  1  0
 19 21  1  0
 21 22  1  0
 10 23  2  0
 23 24  1  0
 24 25  2  0
 25 26  1  0
 25 27  1  0
 27 28  1  0
 27 29  2  0
 29 30  1  0
 29 31  1  0
 31 32  1  0
 31 33  2  0
 33 34  1  0
 34 35  2  0
 34  9  1  0
 21 15  2  0
 33 24  1  0
M  END
>  <UniqueID>  (43) 
402

>  <SMILES>  (43) 
O=c1c2ccccc2nc(/C=C/c2c[nH]cn2)n1CCO

>  <Energy>  (43) 
74.02091278396843

>  <Genealogy>  (43) 
O=c1c2ccccc2nc(C=Cc2c[nH]cn2)n1CCO (tautomer)
O=c1c2ccccc2nc(/C=C/c2c[nH]cn2)n1CCO (cis-trans isomerization)
O=c1c2ccccc2nc(/C=C/c2c[nH]cn2)n1CCO (3D coordinates assigned)
O=c1c2ccccc2nc(/C=C/c2c[nH]cn2)n1CCO (optimized conformer: 74.02091278396843 kcal/mol)

>  <smiles>  (43) 
O=c1c2ccccc2nc(/C=C/c2cnc[nH]2)n1CCO

>  <score_type>  (43) 
oracle

>  <origin>  (43) 
autodockgpu

>  <m_score__min__energy>  (43) 
-6.5499999999999998

>  <m_primary>  (43) 
energy

>  <meeko>  (43) 
{"free_energy": -6.3, "intermolecular_energy": -8.09, "internal_energy": -1.43, "cluster_size": 12, "cluster_id": 1, "rank_in_cluster": 12}

>  <energy>  (43) 
-6.53

>  <cluster_rmsd>  (43) 
0.93

>  <rmsd>  (43) 
272.19

>  <cluster>  (43) 
1

$$$$
ISFQUULIKQOBJE-WSTWIXMCNA-N
     RDKit          3D

 35 37  0  0  0  0  0  0  0  0999 V2000
  137.3080   68.4390  224.4960 H   0  0  0  0  0  0  0  0  0  0  0  0
  136.7190   68.9240  223.8650 O   0  0  0  0  0  0  0  0  0  0  0  0
  137.2820   68.7590  222.5950 C   0  0  0  0  0  0  0  0  0  0  0  0
  137.0424   69.6358  221.9754 H   0  0  0  0  0  0  0  0  0  0  0  0
  136.8687   67.8485  222.1365 H   0  0  0  0  0  0  0  0  0  0  0  0
  138.8040   68.6160  222.7010 C   0  0  0  0  0  0  0  0  0  0  0  0
  139.2579   68.8916  221.7377 H   0  0  0  0  0  0  0  0  0  0  0  0
  139.0381   67.5720  222.9565 H   0  0  0  0  0  0  0  0  0  0  0  0
  139.3540   69.4930  223.7630 N   0  0  0  0  0  0  0  0  0  0  0  0
  139.6500   70.8270  223.5360 C   0  0  0  0  0  0  0  0  0  0  0  0
  139.4270   71.4960  222.2210 C   0  0  0  0  0  0  0  0  0  0  0  0
  138.4173   71.4872  221.7845 H   0  0  0  0  0  0  0  0  0  0  0  0
  140.4170   72.1080  221.5530 C   0  0  0  0  0  0  0  0  0  0  0  0
  141.0836   71.5040  220.9199 H   0  0  0  0  0  0  0  0  0  0  0  0
  140.6410   73.5610  221.6390 C   0  0  0  0  0  0  0  0  0  0  0  0
  139.7650   74.4520  222.1460 N   0  0  0  0  0  0  0  0  0  0  0  0
  140.3840   75.6410  221.9990 C   0  0  0  0  0  0  0  0  0  0  0  0
  139.9478   76.5994  222.3171 H   0  0  0  0  0  0  0  0  0  0  0  0
  141.5930   75.5270  221.4210 N   0  0  0  0  0  0  0  0  0  0  0  0
  142.2590   76.2980  221.1960 H   0  0  0  0  0  0  0  0  0  0  0  0
  141.7620   74.2170  221.1850 C   0  0  0  0  0  0  0  0  0  0  0  0
  142.6396   73.7510  220.7131 H   0  0  0  0  0  0  0  0  0  0  0  0
  140.1650   71.5790  224.5460 N   0  0  0  0  0  0  0  0  0  0  0  0
  140.3890   71.0800  225.7810 C   0  0  0  0  0  0  0  0  0  0  0  0
  140.9400   71.8970  226.7770 C   0  0  0  0  0  0  0  0  0  0  0  0
  141.1969   72.9425  226.5514 H   0  0  0  0  0  0  0  0  0  0  0  0
  141.1630   71.3830  228.0570 C   0  0  0  0  0  0  0  0  0  0  0  0
  141.5987   72.0234  228.8380 H   0  0  0  0  0  0  0  0  0  0  0  0
  140.8330   70.0560  228.3460 C   0  0  0  0  0  0  0  0  0  0  0  0
  141.0005   69.6569  229.3573 H   0  0  0  0  0  0  0  0  0  0  0  0
  140.2910   69.2350  227.3540 C   0  0  0  0  0  0  0  0  0  0  0  0
  140.0366   68.1898  227.5839 H   0  0  0  0  0  0  0  0  0  0  0  0
  140.0700   69.7450  226.0590 C   0  0  0  0  0  0  0  0  0  0  0  0
  139.5290   68.9650  225.0250 C   0  0  0  0  0  0  0  0  0  0  0  0
  139.2030   67.7680  225.2640 O   0  0  0  0  0  0  0  0  0  0  0  0
  1  2  1  0
  2  3  1  0
  3  4  1  0
  3  5  1  0
  3  6  1  0
  6  7  1  0
  6  8  1  0
  6  9  1  0
  9 10  1  0
 10 11  1  0
 11 12  1  0
 11 13  2  0
 13 14  1  0
 13 15  1  0
 15 16  1  0
 16 17  2  0
 17 18  1  0
 17 19  1  0
 19 20  1  0
 19 21  1  0
 21 22  1  0
 10 23  2  0
 23 24  1  0
 24 25  2  0
 25 26  1  0
 25 27  1  0
 27 28  1  0
 27 29  2  0
 29 30  1  0
 29 31  1  0
 31 32  1  0
 31 33  2  0
 33 34  1  0
 34 35  2  0
 34  9  1  0
 21 15  2  0
 33 24  1  0
M  END
>  <UniqueID>  (44) 
402

>  <SMILES>  (44) 
O=c1c2ccccc2nc(/C=C/c2c[nH]cn2)n1CCO

>  <Energy>  (44) 
74.02091278396843

>  <Genealogy>  (44) 
O=c1c2ccccc2nc(C=Cc2c[nH]cn2)n1CCO (tautomer)
O=c1c2ccccc2nc(/C=C/c2c[nH]cn2)n1CCO (cis-trans isomerization)
O=c1c2ccccc2nc(/C=C/c2c[nH]cn2)n1CCO (3D coordinates assigned)
O=c1c2ccccc2nc(/C=C/c2c[nH]cn2)n1CCO (optimized conformer: 74.02091278396843 kcal/mol)

>  <smiles>  (44) 
O=c1c2ccccc2nc(/C=C/c2cnc[nH]2)n1CCO

>  <score_type>  (44) 
oracle

>  <origin>  (44) 
autodockgpu

>  <m_score__min__energy>  (44) 
-6.5499999999999998

>  <m_primary>  (44) 
energy

>  <meeko>  (44) 
{"free_energy": -6.52, "intermolecular_energy": -8.31, "internal_energy": -1.39, "cluster_size": 12, "cluster_id": 1, "rank_in_cluster": 5}

>  <energy>  (44) 
-6.53

>  <cluster_rmsd>  (44) 
0.92

>  <rmsd>  (44) 
272.19

>  <cluster>  (44) 
1

$$$$
ISFQUULIKQOBJE-WSTWIXMCNA-N
     RDKit          3D

 35 37  0  0  0  0  0  0  0  0999 V2000
  137.2420   68.3190  224.4800 H   0  0  0  0  0  0  0  0  0  0  0  0
  136.7550   68.8920  223.8370 O   0  0  0  0  0  0  0  0  0  0  0  0
  137.3250   68.6500  222.5830 C   0  0  0  0  0  0  0  0  0  0  0  0
  137.1065   69.4967  221.9157 H   0  0  0  0  0  0  0  0  0  0  0  0
  136.8990   67.7241  222.1692 H   0  0  0  0  0  0  0  0  0  0  0  0
  138.8440   68.4860  222.7110 C   0  0  0  0  0  0  0  0  0  0  0  0
  139.3124   68.7180  221.7431 H   0  0  0  0  0  0  0  0  0  0  0  0
  139.0578   67.4485  223.0076 H   0  0  0  0  0  0  0  0  0  0  0  0
  139.3980   69.3930  223.7460 N   0  0  0  0  0  0  0  0  0  0  0  0
  139.7750   70.6940  223.4580 C   0  0  0  0  0  0  0  0  0  0  0  0
  139.6410   71.2970  222.0990 C   0  0  0  0  0  0  0  0  0  0  0  0
  140.0554   70.7575  221.2346 H   0  0  0  0  0  0  0  0  0  0  0  0
  139.0320   72.4750  221.8970 C   0  0  0  0  0  0  0  0  0  0  0  0
  137.9512   72.4870  221.6925 H   0  0  0  0  0  0  0  0  0  0  0  0
  139.7630   73.7530  221.9400 C   0  0  0  0  0  0  0  0  0  0  0  0
  139.2400   74.9330  222.3320 N   0  0  0  0  0  0  0  0  0  0  0  0
  140.2570   75.8070  222.1880 C   0  0  0  0  0  0  0  0  0  0  0  0
  140.1795   76.8780  222.4265 H   0  0  0  0  0  0  0  0  0  0  0  0
  141.3760   75.2260  221.7210 N   0  0  0  0  0  0  0  0  0  0  0  0
  142.2900   75.6890  221.5210 H   0  0  0  0  0  0  0  0  0  0  0  0
  141.0720   73.9300  221.5560 C   0  0  0  0  0  0  0  0  0  0  0  0
  141.7487   73.1482  221.1806 H   0  0  0  0  0  0  0  0  0  0  0  0
  140.2890   71.4760  224.4450 N   0  0  0  0  0  0  0  0  0  0  0  0
  140.4360   71.0380  225.7150 C   0  0  0  0  0  0  0  0  0  0  0  0
  140.9900   71.8820  226.6870 C   0  0  0  0  0  0  0  0  0  0  0  0
  141.3113   72.8982  226.4149 H   0  0  0  0  0  0  0  0  0  0  0  0
  141.1340   71.4320  228.0020 C   0  0  0  0  0  0  0  0  0  0  0  0
  141.5719   72.0933  228.7642 H   0  0  0  0  0  0  0  0  0  0  0  0
  140.7220   70.1420  228.3500 C   0  0  0  0  0  0  0  0  0  0  0  0
  140.8278   69.7935  229.3880 H   0  0  0  0  0  0  0  0  0  0  0  0
  140.1760   69.2940  227.3820 C   0  0  0  0  0  0  0  0  0  0  0  0
  139.8562   68.2784  227.6581 H   0  0  0  0  0  0  0  0  0  0  0  0
  140.0350   69.7400  226.0520 C   0  0  0  0  0  0  0  0  0  0  0  0
  139.4940   68.9300  225.0410 C   0  0  0  0  0  0  0  0  0  0  0  0
  139.0950   67.7670  225.3330 O   0  0  0  0  0  0  0  0  0  0  0  0
  1  2  1  0
  2  3  1  0
  3  4  1  0
  3  5  1  0
  3  6  1  0
  6  7  1  0
  6  8  1  0
  6  9  1  0
  9 10  1  0
 10 11  1  0
 11 12  1  0
 11 13  2  0
 13 14  1  0
 13 15  1  0
 15 16  1  0
 16 17  2  0
 17 18  1  0
 17 19  1  0
 19 20  1  0
 19 21  1  0
 21 22  1  0
 10 23  2  0
 23 24  1  0
 24 25  2  0
 25 26  1  0
 25 27  1  0
 27 28  1  0
 27 29  2  0
 29 30  1  0
 29 31  1  0
 31 32  1  0
 31 33  2  0
 33 34  1  0
 34 35  2  0
 34  9  1  0
 21 15  2  0
 33 24  1  0
M  END
>  <UniqueID>  (45) 
402

>  <SMILES>  (45) 
O=c1c2ccccc2nc(/C=C/c2c[nH]cn2)n1CCO

>  <Energy>  (45) 
74.02091278396843

>  <Genealogy>  (45) 
O=c1c2ccccc2nc(C=Cc2c[nH]cn2)n1CCO (tautomer)
O=c1c2ccccc2nc(/C=C/c2c[nH]cn2)n1CCO (cis-trans isomerization)
O=c1c2ccccc2nc(/C=C/c2c[nH]cn2)n1CCO (3D coordinates assigned)
O=c1c2ccccc2nc(/C=C/c2c[nH]cn2)n1CCO (optimized conformer: 74.02091278396843 kcal/mol)

>  <smiles>  (45) 
O=c1c2ccccc2nc(/C=C/c2cnc[nH]2)n1CCO

>  <score_type>  (45) 
oracle

>  <origin>  (45) 
autodockgpu

>  <m_score__min__energy>  (45) 
-6.5499999999999998

>  <m_primary>  (45) 
energy

>  <meeko>  (45) 
{"free_energy": -6.31, "intermolecular_energy": -8.1, "internal_energy": -1.44, "cluster_size": 12, "cluster_id": 1, "rank_in_cluster": 11}

>  <energy>  (45) 
-6.52

>  <cluster_rmsd>  (45) 
0.92

>  <rmsd>  (45) 
272.2

>  <cluster>  (45) 
1

$$$$
ISFQUULIKQOBJE-WSTWIXMCNA-N
     RDKit          3D

 35 37  0  0  0  0  0  0  0  0999 V2000
  139.7230   73.2900  223.5090 H   0  0  0  0  0  0  0  0  0  0  0  0
  140.2320   73.1380  222.6730 O   0  0  0  0  0  0  0  0  0  0  0  0
  140.0190   71.8020  222.3200 C   0  0  0  0  0  0  0  0  0  0  0  0
  140.8711   71.1965  222.6623 H   0  0  0  0  0  0  0  0  0  0  0  0
  139.9212   71.7333  221.2265 H   0  0  0  0  0  0  0  0  0  0  0  0
  138.7330   71.2760  222.9680 C   0  0  0  0  0  0  0  0  0  0  0  0
  138.1353   70.7539  222.2063 H   0  0  0  0  0  0  0  0  0  0  0  0
  138.1766   72.1308  223.3800 H   0  0  0  0  0  0  0  0  0  0  0  0
  139.0340   70.3350  224.0750 N   0  0  0  0  0  0  0  0  0  0  0  0
  138.5680   69.0320  224.0800 C   0  0  0  0  0  0  0  0  0  0  0  0
  137.7450   68.4590  222.9740 C   0  0  0  0  0  0  0  0  0  0  0  0
  138.2518   67.9306  222.1530 H   0  0  0  0  0  0  0  0  0  0  0  0
  136.4080   68.5670  222.9480 C   0  0  0  0  0  0  0  0  0  0  0  0
  135.8456   68.0237  222.1744 H   0  0  0  0  0  0  0  0  0  0  0  0
  135.6680   69.3890  223.9210 C   0  0  0  0  0  0  0  0  0  0  0  0
  135.5840   70.7350  223.8940 N   0  0  0  0  0  0  0  0  0  0  0  0
  134.8340   71.0390  224.9730 C   0  0  0  0  0  0  0  0  0  0  0  0
  134.5599   72.0660  225.2560 H   0  0  0  0  0  0  0  0  0  0  0  0
  134.4580   69.9490  225.6650 N   0  0  0  0  0  0  0  0  0  0  0  0
  133.8820   69.9220  226.5350 H   0  0  0  0  0  0  0  0  0  0  0  0
  134.9840   68.9020  225.0110 C   0  0  0  0  0  0  0  0  0  0  0  0
  134.8859   67.8439  225.2954 H   0  0  0  0  0  0  0  0  0  0  0  0
  138.8650   68.2190  225.1290 N   0  0  0  0  0  0  0  0  0  0  0  0
  139.6190   68.6280  226.1730 C   0  0  0  0  0  0  0  0  0  0  0  0
  139.8770   67.7520  227.2360 C   0  0  0  0  0  0  0  0  0  0  0  0
  139.4604   66.7340  227.2241 H   0  0  0  0  0  0  0  0  0  0  0  0
  140.6640   68.1730  228.3110 C   0  0  0  0  0  0  0  0  0  0  0  0
  140.8636   67.4867  229.1472 H   0  0  0  0  0  0  0  0  0  0  0  0
  141.1980   69.4640  228.3260 C   0  0  0  0  0  0  0  0  0  0  0  0
  141.8255   69.7888  229.1690 H   0  0  0  0  0  0  0  0  0  0  0  0
  140.9360   70.3440  227.2710 C   0  0  0  0  0  0  0  0  0  0  0  0
  141.3533   71.3616  227.2876 H   0  0  0  0  0  0  0  0  0  0  0  0
  140.1380   69.9280  226.1870 C   0  0  0  0  0  0  0  0  0  0  0  0
  139.8430   70.7700  225.1040 C   0  0  0  0  0  0  0  0  0  0  0  0
  140.3290   71.9370  225.0820 O   0  0  0  0  0  0  0  0  0  0  0  0
  1  2  1  0
  2  3  1  0
  3  4  1  0
  3  5  1  0
  3  6  1  0
  6  7  1  0
  6  8  1  0
  6  9  1  0
  9 10  1  0
 10 11  1  0
 11 12  1  0
 11 13  2  0
 13 14  1  0
 13 15  1  0
 15 16  1  0
 16 17  2  0
 17 18  1  0
 17 19  1  0
 19 20  1  0
 19 21  1  0
 21 22  1  0
 10 23  2  0
 23 24  1  0
 24 25  2  0
 25 26  1  0
 25 27  1  0
 27 28  1  0
 27 29  2  0
 29 30  1  0
 29 31  1  0
 31 32  1  0
 31 33  2  0
 33 34  1  0
 34 35  2  0
 34  9  1  0
 21 15  2  0
 33 24  1  0
M  END
>  <UniqueID>  (46) 
402

>  <SMILES>  (46) 
O=c1c2ccccc2nc(/C=C/c2c[nH]cn2)n1CCO

>  <Energy>  (46) 
74.02091278396843

>  <Genealogy>  (46) 
O=c1c2ccccc2nc(C=Cc2c[nH]cn2)n1CCO (tautomer)
O=c1c2ccccc2nc(/C=C/c2c[nH]cn2)n1CCO (cis-trans isomerization)
O=c1c2ccccc2nc(/C=C/c2c[nH]cn2)n1CCO (3D coordinates assigned)
O=c1c2ccccc2nc(/C=C/c2c[nH]cn2)n1CCO (optimized conformer: 74.02091278396843 kcal/mol)

>  <smiles>  (46) 
O=c1c2ccccc2nc(/C=C/c2cnc[nH]2)n1CCO

>  <score_type>  (46) 
oracle

>  <origin>  (46) 
autodockgpu

>  <m_score__min__energy>  (46) 
-6.5499999999999998

>  <m_primary>  (46) 
energy

>  <meeko>  (46) 
{"free_energy": -5.63, "intermolecular_energy": -7.42, "internal_energy": -1.49, "cluster_size": 5, "cluster_id": 2, "rank_in_cluster": 5}

>  <energy>  (46) 
-6.52

>  <cluster_rmsd>  (46) 
0.93

>  <rmsd>  (46) 
272.19

>  <cluster>  (46) 
1

$$$$
ISFQUULIKQOBJE-WSTWIXMCNA-N
     RDKit          3D

 35 37  0  0  0  0  0  0  0  0999 V2000
  139.6720   73.2710  223.4870 H   0  0  0  0  0  0  0  0  0  0  0  0
  140.2160   73.1280  222.6730 O   0  0  0  0  0  0  0  0  0  0  0  0
  140.0390   71.7890  222.3110 C   0  0  0  0  0  0  0  0  0  0  0  0
  140.8900   71.1980  222.6803 H   0  0  0  0  0  0  0  0  0  0  0  0
  139.9790   71.7202  221.2148 H   0  0  0  0  0  0  0  0  0  0  0  0
  138.7420   71.2400  222.9160 C   0  0  0  0  0  0  0  0  0  0  0  0
  138.1808   70.7053  222.1355 H   0  0  0  0  0  0  0  0  0  0  0  0
  138.1562   72.0850  223.3068 H   0  0  0  0  0  0  0  0  0  0  0  0
  139.0220   70.3070  224.0350 N   0  0  0  0  0  0  0  0  0  0  0  0
  138.5610   69.0020  224.0390 C   0  0  0  0  0  0  0  0  0  0  0  0
  137.7640   68.4190  222.9200 C   0  0  0  0  0  0  0  0  0  0  0  0
  138.2795   67.8157  222.1582 H   0  0  0  0  0  0  0  0  0  0  0  0
  136.4400   68.6060  222.8120 C   0  0  0  0  0  0  0  0  0  0  0  0
  135.9651   68.4880  221.8268 H   0  0  0  0  0  0  0  0  0  0  0  0
  135.6010   68.9640  223.9680 C   0  0  0  0  0  0  0  0  0  0  0  0
  134.6960   68.1530  224.5510 N   0  0  0  0  0  0  0  0  0  0  0  0
  134.1680   68.9050  225.5380 C   0  0  0  0  0  0  0  0  0  0  0  0
  133.3879   68.5477  226.2263 H   0  0  0  0  0  0  0  0  0  0  0  0
  134.6990   70.1390  225.5890 N   0  0  0  0  0  0  0  0  0  0  0  0
  134.4550   70.9030  226.2560 H   0  0  0  0  0  0  0  0  0  0  0  0
  135.6020   70.1880  224.5970 C   0  0  0  0  0  0  0  0  0  0  0  0
  136.2302   71.0518  224.3340 H   0  0  0  0  0  0  0  0  0  0  0  0
  138.8390   68.1960  225.0990 N   0  0  0  0  0  0  0  0  0  0  0  0
  139.5680   68.6150  226.1570 C   0  0  0  0  0  0  0  0  0  0  0  0
  139.8070   67.7470  227.2300 C   0  0  0  0  0  0  0  0  0  0  0  0
  139.3960   66.7268  227.2147 H   0  0  0  0  0  0  0  0  0  0  0  0
  140.5680   68.1780  228.3200 C   0  0  0  0  0  0  0  0  0  0  0  0
  140.7508   67.4981  229.1652 H   0  0  0  0  0  0  0  0  0  0  0  0
  141.0970   69.4710  228.3380 C   0  0  0  0  0  0  0  0  0  0  0  0
  141.7051   69.8033  229.1923 H   0  0  0  0  0  0  0  0  0  0  0  0
  140.8550   70.3440  227.2720 C   0  0  0  0  0  0  0  0  0  0  0  0
  141.2689   71.3630  227.2908 H   0  0  0  0  0  0  0  0  0  0  0  0
  140.0810   69.9180  226.1740 C   0  0  0  0  0  0  0  0  0  0  0  0
  139.8070   70.7520  225.0790 C   0  0  0  0  0  0  0  0  0  0  0  0
  140.2890   71.9200  225.0600 O   0  0  0  0  0  0  0  0  0  0  0  0
  1  2  1  0
  2  3  1  0
  3  4  1  0
  3  5  1  0
  3  6  1  0
  6  7  1  0
  6  8  1  0
  6  9  1  0
  9 10  1  0
 10 11  1  0
 11 12  1  0
 11 13  2  0
 13 14  1  0
 13 15  1  0
 15 16  1  0
 16 17  2  0
 17 18  1  0
 17 19  1  0
 19 20  1  0
 19 21  1  0
 21 22  1  0
 10 23  2  0
 23 24  1  0
 24 25  2  0
 25 26  1  0
 25 27  1  0
 27 28  1  0
 27 29  2  0
 29 30  1  0
 29 31  1  0
 31 32  1  0
 31 33  2  0
 33 34  1  0
 34 35  2  0
 34  9  1  0
 21 15  2  0
 33 24  1  0
M  END
>  <UniqueID>  (47) 
402

>  <SMILES>  (47) 
O=c1c2ccccc2nc(/C=C/c2c[nH]cn2)n1CCO

>  <Energy>  (47) 
74.02091278396843

>  <Genealogy>  (47) 
O=c1c2ccccc2nc(C=Cc2c[nH]cn2)n1CCO (tautomer)
O=c1c2ccccc2nc(/C=C/c2c[nH]cn2)n1CCO (cis-trans isomerization)
O=c1c2ccccc2nc(/C=C/c2c[nH]cn2)n1CCO (3D coordinates assigned)
O=c1c2ccccc2nc(/C=C/c2c[nH]cn2)n1CCO (optimized conformer: 74.02091278396843 kcal/mol)

>  <smiles>  (47) 
O=c1c2ccccc2nc(/C=C/c2cnc[nH]2)n1CCO

>  <score_type>  (47) 
oracle

>  <origin>  (47) 
autodockgpu

>  <m_score__min__energy>  (47) 
-6.5499999999999998

>  <m_primary>  (47) 
energy

>  <meeko>  (47) 
{"free_energy": -6.32, "intermolecular_energy": -8.11, "internal_energy": -1.38, "cluster_size": 5, "cluster_id": 2, "rank_in_cluster": 4}

>  <energy>  (47) 
-6.52

>  <cluster_rmsd>  (47) 
0.94

>  <rmsd>  (47) 
272.16

>  <cluster>  (47) 
1

$$$$
ISFQUULIKQOBJE-WSTWIXMCNA-N
     RDKit          3D

 35 37  0  0  0  0  0  0  0  0999 V2000
  137.2780   68.3830  224.5890 H   0  0  0  0  0  0  0  0  0  0  0  0
  136.7020   68.8580  223.9390 O   0  0  0  0  0  0  0  0  0  0  0  0
  137.2360   68.5950  222.6730 C   0  0  0  0  0  0  0  0  0  0  0  0
  136.9641   69.4114  221.9878 H   0  0  0  0  0  0  0  0  0  0  0  0
  136.8291   67.6419  222.3042 H   0  0  0  0  0  0  0  0  0  0  0  0
  138.7630   68.4880  222.7510 C   0  0  0  0  0  0  0  0  0  0  0  0
  139.1916   68.7582  221.7746 H   0  0  0  0  0  0  0  0  0  0  0  0
  139.0256   67.4538  223.0182 H   0  0  0  0  0  0  0  0  0  0  0  0
  139.3140   69.3940  223.7880 N   0  0  0  0  0  0  0  0  0  0  0  0
  139.6050   70.7220  223.5270 C   0  0  0  0  0  0  0  0  0  0  0  0
  139.3740   71.3570  222.1950 C   0  0  0  0  0  0  0  0  0  0  0  0
  138.3534   71.3768  221.7851 H   0  0  0  0  0  0  0  0  0  0  0  0
  140.3700   71.9040  221.4820 C   0  0  0  0  0  0  0  0  0  0  0  0
  140.9513   71.2636  220.8023 H   0  0  0  0  0  0  0  0  0  0  0  0
  140.7110   73.3330  221.5790 C   0  0  0  0  0  0  0  0  0  0  0  0
  139.9070   74.2900  222.0860 N   0  0  0  0  0  0  0  0  0  0  0  0
  140.6220   75.4260  221.9510 C   0  0  0  0  0  0  0  0  0  0  0  0
  140.2628   76.4149  222.2720 H   0  0  0  0  0  0  0  0  0  0  0  0
  141.8220   75.2170  221.3810 N   0  0  0  0  0  0  0  0  0  0  0  0
  142.5500   75.9320  221.1660 H   0  0  0  0  0  0  0  0  0  0  0  0
  141.8850   73.8990  221.1380 C   0  0  0  0  0  0  0  0  0  0  0  0
  142.7255   73.3659  220.6696 H   0  0  0  0  0  0  0  0  0  0  0  0
  140.1200   71.5020  224.5140 N   0  0  0  0  0  0  0  0  0  0  0  0
  140.3510   71.0360  225.7610 C   0  0  0  0  0  0  0  0  0  0  0  0
  140.9020   71.8800  226.7340 C   0  0  0  0  0  0  0  0  0  0  0  0
  141.1536   72.9205  226.4809 H   0  0  0  0  0  0  0  0  0  0  0  0
  141.1320   71.4000  228.0260 C   0  0  0  0  0  0  0  0  0  0  0  0
  141.5683   72.0618  228.7887 H   0  0  0  0  0  0  0  0  0  0  0  0
  140.8080   70.0790  228.3500 C   0  0  0  0  0  0  0  0  0  0  0  0
  140.9810   69.7062  229.3704 H   0  0  0  0  0  0  0  0  0  0  0  0
  140.2650   69.2310  227.3810 C   0  0  0  0  0  0  0  0  0  0  0  0
  140.0153   68.1911  227.6385 H   0  0  0  0  0  0  0  0  0  0  0  0
  140.0370   69.7070  226.0740 C   0  0  0  0  0  0  0  0  0  0  0  0
  139.4950   68.8990  225.0630 C   0  0  0  0  0  0  0  0  0  0  0  0
  139.1750   67.7070  225.3340 O   0  0  0  0  0  0  0  0  0  0  0  0
  1  2  1  0
  2  3  1  0
  3  4  1  0
  3  5  1  0
  3  6  1  0
  6  7  1  0
  6  8  1  0
  6  9  1  0
  9 10  1  0
 10 11  1  0
 11 12  1  0
 11 13  2  0
 13 14  1  0
 13 15  1  0
 15 16  1  0
 16 17  2  0
 17 18  1  0
 17 19  1  0
 19 20  1  0
 19 21  1  0
 21 22  1  0
 10 23  2  0
 23 24  1  0
 24 25  2  0
 25 26  1  0
 25 27  1  0
 27 28  1  0
 27 29  2  0
 29 30  1  0
 29 31  1  0
 31 32  1  0
 31 33  2  0
 33 34  1  0
 34 35  2  0
 34  9  1  0
 21 15  2  0
 33 24  1  0
M  END
>  <UniqueID>  (48) 
402

>  <SMILES>  (48) 
O=c1c2ccccc2nc(/C=C/c2c[nH]cn2)n1CCO

>  <Energy>  (48) 
74.02091278396843

>  <Genealogy>  (48) 
O=c1c2ccccc2nc(C=Cc2c[nH]cn2)n1CCO (tautomer)
O=c1c2ccccc2nc(/C=C/c2c[nH]cn2)n1CCO (cis-trans isomerization)
O=c1c2ccccc2nc(/C=C/c2c[nH]cn2)n1CCO (3D coordinates assigned)
O=c1c2ccccc2nc(/C=C/c2c[nH]cn2)n1CCO (optimized conformer: 74.02091278396843 kcal/mol)

>  <smiles>  (48) 
O=c1c2ccccc2nc(/C=C/c2cnc[nH]2)n1CCO

>  <score_type>  (48) 
oracle

>  <origin>  (48) 
autodockgpu

>  <m_score__min__energy>  (48) 
-6.5499999999999998

>  <m_primary>  (48) 
energy

>  <meeko>  (48) 
{"free_energy": -6.51, "intermolecular_energy": -8.3, "internal_energy": -1.4, "cluster_size": 12, "cluster_id": 1, "rank_in_cluster": 9}

>  <energy>  (48) 
-6.51

>  <cluster_rmsd>  (48) 
0.89

>  <rmsd>  (48) 
272.18

>  <cluster>  (48) 
1

$$$$
ISFQUULIKQOBJE-WSTWIXMCNA-N
     RDKit          3D

 35 37  0  0  0  0  0  0  0  0999 V2000
  139.2470   74.1990  222.7250 H   0  0  0  0  0  0  0  0  0  0  0  0
  139.9110   73.4660  222.7180 O   0  0  0  0  0  0  0  0  0  0  0  0
  140.6870   73.6480  221.5680 C   0  0  0  0  0  0  0  0  0  0  0  0
  140.7149   72.7084  220.9966 H   0  0  0  0  0  0  0  0  0  0  0  0
  141.7053   73.9384  221.8659 H   0  0  0  0  0  0  0  0  0  0  0  0
  140.0890   74.7550  220.6920 C   0  0  0  0  0  0  0  0  0  0  0  0
  138.9979   74.7720  220.8310 H   0  0  0  0  0  0  0  0  0  0  0  0
  140.3441   74.5440  219.6430 H   0  0  0  0  0  0  0  0  0  0  0  0
  140.6430   76.0840  221.0510 N   0  0  0  0  0  0  0  0  0  0  0  0
  141.7220   76.6370  220.3830 C   0  0  0  0  0  0  0  0  0  0  0  0
  142.4050   75.9580  219.2420 C   0  0  0  0  0  0  0  0  0  0  0  0
  141.8469   75.7977  218.3077 H   0  0  0  0  0  0  0  0  0  0  0  0
  143.6760   75.5370  219.3180 C   0  0  0  0  0  0  0  0  0  0  0  0
  144.4717   76.1698  218.8979 H   0  0  0  0  0  0  0  0  0  0  0  0
  144.0420   74.2560  219.9450 C   0  0  0  0  0  0  0  0  0  0  0  0
  143.2730   73.1480  219.9520 N   0  0  0  0  0  0  0  0  0  0  0  0
  143.9990   72.2480  220.6470 C   0  0  0  0  0  0  0  0  0  0  0  0
  143.6670   71.2182  220.8451 H   0  0  0  0  0  0  0  0  0  0  0  0
  145.1730   72.7480  221.0710 N   0  0  0  0  0  0  0  0  0  0  0  0
  145.9030   72.2540  221.6300 H   0  0  0  0  0  0  0  0  0  0  0  0
  145.2070   74.0170  220.6380 C   0  0  0  0  0  0  0  0  0  0  0  0
  146.0205   74.7379  220.8066 H   0  0  0  0  0  0  0  0  0  0  0  0
  142.1940   77.8530  220.7650 N   0  0  0  0  0  0  0  0  0  0  0  0
  141.6400   78.5640  221.7720 C   0  0  0  0  0  0  0  0  0  0  0  0
  142.1810   79.8030  222.1350 C   0  0  0  0  0  0  0  0  0  0  0  0
  143.0614   80.1955  221.6051 H   0  0  0  0  0  0  0  0  0  0  0  0
  141.6020   80.5410  223.1710 C   0  0  0  0  0  0  0  0  0  0  0  0
  142.0298   81.5127  223.4588 H   0  0  0  0  0  0  0  0  0  0  0  0
  140.4800   80.0460  223.8420 C   0  0  0  0  0  0  0  0  0  0  0  0
  140.0205   80.6332  224.6507 H   0  0  0  0  0  0  0  0  0  0  0  0
  139.9410   78.8060  223.4870 C   0  0  0  0  0  0  0  0  0  0  0  0
  139.0598   78.4176  224.0187 H   0  0  0  0  0  0  0  0  0  0  0  0
  140.5250   78.0530  222.4490 C   0  0  0  0  0  0  0  0  0  0  0  0
  140.0250   76.8030  222.0540 C   0  0  0  0  0  0  0  0  0  0  0  0
  139.0000   76.3400  222.6300 O   0  0  0  0  0  0  0  0  0  0  0  0
  1  2  1  0
  2  3  1  0
  3  4  1  0
  3  5  1  0
  3  6  1  0
  6  7  1  0
  6  8  1  0
  6  9  1  0
  9 10  1  0
 10 11  1  0
 11 12  1  0
 11 13  2  0
 13 14  1  0
 13 15  1  0
 15 16  1  0
 16 17  2  0
 17 18  1  0
 17 19  1  0
 19 20  1  0
 19 21  1  0
 21 22  1  0
 10 23  2  0
 23 24  1  0
 24 25  2  0
 25 26  1  0
 25 27  1  0
 27 28  1  0
 27 29  2  0
 29 30  1  0
 29 31  1  0
 31 32  1  0
 31 33  2  0
 33 34  1  0
 34 35  2  0
 34  9  1  0
 21 15  2  0
 33 24  1  0
M  END
>  <UniqueID>  (49) 
402

>  <SMILES>  (49) 
O=c1c2ccccc2nc(/C=C/c2c[nH]cn2)n1CCO

>  <Energy>  (49) 
74.02091278396843

>  <Genealogy>  (49) 
O=c1c2ccccc2nc(C=Cc2c[nH]cn2)n1CCO (tautomer)
O=c1c2ccccc2nc(/C=C/c2c[nH]cn2)n1CCO (cis-trans isomerization)
O=c1c2ccccc2nc(/C=C/c2c[nH]cn2)n1CCO (3D coordinates assigned)
O=c1c2ccccc2nc(/C=C/c2c[nH]cn2)n1CCO (optimized conformer: 74.02091278396843 kcal/mol)

>  <smiles>  (49) 
O=c1c2ccccc2nc(/C=C/c2cnc[nH]2)n1CCO

>  <score_type>  (49) 
oracle

>  <origin>  (49) 
autodockgpu

>  <m_score__min__energy>  (49) 
-6.5499999999999998

>  <m_primary>  (49) 
energy

>  <meeko>  (49) 
{"free_energy": -5.99, "intermolecular_energy": -7.78, "internal_energy": -1.49, "cluster_size": 3, "cluster_id": 3, "rank_in_cluster": 3}

>  <energy>  (49) 
-6.51

>  <cluster_rmsd>  (49) 
0.92

>  <rmsd>  (49) 
272.18

>  <cluster>  (49) 
1

$$$$
ISFQUULIKQOBJE-WSTWIXMCNA-N
     RDKit          3D

 35 37  0  0  0  0  0  0  0  0999 V2000
  139.2570   74.2270  222.7240 H   0  0  0  0  0  0  0  0  0  0  0  0
  139.9040   73.4780  222.7060 O   0  0  0  0  0  0  0  0  0  0  0  0
  140.7330   73.7010  221.6020 C   0  0  0  0  0  0  0  0  0  0  0  0
  140.8266   72.7693  221.0247 H   0  0  0  0  0  0  0  0  0  0  0  0
  141.7220   74.0257  221.9577 H   0  0  0  0  0  0  0  0  0  0  0  0
  140.1430   74.7950  220.7040 C   0  0  0  0  0  0  0  0  0  0  0  0
  139.0501   74.8101  220.8281 H   0  0  0  0  0  0  0  0  0  0  0  0
  140.4125   74.5718  219.6611 H   0  0  0  0  0  0  0  0  0  0  0  0
  140.6880   76.1300  221.0540 N   0  0  0  0  0  0  0  0  0  0  0  0
  141.7550   76.6910  220.3730 C   0  0  0  0  0  0  0  0  0  0  0  0
  142.4340   76.0150  219.2280 C   0  0  0  0  0  0  0  0  0  0  0  0
  141.8781   75.8722  218.2896 H   0  0  0  0  0  0  0  0  0  0  0  0
  143.6990   75.5760  219.3050 C   0  0  0  0  0  0  0  0  0  0  0  0
  144.5046   76.2017  218.8932 H   0  0  0  0  0  0  0  0  0  0  0  0
  144.0460   74.2850  219.9220 C   0  0  0  0  0  0  0  0  0  0  0  0
  143.2590   73.1900  219.9240 N   0  0  0  0  0  0  0  0  0  0  0  0
  143.9730   72.2740  220.6110 C   0  0  0  0  0  0  0  0  0  0  0  0
  143.6252   71.2483  220.8031 H   0  0  0  0  0  0  0  0  0  0  0  0
  145.1560   72.7520  221.0350 N   0  0  0  0  0  0  0  0  0  0  0  0
  145.8790   72.2420  221.5880 H   0  0  0  0  0  0  0  0  0  0  0  0
  145.2090   74.0230  220.6090 C   0  0  0  0  0  0  0  0  0  0  0  0
  146.0348   74.7296  220.7786 H   0  0  0  0  0  0  0  0  0  0  0  0
  142.2200   77.9130  220.7470 N   0  0  0  0  0  0  0  0  0  0  0  0
  141.6690   78.6210  221.7570 C   0  0  0  0  0  0  0  0  0  0  0  0
  142.2020   79.8670  222.1110 C   0  0  0  0  0  0  0  0  0  0  0  0
  143.0736   80.2660  221.5714 H   0  0  0  0  0  0  0  0  0  0  0  0
  141.6260   80.6030  223.1500 C   0  0  0  0  0  0  0  0  0  0  0  0
  142.0475   81.5795  223.4307 H   0  0  0  0  0  0  0  0  0  0  0  0
  140.5150   80.1000  223.8330 C   0  0  0  0  0  0  0  0  0  0  0  0
  140.0574   80.6862  224.6435 H   0  0  0  0  0  0  0  0  0  0  0  0
  139.9840   78.8530  223.4880 C   0  0  0  0  0  0  0  0  0  0  0  0
  139.1125   78.4575  224.0303 H   0  0  0  0  0  0  0  0  0  0  0  0
  140.5650   78.1030  222.4460 C   0  0  0  0  0  0  0  0  0  0  0  0
  140.0740   76.8460  222.0600 C   0  0  0  0  0  0  0  0  0  0  0  0
  139.0580   76.3760  222.6470 O   0  0  0  0  0  0  0  0  0  0  0  0
  1  2  1  0
  2  3  1  0
  3  4  1  0
  3  5  1  0
  3  6  1  0
  6  7  1  0
  6  8  1  0
  6  9  1  0
  9 10  1  0
 10 11  1  0
 11 12  1  0
 11 13  2  0
 13 14  1  0
 13 15  1  0
 15 16  1  0
 16 17  2  0
 17 18  1  0
 17 19  1  0
 19 20  1  0
 19 21  1  0
 21 22  1  0
 10 23  2  0
 23 24  1  0
 24 25  2  0
 25 26  1  0
 25 27  1  0
 27 28  1  0
 27 29  2  0
 29 30  1  0
 29 31  1  0
 31 32  1  0
 31 33  2  0
 33 34  1  0
 34 35  2  0
 34  9  1  0
 21 15  2  0
 33 24  1  0
M  END
>  <UniqueID>  (50) 
402

>  <SMILES>  (50) 
O=c1c2ccccc2nc(/C=C/c2c[nH]cn2)n1CCO

>  <Energy>  (50) 
74.02091278396843

>  <Genealogy>  (50) 
O=c1c2ccccc2nc(C=Cc2c[nH]cn2)n1CCO (tautomer)
O=c1c2ccccc2nc(/C=C/c2c[nH]cn2)n1CCO (cis-trans isomerization)
O=c1c2ccccc2nc(/C=C/c2c[nH]cn2)n1CCO (3D coordinates assigned)
O=c1c2ccccc2nc(/C=C/c2c[nH]cn2)n1CCO (optimized conformer: 74.02091278396843 kcal/mol)

>  <smiles>  (50) 
O=c1c2ccccc2nc(/C=C/c2cnc[nH]2)n1CCO

>  <score_type>  (50) 
oracle

>  <origin>  (50) 
autodockgpu

>  <m_score__min__energy>  (50) 
-6.5499999999999998

>  <m_primary>  (50) 
energy

>  <meeko>  (50) 
{"free_energy": -6.0, "intermolecular_energy": -7.79, "internal_energy": -1.49, "cluster_size": 3, "cluster_id": 3, "rank_in_cluster": 2}

>  <energy>  (50) 
-6.49

>  <cluster_rmsd>  (50) 
0.93

>  <rmsd>  (50) 
272.2

>  <cluster>  (50) 
1

$$$$
ISFQUULIKQOBJE-WSTWIXMCNA-N
     RDKit          3D

 35 37  0  0  0  0  0  0  0  0999 V2000
  137.3000   68.4050  224.4530 H   0  0  0  0  0  0  0  0  0  0  0  0
  136.6530   68.8220  223.8310 O   0  0  0  0  0  0  0  0  0  0  0  0
  137.2580   68.8140  222.5700 C   0  0  0  0  0  0  0  0  0  0  0  0
  137.0548   69.7693  222.0640 H   0  0  0  0  0  0  0  0  0  0  0  0
  136.8469   67.9807  221.9812 H   0  0  0  0  0  0  0  0  0  0  0  0
  138.7740   68.6270  222.7080 C   0  0  0  0  0  0  0  0  0  0  0  0
  139.2548   68.8776  221.7509 H   0  0  0  0  0  0  0  0  0  0  0  0
  138.9718   67.5796  222.9797 H   0  0  0  0  0  0  0  0  0  0  0  0
  139.3290   69.5000  223.7710 N   0  0  0  0  0  0  0  0  0  0  0  0
  139.6240   70.8340  223.5490 C   0  0  0  0  0  0  0  0  0  0  0  0
  139.3950   71.5090  222.2380 C   0  0  0  0  0  0  0  0  0  0  0  0
  138.3807   71.5130  221.8124 H   0  0  0  0  0  0  0  0  0  0  0  0
  140.3840   72.1110  221.5610 C   0  0  0  0  0  0  0  0  0  0  0  0
  141.0422   71.4993  220.9265 H   0  0  0  0  0  0  0  0  0  0  0  0
  140.6190   73.5630  221.6380 C   0  0  0  0  0  0  0  0  0  0  0  0
  139.7450   74.4640  222.1310 N   0  0  0  0  0  0  0  0  0  0  0  0
  140.3750   75.6470  221.9810 C   0  0  0  0  0  0  0  0  0  0  0  0
  139.9431   76.6111  222.2877 H   0  0  0  0  0  0  0  0  0  0  0  0
  141.5880   75.5200  221.4160 N   0  0  0  0  0  0  0  0  0  0  0  0
  142.2620   76.2840  221.1910 H   0  0  0  0  0  0  0  0  0  0  0  0
  141.7490   74.2070  221.1900 C   0  0  0  0  0  0  0  0  0  0  0  0
  142.6271   73.7311  220.7291 H   0  0  0  0  0  0  0  0  0  0  0  0
  140.1440   71.5820  224.5590 N   0  0  0  0  0  0  0  0  0  0  0  0
  140.3740   71.0780  225.7920 C   0  0  0  0  0  0  0  0  0  0  0  0
  140.9290   71.8900  226.7880 C   0  0  0  0  0  0  0  0  0  0  0  0
  141.1847   72.9365  226.5658 H   0  0  0  0  0  0  0  0  0  0  0  0
  141.1580   71.3700  228.0650 C   0  0  0  0  0  0  0  0  0  0  0  0
  141.5971   72.0072  228.8468 H   0  0  0  0  0  0  0  0  0  0  0  0
  140.8300   70.0420  228.3500 C   0  0  0  0  0  0  0  0  0  0  0  0
  141.0032   69.6382  229.3585 H   0  0  0  0  0  0  0  0  0  0  0  0
  140.2820   69.2250  227.3560 C   0  0  0  0  0  0  0  0  0  0  0  0
  140.0274   68.1791  227.5824 H   0  0  0  0  0  0  0  0  0  0  0  0
  140.0560   69.7410  226.0650 C   0  0  0  0  0  0  0  0  0  0  0  0
  139.5100   68.9660  225.0300 C   0  0  0  0  0  0  0  0  0  0  0  0
  139.1850   67.7670  225.2660 O   0  0  0  0  0  0  0  0  0  0  0  0
  1  2  1  0
  2  3  1  0
  3  4  1  0
  3  5  1  0
  3  6  1  0
  6  7  1  0
  6  8  1  0
  6  9  1  0
  9 10  1  0
 10 11  1  0
 11 12  1  0
 11 13  2  0
 13 14  1  0
 13 15  1  0
 15 16  1  0
 16 17  2  0
 17 18  1  0
 17 19  1  0
 19 20  1  0
 19 21  1  0
 21 22  1  0
 10 23  2  0
 23 24  1  0
 24 25  2  0
 25 26  1  0
 25 27  1  0
 27 28  1  0
 27 29  2  0
 29 30  1  0
 29 31  1  0
 31 32  1  0
 31 33  2  0
 33 34  1  0
 34 35  2  0
 34  9  1  0
 21 15  2  0
 33 24  1  0
M  END
>  <UniqueID>  (51) 
402

>  <SMILES>  (51) 
O=c1c2ccccc2nc(/C=C/c2c[nH]cn2)n1CCO

>  <Energy>  (51) 
74.02091278396843

>  <Genealogy>  (51) 
O=c1c2ccccc2nc(C=Cc2c[nH]cn2)n1CCO (tautomer)
O=c1c2ccccc2nc(/C=C/c2c[nH]cn2)n1CCO (cis-trans isomerization)
O=c1c2ccccc2nc(/C=C/c2c[nH]cn2)n1CCO (3D coordinates assigned)
O=c1c2ccccc2nc(/C=C/c2c[nH]cn2)n1CCO (optimized conformer: 74.02091278396843 kcal/mol)

>  <smiles>  (51) 
O=c1c2ccccc2nc(/C=C/c2cnc[nH]2)n1CCO

>  <score_type>  (51) 
oracle

>  <origin>  (51) 
autodockgpu

>  <m_score__min__energy>  (51) 
-6.5499999999999998

>  <m_primary>  (51) 
energy

>  <meeko>  (51) 
{"free_energy": -6.53, "intermolecular_energy": -8.32, "internal_energy": -1.38, "cluster_size": 12, "cluster_id": 1, "rank_in_cluster": 4}

>  <energy>  (51) 
-6.31

>  <cluster_rmsd>  (51) 
0.98

>  <rmsd>  (51) 
272.17

>  <cluster>  (51) 
1

$$$$
ISFQUULIKQOBJE-WSTWIXMCNA-N
     RDKit          3D

 35 37  0  0  0  0  0  0  0  0999 V2000
  139.6600   73.2900  223.4820 H   0  0  0  0  0  0  0  0  0  0  0  0
  140.1760   73.1560  222.6480 O   0  0  0  0  0  0  0  0  0  0  0  0
  140.0440   71.8030  222.3160 C   0  0  0  0  0  0  0  0  0  0  0  0
  140.9053   71.2463  222.7138 H   0  0  0  0  0  0  0  0  0  0  0  0
  140.0050   71.7059  221.2210 H   0  0  0  0  0  0  0  0  0  0  0  0
  138.7530   71.2310  222.9130 C   0  0  0  0  0  0  0  0  0  0  0  0
  138.2064   70.6858  222.1295 H   0  0  0  0  0  0  0  0  0  0  0  0
  138.1489   72.0652  223.2992 H   0  0  0  0  0  0  0  0  0  0  0  0
  139.0440   70.3040  224.0340 N   0  0  0  0  0  0  0  0  0  0  0  0
  138.5920   68.9950  224.0420 C   0  0  0  0  0  0  0  0  0  0  0  0
  137.7960   68.4030  222.9270 C   0  0  0  0  0  0  0  0  0  0  0  0
  138.3072   67.7697  222.1869 H   0  0  0  0  0  0  0  0  0  0  0  0
  136.4790   68.6170  222.7970 C   0  0  0  0  0  0  0  0  0  0  0  0
  136.0232   68.5351  221.7992 H   0  0  0  0  0  0  0  0  0  0  0  0
  135.6220   68.9580  223.9450 C   0  0  0  0  0  0  0  0  0  0  0  0
  134.6960   68.1440  224.4910 N   0  0  0  0  0  0  0  0  0  0  0  0
  134.1590   68.8790  225.4860 C   0  0  0  0  0  0  0  0  0  0  0  0
  133.3625   68.5149  226.1516 H   0  0  0  0  0  0  0  0  0  0  0  0
  134.7030   70.1050  225.5760 N   0  0  0  0  0  0  0  0  0  0  0  0
  134.4550   70.8570  226.2560 H   0  0  0  0  0  0  0  0  0  0  0  0
  135.6250   70.1660  224.6030 C   0  0  0  0  0  0  0  0  0  0  0  0
  136.2683   71.0280  224.3727 H   0  0  0  0  0  0  0  0  0  0  0  0
  138.8790   68.1950  225.1040 N   0  0  0  0  0  0  0  0  0  0  0  0
  139.6080   68.6210  226.1580 C   0  0  0  0  0  0  0  0  0  0  0  0
  139.8560   67.7580  227.2330 C   0  0  0  0  0  0  0  0  0  0  0  0
  139.4512   66.7353  227.2224 H   0  0  0  0  0  0  0  0  0  0  0  0
  140.6180   68.1970  228.3190 C   0  0  0  0  0  0  0  0  0  0  0  0
  140.8097   67.5203  229.1648 H   0  0  0  0  0  0  0  0  0  0  0  0
  141.1370   69.4950  228.3320 C   0  0  0  0  0  0  0  0  0  0  0  0
  141.7450   69.8343  229.1836 H   0  0  0  0  0  0  0  0  0  0  0  0
  140.8850   70.3630  227.2650 C   0  0  0  0  0  0  0  0  0  0  0  0
  141.2902   71.3855  227.2804 H   0  0  0  0  0  0  0  0  0  0  0  0
  140.1120   69.9280  226.1700 C   0  0  0  0  0  0  0  0  0  0  0  0
  139.8280   70.7570  225.0740 C   0  0  0  0  0  0  0  0  0  0  0  0
  140.3020   71.9290  225.0500 O   0  0  0  0  0  0  0  0  0  0  0  0
  1  2  1  0
  2  3  1  0
  3  4  1  0
  3  5  1  0
  3  6  1  0
  6  7  1  0
  6  8  1  0
  6  9  1  0
  9 10  1  0
 10 11  1  0
 11 12  1  0
 11 13  2  0
 13 14  1  0
 13 15  1  0
 15 16  1  0
 16 17  2  0
 17 18  1  0
 17 19  1  0
 19 20  1  0
 19 21  1  0
 21 22  1  0
 10 23  2  0
 23 24  1  0
 24 25  2  0
 25 26  1  0
 25 27  1  0
 27 28  1  0
 27 29  2  0
 29 30  1  0
 29 31  1  0
 31 32  1  0
 31 33  2  0
 33 34  1  0
 34 35  2  0
 34  9  1  0
 21 15  2  0
 33 24  1  0
M  END
>  <UniqueID>  (52) 
402

>  <SMILES>  (52) 
O=c1c2ccccc2nc(/C=C/c2c[nH]cn2)n1CCO

>  <Energy>  (52) 
74.02091278396843

>  <Genealogy>  (52) 
O=c1c2ccccc2nc(C=Cc2c[nH]cn2)n1CCO (tautomer)
O=c1c2ccccc2nc(/C=C/c2c[nH]cn2)n1CCO (cis-trans isomerization)
O=c1c2ccccc2nc(/C=C/c2c[nH]cn2)n1CCO (3D coordinates assigned)
O=c1c2ccccc2nc(/C=C/c2c[nH]cn2)n1CCO (optimized conformer: 74.02091278396843 kcal/mol)

>  <smiles>  (52) 
O=c1c2ccccc2nc(/C=C/c2cnc[nH]2)n1CCO

>  <score_type>  (52) 
oracle

>  <origin>  (52) 
autodockgpu

>  <m_score__min__energy>  (52) 
-6.5499999999999998

>  <m_primary>  (52) 
energy

>  <meeko>  (52) 
{"free_energy": -6.34, "intermolecular_energy": -8.13, "internal_energy": -1.37, "cluster_size": 5, "cluster_id": 2, "rank_in_cluster": 1}

>  <energy>  (52) 
-6.3

>  <cluster_rmsd>  (52) 
1.0

>  <rmsd>  (52) 
272.16

>  <cluster>  (52) 
1

$$$$
ISFQUULIKQOBJE-WSTWIXMCNA-N
     RDKit          3D

 35 37  0  0  0  0  0  0  0  0999 V2000
  139.7630   67.0900  224.1400 H   0  0  0  0  0  0  0  0  0  0  0  0
  139.1940   66.6500  223.4600 O   0  0  0  0  0  0  0  0  0  0  0  0
  138.9140   67.6200  222.4920 C   0  0  0  0  0  0  0  0  0  0  0  0
  138.3698   67.1534  221.6577 H   0  0  0  0  0  0  0  0  0  0  0  0
  139.8606   68.0493  222.1318 H   0  0  0  0  0  0  0  0  0  0  0  0
  138.0560   68.7390  223.0920 C   0  0  0  0  0  0  0  0  0  0  0  0
  137.2239   68.2902  223.6542 H   0  0  0  0  0  0  0  0  0  0  0  0
  137.6778   69.3649  222.2703 H   0  0  0  0  0  0  0  0  0  0  0  0
  138.8500   69.5960  224.0060 N   0  0  0  0  0  0  0  0  0  0  0  0
  139.3240   70.8390  223.6240 C   0  0  0  0  0  0  0  0  0  0  0  0
  139.0650   71.4280  222.2770 C   0  0  0  0  0  0  0  0  0  0  0  0
  138.0418   71.4030  221.8740 H   0  0  0  0  0  0  0  0  0  0  0  0
  140.0380   71.9870  221.5410 C   0  0  0  0  0  0  0  0  0  0  0  0
  140.6052   71.3551  220.8417 H   0  0  0  0  0  0  0  0  0  0  0  0
  140.3720   73.4180  221.6380 C   0  0  0  0  0  0  0  0  0  0  0  0
  139.5500   74.3750  222.1130 N   0  0  0  0  0  0  0  0  0  0  0  0
  140.2660   75.5120  221.9920 C   0  0  0  0  0  0  0  0  0  0  0  0
  139.8941   76.5021  222.2942 H   0  0  0  0  0  0  0  0  0  0  0  0
  141.4830   75.3030  221.4620 N   0  0  0  0  0  0  0  0  0  0  0  0
  142.2160   76.0190  221.2640 H   0  0  0  0  0  0  0  0  0  0  0  0
  141.5580   73.9840  221.2300 C   0  0  0  0  0  0  0  0  0  0  0  0
  142.4143   73.4503  220.7920 H   0  0  0  0  0  0  0  0  0  0  0  0
  140.0590   71.5750  224.5010 N   0  0  0  0  0  0  0  0  0  0  0  0
  140.3360   71.1470  225.7520 C   0  0  0  0  0  0  0  0  0  0  0  0
  141.1140   71.9390  226.6070 C   0  0  0  0  0  0  0  0  0  0  0  0
  141.5040   72.9065  226.2579 H   0  0  0  0  0  0  0  0  0  0  0  0
  141.3940   71.4990  227.9030 C   0  0  0  0  0  0  0  0  0  0  0  0
  142.0091   72.1185  228.5722 H   0  0  0  0  0  0  0  0  0  0  0  0
  140.8940   70.2730  228.3510 C   0  0  0  0  0  0  0  0  0  0  0  0
  141.1068   69.9348  229.3758 H   0  0  0  0  0  0  0  0  0  0  0  0
  140.1240   69.4760  227.4990 C   0  0  0  0  0  0  0  0  0  0  0  0
  139.7357   68.5094  227.8523 H   0  0  0  0  0  0  0  0  0  0  0  0
  139.8450   69.9100  226.1880 C   0  0  0  0  0  0  0  0  0  0  0  0
  139.0780   69.1490  225.2910 C   0  0  0  0  0  0  0  0  0  0  0  0
  138.5970   68.0460  225.6760 O   0  0  0  0  0  0  0  0  0  0  0  0
  1  2  1  0
  2  3  1  0
  3  4  1  0
  3  5  1  0
  3  6  1  0
  6  7  1  0
  6  8  1  0
  6  9  1  0
  9 10  1  0
 10 11  1  0
 11 12  1  0
 11 13  2  0
 13 14  1  0
 13 15  1  0
 15 16  1  0
 16 17  2  0
 17 18  1  0
 17 19  1  0
 19 20  1  0
 19 21  1  0
 21 22  1  0
 10 23  2  0
 23 24  1  0
 24 25  2  0
 25 26  1  0
 25 27  1  0
 27 28  1  0
 27 29  2  0
 29 30  1  0
 29 31  1  0
 31 32  1  0
 31 33  2  0
 33 34  1  0
 34 35  2  0
 34  9  1  0
 21 15  2  0
 33 24  1  0
M  END
>  <UniqueID>  (53) 
402

>  <SMILES>  (53) 
O=c1c2ccccc2nc(/C=C/c2c[nH]cn2)n1CCO

>  <Energy>  (53) 
74.02091278396843

>  <Genealogy>  (53) 
O=c1c2ccccc2nc(C=Cc2c[nH]cn2)n1CCO (tautomer)
O=c1c2ccccc2nc(/C=C/c2c[nH]cn2)n1CCO (cis-trans isomerization)
O=c1c2ccccc2nc(/C=C/c2c[nH]cn2)n1CCO (3D coordinates assigned)
O=c1c2ccccc2nc(/C=C/c2c[nH]cn2)n1CCO (optimized conformer: 74.02091278396843 kcal/mol)

>  <smiles>  (53) 
O=c1c2ccccc2nc(/C=C/c2cnc[nH]2)n1CCO

>  <score_type>  (53) 
oracle

>  <origin>  (53) 
autodockgpu

>  <m_score__min__energy>  (53) 
-6.5499999999999998

>  <m_primary>  (53) 
energy

>  <meeko>  (53) 
{"free_energy": -6.55, "intermolecular_energy": -8.34, "internal_energy": -1.33, "cluster_size": 12, "cluster_id": 1, "rank_in_cluster": 1}

>  <energy>  (53) 
-6.34

>  <cluster_rmsd>  (53) 
0.0

>  <rmsd>  (53) 
271.85

>  <cluster>  (53) 
2

$$$$
ISFQUULIKQOBJE-WSTWIXMCNA-N
     RDKit          3D

 35 37  0  0  0  0  0  0  0  0999 V2000
  139.6910   73.2820  223.4790 H   0  0  0  0  0  0  0  0  0  0  0  0
  140.1990   73.1430  222.6410 O   0  0  0  0  0  0  0  0  0  0  0  0
  140.0580   71.7910  222.3130 C   0  0  0  0  0  0  0  0  0  0  0  0
  140.9113   71.2283  222.7195 H   0  0  0  0  0  0  0  0  0  0  0  0
  140.0267   71.6904  221.2181 H   0  0  0  0  0  0  0  0  0  0  0  0
  138.7570   71.2320  222.9020 C   0  0  0  0  0  0  0  0  0  0  0  0
  138.2099   70.6924  222.1149 H   0  0  0  0  0  0  0  0  0  0  0  0
  138.1591   72.0724  223.2844 H   0  0  0  0  0  0  0  0  0  0  0  0
  139.0310   70.3020  224.0250 N   0  0  0  0  0  0  0  0  0  0  0  0
  138.5650   68.9980  224.0310 C   0  0  0  0  0  0  0  0  0  0  0  0
  137.7690   68.4150  222.9100 C   0  0  0  0  0  0  0  0  0  0  0  0
  138.2856   67.8118  222.1489 H   0  0  0  0  0  0  0  0  0  0  0  0
  136.4460   68.6020  222.8000 C   0  0  0  0  0  0  0  0  0  0  0  0
  135.9729   68.4872  221.8136 H   0  0  0  0  0  0  0  0  0  0  0  0
  135.6050   68.9560  223.9560 C   0  0  0  0  0  0  0  0  0  0  0  0
  134.6940   68.1440  224.5300 N   0  0  0  0  0  0  0  0  0  0  0  0
  134.1660   68.8920  225.5210 C   0  0  0  0  0  0  0  0  0  0  0  0
  133.3823   68.5334  226.2045 H   0  0  0  0  0  0  0  0  0  0  0  0
  134.7020   70.1230  225.5820 N   0  0  0  0  0  0  0  0  0  0  0  0
  134.4590   70.8840  226.2530 H   0  0  0  0  0  0  0  0  0  0  0  0
  135.6080   70.1750  224.5940 C   0  0  0  0  0  0  0  0  0  0  0  0
  136.2405   71.0382  224.3394 H   0  0  0  0  0  0  0  0  0  0  0  0
  138.8370   68.1950  225.0940 N   0  0  0  0  0  0  0  0  0  0  0  0
  139.5640   68.6140  226.1530 C   0  0  0  0  0  0  0  0  0  0  0  0
  139.7960   67.7480  227.2290 C   0  0  0  0  0  0  0  0  0  0  0  0
  139.3805   66.7296  227.2155 H   0  0  0  0  0  0  0  0  0  0  0  0
  140.5560   68.1790  228.3200 C   0  0  0  0  0  0  0  0  0  0  0  0
  140.7349   67.5005  229.1671 H   0  0  0  0  0  0  0  0  0  0  0  0
  141.0890   69.4710  228.3360 C   0  0  0  0  0  0  0  0  0  0  0  0
  141.6953   69.8041  229.1912 H   0  0  0  0  0  0  0  0  0  0  0  0
  140.8530   70.3410  227.2670 C   0  0  0  0  0  0  0  0  0  0  0  0
  141.2698   71.3588  227.2844 H   0  0  0  0  0  0  0  0  0  0  0  0
  140.0820   69.9150  226.1680 C   0  0  0  0  0  0  0  0  0  0  0  0
  139.8140   70.7470  225.0700 C   0  0  0  0  0  0  0  0  0  0  0  0
  140.3000   71.9130  225.0490 O   0  0  0  0  0  0  0  0  0  0  0  0
  1  2  1  0
  2  3  1  0
  3  4  1  0
  3  5  1  0
  3  6  1  0
  6  7  1  0
  6  8  1  0
  6  9  1  0
  9 10  1  0
 10 11  1  0
 11 12  1  0
 11 13  2  0
 13 14  1  0
 13 15  1  0
 15 16  1  0
 16 17  2  0
 17 18  1  0
 17 19  1  0
 19 20  1  0
 19 21  1  0
 21 22  1  0
 10 23  2  0
 23 24  1  0
 24 25  2  0
 25 26  1  0
 25 27  1  0
 27 28  1  0
 27 29  2  0
 29 30  1  0
 29 31  1  0
 31 32  1  0
 31 33  2  0
 33 34  1  0
 34 35  2  0
 34  9  1  0
 21 15  2  0
 33 24  1  0
M  END
>  <UniqueID>  (54) 
402

>  <SMILES>  (54) 
O=c1c2ccccc2nc(/C=C/c2c[nH]cn2)n1CCO

>  <Energy>  (54) 
74.02091278396843

>  <Genealogy>  (54) 
O=c1c2ccccc2nc(C=Cc2c[nH]cn2)n1CCO (tautomer)
O=c1c2ccccc2nc(/C=C/c2c[nH]cn2)n1CCO (cis-trans isomerization)
O=c1c2ccccc2nc(/C=C/c2c[nH]cn2)n1CCO (3D coordinates assigned)
O=c1c2ccccc2nc(/C=C/c2c[nH]cn2)n1CCO (optimized conformer: 74.02091278396843 kcal/mol)

>  <smiles>  (54) 
O=c1c2ccccc2nc(/C=C/c2cnc[nH]2)n1CCO

>  <score_type>  (54) 
oracle

>  <origin>  (54) 
autodockgpu

>  <m_score__min__energy>  (54) 
-6.5499999999999998

>  <m_primary>  (54) 
energy

>  <meeko>  (54) 
{"free_energy": -6.33, "intermolecular_energy": -8.12, "internal_energy": -1.37, "cluster_size": 5, "cluster_id": 2, "rank_in_cluster": 2}

>  <energy>  (54) 
-6.33

>  <cluster_rmsd>  (54) 
0.04

>  <rmsd>  (54) 
271.84

>  <cluster>  (54) 
2

$$$$
ISFQUULIKQOBJE-WSTWIXMCNA-N
     RDKit          3D

 35 37  0  0  0  0  0  0  0  0999 V2000
  137.3140   68.4900  224.5250 H   0  0  0  0  0  0  0  0  0  0  0  0
  136.6540   68.8540  223.8830 O   0  0  0  0  0  0  0  0  0  0  0  0
  137.2450   68.7650  222.6190 C   0  0  0  0  0  0  0  0  0  0  0  0
  137.0512   69.6936  222.0621 H   0  0  0  0  0  0  0  0  0  0  0  0
  136.8143   67.9062  222.0834 H   0  0  0  0  0  0  0  0  0  0  0  0
  138.7590   68.5610  222.7500 C   0  0  0  0  0  0  0  0  0  0  0  0
  139.2356   68.7822  221.7836 H   0  0  0  0  0  0  0  0  0  0  0  0
  138.9451   67.5178  223.0452 H   0  0  0  0  0  0  0  0  0  0  0  0
  139.3340   69.4520  223.7880 N   0  0  0  0  0  0  0  0  0  0  0  0
  139.6440   70.7760  223.5310 C   0  0  0  0  0  0  0  0  0  0  0  0
  139.4130   71.4220  222.2050 C   0  0  0  0  0  0  0  0  0  0  0  0
  138.3914   71.4486  221.7980 H   0  0  0  0  0  0  0  0  0  0  0  0
  140.4080   71.9710  221.4930 C   0  0  0  0  0  0  0  0  0  0  0  0
  141.0007   71.3286  220.8251 H   0  0  0  0  0  0  0  0  0  0  0  0
  140.7340   73.4050  221.5750 C   0  0  0  0  0  0  0  0  0  0  0  0
  139.9340   74.3530  222.1050 N   0  0  0  0  0  0  0  0  0  0  0  0
  140.6300   75.4970  221.9440 C   0  0  0  0  0  0  0  0  0  0  0  0
  140.2682   76.4824  222.2728 H   0  0  0  0  0  0  0  0  0  0  0  0
  141.8140   75.3020  221.3380 N   0  0  0  0  0  0  0  0  0  0  0  0
  142.5260   76.0260  221.0980 H   0  0  0  0  0  0  0  0  0  0  0  0
  141.8860   73.9840  221.0960 C   0  0  0  0  0  0  0  0  0  0  0  0
  142.7179   73.4602  220.6026 H   0  0  0  0  0  0  0  0  0  0  0  0
  140.1810   71.5420  224.5180 N   0  0  0  0  0  0  0  0  0  0  0  0
  140.4150   71.0650  225.7600 C   0  0  0  0  0  0  0  0  0  0  0  0
  140.9890   71.8950  226.7320 C   0  0  0  0  0  0  0  0  0  0  0  0
  141.2559   72.9325  226.4823 H   0  0  0  0  0  0  0  0  0  0  0  0
  141.2220   71.4030  228.0190 C   0  0  0  0  0  0  0  0  0  0  0  0
  141.6764   72.0531  228.7811 H   0  0  0  0  0  0  0  0  0  0  0  0
  140.8790   70.0870  228.3400 C   0  0  0  0  0  0  0  0  0  0  0  0
  141.0546   69.7064  229.3570 H   0  0  0  0  0  0  0  0  0  0  0  0
  140.3130   69.2530  227.3710 C   0  0  0  0  0  0  0  0  0  0  0  0
  140.0479   68.2161  227.6251 H   0  0  0  0  0  0  0  0  0  0  0  0
  140.0820   69.7400  226.0690 C   0  0  0  0  0  0  0  0  0  0  0  0
  139.5180   68.9470  225.0580 C   0  0  0  0  0  0  0  0  0  0  0  0
  139.1800   67.7590  225.3260 O   0  0  0  0  0  0  0  0  0  0  0  0
  1  2  1  0
  2  3  1  0
  3  4  1  0
  3  5  1  0
  3  6  1  0
  6  7  1  0
  6  8  1  0
  6  9  1  0
  9 10  1  0
 10 11  1  0
 11 12  1  0
 11 13  2  0
 13 14  1  0
 13 15  1  0
 15 16  1  0
 16 17  2  0
 17 18  1  0
 17 19  1  0
 19 20  1  0
 19 21  1  0
 21 22  1  0
 10 23  2  0
 23 24  1  0
 24 25  2  0
 25 26  1  0
 25 27  1  0
 27 28  1  0
 27 29  2  0
 29 30  1  0
 29 31  1  0
 31 32  1  0
 31 33  2  0
 33 34  1  0
 34 35  2  0
 34  9  1  0
 21 15  2  0
 33 24  1  0
M  END
>  <UniqueID>  (55) 
402

>  <SMILES>  (55) 
O=c1c2ccccc2nc(/C=C/c2c[nH]cn2)n1CCO

>  <Energy>  (55) 
74.02091278396843

>  <Genealogy>  (55) 
O=c1c2ccccc2nc(C=Cc2c[nH]cn2)n1CCO (tautomer)
O=c1c2ccccc2nc(/C=C/c2c[nH]cn2)n1CCO (cis-trans isomerization)
O=c1c2ccccc2nc(/C=C/c2c[nH]cn2)n1CCO (3D coordinates assigned)
O=c1c2ccccc2nc(/C=C/c2c[nH]cn2)n1CCO (optimized conformer: 74.02091278396843 kcal/mol)

>  <smiles>  (55) 
O=c1c2ccccc2nc(/C=C/c2cnc[nH]2)n1CCO

>  <score_type>  (55) 
oracle

>  <origin>  (55) 
autodockgpu

>  <m_score__min__energy>  (55) 
-6.5499999999999998

>  <m_primary>  (55) 
energy

>  <meeko>  (55) 
{"free_energy": -6.53, "intermolecular_energy": -8.32, "internal_energy": -1.39, "cluster_size": 12, "cluster_id": 1, "rank_in_cluster": 3}

>  <energy>  (55) 
-6.33

>  <cluster_rmsd>  (55) 
0.06

>  <rmsd>  (55) 
271.83

>  <cluster>  (55) 
2

$$$$
ISFQUULIKQOBJE-WSTWIXMCNA-N
     RDKit          3D

 35 37  0  0  0  0  0  0  0  0999 V2000
  139.7070   67.1650  224.1910 H   0  0  0  0  0  0  0  0  0  0  0  0
  139.1900   66.6600  223.5150 O   0  0  0  0  0  0  0  0  0  0  0  0
  138.9160   67.5570  222.4780 C   0  0  0  0  0  0  0  0  0  0  0  0
  138.3402   67.0415  221.6952 H   0  0  0  0  0  0  0  0  0  0  0  0
  139.8661   67.9274  222.0655 H   0  0  0  0  0  0  0  0  0  0  0  0
  138.1030   68.7470  223.0030 C   0  0  0  0  0  0  0  0  0  0  0  0
  137.2224   68.3691  223.5431 H   0  0  0  0  0  0  0  0  0  0  0  0
  137.7978   69.3647  222.1455 H   0  0  0  0  0  0  0  0  0  0  0  0
  138.9100   69.5870  223.9220 N   0  0  0  0  0  0  0  0  0  0  0  0
  139.4990   70.7700  223.5110 C   0  0  0  0  0  0  0  0  0  0  0  0
  139.3600   71.3090  222.1250 C   0  0  0  0  0  0  0  0  0  0  0  0
  138.3942   71.2053  221.6087 H   0  0  0  0  0  0  0  0  0  0  0  0
  140.3730   71.9150  221.4890 C   0  0  0  0  0  0  0  0  0  0  0  0
  141.0502   71.3091  220.8691 H   0  0  0  0  0  0  0  0  0  0  0  0
  140.6090   73.3650  221.5930 C   0  0  0  0  0  0  0  0  0  0  0  0
  139.7320   74.2600  222.0910 N   0  0  0  0  0  0  0  0  0  0  0  0
  140.3660   75.4450  221.9680 C   0  0  0  0  0  0  0  0  0  0  0  0
  139.9321   76.4049  222.2847 H   0  0  0  0  0  0  0  0  0  0  0  0
  141.5860   75.3240  221.4160 N   0  0  0  0  0  0  0  0  0  0  0  0
  142.2640   76.0900  221.2120 H   0  0  0  0  0  0  0  0  0  0  0  0
  141.7460   74.0140  221.1700 C   0  0  0  0  0  0  0  0  0  0  0  0
  142.6286   73.5435  220.7120 H   0  0  0  0  0  0  0  0  0  0  0  0
  140.2390   71.4920  224.3950 N   0  0  0  0  0  0  0  0  0  0  0  0
  140.4150   71.1080  225.6780 C   0  0  0  0  0  0  0  0  0  0  0  0
  141.2040   71.8820  226.5390 C   0  0  0  0  0  0  0  0  0  0  0  0
  141.6859   72.7990  226.1690 H   0  0  0  0  0  0  0  0  0  0  0  0
  141.3780   71.4880  227.8680 C   0  0  0  0  0  0  0  0  0  0  0  0
  142.0014   72.0931  228.5427 H   0  0  0  0  0  0  0  0  0  0  0  0
  140.7620   70.3270  228.3420 C   0  0  0  0  0  0  0  0  0  0  0  0
  140.8923   70.0259  229.3919 H   0  0  0  0  0  0  0  0  0  0  0  0
  139.9800   69.5470  227.4840 C   0  0  0  0  0  0  0  0  0  0  0  0
  139.5005   68.6304  227.8581 H   0  0  0  0  0  0  0  0  0  0  0  0
  139.8060   69.9350  226.1400 C   0  0  0  0  0  0  0  0  0  0  0  0
  139.0330   69.1890  225.2370 C   0  0  0  0  0  0  0  0  0  0  0  0
  138.4480   68.1450  225.6430 O   0  0  0  0  0  0  0  0  0  0  0  0
  1  2  1  0
  2  3  1  0
  3  4  1  0
  3  5  1  0
  3  6  1  0
  6  7  1  0
  6  8  1  0
  6  9  1  0
  9 10  1  0
 10 11  1  0
 11 12  1  0
 11 13  2  0
 13 14  1  0
 13 15  1  0
 15 16  1  0
 16 17  2  0
 17 18  1  0
 17 19  1  0
 19 20  1  0
 19 21  1  0
 21 22  1  0
 10 23  2  0
 23 24  1  0
 24 25  2  0
 25 26  1  0
 25 27  1  0
 27 28  1  0
 27 29  2  0
 29 30  1  0
 29 31  1  0
 31 32  1  0
 31 33  2  0
 33 34  1  0
 34 35  2  0
 34  9  1  0
 21 15  2  0
 33 24  1  0
M  END
>  <UniqueID>  (56) 
402

>  <SMILES>  (56) 
O=c1c2ccccc2nc(/C=C/c2c[nH]cn2)n1CCO

>  <Energy>  (56) 
74.02091278396843

>  <Genealogy>  (56) 
O=c1c2ccccc2nc(C=Cc2c[nH]cn2)n1CCO (tautomer)
O=c1c2ccccc2nc(/C=C/c2c[nH]cn2)n1CCO (cis-trans isomerization)
O=c1c2ccccc2nc(/C=C/c2c[nH]cn2)n1CCO (3D coordinates assigned)
O=c1c2ccccc2nc(/C=C/c2c[nH]cn2)n1CCO (optimized conformer: 74.02091278396843 kcal/mol)

>  <smiles>  (56) 
O=c1c2ccccc2nc(/C=C/c2cnc[nH]2)n1CCO

>  <score_type>  (56) 
oracle

>  <origin>  (56) 
autodockgpu

>  <m_score__min__energy>  (56) 
-6.5499999999999998

>  <m_primary>  (56) 
energy

>  <meeko>  (56) 
{"free_energy": -6.53, "intermolecular_energy": -8.32, "internal_energy": -1.33, "cluster_size": 12, "cluster_id": 1, "rank_in_cluster": 2}

>  <energy>  (56) 
-6.32

>  <cluster_rmsd>  (56) 
0.04

>  <rmsd>  (56) 
271.85

>  <cluster>  (56) 
2

$$$$
ISFQUULIKQOBJE-WSTWIXMCNA-N
     RDKit          3D

 35 37  0  0  0  0  0  0  0  0999 V2000
  137.2660   68.4270  224.5620 H   0  0  0  0  0  0  0  0  0  0  0  0
  136.6330   68.8820  223.9520 O   0  0  0  0  0  0  0  0  0  0  0  0
  137.1670   68.7580  222.6660 C   0  0  0  0  0  0  0  0  0  0  0  0
  136.9104   69.6522  222.0790 H   0  0  0  0  0  0  0  0  0  0  0  0
  136.7464   67.8602  222.1896 H   0  0  0  0  0  0  0  0  0  0  0  0
  138.6920   68.6180  222.7330 C   0  0  0  0  0  0  0  0  0  0  0  0
  139.1219   68.9115  221.7640 H   0  0  0  0  0  0  0  0  0  0  0  0
  138.9352   67.5705  222.9647 H   0  0  0  0  0  0  0  0  0  0  0  0
  139.2650   69.4790  223.7970 N   0  0  0  0  0  0  0  0  0  0  0  0
  139.5360   70.8210  223.5920 C   0  0  0  0  0  0  0  0  0  0  0  0
  139.2610   71.5170  222.3000 C   0  0  0  0  0  0  0  0  0  0  0  0
  138.2191   71.6200  221.9625 H   0  0  0  0  0  0  0  0  0  0  0  0
  140.2430   72.0210  221.5370 C   0  0  0  0  0  0  0  0  0  0  0  0
  140.7675   71.3544  220.8366 H   0  0  0  0  0  0  0  0  0  0  0  0
  140.6420   73.4370  221.6060 C   0  0  0  0  0  0  0  0  0  0  0  0
  139.8850   74.4320  222.1130 N   0  0  0  0  0  0  0  0  0  0  0  0
  140.6420   75.5370  221.9480 C   0  0  0  0  0  0  0  0  0  0  0  0
  140.3277   76.5441  222.2594 H   0  0  0  0  0  0  0  0  0  0  0  0
  141.8230   75.2720  221.3610 N   0  0  0  0  0  0  0  0  0  0  0  0
  142.5750   75.9550  221.1220 H   0  0  0  0  0  0  0  0  0  0  0  0
  141.8290   73.9490  221.1370 C   0  0  0  0  0  0  0  0  0  0  0  0
  142.6393   73.3759  220.6626 H   0  0  0  0  0  0  0  0  0  0  0  0
  140.0730   71.5580  224.6010 N   0  0  0  0  0  0  0  0  0  0  0  0
  140.3430   71.0350  225.8170 C   0  0  0  0  0  0  0  0  0  0  0  0
  140.9140   71.8370  226.8130 C   0  0  0  0  0  0  0  0  0  0  0  0
  141.1482   72.8912  226.6038 H   0  0  0  0  0  0  0  0  0  0  0  0
  141.1860   71.2970  228.0730 C   0  0  0  0  0  0  0  0  0  0  0  0
  141.6392   71.9257  228.8536 H   0  0  0  0  0  0  0  0  0  0  0  0
  140.8830   69.9590  228.3430 C   0  0  0  0  0  0  0  0  0  0  0  0
  141.0879   69.5398  229.3391 H   0  0  0  0  0  0  0  0  0  0  0  0
  140.3200   69.1530  227.3490 C   0  0  0  0  0  0  0  0  0  0  0  0
  140.0869   68.0993  227.5621 H   0  0  0  0  0  0  0  0  0  0  0  0
  140.0510   69.6900  226.0740 C   0  0  0  0  0  0  0  0  0  0  0  0
  139.4870   68.9250  225.0410 C   0  0  0  0  0  0  0  0  0  0  0  0
  139.1860   67.7180  225.2630 O   0  0  0  0  0  0  0  0  0  0  0  0
  1  2  1  0
  2  3  1  0
  3  4  1  0
  3  5  1  0
  3  6  1  0
  6  7  1  0
  6  8  1  0
  6  9  1  0
  9 10  1  0
 10 11  1  0
 11 12  1  0
 11 13  2  0
 13 14  1  0
 13 15  1  0
 15 16  1  0
 16 17  2  0
 17 18  1  0
 17 19  1  0
 19 20  1  0
 19 21  1  0
 21 22  1  0
 10 23  2  0
 23 24  1  0
 24 25  2  0
 25 26  1  0
 25 27  1  0
 27 28  1  0
 27 29  2  0
 29 30  1  0
 29 31  1  0
 31 32  1  0
 31 33  2  0
 33 34  1  0
 34 35  2  0
 34  9  1  0
 21 15  2  0
 33 24  1  0
M  END
>  <UniqueID>  (57) 
402

>  <SMILES>  (57) 
O=c1c2ccccc2nc(/C=C/c2c[nH]cn2)n1CCO

>  <Energy>  (57) 
74.02091278396843

>  <Genealogy>  (57) 
O=c1c2ccccc2nc(C=Cc2c[nH]cn2)n1CCO (tautomer)
O=c1c2ccccc2nc(/C=C/c2c[nH]cn2)n1CCO (cis-trans isomerization)
O=c1c2ccccc2nc(/C=C/c2c[nH]cn2)n1CCO (3D coordinates assigned)
O=c1c2ccccc2nc(/C=C/c2c[nH]cn2)n1CCO (optimized conformer: 74.02091278396843 kcal/mol)

>  <smiles>  (57) 
O=c1c2ccccc2nc(/C=C/c2cnc[nH]2)n1CCO

>  <score_type>  (57) 
oracle

>  <origin>  (57) 
autodockgpu

>  <m_score__min__energy>  (57) 
-6.5499999999999998

>  <m_primary>  (57) 
energy

>  <meeko>  (57) 
{"free_energy": -6.52, "intermolecular_energy": -8.31, "internal_energy": -1.39, "cluster_size": 12, "cluster_id": 1, "rank_in_cluster": 6}

>  <energy>  (57) 
-5.63

>  <cluster_rmsd>  (57) 
0.72

>  <rmsd>  (57) 
271.9

>  <cluster>  (57) 
2

$$$$
ISFQUULIKQOBJE-WSTWIXMCNA-N
     RDKit          3D

 35 37  0  0  0  0  0  0  0  0999 V2000
  139.2250   74.3320  222.7960 H   0  0  0  0  0  0  0  0  0  0  0  0
  139.7940   73.5270  222.7090 O   0  0  0  0  0  0  0  0  0  0  0  0
  140.6530   73.7660  221.6320 C   0  0  0  0  0  0  0  0  0  0  0  0
  140.7681   72.8410  221.0479 H   0  0  0  0  0  0  0  0  0  0  0  0
  141.6294   74.0920  222.0197 H   0  0  0  0  0  0  0  0  0  0  0  0
  140.0840   74.8660  220.7290 C   0  0  0  0  0  0  0  0  0  0  0  0
  138.9906   74.8958  220.8459 H   0  0  0  0  0  0  0  0  0  0  0  0
  140.3578   74.6375  219.6884 H   0  0  0  0  0  0  0  0  0  0  0  0
  140.6440   76.1940  221.0800 N   0  0  0  0  0  0  0  0  0  0  0  0
  141.7370   76.7300  220.4220 C   0  0  0  0  0  0  0  0  0  0  0  0
  142.4310   76.0320  219.2990 C   0  0  0  0  0  0  0  0  0  0  0  0
  141.8816   75.8547  218.3627 H   0  0  0  0  0  0  0  0  0  0  0  0
  143.7020   75.6140  219.3940 C   0  0  0  0  0  0  0  0  0  0  0  0
  144.5043   76.2591  219.0064 H   0  0  0  0  0  0  0  0  0  0  0  0
  144.0590   74.3200  220.0000 C   0  0  0  0  0  0  0  0  0  0  0  0
  143.2610   73.2340  220.0360 N   0  0  0  0  0  0  0  0  0  0  0  0
  143.9910   72.3110  220.6960 C   0  0  0  0  0  0  0  0  0  0  0  0
  143.6398   71.2895  220.9037 H   0  0  0  0  0  0  0  0  0  0  0  0
  145.1950   72.7770  221.0720 N   0  0  0  0  0  0  0  0  0  0  0  0
  145.9350   72.2610  221.5970 H   0  0  0  0  0  0  0  0  0  0  0  0
  145.2450   74.0470  220.6410 C   0  0  0  0  0  0  0  0  0  0  0  0
  146.0844   74.7449  220.7762 H   0  0  0  0  0  0  0  0  0  0  0  0
  142.2150   77.9470  220.7970 N   0  0  0  0  0  0  0  0  0  0  0  0
  141.6520   78.6740  221.7870 C   0  0  0  0  0  0  0  0  0  0  0  0
  142.1990   79.9130  222.1430 C   0  0  0  0  0  0  0  0  0  0  0  0
  143.0907   80.2914  221.6217 H   0  0  0  0  0  0  0  0  0  0  0  0
  141.6110   80.6680  223.1610 C   0  0  0  0  0  0  0  0  0  0  0  0
  142.0428   81.6395  223.4435 H   0  0  0  0  0  0  0  0  0  0  0  0
  140.4750   80.1910  223.8210 C   0  0  0  0  0  0  0  0  0  0  0  0
  140.0082   80.7925  224.6149 H   0  0  0  0  0  0  0  0  0  0  0  0
  139.9310   78.9510  223.4740 C   0  0  0  0  0  0  0  0  0  0  0  0
  139.0398   78.5759  223.9985 H   0  0  0  0  0  0  0  0  0  0  0  0
  140.5230   78.1810  222.4530 C   0  0  0  0  0  0  0  0  0  0  0  0
  140.0180   76.9300  222.0650 C   0  0  0  0  0  0  0  0  0  0  0  0
  138.9810   76.4840  222.6320 O   0  0  0  0  0  0  0  0  0  0  0  0
  1  2  1  0
  2  3  1  0
  3  4  1  0
  3  5  1  0
  3  6  1  0
  6  7  1  0
  6  8  1  0
  6  9  1  0
  9 10  1  0
 10 11  1  0
 11 12  1  0
 11 13  2  0
 13 14  1  0
 13 15  1  0
 15 16  1  0
 16 17  2  0
 17 18  1  0
 17 19  1  0
 19 20  1  0
 19 21  1  0
 21 22  1  0
 10 23  2  0
 23 24  1  0
 24 25  2  0
 25 26  1  0
 25 27  1  0
 27 28  1  0
 27 29  2  0
 29 30  1  0
 29 31  1  0
 31 32  1  0
 31 33  2  0
 33 34  1  0
 34 35  2  0
 34  9  1  0
 21 15  2  0
 33 24  1  0
M  END
>  <UniqueID>  (58) 
402

>  <SMILES>  (58) 
O=c1c2ccccc2nc(/C=C/c2c[nH]cn2)n1CCO

>  <Energy>  (58) 
74.02091278396843

>  <Genealogy>  (58) 
O=c1c2ccccc2nc(C=Cc2c[nH]cn2)n1CCO (tautomer)
O=c1c2ccccc2nc(/C=C/c2c[nH]cn2)n1CCO (cis-trans isomerization)
O=c1c2ccccc2nc(/C=C/c2c[nH]cn2)n1CCO (3D coordinates assigned)
O=c1c2ccccc2nc(/C=C/c2c[nH]cn2)n1CCO (optimized conformer: 74.02091278396843 kcal/mol)

>  <smiles>  (58) 
O=c1c2ccccc2nc(/C=C/c2cnc[nH]2)n1CCO

>  <score_type>  (58) 
oracle

>  <origin>  (58) 
autodockgpu

>  <m_score__min__energy>  (58) 
-6.5499999999999998

>  <m_primary>  (58) 
energy

>  <meeko>  (58) 
{"free_energy": -6.03, "intermolecular_energy": -7.82, "internal_energy": -1.48, "cluster_size": 3, "cluster_id": 3, "rank_in_cluster": 1}

>  <energy>  (58) 
-6.03

>  <cluster_rmsd>  (58) 
0.0

>  <rmsd>  (58) 
272.46

>  <cluster>  (58) 
3

$$$$
ISFQUULIKQOBJE-WSTWIXMCNA-N
     RDKit          3D

 35 37  0  0  0  0  0  0  0  0999 V2000
  137.1540   68.5190  224.7240 H   0  0  0  0  0  0  0  0  0  0  0  0
  136.4660   68.8760  224.1080 O   0  0  0  0  0  0  0  0  0  0  0  0
  137.0180   68.8180  222.8250 C   0  0  0  0  0  0  0  0  0  0  0  0
  136.8496   69.7775  222.3141 H   0  0  0  0  0  0  0  0  0  0  0  0
  136.5362   68.0026  222.2655 H   0  0  0  0  0  0  0  0  0  0  0  0
  138.5250   68.5450  222.9040 C   0  0  0  0  0  0  0  0  0  0  0  0
  138.9719   68.7115  221.9128 H   0  0  0  0  0  0  0  0  0  0  0  0
  138.6731   67.5041  223.2274 H   0  0  0  0  0  0  0  0  0  0  0  0
  139.1830   69.4390  223.8870 N   0  0  0  0  0  0  0  0  0  0  0  0
  139.5230   70.7460  223.5810 C   0  0  0  0  0  0  0  0  0  0  0  0
  139.2430   71.3690  222.2530 C   0  0  0  0  0  0  0  0  0  0  0  0
  138.2050   71.4040  221.8905 H   0  0  0  0  0  0  0  0  0  0  0  0
  140.2140   71.8870  221.4880 C   0  0  0  0  0  0  0  0  0  0  0  0
  140.7271   71.2347  220.7660 H   0  0  0  0  0  0  0  0  0  0  0  0
  140.6170   73.3010  221.5820 C   0  0  0  0  0  0  0  0  0  0  0  0
  139.8470   74.2960  222.0680 N   0  0  0  0  0  0  0  0  0  0  0  0
  140.6140   75.3980  221.9380 C   0  0  0  0  0  0  0  0  0  0  0  0
  140.2930   76.4043  222.2450 H   0  0  0  0  0  0  0  0  0  0  0  0
  141.8140   75.1320  221.3920 N   0  0  0  0  0  0  0  0  0  0  0  0
  142.5770   75.8120  221.1860 H   0  0  0  0  0  0  0  0  0  0  0  0
  141.8230   73.8100  221.1590 C   0  0  0  0  0  0  0  0  0  0  0  0
  142.6473   73.2363  220.7101 H   0  0  0  0  0  0  0  0  0  0  0  0
  140.1360   71.5160  224.5200 N   0  0  0  0  0  0  0  0  0  0  0  0
  140.4200   71.0600  225.7600 C   0  0  0  0  0  0  0  0  0  0  0  0
  141.0710   71.8920  226.6800 C   0  0  0  0  0  0  0  0  0  0  0  0
  141.3576   72.9139  226.3910 H   0  0  0  0  0  0  0  0  0  0  0  0
  141.3560   71.4230  227.9650 C   0  0  0  0  0  0  0  0  0  0  0  0
  141.8713   72.0746  228.6860 H   0  0  0  0  0  0  0  0  0  0  0  0
  140.9870   70.1270  228.3350 C   0  0  0  0  0  0  0  0  0  0  0  0
  141.2037   69.7640  229.3505 H   0  0  0  0  0  0  0  0  0  0  0  0
  140.3430   69.2900  227.4180 C   0  0  0  0  0  0  0  0  0  0  0  0
  140.0575   68.2690  227.7114 H   0  0  0  0  0  0  0  0  0  0  0  0
  140.0600   69.7550  226.1180 C   0  0  0  0  0  0  0  0  0  0  0  0
  139.4170   68.9580  225.1580 C   0  0  0  0  0  0  0  0  0  0  0  0
  139.0550   67.7890  225.4730 O   0  0  0  0  0  0  0  0  0  0  0  0
  1  2  1  0
  2  3  1  0
  3  4  1  0
  3  5  1  0
  3  6  1  0
  6  7  1  0
  6  8  1  0
  6  9  1  0
  9 10  1  0
 10 11  1  0
 11 12  1  0
 11 13  2  0
 13 14  1  0
 13 15  1  0
 15 16  1  0
 16 17  2  0
 17 18  1  0
 17 19  1  0
 19 20  1  0
 19 21  1  0
 21 22  1  0
 10 23  2  0
 23 24  1  0
 24 25  2  0
 25 26  1  0
 25 27  1  0
 27 28  1  0
 27 29  2  0
 29 30  1  0
 29 31  1  0
 31 32  1  0
 31 33  2  0
 33 34  1  0
 34 35  2  0
 34  9  1  0
 21 15  2  0
 33 24  1  0
M  END
>  <UniqueID>  (59) 
402

>  <SMILES>  (59) 
O=c1c2ccccc2nc(/C=C/c2c[nH]cn2)n1CCO

>  <Energy>  (59) 
74.02091278396843

>  <Genealogy>  (59) 
O=c1c2ccccc2nc(C=Cc2c[nH]cn2)n1CCO (tautomer)
O=c1c2ccccc2nc(/C=C/c2c[nH]cn2)n1CCO (cis-trans isomerization)
O=c1c2ccccc2nc(/C=C/c2c[nH]cn2)n1CCO (3D coordinates assigned)
O=c1c2ccccc2nc(/C=C/c2c[nH]cn2)n1CCO (optimized conformer: 74.02091278396843 kcal/mol)

>  <smiles>  (59) 
O=c1c2ccccc2nc(/C=C/c2cnc[nH]2)n1CCO

>  <score_type>  (59) 
oracle

>  <origin>  (59) 
autodockgpu

>  <m_score__min__energy>  (59) 
-6.5499999999999998

>  <m_primary>  (59) 
energy

>  <meeko>  (59) 
{"free_energy": -6.49, "intermolecular_energy": -8.28, "internal_energy": -1.4, "cluster_size": 12, "cluster_id": 1, "rank_in_cluster": 10}

>  <energy>  (59) 
-6.0

>  <cluster_rmsd>  (59) 
0.09

>  <rmsd>  (59) 
272.42

>  <cluster>  (59) 
3

$$$$
ISFQUULIKQOBJE-WSTWIXMCNA-N
     RDKit          3D

 35 37  0  0  0  0  0  0  0  0999 V2000
  137.2770   68.4010  224.5080 H   0  0  0  0  0  0  0  0  0  0  0  0
  136.6730   68.8800  223.8870 O   0  0  0  0  0  0  0  0  0  0  0  0
  137.2290   68.7430  222.6110 C   0  0  0  0  0  0  0  0  0  0  0  0
  136.9985   69.6394  222.0166 H   0  0  0  0  0  0  0  0  0  0  0  0
  136.8025   67.8510  222.1288 H   0  0  0  0  0  0  0  0  0  0  0  0
  138.7500   68.5780  222.7080 C   0  0  0  0  0  0  0  0  0  0  0  0
  139.2014   68.8409  221.7400 H   0  0  0  0  0  0  0  0  0  0  0  0
  138.9699   67.5322  222.9687 H   0  0  0  0  0  0  0  0  0  0  0  0
  139.3210   69.4530  223.7610 N   0  0  0  0  0  0  0  0  0  0  0  0
  139.6350   70.7810  223.5240 C   0  0  0  0  0  0  0  0  0  0  0  0
  139.4120   71.4460  222.2050 C   0  0  0  0  0  0  0  0  0  0  0  0
  138.3870   71.5171  221.8122 H   0  0  0  0  0  0  0  0  0  0  0  0
  140.4190   71.9590  221.4840 C   0  0  0  0  0  0  0  0  0  0  0  0
  141.0121   71.2878  220.8455 H   0  0  0  0  0  0  0  0  0  0  0  0
  140.7570   73.3920  221.5190 C   0  0  0  0  0  0  0  0  0  0  0  0
  139.9750   74.3620  222.0360 N   0  0  0  0  0  0  0  0  0  0  0  0
  140.6770   75.4950  221.8280 C   0  0  0  0  0  0  0  0  0  0  0  0
  140.3298   76.4927  222.1348 H   0  0  0  0  0  0  0  0  0  0  0  0
  141.8470   75.2720  221.2050 N   0  0  0  0  0  0  0  0  0  0  0  0
  142.5600   75.9830  220.9310 H   0  0  0  0  0  0  0  0  0  0  0  0
  141.9050   73.9470  221.0010 C   0  0  0  0  0  0  0  0  0  0  0  0
  142.7235   73.4020  220.5081 H   0  0  0  0  0  0  0  0  0  0  0  0
  140.1680   71.5320  224.5240 N   0  0  0  0  0  0  0  0  0  0  0  0
  140.3950   71.0370  225.7610 C   0  0  0  0  0  0  0  0  0  0  0  0
  140.9640   71.8530  226.7480 C   0  0  0  0  0  0  0  0  0  0  0  0
  141.2324   72.8939  226.5145 H   0  0  0  0  0  0  0  0  0  0  0  0
  141.1900   71.3430  228.0290 C   0  0  0  0  0  0  0  0  0  0  0  0
  141.6417   71.9815  228.8025 H   0  0  0  0  0  0  0  0  0  0  0  0
  140.8430   70.0230  228.3290 C   0  0  0  0  0  0  0  0  0  0  0  0
  141.0125   69.6280  229.3415 H   0  0  0  0  0  0  0  0  0  0  0  0
  140.2810   69.2030  227.3460 C   0  0  0  0  0  0  0  0  0  0  0  0
  140.0128   68.1632  227.5844 H   0  0  0  0  0  0  0  0  0  0  0  0
  140.0580   69.7090  226.0490 C   0  0  0  0  0  0  0  0  0  0  0  0
  139.4980   68.9300  225.0250 C   0  0  0  0  0  0  0  0  0  0  0  0
  139.1570   67.7400  225.2740 O   0  0  0  0  0  0  0  0  0  0  0  0
  1  2  1  0
  2  3  1  0
  3  4  1  0
  3  5  1  0
  3  6  1  0
  6  7  1  0
  6  8  1  0
  6  9  1  0
  9 10  1  0
 10 11  1  0
 11 12  1  0
 11 13  2  0
 13 14  1  0
 13 15  1  0
 15 16  1  0
 16 17  2  0
 17 18  1  0
 17 19  1  0
 19 20  1  0
 19 21  1  0
 21 22  1  0
 10 23  2  0
 23 24  1  0
 24 25  2  0
 25 26  1  0
 25 27  1  0
 27 28  1  0
 27 29  2  0
 29 30  1  0
 29 31  1  0
 31 32  1  0
 31 33  2  0
 33 34  1  0
 34 35  2  0
 34  9  1  0
 21 15  2  0
 33 24  1  0
M  END
>  <UniqueID>  (60) 
402

>  <SMILES>  (60) 
O=c1c2ccccc2nc(/C=C/c2c[nH]cn2)n1CCO

>  <Energy>  (60) 
74.02091278396843

>  <Genealogy>  (60) 
O=c1c2ccccc2nc(C=Cc2c[nH]cn2)n1CCO (tautomer)
O=c1c2ccccc2nc(/C=C/c2c[nH]cn2)n1CCO (cis-trans isomerization)
O=c1c2ccccc2nc(/C=C/c2c[nH]cn2)n1CCO (3D coordinates assigned)
O=c1c2ccccc2nc(/C=C/c2c[nH]cn2)n1CCO (optimized conformer: 74.02091278396843 kcal/mol)

>  <smiles>  (60) 
O=c1c2ccccc2nc(/C=C/c2cnc[nH]2)n1CCO

>  <score_type>  (60) 
oracle

>  <origin>  (60) 
autodockgpu

>  <m_score__min__energy>  (60) 
-6.5499999999999998

>  <m_primary>  (60) 
energy

>  <meeko>  (60) 
{"free_energy": -6.52, "intermolecular_energy": -8.31, "internal_energy": -1.38, "cluster_size": 12, "cluster_id": 1, "rank_in_cluster": 7}

>  <energy>  (60) 
-5.99

>  <cluster_rmsd>  (60) 
0.11

>  <rmsd>  (60) 
272.41

>  <cluster>  (60) 
3

$$$$
XPOQFKNVEIIJJE-WMQPJQOXNA-M
     RDKit          3D

 34 36  0  0  0  0  0  0  0  0999 V2000
  139.7140   73.2890  223.4640 H   0  0  0  0  0  0  0  0  0  0  0  0
  140.2320   73.1660  222.6260 O   0  0  0  0  0  0  0  0  0  0  0  0
  140.1260   71.8090  222.3000 C   0  0  0  0  0  0  0  0  0  0  0  0
  140.9913   71.2698  222.7129 H   0  0  0  0  0  0  0  0  0  0  0  0
  140.1012   71.7093  221.2048 H   0  0  0  0  0  0  0  0  0  0  0  0
  138.8390   71.2120  222.8780 C   0  0  0  0  0  0  0  0  0  0  0  0
  138.3132   70.6590  222.0857 H   0  0  0  0  0  0  0  0  0  0  0  0
  138.2153   72.0343  223.2585 H   0  0  0  0  0  0  0  0  0  0  0  0
  139.1300   70.2880  224.0000 N   0  0  0  0  0  0  0  0  0  0  0  0
  138.6930   68.9730  224.0030 C   0  0  0  0  0  0  0  0  0  0  0  0
  137.9190   68.3770  222.8750 C   0  0  0  0  0  0  0  0  0  0  0  0
  138.4515   67.7745  222.1243 H   0  0  0  0  0  0  0  0  0  0  0  0
  136.5930   68.5520  222.7460 C   0  0  0  0  0  0  0  0  0  0  0  0
  136.1404   68.4041  221.7544 H   0  0  0  0  0  0  0  0  0  0  0  0
  135.7130   68.9330  223.8690 C   0  0  0  0  0  0  0  0  0  0  0  0
  134.7030   68.1520  224.2950 N   0  0  0  0  0  0  0  0  0  0  0  0
  134.1950   68.8240  225.3490 C   0  0  0  0  0  0  0  0  0  0  0  0
  133.3419   68.4593  225.9400 H   0  0  0  0  0  0  0  0  0  0  0  0
  134.8320   69.9870  225.6110 N   0  0  0  0  0  0  0  0  0  0  0  0
  135.7960   70.0520  224.6750 C   0  0  0  0  0  0  0  0  0  0  0  0
  136.5306   70.8638  224.5687 H   0  0  0  0  0  0  0  0  0  0  0  0
  138.9650   68.1780  225.0750 N   0  0  0  0  0  0  0  0  0  0  0  0
  139.6650   68.6160  226.1450 C   0  0  0  0  0  0  0  0  0  0  0  0
  139.9000   67.7590  227.2280 C   0  0  0  0  0  0  0  0  0  0  0  0
  139.5014   66.7338  227.2149 H   0  0  0  0  0  0  0  0  0  0  0  0
  140.6410   68.2070  228.3250 C   0  0  0  0  0  0  0  0  0  0  0  0
  140.8314   67.5320  229.1724 H   0  0  0  0  0  0  0  0  0  0  0  0
  141.1410   69.5140  228.3460 C   0  0  0  0  0  0  0  0  0  0  0  0
  141.7255   69.8642  229.2095 H   0  0  0  0  0  0  0  0  0  0  0  0
  140.8990   70.3760  227.2710 C   0  0  0  0  0  0  0  0  0  0  0  0
  141.2874   71.4049  227.2942 H   0  0  0  0  0  0  0  0  0  0  0  0
  140.1590   69.9290  226.1590 C   0  0  0  0  0  0  0  0  0  0  0  0
  139.8810   70.7550  225.0560 C   0  0  0  0  0  0  0  0  0  0  0  0
  140.3250   71.9400  225.0480 O   0  0  0  0  0  0  0  0  0  0  0  0
  1  2  1  0
  2  3  1  0
  3  4  1  0
  3  5  1  0
  3  6  1  0
  6  7  1  0
  6  8  1  0
  6  9  1  0
  9 10  1  0
 10 11  1  0
 11 12  1  0
 11 13  2  0
 13 14  1  0
 13 15  1  0
 15 16  1  0
 16 17  1  0
 17 18  1  0
 17 19  2  0
 19 20  1  0
 20 21  1  0
 10 22  2  0
 22 23  1  0
 23 24  2  0
 24 25  1  0
 24 26  1  0
 26 27  1  0
 26 28  2  0
 28 29  1  0
 28 30  1  0
 30 31  1  0
 30 32  2  0
 32 33  1  0
 33 34  2  0
 33  9  1  0
 20 15  2  0
 32 23  1  0
M  CHG  1  16  -1
M  END
>  <UniqueID>  (61) 
403

>  <SMILES>  (61) 
O=c1c2ccccc2nc(/C=C/c2cnc[n-]2)n1CCO

>  <Energy>  (61) 
72.8932974027173

>  <Genealogy>  (61) 
O=c1c2ccccc2nc(/C=C/c2cnc[n-]2)n1CCO (protonated)
O=c1c2ccccc2nc(/C=C/c2cnc[n-]2)n1CCO (cis-trans isomerization)
O=c1c2ccccc2nc(/C=C/c2cnc[n-]2)n1CCO (3D coordinates assigned)
O=c1c2ccccc2nc(/C=C/c2cnc[n-]2)n1CCO (optimized conformer: 72.8932974027173 kcal/mol)

>  <smiles>  (61) 
O=c1c2ccccc2nc(/C=C/c2cnc[nH]2)n1CCO

>  <score_type>  (61) 
oracle

>  <origin>  (61) 
autodockgpu

>  <m_score__min__energy>  (61) 
-6.7699999999999996

>  <m_primary>  (61) 
energy

>  <meeko>  (61) 
{"free_energy": -6.4, "intermolecular_energy": -8.19, "internal_energy": -1.38, "cluster_size": 17, "cluster_id": 1, "rank_in_cluster": 12}

>  <energy>  (61) 
-6.77

>  <cluster_rmsd>  (61) 
0.0

>  <rmsd>  (61) 
269.11

>  <cluster>  (61) 
1

$$$$
XPOQFKNVEIIJJE-WMQPJQOXNA-M
     RDKit          3D

 34 36  0  0  0  0  0  0  0  0999 V2000
  139.6880   66.7890  223.9920 H   0  0  0  0  0  0  0  0  0  0  0  0
  139.1640   66.4960  223.2020 O   0  0  0  0  0  0  0  0  0  0  0  0
  138.9210   67.6480  222.4460 C   0  0  0  0  0  0  0  0  0  0  0  0
  138.4470   67.3630  221.4952 H   0  0  0  0  0  0  0  0  0  0  0  0
  139.8781   68.1563  222.2571 H   0  0  0  0  0  0  0  0  0  0  0  0
  137.9950   68.6050  223.2030 C   0  0  0  0  0  0  0  0  0  0  0  0
  137.2569   68.0171  223.7684 H   0  0  0  0  0  0  0  0  0  0  0  0
  137.4954   69.2564  222.4708 H   0  0  0  0  0  0  0  0  0  0  0  0
  138.7570   69.4590  224.1460 N   0  0  0  0  0  0  0  0  0  0  0  0
  139.0540   70.7820  223.8650 C   0  0  0  0  0  0  0  0  0  0  0  0
  138.6150   71.4600  222.6090 C   0  0  0  0  0  0  0  0  0  0  0  0
  137.5672   71.3612  222.2890 H   0  0  0  0  0  0  0  0  0  0  0  0
  139.4590   72.1870  221.8570 C   0  0  0  0  0  0  0  0  0  0  0  0
  140.1178   71.6589  221.1520 H   0  0  0  0  0  0  0  0  0  0  0  0
  139.5460   73.6590  221.9300 C   0  0  0  0  0  0  0  0  0  0  0  0
  140.7200   74.3150  221.9650 N   0  0  0  0  0  0  0  0  0  0  0  0
  140.3650   75.6170  221.9740 C   0  0  0  0  0  0  0  0  0  0  0  0
  141.0951   76.4393  222.0016 H   0  0  0  0  0  0  0  0  0  0  0  0
  139.0290   75.8160  221.9460 N   0  0  0  0  0  0  0  0  0  0  0  0
  138.5120   74.5750  221.9140 C   0  0  0  0  0  0  0  0  0  0  0  0
  137.4403   74.3293  221.8805 H   0  0  0  0  0  0  0  0  0  0  0  0
  139.7830   71.5110  224.7550 N   0  0  0  0  0  0  0  0  0  0  0  0
  140.2220   70.9960  225.9260 C   0  0  0  0  0  0  0  0  0  0  0  0
  140.9840   71.7870  226.7970 C   0  0  0  0  0  0  0  0  0  0  0  0
  141.2379   72.8213  226.5217 H   0  0  0  0  0  0  0  0  0  0  0  0
  141.4210   71.2600  228.0160 C   0  0  0  0  0  0  0  0  0  0  0  0
  142.0135   71.8819  228.7032 H   0  0  0  0  0  0  0  0  0  0  0  0
  141.1050   69.9420  228.3620 C   0  0  0  0  0  0  0  0  0  0  0  0
  141.4478   69.5304  229.3228 H   0  0  0  0  0  0  0  0  0  0  0  0
  140.3550   69.1460  227.4910 C   0  0  0  0  0  0  0  0  0  0  0  0
  140.1163   68.1075  227.7642 H   0  0  0  0  0  0  0  0  0  0  0  0
  139.9040   69.6720  226.2630 C   0  0  0  0  0  0  0  0  0  0  0  0
  139.1540   68.9150  225.3480 C   0  0  0  0  0  0  0  0  0  0  0  0
  138.8530   67.7220  225.6380 O   0  0  0  0  0  0  0  0  0  0  0  0
  1  2  1  0
  2  3  1  0
  3  4  1  0
  3  5  1  0
  3  6  1  0
  6  7  1  0
  6  8  1  0
  6  9  1  0
  9 10  1  0
 10 11  1  0
 11 12  1  0
 11 13  2  0
 13 14  1  0
 13 15  1  0
 15 16  1  0
 16 17  1  0
 17 18  1  0
 17 19  2  0
 19 20  1  0
 20 21  1  0
 10 22  2  0
 22 23  1  0
 23 24  2  0
 24 25  1  0
 24 26  1  0
 26 27  1  0
 26 28  2  0
 28 29  1  0
 28 30  1  0
 30 31  1  0
 30 32  2  0
 32 33  1  0
 33 34  2  0
 33  9  1  0
 20 15  2  0
 32 23  1  0
M  CHG  1  16  -1
M  END
>  <UniqueID>  (62) 
403

>  <SMILES>  (62) 
O=c1c2ccccc2nc(/C=C/c2cnc[n-]2)n1CCO

>  <Energy>  (62) 
72.8932974027173

>  <Genealogy>  (62) 
O=c1c2ccccc2nc(/C=C/c2cnc[n-]2)n1CCO (protonated)
O=c1c2ccccc2nc(/C=C/c2cnc[n-]2)n1CCO (cis-trans isomerization)
O=c1c2ccccc2nc(/C=C/c2cnc[n-]2)n1CCO (3D coordinates assigned)
O=c1c2ccccc2nc(/C=C/c2cnc[n-]2)n1CCO (optimized conformer: 72.8932974027173 kcal/mol)

>  <smiles>  (62) 
O=c1c2ccccc2nc(/C=C/c2cnc[nH]2)n1CCO

>  <score_type>  (62) 
oracle

>  <origin>  (62) 
autodockgpu

>  <m_score__min__energy>  (62) 
-6.7699999999999996

>  <m_primary>  (62) 
energy

>  <meeko>  (62) 
{"free_energy": -5.92, "intermolecular_energy": -7.71, "internal_energy": -1.3, "cluster_size": 2, "cluster_id": 2, "rank_in_cluster": 1}

>  <energy>  (62) 
-6.77

>  <cluster_rmsd>  (62) 
0.04

>  <rmsd>  (62) 
269.13

>  <cluster>  (62) 
1

$$$$
XPOQFKNVEIIJJE-WMQPJQOXNA-M
     RDKit          3D

 34 36  0  0  0  0  0  0  0  0999 V2000
  139.7160   73.3260  223.4900 H   0  0  0  0  0  0  0  0  0  0  0  0
  140.2290   73.2270  222.6470 O   0  0  0  0  0  0  0  0  0  0  0  0
  140.1690   71.8700  222.3110 C   0  0  0  0  0  0  0  0  0  0  0  0
  141.0333   71.3505  222.7505 H   0  0  0  0  0  0  0  0  0  0  0  0
  140.1843   71.7757  221.2152 H   0  0  0  0  0  0  0  0  0  0  0  0
  138.8790   71.2380  222.8420 C   0  0  0  0  0  0  0  0  0  0  0  0
  138.3854   70.6912  222.0250 H   0  0  0  0  0  0  0  0  0  0  0  0
  138.2300   72.0410  223.2213 H   0  0  0  0  0  0  0  0  0  0  0  0
  139.1570   70.2970  223.9540 N   0  0  0  0  0  0  0  0  0  0  0  0
  138.7420   68.9760  223.9210 C   0  0  0  0  0  0  0  0  0  0  0  0
  138.0060   68.3890  222.7620 C   0  0  0  0  0  0  0  0  0  0  0  0
  138.5813   67.9784  221.9191 H   0  0  0  0  0  0  0  0  0  0  0  0
  136.6640   68.3460  222.7150 C   0  0  0  0  0  0  0  0  0  0  0  0
  136.1877   67.6787  221.9816 H   0  0  0  0  0  0  0  0  0  0  0  0
  135.7970   69.1500  223.5990 C   0  0  0  0  0  0  0  0  0  0  0  0
  135.3410   68.6910  224.7790 N   0  0  0  0  0  0  0  0  0  0  0  0
  134.6450   69.7310  225.2850 C   0  0  0  0  0  0  0  0  0  0  0  0
  134.1314   69.6947  226.2571 H   0  0  0  0  0  0  0  0  0  0  0  0
  134.6380   70.8210  224.4860 N   0  0  0  0  0  0  0  0  0  0  0  0
  135.3710   70.4520  223.4210 C   0  0  0  0  0  0  0  0  0  0  0  0
  135.5952   71.0843  222.5493 H   0  0  0  0  0  0  0  0  0  0  0  0
  139.0000   68.1640  224.9840 N   0  0  0  0  0  0  0  0  0  0  0  0
  139.6650   68.5940  226.0790 C   0  0  0  0  0  0  0  0  0  0  0  0
  139.8880   67.7190  227.1520 C   0  0  0  0  0  0  0  0  0  0  0  0
  139.5080   66.6876  227.1092 H   0  0  0  0  0  0  0  0  0  0  0  0
  140.5930   68.1580  228.2750 C   0  0  0  0  0  0  0  0  0  0  0  0
  140.7727   67.4703  229.1145 H   0  0  0  0  0  0  0  0  0  0  0  0
  141.0710   69.4720  228.3330 C   0  0  0  0  0  0  0  0  0  0  0  0
  141.6285   69.8143  229.2173 H   0  0  0  0  0  0  0  0  0  0  0  0
  140.8420   70.3510  227.2700 C   0  0  0  0  0  0  0  0  0  0  0  0
  141.2117   71.3856  227.3234 H   0  0  0  0  0  0  0  0  0  0  0  0
  140.1380   69.9130  226.1300 C   0  0  0  0  0  0  0  0  0  0  0  0
  139.8740   70.7560  225.0370 C   0  0  0  0  0  0  0  0  0  0  0  0
  140.2970   71.9480  225.0630 O   0  0  0  0  0  0  0  0  0  0  0  0
  1  2  1  0
  2  3  1  0
  3  4  1  0
  3  5  1  0
  3  6  1  0
  6  7  1  0
  6  8  1  0
  6  9  1  0
  9 10  1  0
 10 11  1  0
 11 12  1  0
 11 13  2  0
 13 14  1  0
 13 15  1  0
 15 16  1  0
 16 17  1  0
 17 18  1  0
 17 19  2  0
 19 20  1  0
 20 21  1  0
 10 22  2  0
 22 23  1  0
 23 24  2  0
 24 25  1  0
 24 26  1  0
 26 27  1  0
 26 28  2  0
 28 29  1  0
 28 30  1  0
 30 31  1  0
 30 32  2  0
 32 33  1  0
 33 34  2  0
 33  9  1  0
 20 15  2  0
 32 23  1  0
M  CHG  1  16  -1
M  END
>  <UniqueID>  (63) 
403

>  <SMILES>  (63) 
O=c1c2ccccc2nc(/C=C/c2cnc[n-]2)n1CCO

>  <Energy>  (63) 
72.8932974027173

>  <Genealogy>  (63) 
O=c1c2ccccc2nc(/C=C/c2cnc[n-]2)n1CCO (protonated)
O=c1c2ccccc2nc(/C=C/c2cnc[n-]2)n1CCO (cis-trans isomerization)
O=c1c2ccccc2nc(/C=C/c2cnc[n-]2)n1CCO (3D coordinates assigned)
O=c1c2ccccc2nc(/C=C/c2cnc[n-]2)n1CCO (optimized conformer: 72.8932974027173 kcal/mol)

>  <smiles>  (63) 
O=c1c2ccccc2nc(/C=C/c2cnc[nH]2)n1CCO

>  <score_type>  (63) 
oracle

>  <origin>  (63) 
autodockgpu

>  <m_score__min__energy>  (63) 
-6.7699999999999996

>  <m_primary>  (63) 
energy

>  <meeko>  (63) 
{"free_energy": -5.95, "intermolecular_energy": -7.74, "internal_energy": -1.46, "cluster_size": 17, "cluster_id": 1, "rank_in_cluster": 15}

>  <energy>  (63) 
-6.77

>  <cluster_rmsd>  (63) 
0.04

>  <rmsd>  (63) 
269.11

>  <cluster>  (63) 
1

$$$$
XPOQFKNVEIIJJE-WMQPJQOXNA-M
     RDKit          3D

 34 36  0  0  0  0  0  0  0  0999 V2000
  139.7850   73.3810  223.5200 H   0  0  0  0  0  0  0  0  0  0  0  0
  140.1390   73.1780  222.6150 O   0  0  0  0  0  0  0  0  0  0  0  0
  139.7440   71.8680  222.3260 C   0  0  0  0  0  0  0  0  0  0  0  0
  140.5599   71.1785  222.5886 H   0  0  0  0  0  0  0  0  0  0  0  0
  139.5146   71.7963  221.2526 H   0  0  0  0  0  0  0  0  0  0  0  0
  138.4910   71.4920  223.1240 C   0  0  0  0  0  0  0  0  0  0  0  0
  137.7503   71.0506  222.4409 H   0  0  0  0  0  0  0  0  0  0  0  0
  138.0927   72.4031  223.5942 H   0  0  0  0  0  0  0  0  0  0  0  0
  138.8060   70.5130  224.1930 N   0  0  0  0  0  0  0  0  0  0  0  0
  138.1770   69.2810  224.2710 C   0  0  0  0  0  0  0  0  0  0  0  0
  137.1550   68.8320  223.2800 C   0  0  0  0  0  0  0  0  0  0  0  0
  137.4644   68.1661  222.4610 H   0  0  0  0  0  0  0  0  0  0  0  0
  135.8690   69.2150  223.3560 C   0  0  0  0  0  0  0  0  0  0  0  0
  135.4444   69.7884  222.5188 H   0  0  0  0  0  0  0  0  0  0  0  0
  134.9980   68.9050  224.5060 C   0  0  0  0  0  0  0  0  0  0  0  0
  134.3110   67.7520  224.6050 N   0  0  0  0  0  0  0  0  0  0  0  0
  133.6960   67.8410  225.8030 C   0  0  0  0  0  0  0  0  0  0  0  0
  133.0419   67.0524  226.2033 H   0  0  0  0  0  0  0  0  0  0  0  0
  133.9590   68.9900  226.4650 N   0  0  0  0  0  0  0  0  0  0  0  0
  134.7860   69.6610  225.6430 C   0  0  0  0  0  0  0  0  0  0  0  0
  135.2225   70.6506  225.8435 H   0  0  0  0  0  0  0  0  0  0  0  0
  138.4850   68.4340  225.2910 N   0  0  0  0  0  0  0  0  0  0  0  0
  139.4020   68.7400  226.2370 C   0  0  0  0  0  0  0  0  0  0  0  0
  139.6660   67.8360  227.2750 C   0  0  0  0  0  0  0  0  0  0  0  0
  139.1168   66.8844  227.3294 H   0  0  0  0  0  0  0  0  0  0  0  0
  140.6280   68.1450  228.2410 C   0  0  0  0  0  0  0  0  0  0  0  0
  140.8401   67.4336  229.0528 H   0  0  0  0  0  0  0  0  0  0  0  0
  141.3210   69.3580  228.1760 C   0  0  0  0  0  0  0  0  0  0  0  0
  142.0797   69.5977  228.9356 H   0  0  0  0  0  0  0  0  0  0  0  0
  141.0520   70.2670  227.1480 C   0  0  0  0  0  0  0  0  0  0  0  0
  141.5932   71.2237  227.1058 H   0  0  0  0  0  0  0  0  0  0  0  0
  140.0890   69.9600  226.1660 C   0  0  0  0  0  0  0  0  0  0  0  0
  139.7750   70.8400  225.1160 C   0  0  0  0  0  0  0  0  0  0  0  0
  140.3890   71.9420  225.0330 O   0  0  0  0  0  0  0  0  0  0  0  0
  1  2  1  0
  2  3  1  0
  3  4  1  0
  3  5  1  0
  3  6  1  0
  6  7  1  0
  6  8  1  0
  6  9  1  0
  9 10  1  0
 10 11  1  0
 11 12  1  0
 11 13  2  0
 13 14  1  0
 13 15  1  0
 15 16  1  0
 16 17  1  0
 17 18  1  0
 17 19  2  0
 19 20  1  0
 20 21  1  0
 10 22  2  0
 22 23  1  0
 23 24  2  0
 24 25  1  0
 24 26  1  0
 26 27  1  0
 26 28  2  0
 28 29  1  0
 28 30  1  0
 30 31  1  0
 30 32  2  0
 32 33  1  0
 33 34  2  0
 33  9  1  0
 20 15  2  0
 32 23  1  0
M  CHG  1  16  -1
M  END
>  <UniqueID>  (64) 
403

>  <SMILES>  (64) 
O=c1c2ccccc2nc(/C=C/c2cnc[n-]2)n1CCO

>  <Energy>  (64) 
72.8932974027173

>  <Genealogy>  (64) 
O=c1c2ccccc2nc(/C=C/c2cnc[n-]2)n1CCO (protonated)
O=c1c2ccccc2nc(/C=C/c2cnc[n-]2)n1CCO (cis-trans isomerization)
O=c1c2ccccc2nc(/C=C/c2cnc[n-]2)n1CCO (3D coordinates assigned)
O=c1c2ccccc2nc(/C=C/c2cnc[n-]2)n1CCO (optimized conformer: 72.8932974027173 kcal/mol)

>  <smiles>  (64) 
O=c1c2ccccc2nc(/C=C/c2cnc[nH]2)n1CCO

>  <score_type>  (64) 
oracle

>  <origin>  (64) 
autodockgpu

>  <m_score__min__energy>  (64) 
-6.7699999999999996

>  <m_primary>  (64) 
energy

>  <meeko>  (64) 
{"free_energy": -6.77, "intermolecular_energy": -8.56, "internal_energy": -1.31, "cluster_size": 17, "cluster_id": 1, "rank_in_cluster": 3}

>  <energy>  (64) 
-6.77

>  <cluster_rmsd>  (64) 
0.03

>  <rmsd>  (64) 
269.13

>  <cluster>  (64) 
1

$$$$
XPOQFKNVEIIJJE-WMQPJQOXNA-M
     RDKit          3D

 34 36  0  0  0  0  0  0  0  0999 V2000
  139.7840   73.3380  223.5160 H   0  0  0  0  0  0  0  0  0  0  0  0
  140.2440   73.0850  222.6740 O   0  0  0  0  0  0  0  0  0  0  0  0
  139.7500   71.8230  222.3250 C   0  0  0  0  0  0  0  0  0  0  0  0
  140.5242   71.0660  222.5188 H   0  0  0  0  0  0  0  0  0  0  0  0
  139.4822   71.8308  221.2581 H   0  0  0  0  0  0  0  0  0  0  0  0
  138.5000   71.4850  223.1440 C   0  0  0  0  0  0  0  0  0  0  0  0
  137.7389   71.0562  222.4755 H   0  0  0  0  0  0  0  0  0  0  0  0
  138.1311   72.4098  223.6117 H   0  0  0  0  0  0  0  0  0  0  0  0
  138.8060   70.5080  224.2170 N   0  0  0  0  0  0  0  0  0  0  0  0
  138.1750   69.2780  224.2930 C   0  0  0  0  0  0  0  0  0  0  0  0
  137.1580   68.8280  223.2960 C   0  0  0  0  0  0  0  0  0  0  0  0
  137.4713   68.1593  222.4807 H   0  0  0  0  0  0  0  0  0  0  0  0
  135.8720   69.2140  223.3630 C   0  0  0  0  0  0  0  0  0  0  0  0
  135.4540   69.7873  222.5224 H   0  0  0  0  0  0  0  0  0  0  0  0
  134.9930   68.9070  224.5080 C   0  0  0  0  0  0  0  0  0  0  0  0
  134.2980   67.7580  224.6010 N   0  0  0  0  0  0  0  0  0  0  0  0
  133.6780   67.8480  225.7960 C   0  0  0  0  0  0  0  0  0  0  0  0
  133.0164   67.0630  226.1911 H   0  0  0  0  0  0  0  0  0  0  0  0
  133.9460   68.9930  226.4620 N   0  0  0  0  0  0  0  0  0  0  0  0
  134.7810   69.6600  225.6470 C   0  0  0  0  0  0  0  0  0  0  0  0
  135.2239   70.6456  225.8533 H   0  0  0  0  0  0  0  0  0  0  0  0
  138.4740   68.4310  225.3170 N   0  0  0  0  0  0  0  0  0  0  0  0
  139.3850   68.7370  226.2680 C   0  0  0  0  0  0  0  0  0  0  0  0
  139.6410   67.8340  227.3090 C   0  0  0  0  0  0  0  0  0  0  0  0
  139.0900   66.8834  227.3615 H   0  0  0  0  0  0  0  0  0  0  0  0
  140.5970   68.1430  228.2800 C   0  0  0  0  0  0  0  0  0  0  0  0
  140.8026   67.4325  229.0942 H   0  0  0  0  0  0  0  0  0  0  0  0
  141.2930   69.3550  228.2180 C   0  0  0  0  0  0  0  0  0  0  0  0
  142.0469   69.5943  228.9825 H   0  0  0  0  0  0  0  0  0  0  0  0
  141.0330   70.2630  227.1870 C   0  0  0  0  0  0  0  0  0  0  0  0
  141.5767   71.2184  227.1466 H   0  0  0  0  0  0  0  0  0  0  0  0
  140.0750   69.9560  226.1990 C   0  0  0  0  0  0  0  0  0  0  0  0
  139.7700   70.8340  225.1460 C   0  0  0  0  0  0  0  0  0  0  0  0
  140.3870   71.9350  225.0650 O   0  0  0  0  0  0  0  0  0  0  0  0
  1  2  1  0
  2  3  1  0
  3  4  1  0
  3  5  1  0
  3  6  1  0
  6  7  1  0
  6  8  1  0
  6  9  1  0
  9 10  1  0
 10 11  1  0
 11 12  1  0
 11 13  2  0
 13 14  1  0
 13 15  1  0
 15 16  1  0
 16 17  1  0
 17 18  1  0
 17 19  2  0
 19 20  1  0
 20 21  1  0
 10 22  2  0
 22 23  1  0
 23 24  2  0
 24 25  1  0
 24 26  1  0
 26 27  1  0
 26 28  2  0
 28 29  1  0
 28 30  1  0
 30 31  1  0
 30 32  2  0
 32 33  1  0
 33 34  2  0
 33  9  1  0
 20 15  2  0
 32 23  1  0
M  CHG  1  16  -1
M  END
>  <UniqueID>  (65) 
403

>  <SMILES>  (65) 
O=c1c2ccccc2nc(/C=C/c2cnc[n-]2)n1CCO

>  <Energy>  (65) 
72.8932974027173

>  <Genealogy>  (65) 
O=c1c2ccccc2nc(/C=C/c2cnc[n-]2)n1CCO (protonated)
O=c1c2ccccc2nc(/C=C/c2cnc[n-]2)n1CCO (cis-trans isomerization)
O=c1c2ccccc2nc(/C=C/c2cnc[n-]2)n1CCO (3D coordinates assigned)
O=c1c2ccccc2nc(/C=C/c2cnc[n-]2)n1CCO (optimized conformer: 72.8932974027173 kcal/mol)

>  <smiles>  (65) 
O=c1c2ccccc2nc(/C=C/c2cnc[nH]2)n1CCO

>  <score_type>  (65) 
oracle

>  <origin>  (65) 
autodockgpu

>  <m_score__min__energy>  (65) 
-6.7699999999999996

>  <m_primary>  (65) 
energy

>  <meeko>  (65) 
{"free_energy": -6.76, "intermolecular_energy": -8.55, "internal_energy": -1.31, "cluster_size": 17, "cluster_id": 1, "rank_in_cluster": 10}

>  <energy>  (65) 
-6.77

>  <cluster_rmsd>  (65) 
0.03

>  <rmsd>  (65) 
269.09

>  <cluster>  (65) 
1

$$$$
XPOQFKNVEIIJJE-WMQPJQOXNA-M
     RDKit          3D

 34 36  0  0  0  0  0  0  0  0999 V2000
  139.8120   73.3290  223.6130 H   0  0  0  0  0  0  0  0  0  0  0  0
  139.5980   73.2160  222.6510 O   0  0  0  0  0  0  0  0  0  0  0  0
  138.6740   72.1680  222.5780 C   0  0  0  0  0  0  0  0  0  0  0  0
  137.9974   72.3417  221.7282 H   0  0  0  0  0  0  0  0  0  0  0  0
  138.1044   72.1326  223.5184 H   0  0  0  0  0  0  0  0  0  0  0  0
  139.3900   70.8270  222.3850 C   0  0  0  0  0  0  0  0  0  0  0  0
  140.4125   71.0151  222.0256 H   0  0  0  0  0  0  0  0  0  0  0  0
  138.8234   70.2330  221.6528 H   0  0  0  0  0  0  0  0  0  0  0  0
  139.4570   70.0640  223.6560 N   0  0  0  0  0  0  0  0  0  0  0  0
  138.8150   68.8480  223.8170 C   0  0  0  0  0  0  0  0  0  0  0  0
  138.0280   68.1980  222.7280 C   0  0  0  0  0  0  0  0  0  0  0  0
  138.5522   67.5624  221.9992 H   0  0  0  0  0  0  0  0  0  0  0  0
  136.7000   68.3640  222.6090 C   0  0  0  0  0  0  0  0  0  0  0  0
  136.2215   68.0834  221.6591 H   0  0  0  0  0  0  0  0  0  0  0  0
  135.8510   68.9040  223.6890 C   0  0  0  0  0  0  0  0  0  0  0  0
  134.8320   68.2090  224.2260 N   0  0  0  0  0  0  0  0  0  0  0  0
  134.3590   69.0220  225.1950 C   0  0  0  0  0  0  0  0  0  0  0  0
  133.5092   68.7565  225.8410 H   0  0  0  0  0  0  0  0  0  0  0  0
  135.0270   70.1920  225.2970 N   0  0  0  0  0  0  0  0  0  0  0  0
  135.9740   70.1140  224.3440 C   0  0  0  0  0  0  0  0  0  0  0  0
  136.7239   70.8878  224.1227 H   0  0  0  0  0  0  0  0  0  0  0  0
  138.8860   68.2050  225.0160 N   0  0  0  0  0  0  0  0  0  0  0  0
  139.5780   68.7030  226.0660 C   0  0  0  0  0  0  0  0  0  0  0  0
  139.6020   68.0070  227.2830 C   0  0  0  0  0  0  0  0  0  0  0  0
  139.0450   67.0644  227.3894 H   0  0  0  0  0  0  0  0  0  0  0  0
  140.3340   68.5120  228.3600 C   0  0  0  0  0  0  0  0  0  0  0  0
  140.3586   67.9633  229.3131 H   0  0  0  0  0  0  0  0  0  0  0  0
  141.0360   69.7150  228.2280 C   0  0  0  0  0  0  0  0  0  0  0  0
  141.6139   70.1088  229.0771 H   0  0  0  0  0  0  0  0  0  0  0  0
  141.0050   70.4180  227.0200 C   0  0  0  0  0  0  0  0  0  0  0  0
  141.5514   71.3678  226.9233 H   0  0  0  0  0  0  0  0  0  0  0  0
  140.2750   69.9120  225.9260 C   0  0  0  0  0  0  0  0  0  0  0  0
  140.2050   70.5800  224.6910 C   0  0  0  0  0  0  0  0  0  0  0  0
  140.8320   71.6680  224.5440 O   0  0  0  0  0  0  0  0  0  0  0  0
  1  2  1  0
  2  3  1  0
  3  4  1  0
  3  5  1  0
  3  6  1  0
  6  7  1  0
  6  8  1  0
  6  9  1  0
  9 10  1  0
 10 11  1  0
 11 12  1  0
 11 13  2  0
 13 14  1  0
 13 15  1  0
 15 16  1  0
 16 17  1  0
 17 18  1  0
 17 19  2  0
 19 20  1  0
 20 21  1  0
 10 22  2  0
 22 23  1  0
 23 24  2  0
 24 25  1  0
 24 26  1  0
 26 27  1  0
 26 28  2  0
 28 29  1  0
 28 30  1  0
 30 31  1  0
 30 32  2  0
 32 33  1  0
 33 34  2  0
 33  9  1  0
 20 15  2  0
 32 23  1  0
M  CHG  1  16  -1
M  END
>  <UniqueID>  (66) 
403

>  <SMILES>  (66) 
O=c1c2ccccc2nc(/C=C/c2cnc[n-]2)n1CCO

>  <Energy>  (66) 
72.8932974027173

>  <Genealogy>  (66) 
O=c1c2ccccc2nc(/C=C/c2cnc[n-]2)n1CCO (protonated)
O=c1c2ccccc2nc(/C=C/c2cnc[n-]2)n1CCO (cis-trans isomerization)
O=c1c2ccccc2nc(/C=C/c2cnc[n-]2)n1CCO (3D coordinates assigned)
O=c1c2ccccc2nc(/C=C/c2cnc[n-]2)n1CCO (optimized conformer: 72.8932974027173 kcal/mol)

>  <smiles>  (66) 
O=c1c2ccccc2nc(/C=C/c2cnc[nH]2)n1CCO

>  <score_type>  (66) 
oracle

>  <origin>  (66) 
autodockgpu

>  <m_score__min__energy>  (66) 
-6.7699999999999996

>  <m_primary>  (66) 
energy

>  <meeko>  (66) 
{"free_energy": -5.94, "intermolecular_energy": -7.73, "internal_energy": -1.54, "cluster_size": 17, "cluster_id": 1, "rank_in_cluster": 16}

>  <energy>  (66) 
-6.77

>  <cluster_rmsd>  (66) 
0.03

>  <rmsd>  (66) 
269.11

>  <cluster>  (66) 
1

$$$$
XPOQFKNVEIIJJE-WMQPJQOXNA-M
     RDKit          3D

 34 36  0  0  0  0  0  0  0  0999 V2000
  139.8260   73.3630  223.5120 H   0  0  0  0  0  0  0  0  0  0  0  0
  140.2180   73.1450  222.6270 O   0  0  0  0  0  0  0  0  0  0  0  0
  139.7870   71.8500  222.3180 C   0  0  0  0  0  0  0  0  0  0  0  0
  140.5827   71.1342  222.5718 H   0  0  0  0  0  0  0  0  0  0  0  0
  139.5580   71.8000  221.2433 H   0  0  0  0  0  0  0  0  0  0  0  0
  138.5220   71.4980  223.1090 C   0  0  0  0  0  0  0  0  0  0  0  0
  137.7785   71.0666  222.4226 H   0  0  0  0  0  0  0  0  0  0  0  0
  138.1354   72.4173  223.5732 H   0  0  0  0  0  0  0  0  0  0  0  0
  138.8140   70.5180  224.1830 N   0  0  0  0  0  0  0  0  0  0  0  0
  138.1650   69.2980  224.2610 C   0  0  0  0  0  0  0  0  0  0  0  0
  137.1420   68.8610  223.2650 C   0  0  0  0  0  0  0  0  0  0  0  0
  137.4511   68.2059  222.4372 H   0  0  0  0  0  0  0  0  0  0  0  0
  135.8560   69.2420  223.3470 C   0  0  0  0  0  0  0  0  0  0  0  0
  135.4318   69.8302  222.5199 H   0  0  0  0  0  0  0  0  0  0  0  0
  134.9840   68.9110  224.4910 C   0  0  0  0  0  0  0  0  0  0  0  0
  134.2930   67.7590  224.5660 N   0  0  0  0  0  0  0  0  0  0  0  0
  133.6800   67.8260  225.7670 C   0  0  0  0  0  0  0  0  0  0  0  0
  133.0227   67.0322  226.1515 H   0  0  0  0  0  0  0  0  0  0  0  0
  133.9490   68.9590  226.4530 N   0  0  0  0  0  0  0  0  0  0  0  0
  134.7780   69.6430  225.6450 C   0  0  0  0  0  0  0  0  0  0  0  0
  135.2203   70.6255  225.8665 H   0  0  0  0  0  0  0  0  0  0  0  0
  138.4510   68.4490  225.2870 N   0  0  0  0  0  0  0  0  0  0  0  0
  139.3660   68.7440  226.2380 C   0  0  0  0  0  0  0  0  0  0  0  0
  139.6080   67.8390  227.2820 C   0  0  0  0  0  0  0  0  0  0  0  0
  139.0433   66.8966  227.3363 H   0  0  0  0  0  0  0  0  0  0  0  0
  140.5680   68.1370  228.2530 C   0  0  0  0  0  0  0  0  0  0  0  0
  140.7629   67.4255  229.0690 H   0  0  0  0  0  0  0  0  0  0  0  0
  141.2810   69.3380  228.1890 C   0  0  0  0  0  0  0  0  0  0  0  0
  142.0375   69.5681  228.9537 H   0  0  0  0  0  0  0  0  0  0  0  0
  141.0350   70.2480  227.1550 C   0  0  0  0  0  0  0  0  0  0  0  0
  141.5931   71.1949  227.1123 H   0  0  0  0  0  0  0  0  0  0  0  0
  140.0730   69.9530  226.1680 C   0  0  0  0  0  0  0  0  0  0  0  0
  139.7810   70.8330  225.1120 C   0  0  0  0  0  0  0  0  0  0  0  0
  140.4140   71.9250  225.0290 O   0  0  0  0  0  0  0  0  0  0  0  0
  1  2  1  0
  2  3  1  0
  3  4  1  0
  3  5  1  0
  3  6  1  0
  6  7  1  0
  6  8  1  0
  6  9  1  0
  9 10  1  0
 10 11  1  0
 11 12  1  0
 11 13  2  0
 13 14  1  0
 13 15  1  0
 15 16  1  0
 16 17  1  0
 17 18  1  0
 17 19  2  0
 19 20  1  0
 20 21  1  0
 10 22  2  0
 22 23  1  0
 23 24  2  0
 24 25  1  0
 24 26  1  0
 26 27  1  0
 26 28  2  0
 28 29  1  0
 28 30  1  0
 30 31  1  0
 30 32  2  0
 32 33  1  0
 33 34  2  0
 33  9  1  0
 20 15  2  0
 32 23  1  0
M  CHG  1  16  -1
M  END
>  <UniqueID>  (67) 
403

>  <SMILES>  (67) 
O=c1c2ccccc2nc(/C=C/c2cnc[n-]2)n1CCO

>  <Energy>  (67) 
72.8932974027173

>  <Genealogy>  (67) 
O=c1c2ccccc2nc(/C=C/c2cnc[n-]2)n1CCO (protonated)
O=c1c2ccccc2nc(/C=C/c2cnc[n-]2)n1CCO (cis-trans isomerization)
O=c1c2ccccc2nc(/C=C/c2cnc[n-]2)n1CCO (3D coordinates assigned)
O=c1c2ccccc2nc(/C=C/c2cnc[n-]2)n1CCO (optimized conformer: 72.8932974027173 kcal/mol)

>  <smiles>  (67) 
O=c1c2ccccc2nc(/C=C/c2cnc[nH]2)n1CCO

>  <score_type>  (67) 
oracle

>  <origin>  (67) 
autodockgpu

>  <m_score__min__energy>  (67) 
-6.7699999999999996

>  <m_primary>  (67) 
energy

>  <meeko>  (67) 
{"free_energy": -6.77, "intermolecular_energy": -8.56, "internal_energy": -1.3, "cluster_size": 17, "cluster_id": 1, "rank_in_cluster": 1}

>  <energy>  (67) 
-6.77

>  <cluster_rmsd>  (67) 
0.05

>  <rmsd>  (67) 
269.14

>  <cluster>  (67) 
1

$$$$
XPOQFKNVEIIJJE-WMQPJQOXNA-M
     RDKit          3D

 34 36  0  0  0  0  0  0  0  0999 V2000
  139.7840   73.3470  223.5180 H   0  0  0  0  0  0  0  0  0  0  0  0
  140.1970   73.1250  222.6440 O   0  0  0  0  0  0  0  0  0  0  0  0
  139.7480   71.8400  222.3170 C   0  0  0  0  0  0  0  0  0  0  0  0
  140.5410   71.1119  222.5429 H   0  0  0  0  0  0  0  0  0  0  0  0
  139.5001   71.8137  221.2456 H   0  0  0  0  0  0  0  0  0  0  0  0
  138.4940   71.4840  223.1220 C   0  0  0  0  0  0  0  0  0  0  0  0
  137.7453   71.0477  222.4444 H   0  0  0  0  0  0  0  0  0  0  0  0
  138.1088   72.4027  223.5885 H   0  0  0  0  0  0  0  0  0  0  0  0
  138.8010   70.5080  224.1950 N   0  0  0  0  0  0  0  0  0  0  0  0
  138.1640   69.2810  224.2780 C   0  0  0  0  0  0  0  0  0  0  0  0
  137.1400   68.8340  223.2880 C   0  0  0  0  0  0  0  0  0  0  0  0
  137.4470   68.1675  222.4685 H   0  0  0  0  0  0  0  0  0  0  0  0
  135.8550   69.2200  223.3660 C   0  0  0  0  0  0  0  0  0  0  0  0
  135.4333   69.8024  222.5336 H   0  0  0  0  0  0  0  0  0  0  0  0
  134.9810   68.9020  224.5120 C   0  0  0  0  0  0  0  0  0  0  0  0
  134.2940   67.7490  224.6020 N   0  0  0  0  0  0  0  0  0  0  0  0
  133.6770   67.8300  225.8000 C   0  0  0  0  0  0  0  0  0  0  0  0
  133.0210   67.0396  226.1936 H   0  0  0  0  0  0  0  0  0  0  0  0
  133.9410   68.9730  226.4700 N   0  0  0  0  0  0  0  0  0  0  0  0
  134.7690   69.6490  225.6550 C   0  0  0  0  0  0  0  0  0  0  0  0
  135.2067   70.6363  225.8640 H   0  0  0  0  0  0  0  0  0  0  0  0
  138.4650   68.4360  225.3020 N   0  0  0  0  0  0  0  0  0  0  0  0
  139.3830   68.7390  226.2470 C   0  0  0  0  0  0  0  0  0  0  0  0
  139.6400   67.8380  227.2900 C   0  0  0  0  0  0  0  0  0  0  0  0
  139.0843   66.8905  227.3486 H   0  0  0  0  0  0  0  0  0  0  0  0
  140.6030   68.1450  228.2550 C   0  0  0  0  0  0  0  0  0  0  0  0
  140.8096   67.4356  229.0699 H   0  0  0  0  0  0  0  0  0  0  0  0
  141.3050   69.3540  228.1860 C   0  0  0  0  0  0  0  0  0  0  0  0
  142.0642   69.5921  228.9456 H   0  0  0  0  0  0  0  0  0  0  0  0
  141.0430   70.2600  227.1530 C   0  0  0  0  0  0  0  0  0  0  0  0
  141.5909   71.2127  227.1065 H   0  0  0  0  0  0  0  0  0  0  0  0
  140.0790   69.9550  226.1720 C   0  0  0  0  0  0  0  0  0  0  0  0
  139.7710   70.8320  225.1180 C   0  0  0  0  0  0  0  0  0  0  0  0
  140.3930   71.9300  225.0300 O   0  0  0  0  0  0  0  0  0  0  0  0
  1  2  1  0
  2  3  1  0
  3  4  1  0
  3  5  1  0
  3  6  1  0
  6  7  1  0
  6  8  1  0
  6  9  1  0
  9 10  1  0
 10 11  1  0
 11 12  1  0
 11 13  2  0
 13 14  1  0
 13 15  1  0
 15 16  1  0
 16 17  1  0
 17 18  1  0
 17 19  2  0
 19 20  1  0
 20 21  1  0
 10 22  2  0
 22 23  1  0
 23 24  2  0
 24 25  1  0
 24 26  1  0
 26 27  1  0
 26 28  2  0
 28 29  1  0
 28 30  1  0
 30 31  1  0
 30 32  2  0
 32 33  1  0
 33 34  2  0
 33  9  1  0
 20 15  2  0
 32 23  1  0
M  CHG  1  16  -1
M  END
>  <UniqueID>  (68) 
403

>  <SMILES>  (68) 
O=c1c2ccccc2nc(/C=C/c2cnc[n-]2)n1CCO

>  <Energy>  (68) 
72.8932974027173

>  <Genealogy>  (68) 
O=c1c2ccccc2nc(/C=C/c2cnc[n-]2)n1CCO (protonated)
O=c1c2ccccc2nc(/C=C/c2cnc[n-]2)n1CCO (cis-trans isomerization)
O=c1c2ccccc2nc(/C=C/c2cnc[n-]2)n1CCO (3D coordinates assigned)
O=c1c2ccccc2nc(/C=C/c2cnc[n-]2)n1CCO (optimized conformer: 72.8932974027173 kcal/mol)

>  <smiles>  (68) 
O=c1c2ccccc2nc(/C=C/c2cnc[nH]2)n1CCO

>  <score_type>  (68) 
oracle

>  <origin>  (68) 
autodockgpu

>  <m_score__min__energy>  (68) 
-6.7699999999999996

>  <m_primary>  (68) 
energy

>  <meeko>  (68) 
{"free_energy": -6.77, "intermolecular_energy": -8.56, "internal_energy": -1.31, "cluster_size": 17, "cluster_id": 1, "rank_in_cluster": 6}

>  <energy>  (68) 
-6.76

>  <cluster_rmsd>  (68) 
0.05

>  <rmsd>  (68) 
269.09

>  <cluster>  (68) 
1

$$$$
XPOQFKNVEIIJJE-WMQPJQOXNA-M
     RDKit          3D

 34 36  0  0  0  0  0  0  0  0999 V2000
  139.7950   73.3760  223.5830 H   0  0  0  0  0  0  0  0  0  0  0  0
  139.5740   73.2460  222.6250 O   0  0  0  0  0  0  0  0  0  0  0  0
  138.6320   72.2120  222.5790 C   0  0  0  0  0  0  0  0  0  0  0  0
  137.9380   72.3929  221.7450 H   0  0  0  0  0  0  0  0  0  0  0  0
  138.0853   72.1896  223.5332 H   0  0  0  0  0  0  0  0  0  0  0  0
  139.3210   70.8590  222.3750 C   0  0  0  0  0  0  0  0  0  0  0  0
  140.3390   71.0290  221.9944 H   0  0  0  0  0  0  0  0  0  0  0  0
  138.7296   70.2730  221.6560 H   0  0  0  0  0  0  0  0  0  0  0  0
  139.4010   70.0980  223.6460 N   0  0  0  0  0  0  0  0  0  0  0  0
  138.7560   68.8850  223.8180 C   0  0  0  0  0  0  0  0  0  0  0  0
  137.9530   68.2360  222.7400 C   0  0  0  0  0  0  0  0  0  0  0  0
  138.4617   67.5789  222.0193 H   0  0  0  0  0  0  0  0  0  0  0  0
  136.6280   68.4290  222.6220 C   0  0  0  0  0  0  0  0  0  0  0  0
  136.1544   68.2225  221.6509 H   0  0  0  0  0  0  0  0  0  0  0  0
  135.7770   68.9040  223.7300 C   0  0  0  0  0  0  0  0  0  0  0  0
  134.7680   68.1710  224.2350 N   0  0  0  0  0  0  0  0  0  0  0  0
  134.2890   68.9280  225.2450 C   0  0  0  0  0  0  0  0  0  0  0  0
  133.4448   68.6198  225.8793 H   0  0  0  0  0  0  0  0  0  0  0  0
  134.9430   70.0990  225.4040 N   0  0  0  0  0  0  0  0  0  0  0  0
  135.8870   70.0810  224.4460 C   0  0  0  0  0  0  0  0  0  0  0  0
  136.6265   70.8743  224.2622 H   0  0  0  0  0  0  0  0  0  0  0  0
  138.8400   68.2440  225.0170 N   0  0  0  0  0  0  0  0  0  0  0  0
  139.5480   68.7400  226.0570 C   0  0  0  0  0  0  0  0  0  0  0  0
  139.5860   68.0460  227.2740 C   0  0  0  0  0  0  0  0  0  0  0  0
  139.0274   67.1054  227.3890 H   0  0  0  0  0  0  0  0  0  0  0  0
  140.3340   68.5500  228.3410 C   0  0  0  0  0  0  0  0  0  0  0  0
  140.3693   68.0025  229.2944 H   0  0  0  0  0  0  0  0  0  0  0  0
  141.0380   69.7500  228.1980 C   0  0  0  0  0  0  0  0  0  0  0  0
  141.6274   70.1435  229.0393 H   0  0  0  0  0  0  0  0  0  0  0  0
  140.9950   70.4510  226.9890 C   0  0  0  0  0  0  0  0  0  0  0  0
  141.5443   71.3982  226.8837 H   0  0  0  0  0  0  0  0  0  0  0  0
  140.2490   69.9460  225.9050 C   0  0  0  0  0  0  0  0  0  0  0  0
  140.1650   70.6130  224.6710 C   0  0  0  0  0  0  0  0  0  0  0  0
  140.7950   71.6980  224.5140 O   0  0  0  0  0  0  0  0  0  0  0  0
  1  2  1  0
  2  3  1  0
  3  4  1  0
  3  5  1  0
  3  6  1  0
  6  7  1  0
  6  8  1  0
  6  9  1  0
  9 10  1  0
 10 11  1  0
 11 12  1  0
 11 13  2  0
 13 14  1  0
 13 15  1  0
 15 16  1  0
 16 17  1  0
 17 18  1  0
 17 19  2  0
 19 20  1  0
 20 21  1  0
 10 22  2  0
 22 23  1  0
 23 24  2  0
 24 25  1  0
 24 26  1  0
 26 27  1  0
 26 28  2  0
 28 29  1  0
 28 30  1  0
 30 31  1  0
 30 32  2  0
 32 33  1  0
 33 34  2  0
 33  9  1  0
 20 15  2  0
 32 23  1  0
M  CHG  1  16  -1
M  END
>  <UniqueID>  (69) 
403

>  <SMILES>  (69) 
O=c1c2ccccc2nc(/C=C/c2cnc[n-]2)n1CCO

>  <Energy>  (69) 
72.8932974027173

>  <Genealogy>  (69) 
O=c1c2ccccc2nc(/C=C/c2cnc[n-]2)n1CCO (protonated)
O=c1c2ccccc2nc(/C=C/c2cnc[n-]2)n1CCO (cis-trans isomerization)
O=c1c2ccccc2nc(/C=C/c2cnc[n-]2)n1CCO (3D coordinates assigned)
O=c1c2ccccc2nc(/C=C/c2cnc[n-]2)n1CCO (optimized conformer: 72.8932974027173 kcal/mol)

>  <smiles>  (69) 
O=c1c2ccccc2nc(/C=C/c2cnc[nH]2)n1CCO

>  <score_type>  (69) 
oracle

>  <origin>  (69) 
autodockgpu

>  <m_score__min__energy>  (69) 
-6.7699999999999996

>  <m_primary>  (69) 
energy

>  <meeko>  (69) 
{"free_energy": -5.96, "intermolecular_energy": -7.75, "internal_energy": -1.53, "cluster_size": 17, "cluster_id": 1, "rank_in_cluster": 14}

>  <energy>  (69) 
-6.76

>  <cluster_rmsd>  (69) 
0.06

>  <rmsd>  (69) 
269.1

>  <cluster>  (69) 
1

$$$$
XPOQFKNVEIIJJE-WMQPJQOXNA-M
     RDKit          3D

 34 36  0  0  0  0  0  0  0  0999 V2000
  137.2860   68.3790  224.5900 H   0  0  0  0  0  0  0  0  0  0  0  0
  136.7780   68.9090  223.9210 O   0  0  0  0  0  0  0  0  0  0  0  0
  137.2980   68.5570  222.6710 C   0  0  0  0  0  0  0  0  0  0  0  0
  136.9713   69.2948  221.9234 H   0  0  0  0  0  0  0  0  0  0  0  0
  136.9304   67.5550  222.4049 H   0  0  0  0  0  0  0  0  0  0  0  0
  138.8290   68.5250  222.7100 C   0  0  0  0  0  0  0  0  0  0  0  0
  139.2191   68.8444  221.7324 H   0  0  0  0  0  0  0  0  0  0  0  0
  139.1491   67.4981  222.9401 H   0  0  0  0  0  0  0  0  0  0  0  0
  139.3600   69.4270  223.7600 N   0  0  0  0  0  0  0  0  0  0  0  0
  139.6650   70.7540  223.5050 C   0  0  0  0  0  0  0  0  0  0  0  0
  139.4640   71.3860  222.1670 C   0  0  0  0  0  0  0  0  0  0  0  0
  139.9331   70.9261  221.2847 H   0  0  0  0  0  0  0  0  0  0  0  0
  138.7280   72.4990  222.0070 C   0  0  0  0  0  0  0  0  0  0  0  0
  137.6401   72.3923  221.8839 H   0  0  0  0  0  0  0  0  0  0  0  0
  139.3050   73.8570  221.9880 C   0  0  0  0  0  0  0  0  0  0  0  0
  140.6320   74.0810  221.9720 N   0  0  0  0  0  0  0  0  0  0  0  0
  140.7340   75.4250  221.9040 C   0  0  0  0  0  0  0  0  0  0  0  0
  141.6979   75.9541  221.8749 H   0  0  0  0  0  0  0  0  0  0  0  0
  139.5420   76.0600  221.8750 N   0  0  0  0  0  0  0  0  0  0  0  0
  138.6380   75.0660  221.9250 C   0  0  0  0  0  0  0  0  0  0  0  0
  137.5455   75.1941  221.9171 H   0  0  0  0  0  0  0  0  0  0  0  0
  140.1780   71.5280  224.5010 N   0  0  0  0  0  0  0  0  0  0  0  0
  140.3920   71.0570  225.7500 C   0  0  0  0  0  0  0  0  0  0  0  0
  140.9390   71.8940  226.7310 C   0  0  0  0  0  0  0  0  0  0  0  0
  141.2094   72.9307  226.4816 H   0  0  0  0  0  0  0  0  0  0  0  0
  141.1410   71.4110  228.0270 C   0  0  0  0  0  0  0  0  0  0  0  0
  141.5643   72.0698  228.7995 H   0  0  0  0  0  0  0  0  0  0  0  0
  140.8050   70.0900  228.3420 C   0  0  0  0  0  0  0  0  0  0  0  0
  140.9630   69.7126  229.3631 H   0  0  0  0  0  0  0  0  0  0  0  0
  140.2690   69.2480  227.3630 C   0  0  0  0  0  0  0  0  0  0  0  0
  140.0132   68.2079  227.6133 H   0  0  0  0  0  0  0  0  0  0  0  0
  140.0560   69.7300  226.0560 C   0  0  0  0  0  0  0  0  0  0  0  0
  139.5270   68.9250  225.0320 C   0  0  0  0  0  0  0  0  0  0  0  0
  139.2120   67.7280  225.2920 O   0  0  0  0  0  0  0  0  0  0  0  0
  1  2  1  0
  2  3  1  0
  3  4  1  0
  3  5  1  0
  3  6  1  0
  6  7  1  0
  6  8  1  0
  6  9  1  0
  9 10  1  0
 10 11  1  0
 11 12  1  0
 11 13  2  0
 13 14  1  0
 13 15  1  0
 15 16  1  0
 16 17  1  0
 17 18  1  0
 17 19  2  0
 19 20  1  0
 20 21  1  0
 10 22  2  0
 22 23  1  0
 23 24  2  0
 24 25  1  0
 24 26  1  0
 26 27  1  0
 26 28  2  0
 28 29  1  0
 28 30  1  0
 30 31  1  0
 30 32  2  0
 32 33  1  0
 33 34  2  0
 33  9  1  0
 20 15  2  0
 32 23  1  0
M  CHG  1  16  -1
M  END
>  <UniqueID>  (70) 
403

>  <SMILES>  (70) 
O=c1c2ccccc2nc(/C=C/c2cnc[n-]2)n1CCO

>  <Energy>  (70) 
72.8932974027173

>  <Genealogy>  (70) 
O=c1c2ccccc2nc(/C=C/c2cnc[n-]2)n1CCO (protonated)
O=c1c2ccccc2nc(/C=C/c2cnc[n-]2)n1CCO (cis-trans isomerization)
O=c1c2ccccc2nc(/C=C/c2cnc[n-]2)n1CCO (3D coordinates assigned)
O=c1c2ccccc2nc(/C=C/c2cnc[n-]2)n1CCO (optimized conformer: 72.8932974027173 kcal/mol)

>  <smiles>  (70) 
O=c1c2ccccc2nc(/C=C/c2cnc[nH]2)n1CCO

>  <score_type>  (70) 
oracle

>  <origin>  (70) 
autodockgpu

>  <m_score__min__energy>  (70) 
-6.7699999999999996

>  <m_primary>  (70) 
energy

>  <meeko>  (70) 
{"free_energy": -5.89, "intermolecular_energy": -7.68, "internal_energy": -1.38, "cluster_size": 2, "cluster_id": 2, "rank_in_cluster": 2}

>  <energy>  (70) 
-6.76

>  <cluster_rmsd>  (70) 
0.04

>  <rmsd>  (70) 
269.13

>  <cluster>  (70) 
1

$$$$
XPOQFKNVEIIJJE-WMQPJQOXNA-M
     RDKit          3D

 34 36  0  0  0  0  0  0  0  0999 V2000
  139.7870   73.3650  223.5240 H   0  0  0  0  0  0  0  0  0  0  0  0
  140.1900   73.1440  222.6440 O   0  0  0  0  0  0  0  0  0  0  0  0
  139.7610   71.8490  222.3340 C   0  0  0  0  0  0  0  0  0  0  0  0
  140.5635   71.1358  222.5733 H   0  0  0  0  0  0  0  0  0  0  0  0
  139.5176   71.8042  221.2622 H   0  0  0  0  0  0  0  0  0  0  0  0
  138.5090   71.4860  223.1390 C   0  0  0  0  0  0  0  0  0  0  0  0
  137.7623   71.0462  222.4615 H   0  0  0  0  0  0  0  0  0  0  0  0
  138.1187   72.4023  223.6061 H   0  0  0  0  0  0  0  0  0  0  0  0
  138.8220   70.5110  224.2110 N   0  0  0  0  0  0  0  0  0  0  0  0
  138.1920   69.2800  224.2930 C   0  0  0  0  0  0  0  0  0  0  0  0
  137.1710   68.8270  223.3020 C   0  0  0  0  0  0  0  0  0  0  0  0
  137.4800   68.1535  222.4890 H   0  0  0  0  0  0  0  0  0  0  0  0
  135.8870   69.2160  223.3720 C   0  0  0  0  0  0  0  0  0  0  0  0
  135.4719   69.8000  222.5374 H   0  0  0  0  0  0  0  0  0  0  0  0
  135.0050   68.8990  224.5130 C   0  0  0  0  0  0  0  0  0  0  0  0
  134.3230   67.7420  224.6020 N   0  0  0  0  0  0  0  0  0  0  0  0
  133.6960   67.8260  225.7940 C   0  0  0  0  0  0  0  0  0  0  0  0
  133.0415   67.0336  226.1862 H   0  0  0  0  0  0  0  0  0  0  0  0
  133.9470   68.9740  226.4610 N   0  0  0  0  0  0  0  0  0  0  0  0
  134.7790   69.6500  225.6500 C   0  0  0  0  0  0  0  0  0  0  0  0
  135.2099   70.6405  225.8580 H   0  0  0  0  0  0  0  0  0  0  0  0
  138.4980   68.4360  225.3170 N   0  0  0  0  0  0  0  0  0  0  0  0
  139.4140   68.7440  226.2620 C   0  0  0  0  0  0  0  0  0  0  0  0
  139.6760   67.8440  227.3040 C   0  0  0  0  0  0  0  0  0  0  0  0
  139.1260   66.8931  227.3616 H   0  0  0  0  0  0  0  0  0  0  0  0
  140.6370   68.1560  228.2700 C   0  0  0  0  0  0  0  0  0  0  0  0
  140.8478   67.4472  229.0844 H   0  0  0  0  0  0  0  0  0  0  0  0
  141.3310   69.3690  228.2020 C   0  0  0  0  0  0  0  0  0  0  0  0
  142.0885   69.6109  228.9620 H   0  0  0  0  0  0  0  0  0  0  0  0
  141.0640   70.2750  227.1700 C   0  0  0  0  0  0  0  0  0  0  0  0
  141.6056   71.2314  227.1249 H   0  0  0  0  0  0  0  0  0  0  0  0
  140.1020   69.9640  226.1880 C   0  0  0  0  0  0  0  0  0  0  0  0
  139.7900   70.8400  225.1350 C   0  0  0  0  0  0  0  0  0  0  0  0
  140.4050   71.9420  225.0480 O   0  0  0  0  0  0  0  0  0  0  0  0
  1  2  1  0
  2  3  1  0
  3  4  1  0
  3  5  1  0
  3  6  1  0
  6  7  1  0
  6  8  1  0
  6  9  1  0
  9 10  1  0
 10 11  1  0
 11 12  1  0
 11 13  2  0
 13 14  1  0
 13 15  1  0
 15 16  1  0
 16 17  1  0
 17 18  1  0
 17 19  2  0
 19 20  1  0
 20 21  1  0
 10 22  2  0
 22 23  1  0
 23 24  2  0
 24 25  1  0
 24 26  1  0
 26 27  1  0
 26 28  2  0
 28 29  1  0
 28 30  1  0
 30 31  1  0
 30 32  2  0
 32 33  1  0
 33 34  2  0
 33  9  1  0
 20 15  2  0
 32 23  1  0
M  CHG  1  16  -1
M  END
>  <UniqueID>  (71) 
403

>  <SMILES>  (71) 
O=c1c2ccccc2nc(/C=C/c2cnc[n-]2)n1CCO

>  <Energy>  (71) 
72.8932974027173

>  <Genealogy>  (71) 
O=c1c2ccccc2nc(/C=C/c2cnc[n-]2)n1CCO (protonated)
O=c1c2ccccc2nc(/C=C/c2cnc[n-]2)n1CCO (cis-trans isomerization)
O=c1c2ccccc2nc(/C=C/c2cnc[n-]2)n1CCO (3D coordinates assigned)
O=c1c2ccccc2nc(/C=C/c2cnc[n-]2)n1CCO (optimized conformer: 72.8932974027173 kcal/mol)

>  <smiles>  (71) 
O=c1c2ccccc2nc(/C=C/c2cnc[nH]2)n1CCO

>  <score_type>  (71) 
oracle

>  <origin>  (71) 
autodockgpu

>  <m_score__min__energy>  (71) 
-6.7699999999999996

>  <m_primary>  (71) 
energy

>  <meeko>  (71) 
{"free_energy": -6.77, "intermolecular_energy": -8.56, "internal_energy": -1.3, "cluster_size": 17, "cluster_id": 1, "rank_in_cluster": 2}

>  <energy>  (71) 
-6.75

>  <cluster_rmsd>  (71) 
0.11

>  <rmsd>  (71) 
269.08

>  <cluster>  (71) 
1

$$$$
XPOQFKNVEIIJJE-WMQPJQOXNA-M
     RDKit          3D

 34 36  0  0  0  0  0  0  0  0999 V2000
  139.7900   73.3470  223.5230 H   0  0  0  0  0  0  0  0  0  0  0  0
  140.2400   73.1010  222.6730 O   0  0  0  0  0  0  0  0  0  0  0  0
  139.7590   71.8330  222.3310 C   0  0  0  0  0  0  0  0  0  0  0  0
  140.5400   71.0846  222.5310 H   0  0  0  0  0  0  0  0  0  0  0  0
  139.4933   71.8319  221.2636 H   0  0  0  0  0  0  0  0  0  0  0  0
  138.5110   71.4880  223.1490 C   0  0  0  0  0  0  0  0  0  0  0  0
  137.7517   71.0574  222.4796 H   0  0  0  0  0  0  0  0  0  0  0  0
  138.1383   72.4102  223.6187 H   0  0  0  0  0  0  0  0  0  0  0  0
  138.8210   70.5100  224.2200 N   0  0  0  0  0  0  0  0  0  0  0  0
  138.1900   69.2800  224.2980 C   0  0  0  0  0  0  0  0  0  0  0  0
  137.1680   68.8310  223.3060 C   0  0  0  0  0  0  0  0  0  0  0  0
  137.4760   68.1586  222.4918 H   0  0  0  0  0  0  0  0  0  0  0  0
  135.8840   69.2220  223.3760 C   0  0  0  0  0  0  0  0  0  0  0  0
  135.4693   69.8059  222.5411 H   0  0  0  0  0  0  0  0  0  0  0  0
  135.0030   68.9070  224.5170 C   0  0  0  0  0  0  0  0  0  0  0  0
  134.3040   67.7590  224.5980 N   0  0  0  0  0  0  0  0  0  0  0  0
  133.6830   67.8410  225.7940 C   0  0  0  0  0  0  0  0  0  0  0  0
  133.0181   67.0549  226.1812 H   0  0  0  0  0  0  0  0  0  0  0  0
  133.9540   68.9780  226.4710 N   0  0  0  0  0  0  0  0  0  0  0  0
  134.7920   69.6500  225.6620 C   0  0  0  0  0  0  0  0  0  0  0  0
  135.2374   70.6325  225.8773 H   0  0  0  0  0  0  0  0  0  0  0  0
  138.4930   68.4330  225.3210 N   0  0  0  0  0  0  0  0  0  0  0  0
  139.4090   68.7380  226.2680 C   0  0  0  0  0  0  0  0  0  0  0  0
  139.6690   67.8350  227.3080 C   0  0  0  0  0  0  0  0  0  0  0  0
  139.1173   66.8849  227.3631 H   0  0  0  0  0  0  0  0  0  0  0  0
  140.6300   68.1430  228.2750 C   0  0  0  0  0  0  0  0  0  0  0  0
  140.8393   67.4320  229.0878 H   0  0  0  0  0  0  0  0  0  0  0  0
  141.3260   69.3550  228.2100 C   0  0  0  0  0  0  0  0  0  0  0  0
  142.0837   69.5939  228.9709 H   0  0  0  0  0  0  0  0  0  0  0  0
  141.0610   70.2640  227.1800 C   0  0  0  0  0  0  0  0  0  0  0  0
  141.6040   71.2197  227.1378 H   0  0  0  0  0  0  0  0  0  0  0  0
  140.0990   69.9570  226.1960 C   0  0  0  0  0  0  0  0  0  0  0  0
  139.7890   70.8360  225.1450 C   0  0  0  0  0  0  0  0  0  0  0  0
  140.4060   71.9370  225.0610 O   0  0  0  0  0  0  0  0  0  0  0  0
  1  2  1  0
  2  3  1  0
  3  4  1  0
  3  5  1  0
  3  6  1  0
  6  7  1  0
  6  8  1  0
  6  9  1  0
  9 10  1  0
 10 11  1  0
 11 12  1  0
 11 13  2  0
 13 14  1  0
 13 15  1  0
 15 16  1  0
 16 17  1  0
 17 18  1  0
 17 19  2  0
 19 20  1  0
 20 21  1  0
 10 22  2  0
 22 23  1  0
 23 24  2  0
 24 25  1  0
 24 26  1  0
 26 27  1  0
 26 28  2  0
 28 29  1  0
 28 30  1  0
 30 31  1  0
 30 32  2  0
 32 33  1  0
 33 34  2  0
 33  9  1  0
 20 15  2  0
 32 23  1  0
M  CHG  1  16  -1
M  END
>  <UniqueID>  (72) 
403

>  <SMILES>  (72) 
O=c1c2ccccc2nc(/C=C/c2cnc[n-]2)n1CCO

>  <Energy>  (72) 
72.8932974027173

>  <Genealogy>  (72) 
O=c1c2ccccc2nc(/C=C/c2cnc[n-]2)n1CCO (protonated)
O=c1c2ccccc2nc(/C=C/c2cnc[n-]2)n1CCO (cis-trans isomerization)
O=c1c2ccccc2nc(/C=C/c2cnc[n-]2)n1CCO (3D coordinates assigned)
O=c1c2ccccc2nc(/C=C/c2cnc[n-]2)n1CCO (optimized conformer: 72.8932974027173 kcal/mol)

>  <smiles>  (72) 
O=c1c2ccccc2nc(/C=C/c2cnc[nH]2)n1CCO

>  <score_type>  (72) 
oracle

>  <origin>  (72) 
autodockgpu

>  <m_score__min__energy>  (72) 
-6.7699999999999996

>  <m_primary>  (72) 
energy

>  <meeko>  (72) 
{"free_energy": -6.77, "intermolecular_energy": -8.56, "internal_energy": -1.3, "cluster_size": 17, "cluster_id": 1, "rank_in_cluster": 7}

>  <energy>  (72) 
-6.4

>  <cluster_rmsd>  (72) 
0.69

>  <rmsd>  (72) 
269.1

>  <cluster>  (72) 
1

$$$$
XPOQFKNVEIIJJE-WMQPJQOXNA-M
     RDKit          3D

 34 36  0  0  0  0  0  0  0  0999 V2000
  139.8510   73.3580  223.5200 H   0  0  0  0  0  0  0  0  0  0  0  0
  140.2200   73.1410  222.6250 O   0  0  0  0  0  0  0  0  0  0  0  0
  139.7910   71.8420  222.3310 C   0  0  0  0  0  0  0  0  0  0  0  0
  140.5906   71.1311  222.5866 H   0  0  0  0  0  0  0  0  0  0  0  0
  139.5552   71.7817  221.2582 H   0  0  0  0  0  0  0  0  0  0  0  0
  138.5330   71.4930  223.1320 C   0  0  0  0  0  0  0  0  0  0  0  0
  137.7839   71.0611  222.4521 H   0  0  0  0  0  0  0  0  0  0  0  0
  138.1518   72.4138  223.5976 H   0  0  0  0  0  0  0  0  0  0  0  0
  138.8310   70.5150  224.2060 N   0  0  0  0  0  0  0  0  0  0  0  0
  138.1870   69.2920  224.2860 C   0  0  0  0  0  0  0  0  0  0  0  0
  137.1620   68.8510  223.2930 C   0  0  0  0  0  0  0  0  0  0  0  0
  137.4682   68.1883  222.4701 H   0  0  0  0  0  0  0  0  0  0  0  0
  135.8780   69.2380  223.3730 C   0  0  0  0  0  0  0  0  0  0  0  0
  135.4576   69.8275  222.5449 H   0  0  0  0  0  0  0  0  0  0  0  0
  135.0030   68.9120  224.5160 C   0  0  0  0  0  0  0  0  0  0  0  0
  134.3220   67.7550  224.6010 N   0  0  0  0  0  0  0  0  0  0  0  0
  133.7010   67.8290  225.7970 C   0  0  0  0  0  0  0  0  0  0  0  0
  133.0486   67.0336  226.1865 H   0  0  0  0  0  0  0  0  0  0  0  0
  133.9560   68.9720  226.4710 N   0  0  0  0  0  0  0  0  0  0  0  0
  134.7830   69.6550  225.6600 C   0  0  0  0  0  0  0  0  0  0  0  0
  135.2143   70.6443  225.8727 H   0  0  0  0  0  0  0  0  0  0  0  0
  138.4800   68.4440  225.3110 N   0  0  0  0  0  0  0  0  0  0  0  0
  139.3970   68.7410  226.2590 C   0  0  0  0  0  0  0  0  0  0  0  0
  139.6460   67.8380  227.3010 C   0  0  0  0  0  0  0  0  0  0  0  0
  139.0850   66.8934  227.3571 H   0  0  0  0  0  0  0  0  0  0  0  0
  140.6080   68.1390  228.2690 C   0  0  0  0  0  0  0  0  0  0  0  0
  140.8079   67.4284  229.0845 H   0  0  0  0  0  0  0  0  0  0  0  0
  141.3170   69.3430  228.2020 C   0  0  0  0  0  0  0  0  0  0  0  0
  142.0760   69.5754  228.9635 H   0  0  0  0  0  0  0  0  0  0  0  0
  141.0640   70.2520  227.1700 C   0  0  0  0  0  0  0  0  0  0  0  0
  141.6178   71.2014  227.1260 H   0  0  0  0  0  0  0  0  0  0  0  0
  140.1000   69.9530  226.1860 C   0  0  0  0  0  0  0  0  0  0  0  0
  139.8010   70.8320  225.1320 C   0  0  0  0  0  0  0  0  0  0  0  0
  140.4290   71.9270  225.0460 O   0  0  0  0  0  0  0  0  0  0  0  0
  1  2  1  0
  2  3  1  0
  3  4  1  0
  3  5  1  0
  3  6  1  0
  6  7  1  0
  6  8  1  0
  6  9  1  0
  9 10  1  0
 10 11  1  0
 11 12  1  0
 11 13  2  0
 13 14  1  0
 13 15  1  0
 15 16  1  0
 16 17  1  0
 17 18  1  0
 17 19  2  0
 19 20  1  0
 20 21  1  0
 10 22  2  0
 22 23  1  0
 23 24  2  0
 24 25  1  0
 24 26  1  0
 26 27  1  0
 26 28  2  0
 28 29  1  0
 28 30  1  0
 30 31  1  0
 30 32  2  0
 32 33  1  0
 33 34  2  0
 33  9  1  0
 20 15  2  0
 32 23  1  0
M  CHG  1  16  -1
M  END
>  <UniqueID>  (73) 
403

>  <SMILES>  (73) 
O=c1c2ccccc2nc(/C=C/c2cnc[n-]2)n1CCO

>  <Energy>  (73) 
72.8932974027173

>  <Genealogy>  (73) 
O=c1c2ccccc2nc(/C=C/c2cnc[n-]2)n1CCO (protonated)
O=c1c2ccccc2nc(/C=C/c2cnc[n-]2)n1CCO (cis-trans isomerization)
O=c1c2ccccc2nc(/C=C/c2cnc[n-]2)n1CCO (3D coordinates assigned)
O=c1c2ccccc2nc(/C=C/c2cnc[n-]2)n1CCO (optimized conformer: 72.8932974027173 kcal/mol)

>  <smiles>  (73) 
O=c1c2ccccc2nc(/C=C/c2cnc[nH]2)n1CCO

>  <score_type>  (73) 
oracle

>  <origin>  (73) 
autodockgpu

>  <m_score__min__energy>  (73) 
-6.7699999999999996

>  <m_primary>  (73) 
energy

>  <meeko>  (73) 
{"free_energy": -6.77, "intermolecular_energy": -8.56, "internal_energy": -1.31, "cluster_size": 17, "cluster_id": 1, "rank_in_cluster": 4}

>  <energy>  (73) 
-6.31

>  <cluster_rmsd>  (73) 
0.67

>  <rmsd>  (73) 
269.09

>  <cluster>  (73) 
1

$$$$
XPOQFKNVEIIJJE-WMQPJQOXNA-M
     RDKit          3D

 34 36  0  0  0  0  0  0  0  0999 V2000
  136.2290   69.7370  223.7220 H   0  0  0  0  0  0  0  0  0  0  0  0
  136.6730   68.8730  223.9250 O   0  0  0  0  0  0  0  0  0  0  0  0
  137.1520   68.3840  222.7050 C   0  0  0  0  0  0  0  0  0  0  0  0
  136.7274   68.9815  221.8848 H   0  0  0  0  0  0  0  0  0  0  0  0
  136.8526   67.3303  222.6044 H   0  0  0  0  0  0  0  0  0  0  0  0
  138.6800   68.4690  222.6500 C   0  0  0  0  0  0  0  0  0  0  0  0
  138.9791   68.9325  221.6983 H   0  0  0  0  0  0  0  0  0  0  0  0
  139.0877   67.4506  222.7318 H   0  0  0  0  0  0  0  0  0  0  0  0
  139.2150   69.2790  223.7710 N   0  0  0  0  0  0  0  0  0  0  0  0
  139.4510   70.6380  223.6500 C   0  0  0  0  0  0  0  0  0  0  0  0
  139.1670   71.3990  222.3970 C   0  0  0  0  0  0  0  0  0  0  0  0
  139.8965   71.3616  221.5745 H   0  0  0  0  0  0  0  0  0  0  0  0
  138.0490   72.1280  222.2420 C   0  0  0  0  0  0  0  0  0  0  0  0
  138.1013   73.0402  221.6295 H   0  0  0  0  0  0  0  0  0  0  0  0
  136.7540   71.7670  222.8520 C   0  0  0  0  0  0  0  0  0  0  0  0
  136.5190   71.8790  224.1720 N   0  0  0  0  0  0  0  0  0  0  0  0
  135.2280   71.5060  224.3050 C   0  0  0  0  0  0  0  0  0  0  0  0
  134.7055   71.4820  225.2727 H   0  0  0  0  0  0  0  0  0  0  0  0
  134.6380   71.1650  223.1380 N   0  0  0  0  0  0  0  0  0  0  0  0
  135.6050   71.3340  222.2190 C   0  0  0  0  0  0  0  0  0  0  0  0
  135.4984   71.1563  221.1387 H   0  0  0  0  0  0  0  0  0  0  0  0
  139.9710   71.3270  224.7040 N   0  0  0  0  0  0  0  0  0  0  0  0
  140.2580   70.7360  225.8860 C   0  0  0  0  0  0  0  0  0  0  0  0
  140.8080   71.4900  226.9310 C   0  0  0  0  0  0  0  0  0  0  0  0
  141.0216   72.5592  226.7854 H   0  0  0  0  0  0  0  0  0  0  0  0
  141.0850   70.8820  228.1590 C   0  0  0  0  0  0  0  0  0  0  0  0
  141.5110   71.4747  228.9820 H   0  0  0  0  0  0  0  0  0  0  0  0
  140.8210   69.5210  228.3420 C   0  0  0  0  0  0  0  0  0  0  0  0
  141.0386   69.0453  229.3097 H   0  0  0  0  0  0  0  0  0  0  0  0
  140.2810   68.7630  227.2980 C   0  0  0  0  0  0  0  0  0  0  0  0
  140.0807   67.6913  227.4441 H   0  0  0  0  0  0  0  0  0  0  0  0
  139.9930   69.3700  226.0590 C   0  0  0  0  0  0  0  0  0  0  0  0
  139.4570   68.6540  224.9750 C   0  0  0  0  0  0  0  0  0  0  0  0
  139.2060   67.4220  225.1150 O   0  0  0  0  0  0  0  0  0  0  0  0
  1  2  1  0
  2  3  1  0
  3  4  1  0
  3  5  1  0
  3  6  1  0
  6  7  1  0
  6  8  1  0
  6  9  1  0
  9 10  1  0
 10 11  1  0
 11 12  1  0
 11 13  2  0
 13 14  1  0
 13 15  1  0
 15 16  1  0
 16 17  1  0
 17 18  1  0
 17 19  2  0
 19 20  1  0
 20 21  1  0
 10 22  2  0
 22 23  1  0
 23 24  2  0
 24 25  1  0
 24 26  1  0
 26 27  1  0
 26 28  2  0
 28 29  1  0
 28 30  1  0
 30 31  1  0
 30 32  2  0
 32 33  1  0
 33 34  2  0
 33  9  1  0
 20 15  2  0
 32 23  1  0
M  CHG  1  16  -1
M  END
>  <UniqueID>  (74) 
403

>  <SMILES>  (74) 
O=c1c2ccccc2nc(/C=C/c2cnc[n-]2)n1CCO

>  <Energy>  (74) 
72.8932974027173

>  <Genealogy>  (74) 
O=c1c2ccccc2nc(/C=C/c2cnc[n-]2)n1CCO (protonated)
O=c1c2ccccc2nc(/C=C/c2cnc[n-]2)n1CCO (cis-trans isomerization)
O=c1c2ccccc2nc(/C=C/c2cnc[n-]2)n1CCO (3D coordinates assigned)
O=c1c2ccccc2nc(/C=C/c2cnc[n-]2)n1CCO (optimized conformer: 72.8932974027173 kcal/mol)

>  <smiles>  (74) 
O=c1c2ccccc2nc(/C=C/c2cnc[nH]2)n1CCO

>  <score_type>  (74) 
oracle

>  <origin>  (74) 
autodockgpu

>  <m_score__min__energy>  (74) 
-6.7699999999999996

>  <m_primary>  (74) 
energy

>  <meeko>  (74) 
{"free_energy": -4.65, "intermolecular_energy": -6.44, "internal_energy": -2.3, "cluster_size": 1, "cluster_id": 3, "rank_in_cluster": 1}

>  <energy>  (74) 
-5.96

>  <cluster_rmsd>  (74) 
0.86

>  <rmsd>  (74) 
268.96

>  <cluster>  (74) 
1

$$$$
XPOQFKNVEIIJJE-WMQPJQOXNA-M
     RDKit          3D

 34 36  0  0  0  0  0  0  0  0999 V2000
  139.7290   73.3800  223.5210 H   0  0  0  0  0  0  0  0  0  0  0  0
  140.0420   73.1880  222.5990 O   0  0  0  0  0  0  0  0  0  0  0  0
  139.6550   71.8730  222.3210 C   0  0  0  0  0  0  0  0  0  0  0  0
  140.4813   71.1923  222.5738 H   0  0  0  0  0  0  0  0  0  0  0  0
  139.4100   71.7951  221.2515 H   0  0  0  0  0  0  0  0  0  0  0  0
  138.4180   71.4880  223.1390 C   0  0  0  0  0  0  0  0  0  0  0  0
  137.6696   71.0413  222.4680 H   0  0  0  0  0  0  0  0  0  0  0  0
  138.0208   72.3963  223.6157 H   0  0  0  0  0  0  0  0  0  0  0  0
  138.7570   70.5120  224.2020 N   0  0  0  0  0  0  0  0  0  0  0  0
  138.1250   69.2830  224.3010 C   0  0  0  0  0  0  0  0  0  0  0  0
  137.0760   68.8340  223.3380 C   0  0  0  0  0  0  0  0  0  0  0  0
  137.3523   68.1303  222.5390 H   0  0  0  0  0  0  0  0  0  0  0  0
  135.8040   69.2630  223.4170 C   0  0  0  0  0  0  0  0  0  0  0  0
  135.4209   69.9119  222.6156 H   0  0  0  0  0  0  0  0  0  0  0  0
  134.8960   68.9070  224.5250 C   0  0  0  0  0  0  0  0  0  0  0  0
  134.3130   67.6990  224.6250 N   0  0  0  0  0  0  0  0  0  0  0  0
  133.6210   67.7660  225.7820 C   0  0  0  0  0  0  0  0  0  0  0  0
  133.0177   66.9327  226.1714 H   0  0  0  0  0  0  0  0  0  0  0  0
  133.7390   68.9530  226.4170 N   0  0  0  0  0  0  0  0  0  0  0  0
  134.5500   69.6730  225.6220 C   0  0  0  0  0  0  0  0  0  0  0  0
  134.8836   70.7035  225.8136 H   0  0  0  0  0  0  0  0  0  0  0  0
  138.4560   68.4380  225.3160 N   0  0  0  0  0  0  0  0  0  0  0  0
  139.3980   68.7430  226.2360 C   0  0  0  0  0  0  0  0  0  0  0  0
  139.6860   67.8410  227.2700 C   0  0  0  0  0  0  0  0  0  0  0  0
  139.1348   66.8918  227.3420 H   0  0  0  0  0  0  0  0  0  0  0  0
  140.6740   68.1490  228.2090 C   0  0  0  0  0  0  0  0  0  0  0  0
  140.9048   67.4392  229.0170 H   0  0  0  0  0  0  0  0  0  0  0  0
  141.3700   69.3600  228.1220 C   0  0  0  0  0  0  0  0  0  0  0  0
  142.1492   69.5989  228.8608 H   0  0  0  0  0  0  0  0  0  0  0  0
  141.0780   70.2670  227.0990 C   0  0  0  0  0  0  0  0  0  0  0  0
  141.6214   71.2216  227.0398 H   0  0  0  0  0  0  0  0  0  0  0  0
  140.0880   69.9600  226.1430 C   0  0  0  0  0  0  0  0  0  0  0  0
  139.7500   70.8380  225.0990 C   0  0  0  0  0  0  0  0  0  0  0  0
  140.3670   71.9370  224.9960 O   0  0  0  0  0  0  0  0  0  0  0  0
  1  2  1  0
  2  3  1  0
  3  4  1  0
  3  5  1  0
  3  6  1  0
  6  7  1  0
  6  8  1  0
  6  9  1  0
  9 10  1  0
 10 11  1  0
 11 12  1  0
 11 13  2  0
 13 14  1  0
 13 15  1  0
 15 16  1  0
 16 17  1  0
 17 18  1  0
 17 19  2  0
 19 20  1  0
 20 21  1  0
 10 22  2  0
 22 23  1  0
 23 24  2  0
 24 25  1  0
 24 26  1  0
 26 27  1  0
 26 28  2  0
 28 29  1  0
 28 30  1  0
 30 31  1  0
 30 32  2  0
 32 33  1  0
 33 34  2  0
 33  9  1  0
 20 15  2  0
 32 23  1  0
M  CHG  1  16  -1
M  END
>  <UniqueID>  (75) 
403

>  <SMILES>  (75) 
O=c1c2ccccc2nc(/C=C/c2cnc[n-]2)n1CCO

>  <Energy>  (75) 
72.8932974027173

>  <Genealogy>  (75) 
O=c1c2ccccc2nc(/C=C/c2cnc[n-]2)n1CCO (protonated)
O=c1c2ccccc2nc(/C=C/c2cnc[n-]2)n1CCO (cis-trans isomerization)
O=c1c2ccccc2nc(/C=C/c2cnc[n-]2)n1CCO (3D coordinates assigned)
O=c1c2ccccc2nc(/C=C/c2cnc[n-]2)n1CCO (optimized conformer: 72.8932974027173 kcal/mol)

>  <smiles>  (75) 
O=c1c2ccccc2nc(/C=C/c2cnc[nH]2)n1CCO

>  <score_type>  (75) 
oracle

>  <origin>  (75) 
autodockgpu

>  <m_score__min__energy>  (75) 
-6.7699999999999996

>  <m_primary>  (75) 
energy

>  <meeko>  (75) 
{"free_energy": -6.75, "intermolecular_energy": -8.54, "internal_energy": -1.27, "cluster_size": 17, "cluster_id": 1, "rank_in_cluster": 11}

>  <energy>  (75) 
-5.95

>  <cluster_rmsd>  (75) 
0.94

>  <rmsd>  (75) 
269.04

>  <cluster>  (75) 
1

$$$$
XPOQFKNVEIIJJE-WMQPJQOXNA-M
     RDKit          3D

 34 36  0  0  0  0  0  0  0  0999 V2000
  139.7630   73.3350  223.4600 H   0  0  0  0  0  0  0  0  0  0  0  0
  140.2790   73.2040  222.6240 O   0  0  0  0  0  0  0  0  0  0  0  0
  140.1220   71.8580  222.2750 C   0  0  0  0  0  0  0  0  0  0  0  0
  140.9700   71.2805  222.6717 H   0  0  0  0  0  0  0  0  0  0  0  0
  140.0865   71.7781  221.1785 H   0  0  0  0  0  0  0  0  0  0  0  0
  138.8180   71.2990  222.8530 C   0  0  0  0  0  0  0  0  0  0  0  0
  138.2678   70.7766  222.0565 H   0  0  0  0  0  0  0  0  0  0  0  0
  138.2260   72.1372  223.2491 H   0  0  0  0  0  0  0  0  0  0  0  0
  139.0840   70.3480  223.9610 N   0  0  0  0  0  0  0  0  0  0  0  0
  138.6030   69.0500  223.9470 C   0  0  0  0  0  0  0  0  0  0  0  0
  137.8040   68.4960  222.8130 C   0  0  0  0  0  0  0  0  0  0  0  0
  138.3321   68.0891  221.9381 H   0  0  0  0  0  0  0  0  0  0  0  0
  136.4600   68.4790  222.8280 C   0  0  0  0  0  0  0  0  0  0  0  0
  135.9326   68.1002  221.9401 H   0  0  0  0  0  0  0  0  0  0  0  0
  135.6560   68.9430  223.9760 C   0  0  0  0  0  0  0  0  0  0  0  0
  134.7150   68.1780  224.5590 N   0  0  0  0  0  0  0  0  0  0  0  0
  134.2640   68.9380  225.5790 C   0  0  0  0  0  0  0  0  0  0  0  0
  133.4749   68.6087  226.2710 H   0  0  0  0  0  0  0  0  0  0  0  0
  134.8720   70.1410  225.6710 N   0  0  0  0  0  0  0  0  0  0  0  0
  135.7560   70.1410  224.6570 C   0  0  0  0  0  0  0  0  0  0  0  0
  136.4461   70.9613  224.4102 H   0  0  0  0  0  0  0  0  0  0  0  0
  138.8530   68.2300  225.0050 N   0  0  0  0  0  0  0  0  0  0  0  0
  139.5730   68.6280  226.0780 C   0  0  0  0  0  0  0  0  0  0  0  0
  139.7840   67.7470  227.1470 C   0  0  0  0  0  0  0  0  0  0  0  0
  139.3510   66.7361  227.1211 H   0  0  0  0  0  0  0  0  0  0  0  0
  140.5450   68.1540  228.2460 C   0  0  0  0  0  0  0  0  0  0  0  0
  140.7166   67.4608  229.0827 H   0  0  0  0  0  0  0  0  0  0  0  0
  141.0890   69.4430  228.2830 C   0  0  0  0  0  0  0  0  0  0  0  0
  141.6897   69.7601  229.1482 H   0  0  0  0  0  0  0  0  0  0  0  0
  140.8710   70.3290  227.2230 C   0  0  0  0  0  0  0  0  0  0  0  0
  141.2933   71.3440  227.2598 H   0  0  0  0  0  0  0  0  0  0  0  0
  140.1110   69.9230  226.1080 C   0  0  0  0  0  0  0  0  0  0  0  0
  139.8550   70.7750  225.0190 C   0  0  0  0  0  0  0  0  0  0  0  0
  140.3380   71.9440  225.0260 O   0  0  0  0  0  0  0  0  0  0  0  0
  1  2  1  0
  2  3  1  0
  3  4  1  0
  3  5  1  0
  3  6  1  0
  6  7  1  0
  6  8  1  0
  6  9  1  0
  9 10  1  0
 10 11  1  0
 11 12  1  0
 11 13  2  0
 13 14  1  0
 13 15  1  0
 15 16  1  0
 16 17  1  0
 17 18  1  0
 17 19  2  0
 19 20  1  0
 20 21  1  0
 10 22  2  0
 22 23  1  0
 23 24  2  0
 24 25  1  0
 24 26  1  0
 26 27  1  0
 26 28  2  0
 28 29  1  0
 28 30  1  0
 30 31  1  0
 30 32  2  0
 32 33  1  0
 33 34  2  0
 33  9  1  0
 20 15  2  0
 32 23  1  0
M  CHG  1  16  -1
M  END
>  <UniqueID>  (76) 
403

>  <SMILES>  (76) 
O=c1c2ccccc2nc(/C=C/c2cnc[n-]2)n1CCO

>  <Energy>  (76) 
72.8932974027173

>  <Genealogy>  (76) 
O=c1c2ccccc2nc(/C=C/c2cnc[n-]2)n1CCO (protonated)
O=c1c2ccccc2nc(/C=C/c2cnc[n-]2)n1CCO (cis-trans isomerization)
O=c1c2ccccc2nc(/C=C/c2cnc[n-]2)n1CCO (3D coordinates assigned)
O=c1c2ccccc2nc(/C=C/c2cnc[n-]2)n1CCO (optimized conformer: 72.8932974027173 kcal/mol)

>  <smiles>  (76) 
O=c1c2ccccc2nc(/C=C/c2cnc[nH]2)n1CCO

>  <score_type>  (76) 
oracle

>  <origin>  (76) 
autodockgpu

>  <m_score__min__energy>  (76) 
-6.7699999999999996

>  <m_primary>  (76) 
energy

>  <meeko>  (76) 
{"free_energy": -6.31, "intermolecular_energy": -8.1, "internal_energy": -1.39, "cluster_size": 17, "cluster_id": 1, "rank_in_cluster": 13}

>  <energy>  (76) 
-5.94

>  <cluster_rmsd>  (76) 
0.89

>  <rmsd>  (76) 
268.98

>  <cluster>  (76) 
1

$$$$
XPOQFKNVEIIJJE-WMQPJQOXNA-M
     RDKit          3D

 34 36  0  0  0  0  0  0  0  0999 V2000
  139.7880   73.3690  223.4950 H   0  0  0  0  0  0  0  0  0  0  0  0
  140.1610   73.1560  222.6000 O   0  0  0  0  0  0  0  0  0  0  0  0
  139.7410   71.8550  222.3030 C   0  0  0  0  0  0  0  0  0  0  0  0
  140.5449   71.1488  222.5580 H   0  0  0  0  0  0  0  0  0  0  0  0
  139.5069   71.7947  221.2299 H   0  0  0  0  0  0  0  0  0  0  0  0
  138.4840   71.4970  223.1030 C   0  0  0  0  0  0  0  0  0  0  0  0
  137.7367   71.0639  222.4218 H   0  0  0  0  0  0  0  0  0  0  0  0
  138.0972   72.4139  223.5717 H   0  0  0  0  0  0  0  0  0  0  0  0
  138.7890   70.5160  224.1730 N   0  0  0  0  0  0  0  0  0  0  0  0
  138.1510   69.2890  224.2510 C   0  0  0  0  0  0  0  0  0  0  0  0
  137.1280   68.8460  223.2570 C   0  0  0  0  0  0  0  0  0  0  0  0
  137.4371   68.1860  222.4331 H   0  0  0  0  0  0  0  0  0  0  0  0
  135.8420   69.2280  223.3370 C   0  0  0  0  0  0  0  0  0  0  0  0
  135.4149   69.8028  222.5020 H   0  0  0  0  0  0  0  0  0  0  0  0
  134.9740   68.9150  224.4890 C   0  0  0  0  0  0  0  0  0  0  0  0
  134.2890   67.7610  224.5880 N   0  0  0  0  0  0  0  0  0  0  0  0
  133.6780   67.8480  225.7880 C   0  0  0  0  0  0  0  0  0  0  0  0
  133.0256   67.0584  226.1890 H   0  0  0  0  0  0  0  0  0  0  0  0
  133.9420   68.9950  226.4510 N   0  0  0  0  0  0  0  0  0  0  0  0
  134.7650   69.6680  225.6280 C   0  0  0  0  0  0  0  0  0  0  0  0
  135.2011   70.6576  225.8291 H   0  0  0  0  0  0  0  0  0  0  0  0
  138.4490   68.4400  225.2730 N   0  0  0  0  0  0  0  0  0  0  0  0
  139.3650   68.7400  226.2210 C   0  0  0  0  0  0  0  0  0  0  0  0
  139.6190   67.8350  227.2610 C   0  0  0  0  0  0  0  0  0  0  0  0
  139.0625   66.8877  227.3149 H   0  0  0  0  0  0  0  0  0  0  0  0
  140.5800   68.1380  228.2290 C   0  0  0  0  0  0  0  0  0  0  0  0
  140.7842   67.4256  229.0419 H   0  0  0  0  0  0  0  0  0  0  0  0
  141.2830   69.3460  228.1660 C   0  0  0  0  0  0  0  0  0  0  0  0
  142.0411   69.5801  228.9279 H   0  0  0  0  0  0  0  0  0  0  0  0
  141.0240   70.2570  227.1360 C   0  0  0  0  0  0  0  0  0  0  0  0
  141.5728   71.2094  227.0943 H   0  0  0  0  0  0  0  0  0  0  0  0
  140.0610   69.9560  226.1520 C   0  0  0  0  0  0  0  0  0  0  0  0
  139.7570   70.8370  225.1000 C   0  0  0  0  0  0  0  0  0  0  0  0
  140.3800   71.9350  225.0180 O   0  0  0  0  0  0  0  0  0  0  0  0
  1  2  1  0
  2  3  1  0
  3  4  1  0
  3  5  1  0
  3  6  1  0
  6  7  1  0
  6  8  1  0
  6  9  1  0
  9 10  1  0
 10 11  1  0
 11 12  1  0
 11 13  2  0
 13 14  1  0
 13 15  1  0
 15 16  1  0
 16 17  1  0
 17 18  1  0
 17 19  2  0
 19 20  1  0
 20 21  1  0
 10 22  2  0
 22 23  1  0
 23 24  2  0
 24 25  1  0
 24 26  1  0
 26 27  1  0
 26 28  2  0
 28 29  1  0
 28 30  1  0
 30 31  1  0
 30 32  2  0
 32 33  1  0
 33 34  2  0
 33  9  1  0
 20 15  2  0
 32 23  1  0
M  CHG  1  16  -1
M  END
>  <UniqueID>  (77) 
403

>  <SMILES>  (77) 
O=c1c2ccccc2nc(/C=C/c2cnc[n-]2)n1CCO

>  <Energy>  (77) 
72.8932974027173

>  <Genealogy>  (77) 
O=c1c2ccccc2nc(/C=C/c2cnc[n-]2)n1CCO (protonated)
O=c1c2ccccc2nc(/C=C/c2cnc[n-]2)n1CCO (cis-trans isomerization)
O=c1c2ccccc2nc(/C=C/c2cnc[n-]2)n1CCO (3D coordinates assigned)
O=c1c2ccccc2nc(/C=C/c2cnc[n-]2)n1CCO (optimized conformer: 72.8932974027173 kcal/mol)

>  <smiles>  (77) 
O=c1c2ccccc2nc(/C=C/c2cnc[nH]2)n1CCO

>  <score_type>  (77) 
oracle

>  <origin>  (77) 
autodockgpu

>  <m_score__min__energy>  (77) 
-6.7699999999999996

>  <m_primary>  (77) 
energy

>  <meeko>  (77) 
{"free_energy": -6.77, "intermolecular_energy": -8.56, "internal_energy": -1.31, "cluster_size": 17, "cluster_id": 1, "rank_in_cluster": 5}

>  <energy>  (77) 
-5.43

>  <cluster_rmsd>  (77) 
1.27

>  <rmsd>  (77) 
268.46

>  <cluster>  (77) 
1

$$$$
XPOQFKNVEIIJJE-WMQPJQOXNA-M
     RDKit          3D

 34 36  0  0  0  0  0  0  0  0999 V2000
  137.6410   72.5450  224.1010 H   0  0  0  0  0  0  0  0  0  0  0  0
  136.7000   72.3560  223.8500 O   0  0  0  0  0  0  0  0  0  0  0  0
  136.7160   72.0410  222.4860 C   0  0  0  0  0  0  0  0  0  0  0  0
  136.8396   72.9657  221.9032 H   0  0  0  0  0  0  0  0  0  0  0  0
  135.7670   71.5497  222.2250 H   0  0  0  0  0  0  0  0  0  0  0  0
  137.8700   71.0860  222.1650 C   0  0  0  0  0  0  0  0  0  0  0  0
  138.7140   71.6660  221.7635 H   0  0  0  0  0  0  0  0  0  0  0  0
  137.5171   70.3506  221.4269 H   0  0  0  0  0  0  0  0  0  0  0  0
  138.3180   70.3560  223.3760 N   0  0  0  0  0  0  0  0  0  0  0  0
  137.8090   69.1130  223.7160 C   0  0  0  0  0  0  0  0  0  0  0  0
  136.7930   68.4020  222.8850 C   0  0  0  0  0  0  0  0  0  0  0  0
  137.1334   67.6619  222.1458 H   0  0  0  0  0  0  0  0  0  0  0  0
  135.4760   68.6370  223.0110 C   0  0  0  0  0  0  0  0  0  0  0  0
  134.9103   68.9337  222.1155 H   0  0  0  0  0  0  0  0  0  0  0  0
  134.7500   68.5170  224.2910 C   0  0  0  0  0  0  0  0  0  0  0  0
  134.0330   67.4270  224.6190 N   0  0  0  0  0  0  0  0  0  0  0  0
  133.5860   67.6940  225.8640 C   0  0  0  0  0  0  0  0  0  0  0  0
  132.9568   66.9985  226.4388 H   0  0  0  0  0  0  0  0  0  0  0  0
  133.9830   68.8950  226.3390 N   0  0  0  0  0  0  0  0  0  0  0  0
  134.7230   69.4130  225.3430 C   0  0  0  0  0  0  0  0  0  0  0  0
  135.2255   70.3913  225.3623 H   0  0  0  0  0  0  0  0  0  0  0  0
  138.2360   68.5020  224.8550 N   0  0  0  0  0  0  0  0  0  0  0  0
  139.1580   69.0560  225.6740 C   0  0  0  0  0  0  0  0  0  0  0  0
  139.5480   68.3890  226.8440 C   0  0  0  0  0  0  0  0  0  0  0  0
  139.0922   67.4223  227.1044 H   0  0  0  0  0  0  0  0  0  0  0  0
  140.5160   68.9530  227.6790 C   0  0  0  0  0  0  0  0  0  0  0  0
  140.8263   68.4273  228.5941 H   0  0  0  0  0  0  0  0  0  0  0  0
  141.0910   70.1860  227.3520 C   0  0  0  0  0  0  0  0  0  0  0  0
  141.8549   70.6266  228.0095 H   0  0  0  0  0  0  0  0  0  0  0  0
  140.6970   70.8600  226.1910 C   0  0  0  0  0  0  0  0  0  0  0  0
  141.1456   71.8330  225.9418 H   0  0  0  0  0  0  0  0  0  0  0  0
  139.7260   70.2940  225.3400 C   0  0  0  0  0  0  0  0  0  0  0  0
  139.2890   70.9300  224.1660 C   0  0  0  0  0  0  0  0  0  0  0  0
  139.7950   72.0450  223.8450 O   0  0  0  0  0  0  0  0  0  0  0  0
  1  2  1  0
  2  3  1  0
  3  4  1  0
  3  5  1  0
  3  6  1  0
  6  7  1  0
  6  8  1  0
  6  9  1  0
  9 10  1  0
 10 11  1  0
 11 12  1  0
 11 13  2  0
 13 14  1  0
 13 15  1  0
 15 16  1  0
 16 17  1  0
 17 18  1  0
 17 19  2  0
 19 20  1  0
 20 21  1  0
 10 22  2  0
 22 23  1  0
 23 24  2  0
 24 25  1  0
 24 26  1  0
 26 27  1  0
 26 28  2  0
 28 29  1  0
 28 30  1  0
 30 31  1  0
 30 32  2  0
 32 33  1  0
 33 34  2  0
 33  9  1  0
 20 15  2  0
 32 23  1  0
M  CHG  1  16  -1
M  END
>  <UniqueID>  (78) 
403

>  <SMILES>  (78) 
O=c1c2ccccc2nc(/C=C/c2cnc[n-]2)n1CCO

>  <Energy>  (78) 
72.8932974027173

>  <Genealogy>  (78) 
O=c1c2ccccc2nc(/C=C/c2cnc[n-]2)n1CCO (protonated)
O=c1c2ccccc2nc(/C=C/c2cnc[n-]2)n1CCO (cis-trans isomerization)
O=c1c2ccccc2nc(/C=C/c2cnc[n-]2)n1CCO (3D coordinates assigned)
O=c1c2ccccc2nc(/C=C/c2cnc[n-]2)n1CCO (optimized conformer: 72.8932974027173 kcal/mol)

>  <smiles>  (78) 
O=c1c2ccccc2nc(/C=C/c2cnc[nH]2)n1CCO

>  <score_type>  (78) 
oracle

>  <origin>  (78) 
autodockgpu

>  <m_score__min__energy>  (78) 
-6.7699999999999996

>  <m_primary>  (78) 
energy

>  <meeko>  (78) 
{"free_energy": -5.43, "intermolecular_energy": -7.22, "internal_energy": -1.55, "cluster_size": 17, "cluster_id": 1, "rank_in_cluster": 17}

>  <energy>  (78) 
-5.92

>  <cluster_rmsd>  (78) 
0.0

>  <rmsd>  (78) 
269.37

>  <cluster>  (78) 
2

$$$$
XPOQFKNVEIIJJE-WMQPJQOXNA-M
     RDKit          3D

 34 36  0  0  0  0  0  0  0  0999 V2000
  139.7460   73.3700  223.4940 H   0  0  0  0  0  0  0  0  0  0  0  0
  140.1180   73.1610  222.5980 O   0  0  0  0  0  0  0  0  0  0  0  0
  139.7030   71.8580  222.2990 C   0  0  0  0  0  0  0  0  0  0  0  0
  140.5141   71.1560  222.5424 H   0  0  0  0  0  0  0  0  0  0  0  0
  139.4581   71.8020  221.2281 H   0  0  0  0  0  0  0  0  0  0  0  0
  138.4570   71.4870  223.1090 C   0  0  0  0  0  0  0  0  0  0  0  0
  137.7079   71.0480  222.4335 H   0  0  0  0  0  0  0  0  0  0  0  0
  138.0660   72.3995  223.5827 H   0  0  0  0  0  0  0  0  0  0  0  0
  138.7800   70.5070  224.1750 N   0  0  0  0  0  0  0  0  0  0  0  0
  138.1590   69.2710  224.2500 C   0  0  0  0  0  0  0  0  0  0  0  0
  137.1380   68.8180  223.2590 C   0  0  0  0  0  0  0  0  0  0  0  0
  137.4481   68.1485  222.4432 H   0  0  0  0  0  0  0  0  0  0  0  0
  135.8530   69.2020  223.3320 C   0  0  0  0  0  0  0  0  0  0  0  0
  135.4288   69.7699  222.4908 H   0  0  0  0  0  0  0  0  0  0  0  0
  134.9810   68.9000  224.4850 C   0  0  0  0  0  0  0  0  0  0  0  0
  134.2900   67.7500  224.5890 N   0  0  0  0  0  0  0  0  0  0  0  0
  133.6770   67.8480  225.7880 C   0  0  0  0  0  0  0  0  0  0  0  0
  133.0195   67.0644  226.1926 H   0  0  0  0  0  0  0  0  0  0  0  0
  133.9460   68.9980  226.4450 N   0  0  0  0  0  0  0  0  0  0  0  0
  134.7750   69.6610  225.6190 C   0  0  0  0  0  0  0  0  0  0  0  0
  135.2171   70.6490  225.8149 H   0  0  0  0  0  0  0  0  0  0  0  0
  138.4740   68.4230  225.2680 N   0  0  0  0  0  0  0  0  0  0  0  0
  139.3900   68.7310  226.2130 C   0  0  0  0  0  0  0  0  0  0  0  0
  139.6620   67.8260  227.2480 C   0  0  0  0  0  0  0  0  0  0  0  0
  139.1192   66.8707  227.3006 H   0  0  0  0  0  0  0  0  0  0  0  0
  140.6230   68.1380  228.2130 C   0  0  0  0  0  0  0  0  0  0  0  0
  140.8411   67.4253  229.0220 H   0  0  0  0  0  0  0  0  0  0  0  0
  141.3080   69.3560  228.1510 C   0  0  0  0  0  0  0  0  0  0  0  0
  142.0660   69.5982  228.9105 H   0  0  0  0  0  0  0  0  0  0  0  0
  141.0320   70.2670  227.1260 C   0  0  0  0  0  0  0  0  0  0  0  0
  141.5676   71.2270  227.0857 H   0  0  0  0  0  0  0  0  0  0  0  0
  140.0690   69.9570  226.1450 C   0  0  0  0  0  0  0  0  0  0  0  0
  139.7480   70.8370  225.0980 C   0  0  0  0  0  0  0  0  0  0  0  0
  140.3550   71.9440  225.0170 O   0  0  0  0  0  0  0  0  0  0  0  0
  1  2  1  0
  2  3  1  0
  3  4  1  0
  3  5  1  0
  3  6  1  0
  6  7  1  0
  6  8  1  0
  6  9  1  0
  9 10  1  0
 10 11  1  0
 11 12  1  0
 11 13  2  0
 13 14  1  0
 13 15  1  0
 15 16  1  0
 16 17  1  0
 17 18  1  0
 17 19  2  0
 19 20  1  0
 20 21  1  0
 10 22  2  0
 22 23  1  0
 23 24  2  0
 24 25  1  0
 24 26  1  0
 26 27  1  0
 26 28  2  0
 28 29  1  0
 28 30  1  0
 30 31  1  0
 30 32  2  0
 32 33  1  0
 33 34  2  0
 33  9  1  0
 20 15  2  0
 32 23  1  0
M  CHG  1  16  -1
M  END
>  <UniqueID>  (79) 
403

>  <SMILES>  (79) 
O=c1c2ccccc2nc(/C=C/c2cnc[n-]2)n1CCO

>  <Energy>  (79) 
72.8932974027173

>  <Genealogy>  (79) 
O=c1c2ccccc2nc(/C=C/c2cnc[n-]2)n1CCO (protonated)
O=c1c2ccccc2nc(/C=C/c2cnc[n-]2)n1CCO (cis-trans isomerization)
O=c1c2ccccc2nc(/C=C/c2cnc[n-]2)n1CCO (3D coordinates assigned)
O=c1c2ccccc2nc(/C=C/c2cnc[n-]2)n1CCO (optimized conformer: 72.8932974027173 kcal/mol)

>  <smiles>  (79) 
O=c1c2ccccc2nc(/C=C/c2cnc[nH]2)n1CCO

>  <score_type>  (79) 
oracle

>  <origin>  (79) 
autodockgpu

>  <m_score__min__energy>  (79) 
-6.7699999999999996

>  <m_primary>  (79) 
energy

>  <meeko>  (79) 
{"free_energy": -6.76, "intermolecular_energy": -8.55, "internal_energy": -1.32, "cluster_size": 17, "cluster_id": 1, "rank_in_cluster": 8}

>  <energy>  (79) 
-5.89

>  <cluster_rmsd>  (79) 
1.03

>  <rmsd>  (79) 
269.32

>  <cluster>  (79) 
2

$$$$
XPOQFKNVEIIJJE-WMQPJQOXNA-M
     RDKit          3D

 34 36  0  0  0  0  0  0  0  0999 V2000
  139.7710   73.3550  223.4950 H   0  0  0  0  0  0  0  0  0  0  0  0
  140.1340   73.1480  222.5940 O   0  0  0  0  0  0  0  0  0  0  0  0
  139.7170   71.8460  222.2970 C   0  0  0  0  0  0  0  0  0  0  0  0
  140.5298   71.1438  222.5341 H   0  0  0  0  0  0  0  0  0  0  0  0
  139.4644   71.7912  221.2278 H   0  0  0  0  0  0  0  0  0  0  0  0
  138.4770   71.4740  223.1150 C   0  0  0  0  0  0  0  0  0  0  0  0
  137.7245   71.0330  222.4447 H   0  0  0  0  0  0  0  0  0  0  0  0
  138.0876   72.3865  223.5901 H   0  0  0  0  0  0  0  0  0  0  0  0
  138.8080   70.4960  224.1800 N   0  0  0  0  0  0  0  0  0  0  0  0
  138.1920   69.2580  224.2600 C   0  0  0  0  0  0  0  0  0  0  0  0
  137.1680   68.8000  223.2740 C   0  0  0  0  0  0  0  0  0  0  0  0
  137.4728   68.1151  222.4690 H   0  0  0  0  0  0  0  0  0  0  0  0
  135.8860   69.1980  223.3390 C   0  0  0  0  0  0  0  0  0  0  0  0
  135.4738   69.7712  222.4954 H   0  0  0  0  0  0  0  0  0  0  0  0
  135.0030   68.9050  224.4850 C   0  0  0  0  0  0  0  0  0  0  0  0
  134.3050   67.7590  224.5880 N   0  0  0  0  0  0  0  0  0  0  0  0
  133.6830   67.8640  225.7810 C   0  0  0  0  0  0  0  0  0  0  0  0
  133.0181   67.0853  226.1830 H   0  0  0  0  0  0  0  0  0  0  0  0
  133.9530   69.0150  226.4360 N   0  0  0  0  0  0  0  0  0  0  0  0
  134.7920   69.6710  225.6150 C   0  0  0  0  0  0  0  0  0  0  0  0
  135.2378   70.6573  225.8113 H   0  0  0  0  0  0  0  0  0  0  0  0
  138.5130   68.4120  225.2770 N   0  0  0  0  0  0  0  0  0  0  0  0
  139.4320   68.7250  226.2180 C   0  0  0  0  0  0  0  0  0  0  0  0
  139.7110   67.8230  227.2540 C   0  0  0  0  0  0  0  0  0  0  0  0
  139.1709   66.8664  227.3114 H   0  0  0  0  0  0  0  0  0  0  0  0
  140.6760   68.1400  228.2140 C   0  0  0  0  0  0  0  0  0  0  0  0
  140.9008   67.4288  229.0225 H   0  0  0  0  0  0  0  0  0  0  0  0
  141.3560   69.3600  228.1480 C   0  0  0  0  0  0  0  0  0  0  0  0
  142.1157   69.6061  228.9045 H   0  0  0  0  0  0  0  0  0  0  0  0
  141.0730   70.2680  227.1230 C   0  0  0  0  0  0  0  0  0  0  0  0
  141.6051   71.2297  227.0790 H   0  0  0  0  0  0  0  0  0  0  0  0
  140.1070   69.9530  226.1460 C   0  0  0  0  0  0  0  0  0  0  0  0
  139.7780   70.8310  225.0990 C   0  0  0  0  0  0  0  0  0  0  0  0
  140.3810   71.9400  225.0140 O   0  0  0  0  0  0  0  0  0  0  0  0
  1  2  1  0
  2  3  1  0
  3  4  1  0
  3  5  1  0
  3  6  1  0
  6  7  1  0
  6  8  1  0
  6  9  1  0
  9 10  1  0
 10 11  1  0
 11 12  1  0
 11 13  2  0
 13 14  1  0
 13 15  1  0
 15 16  1  0
 16 17  1  0
 17 18  1  0
 17 19  2  0
 19 20  1  0
 20 21  1  0
 10 22  2  0
 22 23  1  0
 23 24  2  0
 24 25  1  0
 24 26  1  0
 26 27  1  0
 26 28  2  0
 28 29  1  0
 28 30  1  0
 30 31  1  0
 30 32  2  0
 32 33  1  0
 33 34  2  0
 33  9  1  0
 20 15  2  0
 32 23  1  0
M  CHG  1  16  -1
M  END
>  <UniqueID>  (80) 
403

>  <SMILES>  (80) 
O=c1c2ccccc2nc(/C=C/c2cnc[n-]2)n1CCO

>  <Energy>  (80) 
72.8932974027173

>  <Genealogy>  (80) 
O=c1c2ccccc2nc(/C=C/c2cnc[n-]2)n1CCO (protonated)
O=c1c2ccccc2nc(/C=C/c2cnc[n-]2)n1CCO (cis-trans isomerization)
O=c1c2ccccc2nc(/C=C/c2cnc[n-]2)n1CCO (3D coordinates assigned)
O=c1c2ccccc2nc(/C=C/c2cnc[n-]2)n1CCO (optimized conformer: 72.8932974027173 kcal/mol)

>  <smiles>  (80) 
O=c1c2ccccc2nc(/C=C/c2cnc[nH]2)n1CCO

>  <score_type>  (80) 
oracle

>  <origin>  (80) 
autodockgpu

>  <m_score__min__energy>  (80) 
-6.7699999999999996

>  <m_primary>  (80) 
energy

>  <meeko>  (80) 
{"free_energy": -6.76, "intermolecular_energy": -8.55, "internal_energy": -1.32, "cluster_size": 17, "cluster_id": 1, "rank_in_cluster": 9}

>  <energy>  (80) 
-4.65

>  <cluster_rmsd>  (80) 
0.0

>  <rmsd>  (80) 
268.8

>  <cluster>  (80) 
3

$$$$
