
     RDKit          3D

 51 54  0  0  0  0  0  0  0  0999 V2000
  141.1950   71.7430  221.5120 O   0  0  0  0  0  0  0  0  0  0  0  0
  140.4360   72.1710  222.4260 C   0  0  0  0  0  0  0  0  0  0  0  0
  139.7370   73.4110  222.3000 N   0  0  0  0  0  0  0  0  0  0  0  0
  139.8920   74.2110  221.1010 C   0  0  0  0  0  0  0  0  0  0  0  0
  140.9320   75.2520  221.2550 C   0  0  0  0  0  0  0  0  0  0  0  0
  140.9300   76.0000  222.2740 O   0  0  0  0  0  0  0  0  0  0  0  0
  141.9060   75.3640  220.2260 N   0  0  0  0  0  0  0  0  0  0  0  0
  142.7570   76.5440  220.0770 C   0  0  0  0  0  0  0  0  0  0  0  0
  142.5760   77.1310  218.6710 C   0  0  0  0  0  0  0  0  0  0  0  0
  143.0310   76.0450  217.7130 C   0  0  0  0  0  0  0  0  0  0  0  0
  142.0840   74.8890  217.8630 C   0  0  0  0  0  0  0  0  0  0  0  0
  142.1130   74.3030  219.2570 C   0  0  1  0  0  0  0  0  0  0  0  0
  143.3370   73.5150  219.5090 C   0  0  0  0  0  0  0  0  0  0  0  0
  143.5740   72.4240  218.6950 C   0  0  0  0  0  0  0  0  0  0  0  0
  144.7140   71.6350  218.8810 C   0  0  0  0  0  0  0  0  0  0  0  0
  145.6180   71.9370  219.8810 C   0  0  0  0  0  0  0  0  0  0  0  0
  145.3530   73.0270  220.6720 C   0  0  0  0  0  0  0  0  0  0  0  0
  146.5230   73.3890  221.9410 Cl  0  0  0  0  0  0  0  0  0  0  0  0
  144.2390   73.8260  220.5170 C   0  0  0  0  0  0  0  0  0  0  0  0
  140.2350   71.4110  223.6630 C   0  0  0  0  0  0  0  0  0  0  0  0
  139.5380   70.2150  223.6250 C   0  0  0  0  0  0  0  0  0  0  0  0
  139.3280   69.4690  224.7730 C   0  0  0  0  0  0  0  0  0  0  0  0
  139.8350   69.9520  225.9600 C   0  0  0  0  0  0  0  0  0  0  0  0
  139.6410   69.2250  227.1200 C   0  0  0  0  0  0  0  0  0  0  0  0
  140.1620   69.7340  228.3020 C   0  0  0  0  0  0  0  0  0  0  0  0
  140.8560   70.9230  228.3400 C   0  0  0  0  0  0  0  0  0  0  0  0
  141.0560   71.6570  227.1790 C   0  0  0  0  0  0  0  0  0  0  0  0
  140.5330   71.1460  225.9990 C   0  0  0  0  0  0  0  0  0  0  0  0
  140.7060   71.8290  224.8520 N   0  0  0  0  0  0  0  0  0  0  0  0
  139.1100   73.7280  223.0970 H   0  0  0  0  0  0  0  0  0  0  0  0
  140.1729   73.5500  220.2678 H   0  0  0  0  0  0  0  0  0  0  0  0
  138.9346   74.7161  220.9056 H   0  0  0  0  0  0  0  0  0  0  0  0
  142.4747   77.2968  220.8277 H   0  0  0  0  0  0  0  0  0  0  0  0
  143.8092   76.2579  220.2222 H   0  0  0  0  0  0  0  0  0  0  0  0
  141.5200   77.3822  218.4929 H   0  0  0  0  0  0  0  0  0  0  0  0
  143.1539   78.0577  218.5396 H   0  0  0  0  0  0  0  0  0  0  0  0
  143.0054   76.4204  216.6794 H   0  0  0  0  0  0  0  0  0  0  0  0
  144.0619   75.7347  217.9386 H   0  0  0  0  0  0  0  0  0  0  0  0
  141.0632   75.2370  217.6463 H   0  0  0  0  0  0  0  0  0  0  0  0
  142.3970   74.1030  217.1600 H   0  0  0  0  0  0  0  0  0  0  0  0
  141.2898   73.5808  219.3603 H   0  0  0  0  0  0  0  0  0  0  0  0
  142.8613   72.1742  217.8952 H   0  0  0  0  0  0  0  0  0  0  0  0
  144.8918   70.7687  218.2269 H   0  0  0  0  0  0  0  0  0  0  0  0
  146.5187   71.3253  220.0379 H   0  0  0  0  0  0  0  0  0  0  0  0
  144.0696   74.6895  221.1770 H   0  0  0  0  0  0  0  0  0  0  0  0
  139.1437   69.8505  222.6650 H   0  0  0  0  0  0  0  0  0  0  0  0
  138.7733   68.5197  224.7383 H   0  0  0  0  0  0  0  0  0  0  0  0
  139.0908   68.2726  227.1068 H   0  0  0  0  0  0  0  0  0  0  0  0
  140.0162   69.1710  229.2357 H   0  0  0  0  0  0  0  0  0  0  0  0
  141.2542   71.2932  229.2962 H   0  0  0  0  0  0  0  0  0  0  0  0
  141.6083   72.6082  227.1934 H   0  0  0  0  0  0  0  0  0  0  0  0
  1  2  2  0
  2  3  1  0
  3  4  1  0
  4  5  1  0
  5  6  2  0
  5  7  1  0
  7  8  1  0
  8  9  1  0
  9 10  1  0
 10 11  1  0
 11 12  1  0
 12 13  1  0
 13 14  2  0
 14 15  1  0
 15 16  2  0
 16 17  1  0
 17 18  1  0
 17 19  2  0
  2 20  1  0
 20 21  2  0
 21 22  1  0
 22 23  2  0
 23 24  1  0
 24 25  2  0
 25 26  1  0
 26 27  2  0
 27 28  1  0
 28 29  2  0
 12  7  1  0
 19 13  1  0
 29 20  1  0
 28 23  1  0
  3 30  1  0
  4 31  1  0
  4 32  1  0
  8 33  1  0
  8 34  1  0
  9 35  1  0
  9 36  1  0
 10 37  1  0
 10 38  1  0
 11 39  1  0
 11 40  1  0
 12 41  1  6
 14 42  1  0
 15 43  1  0
 16 44  1  0
 19 45  1  0
 21 46  1  0
 22 47  1  0
 24 48  1  0
 25 49  1  0
 26 50  1  0
 27 51  1  0
M  END
>  <smiles>  (1) 
O=C(NCC(=O)N1CCCC[C@H]1c1cccc(Cl)c1)c1ccc2ccccc2n1

>  <score_type>  (1) 
oracle

>  <origin>  (1) 
autodockgpu

>  <m_score__min__energy>  (1) 
-9.3300000000000001

>  <m_primary>  (1) 
energy

>  <meeko>  (1) 
{"free_energy": -9.05, "intermolecular_energy": -10.54, "internal_energy": -1.78, "cluster_size": 2, "cluster_id": 2, "rank_in_cluster": 1}

>  <energy>  (1) 
-9.33

>  <cluster_rmsd>  (1) 
0.0

>  <rmsd>  (1) 
271.45

>  <cluster>  (1) 
1

$$$$

     RDKit          3D

 51 54  0  0  0  0  0  0  0  0999 V2000
  141.4160   72.1140  221.6670 O   0  0  0  0  0  0  0  0  0  0  0  0
  140.5140   72.3970  222.5050 C   0  0  0  0  0  0  0  0  0  0  0  0
  139.6860   73.5520  222.3530 N   0  0  0  0  0  0  0  0  0  0  0  0
  139.8720   74.4320  221.2160 C   0  0  0  0  0  0  0  0  0  0  0  0
  139.2640   75.7640  221.4360 C   0  0  0  0  0  0  0  0  0  0  0  0
  138.1880   75.8650  222.0900 O   0  0  0  0  0  0  0  0  0  0  0  0
  139.9360   76.8900  220.8890 N   0  0  0  0  0  0  0  0  0  0  0  0
  139.3780   77.6760  219.7880 C   0  0  0  0  0  0  0  0  0  0  0  0
  140.3750   77.7000  218.6210 C   0  0  0  0  0  0  0  0  0  0  0  0
  141.6200   78.3820  219.1610 C   0  0  0  0  0  0  0  0  0  0  0  0
  142.1820   77.4990  220.2390 C   0  0  0  0  0  0  0  0  0  0  0  0
  141.2240   77.3280  221.3950 C   0  0  1  0  0  0  0  0  0  0  0  0
  141.1370   78.5390  222.2370 C   0  0  0  0  0  0  0  0  0  0  0  0
  142.3120   79.2100  222.5140 C   0  0  0  0  0  0  0  0  0  0  0  0
  142.3000   80.3630  223.3050 C   0  0  0  0  0  0  0  0  0  0  0  0
  141.1130   80.8460  223.8210 C   0  0  0  0  0  0  0  0  0  0  0  0
  139.9630   80.1550  223.5270 C   0  0  0  0  0  0  0  0  0  0  0  0
  138.4620   80.7920  224.1980 Cl  0  0  0  0  0  0  0  0  0  0  0  0
  139.9390   79.0150  222.7500 C   0  0  0  0  0  0  0  0  0  0  0  0
  140.2730   71.5490  223.6750 C   0  0  0  0  0  0  0  0  0  0  0  0
  139.5790   70.3600  223.5260 C   0  0  0  0  0  0  0  0  0  0  0  0
  139.3320   69.5310  224.6090 C   0  0  0  0  0  0  0  0  0  0  0  0
  139.7990   69.9250  225.8440 C   0  0  0  0  0  0  0  0  0  0  0  0
  139.5680   69.1160  226.9410 C   0  0  0  0  0  0  0  0  0  0  0  0
  140.0490   69.5360  228.1730 C   0  0  0  0  0  0  0  0  0  0  0  0
  140.7400   70.7190  228.3220 C   0  0  0  0  0  0  0  0  0  0  0  0
  140.9770   71.5350  227.2250 C   0  0  0  0  0  0  0  0  0  0  0  0
  140.4940   71.1130  225.9940 C   0  0  0  0  0  0  0  0  0  0  0  0
  140.7040   71.8780  224.9060 N   0  0  0  0  0  0  0  0  0  0  0  0
  138.9400   73.7470  223.0850 H   0  0  0  0  0  0  0  0  0  0  0  0
  140.9502   74.5593  221.0389 H   0  0  0  0  0  0  0  0  0  0  0  0
  139.3759   73.9729  220.3482 H   0  0  0  0  0  0  0  0  0  0  0  0
  138.4336   77.2212  219.4544 H   0  0  0  0  0  0  0  0  0  0  0  0
  139.1886   78.7041  220.1301 H   0  0  0  0  0  0  0  0  0  0  0  0
  140.6091   76.6759  218.2949 H   0  0  0  0  0  0  0  0  0  0  0  0
  139.9668   78.2303  217.7480 H   0  0  0  0  0  0  0  0  0  0  0  0
  142.3585   78.5094  218.3558 H   0  0  0  0  0  0  0  0  0  0  0  0
  141.3761   79.3773  219.5610 H   0  0  0  0  0  0  0  0  0  0  0  0
  142.3987   76.5098  219.8094 H   0  0  0  0  0  0  0  0  0  0  0  0
  143.0945   77.9769  220.6249 H   0  0  0  0  0  0  0  0  0  0  0  0
  141.6101   76.5477  222.0674 H   0  0  0  0  0  0  0  0  0  0  0  0
  143.2637   78.8348  222.1096 H   0  0  0  0  0  0  0  0  0  0  0  0
  143.2423   80.8891  223.5179 H   0  0  0  0  0  0  0  0  0  0  0  0
  141.0897   81.7516  224.4450 H   0  0  0  0  0  0  0  0  0  0  0  0
  138.9919   78.4956  222.5421 H   0  0  0  0  0  0  0  0  0  0  0  0
  139.2169   70.0679  222.5292 H   0  0  0  0  0  0  0  0  0  0  0  0
  138.7801   68.5874  224.4863 H   0  0  0  0  0  0  0  0  0  0  0  0
  139.0194   68.1679  226.8403 H   0  0  0  0  0  0  0  0  0  0  0  0
  139.8734   68.9057  229.0573 H   0  0  0  0  0  0  0  0  0  0  0  0
  141.1055   71.0179  229.3155 H   0  0  0  0  0  0  0  0  0  0  0  0
  141.5276   72.4818  227.3272 H   0  0  0  0  0  0  0  0  0  0  0  0
  1  2  2  0
  2  3  1  0
  3  4  1  0
  4  5  1  0
  5  6  2  0
  5  7  1  0
  7  8  1  0
  8  9  1  0
  9 10  1  0
 10 11  1  0
 11 12  1  0
 12 13  1  0
 13 14  2  0
 14 15  1  0
 15 16  2  0
 16 17  1  0
 17 18  1  0
 17 19  2  0
  2 20  1  0
 20 21  2  0
 21 22  1  0
 22 23  2  0
 23 24  1  0
 24 25  2  0
 25 26  1  0
 26 27  2  0
 27 28  1  0
 28 29  2  0
 12  7  1  0
 19 13  1  0
 29 20  1  0
 28 23  1  0
  3 30  1  0
  4 31  1  0
  4 32  1  0
  8 33  1  0
  8 34  1  0
  9 35  1  0
  9 36  1  0
 10 37  1  0
 10 38  1  0
 11 39  1  0
 11 40  1  0
 12 41  1  1
 14 42  1  0
 15 43  1  0
 16 44  1  0
 19 45  1  0
 21 46  1  0
 22 47  1  0
 24 48  1  0
 25 49  1  0
 26 50  1  0
 27 51  1  0
M  END
>  <smiles>  (2) 
O=C(NCC(=O)N1CCCC[C@H]1c1cccc(Cl)c1)c1ccc2ccccc2n1

>  <score_type>  (2) 
oracle

>  <origin>  (2) 
autodockgpu

>  <m_score__min__energy>  (2) 
-9.3300000000000001

>  <m_primary>  (2) 
energy

>  <meeko>  (2) 
{"free_energy": -9.28, "intermolecular_energy": -10.77, "internal_energy": -1.65, "cluster_size": 14, "cluster_id": 1, "rank_in_cluster": 4}

>  <energy>  (2) 
-9.3

>  <cluster_rmsd>  (2) 
0.09

>  <rmsd>  (2) 
271.43

>  <cluster>  (2) 
1

$$$$

     RDKit          3D

 51 54  0  0  0  0  0  0  0  0999 V2000
  141.4180   72.2780  221.6210 O   0  0  0  0  0  0  0  0  0  0  0  0
  140.5050   72.5110  222.4630 C   0  0  0  0  0  0  0  0  0  0  0  0
  139.6500   73.6490  222.3460 N   0  0  0  0  0  0  0  0  0  0  0  0
  139.8190   74.5710  221.2400 C   0  0  0  0  0  0  0  0  0  0  0  0
  139.4560   75.9580  221.6090 C   0  0  0  0  0  0  0  0  0  0  0  0
  138.6290   76.1670  222.5410 O   0  0  0  0  0  0  0  0  0  0  0  0
  140.0720   77.0130  220.8820 N   0  0  0  0  0  0  0  0  0  0  0  0
  139.3750   77.7460  219.8250 C   0  0  0  0  0  0  0  0  0  0  0  0
  140.1760   77.6450  218.5200 C   0  0  0  0  0  0  0  0  0  0  0  0
  141.5130   78.3050  218.8080 C   0  0  0  0  0  0  0  0  0  0  0  0
  142.2070   77.4730  219.8490 C   0  0  0  0  0  0  0  0  0  0  0  0
  141.4370   77.4250  221.1500 C   0  0  1  0  0  0  0  0  0  0  0  0
  141.5260   78.6940  221.9020 C   0  0  0  0  0  0  0  0  0  0  0  0
  141.8530   78.6210  223.2410 C   0  0  0  0  0  0  0  0  0  0  0  0
  141.9530   79.7850  224.0110 C   0  0  0  0  0  0  0  0  0  0  0  0
  141.7250   81.0230  223.4410 C   0  0  0  0  0  0  0  0  0  0  0  0
  141.4010   81.0600  222.1070 C   0  0  0  0  0  0  0  0  0  0  0  0
  141.1150   82.6520  221.4050 Cl  0  0  0  0  0  0  0  0  0  0  0  0
  141.2950   79.9330  221.3190 C   0  0  0  0  0  0  0  0  0  0  0  0
  140.2800   71.6180  223.6030 C   0  0  0  0  0  0  0  0  0  0  0  0
  139.5960   70.4290  223.4150 C   0  0  0  0  0  0  0  0  0  0  0  0
  139.3640   69.5590  224.4680 C   0  0  0  0  0  0  0  0  0  0  0  0
  139.8360   69.9120  225.7150 C   0  0  0  0  0  0  0  0  0  0  0  0
  139.6200   69.0610  226.7830 C   0  0  0  0  0  0  0  0  0  0  0  0
  140.1050   69.4400  228.0260 C   0  0  0  0  0  0  0  0  0  0  0  0
  140.7860   70.6230  228.2130 C   0  0  0  0  0  0  0  0  0  0  0  0
  141.0080   71.4820  227.1460 C   0  0  0  0  0  0  0  0  0  0  0  0
  140.5200   71.1000  225.9030 C   0  0  0  0  0  0  0  0  0  0  0  0
  140.7160   71.9060  224.8430 N   0  0  0  0  0  0  0  0  0  0  0  0
  138.8960   73.8010  223.0800 H   0  0  0  0  0  0  0  0  0  0  0  0
  140.8716   74.5530  220.9213 H   0  0  0  0  0  0  0  0  0  0  0  0
  139.1497   74.2510  220.4278 H   0  0  0  0  0  0  0  0  0  0  0  0
  138.3750   77.3126  219.6761 H   0  0  0  0  0  0  0  0  0  0  0  0
  139.2768   78.8027  220.1145 H   0  0  0  0  0  0  0  0  0  0  0  0
  140.3207   76.5914  218.2391 H   0  0  0  0  0  0  0  0  0  0  0  0
  139.6537   78.1325  217.6836 H   0  0  0  0  0  0  0  0  0  0  0  0
  142.1193   78.3431  217.8910 H   0  0  0  0  0  0  0  0  0  0  0  0
  141.3697   79.3355  219.1651 H   0  0  0  0  0  0  0  0  0  0  0  0
  142.3192   76.4480  219.4660 H   0  0  0  0  0  0  0  0  0  0  0  0
  143.1847   77.9341  220.0526 H   0  0  0  0  0  0  0  0  0  0  0  0
  141.8959   76.6759  221.8120 H   0  0  0  0  0  0  0  0  0  0  0  0
  142.0362   77.6411  223.7059 H   0  0  0  0  0  0  0  0  0  0  0  0
  142.2148   79.7141  225.0770 H   0  0  0  0  0  0  0  0  0  0  0  0
  141.8004   81.9460  224.0346 H   0  0  0  0  0  0  0  0  0  0  0  0
  141.0336   80.0137  220.2536 H   0  0  0  0  0  0  0  0  0  0  0  0
  139.2298   70.1702  222.4105 H   0  0  0  0  0  0  0  0  0  0  0  0
  138.8199   68.6154  224.3142 H   0  0  0  0  0  0  0  0  0  0  0  0
  139.0798   68.1119  226.6510 H   0  0  0  0  0  0  0  0  0  0  0  0
  139.9411   68.7765  228.8879 H   0  0  0  0  0  0  0  0  0  0  0  0
  141.1560   70.8882  229.2144 H   0  0  0  0  0  0  0  0  0  0  0  0
  141.5501   72.4298  227.2796 H   0  0  0  0  0  0  0  0  0  0  0  0
  1  2  2  0
  2  3  1  0
  3  4  1  0
  4  5  1  0
  5  6  2  0
  5  7  1  0
  7  8  1  0
  8  9  1  0
  9 10  1  0
 10 11  1  0
 11 12  1  0
 12 13  1  0
 13 14  2  0
 14 15  1  0
 15 16  2  0
 16 17  1  0
 17 18  1  0
 17 19  2  0
  2 20  1  0
 20 21  2  0
 21 22  1  0
 22 23  2  0
 23 24  1  0
 24 25  2  0
 25 26  1  0
 26 27  2  0
 27 28  1  0
 28 29  2  0
 12  7  1  0
 19 13  1  0
 29 20  1  0
 28 23  1  0
  3 30  1  0
  4 31  1  0
  4 32  1  0
  8 33  1  0
  8 34  1  0
  9 35  1  0
  9 36  1  0
 10 37  1  0
 10 38  1  0
 11 39  1  0
 11 40  1  0
 12 41  1  1
 14 42  1  0
 15 43  1  0
 16 44  1  0
 19 45  1  0
 21 46  1  0
 22 47  1  0
 24 48  1  0
 25 49  1  0
 26 50  1  0
 27 51  1  0
M  END
>  <smiles>  (3) 
O=C(NCC(=O)N1CCCC[C@H]1c1cccc(Cl)c1)c1ccc2ccccc2n1

>  <score_type>  (3) 
oracle

>  <origin>  (3) 
autodockgpu

>  <m_score__min__energy>  (3) 
-9.3300000000000001

>  <m_primary>  (3) 
energy

>  <meeko>  (3) 
{"free_energy": -9.26, "intermolecular_energy": -10.75, "internal_energy": -1.53, "cluster_size": 14, "cluster_id": 1, "rank_in_cluster": 5}

>  <energy>  (3) 
-9.3

>  <cluster_rmsd>  (3) 
0.07

>  <rmsd>  (3) 
271.44

>  <cluster>  (3) 
1

$$$$

     RDKit          3D

 51 54  0  0  0  0  0  0  0  0999 V2000
  140.5580   71.3910  221.2540 O   0  0  0  0  0  0  0  0  0  0  0  0
  140.1330   71.9760  222.2900 C   0  0  0  0  0  0  0  0  0  0  0  0
  139.6540   73.3210  222.2480 N   0  0  0  0  0  0  0  0  0  0  0  0
  139.6490   74.0500  220.9940 C   0  0  0  0  0  0  0  0  0  0  0  0
  140.8990   74.8150  220.7890 C   0  0  0  0  0  0  0  0  0  0  0  0
  142.0170   74.2680  221.0040 O   0  0  0  0  0  0  0  0  0  0  0  0
  140.7780   76.1610  220.3470 N   0  0  0  0  0  0  0  0  0  0  0  0
  139.6560   76.6190  219.5290 C   0  0  0  0  0  0  0  0  0  0  0  0
  140.1890   77.2320  218.2270 C   0  0  0  0  0  0  0  0  0  0  0  0
  141.0350   78.4200  218.6510 C   0  0  0  0  0  0  0  0  0  0  0  0
  142.2030   77.8830  219.4290 C   0  0  0  0  0  0  0  0  0  0  0  0
  141.7700   77.1650  220.6870 C   0  0  1  0  0  0  0  0  0  0  0  0
  141.3180   78.0980  221.7400 C   0  0  0  0  0  0  0  0  0  0  0  0
  140.0430   77.9270  222.2410 C   0  0  0  0  0  0  0  0  0  0  0  0
  139.5530   78.7760  223.2380 C   0  0  0  0  0  0  0  0  0  0  0  0
  140.3390   79.7980  223.7350 C   0  0  0  0  0  0  0  0  0  0  0  0
  141.6010   79.9410  223.2150 C   0  0  0  0  0  0  0  0  0  0  0  0
  142.5830   81.2530  223.8660 Cl  0  0  0  0  0  0  0  0  0  0  0  0
  142.1160   79.1220  222.2310 C   0  0  0  0  0  0  0  0  0  0  0  0
  140.1100   71.2960  223.5880 C   0  0  0  0  0  0  0  0  0  0  0  0
  139.5890   70.0160  223.6800 C   0  0  0  0  0  0  0  0  0  0  0  0
  139.5500   69.3410  224.8890 C   0  0  0  0  0  0  0  0  0  0  0  0
  140.0480   69.9820  226.0040 C   0  0  0  0  0  0  0  0  0  0  0  0
  140.0220   69.3310  227.2230 C   0  0  0  0  0  0  0  0  0  0  0  0
  140.5280   69.9990  228.3290 C   0  0  0  0  0  0  0  0  0  0  0  0
  141.0470   71.2720  228.2380 C   0  0  0  0  0  0  0  0  0  0  0  0
  141.0770   71.9320  227.0170 C   0  0  0  0  0  0  0  0  0  0  0  0
  140.5690   71.2610  225.9130 C   0  0  0  0  0  0  0  0  0  0  0  0
  140.5800   71.8680  224.7110 N   0  0  0  0  0  0  0  0  0  0  0  0
  139.3060   73.7690  223.1470 H   0  0  0  0  0  0  0  0  0  0  0  0
  139.5324   73.3333  220.1677 H   0  0  0  0  0  0  0  0  0  0  0  0
  138.8147   74.7663  221.0223 H   0  0  0  0  0  0  0  0  0  0  0  0
  139.0027   75.7663  219.2923 H   0  0  0  0  0  0  0  0  0  0  0  0
  139.0832   77.3769  220.0836 H   0  0  0  0  0  0  0  0  0  0  0  0
  140.8017   76.4999  217.6806 H   0  0  0  0  0  0  0  0  0  0  0  0
  139.3721   77.5334  217.5548 H   0  0  0  0  0  0  0  0  0  0  0  0
  141.3918   78.9636  217.7638 H   0  0  0  0  0  0  0  0  0  0  0  0
  140.4463   79.1175  219.2649 H   0  0  0  0  0  0  0  0  0  0  0  0
  142.7587   77.1786  218.7926 H   0  0  0  0  0  0  0  0  0  0  0  0
  142.8313   78.7356  219.7262 H   0  0  0  0  0  0  0  0  0  0  0  0
  142.6392   76.6520  221.1245 H   0  0  0  0  0  0  0  0  0  0  0  0
  139.4080   77.1169  221.8530 H   0  0  0  0  0  0  0  0  0  0  0  0
  138.5354   78.6294  223.6292 H   0  0  0  0  0  0  0  0  0  0  0  0
  139.9665   80.4730  224.5196 H   0  0  0  0  0  0  0  0  0  0  0  0
  143.1344   79.2769  221.8451 H   0  0  0  0  0  0  0  0  0  0  0  0
  139.1988   69.5261  222.7757 H   0  0  0  0  0  0  0  0  0  0  0  0
  139.1345   68.3248  224.9577 H   0  0  0  0  0  0  0  0  0  0  0  0
  139.6126   68.3141  227.3137 H   0  0  0  0  0  0  0  0  0  0  0  0
  140.5143   69.4971  229.3077 H   0  0  0  0  0  0  0  0  0  0  0  0
  141.4398   71.7682  229.1378 H   0  0  0  0  0  0  0  0  0  0  0  0
  141.4879   72.9485  226.9277 H   0  0  0  0  0  0  0  0  0  0  0  0
  1  2  2  0
  2  3  1  0
  3  4  1  0
  4  5  1  0
  5  6  2  0
  5  7  1  0
  7  8  1  0
  8  9  1  0
  9 10  1  0
 10 11  1  0
 11 12  1  0
 12 13  1  0
 13 14  2  0
 14 15  1  0
 15 16  2  0
 16 17  1  0
 17 18  1  0
 17 19  2  0
  2 20  1  0
 20 21  2  0
 21 22  1  0
 22 23  2  0
 23 24  1  0
 24 25  2  0
 25 26  1  0
 26 27  2  0
 27 28  1  0
 28 29  2  0
 12  7  1  0
 19 13  1  0
 29 20  1  0
 28 23  1  0
  3 30  1  0
  4 31  1  0
  4 32  1  0
  8 33  1  0
  8 34  1  0
  9 35  1  0
  9 36  1  0
 10 37  1  0
 10 38  1  0
 11 39  1  0
 11 40  1  0
 12 41  1  1
 14 42  1  0
 15 43  1  0
 16 44  1  0
 19 45  1  0
 21 46  1  0
 22 47  1  0
 24 48  1  0
 25 49  1  0
 26 50  1  0
 27 51  1  0
M  END
>  <smiles>  (4) 
O=C(NCC(=O)N1CCCC[C@H]1c1cccc(Cl)c1)c1ccc2ccccc2n1

>  <score_type>  (4) 
oracle

>  <origin>  (4) 
autodockgpu

>  <m_score__min__energy>  (4) 
-9.3300000000000001

>  <m_primary>  (4) 
energy

>  <meeko>  (4) 
{"free_energy": -9.09, "intermolecular_energy": -10.58, "internal_energy": -1.38, "cluster_size": 14, "cluster_id": 1, "rank_in_cluster": 11}

>  <energy>  (4) 
-9.28

>  <cluster_rmsd>  (4) 
0.1

>  <rmsd>  (4) 
271.43

>  <cluster>  (4) 
1

$$$$

     RDKit          3D

 51 54  0  0  0  0  0  0  0  0999 V2000
  140.2150   71.4840  221.2360 O   0  0  0  0  0  0  0  0  0  0  0  0
  139.9990   72.0680  222.3350 C   0  0  0  0  0  0  0  0  0  0  0  0
  139.7050   73.4650  222.3960 N   0  0  0  0  0  0  0  0  0  0  0  0
  139.6490   74.2470  221.1760 C   0  0  0  0  0  0  0  0  0  0  0  0
  139.1430   75.6180  221.4140 C   0  0  0  0  0  0  0  0  0  0  0  0
  138.0940   75.7930  222.0960 O   0  0  0  0  0  0  0  0  0  0  0  0
  139.8810   76.6950  220.8530 N   0  0  0  0  0  0  0  0  0  0  0  0
  139.4070   77.4470  219.6910 C   0  0  0  0  0  0  0  0  0  0  0  0
  140.4620   77.3850  218.5780 C   0  0  0  0  0  0  0  0  0  0  0  0
  141.7010   78.0510  219.1510 C   0  0  0  0  0  0  0  0  0  0  0  0
  142.1760   77.2010  220.2950 C   0  0  0  0  0  0  0  0  0  0  0  0
  141.1550   77.1150  221.4070 C   0  0  1  0  0  0  0  0  0  0  0  0
  141.0680   78.3660  222.1880 C   0  0  0  0  0  0  0  0  0  0  0  0
  142.2260   79.0980  222.3540 C   0  0  0  0  0  0  0  0  0  0  0  0
  142.2120   80.2920  223.0830 C   0  0  0  0  0  0  0  0  0  0  0  0
  141.0390   80.7540  223.6470 C   0  0  0  0  0  0  0  0  0  0  0  0
  139.9050   80.0020  223.4630 C   0  0  0  0  0  0  0  0  0  0  0  0
  138.4210   80.6140  224.1940 Cl  0  0  0  0  0  0  0  0  0  0  0  0
  139.8830   78.8210  222.7500 C   0  0  0  0  0  0  0  0  0  0  0  0
  140.0390   71.3370  223.6040 C   0  0  0  0  0  0  0  0  0  0  0  0
  139.5850   70.0300  223.6540 C   0  0  0  0  0  0  0  0  0  0  0  0
  139.6070   69.3050  224.8340 C   0  0  0  0  0  0  0  0  0  0  0  0
  140.0980   69.9250  225.9640 C   0  0  0  0  0  0  0  0  0  0  0  0
  140.1320   69.2240  227.1550 C   0  0  0  0  0  0  0  0  0  0  0  0
  140.6310   69.8710  228.2770 C   0  0  0  0  0  0  0  0  0  0  0  0
  141.0840   71.1710  228.2280 C   0  0  0  0  0  0  0  0  0  0  0  0
  141.0530   71.8800  227.0350 C   0  0  0  0  0  0  0  0  0  0  0  0
  140.5530   71.2300  225.9150 C   0  0  0  0  0  0  0  0  0  0  0  0
  140.5070   71.8850  224.7400 N   0  0  0  0  0  0  0  0  0  0  0  0
  139.5300   73.9110  223.3450 H   0  0  0  0  0  0  0  0  0  0  0  0
  140.6610   74.3118  220.7498 H   0  0  0  0  0  0  0  0  0  0  0  0
  138.9553   73.7459  220.4849 H   0  0  0  0  0  0  0  0  0  0  0  0
  138.4656   77.0081  219.3290 H   0  0  0  0  0  0  0  0  0  0  0  0
  139.2360   78.4953  219.9769 H   0  0  0  0  0  0  0  0  0  0  0  0
  140.6769   76.3399  218.3106 H   0  0  0  0  0  0  0  0  0  0  0  0
  140.1170   77.8872  217.6622 H   0  0  0  0  0  0  0  0  0  0  0  0
  142.4834   78.1168  218.3806 H   0  0  0  0  0  0  0  0  0  0  0  0
  141.4722   79.0713  219.4925 H   0  0  0  0  0  0  0  0  0  0  0  0
  142.3791   76.1864  219.9217 H   0  0  0  0  0  0  0  0  0  0  0  0
  143.0839   77.6662  220.7063 H   0  0  0  0  0  0  0  0  0  0  0  0
  141.4782   76.3557  222.1344 H   0  0  0  0  0  0  0  0  0  0  0  0
  143.1667   78.7402  221.9100 H   0  0  0  0  0  0  0  0  0  0  0  0
  143.1416   80.8667  223.2078 H   0  0  0  0  0  0  0  0  0  0  0  0
  141.0141   81.6908  224.2230 H   0  0  0  0  0  0  0  0  0  0  0  0
  138.9485   78.2533  222.6297 H   0  0  0  0  0  0  0  0  0  0  0  0
  139.1992   69.5580  222.7384 H   0  0  0  0  0  0  0  0  0  0  0  0
  139.2442   68.2671  224.8688 H   0  0  0  0  0  0  0  0  0  0  0  0
  139.7745   68.1852  227.2118 H   0  0  0  0  0  0  0  0  0  0  0  0
  140.6658   69.3295  229.2339 H   0  0  0  0  0  0  0  0  0  0  0  0
  141.4723   71.6498  229.1390 H   0  0  0  0  0  0  0  0  0  0  0  0
  141.4114   72.9185  226.9792 H   0  0  0  0  0  0  0  0  0  0  0  0
  1  2  2  0
  2  3  1  0
  3  4  1  0
  4  5  1  0
  5  6  2  0
  5  7  1  0
  7  8  1  0
  8  9  1  0
  9 10  1  0
 10 11  1  0
 11 12  1  0
 12 13  1  0
 13 14  2  0
 14 15  1  0
 15 16  2  0
 16 17  1  0
 17 18  1  0
 17 19  2  0
  2 20  1  0
 20 21  2  0
 21 22  1  0
 22 23  2  0
 23 24  1  0
 24 25  2  0
 25 26  1  0
 26 27  2  0
 27 28  1  0
 28 29  2  0
 12  7  1  0
 19 13  1  0
 29 20  1  0
 28 23  1  0
  3 30  1  0
  4 31  1  0
  4 32  1  0
  8 33  1  0
  8 34  1  0
  9 35  1  0
  9 36  1  0
 10 37  1  0
 10 38  1  0
 11 39  1  0
 11 40  1  0
 12 41  1  1
 14 42  1  0
 15 43  1  0
 16 44  1  0
 19 45  1  0
 21 46  1  0
 22 47  1  0
 24 48  1  0
 25 49  1  0
 26 50  1  0
 27 51  1  0
M  END
>  <smiles>  (5) 
O=C(NCC(=O)N1CCCC[C@H]1c1cccc(Cl)c1)c1ccc2ccccc2n1

>  <score_type>  (5) 
oracle

>  <origin>  (5) 
autodockgpu

>  <m_score__min__energy>  (5) 
-9.3300000000000001

>  <m_primary>  (5) 
energy

>  <meeko>  (5) 
{"free_energy": -9.11, "intermolecular_energy": -10.6, "internal_energy": -1.64, "cluster_size": 14, "cluster_id": 1, "rank_in_cluster": 10}

>  <energy>  (5) 
-9.26

>  <cluster_rmsd>  (5) 
0.97

>  <rmsd>  (5) 
271.4

>  <cluster>  (5) 
1

$$$$

     RDKit          3D

 51 54  0  0  0  0  0  0  0  0999 V2000
  141.0460   72.0260  221.6220 O   0  0  0  0  0  0  0  0  0  0  0  0
  140.1310   72.1890  222.4780 C   0  0  0  0  0  0  0  0  0  0  0  0
  139.0880   73.1470  222.2860 N   0  0  0  0  0  0  0  0  0  0  0  0
  139.0640   73.9610  221.0860 C   0  0  0  0  0  0  0  0  0  0  0  0
  138.6380   75.3510  221.3630 C   0  0  0  0  0  0  0  0  0  0  0  0
  137.5830   75.5680  222.0220 O   0  0  0  0  0  0  0  0  0  0  0  0
  139.4580   76.4000  220.8640 N   0  0  0  0  0  0  0  0  0  0  0  0
  139.0930   77.1860  219.6850 C   0  0  0  0  0  0  0  0  0  0  0  0
  140.2100   77.0870  218.6380 C   0  0  0  0  0  0  0  0  0  0  0  0
  141.4400   77.6880  219.2960 C   0  0  0  0  0  0  0  0  0  0  0  0
  141.8050   76.8040  220.4550 C   0  0  0  0  0  0  0  0  0  0  0  0
  140.7140   76.7530  221.5000 C   0  0  1  0  0  0  0  0  0  0  0  0
  140.6360   77.9970  222.2920 C   0  0  0  0  0  0  0  0  0  0  0  0
  139.3850   78.4230  222.6930 C   0  0  0  0  0  0  0  0  0  0  0  0
  139.2410   79.5930  223.4450 C   0  0  0  0  0  0  0  0  0  0  0  0
  140.3490   80.3400  223.7970 C   0  0  0  0  0  0  0  0  0  0  0  0
  141.5780   79.8900  223.3820 C   0  0  0  0  0  0  0  0  0  0  0  0
  142.9750   80.8610  223.8430 Cl  0  0  0  0  0  0  0  0  0  0  0  0
  141.7560   78.7400  222.6400 C   0  0  0  0  0  0  0  0  0  0  0  0
  140.0960   71.3990  223.7110 C   0  0  0  0  0  0  0  0  0  0  0  0
  139.5570   70.1240  223.6910 C   0  0  0  0  0  0  0  0  0  0  0  0
  139.5070   69.3460  224.8360 C   0  0  0  0  0  0  0  0  0  0  0  0
  140.0120   69.8790  226.0020 C   0  0  0  0  0  0  0  0  0  0  0  0
  139.9750   69.1240  227.1600 C   0  0  0  0  0  0  0  0  0  0  0  0
  140.4900   69.6850  228.3200 C   0  0  0  0  0  0  0  0  0  0  0  0
  141.0280   70.9530  228.3400 C   0  0  0  0  0  0  0  0  0  0  0  0
  141.0680   71.7170  227.1820 C   0  0  0  0  0  0  0  0  0  0  0  0
  140.5520   71.1530  226.0240 C   0  0  0  0  0  0  0  0  0  0  0  0
  140.5740   71.8630  224.8800 N   0  0  0  0  0  0  0  0  0  0  0  0
  138.3410   73.2470  223.0350 H   0  0  0  0  0  0  0  0  0  0  0  0
  140.0738   73.9799  220.6503 H   0  0  0  0  0  0  0  0  0  0  0  0
  138.3368   73.5167  220.3905 H   0  0  0  0  0  0  0  0  0  0  0  0
  138.1565   76.7959  219.2599 H   0  0  0  0  0  0  0  0  0  0  0  0
  138.9543   78.2381  219.9745 H   0  0  0  0  0  0  0  0  0  0  0  0
  140.3928   76.0360  218.3696 H   0  0  0  0  0  0  0  0  0  0  0  0
  139.9459   77.6145  217.7095 H   0  0  0  0  0  0  0  0  0  0  0  0
  142.2708   77.7267  218.5761 H   0  0  0  0  0  0  0  0  0  0  0  0
  141.2364   78.7135  219.6379 H   0  0  0  0  0  0  0  0  0  0  0  0
  141.9849   75.7854  220.0807 H   0  0  0  0  0  0  0  0  0  0  0  0
  142.7061   77.2218  220.9277 H   0  0  0  0  0  0  0  0  0  0  0  0
  140.9569   75.9702  222.2337 H   0  0  0  0  0  0  0  0  0  0  0  0
  138.4951   77.8374  222.4187 H   0  0  0  0  0  0  0  0  0  0  0  0
  138.2389   79.9210  223.7585 H   0  0  0  0  0  0  0  0  0  0  0  0
  140.2499   81.2621  224.3885 H   0  0  0  0  0  0  0  0  0  0  0  0
  142.7620   78.4195  222.3314 H   0  0  0  0  0  0  0  0  0  0  0  0
  139.1607   69.7208  222.7474 H   0  0  0  0  0  0  0  0  0  0  0  0
  139.0773   68.3336  224.8151 H   0  0  0  0  0  0  0  0  0  0  0  0
  139.5502   68.1094  227.1615 H   0  0  0  0  0  0  0  0  0  0  0  0
  140.4680   69.0998  229.2512 H   0  0  0  0  0  0  0  0  0  0  0  0
  141.4282   71.3624  229.2793 H   0  0  0  0  0  0  0  0  0  0  0  0
  141.4928   72.7316  227.1822 H   0  0  0  0  0  0  0  0  0  0  0  0
  1  2  2  0
  2  3  1  0
  3  4  1  0
  4  5  1  0
  5  6  2  0
  5  7  1  0
  7  8  1  0
  8  9  1  0
  9 10  1  0
 10 11  1  0
 11 12  1  0
 12 13  1  0
 13 14  2  0
 14 15  1  0
 15 16  2  0
 16 17  1  0
 17 18  1  0
 17 19  2  0
  2 20  1  0
 20 21  2  0
 21 22  1  0
 22 23  2  0
 23 24  1  0
 24 25  2  0
 25 26  1  0
 26 27  2  0
 27 28  1  0
 28 29  2  0
 12  7  1  0
 19 13  1  0
 29 20  1  0
 28 23  1  0
  3 30  1  0
  4 31  1  0
  4 32  1  0
  8 33  1  0
  8 34  1  0
  9 35  1  0
  9 36  1  0
 10 37  1  0
 10 38  1  0
 11 39  1  0
 11 40  1  0
 12 41  1  1
 14 42  1  0
 15 43  1  0
 16 44  1  0
 19 45  1  0
 21 46  1  0
 22 47  1  0
 24 48  1  0
 25 49  1  0
 26 50  1  0
 27 51  1  0
M  END
>  <smiles>  (6) 
O=C(NCC(=O)N1CCCC[C@H]1c1cccc(Cl)c1)c1ccc2ccccc2n1

>  <score_type>  (6) 
oracle

>  <origin>  (6) 
autodockgpu

>  <m_score__min__energy>  (6) 
-9.3300000000000001

>  <m_primary>  (6) 
energy

>  <meeko>  (6) 
{"free_energy": -9.19, "intermolecular_energy": -10.68, "internal_energy": -1.55, "cluster_size": 14, "cluster_id": 1, "rank_in_cluster": 6}

>  <energy>  (6) 
-9.19

>  <cluster_rmsd>  (6) 
1.02

>  <rmsd>  (6) 
271.3

>  <cluster>  (6) 
1

$$$$

     RDKit          3D

 51 54  0  0  0  0  0  0  0  0999 V2000
  141.0240   73.0740  222.2820 O   0  0  0  0  0  0  0  0  0  0  0  0
  139.9530   72.6390  222.7930 C   0  0  0  0  0  0  0  0  0  0  0  0
  138.6730   73.0970  222.3530 N   0  0  0  0  0  0  0  0  0  0  0  0
  138.5810   74.0850  221.2950 C   0  0  0  0  0  0  0  0  0  0  0  0
  138.5310   75.4660  221.8250 C   0  0  0  0  0  0  0  0  0  0  0  0
  137.7290   75.7560  222.7570 O   0  0  0  0  0  0  0  0  0  0  0  0
  139.4100   76.4220  221.2470 N   0  0  0  0  0  0  0  0  0  0  0  0
  139.0970   77.1220  220.0010 C   0  0  0  0  0  0  0  0  0  0  0  0
  140.2150   76.8730  218.9800 C   0  0  0  0  0  0  0  0  0  0  0  0
  141.4710   77.4610  219.5980 C   0  0  0  0  0  0  0  0  0  0  0  0
  141.7790   76.6630  220.8330 C   0  0  0  0  0  0  0  0  0  0  0  0
  140.6790   76.7610  221.8660 C   0  0  1  0  0  0  0  0  0  0  0  0
  140.6630   78.0720  222.5470 C   0  0  0  0  0  0  0  0  0  0  0  0
  141.8710   78.7190  222.7160 C   0  0  0  0  0  0  0  0  0  0  0  0
  141.9260   79.9630  223.3530 C   0  0  0  0  0  0  0  0  0  0  0  0
  140.7720   80.5600  223.8220 C   0  0  0  0  0  0  0  0  0  0  0  0
  139.5880   79.8900  223.6390 C   0  0  0  0  0  0  0  0  0  0  0  0
  138.1310   80.6740  224.2480 Cl  0  0  0  0  0  0  0  0  0  0  0  0
  139.4970   78.6630  223.0150 C   0  0  0  0  0  0  0  0  0  0  0  0
  139.9760   71.6400  223.8630 C   0  0  0  0  0  0  0  0  0  0  0  0
  139.4510   70.3790  223.6330 C   0  0  0  0  0  0  0  0  0  0  0  0
  139.4550   69.4070  224.6200 C   0  0  0  0  0  0  0  0  0  0  0  0
  139.9980   69.7320  225.8450 C   0  0  0  0  0  0  0  0  0  0  0  0
  140.0150   68.7800  226.8480 C   0  0  0  0  0  0  0  0  0  0  0  0
  140.5680   69.1330  228.0710 C   0  0  0  0  0  0  0  0  0  0  0  0
  141.0900   70.3870  228.3000 C   0  0  0  0  0  0  0  0  0  0  0  0
  141.0770   71.3470  227.2980 C   0  0  0  0  0  0  0  0  0  0  0  0
  140.5230   70.9910  226.0760 C   0  0  0  0  0  0  0  0  0  0  0  0
  140.4920   71.8950  225.0790 N   0  0  0  0  0  0  0  0  0  0  0  0
  137.8010   72.7000  222.8140 H   0  0  0  0  0  0  0  0  0  0  0  0
  139.4604   73.9876  220.6414 H   0  0  0  0  0  0  0  0  0  0  0  0
  137.6490   73.9013  220.7404 H   0  0  0  0  0  0  0  0  0  0  0  0
  138.1437   76.7477  219.5996 H   0  0  0  0  0  0  0  0  0  0  0  0
  139.0135   78.2011  220.1976 H   0  0  0  0  0  0  0  0  0  0  0  0
  140.3419   75.7945  218.8050 H   0  0  0  0  0  0  0  0  0  0  0  0
  139.9870   77.3322  218.0068 H   0  0  0  0  0  0  0  0  0  0  0  0
  142.3077   77.3920  218.8872 H   0  0  0  0  0  0  0  0  0  0  0  0
  141.3214   78.5217  219.8479 H   0  0  0  0  0  0  0  0  0  0  0  0
  141.9062   75.6076  220.5501 H   0  0  0  0  0  0  0  0  0  0  0  0
  142.6979   77.0719  221.2786 H   0  0  0  0  0  0  0  0  0  0  0  0
  140.8734   76.0330  222.6674 H   0  0  0  0  0  0  0  0  0  0  0  0
  142.7966   78.2529  222.3471 H   0  0  0  0  0  0  0  0  0  0  0  0
  142.8942   80.4691  223.4813 H   0  0  0  0  0  0  0  0  0  0  0  0
  140.8008   81.5381  224.3245 H   0  0  0  0  0  0  0  0  0  0  0  0
  138.5241   78.1649  222.8912 H   0  0  0  0  0  0  0  0  0  0  0  0
  139.0225   70.1448  222.6473 H   0  0  0  0  0  0  0  0  0  0  0  0
  139.0378   68.4067  224.4322 H   0  0  0  0  0  0  0  0  0  0  0  0
  139.6028   67.7738  226.6815 H   0  0  0  0  0  0  0  0  0  0  0  0
  140.5901   68.3895  228.8814 H   0  0  0  0  0  0  0  0  0  0  0  0
  141.5198   70.6289  229.2832 H   0  0  0  0  0  0  0  0  0  0  0  0
  141.4903   72.3525  227.4658 H   0  0  0  0  0  0  0  0  0  0  0  0
  1  2  2  0
  2  3  1  0
  3  4  1  0
  4  5  1  0
  5  6  2  0
  5  7  1  0
  7  8  1  0
  8  9  1  0
  9 10  1  0
 10 11  1  0
 11 12  1  0
 12 13  1  0
 13 14  2  0
 14 15  1  0
 15 16  2  0
 16 17  1  0
 17 18  1  0
 17 19  2  0
  2 20  1  0
 20 21  2  0
 21 22  1  0
 22 23  2  0
 23 24  1  0
 24 25  2  0
 25 26  1  0
 26 27  2  0
 27 28  1  0
 28 29  2  0
 12  7  1  0
 19 13  1  0
 29 20  1  0
 28 23  1  0
  3 30  1  0
  4 31  1  0
  4 32  1  0
  8 33  1  0
  8 34  1  0
  9 35  1  0
  9 36  1  0
 10 37  1  0
 10 38  1  0
 11 39  1  0
 11 40  1  0
 12 41  1  1
 14 42  1  0
 15 43  1  0
 16 44  1  0
 19 45  1  0
 21 46  1  0
 22 47  1  0
 24 48  1  0
 25 49  1  0
 26 50  1  0
 27 51  1  0
M  END
>  <smiles>  (7) 
O=C(NCC(=O)N1CCCC[C@H]1c1cccc(Cl)c1)c1ccc2ccccc2n1

>  <score_type>  (7) 
oracle

>  <origin>  (7) 
autodockgpu

>  <m_score__min__energy>  (7) 
-9.3300000000000001

>  <m_primary>  (7) 
energy

>  <meeko>  (7) 
{"free_energy": -8.94, "intermolecular_energy": -10.43, "internal_energy": -1.56, "cluster_size": 14, "cluster_id": 1, "rank_in_cluster": 12}

>  <energy>  (7) 
-9.18

>  <cluster_rmsd>  (7) 
0.74

>  <rmsd>  (7) 
271.3

>  <cluster>  (7) 
1

$$$$

     RDKit          3D

 51 54  0  0  0  0  0  0  0  0999 V2000
  141.4240   72.2500  221.7020 O   0  0  0  0  0  0  0  0  0  0  0  0
  140.4790   72.4480  222.5180 C   0  0  0  0  0  0  0  0  0  0  0  0
  139.5700   73.5390  222.3590 N   0  0  0  0  0  0  0  0  0  0  0  0
  139.7190   74.4500  221.2410 C   0  0  0  0  0  0  0  0  0  0  0  0
  139.2430   75.8130  221.5650 C   0  0  0  0  0  0  0  0  0  0  0  0
  138.2610   75.9700  222.3440 O   0  0  0  0  0  0  0  0  0  0  0  0
  139.9310   76.9070  220.9720 N   0  0  0  0  0  0  0  0  0  0  0  0
  139.3900   77.6460  219.8310 C   0  0  0  0  0  0  0  0  0  0  0  0
  140.3970   77.6050  218.6730 C   0  0  0  0  0  0  0  0  0  0  0  0
  141.6430   78.3000  219.1910 C   0  0  0  0  0  0  0  0  0  0  0  0
  142.1880   77.4630  220.3140 C   0  0  0  0  0  0  0  0  0  0  0  0
  141.2180   77.3560  221.4690 C   0  0  1  0  0  0  0  0  0  0  0  0
  141.1370   78.6060  222.2520 C   0  0  0  0  0  0  0  0  0  0  0  0
  142.3050   79.3160  222.4450 C   0  0  0  0  0  0  0  0  0  0  0  0
  142.2970   80.5080  223.1780 C   0  0  0  0  0  0  0  0  0  0  0  0
  141.1200   80.9890  223.7180 C   0  0  0  0  0  0  0  0  0  0  0  0
  139.9770   80.2590  223.5090 C   0  0  0  0  0  0  0  0  0  0  0  0
  138.4900   80.8950  224.2090 Cl  0  0  0  0  0  0  0  0  0  0  0  0
  139.9480   79.0800  222.7910 C   0  0  0  0  0  0  0  0  0  0  0  0
  140.2720   71.5650  223.6670 C   0  0  0  0  0  0  0  0  0  0  0  0
  139.6090   70.3610  223.4940 C   0  0  0  0  0  0  0  0  0  0  0  0
  139.3940   69.4990  224.5570 C   0  0  0  0  0  0  0  0  0  0  0  0
  139.8620   69.8740  225.7980 C   0  0  0  0  0  0  0  0  0  0  0  0
  139.6610   69.0310  226.8760 C   0  0  0  0  0  0  0  0  0  0  0  0
  140.1420   69.4320  228.1140 C   0  0  0  0  0  0  0  0  0  0  0  0
  140.8030   70.6290  228.2870 C   0  0  0  0  0  0  0  0  0  0  0  0
  141.0080   71.4790  227.2100 C   0  0  0  0  0  0  0  0  0  0  0  0
  140.5250   71.0750  225.9730 C   0  0  0  0  0  0  0  0  0  0  0  0
  140.7050   71.8730  224.9040 N   0  0  0  0  0  0  0  0  0  0  0  0
  138.7910   73.6630  223.0720 H   0  0  0  0  0  0  0  0  0  0  0  0
  140.7827   74.5021  220.9655 H   0  0  0  0  0  0  0  0  0  0  0  0
  139.1090   74.0675  220.4094 H   0  0  0  0  0  0  0  0  0  0  0  0
  138.4437   77.1855  219.5109 H   0  0  0  0  0  0  0  0  0  0  0  0
  139.2081   78.6909  220.1229 H   0  0  0  0  0  0  0  0  0  0  0  0
  140.6240   76.5644  218.3981 H   0  0  0  0  0  0  0  0  0  0  0  0
  140.0015   78.0966  217.7720 H   0  0  0  0  0  0  0  0  0  0  0  0
  142.3893   78.3831  218.3871 H   0  0  0  0  0  0  0  0  0  0  0  0
  141.4051   79.3150  219.5420 H   0  0  0  0  0  0  0  0  0  0  0  0
  142.3982   76.4527  219.9331 H   0  0  0  0  0  0  0  0  0  0  0  0
  143.1024   77.9492  220.6847 H   0  0  0  0  0  0  0  0  0  0  0  0
  141.5894   76.6049  222.1816 H   0  0  0  0  0  0  0  0  0  0  0  0
  143.2482   78.9423  222.0198 H   0  0  0  0  0  0  0  0  0  0  0  0
  143.2338   81.0655  223.3251 H   0  0  0  0  0  0  0  0  0  0  0  0
  141.0997   81.9249  224.2956 H   0  0  0  0  0  0  0  0  0  0  0  0
  139.0062   78.5296  222.6493 H   0  0  0  0  0  0  0  0  0  0  0  0
  139.2462   70.0840  222.4932 H   0  0  0  0  0  0  0  0  0  0  0  0
  138.8660   68.5445  224.4150 H   0  0  0  0  0  0  0  0  0  0  0  0
  139.1358   68.0720  226.7554 H   0  0  0  0  0  0  0  0  0  0  0  0
  139.9914   68.7751  228.9833 H   0  0  0  0  0  0  0  0  0  0  0  0
  141.1700   70.9119  229.2846 H   0  0  0  0  0  0  0  0  0  0  0  0
  141.5338   72.4375  227.3318 H   0  0  0  0  0  0  0  0  0  0  0  0
  1  2  2  0
  2  3  1  0
  3  4  1  0
  4  5  1  0
  5  6  2  0
  5  7  1  0
  7  8  1  0
  8  9  1  0
  9 10  1  0
 10 11  1  0
 11 12  1  0
 12 13  1  0
 13 14  2  0
 14 15  1  0
 15 16  2  0
 16 17  1  0
 17 18  1  0
 17 19  2  0
  2 20  1  0
 20 21  2  0
 21 22  1  0
 22 23  2  0
 23 24  1  0
 24 25  2  0
 25 26  1  0
 26 27  2  0
 27 28  1  0
 28 29  2  0
 12  7  1  0
 19 13  1  0
 29 20  1  0
 28 23  1  0
  3 30  1  0
  4 31  1  0
  4 32  1  0
  8 33  1  0
  8 34  1  0
  9 35  1  0
  9 36  1  0
 10 37  1  0
 10 38  1  0
 11 39  1  0
 11 40  1  0
 12 41  1  1
 14 42  1  0
 15 43  1  0
 16 44  1  0
 19 45  1  0
 21 46  1  0
 22 47  1  0
 24 48  1  0
 25 49  1  0
 26 50  1  0
 27 51  1  0
M  END
>  <smiles>  (8) 
O=C(NCC(=O)N1CCCC[C@H]1c1cccc(Cl)c1)c1ccc2ccccc2n1

>  <score_type>  (8) 
oracle

>  <origin>  (8) 
autodockgpu

>  <m_score__min__energy>  (8) 
-9.3300000000000001

>  <m_primary>  (8) 
energy

>  <meeko>  (8) 
{"free_energy": -9.3, "intermolecular_energy": -10.79, "internal_energy": -1.63, "cluster_size": 14, "cluster_id": 1, "rank_in_cluster": 3}

>  <energy>  (8) 
-9.17

>  <cluster_rmsd>  (8) 
0.35

>  <rmsd>  (8) 
271.37

>  <cluster>  (8) 
1

$$$$

     RDKit          3D

 51 54  0  0  0  0  0  0  0  0999 V2000
  140.1240   71.6070  221.4170 O   0  0  0  0  0  0  0  0  0  0  0  0
  139.4240   71.8680  222.4360 C   0  0  0  0  0  0  0  0  0  0  0  0
  138.3410   72.7990  222.3820 N   0  0  0  0  0  0  0  0  0  0  0  0
  138.0230   73.4690  221.1360 C   0  0  0  0  0  0  0  0  0  0  0  0
  137.9420   74.9380  221.2980 C   0  0  0  0  0  0  0  0  0  0  0  0
  136.8730   75.4690  221.7130 O   0  0  0  0  0  0  0  0  0  0  0  0
  139.0980   75.6990  220.9740 N   0  0  0  0  0  0  0  0  0  0  0  0
  139.3140   76.2670  219.6430 C   0  0  0  0  0  0  0  0  0  0  0  0
  140.6470   75.7560  219.0790 C   0  0  0  0  0  0  0  0  0  0  0  0
  141.7140   76.2610  220.0330 C   0  0  0  0  0  0  0  0  0  0  0  0
  141.4810   75.5950  221.3600 C   0  0  0  0  0  0  0  0  0  0  0  0
  140.1380   75.9570  221.9530 C   0  0  1  0  0  0  0  0  0  0  0  0
  140.1110   77.3360  222.4820 C   0  0  0  0  0  0  0  0  0  0  0  0
  138.8760   77.9020  222.7260 C   0  0  0  0  0  0  0  0  0  0  0  0
  138.7800   79.2050  223.2270 C   0  0  0  0  0  0  0  0  0  0  0  0
  139.9190   79.9420  223.4830 C   0  0  0  0  0  0  0  0  0  0  0  0
  141.1310   79.3500  223.2280 C   0  0  0  0  0  0  0  0  0  0  0  0
  142.5700   80.3130  223.5630 Cl  0  0  0  0  0  0  0  0  0  0  0  0
  141.2630   78.0680  222.7350 C   0  0  0  0  0  0  0  0  0  0  0  0
  139.6920   71.2250  223.7240 C   0  0  0  0  0  0  0  0  0  0  0  0
  139.3680   69.8900  223.9020 C   0  0  0  0  0  0  0  0  0  0  0  0
  139.6060   69.2470  225.1060 C   0  0  0  0  0  0  0  0  0  0  0  0
  140.1780   69.9760  226.1270 C   0  0  0  0  0  0  0  0  0  0  0  0
  140.4270   69.3580  227.3380 C   0  0  0  0  0  0  0  0  0  0  0  0
  141.0020   70.1140  228.3490 C   0  0  0  0  0  0  0  0  0  0  0  0
  141.3250   71.4420  228.1720 C   0  0  0  0  0  0  0  0  0  0  0  0
  141.0790   72.0690  226.9590 C   0  0  0  0  0  0  0  0  0  0  0  0
  140.5020   71.3090  225.9500 C   0  0  0  0  0  0  0  0  0  0  0  0
  140.2480   71.8820  224.7590 N   0  0  0  0  0  0  0  0  0  0  0  0
  137.7820   72.9840  223.2670 H   0  0  0  0  0  0  0  0  0  0  0  0
  138.8052   73.2362  220.3985 H   0  0  0  0  0  0  0  0  0  0  0  0
  137.0386   73.1107  220.8007 H   0  0  0  0  0  0  0  0  0  0  0  0
  138.4932   75.9627  218.9769 H   0  0  0  0  0  0  0  0  0  0  0  0
  139.3419   77.3644  219.7127 H   0  0  0  0  0  0  0  0  0  0  0  0
  140.6528   74.6566  219.0436 H   0  0  0  0  0  0  0  0  0  0  0  0
  140.8177   76.1117  218.0522 H   0  0  0  0  0  0  0  0  0  0  0  0
  142.7127   76.0012  219.6520 H   0  0  0  0  0  0  0  0  0  0  0  0
  141.6601   77.3552  220.1325 H   0  0  0  0  0  0  0  0  0  0  0  0
  141.5248   74.5046  221.2216 H   0  0  0  0  0  0  0  0  0  0  0  0
  142.2610   75.9423  222.0536 H   0  0  0  0  0  0  0  0  0  0  0  0
  139.9485   75.3189  222.8287 H   0  0  0  0  0  0  0  0  0  0  0  0
  137.9612   77.3250  222.5253 H   0  0  0  0  0  0  0  0  0  0  0  0
  137.7902   79.6451  223.4182 H   0  0  0  0  0  0  0  0  0  0  0  0
  139.8575   80.9671  223.8773 H   0  0  0  0  0  0  0  0  0  0  0  0
  142.2572   77.6364  222.5470 H   0  0  0  0  0  0  0  0  0  0  0  0
  138.9132   69.3298  223.0718 H   0  0  0  0  0  0  0  0  0  0  0  0
  139.3465   68.1869  225.2432 H   0  0  0  0  0  0  0  0  0  0  0  0
  140.1767   68.2985  227.4953 H   0  0  0  0  0  0  0  0  0  0  0  0
  141.2061   69.6397  229.3203 H   0  0  0  0  0  0  0  0  0  0  0  0
  141.7807   72.0084  228.9975 H   0  0  0  0  0  0  0  0  0  0  0  0
  141.3315   73.1281  226.8024 H   0  0  0  0  0  0  0  0  0  0  0  0
  1  2  2  0
  2  3  1  0
  3  4  1  0
  4  5  1  0
  5  6  2  0
  5  7  1  0
  7  8  1  0
  8  9  1  0
  9 10  1  0
 10 11  1  0
 11 12  1  0
 12 13  1  0
 13 14  2  0
 14 15  1  0
 15 16  2  0
 16 17  1  0
 17 18  1  0
 17 19  2  0
  2 20  1  0
 20 21  2  0
 21 22  1  0
 22 23  2  0
 23 24  1  0
 24 25  2  0
 25 26  1  0
 26 27  2  0
 27 28  1  0
 28 29  2  0
 12  7  1  0
 19 13  1  0
 29 20  1  0
 28 23  1  0
  3 30  1  0
  4 31  1  0
  4 32  1  0
  8 33  1  0
  8 34  1  0
  9 35  1  0
  9 36  1  0
 10 37  1  0
 10 38  1  0
 11 39  1  0
 11 40  1  0
 12 41  1  1
 14 42  1  0
 15 43  1  0
 16 44  1  0
 19 45  1  0
 21 46  1  0
 22 47  1  0
 24 48  1  0
 25 49  1  0
 26 50  1  0
 27 51  1  0
M  END
>  <smiles>  (9) 
O=C(NCC(=O)N1CCCC[C@H]1c1cccc(Cl)c1)c1ccc2ccccc2n1

>  <score_type>  (9) 
oracle

>  <origin>  (9) 
autodockgpu

>  <m_score__min__energy>  (9) 
-9.3300000000000001

>  <m_primary>  (9) 
energy

>  <meeko>  (9) 
{"free_energy": -8.79, "intermolecular_energy": -10.28, "internal_energy": -1.64, "cluster_size": 14, "cluster_id": 1, "rank_in_cluster": 13}

>  <energy>  (9) 
-9.15

>  <cluster_rmsd>  (9) 
0.99

>  <rmsd>  (9) 
271.32

>  <cluster>  (9) 
1

$$$$

     RDKit          3D

 51 54  0  0  0  0  0  0  0  0999 V2000
  139.9130   75.9320  219.9240 O   0  0  0  0  0  0  0  0  0  0  0  0
  140.7370   76.2590  220.8230 C   0  0  0  0  0  0  0  0  0  0  0  0
  141.4570   75.2790  221.5720 N   0  0  0  0  0  0  0  0  0  0  0  0
  141.2490   73.8680  221.3070 C   0  0  0  0  0  0  0  0  0  0  0  0
  140.0310   73.3500  221.9690 C   0  0  0  0  0  0  0  0  0  0  0  0
  139.1200   74.1480  222.3280 O   0  0  0  0  0  0  0  0  0  0  0  0
  139.9430   71.9460  222.1730 N   0  0  0  0  0  0  0  0  0  0  0  0
  140.7420   70.9910  221.4050 C   0  0  0  0  0  0  0  0  0  0  0  0
  139.8100   69.9960  220.7000 C   0  0  0  0  0  0  0  0  0  0  0  0
  139.0700   69.2710  221.8110 C   0  0  0  0  0  0  0  0  0  0  0  0
  138.2200   70.2880  222.5200 C   0  0  0  0  0  0  0  0  0  0  0  0
  139.0480   71.3760  223.1640 C   0  0  1  0  0  0  0  0  0  0  0  0
  139.7470   70.9060  224.3780 C   0  0  0  0  0  0  0  0  0  0  0  0
  140.6820   71.7500  224.9440 C   0  0  0  0  0  0  0  0  0  0  0  0
  141.3800   71.3650  226.0940 C   0  0  0  0  0  0  0  0  0  0  0  0
  141.1410   70.1370  226.6790 C   0  0  0  0  0  0  0  0  0  0  0  0
  140.2060   69.3220  226.0920 C   0  0  0  0  0  0  0  0  0  0  0  0
  139.9210   67.7600  226.8580 Cl  0  0  0  0  0  0  0  0  0  0  0  0
  139.5000   69.6690  224.9580 C   0  0  0  0  0  0  0  0  0  0  0  0
  140.9950   77.6660  221.1390 C   0  0  0  0  0  0  0  0  0  0  0  0
  140.7480   78.6380  220.1840 C   0  0  0  0  0  0  0  0  0  0  0  0
  140.9780   79.9790  220.4460 C   0  0  0  0  0  0  0  0  0  0  0  0
  141.4630   80.3210  221.6910 C   0  0  0  0  0  0  0  0  0  0  0  0
  141.7010   81.6520  221.9790 C   0  0  0  0  0  0  0  0  0  0  0  0
  142.1880   81.9690  223.2390 C   0  0  0  0  0  0  0  0  0  0  0  0
  142.4330   81.0020  224.1900 C   0  0  0  0  0  0  0  0  0  0  0  0
  142.1960   79.6640  223.9080 C   0  0  0  0  0  0  0  0  0  0  0  0
  141.7090   79.3510  222.6460 C   0  0  0  0  0  0  0  0  0  0  0  0
  141.4660   78.0640  222.3360 N   0  0  0  0  0  0  0  0  0  0  0  0
  142.1400   75.6050  222.3180 H   0  0  0  0  0  0  0  0  0  0  0  0
  141.1517   73.7218  220.2211 H   0  0  0  0  0  0  0  0  0  0  0  0
  142.1125   73.3174  221.7086 H   0  0  0  0  0  0  0  0  0  0  0  0
  141.3375   71.5311  220.6542 H   0  0  0  0  0  0  0  0  0  0  0  0
  141.4150   70.4462  222.0834 H   0  0  0  0  0  0  0  0  0  0  0  0
  139.1003   70.5290  220.0502 H   0  0  0  0  0  0  0  0  0  0  0  0
  140.3696   69.2974  220.0606 H   0  0  0  0  0  0  0  0  0  0  0  0
  138.4347   68.4799  221.3862 H   0  0  0  0  0  0  0  0  0  0  0  0
  139.7788   68.8014  222.5089 H   0  0  0  0  0  0  0  0  0  0  0  0
  137.5362   70.7478  221.7913 H   0  0  0  0  0  0  0  0  0  0  0  0
  137.6668   69.7689  223.3166 H   0  0  0  0  0  0  0  0  0  0  0  0
  138.3787   72.1736  223.5188 H   0  0  0  0  0  0  0  0  0  0  0  0
  140.8794   72.7313  224.4879 H   0  0  0  0  0  0  0  0  0  0  0  0
  142.1239   72.0448  226.5349 H   0  0  0  0  0  0  0  0  0  0  0  0
  141.6815   69.8231  227.5842 H   0  0  0  0  0  0  0  0  0  0  0  0
  138.7590   68.9816  224.5239 H   0  0  0  0  0  0  0  0  0  0  0  0
  140.3617   78.3396  219.1982 H   0  0  0  0  0  0  0  0  0  0  0  0
  140.7798   80.7474  219.6843 H   0  0  0  0  0  0  0  0  0  0  0  0
  141.5100   82.4362  221.2317 H   0  0  0  0  0  0  0  0  0  0  0  0
  142.3843   83.0228  223.4861 H   0  0  0  0  0  0  0  0  0  0  0  0
  142.8187   81.2925  225.1784 H   0  0  0  0  0  0  0  0  0  0  0  0
  142.3868   78.8807  224.6563 H   0  0  0  0  0  0  0  0  0  0  0  0
  1  2  2  0
  2  3  1  0
  3  4  1  0
  4  5  1  0
  5  6  2  0
  5  7  1  0
  7  8  1  0
  8  9  1  0
  9 10  1  0
 10 11  1  0
 11 12  1  0
 12 13  1  0
 13 14  2  0
 14 15  1  0
 15 16  2  0
 16 17  1  0
 17 18  1  0
 17 19  2  0
  2 20  1  0
 20 21  2  0
 21 22  1  0
 22 23  2  0
 23 24  1  0
 24 25  2  0
 25 26  1  0
 26 27  2  0
 27 28  1  0
 28 29  2  0
 12  7  1  0
 19 13  1  0
 29 20  1  0
 28 23  1  0
  3 30  1  0
  4 31  1  0
  4 32  1  0
  8 33  1  0
  8 34  1  0
  9 35  1  0
  9 36  1  0
 10 37  1  0
 10 38  1  0
 11 39  1  0
 11 40  1  0
 12 41  1  1
 14 42  1  0
 15 43  1  0
 16 44  1  0
 19 45  1  0
 21 46  1  0
 22 47  1  0
 24 48  1  0
 25 49  1  0
 26 50  1  0
 27 51  1  0
M  END
>  <smiles>  (10) 
O=C(NCC(=O)N1CCCC[C@H]1c1cccc(Cl)c1)c1ccc2ccccc2n1

>  <score_type>  (10) 
oracle

>  <origin>  (10) 
autodockgpu

>  <m_score__min__energy>  (10) 
-9.3300000000000001

>  <m_primary>  (10) 
energy

>  <meeko>  (10) 
{"free_energy": -8.47, "intermolecular_energy": -9.96, "internal_energy": -1.6, "cluster_size": 3, "cluster_id": 3, "rank_in_cluster": 3}

>  <energy>  (10) 
-9.11

>  <cluster_rmsd>  (10) 
0.45

>  <rmsd>  (10) 
271.37

>  <cluster>  (10) 
1

$$$$

     RDKit          3D

 51 54  0  0  0  0  0  0  0  0999 V2000
  140.7710   71.5970  221.2950 O   0  0  0  0  0  0  0  0  0  0  0  0
  140.3010   72.1280  222.3400 C   0  0  0  0  0  0  0  0  0  0  0  0
  139.8340   73.4790  222.3490 N   0  0  0  0  0  0  0  0  0  0  0  0
  139.8930   74.2740  221.1380 C   0  0  0  0  0  0  0  0  0  0  0  0
  139.2580   75.6000  221.3100 C   0  0  0  0  0  0  0  0  0  0  0  0
  138.1530   75.6960  221.9150 O   0  0  0  0  0  0  0  0  0  0  0  0
  139.9380   76.7270  220.7750 N   0  0  0  0  0  0  0  0  0  0  0  0
  139.3980   77.5150  219.6670 C   0  0  0  0  0  0  0  0  0  0  0  0
  140.4110   77.5410  218.5160 C   0  0  0  0  0  0  0  0  0  0  0  0
  141.6480   78.2210  219.0750 C   0  0  0  0  0  0  0  0  0  0  0  0
  142.1940   77.3360  220.1600 C   0  0  0  0  0  0  0  0  0  0  0  0
  141.2180   77.1630  221.3020 C   0  0  1  0  0  0  0  0  0  0  0  0
  141.1200   78.3730  222.1440 C   0  0  0  0  0  0  0  0  0  0  0  0
  142.2790   79.0870  222.3740 C   0  0  0  0  0  0  0  0  0  0  0  0
  142.2540   80.2420  223.1640 C   0  0  0  0  0  0  0  0  0  0  0  0
  141.0710   80.6820  223.7240 C   0  0  0  0  0  0  0  0  0  0  0  0
  139.9370   79.9490  223.4760 C   0  0  0  0  0  0  0  0  0  0  0  0
  138.4410   80.5320  224.2030 Cl  0  0  0  0  0  0  0  0  0  0  0  0
  139.9250   78.8060  222.7030 C   0  0  0  0  0  0  0  0  0  0  0  0
  140.2110   71.3800  223.5960 C   0  0  0  0  0  0  0  0  0  0  0  0
  139.6460   70.1150  223.6000 C   0  0  0  0  0  0  0  0  0  0  0  0
  139.5440   69.3770  224.7680 C   0  0  0  0  0  0  0  0  0  0  0  0
  140.0250   69.9380  225.9320 C   0  0  0  0  0  0  0  0  0  0  0  0
  139.9360   69.2220  227.1110 C   0  0  0  0  0  0  0  0  0  0  0  0
  140.4270   69.8100  228.2690 C   0  0  0  0  0  0  0  0  0  0  0  0
  140.9910   71.0670  228.2650 C   0  0  0  0  0  0  0  0  0  0  0  0
  141.0830   71.7920  227.0850 C   0  0  0  0  0  0  0  0  0  0  0  0
  140.5900   71.2010  225.9290 C   0  0  0  0  0  0  0  0  0  0  0  0
  140.6630   71.8720  224.7650 N   0  0  0  0  0  0  0  0  0  0  0  0
  139.4470   73.8800  223.2540 H   0  0  0  0  0  0  0  0  0  0  0  0
  140.9474   74.4192  220.8602 H   0  0  0  0  0  0  0  0  0  0  0  0
  139.3434   73.7350  220.3522 H   0  0  0  0  0  0  0  0  0  0  0  0
  138.4585   77.0614  219.3183 H   0  0  0  0  0  0  0  0  0  0  0  0
  139.2048   78.5427  220.0083 H   0  0  0  0  0  0  0  0  0  0  0  0
  140.6493   76.5174  218.1913 H   0  0  0  0  0  0  0  0  0  0  0  0
  140.0158   78.0734  217.6383 H   0  0  0  0  0  0  0  0  0  0  0  0
  142.3982   78.3491  218.2808 H   0  0  0  0  0  0  0  0  0  0  0  0
  141.3988   79.2157  219.4730 H   0  0  0  0  0  0  0  0  0  0  0  0
  142.4171   76.3475  219.7320 H   0  0  0  0  0  0  0  0  0  0  0  0
  143.1007   77.8131  220.5603 H   0  0  0  0  0  0  0  0  0  0  0  0
  141.5921   76.3812  221.9794 H   0  0  0  0  0  0  0  0  0  0  0  0
  143.2277   78.7461  221.9338 H   0  0  0  0  0  0  0  0  0  0  0  0
  143.1835   80.8033  223.3401 H   0  0  0  0  0  0  0  0  0  0  0  0
  141.0384   81.5880  224.3469 H   0  0  0  0  0  0  0  0  0  0  0  0
  138.9906   78.2508  222.5336 H   0  0  0  0  0  0  0  0  0  0  0  0
  139.2712   69.6885  222.6579 H   0  0  0  0  0  0  0  0  0  0  0  0
  139.0929   68.3737  224.7668 H   0  0  0  0  0  0  0  0  0  0  0  0
  139.4897   68.2168  227.1312 H   0  0  0  0  0  0  0  0  0  0  0  0
  140.3639   69.2561  229.2173 H   0  0  0  0  0  0  0  0  0  0  0  0
  141.3707   71.4987  229.2028 H   0  0  0  0  0  0  0  0  0  0  0  0
  141.5297   72.7971  227.0662 H   0  0  0  0  0  0  0  0  0  0  0  0
  1  2  2  0
  2  3  1  0
  3  4  1  0
  4  5  1  0
  5  6  2  0
  5  7  1  0
  7  8  1  0
  8  9  1  0
  9 10  1  0
 10 11  1  0
 11 12  1  0
 12 13  1  0
 13 14  2  0
 14 15  1  0
 15 16  2  0
 16 17  1  0
 17 18  1  0
 17 19  2  0
  2 20  1  0
 20 21  2  0
 21 22  1  0
 22 23  2  0
 23 24  1  0
 24 25  2  0
 25 26  1  0
 26 27  2  0
 27 28  1  0
 28 29  2  0
 12  7  1  0
 19 13  1  0
 29 20  1  0
 28 23  1  0
  3 30  1  0
  4 31  1  0
  4 32  1  0
  8 33  1  0
  8 34  1  0
  9 35  1  0
  9 36  1  0
 10 37  1  0
 10 38  1  0
 11 39  1  0
 11 40  1  0
 12 41  1  1
 14 42  1  0
 15 43  1  0
 16 44  1  0
 19 45  1  0
 21 46  1  0
 22 47  1  0
 24 48  1  0
 25 49  1  0
 26 50  1  0
 27 51  1  0
M  END
>  <smiles>  (11) 
O=C(NCC(=O)N1CCCC[C@H]1c1cccc(Cl)c1)c1ccc2ccccc2n1

>  <score_type>  (11) 
oracle

>  <origin>  (11) 
autodockgpu

>  <m_score__min__energy>  (11) 
-9.3300000000000001

>  <m_primary>  (11) 
energy

>  <meeko>  (11) 
{"free_energy": -9.17, "intermolecular_energy": -10.66, "internal_energy": -1.62, "cluster_size": 14, "cluster_id": 1, "rank_in_cluster": 8}

>  <energy>  (11) 
-9.09

>  <cluster_rmsd>  (11) 
1.12

>  <rmsd>  (11) 
271.3

>  <cluster>  (11) 
1

$$$$

     RDKit          3D

 51 54  0  0  0  0  0  0  0  0999 V2000
  138.5930   75.5680  221.7700 O   0  0  0  0  0  0  0  0  0  0  0  0
  139.7880   75.9640  221.8780 C   0  0  0  0  0  0  0  0  0  0  0  0
  140.8890   75.1260  221.5220 N   0  0  0  0  0  0  0  0  0  0  0  0
  140.6490   73.7860  221.0240 C   0  0  0  0  0  0  0  0  0  0  0  0
  141.8350   72.9140  221.1720 C   0  0  0  0  0  0  0  0  0  0  0  0
  141.8060   71.9390  221.9750 O   0  0  0  0  0  0  0  0  0  0  0  0
  142.9780   73.2220  220.3850 N   0  0  0  0  0  0  0  0  0  0  0  0
  143.4910   72.3140  219.3590 C   0  0  0  0  0  0  0  0  0  0  0  0
  144.9580   71.9790  219.6610 C   0  0  0  0  0  0  0  0  0  0  0  0
  145.7010   73.3020  219.5940 C   0  0  0  0  0  0  0  0  0  0  0  0
  145.1790   74.1650  220.7080 C   0  0  0  0  0  0  0  0  0  0  0  0
  143.7050   74.4670  220.5540 C   0  0  1  0  0  0  0  0  0  0  0  0
  143.4410   75.4470  219.4810 C   0  0  0  0  0  0  0  0  0  0  0  0
  143.6930   75.0550  218.1820 C   0  0  0  0  0  0  0  0  0  0  0  0
  143.4640   75.9360  217.1190 C   0  0  0  0  0  0  0  0  0  0  0  0
  142.9840   77.2090  217.3560 C   0  0  0  0  0  0  0  0  0  0  0  0
  142.7450   77.5670  218.6590 C   0  0  0  0  0  0  0  0  0  0  0  0
  142.1340   79.1980  218.9340 Cl  0  0  0  0  0  0  0  0  0  0  0  0
  142.9590   76.7250  219.7310 C   0  0  0  0  0  0  0  0  0  0  0  0
  140.1000   77.3060  222.3730 C   0  0  0  0  0  0  0  0  0  0  0  0
  139.0700   78.1490  222.7590 C   0  0  0  0  0  0  0  0  0  0  0  0
  139.3250   79.4250  223.2330 C   0  0  0  0  0  0  0  0  0  0  0  0
  140.6390   79.8360  223.3110 C   0  0  0  0  0  0  0  0  0  0  0  0
  140.9220   81.1050  223.7810 C   0  0  0  0  0  0  0  0  0  0  0  0
  142.2520   81.4930  223.8490 C   0  0  0  0  0  0  0  0  0  0  0  0
  143.2770   80.6550  223.4660 C   0  0  0  0  0  0  0  0  0  0  0  0
  143.0010   79.3800  222.9930 C   0  0  0  0  0  0  0  0  0  0  0  0
  141.6690   78.9950  222.9260 C   0  0  0  0  0  0  0  0  0  0  0  0
  141.3610   77.7650  222.4730 N   0  0  0  0  0  0  0  0  0  0  0  0
  141.8760   75.5050  221.6300 H   0  0  0  0  0  0  0  0  0  0  0  0
  139.8123   73.3442  221.5850 H   0  0  0  0  0  0  0  0  0  0  0  0
  140.4167   73.8609  219.9514 H   0  0  0  0  0  0  0  0  0  0  0  0
  142.8962   71.3887  219.3574 H   0  0  0  0  0  0  0  0  0  0  0  0
  143.4201   72.7966  218.3730 H   0  0  0  0  0  0  0  0  0  0  0  0
  145.0522   71.5360  220.6634 H   0  0  0  0  0  0  0  0  0  0  0  0
  145.3639   71.2475  218.9467 H   0  0  0  0  0  0  0  0  0  0  0  0
  146.7806   73.1343  219.7221 H   0  0  0  0  0  0  0  0  0  0  0  0
  145.5445   73.7875  218.6194 H   0  0  0  0  0  0  0  0  0  0  0  0
  145.3358   73.6432  221.6636 H   0  0  0  0  0  0  0  0  0  0  0  0
  145.7242   75.1200  220.6792 H   0  0  0  0  0  0  0  0  0  0  0  0
  143.3403   74.9540  221.4704 H   0  0  0  0  0  0  0  0  0  0  0  0
  144.0762   74.0437  217.9809 H   0  0  0  0  0  0  0  0  0  0  0  0
  143.6678   75.6123  216.0877 H   0  0  0  0  0  0  0  0  0  0  0  0
  142.7998   77.9112  216.5296 H   0  0  0  0  0  0  0  0  0  0  0  0
  142.7527   77.0581  220.7589 H   0  0  0  0  0  0  0  0  0  0  0  0
  138.0300   77.7979  222.6875 H   0  0  0  0  0  0  0  0  0  0  0  0
  138.5041   80.0906  223.5381 H   0  0  0  0  0  0  0  0  0  0  0  0
  140.1165   81.7866  224.0918 H   0  0  0  0  0  0  0  0  0  0  0  0
  142.4959   82.4995  224.2197 H   0  0  0  0  0  0  0  0  0  0  0  0
  144.3196   80.9988  223.5357 H   0  0  0  0  0  0  0  0  0  0  0  0
  143.8077   78.6997  222.6827 H   0  0  0  0  0  0  0  0  0  0  0  0
  1  2  2  0
  2  3  1  0
  3  4  1  0
  4  5  1  0
  5  6  2  0
  5  7  1  0
  7  8  1  0
  8  9  1  0
  9 10  1  0
 10 11  1  0
 11 12  1  0
 12 13  1  0
 13 14  2  0
 14 15  1  0
 15 16  2  0
 16 17  1  0
 17 18  1  0
 17 19  2  0
  2 20  1  0
 20 21  2  0
 21 22  1  0
 22 23  2  0
 23 24  1  0
 24 25  2  0
 25 26  1  0
 26 27  2  0
 27 28  1  0
 28 29  2  0
 12  7  1  0
 19 13  1  0
 29 20  1  0
 28 23  1  0
  3 30  1  0
  4 31  1  0
  4 32  1  0
  8 33  1  0
  8 34  1  0
  9 35  1  0
  9 36  1  0
 10 37  1  0
 10 38  1  0
 11 39  1  0
 11 40  1  0
 12 41  1  1
 14 42  1  0
 15 43  1  0
 16 44  1  0
 19 45  1  0
 21 46  1  0
 22 47  1  0
 24 48  1  0
 25 49  1  0
 26 50  1  0
 27 51  1  0
M  END
>  <smiles>  (12) 
O=C(NCC(=O)N1CCCC[C@H]1c1cccc(Cl)c1)c1ccc2ccccc2n1

>  <score_type>  (12) 
oracle

>  <origin>  (12) 
autodockgpu

>  <m_score__min__energy>  (12) 
-9.3300000000000001

>  <m_primary>  (12) 
energy

>  <meeko>  (12) 
{"free_energy": -8.0, "intermolecular_energy": -9.49, "internal_energy": -2.31, "cluster_size": 1, "cluster_id": 4, "rank_in_cluster": 1}

>  <energy>  (12) 
-8.94

>  <cluster_rmsd>  (12) 
0.71

>  <rmsd>  (12) 
271.34

>  <cluster>  (12) 
1

$$$$

     RDKit          3D

 51 54  0  0  0  0  0  0  0  0999 V2000
  138.9890   70.7560  221.3640 O   0  0  0  0  0  0  0  0  0  0  0  0
  139.1670   71.4360  222.4130 C   0  0  0  0  0  0  0  0  0  0  0  0
  139.0750   72.8620  222.4060 N   0  0  0  0  0  0  0  0  0  0  0  0
  138.7720   73.5630  221.1740 C   0  0  0  0  0  0  0  0  0  0  0  0
  139.0280   75.0160  221.2800 C   0  0  0  0  0  0  0  0  0  0  0  0
  138.0910   75.8010  221.6000 O   0  0  0  0  0  0  0  0  0  0  0  0
  140.3490   75.4700  221.0140 N   0  0  0  0  0  0  0  0  0  0  0  0
  141.0340   76.4360  221.8740 C   0  0  0  0  0  0  0  0  0  0  0  0
  141.4590   77.6520  221.0400 C   0  0  0  0  0  0  0  0  0  0  0  0
  142.4250   77.1150  219.9980 C   0  0  0  0  0  0  0  0  0  0  0  0
  141.6510   76.1830  219.1080 C   0  0  0  0  0  0  0  0  0  0  0  0
  141.0990   74.9970  219.8650 C   0  0  1  0  0  0  0  0  0  0  0  0
  142.1470   74.0170  220.2170 C   0  0  0  0  0  0  0  0  0  0  0  0
  141.7530   72.7140  220.4440 C   0  0  0  0  0  0  0  0  0  0  0  0
  142.6950   71.7360  220.7810 C   0  0  0  0  0  0  0  0  0  0  0  0
  144.0330   72.0630  220.8910 C   0  0  0  0  0  0  0  0  0  0  0  0
  144.3910   73.3670  220.6590 C   0  0  0  0  0  0  0  0  0  0  0  0
  146.1040   73.7570  220.8070 Cl  0  0  0  0  0  0  0  0  0  0  0  0
  143.4890   74.3560  220.3250 C   0  0  0  0  0  0  0  0  0  0  0  0
  139.4750   70.7910  223.6910 C   0  0  0  0  0  0  0  0  0  0  0  0
  139.2490   69.4330  223.8440 C   0  0  0  0  0  0  0  0  0  0  0  0
  139.5290   68.7860  225.0370 C   0  0  0  0  0  0  0  0  0  0  0  0
  140.0410   69.5360  226.0740 C   0  0  0  0  0  0  0  0  0  0  0  0
  140.3300   68.9160  227.2750 C   0  0  0  0  0  0  0  0  0  0  0  0
  140.8440   69.6940  228.3030 C   0  0  0  0  0  0  0  0  0  0  0  0
  141.0700   71.0450  228.1510 C   0  0  0  0  0  0  0  0  0  0  0  0
  140.7840   71.6740  226.9480 C   0  0  0  0  0  0  0  0  0  0  0  0
  140.2680   70.8930  225.9230 C   0  0  0  0  0  0  0  0  0  0  0  0
  139.9780   71.4670  224.7400 N   0  0  0  0  0  0  0  0  0  0  0  0
  139.2330   73.3890  223.3160 H   0  0  0  0  0  0  0  0  0  0  0  0
  139.3980   73.1509  220.3688 H   0  0  0  0  0  0  0  0  0  0  0  0
  137.7020   73.4235  220.9606 H   0  0  0  0  0  0  0  0  0  0  0  0
  140.3538   76.7605  222.6752 H   0  0  0  0  0  0  0  0  0  0  0  0
  141.9244   75.9658  222.3169 H   0  0  0  0  0  0  0  0  0  0  0  0
  140.5844   78.1087  220.5536 H   0  0  0  0  0  0  0  0  0  0  0  0
  141.9236   78.4306  221.6629 H   0  0  0  0  0  0  0  0  0  0  0  0
  142.8386   77.9444  219.4054 H   0  0  0  0  0  0  0  0  0  0  0  0
  143.2625   76.5881  220.4787 H   0  0  0  0  0  0  0  0  0  0  0  0
  140.8138   76.7367  218.6580 H   0  0  0  0  0  0  0  0  0  0  0  0
  142.3388   75.8020  218.3388 H   0  0  0  0  0  0  0  0  0  0  0  0
  140.4091   74.4439  219.2107 H   0  0  0  0  0  0  0  0  0  0  0  0
  140.6904   72.4423  220.3593 H   0  0  0  0  0  0  0  0  0  0  0  0
  142.3686   70.7008  220.9594 H   0  0  0  0  0  0  0  0  0  0  0  0
  144.7846   71.3046  221.1553 H   0  0  0  0  0  0  0  0  0  0  0  0
  143.8250   75.3884  220.1485 H   0  0  0  0  0  0  0  0  0  0  0  0
  138.8390   68.8566  223.0016 H   0  0  0  0  0  0  0  0  0  0  0  0
  139.3483   67.7072  225.1529 H   0  0  0  0  0  0  0  0  0  0  0  0
  140.1578   67.8382  227.4120 H   0  0  0  0  0  0  0  0  0  0  0  0
  141.0777   69.2185  229.2670 H   0  0  0  0  0  0  0  0  0  0  0  0
  141.4798   71.6282  228.9888 H   0  0  0  0  0  0  0  0  0  0  0  0
  140.9595   72.7513  226.8115 H   0  0  0  0  0  0  0  0  0  0  0  0
  1  2  2  0
  2  3  1  0
  3  4  1  0
  4  5  1  0
  5  6  2  0
  5  7  1  0
  7  8  1  0
  8  9  1  0
  9 10  1  0
 10 11  1  0
 11 12  1  0
 12 13  1  0
 13 14  2  0
 14 15  1  0
 15 16  2  0
 16 17  1  0
 17 18  1  0
 17 19  2  0
  2 20  1  0
 20 21  2  0
 21 22  1  0
 22 23  2  0
 23 24  1  0
 24 25  2  0
 25 26  1  0
 26 27  2  0
 27 28  1  0
 28 29  2  0
 12  7  1  0
 19 13  1  0
 29 20  1  0
 28 23  1  0
  3 30  1  0
  4 31  1  0
  4 32  1  0
  8 33  1  0
  8 34  1  0
  9 35  1  0
  9 36  1  0
 10 37  1  0
 10 38  1  0
 11 39  1  0
 11 40  1  0
 12 41  1  6
 14 42  1  0
 15 43  1  0
 16 44  1  0
 19 45  1  0
 21 46  1  0
 22 47  1  0
 24 48  1  0
 25 49  1  0
 26 50  1  0
 27 51  1  0
M  END
>  <smiles>  (13) 
O=C(NCC(=O)N1CCCC[C@H]1c1cccc(Cl)c1)c1ccc2ccccc2n1

>  <score_type>  (13) 
oracle

>  <origin>  (13) 
autodockgpu

>  <m_score__min__energy>  (13) 
-9.3300000000000001

>  <m_primary>  (13) 
energy

>  <meeko>  (13) 
{"free_energy": -8.57, "intermolecular_energy": -10.06, "internal_energy": -1.9, "cluster_size": 2, "cluster_id": 2, "rank_in_cluster": 2}

>  <energy>  (13) 
-8.79

>  <cluster_rmsd>  (13) 
1.41

>  <rmsd>  (13) 
271.11

>  <cluster>  (13) 
1

$$$$

     RDKit          3D

 51 54  0  0  0  0  0  0  0  0999 V2000
  141.0550   71.6310  221.4490 O   0  0  0  0  0  0  0  0  0  0  0  0
  140.3100   72.0470  222.3820 C   0  0  0  0  0  0  0  0  0  0  0  0
  139.5170   73.2260  222.2370 N   0  0  0  0  0  0  0  0  0  0  0  0
  139.5540   73.9770  220.9980 C   0  0  0  0  0  0  0  0  0  0  0  0
  138.9220   75.3090  221.1330 C   0  0  0  0  0  0  0  0  0  0  0  0
  137.7660   75.4110  221.6330 O   0  0  0  0  0  0  0  0  0  0  0  0
  139.6640   76.4350  220.6840 N   0  0  0  0  0  0  0  0  0  0  0  0
  139.2240   77.2670  219.5630 C   0  0  0  0  0  0  0  0  0  0  0  0
  140.3230   77.3030  218.4920 C   0  0  0  0  0  0  0  0  0  0  0  0
  141.5270   77.9390  219.1630 C   0  0  0  0  0  0  0  0  0  0  0  0
  141.9710   77.0110  220.2590 C   0  0  0  0  0  0  0  0  0  0  0  0
  140.9080   76.8280  221.3190 C   0  0  1  0  0  0  0  0  0  0  0  0
  140.7710   78.0150  222.1870 C   0  0  0  0  0  0  0  0  0  0  0  0
  139.5030   78.3440  222.6230 C   0  0  0  0  0  0  0  0  0  0  0  0
  139.3030   79.4560  223.4480 C   0  0  0  0  0  0  0  0  0  0  0  0
  140.3720   80.2410  223.8360 C   0  0  0  0  0  0  0  0  0  0  0  0
  141.6190   79.8870  223.3850 C   0  0  0  0  0  0  0  0  0  0  0  0
  142.9650   80.9040  223.8940 Cl  0  0  0  0  0  0  0  0  0  0  0  0
  141.8520   78.7970  222.5710 C   0  0  0  0  0  0  0  0  0  0  0  0
  140.2260   71.3350  223.6590 C   0  0  0  0  0  0  0  0  0  0  0  0
  139.6600   70.0710  223.7010 C   0  0  0  0  0  0  0  0  0  0  0  0
  139.5620   69.3660  224.8890 C   0  0  0  0  0  0  0  0  0  0  0  0
  140.0470   69.9600  226.0350 C   0  0  0  0  0  0  0  0  0  0  0  0
  139.9630   69.2770  227.2350 C   0  0  0  0  0  0  0  0  0  0  0  0
  140.4580   69.8970  228.3730 C   0  0  0  0  0  0  0  0  0  0  0  0
  141.0220   71.1540  228.3310 C   0  0  0  0  0  0  0  0  0  0  0  0
  141.1100   71.8440  227.1310 C   0  0  0  0  0  0  0  0  0  0  0  0
  140.6130   71.2210  225.9940 C   0  0  0  0  0  0  0  0  0  0  0  0
  140.6810   71.8590  224.8110 N   0  0  0  0  0  0  0  0  0  0  0  0
  138.9060   73.5350  223.0510 H   0  0  0  0  0  0  0  0  0  0  0  0
  140.6033   74.1115  220.6964 H   0  0  0  0  0  0  0  0  0  0  0  0
  138.9901   73.4104  220.2424 H   0  0  0  0  0  0  0  0  0  0  0  0
  138.3047   76.8446  219.1313 H   0  0  0  0  0  0  0  0  0  0  0  0
  139.0252   78.2884  219.9196 H   0  0  0  0  0  0  0  0  0  0  0  0
  140.5648   76.2840  218.1556 H   0  0  0  0  0  0  0  0  0  0  0  0
  140.0066   77.8687  217.6033 H   0  0  0  0  0  0  0  0  0  0  0  0
  142.3379   78.0732  218.4320 H   0  0  0  0  0  0  0  0  0  0  0  0
  141.2682   78.9272  219.5709 H   0  0  0  0  0  0  0  0  0  0  0  0
  142.2053   76.0303  219.8194 H   0  0  0  0  0  0  0  0  0  0  0  0
  142.8545   77.4557  220.7404 H   0  0  0  0  0  0  0  0  0  0  0  0
  141.2136   76.0199  221.9998 H   0  0  0  0  0  0  0  0  0  0  0  0
  138.6440   77.7275  222.3196 H   0  0  0  0  0  0  0  0  0  0  0  0
  138.2881   79.7071  223.7901 H   0  0  0  0  0  0  0  0  0  0  0  0
  140.2286   81.1186  224.4835 H   0  0  0  0  0  0  0  0  0  0  0  0
  142.8705   78.5535  222.2343 H   0  0  0  0  0  0  0  0  0  0  0  0
  139.2811   69.6187  222.7727 H   0  0  0  0  0  0  0  0  0  0  0  0
  139.1111   68.3630  224.9175 H   0  0  0  0  0  0  0  0  0  0  0  0
  139.5172   68.2726  227.2854 H   0  0  0  0  0  0  0  0  0  0  0  0
  140.3987   69.3702  229.3368 H   0  0  0  0  0  0  0  0  0  0  0  0
  141.4046   71.6127  229.2547 H   0  0  0  0  0  0  0  0  0  0  0  0
  141.5571   72.8479  227.0819 H   0  0  0  0  0  0  0  0  0  0  0  0
  1  2  2  0
  2  3  1  0
  3  4  1  0
  4  5  1  0
  5  6  2  0
  5  7  1  0
  7  8  1  0
  8  9  1  0
  9 10  1  0
 10 11  1  0
 11 12  1  0
 12 13  1  0
 13 14  2  0
 14 15  1  0
 15 16  2  0
 16 17  1  0
 17 18  1  0
 17 19  2  0
  2 20  1  0
 20 21  2  0
 21 22  1  0
 22 23  2  0
 23 24  1  0
 24 25  2  0
 25 26  1  0
 26 27  2  0
 27 28  1  0
 28 29  2  0
 12  7  1  0
 19 13  1  0
 29 20  1  0
 28 23  1  0
  3 30  1  0
  4 31  1  0
  4 32  1  0
  8 33  1  0
  8 34  1  0
  9 35  1  0
  9 36  1  0
 10 37  1  0
 10 38  1  0
 11 39  1  0
 11 40  1  0
 12 41  1  1
 14 42  1  0
 15 43  1  0
 16 44  1  0
 19 45  1  0
 21 46  1  0
 22 47  1  0
 24 48  1  0
 25 49  1  0
 26 50  1  0
 27 51  1  0
M  END
>  <smiles>  (14) 
O=C(NCC(=O)N1CCCC[C@H]1c1cccc(Cl)c1)c1ccc2ccccc2n1

>  <score_type>  (14) 
oracle

>  <origin>  (14) 
autodockgpu

>  <m_score__min__energy>  (14) 
-9.3300000000000001

>  <m_primary>  (14) 
energy

>  <meeko>  (14) 
{"free_energy": -9.15, "intermolecular_energy": -10.64, "internal_energy": -1.55, "cluster_size": 14, "cluster_id": 1, "rank_in_cluster": 9}

>  <energy>  (14) 
-8.77

>  <cluster_rmsd>  (14) 
1.5

>  <rmsd>  (14) 
271.18

>  <cluster>  (14) 
1

$$$$

     RDKit          3D

 51 54  0  0  0  0  0  0  0  0999 V2000
  141.0130   72.4430  221.5020 O   0  0  0  0  0  0  0  0  0  0  0  0
  140.1130   72.5880  222.3770 C   0  0  0  0  0  0  0  0  0  0  0  0
  139.1920   73.6790  222.3300 N   0  0  0  0  0  0  0  0  0  0  0  0
  139.2770   74.6540  221.2600 C   0  0  0  0  0  0  0  0  0  0  0  0
  140.4670   75.5240  221.3910 C   0  0  0  0  0  0  0  0  0  0  0  0
  141.5040   75.0920  221.9680 O   0  0  0  0  0  0  0  0  0  0  0  0
  140.3840   76.8340  220.8460 N   0  0  0  0  0  0  0  0  0  0  0  0
  139.1730   77.3380  220.1970 C   0  0  0  0  0  0  0  0  0  0  0  0
  139.5080   77.7840  218.7670 C   0  0  0  0  0  0  0  0  0  0  0  0
  140.5170   78.9080  218.9160 C   0  0  0  0  0  0  0  0  0  0  0  0
  141.7580   78.3190  219.5250 C   0  0  0  0  0  0  0  0  0  0  0  0
  141.5050   77.7550  220.9050 C   0  0  1  0  0  0  0  0  0  0  0  0
  141.3380   78.8120  221.9220 C   0  0  0  0  0  0  0  0  0  0  0  0
  142.4650   79.5070  222.3130 C   0  0  0  0  0  0  0  0  0  0  0  0
  142.3760   80.5210  223.2730 C   0  0  0  0  0  0  0  0  0  0  0  0
  141.1590   80.8400  223.8430 C   0  0  0  0  0  0  0  0  0  0  0  0
  140.0580   80.1290  223.4340 C   0  0  0  0  0  0  0  0  0  0  0  0
  138.5180   80.5550  224.1780 Cl  0  0  0  0  0  0  0  0  0  0  0  0
  140.1090   79.1240  222.4900 C   0  0  0  0  0  0  0  0  0  0  0  0
  139.9720   71.6390  223.4840 C   0  0  0  0  0  0  0  0  0  0  0  0
  139.3260   70.4330  223.2730 C   0  0  0  0  0  0  0  0  0  0  0  0
  139.1730   69.5100  224.2940 C   0  0  0  0  0  0  0  0  0  0  0  0
  139.6860   69.8270  225.5340 C   0  0  0  0  0  0  0  0  0  0  0  0
  139.5480   68.9230  226.5710 C   0  0  0  0  0  0  0  0  0  0  0  0
  140.0730   69.2670  227.8090 C   0  0  0  0  0  0  0  0  0  0  0  0
  140.7170   70.4660  228.0200 C   0  0  0  0  0  0  0  0  0  0  0  0
  140.8590   71.3780  226.9840 C   0  0  0  0  0  0  0  0  0  0  0  0
  140.3330   71.0310  225.7470 C   0  0  0  0  0  0  0  0  0  0  0  0
  140.4510   71.8900  224.7170 N   0  0  0  0  0  0  0  0  0  0  0  0
  138.4530   73.7580  223.0900 H   0  0  0  0  0  0  0  0  0  0  0  0
  139.3312   74.1217  220.2989 H   0  0  0  0  0  0  0  0  0  0  0  0
  138.3833   75.2932  221.3132 H   0  0  0  0  0  0  0  0  0  0  0  0
  138.4153   76.5412  220.1648 H   0  0  0  0  0  0  0  0  0  0  0  0
  138.7805   78.1937  220.7660 H   0  0  0  0  0  0  0  0  0  0  0  0
  139.9434   76.9502  218.1968 H   0  0  0  0  0  0  0  0  0  0  0  0
  138.6105   78.1122  218.2221 H   0  0  0  0  0  0  0  0  0  0  0  0
  140.7493   79.3380  217.9305 H   0  0  0  0  0  0  0  0  0  0  0  0
  140.1145   79.7098  219.5525 H   0  0  0  0  0  0  0  0  0  0  0  0
  142.1231   77.5112  218.8737 H   0  0  0  0  0  0  0  0  0  0  0  0
  142.5019   79.1237  219.6203 H   0  0  0  0  0  0  0  0  0  0  0  0
  142.3923   77.1930  221.2318 H   0  0  0  0  0  0  0  0  0  0  0  0
  143.4400   79.2618  221.8666 H   0  0  0  0  0  0  0  0  0  0  0  0
  143.2812   81.0677  223.5758 H   0  0  0  0  0  0  0  0  0  0  0  0
  141.0749   81.6356  224.5980 H   0  0  0  0  0  0  0  0  0  0  0  0
  139.1983   78.5827  222.1941 H   0  0  0  0  0  0  0  0  0  0  0  0
  138.9262   70.2032  222.2743 H   0  0  0  0  0  0  0  0  0  0  0  0
  138.6581   68.5535  224.1211 H   0  0  0  0  0  0  0  0  0  0  0  0
  139.0377   67.9604  226.4195 H   0  0  0  0  0  0  0  0  0  0  0  0
  139.9717   68.5610  228.6465 H   0  0  0  0  0  0  0  0  0  0  0  0
  141.1211   70.7020  229.0155 H   0  0  0  0  0  0  0  0  0  0  0  0
  141.3694   72.3403  227.1371 H   0  0  0  0  0  0  0  0  0  0  0  0
  1  2  2  0
  2  3  1  0
  3  4  1  0
  4  5  1  0
  5  6  2  0
  5  7  1  0
  7  8  1  0
  8  9  1  0
  9 10  1  0
 10 11  1  0
 11 12  1  0
 12 13  1  0
 13 14  2  0
 14 15  1  0
 15 16  2  0
 16 17  1  0
 17 18  1  0
 17 19  2  0
  2 20  1  0
 20 21  2  0
 21 22  1  0
 22 23  2  0
 23 24  1  0
 24 25  2  0
 25 26  1  0
 26 27  2  0
 27 28  1  0
 28 29  2  0
 12  7  1  0
 19 13  1  0
 29 20  1  0
 28 23  1  0
  3 30  1  0
  4 31  1  0
  4 32  1  0
  8 33  1  0
  8 34  1  0
  9 35  1  0
  9 36  1  0
 10 37  1  0
 10 38  1  0
 11 39  1  0
 11 40  1  0
 12 41  1  1
 14 42  1  0
 15 43  1  0
 16 44  1  0
 19 45  1  0
 21 46  1  0
 22 47  1  0
 24 48  1  0
 25 49  1  0
 26 50  1  0
 27 51  1  0
M  END
>  <smiles>  (15) 
O=C(NCC(=O)N1CCCC[C@H]1c1cccc(Cl)c1)c1ccc2ccccc2n1

>  <score_type>  (15) 
oracle

>  <origin>  (15) 
autodockgpu

>  <m_score__min__energy>  (15) 
-9.3300000000000001

>  <m_primary>  (15) 
energy

>  <meeko>  (15) 
{"free_energy": -9.18, "intermolecular_energy": -10.67, "internal_energy": -1.24, "cluster_size": 14, "cluster_id": 1, "rank_in_cluster": 7}

>  <energy>  (15) 
-9.05

>  <cluster_rmsd>  (15) 
0.0

>  <rmsd>  (15) 
270.82

>  <cluster>  (15) 
2

$$$$

     RDKit          3D

 51 54  0  0  0  0  0  0  0  0999 V2000
  140.6790   74.3220  221.9610 O   0  0  0  0  0  0  0  0  0  0  0  0
  139.6510   75.0560  221.9750 C   0  0  0  0  0  0  0  0  0  0  0  0
  138.3610   74.5450  221.6340 N   0  0  0  0  0  0  0  0  0  0  0  0
  138.2090   73.1520  221.2630 C   0  0  0  0  0  0  0  0  0  0  0  0
  137.7270   72.3230  222.3900 C   0  0  0  0  0  0  0  0  0  0  0  0
  136.7360   72.7050  223.0750 O   0  0  0  0  0  0  0  0  0  0  0  0
  138.4160   71.1080  222.6530 N   0  0  0  0  0  0  0  0  0  0  0  0
  139.4580   70.5910  221.7650 C   0  0  0  0  0  0  0  0  0  0  0  0
  139.0810   69.1770  221.3040 C   0  0  0  0  0  0  0  0  0  0  0  0
  139.0190   68.3380  222.5670 C   0  0  0  0  0  0  0  0  0  0  0  0
  137.8920   68.8730  223.4050 C   0  0  0  0  0  0  0  0  0  0  0  0
  138.1250   70.3060  223.8270 C   0  0  1  0  0  0  0  0  0  0  0  0
  139.1520   70.4220  224.8820 C   0  0  0  0  0  0  0  0  0  0  0  0
  140.0180   71.4950  224.8150 C   0  0  0  0  0  0  0  0  0  0  0  0
  141.0150   71.6630  225.7830 C   0  0  0  0  0  0  0  0  0  0  0  0
  141.1450   70.7570  226.8180 C   0  0  0  0  0  0  0  0  0  0  0  0
  140.2680   69.7020  226.8550 C   0  0  0  0  0  0  0  0  0  0  0  0
  140.4570   68.5600  228.1850 Cl  0  0  0  0  0  0  0  0  0  0  0  0
  139.2740   69.5050  225.9180 C   0  0  0  0  0  0  0  0  0  0  0  0
  139.7360   76.4710  222.3420 C   0  0  0  0  0  0  0  0  0  0  0  0
  138.5740   77.1850  222.5850 C   0  0  0  0  0  0  0  0  0  0  0  0
  138.6130   78.5250  222.9350 C   0  0  0  0  0  0  0  0  0  0  0  0
  139.8470   79.1310  223.0360 C   0  0  0  0  0  0  0  0  0  0  0  0
  139.9150   80.4680  223.3850 C   0  0  0  0  0  0  0  0  0  0  0  0
  141.1690   81.0530  223.4790 C   0  0  0  0  0  0  0  0  0  0  0  0
  142.3250   80.3430  223.2370 C   0  0  0  0  0  0  0  0  0  0  0  0
  142.2650   79.0020  222.8880 C   0  0  0  0  0  0  0  0  0  0  0  0
  141.0090   78.4190  222.7940 C   0  0  0  0  0  0  0  0  0  0  0  0
  140.9090   77.1200  222.4570 N   0  0  0  0  0  0  0  0  0  0  0  0
  137.5270   75.2030  221.6610 H   0  0  0  0  0  0  0  0  0  0  0  0
  137.4857   73.0822  220.4372 H   0  0  0  0  0  0  0  0  0  0  0  0
  139.1969   72.7726  220.9629 H   0  0  0  0  0  0  0  0  0  0  0  0
  139.5530   71.2493  220.8889 H   0  0  0  0  0  0  0  0  0  0  0  0
  140.4163   70.5579  222.3041 H   0  0  0  0  0  0  0  0  0  0  0  0
  138.1031   69.1854  220.8004 H   0  0  0  0  0  0  0  0  0  0  0  0
  139.8101   68.7759  220.5847 H   0  0  0  0  0  0  0  0  0  0  0  0
  138.8302   67.2851  222.3104 H   0  0  0  0  0  0  0  0  0  0  0  0
  139.9708   68.3902  223.1159 H   0  0  0  0  0  0  0  0  0  0  0  0
  136.9612   68.8225  222.8209 H   0  0  0  0  0  0  0  0  0  0  0  0
  137.8269   68.2590  224.3154 H   0  0  0  0  0  0  0  0  0  0  0  0
  137.2071   70.6978  224.2895 H   0  0  0  0  0  0  0  0  0  0  0  0
  139.9239   72.2227  223.9955 H   0  0  0  0  0  0  0  0  0  0  0  0
  141.6994   72.5218  225.7193 H   0  0  0  0  0  0  0  0  0  0  0  0
  141.9240   70.8771  227.5853 H   0  0  0  0  0  0  0  0  0  0  0  0
  138.5949   68.6427  225.9900 H   0  0  0  0  0  0  0  0  0  0  0  0
  137.6015   76.6783  222.4984 H   0  0  0  0  0  0  0  0  0  0  0  0
  137.6876   79.0880  223.1264 H   0  0  0  0  0  0  0  0  0  0  0  0
  139.0022   81.0494  223.5819 H   0  0  0  0  0  0  0  0  0  0  0  0
  141.2430   82.1153  223.7549 H   0  0  0  0  0  0  0  0  0  0  0  0
  143.3013   80.8428  223.3211 H   0  0  0  0  0  0  0  0  0  0  0  0
  143.1791   78.4220  222.6929 H   0  0  0  0  0  0  0  0  0  0  0  0
  1  2  2  0
  2  3  1  0
  3  4  1  0
  4  5  1  0
  5  6  2  0
  5  7  1  0
  7  8  1  0
  8  9  1  0
  9 10  1  0
 10 11  1  0
 11 12  1  0
 12 13  1  0
 13 14  2  0
 14 15  1  0
 15 16  2  0
 16 17  1  0
 17 18  1  0
 17 19  2  0
  2 20  1  0
 20 21  2  0
 21 22  1  0
 22 23  2  0
 23 24  1  0
 24 25  2  0
 25 26  1  0
 26 27  2  0
 27 28  1  0
 28 29  2  0
 12  7  1  0
 19 13  1  0
 29 20  1  0
 28 23  1  0
  3 30  1  0
  4 31  1  0
  4 32  1  0
  8 33  1  0
  8 34  1  0
  9 35  1  0
  9 36  1  0
 10 37  1  0
 10 38  1  0
 11 39  1  0
 11 40  1  0
 12 41  1  1
 14 42  1  0
 15 43  1  0
 16 44  1  0
 19 45  1  0
 21 46  1  0
 22 47  1  0
 24 48  1  0
 25 49  1  0
 26 50  1  0
 27 51  1  0
M  END
>  <smiles>  (16) 
O=C(NCC(=O)N1CCCC[C@H]1c1cccc(Cl)c1)c1ccc2ccccc2n1

>  <score_type>  (16) 
oracle

>  <origin>  (16) 
autodockgpu

>  <m_score__min__energy>  (16) 
-9.3300000000000001

>  <m_primary>  (16) 
energy

>  <meeko>  (16) 
{"free_energy": -8.65, "intermolecular_energy": -10.14, "internal_energy": -1.55, "cluster_size": 3, "cluster_id": 3, "rank_in_cluster": 2}

>  <energy>  (16) 
-8.57

>  <cluster_rmsd>  (16) 
1.35

>  <rmsd>  (16) 
270.73

>  <cluster>  (16) 
2

$$$$

     RDKit          3D

 51 54  0  0  0  0  0  0  0  0999 V2000
  141.4050   72.2420  221.6600 O   0  0  0  0  0  0  0  0  0  0  0  0
  140.4760   72.4520  222.4910 C   0  0  0  0  0  0  0  0  0  0  0  0
  139.5780   73.5540  222.3480 N   0  0  0  0  0  0  0  0  0  0  0  0
  139.7200   74.4640  221.2280 C   0  0  0  0  0  0  0  0  0  0  0  0
  139.2420   75.8270  221.5530 C   0  0  0  0  0  0  0  0  0  0  0  0
  138.2640   75.9820  222.3370 O   0  0  0  0  0  0  0  0  0  0  0  0
  139.9230   76.9210  220.9530 N   0  0  0  0  0  0  0  0  0  0  0  0
  139.3760   77.6530  219.8110 C   0  0  0  0  0  0  0  0  0  0  0  0
  140.3790   77.6130  218.6500 C   0  0  0  0  0  0  0  0  0  0  0  0
  141.6250   78.3150  219.1620 C   0  0  0  0  0  0  0  0  0  0  0  0
  142.1760   77.4850  220.2870 C   0  0  0  0  0  0  0  0  0  0  0  0
  141.2100   77.3770  221.4450 C   0  0  1  0  0  0  0  0  0  0  0  0
  141.1250   78.6300  222.2240 C   0  0  0  0  0  0  0  0  0  0  0  0
  142.2860   79.3580  222.3910 C   0  0  0  0  0  0  0  0  0  0  0  0
  142.2750   80.5530  223.1180 C   0  0  0  0  0  0  0  0  0  0  0  0
  141.1020   81.0200  223.6790 C   0  0  0  0  0  0  0  0  0  0  0  0
  139.9660   80.2720  223.4950 C   0  0  0  0  0  0  0  0  0  0  0  0
  138.4830   80.8900  224.2210 Cl  0  0  0  0  0  0  0  0  0  0  0  0
  139.9410   79.0900  222.7830 C   0  0  0  0  0  0  0  0  0  0  0  0
  140.2770   71.5700  223.6440 C   0  0  0  0  0  0  0  0  0  0  0  0
  139.6330   70.3560  223.4730 C   0  0  0  0  0  0  0  0  0  0  0  0
  139.4270   69.4950  224.5380 C   0  0  0  0  0  0  0  0  0  0  0  0
  139.8830   69.8820  225.7800 C   0  0  0  0  0  0  0  0  0  0  0  0
  139.6900   69.0410  226.8600 C   0  0  0  0  0  0  0  0  0  0  0  0
  140.1590   69.4550  228.0990 C   0  0  0  0  0  0  0  0  0  0  0  0
  140.8000   70.6620  228.2700 C   0  0  0  0  0  0  0  0  0  0  0  0
  140.9970   71.5110  227.1900 C   0  0  0  0  0  0  0  0  0  0  0  0
  140.5270   71.0950  225.9520 C   0  0  0  0  0  0  0  0  0  0  0  0
  140.7000   71.8910  224.8810 N   0  0  0  0  0  0  0  0  0  0  0  0
  138.8130   73.6880  223.0740 H   0  0  0  0  0  0  0  0  0  0  0  0
  140.7823   74.5182  220.9477 H   0  0  0  0  0  0  0  0  0  0  0  0
  139.1074   74.0791  220.3994 H   0  0  0  0  0  0  0  0  0  0  0  0
  138.4309   77.1870  219.4953 H   0  0  0  0  0  0  0  0  0  0  0  0
  139.1909   78.6981  220.0999 H   0  0  0  0  0  0  0  0  0  0  0  0
  140.6092   76.5725  218.3772 H   0  0  0  0  0  0  0  0  0  0  0  0
  139.9783   78.1007  217.7491 H   0  0  0  0  0  0  0  0  0  0  0  0
  142.3688   78.3972  218.3557 H   0  0  0  0  0  0  0  0  0  0  0  0
  141.3845   79.3306  219.5093 H   0  0  0  0  0  0  0  0  0  0  0  0
  142.3902   76.4743  219.9093 H   0  0  0  0  0  0  0  0  0  0  0  0
  143.0884   77.9777  220.6540 H   0  0  0  0  0  0  0  0  0  0  0  0
  141.5871   76.6297  222.1587 H   0  0  0  0  0  0  0  0  0  0  0  0
  143.2261   78.9959  221.9494 H   0  0  0  0  0  0  0  0  0  0  0  0
  143.2063   81.1246  223.2438 H   0  0  0  0  0  0  0  0  0  0  0  0
  141.0793   81.9582  224.2529 H   0  0  0  0  0  0  0  0  0  0  0  0
  139.0046   78.5258  222.6615 H   0  0  0  0  0  0  0  0  0  0  0  0
  139.2782   70.0700  222.4718 H   0  0  0  0  0  0  0  0  0  0  0  0
  138.9151   68.5316  224.3971 H   0  0  0  0  0  0  0  0  0  0  0  0
  139.1804   68.0734  226.7411 H   0  0  0  0  0  0  0  0  0  0  0  0
  140.0144   68.7995  228.9704 H   0  0  0  0  0  0  0  0  0  0  0  0
  141.1578   70.9547  229.2682 H   0  0  0  0  0  0  0  0  0  0  0  0
  141.5069   72.4782  227.3107 H   0  0  0  0  0  0  0  0  0  0  0  0
  1  2  2  0
  2  3  1  0
  3  4  1  0
  4  5  1  0
  5  6  2  0
  5  7  1  0
  7  8  1  0
  8  9  1  0
  9 10  1  0
 10 11  1  0
 11 12  1  0
 12 13  1  0
 13 14  2  0
 14 15  1  0
 15 16  2  0
 16 17  1  0
 17 18  1  0
 17 19  2  0
  2 20  1  0
 20 21  2  0
 21 22  1  0
 22 23  2  0
 23 24  1  0
 24 25  2  0
 25 26  1  0
 26 27  2  0
 27 28  1  0
 28 29  2  0
 12  7  1  0
 19 13  1  0
 29 20  1  0
 28 23  1  0
  3 30  1  0
  4 31  1  0
  4 32  1  0
  8 33  1  0
  8 34  1  0
  9 35  1  0
  9 36  1  0
 10 37  1  0
 10 38  1  0
 11 39  1  0
 11 40  1  0
 12 41  1  1
 14 42  1  0
 15 43  1  0
 16 44  1  0
 19 45  1  0
 21 46  1  0
 22 47  1  0
 24 48  1  0
 25 49  1  0
 26 50  1  0
 27 51  1  0
M  END
>  <smiles>  (17) 
O=C(NCC(=O)N1CCCC[C@H]1c1cccc(Cl)c1)c1ccc2ccccc2n1

>  <score_type>  (17) 
oracle

>  <origin>  (17) 
autodockgpu

>  <m_score__min__energy>  (17) 
-9.3300000000000001

>  <m_primary>  (17) 
energy

>  <meeko>  (17) 
{"free_energy": -9.3, "intermolecular_energy": -10.8, "internal_energy": -1.64, "cluster_size": 14, "cluster_id": 1, "rank_in_cluster": 2}

>  <energy>  (17) 
-8.99

>  <cluster_rmsd>  (17) 
0.0

>  <rmsd>  (17) 
271.21

>  <cluster>  (17) 
3

$$$$

     RDKit          3D

 51 54  0  0  0  0  0  0  0  0999 V2000
  141.2980   74.9080  220.9420 O   0  0  0  0  0  0  0  0  0  0  0  0
  140.3570   75.2960  221.6910 C   0  0  0  0  0  0  0  0  0  0  0  0
  139.3080   74.4140  222.0950 N   0  0  0  0  0  0  0  0  0  0  0  0
  139.3070   73.0360  221.6450 C   0  0  0  0  0  0  0  0  0  0  0  0
  138.2910   72.2200  222.3470 C   0  0  0  0  0  0  0  0  0  0  0  0
  137.1200   72.6680  222.5010 O   0  0  0  0  0  0  0  0  0  0  0  0
  138.6910   70.9430  222.8240 N   0  0  0  0  0  0  0  0  0  0  0  0
  139.5940   70.0730  222.0710 C   0  0  0  0  0  0  0  0  0  0  0  0
  138.9120   68.7210  221.8220 C   0  0  0  0  0  0  0  0  0  0  0  0
  138.6580   68.1310  223.1970 C   0  0  0  0  0  0  0  0  0  0  0  0
  137.6770   69.0290  223.8960 C   0  0  0  0  0  0  0  0  0  0  0  0
  138.2220   70.4250  224.0970 C   0  0  1  0  0  0  0  0  0  0  0  0
  139.2450   70.4810  225.1610 C   0  0  0  0  0  0  0  0  0  0  0  0
  140.1510   71.5210  225.1230 C   0  0  0  0  0  0  0  0  0  0  0  0
  141.1460   71.6320  226.1000 C   0  0  0  0  0  0  0  0  0  0  0  0
  141.2340   70.7020  227.1170 C   0  0  0  0  0  0  0  0  0  0  0  0
  140.3180   69.6790  227.1260 C   0  0  0  0  0  0  0  0  0  0  0  0
  140.4530   68.5050  228.4340 Cl  0  0  0  0  0  0  0  0  0  0  0  0
  139.3250   69.5390  226.1790 C   0  0  0  0  0  0  0  0  0  0  0  0
  140.2990   76.6750  222.1810 C   0  0  0  0  0  0  0  0  0  0  0  0
  139.0690   77.2640  222.4250 C   0  0  0  0  0  0  0  0  0  0  0  0
  138.9730   78.5650  222.8890 C   0  0  0  0  0  0  0  0  0  0  0  0
  140.1430   79.2630  223.1040 C   0  0  0  0  0  0  0  0  0  0  0  0
  140.0760   80.5630  223.5680 C   0  0  0  0  0  0  0  0  0  0  0  0
  141.2680   81.2430  223.7750 C   0  0  0  0  0  0  0  0  0  0  0  0
  142.4920   80.6580  223.5340 C   0  0  0  0  0  0  0  0  0  0  0  0
  142.5670   79.3530  223.0690 C   0  0  0  0  0  0  0  0  0  0  0  0
  141.3730   78.6760  222.8620 C   0  0  0  0  0  0  0  0  0  0  0  0
  141.4040   77.4080  222.4110 N   0  0  0  0  0  0  0  0  0  0  0  0
  138.5390   74.7890  222.7260 H   0  0  0  0  0  0  0  0  0  0  0  0
  139.0940   73.0157  220.5660 H   0  0  0  0  0  0  0  0  0  0  0  0
  140.2959   72.6077  221.8657 H   0  0  0  0  0  0  0  0  0  0  0  0
  139.8378   70.5438  221.1072 H   0  0  0  0  0  0  0  0  0  0  0  0
  140.5181   69.9171  222.6470 H   0  0  0  0  0  0  0  0  0  0  0  0
  137.9630   68.8632  221.2842 H   0  0  0  0  0  0  0  0  0  0  0  0
  139.5363   68.0585  221.2045 H   0  0  0  0  0  0  0  0  0  0  0  0
  138.2386   67.1187  223.1003 H   0  0  0  0  0  0  0  0  0  0  0  0
  139.5952   68.0594  223.7685 H   0  0  0  0  0  0  0  0  0  0  0  0
  136.7602   69.0905  223.2913 H   0  0  0  0  0  0  0  0  0  0  0  0
  137.4746   68.5998  224.8884 H   0  0  0  0  0  0  0  0  0  0  0  0
  137.4124   71.0783  224.4544 H   0  0  0  0  0  0  0  0  0  0  0  0
  140.0904   72.2685  224.3183 H   0  0  0  0  0  0  0  0  0  0  0  0
  141.8628   72.4653  226.0579 H   0  0  0  0  0  0  0  0  0  0  0  0
  142.0104   70.7780  227.8925 H   0  0  0  0  0  0  0  0  0  0  0  0
  138.6135   68.7016  226.2286 H   0  0  0  0  0  0  0  0  0  0  0  0
  138.1500   76.6864  222.2465 H   0  0  0  0  0  0  0  0  0  0  0  0
  137.9936   79.0278  223.0803 H   0  0  0  0  0  0  0  0  0  0  0  0
  139.1072   81.0443  223.7672 H   0  0  0  0  0  0  0  0  0  0  0  0
  141.2346   82.2794  224.1422 H   0  0  0  0  0  0  0  0  0  0  0  0
  143.4153   81.2291  223.7113 H   0  0  0  0  0  0  0  0  0  0  0  0
  143.5367   78.8726  222.8717 H   0  0  0  0  0  0  0  0  0  0  0  0
  1  2  2  0
  2  3  1  0
  3  4  1  0
  4  5  1  0
  5  6  2  0
  5  7  1  0
  7  8  1  0
  8  9  1  0
  9 10  1  0
 10 11  1  0
 11 12  1  0
 12 13  1  0
 13 14  2  0
 14 15  1  0
 15 16  2  0
 16 17  1  0
 17 18  1  0
 17 19  2  0
  2 20  1  0
 20 21  2  0
 21 22  1  0
 22 23  2  0
 23 24  1  0
 24 25  2  0
 25 26  1  0
 26 27  2  0
 27 28  1  0
 28 29  2  0
 12  7  1  0
 19 13  1  0
 29 20  1  0
 28 23  1  0
  3 30  1  0
  4 31  1  0
  4 32  1  0
  8 33  1  0
  8 34  1  0
  9 35  1  0
  9 36  1  0
 10 37  1  0
 10 38  1  0
 11 39  1  0
 11 40  1  0
 12 41  1  1
 14 42  1  0
 15 43  1  0
 16 44  1  0
 19 45  1  0
 21 46  1  0
 22 47  1  0
 24 48  1  0
 25 49  1  0
 26 50  1  0
 27 51  1  0
M  END
>  <smiles>  (18) 
O=C(NCC(=O)N1CCCC[C@H]1c1cccc(Cl)c1)c1ccc2ccccc2n1

>  <score_type>  (18) 
oracle

>  <origin>  (18) 
autodockgpu

>  <m_score__min__energy>  (18) 
-9.3300000000000001

>  <m_primary>  (18) 
energy

>  <meeko>  (18) 
{"free_energy": -8.99, "intermolecular_energy": -10.48, "internal_energy": -1.56, "cluster_size": 3, "cluster_id": 3, "rank_in_cluster": 1}

>  <energy>  (18) 
-8.65

>  <cluster_rmsd>  (18) 
0.65

>  <rmsd>  (18) 
270.92

>  <cluster>  (18) 
3

$$$$

     RDKit          3D

 51 54  0  0  0  0  0  0  0  0999 V2000
  141.3770   72.2220  221.6630 O   0  0  0  0  0  0  0  0  0  0  0  0
  140.4540   72.4450  222.4960 C   0  0  0  0  0  0  0  0  0  0  0  0
  139.5630   73.5530  222.3490 N   0  0  0  0  0  0  0  0  0  0  0  0
  139.7080   74.4540  221.2220 C   0  0  0  0  0  0  0  0  0  0  0  0
  139.2040   75.8120  221.5250 C   0  0  0  0  0  0  0  0  0  0  0  0
  138.1830   75.9570  222.2550 O   0  0  0  0  0  0  0  0  0  0  0  0
  139.9100   76.9130  220.9680 N   0  0  0  0  0  0  0  0  0  0  0  0
  139.3940   77.6820  219.8360 C   0  0  0  0  0  0  0  0  0  0  0  0
  140.4190   77.6610  218.6940 C   0  0  0  0  0  0  0  0  0  0  0  0
  141.6630   78.3330  219.2490 C   0  0  0  0  0  0  0  0  0  0  0  0
  142.1820   77.4660  220.3610 C   0  0  0  0  0  0  0  0  0  0  0  0
  141.1920   77.3400  221.4970 C   0  0  1  0  0  0  0  0  0  0  0  0
  141.1080   78.5720  222.3080 C   0  0  0  0  0  0  0  0  0  0  0  0
  142.2820   79.2520  222.5610 C   0  0  0  0  0  0  0  0  0  0  0  0
  142.2710   80.4260  223.3230 C   0  0  0  0  0  0  0  0  0  0  0  0
  141.0860   80.9200  223.8310 C   0  0  0  0  0  0  0  0  0  0  0  0
  139.9360   80.2190  223.5610 C   0  0  0  0  0  0  0  0  0  0  0  0
  138.4370   80.8700  224.2220 Cl  0  0  0  0  0  0  0  0  0  0  0  0
  139.9100   79.0590  222.8140 C   0  0  0  0  0  0  0  0  0  0  0  0
  140.2520   71.5730  223.6550 C   0  0  0  0  0  0  0  0  0  0  0  0
  139.5860   70.3690  223.4980 C   0  0  0  0  0  0  0  0  0  0  0  0
  139.3760   69.5170  224.5700 C   0  0  0  0  0  0  0  0  0  0  0  0
  139.8520   69.9030  225.8050 C   0  0  0  0  0  0  0  0  0  0  0  0
  139.6580   69.0710  226.8920 C   0  0  0  0  0  0  0  0  0  0  0  0
  140.1470   69.4840  228.1230 C   0  0  0  0  0  0  0  0  0  0  0  0
  140.8110   70.6810  228.2800 C   0  0  0  0  0  0  0  0  0  0  0  0
  141.0100   71.5200  227.1940 C   0  0  0  0  0  0  0  0  0  0  0  0
  140.5190   71.1050  225.9640 C   0  0  0  0  0  0  0  0  0  0  0  0
  140.6940   71.8920  224.8860 N   0  0  0  0  0  0  0  0  0  0  0  0
  138.8020   73.6980  223.0760 H   0  0  0  0  0  0  0  0  0  0  0  0
  140.7735   74.5222  220.9575 H   0  0  0  0  0  0  0  0  0  0  0  0
  139.1142   74.0511  220.3883 H   0  0  0  0  0  0  0  0  0  0  0  0
  138.4499   77.2362  219.4897 H   0  0  0  0  0  0  0  0  0  0  0  0
  139.2153   78.7211  220.1494 H   0  0  0  0  0  0  0  0  0  0  0  0
  140.6420   76.6255  218.3972 H   0  0  0  0  0  0  0  0  0  0  0  0
  140.0420   78.1780  217.7993 H   0  0  0  0  0  0  0  0  0  0  0  0
  142.4233   78.4279  218.4597 H   0  0  0  0  0  0  0  0  0  0  0  0
  141.4278   79.3417  219.6195 H   0  0  0  0  0  0  0  0  0  0  0  0
  142.3908   76.4631  219.9602 H   0  0  0  0  0  0  0  0  0  0  0  0
  143.0936   77.9363  220.7583 H   0  0  0  0  0  0  0  0  0  0  0  0
  141.5452   76.5695  222.1981 H   0  0  0  0  0  0  0  0  0  0  0  0
  143.2325   78.8689  222.1612 H   0  0  0  0  0  0  0  0  0  0  0  0
  143.2132   80.9589  223.5185 H   0  0  0  0  0  0  0  0  0  0  0  0
  141.0636   81.8420  224.4305 H   0  0  0  0  0  0  0  0  0  0  0  0
  138.9630   78.5327  222.6239 H   0  0  0  0  0  0  0  0  0  0  0  0
  139.2163   70.0834  222.5021 H   0  0  0  0  0  0  0  0  0  0  0  0
  138.8459   68.5620  224.4399 H   0  0  0  0  0  0  0  0  0  0  0  0
  139.1320   68.1109  226.7842 H   0  0  0  0  0  0  0  0  0  0  0  0
  140.0002   68.8364  228.9999 H   0  0  0  0  0  0  0  0  0  0  0  0
  141.1854   70.9727  229.2723 H   0  0  0  0  0  0  0  0  0  0  0  0
  141.5375   72.4790  227.3034 H   0  0  0  0  0  0  0  0  0  0  0  0
  1  2  2  0
  2  3  1  0
  3  4  1  0
  4  5  1  0
  5  6  2  0
  5  7  1  0
  7  8  1  0
  8  9  1  0
  9 10  1  0
 10 11  1  0
 11 12  1  0
 12 13  1  0
 13 14  2  0
 14 15  1  0
 15 16  2  0
 16 17  1  0
 17 18  1  0
 17 19  2  0
  2 20  1  0
 20 21  2  0
 21 22  1  0
 22 23  2  0
 23 24  1  0
 24 25  2  0
 25 26  1  0
 26 27  2  0
 27 28  1  0
 28 29  2  0
 12  7  1  0
 19 13  1  0
 29 20  1  0
 28 23  1  0
  3 30  1  0
  4 31  1  0
  4 32  1  0
  8 33  1  0
  8 34  1  0
  9 35  1  0
  9 36  1  0
 10 37  1  0
 10 38  1  0
 11 39  1  0
 11 40  1  0
 12 41  1  1
 14 42  1  0
 15 43  1  0
 16 44  1  0
 19 45  1  0
 21 46  1  0
 22 47  1  0
 24 48  1  0
 25 49  1  0
 26 50  1  0
 27 51  1  0
M  END
>  <smiles>  (19) 
O=C(NCC(=O)N1CCCC[C@H]1c1cccc(Cl)c1)c1ccc2ccccc2n1

>  <score_type>  (19) 
oracle

>  <origin>  (19) 
autodockgpu

>  <m_score__min__energy>  (19) 
-9.3300000000000001

>  <m_primary>  (19) 
energy

>  <meeko>  (19) 
{"free_energy": -9.33, "intermolecular_energy": -10.82, "internal_energy": -1.63, "cluster_size": 14, "cluster_id": 1, "rank_in_cluster": 1}

>  <energy>  (19) 
-8.47

>  <cluster_rmsd>  (19) 
1.67

>  <rmsd>  (19) 
271.19

>  <cluster>  (19) 
3

$$$$

     RDKit          3D

 51 54  0  0  0  0  0  0  0  0999 V2000
  140.9670   72.7350  222.4040 O   0  0  0  0  0  0  0  0  0  0  0  0
  139.9860   72.2930  223.0670 C   0  0  0  0  0  0  0  0  0  0  0  0
  138.6380   72.5980  222.7030 N   0  0  0  0  0  0  0  0  0  0  0  0
  138.3700   73.4330  221.5480 C   0  0  0  0  0  0  0  0  0  0  0  0
  138.2190   74.8590  221.9140 C   0  0  0  0  0  0  0  0  0  0  0  0
  137.3200   75.2090  222.7290 O   0  0  0  0  0  0  0  0  0  0  0  0
  139.1160   75.7870  221.3170 N   0  0  0  0  0  0  0  0  0  0  0  0
  138.8550   76.4030  220.0160 C   0  0  0  0  0  0  0  0  0  0  0  0
  140.0220   76.1040  219.0660 C   0  0  0  0  0  0  0  0  0  0  0  0
  141.2420   76.7460  219.7030 C   0  0  0  0  0  0  0  0  0  0  0  0
  141.4980   76.0310  221.0000 C   0  0  0  0  0  0  0  0  0  0  0  0
  140.3500   76.1800  221.9720 C   0  0  1  0  0  0  0  0  0  0  0  0
  140.2900   77.5310  222.5660 C   0  0  0  0  0  0  0  0  0  0  0  0
  139.0410   78.0560  222.8360 C   0  0  0  0  0  0  0  0  0  0  0  0
  138.9140   79.3300  223.3980 C   0  0  0  0  0  0  0  0  0  0  0  0
  140.0360   80.0810  223.6920 C   0  0  0  0  0  0  0  0  0  0  0  0
  141.2620   79.5310  223.4110 C   0  0  0  0  0  0  0  0  0  0  0  0
  142.6770   80.5100  223.7940 Cl  0  0  0  0  0  0  0  0  0  0  0  0
  141.4240   78.2780  222.8570 C   0  0  0  0  0  0  0  0  0  0  0  0
  140.1870   71.4440  224.2430 C   0  0  0  0  0  0  0  0  0  0  0  0
  140.9430   71.9140  225.3040 C   0  0  0  0  0  0  0  0  0  0  0  0
  141.1550   71.1410  226.4340 C   0  0  0  0  0  0  0  0  0  0  0  0
  140.5910   69.8840  226.4730 C   0  0  0  0  0  0  0  0  0  0  0  0
  140.7860   69.0910  227.5890 C   0  0  0  0  0  0  0  0  0  0  0  0
  140.2070   67.8300  227.6020 C   0  0  0  0  0  0  0  0  0  0  0  0
  139.4550   67.3630  226.5470 C   0  0  0  0  0  0  0  0  0  0  0  0
  139.2540   68.1530  225.4230 C   0  0  0  0  0  0  0  0  0  0  0  0
  139.8350   69.4130  225.4130 C   0  0  0  0  0  0  0  0  0  0  0  0
  139.6620   70.2090  224.3410 N   0  0  0  0  0  0  0  0  0  0  0  0
  137.8470   72.2020  223.2930 H   0  0  0  0  0  0  0  0  0  0  0  0
  139.2050   73.3355  220.8386 H   0  0  0  0  0  0  0  0  0  0  0  0
  137.4235   73.0967  221.0996 H   0  0  0  0  0  0  0  0  0  0  0  0
  137.9253   75.9921  219.5956 H   0  0  0  0  0  0  0  0  0  0  0  0
  138.7518   77.4912  220.1393 H   0  0  0  0  0  0  0  0  0  0  0  0
  140.1675   75.0182  218.9663 H   0  0  0  0  0  0  0  0  0  0  0  0
  139.8356   76.4976  218.0559 H   0  0  0  0  0  0  0  0  0  0  0  0
  142.1121   76.6425  219.0381 H   0  0  0  0  0  0  0  0  0  0  0  0
  141.0712   77.8186  219.8770 H   0  0  0  0  0  0  0  0  0  0  0  0
  141.6483   74.9616  220.7910 H   0  0  0  0  0  0  0  0  0  0  0  0
  142.3906   76.4788  221.4613 H   0  0  0  0  0  0  0  0  0  0  0  0
  140.5123   75.5067  222.8266 H   0  0  0  0  0  0  0  0  0  0  0  0
  138.1401   77.4677  222.6073 H   0  0  0  0  0  0  0  0  0  0  0  0
  137.9139   79.7373  223.6075 H   0  0  0  0  0  0  0  0  0  0  0  0
  139.9499   81.0840  224.1355 H   0  0  0  0  0  0  0  0  0  0  0  0
  142.4284   77.8797  222.6505 H   0  0  0  0  0  0  0  0  0  0  0  0
  141.3836   72.9204  225.2484 H   0  0  0  0  0  0  0  0  0  0  0  0
  141.7553   71.5190  227.2747 H   0  0  0  0  0  0  0  0  0  0  0  0
  141.3824   69.4492  228.4411 H   0  0  0  0  0  0  0  0  0  0  0  0
  140.3529   67.1845  228.4807 H   0  0  0  0  0  0  0  0  0  0  0  0
  139.0108   66.3578  226.5951 H   0  0  0  0  0  0  0  0  0  0  0  0
  138.6565   67.7934  224.5723 H   0  0  0  0  0  0  0  0  0  0  0  0
  1  2  2  0
  2  3  1  0
  3  4  1  0
  4  5  1  0
  5  6  2  0
  5  7  1  0
  7  8  1  0
  8  9  1  0
  9 10  1  0
 10 11  1  0
 11 12  1  0
 12 13  1  0
 13 14  2  0
 14 15  1  0
 15 16  2  0
 16 17  1  0
 17 18  1  0
 17 19  2  0
  2 20  1  0
 20 21  2  0
 21 22  1  0
 22 23  2  0
 23 24  1  0
 24 25  2  0
 25 26  1  0
 26 27  2  0
 27 28  1  0
 28 29  2  0
 12  7  1  0
 19 13  1  0
 29 20  1  0
 28 23  1  0
  3 30  1  0
  4 31  1  0
  4 32  1  0
  8 33  1  0
  8 34  1  0
  9 35  1  0
  9 36  1  0
 10 37  1  0
 10 38  1  0
 11 39  1  0
 11 40  1  0
 12 41  1  1
 14 42  1  0
 15 43  1  0
 16 44  1  0
 19 45  1  0
 21 46  1  0
 22 47  1  0
 24 48  1  0
 25 49  1  0
 26 50  1  0
 27 51  1  0
M  END
>  <smiles>  (20) 
O=C(NCC(=O)N1CCCC[C@H]1c1cccc(Cl)c1)c1ccc2ccccc2n1

>  <score_type>  (20) 
oracle

>  <origin>  (20) 
autodockgpu

>  <m_score__min__energy>  (20) 
-9.3300000000000001

>  <m_primary>  (20) 
energy

>  <meeko>  (20) 
{"free_energy": -8.77, "intermolecular_energy": -10.26, "internal_energy": -1.69, "cluster_size": 14, "cluster_id": 1, "rank_in_cluster": 14}

>  <energy>  (20) 
-8.0

>  <cluster_rmsd>  (20) 
0.0

>  <rmsd>  (20) 
271.02

>  <cluster>  (20) 
4

$$$$
