
     RDKit          3D

 56 58  0  0  0  0  0  0  0  0999 V2000
  139.2230   74.5140  219.0840 C   0  0  0  0  0  0  0  0  0  0  0  0
  139.9940   73.4110  219.8500 C   0  0  0  0  0  0  0  0  0  0  0  0
  140.9740   74.0300  220.7550 C   0  0  0  0  0  0  0  0  0  0  0  0
  140.7140   73.9150  222.0120 O   0  0  0  0  0  0  0  0  0  0  0  0
  142.1440   74.7230  220.4370 N   0  0  0  0  0  0  0  0  0  0  0  0
  143.3460   73.9070  220.3510 C   0  0  0  0  0  0  0  0  0  0  0  0
  144.5810   74.5470  220.4510 C   0  0  0  0  0  0  0  0  0  0  0  0
  145.6960   73.7440  220.3660 C   0  0  0  0  0  0  0  0  0  0  0  0
  145.6140   72.3730  220.1900 C   0  0  0  0  0  0  0  0  0  0  0  0
  144.3710   71.7450  220.0920 C   0  0  0  0  0  0  0  0  0  0  0  0
  143.2380   72.5440  220.1770 C   0  0  0  0  0  0  0  0  0  0  0  0
  142.3220   76.1230  220.1900 C   0  0  0  0  0  0  0  0  0  0  0  0
  141.4370   77.0240  221.0060 C   0  0  0  0  0  0  0  0  0  0  0  0
  140.6400   77.9160  220.0820 C   0  0  0  0  0  0  0  0  0  0  0  0
  141.6020   78.7440  219.3790 N   0  0  0  0  0  0  0  0  0  0  0  0
  141.6380   80.1500  219.4400 C   0  0  0  0  0  0  0  0  0  0  0  0
  142.5200   80.7690  218.7850 O   0  0  0  0  0  0  0  0  0  0  0  0
  140.6260   80.8370  220.2770 C   0  0  0  0  0  0  0  0  0  0  0  0
  140.8780   80.6930  221.6910 N   0  0  0  0  0  0  0  0  0  0  0  0
  142.0250   81.2560  222.3730 C   0  0  0  0  0  0  0  0  0  0  0  0
  142.8070   80.1120  222.9730 C   0  0  0  0  0  0  0  0  0  0  0  0
  141.9210   79.0460  223.5070 C   0  0  0  0  0  0  0  0  0  0  0  0
  140.5050   79.4970  223.8270 C   0  0  0  0  0  0  0  0  0  0  0  0
  139.9580   79.9530  222.4960 C   0  0  0  0  0  0  0  0  0  0  0  0
  138.7830   79.6950  222.1360 O   0  0  0  0  0  0  0  0  0  0  0  0
  142.5830   77.9970  218.5640 C   0  0  0  0  0  0  0  0  0  0  0  0
  142.2880   76.4950  218.7140 C   0  0  0  0  0  0  0  0  0  0  0  0
  138.7465   75.1957  219.8039 H   0  0  0  0  0  0  0  0  0  0  0  0
  139.9235   75.0795  218.4520 H   0  0  0  0  0  0  0  0  0  0  0  0
  138.4513   74.0504  218.4520 H   0  0  0  0  0  0  0  0  0  0  0  0
  139.2844   72.8085  220.4361 H   0  0  0  0  0  0  0  0  0  0  0  0
  140.5190   72.7660  219.1300 H   0  0  0  0  0  0  0  0  0  0  0  0
  144.6600   75.6353  220.5904 H   0  0  0  0  0  0  0  0  0  0  0  0
  146.6900   74.2093  220.4407 H   0  0  0  0  0  0  0  0  0  0  0  0
  146.5347   71.7745  220.1270 H   0  0  0  0  0  0  0  0  0  0  0  0
  144.2917   70.6568  219.9525 H   0  0  0  0  0  0  0  0  0  0  0  0
  142.2419   72.0831  220.1045 H   0  0  0  0  0  0  0  0  0  0  0  0
  143.3465   76.3092  220.5445 H   0  0  0  0  0  0  0  0  0  0  0  0
  140.7495   76.4139  221.6103 H   0  0  0  0  0  0  0  0  0  0  0  0
  142.0567   77.6438  221.6707 H   0  0  0  0  0  0  0  0  0  0  0  0
  140.0675   77.3075  219.3665 H   0  0  0  0  0  0  0  0  0  0  0  0
  139.9212   78.5305  220.6439 H   0  0  0  0  0  0  0  0  0  0  0  0
  140.6313   81.9081  220.0264 H   0  0  0  0  0  0  0  0  0  0  0  0
  139.6513   80.3730  220.0655 H   0  0  0  0  0  0  0  0  0  0  0  0
  142.6541   81.8057  221.6575 H   0  0  0  0  0  0  0  0  0  0  0  0
  141.7023   81.9564  223.1574 H   0  0  0  0  0  0  0  0  0  0  0  0
  143.4537   79.6788  222.1958 H   0  0  0  0  0  0  0  0  0  0  0  0
  143.3991   80.5100  223.8103 H   0  0  0  0  0  0  0  0  0  0  0  0
  141.8634   78.2418  222.7587 H   0  0  0  0  0  0  0  0  0  0  0  0
  142.3658   78.7208  224.4591 H   0  0  0  0  0  0  0  0  0  0  0  0
  139.9106   78.6634  224.2293 H   0  0  0  0  0  0  0  0  0  0  0  0
  140.4748   80.2880  224.5908 H   0  0  0  0  0  0  0  0  0  0  0  0
  142.4906   78.2910  217.5080 H   0  0  0  0  0  0  0  0  0  0  0  0
  143.6058   78.2190  218.9026 H   0  0  0  0  0  0  0  0  0  0  0  0
  141.2929   76.2725  218.3014 H   0  0  0  0  0  0  0  0  0  0  0  0
  143.0459   75.9133  218.1688 H   0  0  0  0  0  0  0  0  0  0  0  0
  1  2  1  0
  2  3  1  0
  3  4  2  0
  3  5  1  0
  5  6  1  0
  6  7  2  0
  7  8  1  0
  8  9  2  0
  9 10  1  0
 10 11  2  0
  5 12  1  0
 12 13  1  0
 13 14  1  0
 14 15  1  0
 15 16  1  0
 16 17  2  0
 16 18  1  0
 18 19  1  0
 19 20  1  0
 20 21  1  0
 21 22  1  0
 22 23  1  0
 23 24  1  0
 24 25  2  0
 15 26  1  0
 26 27  1  0
 11  6  1  0
 27 12  1  0
 24 19  1  0
  1 28  1  0
  1 29  1  0
  1 30  1  0
  2 31  1  0
  2 32  1  0
  7 33  1  0
  8 34  1  0
  9 35  1  0
 10 36  1  0
 11 37  1  0
 12 38  1  0
 13 39  1  0
 13 40  1  0
 14 41  1  0
 14 42  1  0
 18 43  1  0
 18 44  1  0
 20 45  1  0
 20 46  1  0
 21 47  1  0
 21 48  1  0
 22 49  1  0
 22 50  1  0
 23 51  1  0
 23 52  1  0
 26 53  1  0
 26 54  1  0
 27 55  1  0
 27 56  1  0
M  END
>  <smiles>  (1) 
CCC(=O)N(c1ccccc1)C1CCN(C(=O)CN2CCCCC2=O)CC1

>  <score_type>  (1) 
oracle

>  <origin>  (1) 
autodockgpu

>  <m_score__min__energy>  (1) 
-6.21

>  <m_primary>  (1) 
energy

>  <meeko>  (1) 
{"free_energy": -6.17, "intermolecular_energy": -7.95, "internal_energy": -2.09, "cluster_size": 19, "cluster_id": 1, "rank_in_cluster": 18}

>  <energy>  (1) 
-6.21

>  <cluster_rmsd>  (1) 
0.0

>  <rmsd>  (1) 
271.41

>  <cluster>  (1) 
1

$$$$

     RDKit          3D

 56 58  0  0  0  0  0  0  0  0999 V2000
  139.4720   74.3850  218.8520 C   0  0  0  0  0  0  0  0  0  0  0  0
  140.0710   73.3400  219.8250 C   0  0  0  0  0  0  0  0  0  0  0  0
  141.0210   73.9980  220.7340 C   0  0  0  0  0  0  0  0  0  0  0  0
  140.7390   73.9080  221.9870 O   0  0  0  0  0  0  0  0  0  0  0  0
  142.1850   74.7050  220.4220 N   0  0  0  0  0  0  0  0  0  0  0  0
  143.3960   73.9020  220.3360 C   0  0  0  0  0  0  0  0  0  0  0  0
  144.6240   74.5510  220.4710 C   0  0  0  0  0  0  0  0  0  0  0  0
  145.7470   73.7610  220.3850 C   0  0  0  0  0  0  0  0  0  0  0  0
  145.6810   72.3940  220.1770 C   0  0  0  0  0  0  0  0  0  0  0  0
  144.4460   71.7570  220.0450 C   0  0  0  0  0  0  0  0  0  0  0  0
  143.3040   72.5430  220.1290 C   0  0  0  0  0  0  0  0  0  0  0  0
  142.3490   76.1080  220.1820 C   0  0  0  0  0  0  0  0  0  0  0  0
  141.4500   76.9960  220.9970 C   0  0  0  0  0  0  0  0  0  0  0  0
  140.6480   77.8830  220.0730 C   0  0  0  0  0  0  0  0  0  0  0  0
  141.6040   78.7240  219.3780 N   0  0  0  0  0  0  0  0  0  0  0  0
  141.6230   80.1300  219.4440 C   0  0  0  0  0  0  0  0  0  0  0  0
  142.5020   80.7620  218.7960 O   0  0  0  0  0  0  0  0  0  0  0  0
  140.6010   80.8030  220.2800 C   0  0  0  0  0  0  0  0  0  0  0  0
  140.8550   80.6660  221.6940 N   0  0  0  0  0  0  0  0  0  0  0  0
  141.9890   81.2530  222.3750 C   0  0  0  0  0  0  0  0  0  0  0  0
  142.7930   80.1260  222.9780 C   0  0  0  0  0  0  0  0  0  0  0  0
  141.9280   79.0440  223.5140 C   0  0  0  0  0  0  0  0  0  0  0  0
  140.5030   79.4680  223.8320 C   0  0  0  0  0  0  0  0  0  0  0  0
  139.9480   79.9100  222.4990 C   0  0  0  0  0  0  0  0  0  0  0  0
  138.7790   79.6290  222.1390 O   0  0  0  0  0  0  0  0  0  0  0  0
  142.5970   77.9910  218.5640 C   0  0  0  0  0  0  0  0  0  0  0  0
  142.3180   76.4850  218.7070 C   0  0  0  0  0  0  0  0  0  0  0  0
  139.0061   75.1979  219.4284 H   0  0  0  0  0  0  0  0  0  0  0  0
  140.2714   74.7964  218.2182 H   0  0  0  0  0  0  0  0  0  0  0  0
  138.7130   73.9031  218.2182 H   0  0  0  0  0  0  0  0  0  0  0  0
  139.2619   72.8804  220.4116 H   0  0  0  0  0  0  0  0  0  0  0  0
  140.5957   72.5638  219.2487 H   0  0  0  0  0  0  0  0  0  0  0  0
  144.6905   75.6363  220.6373 H   0  0  0  0  0  0  0  0  0  0  0  0
  146.7352   74.2337  220.4853 H   0  0  0  0  0  0  0  0  0  0  0  0
  146.6083   71.8056  220.1153 H   0  0  0  0  0  0  0  0  0  0  0  0
  144.3796   70.6714  219.8803 H   0  0  0  0  0  0  0  0  0  0  0  0
  142.3137   72.0746  220.0290 H   0  0  0  0  0  0  0  0  0  0  0  0
  143.3694   76.3044  220.5429 H   0  0  0  0  0  0  0  0  0  0  0  0
  140.7662   76.3759  221.5953 H   0  0  0  0  0  0  0  0  0  0  0  0
  142.0596   77.6198  221.6672 H   0  0  0  0  0  0  0  0  0  0  0  0
  140.0854   77.2713  219.3524 H   0  0  0  0  0  0  0  0  0  0  0  0
  139.9201   78.4875  220.6340 H   0  0  0  0  0  0  0  0  0  0  0  0
  140.5898   81.8735  220.0272 H   0  0  0  0  0  0  0  0  0  0  0  0
  139.6336   80.3234  220.0698 H   0  0  0  0  0  0  0  0  0  0  0  0
  142.6076   81.8136  221.6587 H   0  0  0  0  0  0  0  0  0  0  0  0
  141.6519   81.9487  223.1575 H   0  0  0  0  0  0  0  0  0  0  0  0
  143.4485   79.7039  222.2021 H   0  0  0  0  0  0  0  0  0  0  0  0
  143.3766   80.5375  223.8147 H   0  0  0  0  0  0  0  0  0  0  0  0
  141.8868   78.2370  222.7677 H   0  0  0  0  0  0  0  0  0  0  0  0
  142.3785   78.7298  224.4671 H   0  0  0  0  0  0  0  0  0  0  0  0
  139.9247   78.6240  224.2360 H   0  0  0  0  0  0  0  0  0  0  0  0
  140.4567   80.2601  224.5938 H   0  0  0  0  0  0  0  0  0  0  0  0
  142.5058   78.2881  217.5088 H   0  0  0  0  0  0  0  0  0  0  0  0
  143.6158   78.2230  218.9077 H   0  0  0  0  0  0  0  0  0  0  0  0
  141.3275   76.2530  218.2887 H   0  0  0  0  0  0  0  0  0  0  0  0
  143.0849   75.9138  218.1633 H   0  0  0  0  0  0  0  0  0  0  0  0
  1  2  1  0
  2  3  1  0
  3  4  2  0
  3  5  1  0
  5  6  1  0
  6  7  2  0
  7  8  1  0
  8  9  2  0
  9 10  1  0
 10 11  2  0
  5 12  1  0
 12 13  1  0
 13 14  1  0
 14 15  1  0
 15 16  1  0
 16 17  2  0
 16 18  1  0
 18 19  1  0
 19 20  1  0
 20 21  1  0
 21 22  1  0
 22 23  1  0
 23 24  1  0
 24 25  2  0
 15 26  1  0
 26 27  1  0
 11  6  1  0
 27 12  1  0
 24 19  1  0
  1 28  1  0
  1 29  1  0
  1 30  1  0
  2 31  1  0
  2 32  1  0
  7 33  1  0
  8 34  1  0
  9 35  1  0
 10 36  1  0
 11 37  1  0
 12 38  1  0
 13 39  1  0
 13 40  1  0
 14 41  1  0
 14 42  1  0
 18 43  1  0
 18 44  1  0
 20 45  1  0
 20 46  1  0
 21 47  1  0
 21 48  1  0
 22 49  1  0
 22 50  1  0
 23 51  1  0
 23 52  1  0
 26 53  1  0
 26 54  1  0
 27 55  1  0
 27 56  1  0
M  END
>  <smiles>  (2) 
CCC(=O)N(c1ccccc1)C1CCN(C(=O)CN2CCCCC2=O)CC1

>  <score_type>  (2) 
oracle

>  <origin>  (2) 
autodockgpu

>  <m_score__min__energy>  (2) 
-6.21

>  <m_primary>  (2) 
energy

>  <meeko>  (2) 
{"free_energy": -6.17, "intermolecular_energy": -7.96, "internal_energy": -2.09, "cluster_size": 19, "cluster_id": 1, "rank_in_cluster": 14}

>  <energy>  (2) 
-6.2

>  <cluster_rmsd>  (2) 
0.03

>  <rmsd>  (2) 
271.4

>  <cluster>  (2) 
1

$$$$

     RDKit          3D

 56 58  0  0  0  0  0  0  0  0999 V2000
  139.2270   74.6670  219.1280 C   0  0  0  0  0  0  0  0  0  0  0  0
  139.9570   73.5160  219.8630 C   0  0  0  0  0  0  0  0  0  0  0  0
  140.9680   74.0740  220.7730 C   0  0  0  0  0  0  0  0  0  0  0  0
  140.7370   73.9020  222.0280 O   0  0  0  0  0  0  0  0  0  0  0  0
  142.1430   74.7630  220.4600 N   0  0  0  0  0  0  0  0  0  0  0  0
  143.3440   73.9430  220.3860 C   0  0  0  0  0  0  0  0  0  0  0  0
  143.1880   72.5650  220.2360 C   0  0  0  0  0  0  0  0  0  0  0  0
  144.3450   71.8230  220.1700 C   0  0  0  0  0  0  0  0  0  0  0  0
  145.6030   72.3960  220.2450 C   0  0  0  0  0  0  0  0  0  0  0  0
  145.7440   73.7770  220.3940 C   0  0  0  0  0  0  0  0  0  0  0  0
  144.5840   74.5380  220.4630 C   0  0  0  0  0  0  0  0  0  0  0  0
  142.3260   76.1610  220.2080 C   0  0  0  0  0  0  0  0  0  0  0  0
  141.4470   77.0690  221.0240 C   0  0  0  0  0  0  0  0  0  0  0  0
  140.6520   77.9610  220.0990 C   0  0  0  0  0  0  0  0  0  0  0  0
  141.6160   78.7820  219.3900 N   0  0  0  0  0  0  0  0  0  0  0  0
  141.6570   80.1890  219.4460 C   0  0  0  0  0  0  0  0  0  0  0  0
  142.5410   80.8020  218.7870 O   0  0  0  0  0  0  0  0  0  0  0  0
  140.6520   80.8830  220.2850 C   0  0  0  0  0  0  0  0  0  0  0  0
  140.9080   80.7420  221.6980 N   0  0  0  0  0  0  0  0  0  0  0  0
  142.0640   81.2930  222.3730 C   0  0  0  0  0  0  0  0  0  0  0  0
  142.8330   80.1410  222.9750 C   0  0  0  0  0  0  0  0  0  0  0  0
  141.9350   79.0900  223.5180 C   0  0  0  0  0  0  0  0  0  0  0  0
  140.5260   79.5620  223.8420 C   0  0  0  0  0  0  0  0  0  0  0  0
  139.9800   80.0190  222.5100 C   0  0  0  0  0  0  0  0  0  0  0  0
  138.8010   79.7750  222.1560 O   0  0  0  0  0  0  0  0  0  0  0  0
  142.5910   78.0290  218.5740 C   0  0  0  0  0  0  0  0  0  0  0  0
  142.2900   76.5280  218.7310 C   0  0  0  0  0  0  0  0  0  0  0  0
  138.7905   75.3552  219.8668 H   0  0  0  0  0  0  0  0  0  0  0  0
  139.9444   75.2127  218.4976 H   0  0  0  0  0  0  0  0  0  0  0  0
  138.4275   74.2507  218.4976 H   0  0  0  0  0  0  0  0  0  0  0  0
  139.2274   72.9303  220.4415 H   0  0  0  0  0  0  0  0  0  0  0  0
  140.4494   72.8658  219.1249 H   0  0  0  0  0  0  0  0  0  0  0  0
  142.1944   72.0971  220.1738 H   0  0  0  0  0  0  0  0  0  0  0  0
  144.2673   70.7320  220.0531 H   0  0  0  0  0  0  0  0  0  0  0  0
  146.4977   71.7588  220.1868 H   0  0  0  0  0  0  0  0  0  0  0  0
  146.7375   74.2453  220.4545 H   0  0  0  0  0  0  0  0  0  0  0  0
  144.6565   75.6293  220.5806 H   0  0  0  0  0  0  0  0  0  0  0  0
  143.3522   76.3443  220.5592 H   0  0  0  0  0  0  0  0  0  0  0  0
  140.7584   76.4641  221.6322 H   0  0  0  0  0  0  0  0  0  0  0  0
  142.0711   77.6880  221.6853 H   0  0  0  0  0  0  0  0  0  0  0  0
  140.0747   77.3525  219.3874 H   0  0  0  0  0  0  0  0  0  0  0  0
  139.9377   78.5811  220.6606 H   0  0  0  0  0  0  0  0  0  0  0  0
  140.6616   81.9533  220.0314 H   0  0  0  0  0  0  0  0  0  0  0  0
  139.6744   80.4228  220.0786 H   0  0  0  0  0  0  0  0  0  0  0  0
  142.6976   81.8315  221.6529 H   0  0  0  0  0  0  0  0  0  0  0  0
  141.7535   82.0012  223.1553 H   0  0  0  0  0  0  0  0  0  0  0  0
  143.4701   79.6953  222.1969 H   0  0  0  0  0  0  0  0  0  0  0  0
  143.4343   80.5347  223.8077 H   0  0  0  0  0  0  0  0  0  0  0  0
  141.8632   78.2830  222.7740 H   0  0  0  0  0  0  0  0  0  0  0  0
  142.3794   78.7635  224.4698 H   0  0  0  0  0  0  0  0  0  0  0  0
  139.9219   78.7386  224.2508 H   0  0  0  0  0  0  0  0  0  0  0  0
  140.5095   80.3569  224.6022 H   0  0  0  0  0  0  0  0  0  0  0  0
  142.4958   78.3196  217.5174 H   0  0  0  0  0  0  0  0  0  0  0  0
  143.6161   78.2484  218.9074 H   0  0  0  0  0  0  0  0  0  0  0  0
  141.2929   76.3081  218.3217 H   0  0  0  0  0  0  0  0  0  0  0  0
  143.0444   75.9413  218.1864 H   0  0  0  0  0  0  0  0  0  0  0  0
  1  2  1  0
  2  3  1  0
  3  4  2  0
  3  5  1  0
  5  6  1  0
  6  7  2  0
  7  8  1  0
  8  9  2  0
  9 10  1  0
 10 11  2  0
  5 12  1  0
 12 13  1  0
 13 14  1  0
 14 15  1  0
 15 16  1  0
 16 17  2  0
 16 18  1  0
 18 19  1  0
 19 20  1  0
 20 21  1  0
 21 22  1  0
 22 23  1  0
 23 24  1  0
 24 25  2  0
 15 26  1  0
 26 27  1  0
 11  6  1  0
 27 12  1  0
 24 19  1  0
  1 28  1  0
  1 29  1  0
  1 30  1  0
  2 31  1  0
  2 32  1  0
  7 33  1  0
  8 34  1  0
  9 35  1  0
 10 36  1  0
 11 37  1  0
 12 38  1  0
 13 39  1  0
 13 40  1  0
 14 41  1  0
 14 42  1  0
 18 43  1  0
 18 44  1  0
 20 45  1  0
 20 46  1  0
 21 47  1  0
 21 48  1  0
 22 49  1  0
 22 50  1  0
 23 51  1  0
 23 52  1  0
 26 53  1  0
 26 54  1  0
 27 55  1  0
 27 56  1  0
M  END
>  <smiles>  (3) 
CCC(=O)N(c1ccccc1)C1CCN(C(=O)CN2CCCCC2=O)CC1

>  <score_type>  (3) 
oracle

>  <origin>  (3) 
autodockgpu

>  <m_score__min__energy>  (3) 
-6.21

>  <m_primary>  (3) 
energy

>  <meeko>  (3) 
{"free_energy": -6.17, "intermolecular_energy": -7.96, "internal_energy": -2.1, "cluster_size": 19, "cluster_id": 1, "rank_in_cluster": 17}

>  <energy>  (3) 
-6.19

>  <cluster_rmsd>  (3) 
0.3

>  <rmsd>  (3) 
271.38

>  <cluster>  (3) 
1

$$$$

     RDKit          3D

 56 58  0  0  0  0  0  0  0  0999 V2000
  139.3460   74.4820  218.9950 C   0  0  0  0  0  0  0  0  0  0  0  0
  140.0200   73.3820  219.8510 C   0  0  0  0  0  0  0  0  0  0  0  0
  141.0050   73.9930  220.7560 C   0  0  0  0  0  0  0  0  0  0  0  0
  140.7600   73.8560  222.0130 O   0  0  0  0  0  0  0  0  0  0  0  0
  142.1680   74.6990  220.4370 N   0  0  0  0  0  0  0  0  0  0  0  0
  143.3800   73.8970  220.3540 C   0  0  0  0  0  0  0  0  0  0  0  0
  143.2440   72.5220  220.1680 C   0  0  0  0  0  0  0  0  0  0  0  0
  144.4110   71.7960  220.0930 C   0  0  0  0  0  0  0  0  0  0  0  0
  145.6610   72.3830  220.1940 C   0  0  0  0  0  0  0  0  0  0  0  0
  145.7820   73.7620  220.3800 C   0  0  0  0  0  0  0  0  0  0  0  0
  144.6120   74.5060  220.4570 C   0  0  0  0  0  0  0  0  0  0  0  0
  142.3290   76.1010  220.1860 C   0  0  0  0  0  0  0  0  0  0  0  0
  141.4390   76.9940  221.0060 C   0  0  0  0  0  0  0  0  0  0  0  0
  140.6280   77.8750  220.0850 C   0  0  0  0  0  0  0  0  0  0  0  0
  141.5770   78.7120  219.3740 N   0  0  0  0  0  0  0  0  0  0  0  0
  141.5970   80.1190  219.4320 C   0  0  0  0  0  0  0  0  0  0  0  0
  142.4690   80.7460  218.7710 O   0  0  0  0  0  0  0  0  0  0  0  0
  140.5840   80.7960  220.2750 C   0  0  0  0  0  0  0  0  0  0  0  0
  140.8470   80.6600  221.6870 N   0  0  0  0  0  0  0  0  0  0  0  0
  141.9890   81.2420  222.3600 C   0  0  0  0  0  0  0  0  0  0  0  0
  142.7920   80.1110  222.9580 C   0  0  0  0  0  0  0  0  0  0  0  0
  141.9260   79.0330  223.5000 C   0  0  0  0  0  0  0  0  0  0  0  0
  140.5060   79.4640  223.8290 C   0  0  0  0  0  0  0  0  0  0  0  0
  139.9430   79.9080  222.4990 C   0  0  0  0  0  0  0  0  0  0  0  0
  138.7700   79.6310  222.1480 O   0  0  0  0  0  0  0  0  0  0  0  0
  142.5610   77.9740  218.5550 C   0  0  0  0  0  0  0  0  0  0  0  0
  142.2830   76.4690  218.7090 C   0  0  0  0  0  0  0  0  0  0  0  0
  138.8868   75.2314  219.6564 H   0  0  0  0  0  0  0  0  0  0  0  0
  140.1020   74.9673  218.3602 H   0  0  0  0  0  0  0  0  0  0  0  0
  138.5703   74.0288  218.3602 H   0  0  0  0  0  0  0  0  0  0  0  0
  139.2546   72.8589  220.4430 H   0  0  0  0  0  0  0  0  0  0  0  0
  140.5284   72.6654  219.1892 H   0  0  0  0  0  0  0  0  0  0  0  0
  142.2572   72.0431  220.0856 H   0  0  0  0  0  0  0  0  0  0  0  0
  144.3482   70.7075  219.9472 H   0  0  0  0  0  0  0  0  0  0  0  0
  146.5646   71.7593  220.1273 H   0  0  0  0  0  0  0  0  0  0  0  0
  146.7686   74.2414  220.4625 H   0  0  0  0  0  0  0  0  0  0  0  0
  144.6693   75.5949  220.6020 H   0  0  0  0  0  0  0  0  0  0  0  0
  143.3533   76.3001  220.5341 H   0  0  0  0  0  0  0  0  0  0  0  0
  140.7615   76.3777  221.6153 H   0  0  0  0  0  0  0  0  0  0  0  0
  142.0555   77.6214  221.6665 H   0  0  0  0  0  0  0  0  0  0  0  0
  140.0578   77.2587  219.3743 H   0  0  0  0  0  0  0  0  0  0  0  0
  139.9064   78.4833  220.6499 H   0  0  0  0  0  0  0  0  0  0  0  0
  140.5747   81.8663  220.0212 H   0  0  0  0  0  0  0  0  0  0  0  0
  139.6138   80.3188  220.0725 H   0  0  0  0  0  0  0  0  0  0  0  0
  142.6052   81.7993  221.6392 H   0  0  0  0  0  0  0  0  0  0  0  0
  141.6608   81.9397  223.1445 H   0  0  0  0  0  0  0  0  0  0  0  0
  143.4404   79.6858  222.1777 H   0  0  0  0  0  0  0  0  0  0  0  0
  143.3829   80.5201  223.7908 H   0  0  0  0  0  0  0  0  0  0  0  0
  141.8751   78.2266  222.7536 H   0  0  0  0  0  0  0  0  0  0  0  0
  142.3822   78.7158  224.4494 H   0  0  0  0  0  0  0  0  0  0  0  0
  139.9267   78.6231  224.2380 H   0  0  0  0  0  0  0  0  0  0  0  0
  140.4692   80.2566  224.5908 H   0  0  0  0  0  0  0  0  0  0  0  0
  142.4596   78.2652  217.4991 H   0  0  0  0  0  0  0  0  0  0  0  0
  143.5832   78.2073  218.8877 H   0  0  0  0  0  0  0  0  0  0  0  0
  141.2882   76.2349  218.3021 H   0  0  0  0  0  0  0  0  0  0  0  0
  143.0438   75.8942  218.1606 H   0  0  0  0  0  0  0  0  0  0  0  0
  1  2  1  0
  2  3  1  0
  3  4  2  0
  3  5  1  0
  5  6  1  0
  6  7  2  0
  7  8  1  0
  8  9  2  0
  9 10  1  0
 10 11  2  0
  5 12  1  0
 12 13  1  0
 13 14  1  0
 14 15  1  0
 15 16  1  0
 16 17  2  0
 16 18  1  0
 18 19  1  0
 19 20  1  0
 20 21  1  0
 21 22  1  0
 22 23  1  0
 23 24  1  0
 24 25  2  0
 15 26  1  0
 26 27  1  0
 11  6  1  0
 27 12  1  0
 24 19  1  0
  1 28  1  0
  1 29  1  0
  1 30  1  0
  2 31  1  0
  2 32  1  0
  7 33  1  0
  8 34  1  0
  9 35  1  0
 10 36  1  0
 11 37  1  0
 12 38  1  0
 13 39  1  0
 13 40  1  0
 14 41  1  0
 14 42  1  0
 18 43  1  0
 18 44  1  0
 20 45  1  0
 20 46  1  0
 21 47  1  0
 21 48  1  0
 22 49  1  0
 22 50  1  0
 23 51  1  0
 23 52  1  0
 26 53  1  0
 26 54  1  0
 27 55  1  0
 27 56  1  0
M  END
>  <smiles>  (4) 
CCC(=O)N(c1ccccc1)C1CCN(C(=O)CN2CCCCC2=O)CC1

>  <score_type>  (4) 
oracle

>  <origin>  (4) 
autodockgpu

>  <m_score__min__energy>  (4) 
-6.21

>  <m_primary>  (4) 
energy

>  <meeko>  (4) 
{"free_energy": -6.17, "intermolecular_energy": -7.96, "internal_energy": -2.09, "cluster_size": 19, "cluster_id": 1, "rank_in_cluster": 13}

>  <energy>  (4) 
-6.19

>  <cluster_rmsd>  (4) 
0.29

>  <rmsd>  (4) 
271.38

>  <cluster>  (4) 
1

$$$$

     RDKit          3D

 56 58  0  0  0  0  0  0  0  0999 V2000
  139.4640   74.3680  218.8820 C   0  0  0  0  0  0  0  0  0  0  0  0
  140.0740   73.3250  219.8500 C   0  0  0  0  0  0  0  0  0  0  0  0
  141.0260   73.9870  220.7550 C   0  0  0  0  0  0  0  0  0  0  0  0
  140.7500   73.8960  222.0090 O   0  0  0  0  0  0  0  0  0  0  0  0
  142.1850   74.6980  220.4370 N   0  0  0  0  0  0  0  0  0  0  0  0
  143.4000   73.9010  220.3470 C   0  0  0  0  0  0  0  0  0  0  0  0
  143.2680   72.5280  220.1350 C   0  0  0  0  0  0  0  0  0  0  0  0
  144.4370   71.8070  220.0550 C   0  0  0  0  0  0  0  0  0  0  0  0
  145.6850   72.3940  220.1740 C   0  0  0  0  0  0  0  0  0  0  0  0
  145.8020   73.7690  220.3850 C   0  0  0  0  0  0  0  0  0  0  0  0
  144.6300   74.5100  220.4690 C   0  0  0  0  0  0  0  0  0  0  0  0
  142.3420   76.1020  220.1940 C   0  0  0  0  0  0  0  0  0  0  0  0
  141.4370   76.9870  221.0060 C   0  0  0  0  0  0  0  0  0  0  0  0
  140.6320   77.8670  220.0790 C   0  0  0  0  0  0  0  0  0  0  0  0
  141.5850   78.7120  219.3840 N   0  0  0  0  0  0  0  0  0  0  0  0
  141.5970   80.1180  219.4480 C   0  0  0  0  0  0  0  0  0  0  0  0
  142.4740   80.7530  218.8000 O   0  0  0  0  0  0  0  0  0  0  0  0
  140.5690   80.7870  220.2800 C   0  0  0  0  0  0  0  0  0  0  0  0
  140.8240   80.6590  221.6940 N   0  0  0  0  0  0  0  0  0  0  0  0
  141.9460   81.2690  222.3760 C   0  0  0  0  0  0  0  0  0  0  0  0
  142.7700   80.1570  222.9830 C   0  0  0  0  0  0  0  0  0  0  0  0
  141.9240   79.0610  223.5200 C   0  0  0  0  0  0  0  0  0  0  0  0
  140.4910   79.4600  223.8350 C   0  0  0  0  0  0  0  0  0  0  0  0
  139.9300   79.8880  222.5000 C   0  0  0  0  0  0  0  0  0  0  0  0
  138.7670   79.5840  222.1400 O   0  0  0  0  0  0  0  0  0  0  0  0
  142.5840   77.9830  218.5730 C   0  0  0  0  0  0  0  0  0  0  0  0
  142.3130   76.4760  218.7190 C   0  0  0  0  0  0  0  0  0  0  0  0
  138.9922   75.1747  219.4621 H   0  0  0  0  0  0  0  0  0  0  0  0
  140.2585   74.7886  218.2481 H   0  0  0  0  0  0  0  0  0  0  0  0
  138.7079   73.8817  218.2481 H   0  0  0  0  0  0  0  0  0  0  0  0
  139.2707   72.8602  220.4405 H   0  0  0  0  0  0  0  0  0  0  0  0
  140.5996   72.5524  219.2696 H   0  0  0  0  0  0  0  0  0  0  0  0
  142.2829   72.0483  220.0372 H   0  0  0  0  0  0  0  0  0  0  0  0
  144.3776   70.7211  219.8899 H   0  0  0  0  0  0  0  0  0  0  0  0
  146.5902   71.7731  220.1019 H   0  0  0  0  0  0  0  0  0  0  0  0
  146.7872   74.2486  220.4813 H   0  0  0  0  0  0  0  0  0  0  0  0
  144.6845   75.5961  220.6349 H   0  0  0  0  0  0  0  0  0  0  0  0
  143.3607   76.3045  220.5562 H   0  0  0  0  0  0  0  0  0  0  0  0
  140.7557   76.3646  221.6047 H   0  0  0  0  0  0  0  0  0  0  0  0
  142.0422   77.6156  221.6759 H   0  0  0  0  0  0  0  0  0  0  0  0
  140.0743   77.2506  219.3586 H   0  0  0  0  0  0  0  0  0  0  0  0
  139.8994   78.4685  220.6372 H   0  0  0  0  0  0  0  0  0  0  0  0
  140.5492   81.8561  220.0218 H   0  0  0  0  0  0  0  0  0  0  0  0
  139.6055   80.2989  220.0718 H   0  0  0  0  0  0  0  0  0  0  0  0
  142.5554   81.8396  221.6597 H   0  0  0  0  0  0  0  0  0  0  0  0
  141.5949   81.9603  223.1563 H   0  0  0  0  0  0  0  0  0  0  0  0
  143.4341   79.7451  222.2089 H   0  0  0  0  0  0  0  0  0  0  0  0
  143.3450   80.5807  223.8196 H   0  0  0  0  0  0  0  0  0  0  0  0
  141.8985   78.2517  222.7754 H   0  0  0  0  0  0  0  0  0  0  0  0
  142.3786   78.7570  224.4744 H   0  0  0  0  0  0  0  0  0  0  0  0
  139.9276   78.6068  224.2406 H   0  0  0  0  0  0  0  0  0  0  0  0
  140.4293   80.2533  224.5945 H   0  0  0  0  0  0  0  0  0  0  0  0
  142.4929   78.2773  217.5170 H   0  0  0  0  0  0  0  0  0  0  0  0
  143.6010   78.2217  218.9176 H   0  0  0  0  0  0  0  0  0  0  0  0
  141.3249   76.2376  218.2985 H   0  0  0  0  0  0  0  0  0  0  0  0
  143.0848   75.9081  218.1789 H   0  0  0  0  0  0  0  0  0  0  0  0
  1  2  1  0
  2  3  1  0
  3  4  2  0
  3  5  1  0
  5  6  1  0
  6  7  2  0
  7  8  1  0
  8  9  2  0
  9 10  1  0
 10 11  2  0
  5 12  1  0
 12 13  1  0
 13 14  1  0
 14 15  1  0
 15 16  1  0
 16 17  2  0
 16 18  1  0
 18 19  1  0
 19 20  1  0
 20 21  1  0
 21 22  1  0
 22 23  1  0
 23 24  1  0
 24 25  2  0
 15 26  1  0
 26 27  1  0
 11  6  1  0
 27 12  1  0
 24 19  1  0
  1 28  1  0
  1 29  1  0
  1 30  1  0
  2 31  1  0
  2 32  1  0
  7 33  1  0
  8 34  1  0
  9 35  1  0
 10 36  1  0
 11 37  1  0
 12 38  1  0
 13 39  1  0
 13 40  1  0
 14 41  1  0
 14 42  1  0
 18 43  1  0
 18 44  1  0
 20 45  1  0
 20 46  1  0
 21 47  1  0
 21 48  1  0
 22 49  1  0
 22 50  1  0
 23 51  1  0
 23 52  1  0
 26 53  1  0
 26 54  1  0
 27 55  1  0
 27 56  1  0
M  END
>  <smiles>  (5) 
CCC(=O)N(c1ccccc1)C1CCN(C(=O)CN2CCCCC2=O)CC1

>  <score_type>  (5) 
oracle

>  <origin>  (5) 
autodockgpu

>  <m_score__min__energy>  (5) 
-6.21

>  <m_primary>  (5) 
energy

>  <meeko>  (5) 
{"free_energy": -6.18, "intermolecular_energy": -7.97, "internal_energy": -2.09, "cluster_size": 19, "cluster_id": 1, "rank_in_cluster": 7}

>  <energy>  (5) 
-6.19

>  <cluster_rmsd>  (5) 
0.26

>  <rmsd>  (5) 
271.39

>  <cluster>  (5) 
1

$$$$

     RDKit          3D

 56 58  0  0  0  0  0  0  0  0999 V2000
  139.5250   74.5750  221.9080 C   0  0  0  0  0  0  0  0  0  0  0  0
  140.6520   73.5570  221.6050 C   0  0  0  0  0  0  0  0  0  0  0  0
  141.3110   73.9110  220.3390 C   0  0  0  0  0  0  0  0  0  0  0  0
  140.7570   73.4380  219.2770 O   0  0  0  0  0  0  0  0  0  0  0  0
  142.4530   74.6880  220.1340 N   0  0  0  0  0  0  0  0  0  0  0  0
  143.7100   73.9530  220.1070 C   0  0  0  0  0  0  0  0  0  0  0  0
  143.7750   72.7950  219.3310 C   0  0  0  0  0  0  0  0  0  0  0  0
  144.9780   72.1270  219.3290 C   0  0  0  0  0  0  0  0  0  0  0  0
  146.0750   72.5660  220.0500 C   0  0  0  0  0  0  0  0  0  0  0  0
  145.9960   73.7270  220.8220 C   0  0  0  0  0  0  0  0  0  0  0  0
  144.7870   74.4110  220.8330 C   0  0  0  0  0  0  0  0  0  0  0  0
  142.5570   76.1060  219.9520 C   0  0  0  0  0  0  0  0  0  0  0  0
  141.6310   76.9200  220.8130 C   0  0  0  0  0  0  0  0  0  0  0  0
  140.7840   77.8110  219.9350 C   0  0  0  0  0  0  0  0  0  0  0  0
  141.6970   78.7200  219.2680 N   0  0  0  0  0  0  0  0  0  0  0  0
  141.6590   80.1220  219.3950 C   0  0  0  0  0  0  0  0  0  0  0  0
  142.5050   80.8160  218.7670 O   0  0  0  0  0  0  0  0  0  0  0  0
  140.6190   80.7150  220.2670 C   0  0  0  0  0  0  0  0  0  0  0  0
  140.9270   80.5900  221.6720 N   0  0  0  0  0  0  0  0  0  0  0  0
  142.0610   81.2220  222.3130 C   0  0  0  0  0  0  0  0  0  0  0  0
  142.9290   80.1270  222.8870 C   0  0  0  0  0  0  0  0  0  0  0  0
  142.1260   79.0120  223.4520 C   0  0  0  0  0  0  0  0  0  0  0  0
  140.6980   79.3810  223.8200 C   0  0  0  0  0  0  0  0  0  0  0  0
  140.0790   79.8000  222.5080 C   0  0  0  0  0  0  0  0  0  0  0  0
  138.9100   79.4730  222.1890 O   0  0  0  0  0  0  0  0  0  0  0  0
  142.7110   78.0650  218.4150 C   0  0  0  0  0  0  0  0  0  0  0  0
  142.4950   76.5440  218.4960 C   0  0  0  0  0  0  0  0  0  0  0  0
  139.4087   74.6800  222.9968 H   0  0  0  0  0  0  0  0  0  0  0  0
  139.7849   75.5505  221.4712 H   0  0  0  0  0  0  0  0  0  0  0  0
  138.5808   74.2175  221.4712 H   0  0  0  0  0  0  0  0  0  0  0  0
  141.3908   73.5758  222.4198 H   0  0  0  0  0  0  0  0  0  0  0  0
  140.2201   72.5488  221.5219 H   0  0  0  0  0  0  0  0  0  0  0  0
  142.9113   72.4357  218.7523 H   0  0  0  0  0  0  0  0  0  0  0  0
  145.0715   71.2084  218.7312 H   0  0  0  0  0  0  0  0  0  0  0  0
  147.0154   71.9965  220.0146 H   0  0  0  0  0  0  0  0  0  0  0  0
  146.8597   74.0868  221.4004 H   0  0  0  0  0  0  0  0  0  0  0  0
  144.6886   75.3302  221.4292 H   0  0  0  0  0  0  0  0  0  0  0  0
  143.5728   76.3291  220.3104 H   0  0  0  0  0  0  0  0  0  0  0  0
  140.9797   76.2470  221.3900 H   0  0  0  0  0  0  0  0  0  0  0  0
  142.2212   77.5392  221.5046 H   0  0  0  0  0  0  0  0  0  0  0  0
  140.2396   77.2074  219.1938 H   0  0  0  0  0  0  0  0  0  0  0  0
  140.0379   78.3605  220.5279 H   0  0  0  0  0  0  0  0  0  0  0  0
  140.5227   81.7831  220.0223 H   0  0  0  0  0  0  0  0  0  0  0  0
  139.6826   80.1676  220.0839 H   0  0  0  0  0  0  0  0  0  0  0  0
  142.6317   81.8055  221.5756 H   0  0  0  0  0  0  0  0  0  0  0  0
  141.7251   81.9052  223.1069 H   0  0  0  0  0  0  0  0  0  0  0  0
  143.5731   79.7304  222.0884 H   0  0  0  0  0  0  0  0  0  0  0  0
  143.5247   80.5614  223.7033 H   0  0  0  0  0  0  0  0  0  0  0  0
  142.0899   78.2037  222.7068 H   0  0  0  0  0  0  0  0  0  0  0  0
  142.6215   78.7154  224.3882 H   0  0  0  0  0  0  0  0  0  0  0  0
  140.1675   78.5156  224.2439 H   0  0  0  0  0  0  0  0  0  0  0  0
  140.6484   80.1717  224.5831 H   0  0  0  0  0  0  0  0  0  0  0  0
  142.5969   78.4027  217.3743 H   0  0  0  0  0  0  0  0  0  0  0  0
  143.7230   78.3246  218.7591 H   0  0  0  0  0  0  0  0  0  0  0  0
  141.5103   76.2895  218.0770 H   0  0  0  0  0  0  0  0  0  0  0  0
  143.2788   76.0286  217.9216 H   0  0  0  0  0  0  0  0  0  0  0  0
  1  2  1  0
  2  3  1  0
  3  4  2  0
  3  5  1  0
  5  6  1  0
  6  7  2  0
  7  8  1  0
  8  9  2  0
  9 10  1  0
 10 11  2  0
  5 12  1  0
 12 13  1  0
 13 14  1  0
 14 15  1  0
 15 16  1  0
 16 17  2  0
 16 18  1  0
 18 19  1  0
 19 20  1  0
 20 21  1  0
 21 22  1  0
 22 23  1  0
 23 24  1  0
 24 25  2  0
 15 26  1  0
 26 27  1  0
 11  6  1  0
 27 12  1  0
 24 19  1  0
  1 28  1  0
  1 29  1  0
  1 30  1  0
  2 31  1  0
  2 32  1  0
  7 33  1  0
  8 34  1  0
  9 35  1  0
 10 36  1  0
 11 37  1  0
 12 38  1  0
 13 39  1  0
 13 40  1  0
 14 41  1  0
 14 42  1  0
 18 43  1  0
 18 44  1  0
 20 45  1  0
 20 46  1  0
 21 47  1  0
 21 48  1  0
 22 49  1  0
 22 50  1  0
 23 51  1  0
 23 52  1  0
 26 53  1  0
 26 54  1  0
 27 55  1  0
 27 56  1  0
M  END
>  <smiles>  (6) 
CCC(=O)N(c1ccccc1)C1CCN(C(=O)CN2CCCCC2=O)CC1

>  <score_type>  (6) 
oracle

>  <origin>  (6) 
autodockgpu

>  <m_score__min__energy>  (6) 
-6.21

>  <m_primary>  (6) 
energy

>  <meeko>  (6) 
{"free_energy": -5.75, "intermolecular_energy": -7.53, "internal_energy": -2.1, "cluster_size": 19, "cluster_id": 1, "rank_in_cluster": 19}

>  <energy>  (6) 
-6.18

>  <cluster_rmsd>  (6) 
0.22

>  <rmsd>  (6) 
271.37

>  <cluster>  (6) 
1

$$$$

     RDKit          3D

 56 58  0  0  0  0  0  0  0  0999 V2000
  138.7080   74.0330  219.9540 C   0  0  0  0  0  0  0  0  0  0  0  0
  140.0850   73.3300  219.8680 C   0  0  0  0  0  0  0  0  0  0  0  0
  141.0370   73.9950  220.7700 C   0  0  0  0  0  0  0  0  0  0  0  0
  140.7610   73.9080  222.0250 O   0  0  0  0  0  0  0  0  0  0  0  0
  142.1970   74.7050  220.4490 N   0  0  0  0  0  0  0  0  0  0  0  0
  143.4110   73.9060  220.3630 C   0  0  0  0  0  0  0  0  0  0  0  0
  143.2800   72.5350  220.1490 C   0  0  0  0  0  0  0  0  0  0  0  0
  144.4490   71.8120  220.0730 C   0  0  0  0  0  0  0  0  0  0  0  0
  145.6960   72.3990  220.1980 C   0  0  0  0  0  0  0  0  0  0  0  0
  145.8130   73.7740  220.4110 C   0  0  0  0  0  0  0  0  0  0  0  0
  144.6410   74.5150  220.4910 C   0  0  0  0  0  0  0  0  0  0  0  0
  142.3540   76.1070  220.2000 C   0  0  0  0  0  0  0  0  0  0  0  0
  141.4540   76.9960  221.0140 C   0  0  0  0  0  0  0  0  0  0  0  0
  140.6450   77.8740  220.0880 C   0  0  0  0  0  0  0  0  0  0  0  0
  141.5950   78.7150  219.3840 N   0  0  0  0  0  0  0  0  0  0  0  0
  141.6090   80.1210  219.4420 C   0  0  0  0  0  0  0  0  0  0  0  0
  142.4820   80.7530  218.7870 O   0  0  0  0  0  0  0  0  0  0  0  0
  140.5870   80.7950  220.2780 C   0  0  0  0  0  0  0  0  0  0  0  0
  140.8440   80.6620  221.6920 N   0  0  0  0  0  0  0  0  0  0  0  0
  141.9770   81.2550  222.3700 C   0  0  0  0  0  0  0  0  0  0  0  0
  142.7870   80.1310  222.9740 C   0  0  0  0  0  0  0  0  0  0  0  0
  141.9270   79.0470  223.5130 C   0  0  0  0  0  0  0  0  0  0  0  0
  140.5010   79.4660  223.8330 C   0  0  0  0  0  0  0  0  0  0  0  0
  139.9420   79.9040  222.5000 C   0  0  0  0  0  0  0  0  0  0  0  0
  138.7730   79.6170  222.1430 O   0  0  0  0  0  0  0  0  0  0  0  0
  142.5870   77.9820  218.5700 C   0  0  0  0  0  0  0  0  0  0  0  0
  142.3150   76.4750  218.7230 C   0  0  0  0  0  0  0  0  0  0  0  0
  138.4332   74.1733  221.0098 H   0  0  0  0  0  0  0  0  0  0  0  0
  138.7647   75.0125  219.4566 H   0  0  0  0  0  0  0  0  0  0  0  0
  137.9479   73.4126  219.4566 H   0  0  0  0  0  0  0  0  0  0  0  0
  139.9767   72.2759  220.1631 H   0  0  0  0  0  0  0  0  0  0  0  0
  140.4599   73.3873  218.8355 H   0  0  0  0  0  0  0  0  0  0  0  0
  142.2950   72.0562  220.0463 H   0  0  0  0  0  0  0  0  0  0  0  0
  144.3897   70.7263  219.9066 H   0  0  0  0  0  0  0  0  0  0  0  0
  146.6013   71.7780  220.1291 H   0  0  0  0  0  0  0  0  0  0  0  0
  146.7980   74.2531  220.5118 H   0  0  0  0  0  0  0  0  0  0  0  0
  144.6950   75.6008  220.6585 H   0  0  0  0  0  0  0  0  0  0  0  0
  143.3751   76.3103  220.5551 H   0  0  0  0  0  0  0  0  0  0  0  0
  140.7752   76.3764  221.6184 H   0  0  0  0  0  0  0  0  0  0  0  0
  142.0633   77.6261  221.6786 H   0  0  0  0  0  0  0  0  0  0  0  0
  140.0822   77.2557  219.3732 H   0  0  0  0  0  0  0  0  0  0  0  0
  139.9169   78.4789  220.6483 H   0  0  0  0  0  0  0  0  0  0  0  0
  140.5738   81.8648  220.0224 H   0  0  0  0  0  0  0  0  0  0  0  0
  139.6199   80.3137  220.0707 H   0  0  0  0  0  0  0  0  0  0  0  0
  142.5921   81.8168  221.6516 H   0  0  0  0  0  0  0  0  0  0  0  0
  141.6387   81.9510  223.1517 H   0  0  0  0  0  0  0  0  0  0  0  0
  143.4428   79.7100  222.1977 H   0  0  0  0  0  0  0  0  0  0  0  0
  143.3706   80.5460  223.8090 H   0  0  0  0  0  0  0  0  0  0  0  0
  141.8874   78.2387  222.7679 H   0  0  0  0  0  0  0  0  0  0  0  0
  142.3803   78.7361  224.4658 H   0  0  0  0  0  0  0  0  0  0  0  0
  139.9266   78.6204  224.2392 H   0  0  0  0  0  0  0  0  0  0  0  0
  140.4530   80.2590  224.5938 H   0  0  0  0  0  0  0  0  0  0  0  0
  142.4897   78.2726  217.5136 H   0  0  0  0  0  0  0  0  0  0  0  0
  143.6064   78.2204  218.9076 H   0  0  0  0  0  0  0  0  0  0  0  0
  141.3237   76.2362  218.3103 H   0  0  0  0  0  0  0  0  0  0  0  0
  143.0819   75.9038  218.1793 H   0  0  0  0  0  0  0  0  0  0  0  0
  1  2  1  0
  2  3  1  0
  3  4  2  0
  3  5  1  0
  5  6  1  0
  6  7  2  0
  7  8  1  0
  8  9  2  0
  9 10  1  0
 10 11  2  0
  5 12  1  0
 12 13  1  0
 13 14  1  0
 14 15  1  0
 15 16  1  0
 16 17  2  0
 16 18  1  0
 18 19  1  0
 19 20  1  0
 20 21  1  0
 21 22  1  0
 22 23  1  0
 23 24  1  0
 24 25  2  0
 15 26  1  0
 26 27  1  0
 11  6  1  0
 27 12  1  0
 24 19  1  0
  1 28  1  0
  1 29  1  0
  1 30  1  0
  2 31  1  0
  2 32  1  0
  7 33  1  0
  8 34  1  0
  9 35  1  0
 10 36  1  0
 11 37  1  0
 12 38  1  0
 13 39  1  0
 13 40  1  0
 14 41  1  0
 14 42  1  0
 18 43  1  0
 18 44  1  0
 20 45  1  0
 20 46  1  0
 21 47  1  0
 21 48  1  0
 22 49  1  0
 22 50  1  0
 23 51  1  0
 23 52  1  0
 26 53  1  0
 26 54  1  0
 27 55  1  0
 27 56  1  0
M  END
>  <smiles>  (7) 
CCC(=O)N(c1ccccc1)C1CCN(C(=O)CN2CCCCC2=O)CC1

>  <score_type>  (7) 
oracle

>  <origin>  (7) 
autodockgpu

>  <m_score__min__energy>  (7) 
-6.21

>  <m_primary>  (7) 
energy

>  <meeko>  (7) 
{"free_energy": -6.21, "intermolecular_energy": -8.0, "internal_energy": -2.04, "cluster_size": 19, "cluster_id": 1, "rank_in_cluster": 1}

>  <energy>  (7) 
-6.18

>  <cluster_rmsd>  (7) 
0.26

>  <rmsd>  (7) 
271.39

>  <cluster>  (7) 
1

$$$$

     RDKit          3D

 56 58  0  0  0  0  0  0  0  0999 V2000
  139.2520   74.3870  219.0540 C   0  0  0  0  0  0  0  0  0  0  0  0
  140.0870   73.3160  219.7980 C   0  0  0  0  0  0  0  0  0  0  0  0
  141.0310   73.9730  220.7130 C   0  0  0  0  0  0  0  0  0  0  0  0
  140.7460   73.8750  221.9660 O   0  0  0  0  0  0  0  0  0  0  0  0
  142.1930   74.6870  220.4090 N   0  0  0  0  0  0  0  0  0  0  0  0
  143.4100   73.8910  220.3330 C   0  0  0  0  0  0  0  0  0  0  0  0
  143.2830   72.5200  220.1150 C   0  0  0  0  0  0  0  0  0  0  0  0
  144.4550   71.8000  220.0480 C   0  0  0  0  0  0  0  0  0  0  0  0
  145.6990   72.3890  220.1860 C   0  0  0  0  0  0  0  0  0  0  0  0
  145.8120   73.7640  220.4030 C   0  0  0  0  0  0  0  0  0  0  0  0
  144.6370   74.5020  220.4730 C   0  0  0  0  0  0  0  0  0  0  0  0
  142.3500   76.0900  220.1680 C   0  0  0  0  0  0  0  0  0  0  0  0
  141.4410   76.9740  220.9770 C   0  0  0  0  0  0  0  0  0  0  0  0
  140.6390   77.8550  220.0480 C   0  0  0  0  0  0  0  0  0  0  0  0
  141.5940   78.7010  219.3570 N   0  0  0  0  0  0  0  0  0  0  0  0
  141.6050   80.1070  219.4220 C   0  0  0  0  0  0  0  0  0  0  0  0
  142.4840   80.7430  218.7780 O   0  0  0  0  0  0  0  0  0  0  0  0
  140.5740   80.7750  220.2510 C   0  0  0  0  0  0  0  0  0  0  0  0
  140.8260   80.6490  221.6660 N   0  0  0  0  0  0  0  0  0  0  0  0
  141.9490   81.2580  222.3480 C   0  0  0  0  0  0  0  0  0  0  0  0
  142.7690   80.1460  222.9580 C   0  0  0  0  0  0  0  0  0  0  0  0
  141.9200   79.0530  223.4970 C   0  0  0  0  0  0  0  0  0  0  0  0
  140.4880   79.4560  223.8100 C   0  0  0  0  0  0  0  0  0  0  0  0
  139.9290   79.8830  222.4730 C   0  0  0  0  0  0  0  0  0  0  0  0
  138.7660   79.5810  222.1110 O   0  0  0  0  0  0  0  0  0  0  0  0
  142.5960   77.9730  218.5490 C   0  0  0  0  0  0  0  0  0  0  0  0
  142.3250   76.4660  218.6920 C   0  0  0  0  0  0  0  0  0  0  0  0
  138.7479   75.0336  219.7874 H   0  0  0  0  0  0  0  0  0  0  0  0
  139.9158   74.9964  218.4231 H   0  0  0  0  0  0  0  0  0  0  0  0
  138.4992   73.8919  218.4231 H   0  0  0  0  0  0  0  0  0  0  0  0
  139.4147   72.6625  220.3732 H   0  0  0  0  0  0  0  0  0  0  0  0
  140.6468   72.7161  219.0654 H   0  0  0  0  0  0  0  0  0  0  0  0
  142.3000   72.0393  220.0026 H   0  0  0  0  0  0  0  0  0  0  0  0
  144.3998   70.7146  219.8782 H   0  0  0  0  0  0  0  0  0  0  0  0
  146.6060   71.7697  220.1244 H   0  0  0  0  0  0  0  0  0  0  0  0
  146.7950   74.2449  220.5144 H   0  0  0  0  0  0  0  0  0  0  0  0
  144.6869   75.5877  220.6423 H   0  0  0  0  0  0  0  0  0  0  0  0
  143.3674   76.2921  220.5340 H   0  0  0  0  0  0  0  0  0  0  0  0
  140.7576   76.3506  221.5723 H   0  0  0  0  0  0  0  0  0  0  0  0
  142.0434   77.6023  221.6496 H   0  0  0  0  0  0  0  0  0  0  0  0
  140.0839   77.2392  219.3251 H   0  0  0  0  0  0  0  0  0  0  0  0
  139.9046   78.4558  220.6045 H   0  0  0  0  0  0  0  0  0  0  0  0
  140.5528   81.8438  219.9917 H   0  0  0  0  0  0  0  0  0  0  0  0
  139.6119   80.2849  220.0412 H   0  0  0  0  0  0  0  0  0  0  0  0
  142.5606   81.8255  221.6311 H   0  0  0  0  0  0  0  0  0  0  0  0
  141.5988   81.9520  223.1263 H   0  0  0  0  0  0  0  0  0  0  0  0
  143.4328   79.7307  222.1854 H   0  0  0  0  0  0  0  0  0  0  0  0
  143.3440   80.5704  223.7942 H   0  0  0  0  0  0  0  0  0  0  0  0
  141.8931   78.2421  222.7542 H   0  0  0  0  0  0  0  0  0  0  0  0
  142.3732   78.7501  224.4524 H   0  0  0  0  0  0  0  0  0  0  0  0
  139.9221   78.6049  224.2168 H   0  0  0  0  0  0  0  0  0  0  0  0
  140.4275   80.2509  224.5680 H   0  0  0  0  0  0  0  0  0  0  0  0
  142.5088   78.2685  217.4930 H   0  0  0  0  0  0  0  0  0  0  0  0
  143.6116   78.2114  218.8980 H   0  0  0  0  0  0  0  0  0  0  0  0
  141.3381   76.2279  218.2684 H   0  0  0  0  0  0  0  0  0  0  0  0
  143.0983   75.8989  218.1532 H   0  0  0  0  0  0  0  0  0  0  0  0
  1  2  1  0
  2  3  1  0
  3  4  2  0
  3  5  1  0
  5  6  1  0
  6  7  2  0
  7  8  1  0
  8  9  2  0
  9 10  1  0
 10 11  2  0
  5 12  1  0
 12 13  1  0
 13 14  1  0
 14 15  1  0
 15 16  1  0
 16 17  2  0
 16 18  1  0
 18 19  1  0
 19 20  1  0
 20 21  1  0
 21 22  1  0
 22 23  1  0
 23 24  1  0
 24 25  2  0
 15 26  1  0
 26 27  1  0
 11  6  1  0
 27 12  1  0
 24 19  1  0
  1 28  1  0
  1 29  1  0
  1 30  1  0
  2 31  1  0
  2 32  1  0
  7 33  1  0
  8 34  1  0
  9 35  1  0
 10 36  1  0
 11 37  1  0
 12 38  1  0
 13 39  1  0
 13 40  1  0
 14 41  1  0
 14 42  1  0
 18 43  1  0
 18 44  1  0
 20 45  1  0
 20 46  1  0
 21 47  1  0
 21 48  1  0
 22 49  1  0
 22 50  1  0
 23 51  1  0
 23 52  1  0
 26 53  1  0
 26 54  1  0
 27 55  1  0
 27 56  1  0
M  END
>  <smiles>  (8) 
CCC(=O)N(c1ccccc1)C1CCN(C(=O)CN2CCCCC2=O)CC1

>  <score_type>  (8) 
oracle

>  <origin>  (8) 
autodockgpu

>  <m_score__min__energy>  (8) 
-6.21

>  <m_primary>  (8) 
energy

>  <meeko>  (8) 
{"free_energy": -6.18, "intermolecular_energy": -7.97, "internal_energy": -2.09, "cluster_size": 19, "cluster_id": 1, "rank_in_cluster": 6}

>  <energy>  (8) 
-6.18

>  <cluster_rmsd>  (8) 
0.24

>  <rmsd>  (8) 
271.39

>  <cluster>  (8) 
1

$$$$

     RDKit          3D

 56 58  0  0  0  0  0  0  0  0999 V2000
  139.2600   74.6290  219.0540 C   0  0  0  0  0  0  0  0  0  0  0  0
  140.0110   73.5210  219.8330 C   0  0  0  0  0  0  0  0  0  0  0  0
  140.9640   74.1350  220.7690 C   0  0  0  0  0  0  0  0  0  0  0  0
  140.6710   74.0090  222.0170 O   0  0  0  0  0  0  0  0  0  0  0  0
  142.1410   74.8340  220.4890 N   0  0  0  0  0  0  0  0  0  0  0  0
  143.3540   74.0290  220.4730 C   0  0  0  0  0  0  0  0  0  0  0  0
  144.5810   74.6920  220.4790 C   0  0  0  0  0  0  0  0  0  0  0  0
  145.7050   73.8990  220.4650 C   0  0  0  0  0  0  0  0  0  0  0  0
  145.6410   72.5170  220.4460 C   0  0  0  0  0  0  0  0  0  0  0  0
  144.4060   71.8650  220.4400 C   0  0  0  0  0  0  0  0  0  0  0  0
  143.2630   72.6540  220.4550 C   0  0  0  0  0  0  0  0  0  0  0  0
  142.3160   76.2300  220.2200 C   0  0  0  0  0  0  0  0  0  0  0  0
  141.4460   77.1430  221.0390 C   0  0  0  0  0  0  0  0  0  0  0  0
  140.6350   78.0240  220.1170 C   0  0  0  0  0  0  0  0  0  0  0  0
  141.5860   78.8410  219.3860 N   0  0  0  0  0  0  0  0  0  0  0  0
  141.6240   80.2480  219.4280 C   0  0  0  0  0  0  0  0  0  0  0  0
  142.4960   80.8570  218.7500 O   0  0  0  0  0  0  0  0  0  0  0  0
  140.6280   80.9470  220.2730 C   0  0  0  0  0  0  0  0  0  0  0  0
  140.8820   80.7890  221.6850 N   0  0  0  0  0  0  0  0  0  0  0  0
  142.0700   81.2740  222.3560 C   0  0  0  0  0  0  0  0  0  0  0  0
  142.7770   80.0790  222.9520 C   0  0  0  0  0  0  0  0  0  0  0  0
  141.8250   79.0780  223.4960 C   0  0  0  0  0  0  0  0  0  0  0  0
  140.4460   79.6260  223.8270 C   0  0  0  0  0  0  0  0  0  0  0  0
  139.9200   80.1150  222.4990 C   0  0  0  0  0  0  0  0  0  0  0  0
  138.7270   79.9380  222.1500 O   0  0  0  0  0  0  0  0  0  0  0  0
  142.5520   78.0820  218.5640 C   0  0  0  0  0  0  0  0  0  0  0  0
  142.2580   76.5820  218.7400 C   0  0  0  0  0  0  0  0  0  0  0  0
  138.7895   75.3231  219.7659 H   0  0  0  0  0  0  0  0  0  0  0  0
  139.9720   75.1793  218.4214 H   0  0  0  0  0  0  0  0  0  0  0  0
  138.4851   74.1715  218.4214 H   0  0  0  0  0  0  0  0  0  0  0  0
  139.2864   72.9132  220.3947 H   0  0  0  0  0  0  0  0  0  0  0  0
  140.5566   72.8817  219.1234 H   0  0  0  0  0  0  0  0  0  0  0  0
  144.6464   75.7899  220.4941 H   0  0  0  0  0  0  0  0  0  0  0  0
  146.6931   74.3824  220.4691 H   0  0  0  0  0  0  0  0  0  0  0  0
  146.5697   71.9275  220.4355 H   0  0  0  0  0  0  0  0  0  0  0  0
  144.3409   70.7670  220.4240 H   0  0  0  0  0  0  0  0  0  0  0  0
  142.2726   72.1753  220.4525 H   0  0  0  0  0  0  0  0  0  0  0  0
  143.3466   76.4200  220.5544 H   0  0  0  0  0  0  0  0  0  0  0  0
  140.7679   76.5419  221.6626 H   0  0  0  0  0  0  0  0  0  0  0  0
  142.0776   77.7703  221.6852 H   0  0  0  0  0  0  0  0  0  0  0  0
  140.0492   77.4070  219.4198 H   0  0  0  0  0  0  0  0  0  0  0  0
  139.9273   78.6475  220.6831 H   0  0  0  0  0  0  0  0  0  0  0  0
  140.6517   82.0195  220.0296 H   0  0  0  0  0  0  0  0  0  0  0  0
  139.6445   80.5019  220.0619 H   0  0  0  0  0  0  0  0  0  0  0  0
  142.7292   81.7784  221.6342 H   0  0  0  0  0  0  0  0  0  0  0  0
  141.8029   81.9965  223.1412 H   0  0  0  0  0  0  0  0  0  0  0  0
  143.3853   79.6010  222.1700 H   0  0  0  0  0  0  0  0  0  0  0  0
  143.4026   80.4366  223.7831 H   0  0  0  0  0  0  0  0  0  0  0  0
  141.7058   78.2782  222.7503 H   0  0  0  0  0  0  0  0  0  0  0  0
  142.2546   78.7249  224.4451 H   0  0  0  0  0  0  0  0  0  0  0  0
  139.7993   78.8363  224.2371 H   0  0  0  0  0  0  0  0  0  0  0  0
  140.4768   80.4191  224.5886 H   0  0  0  0  0  0  0  0  0  0  0  0
  142.4413   78.3616  217.5059 H   0  0  0  0  0  0  0  0  0  0  0  0
  143.5809   78.3075  218.8812 H   0  0  0  0  0  0  0  0  0  0  0  0
  141.2560   76.3550  218.3470 H   0  0  0  0  0  0  0  0  0  0  0  0
  143.0064   75.9921  218.1906 H   0  0  0  0  0  0  0  0  0  0  0  0
  1  2  1  0
  2  3  1  0
  3  4  2  0
  3  5  1  0
  5  6  1  0
  6  7  2  0
  7  8  1  0
  8  9  2  0
  9 10  1  0
 10 11  2  0
  5 12  1  0
 12 13  1  0
 13 14  1  0
 14 15  1  0
 15 16  1  0
 16 17  2  0
 16 18  1  0
 18 19  1  0
 19 20  1  0
 20 21  1  0
 21 22  1  0
 22 23  1  0
 23 24  1  0
 24 25  2  0
 15 26  1  0
 26 27  1  0
 11  6  1  0
 27 12  1  0
 24 19  1  0
  1 28  1  0
  1 29  1  0
  1 30  1  0
  2 31  1  0
  2 32  1  0
  7 33  1  0
  8 34  1  0
  9 35  1  0
 10 36  1  0
 11 37  1  0
 12 38  1  0
 13 39  1  0
 13 40  1  0
 14 41  1  0
 14 42  1  0
 18 43  1  0
 18 44  1  0
 20 45  1  0
 20 46  1  0
 21 47  1  0
 21 48  1  0
 22 49  1  0
 22 50  1  0
 23 51  1  0
 23 52  1  0
 26 53  1  0
 26 54  1  0
 27 55  1  0
 27 56  1  0
M  END
>  <smiles>  (9) 
CCC(=O)N(c1ccccc1)C1CCN(C(=O)CN2CCCCC2=O)CC1

>  <score_type>  (9) 
oracle

>  <origin>  (9) 
autodockgpu

>  <m_score__min__energy>  (9) 
-6.21

>  <m_primary>  (9) 
energy

>  <meeko>  (9) 
{"free_energy": -6.18, "intermolecular_energy": -7.97, "internal_energy": -2.07, "cluster_size": 19, "cluster_id": 1, "rank_in_cluster": 11}

>  <energy>  (9) 
-6.18

>  <cluster_rmsd>  (9) 
0.14

>  <rmsd>  (9) 
271.36

>  <cluster>  (9) 
1

$$$$

     RDKit          3D

 56 58  0  0  0  0  0  0  0  0999 V2000
  138.9900   74.2780  219.4240 C   0  0  0  0  0  0  0  0  0  0  0  0
  140.1140   73.2930  219.8280 C   0  0  0  0  0  0  0  0  0  0  0  0
  141.0610   73.9660  220.7300 C   0  0  0  0  0  0  0  0  0  0  0  0
  140.7850   73.8780  221.9850 O   0  0  0  0  0  0  0  0  0  0  0  0
  142.2140   74.6850  220.4100 N   0  0  0  0  0  0  0  0  0  0  0  0
  143.4360   73.8970  220.3250 C   0  0  0  0  0  0  0  0  0  0  0  0
  143.3170   72.5280  220.0880 C   0  0  0  0  0  0  0  0  0  0  0  0
  144.4920   71.8150  220.0130 C   0  0  0  0  0  0  0  0  0  0  0  0
  145.7330   72.4090  220.1610 C   0  0  0  0  0  0  0  0  0  0  0  0
  145.8380   73.7810  220.3970 C   0  0  0  0  0  0  0  0  0  0  0  0
  144.6600   74.5120  220.4750 C   0  0  0  0  0  0  0  0  0  0  0  0
  142.3600   76.0890  220.1600 C   0  0  0  0  0  0  0  0  0  0  0  0
  141.4440   76.9700  220.9630 C   0  0  0  0  0  0  0  0  0  0  0  0
  140.6350   77.8380  220.0280 C   0  0  0  0  0  0  0  0  0  0  0  0
  141.5830   78.6880  219.3320 N   0  0  0  0  0  0  0  0  0  0  0  0
  141.5820   80.0940  219.3880 C   0  0  0  0  0  0  0  0  0  0  0  0
  142.4560   80.7340  218.7410 O   0  0  0  0  0  0  0  0  0  0  0  0
  140.5450   80.7580  220.2130 C   0  0  0  0  0  0  0  0  0  0  0  0
  140.7960   80.6410  221.6290 N   0  0  0  0  0  0  0  0  0  0  0  0
  141.9130   81.2610  222.3100 C   0  0  0  0  0  0  0  0  0  0  0  0
  142.7410   80.1590  222.9270 C   0  0  0  0  0  0  0  0  0  0  0  0
  141.9000   79.0610  223.4690 C   0  0  0  0  0  0  0  0  0  0  0  0
  140.4640   79.4540  223.7770 C   0  0  0  0  0  0  0  0  0  0  0  0
  139.9050   79.8710  222.4380 C   0  0  0  0  0  0  0  0  0  0  0  0
  138.7440   79.5580  222.0750 O   0  0  0  0  0  0  0  0  0  0  0  0
  142.5910   77.9630  218.5300 C   0  0  0  0  0  0  0  0  0  0  0  0
  142.3320   76.4540  218.6820 C   0  0  0  0  0  0  0  0  0  0  0  0
  138.5203   74.6897  220.3295 H   0  0  0  0  0  0  0  0  0  0  0  0
  139.4175   75.0976  218.8277 H   0  0  0  0  0  0  0  0  0  0  0  0
  138.2336   73.7466  218.8277 H   0  0  0  0  0  0  0  0  0  0  0  0
  139.6733   72.4257  220.3413 H   0  0  0  0  0  0  0  0  0  0  0  0
  140.6459   72.9567  218.9258 H   0  0  0  0  0  0  0  0  0  0  0  0
  142.3367   72.0438  219.9674 H   0  0  0  0  0  0  0  0  0  0  0  0
  144.4426   70.7317  219.8284 H   0  0  0  0  0  0  0  0  0  0  0  0
  146.6435   71.7956  220.0922 H   0  0  0  0  0  0  0  0  0  0  0  0
  146.8183   74.2653  220.5168 H   0  0  0  0  0  0  0  0  0  0  0  0
  144.7044   75.5956  220.6589 H   0  0  0  0  0  0  0  0  0  0  0  0
  143.3755   76.3029  220.5249 H   0  0  0  0  0  0  0  0  0  0  0  0
  140.7658   76.3448  221.5622 H   0  0  0  0  0  0  0  0  0  0  0  0
  142.0408   77.6076  221.6318 H   0  0  0  0  0  0  0  0  0  0  0  0
  140.0857   77.2128  219.3087 H   0  0  0  0  0  0  0  0  0  0  0  0
  139.8951   78.4359  220.5803 H   0  0  0  0  0  0  0  0  0  0  0  0
  140.5159   81.8253  219.9484 H   0  0  0  0  0  0  0  0  0  0  0  0
  139.5871   80.2591  220.0046 H   0  0  0  0  0  0  0  0  0  0  0  0
  142.5214   81.8297  221.5914 H   0  0  0  0  0  0  0  0  0  0  0  0
  141.5557   81.9554  223.0847 H   0  0  0  0  0  0  0  0  0  0  0  0
  143.4103   79.7459  222.1579 H   0  0  0  0  0  0  0  0  0  0  0  0
  143.3103   80.5921  223.7627 H   0  0  0  0  0  0  0  0  0  0  0  0
  141.8814   78.2467  222.7297 H   0  0  0  0  0  0  0  0  0  0  0  0
  142.3537   78.7656  224.4266 H   0  0  0  0  0  0  0  0  0  0  0  0
  139.9039   78.6001  224.1859 H   0  0  0  0  0  0  0  0  0  0  0  0
  140.3956   80.2514  224.5316 H   0  0  0  0  0  0  0  0  0  0  0  0
  142.5026   78.2512  217.4721 H   0  0  0  0  0  0  0  0  0  0  0  0
  143.6042   78.2115  218.8788 H   0  0  0  0  0  0  0  0  0  0  0  0
  141.3472   76.2051  218.2599 H   0  0  0  0  0  0  0  0  0  0  0  0
  143.1093   75.8892  218.1465 H   0  0  0  0  0  0  0  0  0  0  0  0
  1  2  1  0
  2  3  1  0
  3  4  2  0
  3  5  1  0
  5  6  1  0
  6  7  2  0
  7  8  1  0
  8  9  2  0
  9 10  1  0
 10 11  2  0
  5 12  1  0
 12 13  1  0
 13 14  1  0
 14 15  1  0
 15 16  1  0
 16 17  2  0
 16 18  1  0
 18 19  1  0
 19 20  1  0
 20 21  1  0
 21 22  1  0
 22 23  1  0
 23 24  1  0
 24 25  2  0
 15 26  1  0
 26 27  1  0
 11  6  1  0
 27 12  1  0
 24 19  1  0
  1 28  1  0
  1 29  1  0
  1 30  1  0
  2 31  1  0
  2 32  1  0
  7 33  1  0
  8 34  1  0
  9 35  1  0
 10 36  1  0
 11 37  1  0
 12 38  1  0
 13 39  1  0
 13 40  1  0
 14 41  1  0
 14 42  1  0
 18 43  1  0
 18 44  1  0
 20 45  1  0
 20 46  1  0
 21 47  1  0
 21 48  1  0
 22 49  1  0
 22 50  1  0
 23 51  1  0
 23 52  1  0
 26 53  1  0
 26 54  1  0
 27 55  1  0
 27 56  1  0
M  END
>  <smiles>  (10) 
CCC(=O)N(c1ccccc1)C1CCN(C(=O)CN2CCCCC2=O)CC1

>  <score_type>  (10) 
oracle

>  <origin>  (10) 
autodockgpu

>  <m_score__min__energy>  (10) 
-6.21

>  <m_primary>  (10) 
energy

>  <meeko>  (10) 
{"free_energy": -6.18, "intermolecular_energy": -7.97, "internal_energy": -2.07, "cluster_size": 19, "cluster_id": 1, "rank_in_cluster": 9}

>  <energy>  (10) 
-6.18

>  <cluster_rmsd>  (10) 
0.3

>  <rmsd>  (10) 
271.37

>  <cluster>  (10) 
1

$$$$

     RDKit          3D

 56 58  0  0  0  0  0  0  0  0999 V2000
  140.4150   73.6350  218.3950 C   0  0  0  0  0  0  0  0  0  0  0  0
  140.1200   73.2550  219.8670 C   0  0  0  0  0  0  0  0  0  0  0  0
  141.0210   73.9990  220.7600 C   0  0  0  0  0  0  0  0  0  0  0  0
  140.6900   73.9960  222.0050 O   0  0  0  0  0  0  0  0  0  0  0  0
  142.1820   74.7060  220.4410 N   0  0  0  0  0  0  0  0  0  0  0  0
  143.3950   73.9040  220.3570 C   0  0  0  0  0  0  0  0  0  0  0  0
  143.2600   72.5300  220.1650 C   0  0  0  0  0  0  0  0  0  0  0  0
  144.4270   71.8040  220.0900 C   0  0  0  0  0  0  0  0  0  0  0  0
  145.6760   72.3910  220.1970 C   0  0  0  0  0  0  0  0  0  0  0  0
  145.7970   73.7690  220.3880 C   0  0  0  0  0  0  0  0  0  0  0  0
  144.6270   74.5130  220.4660 C   0  0  0  0  0  0  0  0  0  0  0  0
  142.3440   76.1070  220.1900 C   0  0  0  0  0  0  0  0  0  0  0  0
  141.4320   76.9980  220.9890 C   0  0  0  0  0  0  0  0  0  0  0  0
  140.6370   77.8740  220.0490 C   0  0  0  0  0  0  0  0  0  0  0  0
  141.5970   78.7140  219.3570 N   0  0  0  0  0  0  0  0  0  0  0  0
  141.6110   80.1200  219.4130 C   0  0  0  0  0  0  0  0  0  0  0  0
  142.4940   80.7500  218.7700 O   0  0  0  0  0  0  0  0  0  0  0  0
  140.5760   80.7950  220.2320 C   0  0  0  0  0  0  0  0  0  0  0  0
  140.8250   80.6860  221.6490 N   0  0  0  0  0  0  0  0  0  0  0  0
  141.9670   81.2700  222.3210 C   0  0  0  0  0  0  0  0  0  0  0  0
  142.7510   80.1430  222.9500 C   0  0  0  0  0  0  0  0  0  0  0  0
  141.8680   79.0870  223.5070 C   0  0  0  0  0  0  0  0  0  0  0  0
  140.4490   79.5420  223.8130 C   0  0  0  0  0  0  0  0  0  0  0  0
  139.9040   79.9630  222.4690 C   0  0  0  0  0  0  0  0  0  0  0  0
  138.7320   79.6930  222.1120 O   0  0  0  0  0  0  0  0  0  0  0  0
  142.6020   77.9790  218.5610 C   0  0  0  0  0  0  0  0  0  0  0  0
  142.3270   76.4720  218.7130 C   0  0  0  0  0  0  0  0  0  0  0  0
  141.0893   74.5037  218.3686 H   0  0  0  0  0  0  0  0  0  0  0  0
  140.8921   72.7849  217.8854 H   0  0  0  0  0  0  0  0  0  0  0  0
  139.4731   73.8864  217.8854 H   0  0  0  0  0  0  0  0  0  0  0  0
  139.0766   73.5066  220.1077 H   0  0  0  0  0  0  0  0  0  0  0  0
  140.2802   72.1754  220.0041 H   0  0  0  0  0  0  0  0  0  0  0  0
  142.2734   72.0514  220.0780 H   0  0  0  0  0  0  0  0  0  0  0  0
  144.3647   70.7162  219.9393 H   0  0  0  0  0  0  0  0  0  0  0  0
  146.5798   71.7675  220.1311 H   0  0  0  0  0  0  0  0  0  0  0  0
  146.7836   74.2479  220.4736 H   0  0  0  0  0  0  0  0  0  0  0  0
  144.6839   75.6012  220.6166 H   0  0  0  0  0  0  0  0  0  0  0  0
  143.3605   76.3101  220.5581 H   0  0  0  0  0  0  0  0  0  0  0  0
  140.7442   76.3798  221.5846 H   0  0  0  0  0  0  0  0  0  0  0  0
  142.0314   77.6294  221.6613 H   0  0  0  0  0  0  0  0  0  0  0  0
  140.0850   77.2540  219.3273 H   0  0  0  0  0  0  0  0  0  0  0  0
  139.9008   78.4801  220.5973 H   0  0  0  0  0  0  0  0  0  0  0  0
  140.5527   81.8607  219.9603 H   0  0  0  0  0  0  0  0  0  0  0  0
  139.6156   80.3000  220.0256 H   0  0  0  0  0  0  0  0  0  0  0  0
  142.5963   81.8053  221.5948 H   0  0  0  0  0  0  0  0  0  0  0  0
  141.6393   81.9879  223.0873 H   0  0  0  0  0  0  0  0  0  0  0  0
  143.4011   79.6937  222.1848 H   0  0  0  0  0  0  0  0  0  0  0  0
  143.3392   80.5630  223.7792 H   0  0  0  0  0  0  0  0  0  0  0  0
  141.8147   78.2650  222.7779 H   0  0  0  0  0  0  0  0  0  0  0  0
  142.3117   78.7852  224.4672 H   0  0  0  0  0  0  0  0  0  0  0  0
  139.8560   78.7171  224.2347 H   0  0  0  0  0  0  0  0  0  0  0  0
  140.4145   80.3516  224.5569 H   0  0  0  0  0  0  0  0  0  0  0  0
  142.5221   78.2673  217.5025 H   0  0  0  0  0  0  0  0  0  0  0  0
  143.6158   78.2179  218.9147 H   0  0  0  0  0  0  0  0  0  0  0  0
  141.3418   76.2329  218.2862 H   0  0  0  0  0  0  0  0  0  0  0  0
  143.1016   75.8995  218.1818 H   0  0  0  0  0  0  0  0  0  0  0  0
  1  2  1  0
  2  3  1  0
  3  4  2  0
  3  5  1  0
  5  6  1  0
  6  7  2  0
  7  8  1  0
  8  9  2  0
  9 10  1  0
 10 11  2  0
  5 12  1  0
 12 13  1  0
 13 14  1  0
 14 15  1  0
 15 16  1  0
 16 17  2  0
 16 18  1  0
 18 19  1  0
 19 20  1  0
 20 21  1  0
 21 22  1  0
 22 23  1  0
 23 24  1  0
 24 25  2  0
 15 26  1  0
 26 27  1  0
 11  6  1  0
 27 12  1  0
 24 19  1  0
  1 28  1  0
  1 29  1  0
  1 30  1  0
  2 31  1  0
  2 32  1  0
  7 33  1  0
  8 34  1  0
  9 35  1  0
 10 36  1  0
 11 37  1  0
 12 38  1  0
 13 39  1  0
 13 40  1  0
 14 41  1  0
 14 42  1  0
 18 43  1  0
 18 44  1  0
 20 45  1  0
 20 46  1  0
 21 47  1  0
 21 48  1  0
 22 49  1  0
 22 50  1  0
 23 51  1  0
 23 52  1  0
 26 53  1  0
 26 54  1  0
 27 55  1  0
 27 56  1  0
M  END
>  <smiles>  (11) 
CCC(=O)N(c1ccccc1)C1CCN(C(=O)CN2CCCCC2=O)CC1

>  <score_type>  (11) 
oracle

>  <origin>  (11) 
autodockgpu

>  <m_score__min__energy>  (11) 
-6.21

>  <m_primary>  (11) 
energy

>  <meeko>  (11) 
{"free_energy": -6.18, "intermolecular_energy": -7.97, "internal_energy": -2.08, "cluster_size": 19, "cluster_id": 1, "rank_in_cluster": 10}

>  <energy>  (11) 
-6.18

>  <cluster_rmsd>  (11) 
0.3

>  <rmsd>  (11) 
271.45

>  <cluster>  (11) 
1

$$$$

     RDKit          3D

 56 58  0  0  0  0  0  0  0  0999 V2000
  139.3340   74.5740  218.9500 C   0  0  0  0  0  0  0  0  0  0  0  0
  139.9800   73.4580  219.8080 C   0  0  0  0  0  0  0  0  0  0  0  0
  140.9640   74.0480  220.7270 C   0  0  0  0  0  0  0  0  0  0  0  0
  140.7050   73.9030  221.9800 O   0  0  0  0  0  0  0  0  0  0  0  0
  142.1390   74.7420  220.4260 N   0  0  0  0  0  0  0  0  0  0  0  0
  143.3420   73.9260  220.3530 C   0  0  0  0  0  0  0  0  0  0  0  0
  143.1920   72.5530  220.1620 C   0  0  0  0  0  0  0  0  0  0  0  0
  144.3510   71.8130  220.0980 C   0  0  0  0  0  0  0  0  0  0  0  0
  145.6070   72.3850  220.2140 C   0  0  0  0  0  0  0  0  0  0  0  0
  145.7420   73.7620  220.4040 C   0  0  0  0  0  0  0  0  0  0  0  0
  144.5800   74.5200  220.4710 C   0  0  0  0  0  0  0  0  0  0  0  0
  142.3200   76.1430  220.1830 C   0  0  0  0  0  0  0  0  0  0  0  0
  141.4330   77.0420  220.9990 C   0  0  0  0  0  0  0  0  0  0  0  0
  140.6420   77.9380  220.0750 C   0  0  0  0  0  0  0  0  0  0  0  0
  141.6080   78.7670  219.3780 N   0  0  0  0  0  0  0  0  0  0  0  0
  141.6450   80.1730  219.4430 C   0  0  0  0  0  0  0  0  0  0  0  0
  142.5310   80.7930  218.7940 O   0  0  0  0  0  0  0  0  0  0  0  0
  140.6310   80.8590  220.2790 C   0  0  0  0  0  0  0  0  0  0  0  0
  140.8710   80.7000  221.6930 N   0  0  0  0  0  0  0  0  0  0  0  0
  142.0220   81.2380  222.3870 C   0  0  0  0  0  0  0  0  0  0  0  0
  142.7800   80.0760  222.9840 C   0  0  0  0  0  0  0  0  0  0  0  0
  141.8720   79.0220  223.5040 C   0  0  0  0  0  0  0  0  0  0  0  0
  140.4620   79.4970  223.8180 C   0  0  0  0  0  0  0  0  0  0  0  0
  139.9320   79.9710  222.4860 C   0  0  0  0  0  0  0  0  0  0  0  0
  138.7560   79.7360  222.1170 O   0  0  0  0  0  0  0  0  0  0  0  0
  142.5910   78.0210  218.5640 C   0  0  0  0  0  0  0  0  0  0  0  0
  142.2930   76.5190  218.7090 C   0  0  0  0  0  0  0  0  0  0  0  0
  138.8933   75.3354  219.6103 H   0  0  0  0  0  0  0  0  0  0  0  0
  140.1023   75.0395  218.3152 H   0  0  0  0  0  0  0  0  0  0  0  0
  138.5477   74.1396  218.3152 H   0  0  0  0  0  0  0  0  0  0  0  0
  139.1993   72.9445  220.3884 H   0  0  0  0  0  0  0  0  0  0  0  0
  140.4839   72.7363  219.1483 H   0  0  0  0  0  0  0  0  0  0  0  0
  142.2005   72.0861  220.0675 H   0  0  0  0  0  0  0  0  0  0  0  0
  144.2767   70.7257  219.9490 H   0  0  0  0  0  0  0  0  0  0  0  0
  146.5039   71.7507  220.1561 H   0  0  0  0  0  0  0  0  0  0  0  0
  146.7333   74.2296  220.4973 H   0  0  0  0  0  0  0  0  0  0  0  0
  144.6487   75.6077  220.6200 H   0  0  0  0  0  0  0  0  0  0  0  0
  143.3436   76.3276  220.5409 H   0  0  0  0  0  0  0  0  0  0  0  0
  140.7420   76.4306  221.5980 H   0  0  0  0  0  0  0  0  0  0  0  0
  142.0505   77.6581  221.6692 H   0  0  0  0  0  0  0  0  0  0  0  0
  140.0713   77.3327  219.3553 H   0  0  0  0  0  0  0  0  0  0  0  0
  139.9224   78.5521  220.6363 H   0  0  0  0  0  0  0  0  0  0  0  0
  140.6453   81.9323  220.0387 H   0  0  0  0  0  0  0  0  0  0  0  0
  139.6549   80.4036  220.0557 H   0  0  0  0  0  0  0  0  0  0  0  0
  142.6656   81.7821  221.6801 H   0  0  0  0  0  0  0  0  0  0  0  0
  141.7058   81.9381  223.1743 H   0  0  0  0  0  0  0  0  0  0  0  0
  143.4245   79.6372  222.2080 H   0  0  0  0  0  0  0  0  0  0  0  0
  143.3731   80.4575  223.8282 H   0  0  0  0  0  0  0  0  0  0  0  0
  141.8049   78.2245  222.7493 H   0  0  0  0  0  0  0  0  0  0  0  0
  142.3045   78.6811  224.4562 H   0  0  0  0  0  0  0  0  0  0  0  0
  139.8499   78.6721  224.2114 H   0  0  0  0  0  0  0  0  0  0  0  0
  140.4412   80.2837  224.5865 H   0  0  0  0  0  0  0  0  0  0  0  0
  142.5026   78.3181  217.5086 H   0  0  0  0  0  0  0  0  0  0  0  0
  143.6130   78.2407  218.9064 H   0  0  0  0  0  0  0  0  0  0  0  0
  141.2993   76.2992  218.2915 H   0  0  0  0  0  0  0  0  0  0  0  0
  143.0525   75.9377  218.1656 H   0  0  0  0  0  0  0  0  0  0  0  0
  1  2  1  0
  2  3  1  0
  3  4  2  0
  3  5  1  0
  5  6  1  0
  6  7  2  0
  7  8  1  0
  8  9  2  0
  9 10  1  0
 10 11  2  0
  5 12  1  0
 12 13  1  0
 13 14  1  0
 14 15  1  0
 15 16  1  0
 16 17  2  0
 16 18  1  0
 18 19  1  0
 19 20  1  0
 20 21  1  0
 21 22  1  0
 22 23  1  0
 23 24  1  0
 24 25  2  0
 15 26  1  0
 26 27  1  0
 11  6  1  0
 27 12  1  0
 24 19  1  0
  1 28  1  0
  1 29  1  0
  1 30  1  0
  2 31  1  0
  2 32  1  0
  7 33  1  0
  8 34  1  0
  9 35  1  0
 10 36  1  0
 11 37  1  0
 12 38  1  0
 13 39  1  0
 13 40  1  0
 14 41  1  0
 14 42  1  0
 18 43  1  0
 18 44  1  0
 20 45  1  0
 20 46  1  0
 21 47  1  0
 21 48  1  0
 22 49  1  0
 22 50  1  0
 23 51  1  0
 23 52  1  0
 26 53  1  0
 26 54  1  0
 27 55  1  0
 27 56  1  0
M  END
>  <smiles>  (12) 
CCC(=O)N(c1ccccc1)C1CCN(C(=O)CN2CCCCC2=O)CC1

>  <score_type>  (12) 
oracle

>  <origin>  (12) 
autodockgpu

>  <m_score__min__energy>  (12) 
-6.21

>  <m_primary>  (12) 
energy

>  <meeko>  (12) 
{"free_energy": -6.19, "intermolecular_energy": -7.98, "internal_energy": -2.09, "cluster_size": 19, "cluster_id": 1, "rank_in_cluster": 5}

>  <energy>  (12) 
-6.18

>  <cluster_rmsd>  (12) 
0.3

>  <rmsd>  (12) 
271.37

>  <cluster>  (12) 
1

$$$$

     RDKit          3D

 56 58  0  0  0  0  0  0  0  0999 V2000
  140.1760   73.7960  218.4590 C   0  0  0  0  0  0  0  0  0  0  0  0
  140.1910   73.1750  219.8780 C   0  0  0  0  0  0  0  0  0  0  0  0
  141.0580   73.9740  220.7570 C   0  0  0  0  0  0  0  0  0  0  0  0
  140.7010   74.0160  221.9940 O   0  0  0  0  0  0  0  0  0  0  0  0
  142.2140   74.6890  220.4330 N   0  0  0  0  0  0  0  0  0  0  0  0
  143.4300   73.8950  220.3350 C   0  0  0  0  0  0  0  0  0  0  0  0
  144.6530   74.5500  220.4710 C   0  0  0  0  0  0  0  0  0  0  0  0
  145.7810   73.7680  220.3730 C   0  0  0  0  0  0  0  0  0  0  0  0
  145.7230   72.4030  220.1520 C   0  0  0  0  0  0  0  0  0  0  0  0
  144.4920   71.7590  220.0180 C   0  0  0  0  0  0  0  0  0  0  0  0
  143.3450   72.5370  220.1150 C   0  0  0  0  0  0  0  0  0  0  0  0
  142.3650   76.0930  220.1900 C   0  0  0  0  0  0  0  0  0  0  0  0
  141.4510   76.9730  220.9970 C   0  0  0  0  0  0  0  0  0  0  0  0
  140.6460   77.8500  220.0650 C   0  0  0  0  0  0  0  0  0  0  0  0
  141.5990   78.6990  219.3750 N   0  0  0  0  0  0  0  0  0  0  0  0
  141.6030   80.1050  219.4380 C   0  0  0  0  0  0  0  0  0  0  0  0
  142.4800   80.7450  218.7950 O   0  0  0  0  0  0  0  0  0  0  0  0
  140.5680   80.7690  220.2650 C   0  0  0  0  0  0  0  0  0  0  0  0
  140.8240   80.6570  221.6810 N   0  0  0  0  0  0  0  0  0  0  0  0
  141.9430   81.2810  222.3550 C   0  0  0  0  0  0  0  0  0  0  0  0
  142.7760   80.1820  222.9720 C   0  0  0  0  0  0  0  0  0  0  0  0
  141.9380   79.0850  223.5210 C   0  0  0  0  0  0  0  0  0  0  0  0
  140.5030   79.4780  223.8340 C   0  0  0  0  0  0  0  0  0  0  0  0
  139.9370   79.8890  222.4950 C   0  0  0  0  0  0  0  0  0  0  0  0
  138.7760   79.5730  222.1390 O   0  0  0  0  0  0  0  0  0  0  0  0
  142.6050   77.9750  218.5700 C   0  0  0  0  0  0  0  0  0  0  0  0
  142.3400   76.4660  218.7150 C   0  0  0  0  0  0  0  0  0  0  0  0
  140.1495   74.8928  218.5390 H   0  0  0  0  0  0  0  0  0  0  0  0
  141.0818   73.4898  217.9152 H   0  0  0  0  0  0  0  0  0  0  0  0
  139.2860   73.4464  217.9152 H   0  0  0  0  0  0  0  0  0  0  0  0
  139.1686   73.1642  220.2837 H   0  0  0  0  0  0  0  0  0  0  0  0
  140.5759   72.1461  219.8224 H   0  0  0  0  0  0  0  0  0  0  0  0
  144.7131   75.6341  220.6472 H   0  0  0  0  0  0  0  0  0  0  0  0
  146.7665   74.2461  220.4742 H   0  0  0  0  0  0  0  0  0  0  0  0
  146.6540   71.8213  220.0814 H   0  0  0  0  0  0  0  0  0  0  0  0
  144.4321   70.6748  219.8420 H   0  0  0  0  0  0  0  0  0  0  0  0
  142.3572   72.0635  220.0150 H   0  0  0  0  0  0  0  0  0  0  0  0
  143.3811   76.3012  220.5564 H   0  0  0  0  0  0  0  0  0  0  0  0
  140.7696   76.3469  221.5917 H   0  0  0  0  0  0  0  0  0  0  0  0
  142.0492   77.6044  221.6704 H   0  0  0  0  0  0  0  0  0  0  0  0
  140.0948   77.2310  219.3418 H   0  0  0  0  0  0  0  0  0  0  0  0
  139.9077   78.4482  220.6192 H   0  0  0  0  0  0  0  0  0  0  0  0
  140.5357   81.8355  219.9974 H   0  0  0  0  0  0  0  0  0  0  0  0
  139.6106   80.2670  220.0617 H   0  0  0  0  0  0  0  0  0  0  0  0
  142.5472   81.8485  221.6319 H   0  0  0  0  0  0  0  0  0  0  0  0
  141.5879   81.9772  223.1291 H   0  0  0  0  0  0  0  0  0  0  0  0
  143.4424   79.7673  222.2014 H   0  0  0  0  0  0  0  0  0  0  0  0
  143.3490   80.6183  223.8034 H   0  0  0  0  0  0  0  0  0  0  0  0
  141.9168   78.2684  222.7843 H   0  0  0  0  0  0  0  0  0  0  0  0
  142.3960   78.7929  224.4775 H   0  0  0  0  0  0  0  0  0  0  0  0
  139.9457   78.6253  224.2491 H   0  0  0  0  0  0  0  0  0  0  0  0
  140.4373   80.2786  224.5855 H   0  0  0  0  0  0  0  0  0  0  0  0
  142.5182   78.2687  217.5135 H   0  0  0  0  0  0  0  0  0  0  0  0
  143.6190   78.2185  218.9200 H   0  0  0  0  0  0  0  0  0  0  0  0
  141.3546   76.2231  218.2907 H   0  0  0  0  0  0  0  0  0  0  0  0
  143.1162   75.9012  218.1778 H   0  0  0  0  0  0  0  0  0  0  0  0
  1  2  1  0
  2  3  1  0
  3  4  2  0
  3  5  1  0
  5  6  1  0
  6  7  2  0
  7  8  1  0
  8  9  2  0
  9 10  1  0
 10 11  2  0
  5 12  1  0
 12 13  1  0
 13 14  1  0
 14 15  1  0
 15 16  1  0
 16 17  2  0
 16 18  1  0
 18 19  1  0
 19 20  1  0
 20 21  1  0
 21 22  1  0
 22 23  1  0
 23 24  1  0
 24 25  2  0
 15 26  1  0
 26 27  1  0
 11  6  1  0
 27 12  1  0
 24 19  1  0
  1 28  1  0
  1 29  1  0
  1 30  1  0
  2 31  1  0
  2 32  1  0
  7 33  1  0
  8 34  1  0
  9 35  1  0
 10 36  1  0
 11 37  1  0
 12 38  1  0
 13 39  1  0
 13 40  1  0
 14 41  1  0
 14 42  1  0
 18 43  1  0
 18 44  1  0
 20 45  1  0
 20 46  1  0
 21 47  1  0
 21 48  1  0
 22 49  1  0
 22 50  1  0
 23 51  1  0
 23 52  1  0
 26 53  1  0
 26 54  1  0
 27 55  1  0
 27 56  1  0
M  END
>  <smiles>  (13) 
CCC(=O)N(c1ccccc1)C1CCN(C(=O)CN2CCCCC2=O)CC1

>  <score_type>  (13) 
oracle

>  <origin>  (13) 
autodockgpu

>  <m_score__min__energy>  (13) 
-6.21

>  <m_primary>  (13) 
energy

>  <meeko>  (13) 
{"free_energy": -6.17, "intermolecular_energy": -7.96, "internal_energy": -2.08, "cluster_size": 19, "cluster_id": 1, "rank_in_cluster": 15}

>  <energy>  (13) 
-6.17

>  <cluster_rmsd>  (13) 
0.24

>  <rmsd>  (13) 
271.38

>  <cluster>  (13) 
1

$$$$

     RDKit          3D

 56 58  0  0  0  0  0  0  0  0999 V2000
  140.3210   73.7260  218.4040 C   0  0  0  0  0  0  0  0  0  0  0  0
  140.1070   73.2500  219.8620 C   0  0  0  0  0  0  0  0  0  0  0  0
  141.0060   73.9890  220.7610 C   0  0  0  0  0  0  0  0  0  0  0  0
  140.6730   73.9790  222.0050 O   0  0  0  0  0  0  0  0  0  0  0  0
  142.1680   74.6990  220.4480 N   0  0  0  0  0  0  0  0  0  0  0  0
  143.3810   73.8990  220.3660 C   0  0  0  0  0  0  0  0  0  0  0  0
  143.2480   72.5230  220.1820 C   0  0  0  0  0  0  0  0  0  0  0  0
  144.4160   71.7990  220.1070 C   0  0  0  0  0  0  0  0  0  0  0  0
  145.6650   72.3880  220.2070 C   0  0  0  0  0  0  0  0  0  0  0  0
  145.7840   73.7670  220.3900 C   0  0  0  0  0  0  0  0  0  0  0  0
  144.6130   74.5100  220.4670 C   0  0  0  0  0  0  0  0  0  0  0  0
  142.3280   76.1010  220.2040 C   0  0  0  0  0  0  0  0  0  0  0  0
  141.4270   76.9890  221.0170 C   0  0  0  0  0  0  0  0  0  0  0  0
  140.6230   77.8710  220.0900 C   0  0  0  0  0  0  0  0  0  0  0  0
  141.5770   78.7130  219.3930 N   0  0  0  0  0  0  0  0  0  0  0  0
  141.5930   80.1190  219.4560 C   0  0  0  0  0  0  0  0  0  0  0  0
  142.4710   80.7520  218.8070 O   0  0  0  0  0  0  0  0  0  0  0  0
  140.5690   80.7920  220.2890 C   0  0  0  0  0  0  0  0  0  0  0  0
  140.8220   80.6580  221.7040 N   0  0  0  0  0  0  0  0  0  0  0  0
  141.9610   81.2400  222.3830 C   0  0  0  0  0  0  0  0  0  0  0  0
  142.7570   80.1080  222.9900 C   0  0  0  0  0  0  0  0  0  0  0  0
  141.8840   79.0350  223.5300 C   0  0  0  0  0  0  0  0  0  0  0  0
  140.4620   79.4700  223.8470 C   0  0  0  0  0  0  0  0  0  0  0  0
  139.9100   79.9120  222.5120 C   0  0  0  0  0  0  0  0  0  0  0  0
  138.7390   79.6370  222.1530 O   0  0  0  0  0  0  0  0  0  0  0  0
  142.5730   77.9810  218.5820 C   0  0  0  0  0  0  0  0  0  0  0  0
  142.2970   76.4740  218.7280 C   0  0  0  0  0  0  0  0  0  0  0  0
  140.7721   74.7293  218.4083 H   0  0  0  0  0  0  0  0  0  0  0  0
  140.9906   73.0251  217.8840 H   0  0  0  0  0  0  0  0  0  0  0  0
  139.3523   73.7617  217.8840 H   0  0  0  0  0  0  0  0  0  0  0  0
  139.0632   73.4330  220.1570 H   0  0  0  0  0  0  0  0  0  0  0  0
  140.3266   72.1743  219.9303 H   0  0  0  0  0  0  0  0  0  0  0  0
  142.2621   72.0420  220.1011 H   0  0  0  0  0  0  0  0  0  0  0  0
  144.3549   70.7103  219.9620 H   0  0  0  0  0  0  0  0  0  0  0  0
  146.5695   71.7654  220.1418 H   0  0  0  0  0  0  0  0  0  0  0  0
  146.7700   74.2479  220.4703 H   0  0  0  0  0  0  0  0  0  0  0  0
  144.6691   75.5992  220.6103 H   0  0  0  0  0  0  0  0  0  0  0  0
  143.3479   76.3012  220.5642 H   0  0  0  0  0  0  0  0  0  0  0  0
  140.7448   76.3690  221.6172 H   0  0  0  0  0  0  0  0  0  0  0  0
  142.0349   77.6161  221.6858 H   0  0  0  0  0  0  0  0  0  0  0  0
  140.0627   77.2556  219.3708 H   0  0  0  0  0  0  0  0  0  0  0  0
  139.8930   78.4750  220.6489 H   0  0  0  0  0  0  0  0  0  0  0  0
  140.5564   81.8620  220.0341 H   0  0  0  0  0  0  0  0  0  0  0  0
  139.6025   80.3108  220.0785 H   0  0  0  0  0  0  0  0  0  0  0  0
  142.5835   81.7935  221.6646 H   0  0  0  0  0  0  0  0  0  0  0  0
  141.6295   81.9414  223.1628 H   0  0  0  0  0  0  0  0  0  0  0  0
  143.4089   79.6780  222.2153 H   0  0  0  0  0  0  0  0  0  0  0  0
  143.3442   80.5178  223.8250 H   0  0  0  0  0  0  0  0  0  0  0  0
  141.8367   78.2256  222.7866 H   0  0  0  0  0  0  0  0  0  0  0  0
  142.3323   78.7216  224.4844 H   0  0  0  0  0  0  0  0  0  0  0  0
  139.8778   78.6313  224.2536 H   0  0  0  0  0  0  0  0  0  0  0  0
  140.4213   80.2646  224.6065 H   0  0  0  0  0  0  0  0  0  0  0  0
  142.4826   78.2757  217.5261 H   0  0  0  0  0  0  0  0  0  0  0  0
  143.5908   78.2163  218.9265 H   0  0  0  0  0  0  0  0  0  0  0  0
  141.3072   76.2388  218.3096 H   0  0  0  0  0  0  0  0  0  0  0  0
  143.0651   75.9030  218.1859 H   0  0  0  0  0  0  0  0  0  0  0  0
  1  2  1  0
  2  3  1  0
  3  4  2  0
  3  5  1  0
  5  6  1  0
  6  7  2  0
  7  8  1  0
  8  9  2  0
  9 10  1  0
 10 11  2  0
  5 12  1  0
 12 13  1  0
 13 14  1  0
 14 15  1  0
 15 16  1  0
 16 17  2  0
 16 18  1  0
 18 19  1  0
 19 20  1  0
 20 21  1  0
 21 22  1  0
 22 23  1  0
 23 24  1  0
 24 25  2  0
 15 26  1  0
 26 27  1  0
 11  6  1  0
 27 12  1  0
 24 19  1  0
  1 28  1  0
  1 29  1  0
  1 30  1  0
  2 31  1  0
  2 32  1  0
  7 33  1  0
  8 34  1  0
  9 35  1  0
 10 36  1  0
 11 37  1  0
 12 38  1  0
 13 39  1  0
 13 40  1  0
 14 41  1  0
 14 42  1  0
 18 43  1  0
 18 44  1  0
 20 45  1  0
 20 46  1  0
 21 47  1  0
 21 48  1  0
 22 49  1  0
 22 50  1  0
 23 51  1  0
 23 52  1  0
 26 53  1  0
 26 54  1  0
 27 55  1  0
 27 56  1  0
M  END
>  <smiles>  (14) 
CCC(=O)N(c1ccccc1)C1CCN(C(=O)CN2CCCCC2=O)CC1

>  <score_type>  (14) 
oracle

>  <origin>  (14) 
autodockgpu

>  <m_score__min__energy>  (14) 
-6.21

>  <m_primary>  (14) 
energy

>  <meeko>  (14) 
{"free_energy": -6.19, "intermolecular_energy": -7.98, "internal_energy": -2.07, "cluster_size": 19, "cluster_id": 1, "rank_in_cluster": 3}

>  <energy>  (14) 
-6.17

>  <cluster_rmsd>  (14) 
0.27

>  <rmsd>  (14) 
271.39

>  <cluster>  (14) 
1

$$$$

     RDKit          3D

 56 58  0  0  0  0  0  0  0  0999 V2000
  139.2610   74.5490  219.0770 C   0  0  0  0  0  0  0  0  0  0  0  0
  139.9980   73.4310  219.8540 C   0  0  0  0  0  0  0  0  0  0  0  0
  140.9820   74.0300  220.7680 C   0  0  0  0  0  0  0  0  0  0  0  0
  140.7290   73.8870  222.0220 O   0  0  0  0  0  0  0  0  0  0  0  0
  142.1500   74.7310  220.4590 N   0  0  0  0  0  0  0  0  0  0  0  0
  143.3590   73.9230  220.3840 C   0  0  0  0  0  0  0  0  0  0  0  0
  143.2180   72.5470  220.2060 C   0  0  0  0  0  0  0  0  0  0  0  0
  144.3820   71.8160  220.1390 C   0  0  0  0  0  0  0  0  0  0  0  0
  145.6330   72.3980  220.2390 C   0  0  0  0  0  0  0  0  0  0  0  0
  145.7610   73.7770  220.4160 C   0  0  0  0  0  0  0  0  0  0  0  0
  144.5940   74.5270  220.4860 C   0  0  0  0  0  0  0  0  0  0  0  0
  142.3210   76.1320  220.2120 C   0  0  0  0  0  0  0  0  0  0  0  0
  141.4320   77.0280  221.0300 C   0  0  0  0  0  0  0  0  0  0  0  0
  140.6300   77.9160  220.1080 C   0  0  0  0  0  0  0  0  0  0  0  0
  141.5860   78.7490  219.4040 N   0  0  0  0  0  0  0  0  0  0  0  0
  141.6140   80.1560  219.4650 C   0  0  0  0  0  0  0  0  0  0  0  0
  142.4930   80.7800  218.8090 O   0  0  0  0  0  0  0  0  0  0  0  0
  140.6010   80.8370  220.3040 C   0  0  0  0  0  0  0  0  0  0  0  0
  140.8580   80.6970  221.7180 N   0  0  0  0  0  0  0  0  0  0  0  0
  142.0030   81.2690  222.3950 C   0  0  0  0  0  0  0  0  0  0  0  0
  142.7940   80.1300  222.9950 C   0  0  0  0  0  0  0  0  0  0  0  0
  141.9160   79.0600  223.5330 C   0  0  0  0  0  0  0  0  0  0  0  0
  140.4990   79.5030  223.8570 C   0  0  0  0  0  0  0  0  0  0  0  0
  139.9450   79.9530  222.5260 C   0  0  0  0  0  0  0  0  0  0  0  0
  138.7710   79.6870  222.1710 O   0  0  0  0  0  0  0  0  0  0  0  0
  142.5700   78.0080  218.5860 C   0  0  0  0  0  0  0  0  0  0  0  0
  142.2830   76.5040  218.7360 C   0  0  0  0  0  0  0  0  0  0  0  0
  138.8000   75.2484  219.7900 H   0  0  0  0  0  0  0  0  0  0  0  0
  139.9796   75.0908  218.4445 H   0  0  0  0  0  0  0  0  0  0  0  0
  138.4798   74.1022  218.4445 H   0  0  0  0  0  0  0  0  0  0  0  0
  139.2685   72.8465  220.4338 H   0  0  0  0  0  0  0  0  0  0  0  0
  140.5159   72.7721  219.1415 H   0  0  0  0  0  0  0  0  0  0  0  0
  142.2295   72.0715  220.1236 H   0  0  0  0  0  0  0  0  0  0  0  0
  144.3151   70.7268  220.0006 H   0  0  0  0  0  0  0  0  0  0  0  0
  146.5338   71.7695  220.1786 H   0  0  0  0  0  0  0  0  0  0  0  0
  146.7498   74.2521  220.4971 H   0  0  0  0  0  0  0  0  0  0  0  0
  144.6560   75.6165  220.6245 H   0  0  0  0  0  0  0  0  0  0  0  0
  143.3452   76.3239  220.5646 H   0  0  0  0  0  0  0  0  0  0  0  0
  140.7483   76.4139  221.6345 H   0  0  0  0  0  0  0  0  0  0  0  0
  142.0491   77.6504  221.6947 H   0  0  0  0  0  0  0  0  0  0  0  0
  140.0595   77.3049  219.3931 H   0  0  0  0  0  0  0  0  0  0  0  0
  139.9093   78.5268  220.6715 H   0  0  0  0  0  0  0  0  0  0  0  0
  140.5984   81.9077  220.0518 H   0  0  0  0  0  0  0  0  0  0  0  0
  139.6289   80.3658  220.0964 H   0  0  0  0  0  0  0  0  0  0  0  0
  142.6265   81.8212  221.6765 H   0  0  0  0  0  0  0  0  0  0  0  0
  141.6786   81.9695  223.1787 H   0  0  0  0  0  0  0  0  0  0  0  0
  143.4411   79.6994  222.2167 H   0  0  0  0  0  0  0  0  0  0  0  0
  143.3861   80.5328  223.8299 H   0  0  0  0  0  0  0  0  0  0  0  0
  141.8606   78.2545  222.7859 H   0  0  0  0  0  0  0  0  0  0  0  0
  142.3657   78.7387  224.4841 H   0  0  0  0  0  0  0  0  0  0  0  0
  139.9108   78.6668  224.2630 H   0  0  0  0  0  0  0  0  0  0  0  0
  140.4664   80.2952  224.6194 H   0  0  0  0  0  0  0  0  0  0  0  0
  142.4738   78.3022  217.5304 H   0  0  0  0  0  0  0  0  0  0  0  0
  143.5924   78.2355  218.9222 H   0  0  0  0  0  0  0  0  0  0  0  0
  141.2885   76.2764  218.3247 H   0  0  0  0  0  0  0  0  0  0  0  0
  143.0431   75.9263  218.1895 H   0  0  0  0  0  0  0  0  0  0  0  0
  1  2  1  0
  2  3  1  0
  3  4  2  0
  3  5  1  0
  5  6  1  0
  6  7  2  0
  7  8  1  0
  8  9  2  0
  9 10  1  0
 10 11  2  0
  5 12  1  0
 12 13  1  0
 13 14  1  0
 14 15  1  0
 15 16  1  0
 16 17  2  0
 16 18  1  0
 18 19  1  0
 19 20  1  0
 20 21  1  0
 21 22  1  0
 22 23  1  0
 23 24  1  0
 24 25  2  0
 15 26  1  0
 26 27  1  0
 11  6  1  0
 27 12  1  0
 24 19  1  0
  1 28  1  0
  1 29  1  0
  1 30  1  0
  2 31  1  0
  2 32  1  0
  7 33  1  0
  8 34  1  0
  9 35  1  0
 10 36  1  0
 11 37  1  0
 12 38  1  0
 13 39  1  0
 13 40  1  0
 14 41  1  0
 14 42  1  0
 18 43  1  0
 18 44  1  0
 20 45  1  0
 20 46  1  0
 21 47  1  0
 21 48  1  0
 22 49  1  0
 22 50  1  0
 23 51  1  0
 23 52  1  0
 26 53  1  0
 26 54  1  0
 27 55  1  0
 27 56  1  0
M  END
>  <smiles>  (15) 
CCC(=O)N(c1ccccc1)C1CCN(C(=O)CN2CCCCC2=O)CC1

>  <score_type>  (15) 
oracle

>  <origin>  (15) 
autodockgpu

>  <m_score__min__energy>  (15) 
-6.21

>  <m_primary>  (15) 
energy

>  <meeko>  (15) 
{"free_energy": -6.17, "intermolecular_energy": -7.96, "internal_energy": -2.09, "cluster_size": 19, "cluster_id": 1, "rank_in_cluster": 16}

>  <energy>  (15) 
-6.17

>  <cluster_rmsd>  (15) 
0.29

>  <rmsd>  (15) 
271.38

>  <cluster>  (15) 
1

$$$$

     RDKit          3D

 56 58  0  0  0  0  0  0  0  0999 V2000
  138.7080   74.0010  219.9480 C   0  0  0  0  0  0  0  0  0  0  0  0
  140.0980   73.3280  219.8360 C   0  0  0  0  0  0  0  0  0  0  0  0
  141.0440   73.9930  220.7450 C   0  0  0  0  0  0  0  0  0  0  0  0
  140.7640   73.8990  221.9980 O   0  0  0  0  0  0  0  0  0  0  0  0
  142.2010   74.7110  220.4330 N   0  0  0  0  0  0  0  0  0  0  0  0
  143.4200   73.9190  220.3470 C   0  0  0  0  0  0  0  0  0  0  0  0
  143.2960   72.5470  220.1300 C   0  0  0  0  0  0  0  0  0  0  0  0
  144.4690   71.8310  220.0530 C   0  0  0  0  0  0  0  0  0  0  0  0
  145.7130   72.4240  220.1820 C   0  0  0  0  0  0  0  0  0  0  0  0
  145.8230   73.7990  220.3980 C   0  0  0  0  0  0  0  0  0  0  0  0
  144.6470   74.5340  220.4780 C   0  0  0  0  0  0  0  0  0  0  0  0
  142.3520   76.1150  220.1910 C   0  0  0  0  0  0  0  0  0  0  0  0
  141.4410   76.9950  221.0020 C   0  0  0  0  0  0  0  0  0  0  0  0
  140.6340   77.8730  220.0740 C   0  0  0  0  0  0  0  0  0  0  0  0
  141.5840   78.7220  219.3820 N   0  0  0  0  0  0  0  0  0  0  0  0
  141.5900   80.1290  219.4470 C   0  0  0  0  0  0  0  0  0  0  0  0
  142.4650   80.7680  218.8020 O   0  0  0  0  0  0  0  0  0  0  0  0
  140.5570   80.7920  220.2780 C   0  0  0  0  0  0  0  0  0  0  0  0
  140.8100   80.6640  221.6930 N   0  0  0  0  0  0  0  0  0  0  0  0
  141.9290   81.2780  222.3760 C   0  0  0  0  0  0  0  0  0  0  0  0
  142.7570   80.1700  222.9840 C   0  0  0  0  0  0  0  0  0  0  0  0
  141.9140   79.0700  223.5200 C   0  0  0  0  0  0  0  0  0  0  0  0
  140.4790   79.4630  223.8330 C   0  0  0  0  0  0  0  0  0  0  0  0
  139.9180   79.8900  222.4980 C   0  0  0  0  0  0  0  0  0  0  0  0
  138.7570   79.5820  222.1350 O   0  0  0  0  0  0  0  0  0  0  0  0
  142.5880   77.9990  218.5730 C   0  0  0  0  0  0  0  0  0  0  0  0
  142.3230   76.4900  218.7160 C   0  0  0  0  0  0  0  0  0  0  0  0
  138.4464   74.1277  221.0089 H   0  0  0  0  0  0  0  0  0  0  0  0
  138.7365   74.9851  219.4573 H   0  0  0  0  0  0  0  0  0  0  0  0
  137.9537   73.3683  219.4573 H   0  0  0  0  0  0  0  0  0  0  0  0
  140.0133   72.2658  220.1091 H   0  0  0  0  0  0  0  0  0  0  0  0
  140.4632   73.4149  218.8020 H   0  0  0  0  0  0  0  0  0  0  0  0
  142.3137   72.0631  220.0260 H   0  0  0  0  0  0  0  0  0  0  0  0
  144.4157   70.7456  219.8823 H   0  0  0  0  0  0  0  0  0  0  0  0
  146.6215   71.8076  220.1139 H   0  0  0  0  0  0  0  0  0  0  0  0
  146.8055   74.2828  220.5011 H   0  0  0  0  0  0  0  0  0  0  0  0
  144.6953   75.6197  220.6479 H   0  0  0  0  0  0  0  0  0  0  0  0
  143.3694   76.3219  220.5545 H   0  0  0  0  0  0  0  0  0  0  0  0
  140.7611   76.3688  221.5983 H   0  0  0  0  0  0  0  0  0  0  0  0
  142.0418   77.6254  221.6741 H   0  0  0  0  0  0  0  0  0  0  0  0
  140.0802   77.2550  219.3520 H   0  0  0  0  0  0  0  0  0  0  0  0
  139.8981   78.4710  220.6315 H   0  0  0  0  0  0  0  0  0  0  0  0
  140.5322   81.8612  220.0208 H   0  0  0  0  0  0  0  0  0  0  0  0
  139.5964   80.2990  220.0676 H   0  0  0  0  0  0  0  0  0  0  0  0
  142.5368   81.8509  221.6602 H   0  0  0  0  0  0  0  0  0  0  0  0
  141.5742   81.9676  223.1561 H   0  0  0  0  0  0  0  0  0  0  0  0
  143.4240   79.7609  222.2108 H   0  0  0  0  0  0  0  0  0  0  0  0
  143.3294   80.5960  223.8212 H   0  0  0  0  0  0  0  0  0  0  0  0
  141.8928   78.2607  222.7753 H   0  0  0  0  0  0  0  0  0  0  0  0
  142.3684   78.7680  224.4751 H   0  0  0  0  0  0  0  0  0  0  0  0
  139.9184   78.6071  224.2370 H   0  0  0  0  0  0  0  0  0  0  0  0
  140.4132   80.2555  224.5930 H   0  0  0  0  0  0  0  0  0  0  0  0
  142.4986   78.2945  217.5172 H   0  0  0  0  0  0  0  0  0  0  0  0
  143.6030   78.2416  218.9208 H   0  0  0  0  0  0  0  0  0  0  0  0
  141.3364   76.2480  218.2941 H   0  0  0  0  0  0  0  0  0  0  0  0
  143.0973   75.9257  218.1756 H   0  0  0  0  0  0  0  0  0  0  0  0
  1  2  1  0
  2  3  1  0
  3  4  2  0
  3  5  1  0
  5  6  1  0
  6  7  2  0
  7  8  1  0
  8  9  2  0
  9 10  1  0
 10 11  2  0
  5 12  1  0
 12 13  1  0
 13 14  1  0
 14 15  1  0
 15 16  1  0
 16 17  2  0
 16 18  1  0
 18 19  1  0
 19 20  1  0
 20 21  1  0
 21 22  1  0
 22 23  1  0
 23 24  1  0
 24 25  2  0
 15 26  1  0
 26 27  1  0
 11  6  1  0
 27 12  1  0
 24 19  1  0
  1 28  1  0
  1 29  1  0
  1 30  1  0
  2 31  1  0
  2 32  1  0
  7 33  1  0
  8 34  1  0
  9 35  1  0
 10 36  1  0
 11 37  1  0
 12 38  1  0
 13 39  1  0
 13 40  1  0
 14 41  1  0
 14 42  1  0
 18 43  1  0
 18 44  1  0
 20 45  1  0
 20 46  1  0
 21 47  1  0
 21 48  1  0
 22 49  1  0
 22 50  1  0
 23 51  1  0
 23 52  1  0
 26 53  1  0
 26 54  1  0
 27 55  1  0
 27 56  1  0
M  END
>  <smiles>  (16) 
CCC(=O)N(c1ccccc1)C1CCN(C(=O)CN2CCCCC2=O)CC1

>  <score_type>  (16) 
oracle

>  <origin>  (16) 
autodockgpu

>  <m_score__min__energy>  (16) 
-6.21

>  <m_primary>  (16) 
energy

>  <meeko>  (16) 
{"free_energy": -6.2, "intermolecular_energy": -7.99, "internal_energy": -2.04, "cluster_size": 19, "cluster_id": 1, "rank_in_cluster": 2}

>  <energy>  (16) 
-6.17

>  <cluster_rmsd>  (16) 
0.23

>  <rmsd>  (16) 
271.41

>  <cluster>  (16) 
1

$$$$

     RDKit          3D

 56 58  0  0  0  0  0  0  0  0999 V2000
  140.3560   73.7090  218.3970 C   0  0  0  0  0  0  0  0  0  0  0  0
  140.1800   73.2160  219.8540 C   0  0  0  0  0  0  0  0  0  0  0  0
  141.0660   73.9800  220.7450 C   0  0  0  0  0  0  0  0  0  0  0  0
  140.7290   73.9840  221.9880 O   0  0  0  0  0  0  0  0  0  0  0  0
  142.2200   74.7000  220.4260 N   0  0  0  0  0  0  0  0  0  0  0  0
  143.4400   73.9110  220.3360 C   0  0  0  0  0  0  0  0  0  0  0  0
  143.3190   72.5410  220.1040 C   0  0  0  0  0  0  0  0  0  0  0  0
  144.4940   71.8280  220.0250 C   0  0  0  0  0  0  0  0  0  0  0  0
  145.7360   72.4220  220.1650 C   0  0  0  0  0  0  0  0  0  0  0  0
  145.8430   73.7940  220.3960 C   0  0  0  0  0  0  0  0  0  0  0  0
  144.6650   74.5260  220.4780 C   0  0  0  0  0  0  0  0  0  0  0  0
  142.3660   76.1040  220.1800 C   0  0  0  0  0  0  0  0  0  0  0  0
  141.4470   76.9830  220.9820 C   0  0  0  0  0  0  0  0  0  0  0  0
  140.6410   77.8540  220.0460 C   0  0  0  0  0  0  0  0  0  0  0  0
  141.5920   78.7050  219.3560 N   0  0  0  0  0  0  0  0  0  0  0  0
  141.5910   80.1120  219.4160 C   0  0  0  0  0  0  0  0  0  0  0  0
  142.4670   80.7530  218.7740 O   0  0  0  0  0  0  0  0  0  0  0  0
  140.5510   80.7730  220.2390 C   0  0  0  0  0  0  0  0  0  0  0  0
  140.8000   80.6600  221.6560 N   0  0  0  0  0  0  0  0  0  0  0  0
  141.9220   81.2730  222.3340 C   0  0  0  0  0  0  0  0  0  0  0  0
  142.7410   80.1660  222.9550 C   0  0  0  0  0  0  0  0  0  0  0  0
  141.8910   79.0780  223.5010 C   0  0  0  0  0  0  0  0  0  0  0  0
  140.4580   79.4840  223.8080 C   0  0  0  0  0  0  0  0  0  0  0  0
  139.9020   79.9000  222.4670 C   0  0  0  0  0  0  0  0  0  0  0  0
  138.7400   79.5950  222.1060 O   0  0  0  0  0  0  0  0  0  0  0  0
  142.6040   77.9830  218.5560 C   0  0  0  0  0  0  0  0  0  0  0  0
  142.3440   76.4740  218.7030 C   0  0  0  0  0  0  0  0  0  0  0  0
  140.7259   74.7449  218.4026 H   0  0  0  0  0  0  0  0  0  0  0  0
  141.0795   73.0642  217.8766 H   0  0  0  0  0  0  0  0  0  0  0  0
  139.3878   73.6682  217.8766 H   0  0  0  0  0  0  0  0  0  0  0  0
  139.1349   73.3605  220.1654 H   0  0  0  0  0  0  0  0  0  0  0  0
  140.4376   72.1481  219.9114 H   0  0  0  0  0  0  0  0  0  0  0  0
  142.3380   72.0565  219.9903 H   0  0  0  0  0  0  0  0  0  0  0  0
  144.4437   70.7442  219.8436 H   0  0  0  0  0  0  0  0  0  0  0  0
  146.6458   71.8079  220.0936 H   0  0  0  0  0  0  0  0  0  0  0  0
  146.8242   74.2783  220.5090 H   0  0  0  0  0  0  0  0  0  0  0  0
  144.7107   75.6101  220.6585 H   0  0  0  0  0  0  0  0  0  0  0  0
  143.3802   76.3162  220.5491 H   0  0  0  0  0  0  0  0  0  0  0  0
  140.7666   76.3562  221.5771 H   0  0  0  0  0  0  0  0  0  0  0  0
  142.0414   77.6188  221.6546 H   0  0  0  0  0  0  0  0  0  0  0  0
  140.0940   77.2309  219.3231 H   0  0  0  0  0  0  0  0  0  0  0  0
  139.8991   78.4507  220.5969 H   0  0  0  0  0  0  0  0  0  0  0  0
  140.5180   81.8397  219.9724 H   0  0  0  0  0  0  0  0  0  0  0  0
  139.5957   80.2691  220.0306 H   0  0  0  0  0  0  0  0  0  0  0  0
  142.5350   81.8338  221.6131 H   0  0  0  0  0  0  0  0  0  0  0  0
  141.5709   81.9734  223.1061 H   0  0  0  0  0  0  0  0  0  0  0  0
  143.4064   79.7443  222.1873 H   0  0  0  0  0  0  0  0  0  0  0  0
  143.3144   80.5972  223.7888 H   0  0  0  0  0  0  0  0  0  0  0  0
  141.8654   78.2611  222.7648 H   0  0  0  0  0  0  0  0  0  0  0  0
  142.3423   78.7828  224.4598 H   0  0  0  0  0  0  0  0  0  0  0  0
  139.8911   78.6364  224.2206 H   0  0  0  0  0  0  0  0  0  0  0  0
  140.3962   80.2850  224.5594 H   0  0  0  0  0  0  0  0  0  0  0  0
  142.5201   78.2742  217.4986 H   0  0  0  0  0  0  0  0  0  0  0  0
  143.6158   78.2309  218.9092 H   0  0  0  0  0  0  0  0  0  0  0  0
  141.3607   76.2268  218.2763 H   0  0  0  0  0  0  0  0  0  0  0  0
  143.1236   75.9108  218.1691 H   0  0  0  0  0  0  0  0  0  0  0  0
  1  2  1  0
  2  3  1  0
  3  4  2  0
  3  5  1  0
  5  6  1  0
  6  7  2  0
  7  8  1  0
  8  9  2  0
  9 10  1  0
 10 11  2  0
  5 12  1  0
 12 13  1  0
 13 14  1  0
 14 15  1  0
 15 16  1  0
 16 17  2  0
 16 18  1  0
 18 19  1  0
 19 20  1  0
 20 21  1  0
 21 22  1  0
 22 23  1  0
 23 24  1  0
 24 25  2  0
 15 26  1  0
 26 27  1  0
 11  6  1  0
 27 12  1  0
 24 19  1  0
  1 28  1  0
  1 29  1  0
  1 30  1  0
  2 31  1  0
  2 32  1  0
  7 33  1  0
  8 34  1  0
  9 35  1  0
 10 36  1  0
 11 37  1  0
 12 38  1  0
 13 39  1  0
 13 40  1  0
 14 41  1  0
 14 42  1  0
 18 43  1  0
 18 44  1  0
 20 45  1  0
 20 46  1  0
 21 47  1  0
 21 48  1  0
 22 49  1  0
 22 50  1  0
 23 51  1  0
 23 52  1  0
 26 53  1  0
 26 54  1  0
 27 55  1  0
 27 56  1  0
M  END
>  <smiles>  (17) 
CCC(=O)N(c1ccccc1)C1CCN(C(=O)CN2CCCCC2=O)CC1

>  <score_type>  (17) 
oracle

>  <origin>  (17) 
autodockgpu

>  <m_score__min__energy>  (17) 
-6.21

>  <m_primary>  (17) 
energy

>  <meeko>  (17) 
{"free_energy": -6.18, "intermolecular_energy": -7.97, "internal_energy": -2.07, "cluster_size": 19, "cluster_id": 1, "rank_in_cluster": 12}

>  <energy>  (17) 
-6.17

>  <cluster_rmsd>  (17) 
0.24

>  <rmsd>  (17) 
271.42

>  <cluster>  (17) 
1

$$$$

     RDKit          3D

 56 58  0  0  0  0  0  0  0  0999 V2000
  139.3660   74.3570  218.9620 C   0  0  0  0  0  0  0  0  0  0  0  0
  140.0840   73.3080  219.8460 C   0  0  0  0  0  0  0  0  0  0  0  0
  141.0260   73.9830  220.7500 C   0  0  0  0  0  0  0  0  0  0  0  0
  140.7350   73.9130  222.0030 O   0  0  0  0  0  0  0  0  0  0  0  0
  142.1890   74.6880  220.4350 N   0  0  0  0  0  0  0  0  0  0  0  0
  143.4020   73.8860  220.3580 C   0  0  0  0  0  0  0  0  0  0  0  0
  143.2660   72.5120  220.1560 C   0  0  0  0  0  0  0  0  0  0  0  0
  144.4330   71.7860  220.0870 C   0  0  0  0  0  0  0  0  0  0  0  0
  145.6820   72.3700  220.2090 C   0  0  0  0  0  0  0  0  0  0  0  0
  145.8040   73.7470  220.4090 C   0  0  0  0  0  0  0  0  0  0  0  0
  144.6330   74.4920  220.4810 C   0  0  0  0  0  0  0  0  0  0  0  0
  142.3530   76.0900  220.1840 C   0  0  0  0  0  0  0  0  0  0  0  0
  141.4630   76.9840  221.0020 C   0  0  0  0  0  0  0  0  0  0  0  0
  140.6530   77.8660  220.0790 C   0  0  0  0  0  0  0  0  0  0  0  0
  141.6040   78.7010  219.3700 N   0  0  0  0  0  0  0  0  0  0  0  0
  141.6260   80.1070  219.4270 C   0  0  0  0  0  0  0  0  0  0  0  0
  142.5000   80.7340  218.7660 O   0  0  0  0  0  0  0  0  0  0  0  0
  140.6120   80.7870  220.2670 C   0  0  0  0  0  0  0  0  0  0  0  0
  140.8750   80.6530  221.6800 N   0  0  0  0  0  0  0  0  0  0  0  0
  142.0140   81.2410  222.3530 C   0  0  0  0  0  0  0  0  0  0  0  0
  142.8220   80.1140  222.9530 C   0  0  0  0  0  0  0  0  0  0  0  0
  141.9590   79.0340  223.4960 C   0  0  0  0  0  0  0  0  0  0  0  0
  140.5370   79.4600  223.8230 C   0  0  0  0  0  0  0  0  0  0  0  0
  139.9730   79.9000  222.4930 C   0  0  0  0  0  0  0  0  0  0  0  0
  138.8020   79.6180  222.1410 O   0  0  0  0  0  0  0  0  0  0  0  0
  142.5880   77.9620  218.5510 C   0  0  0  0  0  0  0  0  0  0  0  0
  142.3090   76.4570  218.7070 C   0  0  0  0  0  0  0  0  0  0  0  0
  138.8615   75.0940  219.6041 H   0  0  0  0  0  0  0  0  0  0  0  0
  140.1043   74.8684  218.3269 H   0  0  0  0  0  0  0  0  0  0  0  0
  138.6220   73.8538  218.3269 H   0  0  0  0  0  0  0  0  0  0  0  0
  139.3386   72.7579  220.4391 H   0  0  0  0  0  0  0  0  0  0  0  0
  140.6356   72.6063  219.2031 H   0  0  0  0  0  0  0  0  0  0  0  0
  142.2797   72.0352  220.0573 H   0  0  0  0  0  0  0  0  0  0  0  0
  144.3708   70.6992  219.9287 H   0  0  0  0  0  0  0  0  0  0  0  0
  146.5852   71.7451  220.1480 H   0  0  0  0  0  0  0  0  0  0  0  0
  146.7904   74.2241  220.5059 H   0  0  0  0  0  0  0  0  0  0  0  0
  144.6898   75.5792  220.6382 H   0  0  0  0  0  0  0  0  0  0  0  0
  143.3770   76.2881  220.5335 H   0  0  0  0  0  0  0  0  0  0  0  0
  140.7843   76.3686  221.6108 H   0  0  0  0  0  0  0  0  0  0  0  0
  142.0794   77.6113  221.6627 H   0  0  0  0  0  0  0  0  0  0  0  0
  140.0833   77.2501  219.3676 H   0  0  0  0  0  0  0  0  0  0  0  0
  139.9306   78.4749  220.6423 H   0  0  0  0  0  0  0  0  0  0  0  0
  140.6037   81.8568  220.0110 H   0  0  0  0  0  0  0  0  0  0  0  0
  139.6411   80.3113  220.0643 H   0  0  0  0  0  0  0  0  0  0  0  0
  142.6282   81.8003  221.6319 H   0  0  0  0  0  0  0  0  0  0  0  0
  141.6822   81.9381  223.1365 H   0  0  0  0  0  0  0  0  0  0  0  0
  143.4723   79.6900  222.1737 H   0  0  0  0  0  0  0  0  0  0  0  0
  143.4118   80.5262  223.7850 H   0  0  0  0  0  0  0  0  0  0  0  0
  141.9117   78.2262  222.7509 H   0  0  0  0  0  0  0  0  0  0  0  0
  142.4153   78.7205  224.4465 H   0  0  0  0  0  0  0  0  0  0  0  0
  139.9607   78.6173  224.2327 H   0  0  0  0  0  0  0  0  0  0  0  0
  140.4969   80.2537  224.5835 H   0  0  0  0  0  0  0  0  0  0  0  0
  142.4863   78.2521  217.4948 H   0  0  0  0  0  0  0  0  0  0  0  0
  143.6105   78.1955  218.8827 H   0  0  0  0  0  0  0  0  0  0  0  0
  141.3145   76.2230  218.2992 H   0  0  0  0  0  0  0  0  0  0  0  0
  143.0705   75.8814  218.1604 H   0  0  0  0  0  0  0  0  0  0  0  0
  1  2  1  0
  2  3  1  0
  3  4  2  0
  3  5  1  0
  5  6  1  0
  6  7  2  0
  7  8  1  0
  8  9  2  0
  9 10  1  0
 10 11  2  0
  5 12  1  0
 12 13  1  0
 13 14  1  0
 14 15  1  0
 15 16  1  0
 16 17  2  0
 16 18  1  0
 18 19  1  0
 19 20  1  0
 20 21  1  0
 21 22  1  0
 22 23  1  0
 23 24  1  0
 24 25  2  0
 15 26  1  0
 26 27  1  0
 11  6  1  0
 27 12  1  0
 24 19  1  0
  1 28  1  0
  1 29  1  0
  1 30  1  0
  2 31  1  0
  2 32  1  0
  7 33  1  0
  8 34  1  0
  9 35  1  0
 10 36  1  0
 11 37  1  0
 12 38  1  0
 13 39  1  0
 13 40  1  0
 14 41  1  0
 14 42  1  0
 18 43  1  0
 18 44  1  0
 20 45  1  0
 20 46  1  0
 21 47  1  0
 21 48  1  0
 22 49  1  0
 22 50  1  0
 23 51  1  0
 23 52  1  0
 26 53  1  0
 26 54  1  0
 27 55  1  0
 27 56  1  0
M  END
>  <smiles>  (18) 
CCC(=O)N(c1ccccc1)C1CCN(C(=O)CN2CCCCC2=O)CC1

>  <score_type>  (18) 
oracle

>  <origin>  (18) 
autodockgpu

>  <m_score__min__energy>  (18) 
-6.21

>  <m_primary>  (18) 
energy

>  <meeko>  (18) 
{"free_energy": -6.18, "intermolecular_energy": -7.97, "internal_energy": -2.08, "cluster_size": 19, "cluster_id": 1, "rank_in_cluster": 8}

>  <energy>  (18) 
-6.17

>  <cluster_rmsd>  (18) 
0.22

>  <rmsd>  (18) 
271.39

>  <cluster>  (18) 
1

$$$$

     RDKit          3D

 56 58  0  0  0  0  0  0  0  0999 V2000
  139.6150   74.2120  218.7470 C   0  0  0  0  0  0  0  0  0  0  0  0
  140.1010   73.2670  219.8730 C   0  0  0  0  0  0  0  0  0  0  0  0
  141.0190   73.9910  220.7650 C   0  0  0  0  0  0  0  0  0  0  0  0
  140.7100   73.9640  222.0150 O   0  0  0  0  0  0  0  0  0  0  0  0
  142.1770   74.7010  220.4400 N   0  0  0  0  0  0  0  0  0  0  0  0
  143.3910   73.9030  220.3470 C   0  0  0  0  0  0  0  0  0  0  0  0
  143.2590   72.5320  220.1240 C   0  0  0  0  0  0  0  0  0  0  0  0
  144.4270   71.8100  220.0420 C   0  0  0  0  0  0  0  0  0  0  0  0
  145.6750   72.3950  220.1700 C   0  0  0  0  0  0  0  0  0  0  0  0
  145.7930   73.7690  220.3930 C   0  0  0  0  0  0  0  0  0  0  0  0
  144.6210   74.5090  220.4790 C   0  0  0  0  0  0  0  0  0  0  0  0
  142.3330   76.1030  220.1910 C   0  0  0  0  0  0  0  0  0  0  0  0
  141.4310   76.9910  221.0040 C   0  0  0  0  0  0  0  0  0  0  0  0
  140.6230   77.8690  220.0760 C   0  0  0  0  0  0  0  0  0  0  0  0
  141.5730   78.7110  219.3740 N   0  0  0  0  0  0  0  0  0  0  0  0
  141.5850   80.1170  219.4330 C   0  0  0  0  0  0  0  0  0  0  0  0
  142.4590   80.7500  218.7790 O   0  0  0  0  0  0  0  0  0  0  0  0
  140.5610   80.7890  220.2670 C   0  0  0  0  0  0  0  0  0  0  0  0
  140.8190   80.6630  221.6810 N   0  0  0  0  0  0  0  0  0  0  0  0
  141.9490   81.2650  222.3570 C   0  0  0  0  0  0  0  0  0  0  0  0
  142.7660   80.1490  222.9640 C   0  0  0  0  0  0  0  0  0  0  0  0
  141.9130   79.0610  223.5070 C   0  0  0  0  0  0  0  0  0  0  0  0
  140.4850   79.4720  223.8260 C   0  0  0  0  0  0  0  0  0  0  0  0
  139.9220   79.9010  222.4920 C   0  0  0  0  0  0  0  0  0  0  0  0
  138.7560   79.6050  222.1360 O   0  0  0  0  0  0  0  0  0  0  0  0
  142.5680   77.9790  218.5620 C   0  0  0  0  0  0  0  0  0  0  0  0
  142.2970   76.4720  218.7140 C   0  0  0  0  0  0  0  0  0  0  0  0
  139.1550   75.1065  219.1921 H   0  0  0  0  0  0  0  0  0  0  0  0
  140.4711   74.5112  218.1244 H   0  0  0  0  0  0  0  0  0  0  0  0
  138.8737   73.6897  218.1244 H   0  0  0  0  0  0  0  0  0  0  0  0
  139.2352   72.9105  220.4504 H   0  0  0  0  0  0  0  0  0  0  0  0
  140.6262   72.4092  219.4277 H   0  0  0  0  0  0  0  0  0  0  0  0
  142.2738   72.0541  220.0194 H   0  0  0  0  0  0  0  0  0  0  0  0
  144.3669   70.7255  219.8680 H   0  0  0  0  0  0  0  0  0  0  0  0
  146.5798   71.7739  220.0956 H   0  0  0  0  0  0  0  0  0  0  0  0
  146.7782   74.2472  220.4967 H   0  0  0  0  0  0  0  0  0  0  0  0
  144.6756   75.5935  220.6549 H   0  0  0  0  0  0  0  0  0  0  0  0
  143.3535   76.3067  220.5474 H   0  0  0  0  0  0  0  0  0  0  0  0
  140.7514   76.3707  221.6069 H   0  0  0  0  0  0  0  0  0  0  0  0
  142.0385   77.6211  221.6703 H   0  0  0  0  0  0  0  0  0  0  0  0
  140.0622   77.2503  219.3600 H   0  0  0  0  0  0  0  0  0  0  0  0
  139.8935   78.4733  220.6352 H   0  0  0  0  0  0  0  0  0  0  0  0
  140.5426   81.8577  220.0072 H   0  0  0  0  0  0  0  0  0  0  0  0
  139.5962   80.3019  220.0623 H   0  0  0  0  0  0  0  0  0  0  0  0
  142.5604   81.8283  221.6366 H   0  0  0  0  0  0  0  0  0  0  0  0
  141.6065   81.9611  223.1368 H   0  0  0  0  0  0  0  0  0  0  0  0
  143.4243   79.7297  222.1888 H   0  0  0  0  0  0  0  0  0  0  0  0
  143.3472   80.5705  223.7974 H   0  0  0  0  0  0  0  0  0  0  0  0
  141.8783   78.2501  222.7646 H   0  0  0  0  0  0  0  0  0  0  0  0
  142.3686   78.7559  224.4606 H   0  0  0  0  0  0  0  0  0  0  0  0
  139.9164   78.6243  224.2361 H   0  0  0  0  0  0  0  0  0  0  0  0
  140.4326   80.2679  224.5835 H   0  0  0  0  0  0  0  0  0  0  0  0
  142.4730   78.2698  217.5054 H   0  0  0  0  0  0  0  0  0  0  0  0
  143.5864   78.2183  218.9021 H   0  0  0  0  0  0  0  0  0  0  0  0
  141.3068   76.2326  218.2991 H   0  0  0  0  0  0  0  0  0  0  0  0
  143.0658   75.9018  218.1719 H   0  0  0  0  0  0  0  0  0  0  0  0
  1  2  1  0
  2  3  1  0
  3  4  2  0
  3  5  1  0
  5  6  1  0
  6  7  2  0
  7  8  1  0
  8  9  2  0
  9 10  1  0
 10 11  2  0
  5 12  1  0
 12 13  1  0
 13 14  1  0
 14 15  1  0
 15 16  1  0
 16 17  2  0
 16 18  1  0
 18 19  1  0
 19 20  1  0
 20 21  1  0
 21 22  1  0
 22 23  1  0
 23 24  1  0
 24 25  2  0
 15 26  1  0
 26 27  1  0
 11  6  1  0
 27 12  1  0
 24 19  1  0
  1 28  1  0
  1 29  1  0
  1 30  1  0
  2 31  1  0
  2 32  1  0
  7 33  1  0
  8 34  1  0
  9 35  1  0
 10 36  1  0
 11 37  1  0
 12 38  1  0
 13 39  1  0
 13 40  1  0
 14 41  1  0
 14 42  1  0
 18 43  1  0
 18 44  1  0
 20 45  1  0
 20 46  1  0
 21 47  1  0
 21 48  1  0
 22 49  1  0
 22 50  1  0
 23 51  1  0
 23 52  1  0
 26 53  1  0
 26 54  1  0
 27 55  1  0
 27 56  1  0
M  END
>  <smiles>  (19) 
CCC(=O)N(c1ccccc1)C1CCN(C(=O)CN2CCCCC2=O)CC1

>  <score_type>  (19) 
oracle

>  <origin>  (19) 
autodockgpu

>  <m_score__min__energy>  (19) 
-6.21

>  <m_primary>  (19) 
energy

>  <meeko>  (19) 
{"free_energy": -6.19, "intermolecular_energy": -7.98, "internal_energy": -2.07, "cluster_size": 19, "cluster_id": 1, "rank_in_cluster": 4}

>  <energy>  (19) 
-5.75

>  <cluster_rmsd>  (19) 
0.78

>  <rmsd>  (19) 
271.46

>  <cluster>  (19) 
1

$$$$

     RDKit          3D

 56 58  0  0  0  0  0  0  0  0999 V2000
  136.3640   69.3600  223.5680 C   0  0  0  0  0  0  0  0  0  0  0  0
  136.9160   69.0020  224.9690 C   0  0  0  0  0  0  0  0  0  0  0  0
  138.3840   68.9350  224.9200 C   0  0  0  0  0  0  0  0  0  0  0  0
  138.8900   67.7660  225.1080 O   0  0  0  0  0  0  0  0  0  0  0  0
  139.3010   69.9660  224.6980 N   0  0  0  0  0  0  0  0  0  0  0  0
  139.9240   70.5130  225.8940 C   0  0  0  0  0  0  0  0  0  0  0  0
  140.8500   71.5440  225.7380 C   0  0  0  0  0  0  0  0  0  0  0  0
  141.4180   72.0370  226.8900 C   0  0  0  0  0  0  0  0  0  0  0  0
  141.0980   71.5490  228.1450 C   0  0  0  0  0  0  0  0  0  0  0  0
  140.1690   70.5170  228.2880 C   0  0  0  0  0  0  0  0  0  0  0  0
  139.5880   70.0100  227.1330 C   0  0  0  0  0  0  0  0  0  0  0  0
  139.7060   70.5580  223.4570 C   0  0  0  0  0  0  0  0  0  0  0  0
  139.0870   71.8980  223.1680 C   0  0  0  0  0  0  0  0  0  0  0  0
  138.3780   71.8460  221.8350 C   0  0  0  0  0  0  0  0  0  0  0  0
  139.3990   71.5950  220.8350 N   0  0  0  0  0  0  0  0  0  0  0  0
  139.6960   72.4600  219.7660 C   0  0  0  0  0  0  0  0  0  0  0  0
  140.6070   72.1400  218.9540 O   0  0  0  0  0  0  0  0  0  0  0  0
  138.9170   73.7160  219.6480 C   0  0  0  0  0  0  0  0  0  0  0  0
  139.7130   74.8940  219.8920 N   0  0  0  0  0  0  0  0  0  0  0  0
  139.9540   75.9290  218.9090 C   0  0  0  0  0  0  0  0  0  0  0  0
  141.4450   75.9980  218.6740 C   0  0  0  0  0  0  0  0  0  0  0  0
  142.2200   75.7970  219.9250 C   0  0  0  0  0  0  0  0  0  0  0  0
  141.4470   76.0800  221.2030 C   0  0  0  0  0  0  0  0  0  0  0  0
  140.3160   75.0800  221.1740 C   0  0  0  0  0  0  0  0  0  0  0  0
  139.9430   74.4680  222.2050 O   0  0  0  0  0  0  0  0  0  0  0  0
  140.1400   70.3280  221.0110 C   0  0  0  0  0  0  0  0  0  0  0  0
  139.5920   69.6210  222.2640 C   0  0  0  0  0  0  0  0  0  0  0  0
  135.4456   69.9556  223.6769 H   0  0  0  0  0  0  0  0  0  0  0  0
  137.1157   69.9430  223.0157 H   0  0  0  0  0  0  0  0  0  0  0  0
  136.1383   68.4359  223.0157 H   0  0  0  0  0  0  0  0  0  0  0  0
  136.6089   69.7729  225.6911 H   0  0  0  0  0  0  0  0  0  0  0  0
  136.5165   68.0253  225.2797 H   0  0  0  0  0  0  0  0  0  0  0  0
  141.1123   71.9419  224.7466 H   0  0  0  0  0  0  0  0  0  0  0  0
  142.1546   72.8501  226.8106 H   0  0  0  0  0  0  0  0  0  0  0  0
  141.5794   71.9776  229.0364 H   0  0  0  0  0  0  0  0  0  0  0  0
  139.9066   70.1197  229.2796 H   0  0  0  0  0  0  0  0  0  0  0  0
  138.8507   69.1971  227.2076 H   0  0  0  0  0  0  0  0  0  0  0  0
  140.7780   70.7504  223.6111 H   0  0  0  0  0  0  0  0  0  0  0  0
  138.3640   72.1465  223.9588 H   0  0  0  0  0  0  0  0  0  0  0  0
  139.8731   72.6668  223.1364 H   0  0  0  0  0  0  0  0  0  0  0  0
  137.6348   71.0350  221.8312 H   0  0  0  0  0  0  0  0  0  0  0  0
  137.8442   72.7860  221.6314 H   0  0  0  0  0  0  0  0  0  0  0  0
  138.5015   73.7773  218.6314 H   0  0  0  0  0  0  0  0  0  0  0  0
  138.1260   73.6874  220.4119 H   0  0  0  0  0  0  0  0  0  0  0  0
  139.4373   75.6819  217.9698 H   0  0  0  0  0  0  0  0  0  0  0  0
  139.5742   76.8974  219.2667 H   0  0  0  0  0  0  0  0  0  0  0  0
  141.7266   75.2161  217.9533 H   0  0  0  0  0  0  0  0  0  0  0  0
  141.6801   77.0011  218.2886 H   0  0  0  0  0  0  0  0  0  0  0  0
  142.5588   74.7509  219.9539 H   0  0  0  0  0  0  0  0  0  0  0  0
  143.0490   76.5195  219.8966 H   0  0  0  0  0  0  0  0  0  0  0  0
  142.0830   75.9256  222.0871 H   0  0  0  0  0  0  0  0  0  0  0  0
  141.0920   77.1195  221.2621 H   0  0  0  0  0  0  0  0  0  0  0  0
  139.9964   69.6869  220.1288 H   0  0  0  0  0  0  0  0  0  0  0  0
  141.2151   70.5294  221.1277 H   0  0  0  0  0  0  0  0  0  0  0  0
  138.5366   69.3552  222.1045 H   0  0  0  0  0  0  0  0  0  0  0  0
  140.1721   68.7063  222.4557 H   0  0  0  0  0  0  0  0  0  0  0  0
  1  2  1  0
  2  3  1  0
  3  4  2  0
  3  5  1  0
  5  6  1  0
  6  7  2  0
  7  8  1  0
  8  9  2  0
  9 10  1  0
 10 11  2  0
  5 12  1  0
 12 13  1  0
 13 14  1  0
 14 15  1  0
 15 16  1  0
 16 17  2  0
 16 18  1  0
 18 19  1  0
 19 20  1  0
 20 21  1  0
 21 22  1  0
 22 23  1  0
 23 24  1  0
 24 25  2  0
 15 26  1  0
 26 27  1  0
 11  6  1  0
 27 12  1  0
 24 19  1  0
  1 28  1  0
  1 29  1  0
  1 30  1  0
  2 31  1  0
  2 32  1  0
  7 33  1  0
  8 34  1  0
  9 35  1  0
 10 36  1  0
 11 37  1  0
 12 38  1  0
 13 39  1  0
 13 40  1  0
 14 41  1  0
 14 42  1  0
 18 43  1  0
 18 44  1  0
 20 45  1  0
 20 46  1  0
 21 47  1  0
 21 48  1  0
 22 49  1  0
 22 50  1  0
 23 51  1  0
 23 52  1  0
 26 53  1  0
 26 54  1  0
 27 55  1  0
 27 56  1  0
M  END
>  <smiles>  (20) 
CCC(=O)N(c1ccccc1)C1CCN(C(=O)CN2CCCCC2=O)CC1

>  <score_type>  (20) 
oracle

>  <origin>  (20) 
autodockgpu

>  <m_score__min__energy>  (20) 
-6.21

>  <m_primary>  (20) 
energy

>  <meeko>  (20) 
{"free_energy": -6.05, "intermolecular_energy": -7.84, "internal_energy": -1.8, "cluster_size": 1, "cluster_id": 2, "rank_in_cluster": 1}

>  <energy>  (20) 
-6.05

>  <cluster_rmsd>  (20) 
0.0

>  <rmsd>  (20) 
270.71

>  <cluster>  (20) 
2

$$$$
