OEDLLKAXDUWBBK-SFHVURJKNA-N
     RDKit          3D

 47 50  0  0  0  0  0  0  0  0999 V2000
  142.4180   71.5350  221.6300 F   0  0  0  0  0  0  0  0  0  0  0  0
  143.0740   72.2040  220.6150 C   0  0  0  0  0  0  0  0  0  0  0  0
  142.8460   71.5600  219.4120 F   0  0  0  0  0  0  0  0  0  0  0  0
  144.4290   72.1330  220.8940 F   0  0  0  0  0  0  0  0  0  0  0  0
  142.6170   73.6510  220.5140 C   0  0  0  0  0  0  0  0  0  0  0  0
  143.5270   74.5810  219.9810 C   0  0  0  0  0  0  0  0  0  0  0  0
  143.1990   75.9250  219.8730 C   0  0  0  0  0  0  0  0  0  0  0  0
  141.9740   76.3840  220.3340 C   0  0  0  0  0  0  0  0  0  0  0  0
  141.0250   75.4980  220.8740 C   0  0  0  0  0  0  0  0  0  0  0  0
  139.7420   76.0800  221.4480 C   0  0  0  0  0  0  0  0  0  0  0  0
  139.5900   75.7630  222.7870 F   0  0  0  0  0  0  0  0  0  0  0  0
  139.7530   77.4560  221.3320 F   0  0  0  0  0  0  0  0  0  0  0  0
  138.6450   75.5680  220.7770 F   0  0  0  0  0  0  0  0  0  0  0  0
  141.2980   74.0920  220.8610 C   0  0  0  0  0  0  0  0  0  0  0  0
  140.1980   73.0880  221.1970 C   0  0  0  0  0  0  0  0  0  0  0  0
  140.0650   72.8990  222.6570 N   0  0  0  0  0  0  0  0  0  0  0  0
  139.1000   71.8640  223.0880 C   0  0  1  0  0  0  0  0  0  0  0  0
  138.6690   70.9270  221.9190 C   0  0  0  0  0  0  0  0  0  0  0  0
  137.9500   69.6580  222.4230 C   0  0  0  0  0  0  0  0  0  0  0  0
  138.8540   68.8280  223.3520 C   0  0  0  0  0  0  0  0  0  0  0  0
  139.4390   69.7140  224.4080 C   0  0  0  0  0  0  0  0  0  0  0  0
  139.5910   71.0840  224.2820 C   0  0  0  0  0  0  0  0  0  0  0  0
  140.1150   71.6170  225.4090 N   0  0  0  0  0  0  0  0  0  0  0  0
  140.3650   70.5700  226.2180 C   0  0  0  0  0  0  0  0  0  0  0  0
  140.9510   70.6010  227.4810 C   0  0  0  0  0  0  0  0  0  0  0  0
  141.1300   69.3780  228.1540 C   0  0  0  0  0  0  0  0  0  0  0  0
  140.7200   68.1650  227.5560 C   0  0  0  0  0  0  0  0  0  0  0  0
  140.1290   68.1620  226.2790 C   0  0  0  0  0  0  0  0  0  0  0  0
  139.9680   69.3880  225.6370 C   0  0  0  0  0  0  0  0  0  0  0  0
  144.5160   74.2372  219.6438 H   0  0  0  0  0  0  0  0  0  0  0  0
  143.9129   76.6288  219.4202 H   0  0  0  0  0  0  0  0  0  0  0  0
  141.7413   77.4576  220.2763 H   0  0  0  0  0  0  0  0  0  0  0  0
  139.2425   73.4569  220.7958 H   0  0  0  0  0  0  0  0  0  0  0  0
  140.4643   72.1205  220.7465 H   0  0  0  0  0  0  0  0  0  0  0  0
  139.7840   73.8100  223.0900 H   0  0  0  0  0  0  0  0  0  0  0  0
  138.1966   72.4030  223.4095 H   0  0  0  0  0  0  0  0  0  0  0  0
  137.9882   71.4796  221.2548 H   0  0  0  0  0  0  0  0  0  0  0  0
  139.5785   70.6108  221.3872 H   0  0  0  0  0  0  0  0  0  0  0  0
  137.0464   69.9549  222.9756 H   0  0  0  0  0  0  0  0  0  0  0  0
  137.6907   69.0393  221.5512 H   0  0  0  0  0  0  0  0  0  0  0  0
  138.2592   68.0346  223.8282 H   0  0  0  0  0  0  0  0  0  0  0  0
  139.6662   68.3768  222.7632 H   0  0  0  0  0  0  0  0  0  0  0  0
  140.2880   72.6260  225.6130 H   0  0  0  0  0  0  0  0  0  0  0  0
  141.2640   71.5513  227.9381 H   0  0  0  0  0  0  0  0  0  0  0  0
  141.5921   69.3662  229.1522 H   0  0  0  0  0  0  0  0  0  0  0  0
  140.8640   67.2158  228.0929 H   0  0  0  0  0  0  0  0  0  0  0  0
  139.8053   67.2241  225.8040 H   0  0  0  0  0  0  0  0  0  0  0  0
  1  2  1  0
  2  3  1  0
  2  4  1  0
  2  5  1  0
  5  6  2  0
  6  7  1  0
  7  8  2  0
  8  9  1  0
  9 10  1  0
 10 11  1  0
 10 12  1  0
 10 13  1  0
  9 14  2  0
 14 15  1  0
 15 16  1  0
 16 17  1  0
 17 18  1  0
 18 19  1  0
 19 20  1  0
 20 21  1  0
 21 22  2  0
 22 23  1  0
 23 24  1  0
 24 25  2  0
 25 26  1  0
 26 27  2  0
 27 28  1  0
 28 29  2  0
 14  5  1  0
 22 17  1  0
 29 24  1  0
 29 21  1  0
  6 30  1  0
  7 31  1  0
  8 32  1  0
 15 33  1  0
 15 34  1  0
 16 35  1  0
 17 36  1  1
 18 37  1  0
 18 38  1  0
 19 39  1  0
 19 40  1  0
 20 41  1  0
 20 42  1  0
 23 43  1  0
 25 44  1  0
 26 45  1  0
 27 46  1  0
 28 47  1  0
M  END
>  <UniqueID>  (1) 
29

>  <SMILES>  (1) 
FC(F)(F)c1cccc(C(F)(F)F)c1CN[C@H]1CCCc2c1[nH]c1ccccc21

>  <Energy>  (1) 
93.11408168616087

>  <Genealogy>  (1) 
FC(F)(F)c1cccc(C(F)(F)F)c1CN[C@H]1CCCc2c1[nH]c1ccccc21 (chirality)
FC(F)(F)c1cccc(C(F)(F)F)c1CN[C@H]1CCCc2c1[nH]c1ccccc21 (3D coordinates assigned)
FC(F)(F)c1cccc(C(F)(F)F)c1CN[C@H]1CCCc2c1[nH]c1ccccc21 (nonaromatic ring conformer: 93.11408168616087 kcal/mol)

>  <smiles>  (1) 
FC(F)(F)c1cccc(C(F)(F)F)c1CNC1CCCc2c1[nH]c1ccccc21

>  <score_type>  (1) 
oracle

>  <origin>  (1) 
autodockgpu

>  <m_score__min__energy>  (1) 
-7.21

>  <m_primary>  (1) 
energy

>  <meeko>  (1) 
{"free_energy": -7.13, "intermolecular_energy": -8.62, "internal_energy": -1.01, "cluster_size": 17, "cluster_id": 1, "rank_in_cluster": 7}

>  <energy>  (1) 
-7.21

>  <cluster_rmsd>  (1) 
0.0

>  <rmsd>  (1) 
269.9

>  <cluster>  (1) 
1

$$$$
OEDLLKAXDUWBBK-SFHVURJKNA-N
     RDKit          3D

 47 50  0  0  0  0  0  0  0  0999 V2000
  140.9070   76.0340  222.2920 F   0  0  0  0  0  0  0  0  0  0  0  0
  141.2090   75.9040  220.9500 C   0  0  0  0  0  0  0  0  0  0  0  0
  141.9170   77.0130  220.5240 F   0  0  0  0  0  0  0  0  0  0  0  0
  140.0050   75.8700  220.2670 F   0  0  0  0  0  0  0  0  0  0  0  0
  142.0200   74.6450  220.6800 C   0  0  0  0  0  0  0  0  0  0  0  0
  143.4020   74.7990  220.4740 C   0  0  0  0  0  0  0  0  0  0  0  0
  144.2120   73.7050  220.2010 C   0  0  0  0  0  0  0  0  0  0  0  0
  143.6590   72.4380  220.0830 C   0  0  0  0  0  0  0  0  0  0  0  0
  142.2820   72.2280  220.2810 C   0  0  0  0  0  0  0  0  0  0  0  0
  141.7270   70.8320  220.0430 C   0  0  0  0  0  0  0  0  0  0  0  0
  142.7300   69.9260  219.7400 F   0  0  0  0  0  0  0  0  0  0  0  0
  141.0720   70.3830  221.1740 F   0  0  0  0  0  0  0  0  0  0  0  0
  140.8490   70.8440  218.9740 F   0  0  0  0  0  0  0  0  0  0  0  0
  141.4630   73.3240  220.7010 C   0  0  0  0  0  0  0  0  0  0  0  0
  140.0310   73.0840  221.1730 C   0  0  0  0  0  0  0  0  0  0  0  0
  139.9710   72.8790  222.6360 N   0  0  0  0  0  0  0  0  0  0  0  0
  139.0080   71.8590  223.1050 C   0  0  1  0  0  0  0  0  0  0  0  0
  138.5250   70.9220  221.9560 C   0  0  0  0  0  0  0  0  0  0  0  0
  137.8090   69.6650  222.4910 C   0  0  0  0  0  0  0  0  0  0  0  0
  138.7330   68.8280  223.3930 C   0  0  0  0  0  0  0  0  0  0  0  0
  139.3650   69.7110  224.4240 C   0  0  0  0  0  0  0  0  0  0  0  0
  139.5290   71.0780  224.2860 C   0  0  0  0  0  0  0  0  0  0  0  0
  140.0990   71.6100  225.3920 N   0  0  0  0  0  0  0  0  0  0  0  0
  140.3620   70.5640  226.1970 C   0  0  0  0  0  0  0  0  0  0  0  0
  140.9920   70.5940  227.4390 C   0  0  0  0  0  0  0  0  0  0  0  0
  141.1790   69.3710  228.1110 C   0  0  0  0  0  0  0  0  0  0  0  0
  140.7330   68.1610  227.5340 C   0  0  0  0  0  0  0  0  0  0  0  0
  140.0980   68.1590  226.2780 C   0  0  0  0  0  0  0  0  0  0  0  0
  139.9310   69.3850  225.6360 C   0  0  0  0  0  0  0  0  0  0  0  0
  143.8489   75.8026  220.5300 H   0  0  0  0  0  0  0  0  0  0  0  0
  145.2963   73.8432  220.0778 H   0  0  0  0  0  0  0  0  0  0  0  0
  144.3066   71.5853  219.8309 H   0  0  0  0  0  0  0  0  0  0  0  0
  139.4163   73.9571  220.9087 H   0  0  0  0  0  0  0  0  0  0  0  0
  139.6526   72.1759  220.6810 H   0  0  0  0  0  0  0  0  0  0  0  0
  139.7310   73.7900  223.0940 H   0  0  0  0  0  0  0  0  0  0  0  0
  138.1234   72.4116  223.4543 H   0  0  0  0  0  0  0  0  0  0  0  0
  137.8282   71.4799  221.3132 H   0  0  0  0  0  0  0  0  0  0  0  0
  139.4114   70.5922  221.3942 H   0  0  0  0  0  0  0  0  0  0  0  0
  136.9285   69.9759  223.0724 H   0  0  0  0  0  0  0  0  0  0  0  0
  137.5133   69.0453  221.6316 H   0  0  0  0  0  0  0  0  0  0  0  0
  138.1445   68.0448  223.8932 H   0  0  0  0  0  0  0  0  0  0  0  0
  139.5189   68.3636  222.7793 H   0  0  0  0  0  0  0  0  0  0  0  0
  140.2910   72.6180  225.5840 H   0  0  0  0  0  0  0  0  0  0  0  0
  141.3323   71.5423  227.8804 H   0  0  0  0  0  0  0  0  0  0  0  0
  141.6759   69.3575  229.0923 H   0  0  0  0  0  0  0  0  0  0  0  0
  140.8833   67.2127  228.0708 H   0  0  0  0  0  0  0  0  0  0  0  0
  139.7460   67.2232  225.8192 H   0  0  0  0  0  0  0  0  0  0  0  0
  1  2  1  0
  2  3  1  0
  2  4  1  0
  2  5  1  0
  5  6  2  0
  6  7  1  0
  7  8  2  0
  8  9  1  0
  9 10  1  0
 10 11  1  0
 10 12  1  0
 10 13  1  0
  9 14  2  0
 14 15  1  0
 15 16  1  0
 16 17  1  0
 17 18  1  0
 18 19  1  0
 19 20  1  0
 20 21  1  0
 21 22  2  0
 22 23  1  0
 23 24  1  0
 24 25  2  0
 25 26  1  0
 26 27  2  0
 27 28  1  0
 28 29  2  0
 14  5  1  0
 22 17  1  0
 29 24  1  0
 29 21  1  0
  6 30  1  0
  7 31  1  0
  8 32  1  0
 15 33  1  0
 15 34  1  0
 16 35  1  0
 17 36  1  1
 18 37  1  0
 18 38  1  0
 19 39  1  0
 19 40  1  0
 20 41  1  0
 20 42  1  0
 23 43  1  0
 25 44  1  0
 26 45  1  0
 27 46  1  0
 28 47  1  0
M  END
>  <UniqueID>  (2) 
29

>  <SMILES>  (2) 
FC(F)(F)c1cccc(C(F)(F)F)c1CN[C@H]1CCCc2c1[nH]c1ccccc21

>  <Energy>  (2) 
93.11408168616087

>  <Genealogy>  (2) 
FC(F)(F)c1cccc(C(F)(F)F)c1CN[C@H]1CCCc2c1[nH]c1ccccc21 (chirality)
FC(F)(F)c1cccc(C(F)(F)F)c1CN[C@H]1CCCc2c1[nH]c1ccccc21 (3D coordinates assigned)
FC(F)(F)c1cccc(C(F)(F)F)c1CN[C@H]1CCCc2c1[nH]c1ccccc21 (nonaromatic ring conformer: 93.11408168616087 kcal/mol)

>  <smiles>  (2) 
FC(F)(F)c1cccc(C(F)(F)F)c1CNC1CCCc2c1[nH]c1ccccc21

>  <score_type>  (2) 
oracle

>  <origin>  (2) 
autodockgpu

>  <m_score__min__energy>  (2) 
-7.21

>  <m_primary>  (2) 
energy

>  <meeko>  (2) 
{"free_energy": -6.87, "intermolecular_energy": -8.36, "internal_energy": -1.16, "cluster_size": 17, "cluster_id": 1, "rank_in_cluster": 10}

>  <energy>  (2) 
-7.2

>  <cluster_rmsd>  (2) 
0.06

>  <rmsd>  (2) 
269.88

>  <cluster>  (2) 
1

$$$$
OEDLLKAXDUWBBK-SFHVURJKNA-N
     RDKit          3D

 47 50  0  0  0  0  0  0  0  0999 V2000
  141.0370   76.1180  222.2960 F   0  0  0  0  0  0  0  0  0  0  0  0
  141.3130   75.9630  220.9510 C   0  0  0  0  0  0  0  0  0  0  0  0
  142.0690   77.0330  220.5060 F   0  0  0  0  0  0  0  0  0  0  0  0
  140.0990   75.9830  220.2850 F   0  0  0  0  0  0  0  0  0  0  0  0
  142.0570   74.6640  220.6800 C   0  0  0  0  0  0  0  0  0  0  0  0
  143.4440   74.7450  220.4650 C   0  0  0  0  0  0  0  0  0  0  0  0
  144.1950   73.6110  220.1900 C   0  0  0  0  0  0  0  0  0  0  0  0
  143.5770   72.3740  220.0800 C   0  0  0  0  0  0  0  0  0  0  0  0
  142.1930   72.2350  220.2890 C   0  0  0  0  0  0  0  0  0  0  0  0
  141.5650   70.8680  220.0600 C   0  0  0  0  0  0  0  0  0  0  0  0
  141.0250   70.3510  221.2250 F   0  0  0  0  0  0  0  0  0  0  0  0
  140.5540   70.9620  219.1240 F   0  0  0  0  0  0  0  0  0  0  0  0
  142.5230   69.9710  219.6190 F   0  0  0  0  0  0  0  0  0  0  0  0
  141.4340   73.3730  220.7100 C   0  0  0  0  0  0  0  0  0  0  0  0
  139.9940   73.2070  221.1920 C   0  0  0  0  0  0  0  0  0  0  0  0
  139.9390   72.9280  222.6430 N   0  0  0  0  0  0  0  0  0  0  0  0
  138.9790   71.8840  223.0630 C   0  0  1  0  0  0  0  0  0  0  0  0
  138.5110   70.9920  221.8740 C   0  0  0  0  0  0  0  0  0  0  0  0
  137.7970   69.7100  222.3510 C   0  0  0  0  0  0  0  0  0  0  0  0
  138.7190   68.8430  223.2280 C   0  0  0  0  0  0  0  0  0  0  0  0
  139.3370   69.6880  224.2980 C   0  0  0  0  0  0  0  0  0  0  0  0
  139.4940   71.0600  224.2160 C   0  0  0  0  0  0  0  0  0  0  0  0
  140.0520   71.5510  225.3470 N   0  0  0  0  0  0  0  0  0  0  0  0
  140.3150   70.4750  226.1120 C   0  0  0  0  0  0  0  0  0  0  0  0
  140.9340   70.4590  227.3600 C   0  0  0  0  0  0  0  0  0  0  0  0
  141.1220   69.2110  227.9840 C   0  0  0  0  0  0  0  0  0  0  0  0
  140.6890   68.0230  227.3560 C   0  0  0  0  0  0  0  0  0  0  0  0
  140.0640   68.0670  226.0950 C   0  0  0  0  0  0  0  0  0  0  0  0
  139.8950   69.3170  225.5010 C   0  0  0  0  0  0  0  0  0  0  0  0
  143.9425   75.7242  220.5156 H   0  0  0  0  0  0  0  0  0  0  0  0
  145.2841   73.6933  220.0588 H   0  0  0  0  0  0  0  0  0  0  0  0
  144.1782   71.4887  219.8256 H   0  0  0  0  0  0  0  0  0  0  0  0
  139.4382   74.1333  220.9844 H   0  0  0  0  0  0  0  0  0  0  0  0
  139.5467   72.3552  220.6587 H   0  0  0  0  0  0  0  0  0  0  0  0
  139.7000   73.8150  223.1470 H   0  0  0  0  0  0  0  0  0  0  0  0
  138.0884   72.4170  223.4272 H   0  0  0  0  0  0  0  0  0  0  0  0
  137.8166   71.5719  221.2483 H   0  0  0  0  0  0  0  0  0  0  0  0
  139.4041   70.6895  221.3076 H   0  0  0  0  0  0  0  0  0  0  0  0
  136.9091   69.9920  222.9359 H   0  0  0  0  0  0  0  0  0  0  0  0
  137.5125   69.1236  221.4649 H   0  0  0  0  0  0  0  0  0  0  0  0
  138.1310   68.0374  223.6920 H   0  0  0  0  0  0  0  0  0  0  0  0
  139.5128   68.4076  222.6032 H   0  0  0  0  0  0  0  0  0  0  0  0
  140.2360   72.5510  225.5820 H   0  0  0  0  0  0  0  0  0  0  0  0
  141.2650   71.3907  227.8420 H   0  0  0  0  0  0  0  0  0  0  0  0
  141.6101   69.1612  228.9685 H   0  0  0  0  0  0  0  0  0  0  0  0
  140.8411   67.0550  227.8559 H   0  0  0  0  0  0  0  0  0  0  0  0
  139.7214   67.1482  225.5965 H   0  0  0  0  0  0  0  0  0  0  0  0
  1  2  1  0
  2  3  1  0
  2  4  1  0
  2  5  1  0
  5  6  2  0
  6  7  1  0
  7  8  2  0
  8  9  1  0
  9 10  1  0
 10 11  1  0
 10 12  1  0
 10 13  1  0
  9 14  2  0
 14 15  1  0
 15 16  1  0
 16 17  1  0
 17 18  1  0
 18 19  1  0
 19 20  1  0
 20 21  1  0
 21 22  2  0
 22 23  1  0
 23 24  1  0
 24 25  2  0
 25 26  1  0
 26 27  2  0
 27 28  1  0
 28 29  2  0
 14  5  1  0
 22 17  1  0
 29 24  1  0
 29 21  1  0
  6 30  1  0
  7 31  1  0
  8 32  1  0
 15 33  1  0
 15 34  1  0
 16 35  1  0
 17 36  1  1
 18 37  1  0
 18 38  1  0
 19 39  1  0
 19 40  1  0
 20 41  1  0
 20 42  1  0
 23 43  1  0
 25 44  1  0
 26 45  1  0
 27 46  1  0
 28 47  1  0
M  END
>  <UniqueID>  (3) 
29

>  <SMILES>  (3) 
FC(F)(F)c1cccc(C(F)(F)F)c1CN[C@H]1CCCc2c1[nH]c1ccccc21

>  <Energy>  (3) 
93.11408168616087

>  <Genealogy>  (3) 
FC(F)(F)c1cccc(C(F)(F)F)c1CN[C@H]1CCCc2c1[nH]c1ccccc21 (chirality)
FC(F)(F)c1cccc(C(F)(F)F)c1CN[C@H]1CCCc2c1[nH]c1ccccc21 (3D coordinates assigned)
FC(F)(F)c1cccc(C(F)(F)F)c1CN[C@H]1CCCc2c1[nH]c1ccccc21 (nonaromatic ring conformer: 93.11408168616087 kcal/mol)

>  <smiles>  (3) 
FC(F)(F)c1cccc(C(F)(F)F)c1CNC1CCCc2c1[nH]c1ccccc21

>  <score_type>  (3) 
oracle

>  <origin>  (3) 
autodockgpu

>  <m_score__min__energy>  (3) 
-7.21

>  <m_primary>  (3) 
energy

>  <meeko>  (3) 
{"free_energy": -6.79, "intermolecular_energy": -8.28, "internal_energy": -1.19, "cluster_size": 17, "cluster_id": 1, "rank_in_cluster": 14}

>  <energy>  (3) 
-7.19

>  <cluster_rmsd>  (3) 
0.2

>  <rmsd>  (3) 
269.86

>  <cluster>  (3) 
1

$$$$
OEDLLKAXDUWBBK-SFHVURJKNA-N
     RDKit          3D

 47 50  0  0  0  0  0  0  0  0999 V2000
  140.0110   75.9120  220.2990 F   0  0  0  0  0  0  0  0  0  0  0  0
  141.2240   75.9230  220.9600 C   0  0  0  0  0  0  0  0  0  0  0  0
  141.0100   76.0490  222.3210 F   0  0  0  0  0  0  0  0  0  0  0  0
  141.9100   77.0460  220.5250 F   0  0  0  0  0  0  0  0  0  0  0  0
  142.0240   74.6600  220.6820 C   0  0  0  0  0  0  0  0  0  0  0  0
  143.4070   74.8020  220.4720 C   0  0  0  0  0  0  0  0  0  0  0  0
  144.2060   73.7030  220.1920 C   0  0  0  0  0  0  0  0  0  0  0  0
  143.6420   72.4420  220.0710 C   0  0  0  0  0  0  0  0  0  0  0  0
  142.2650   72.2420  220.2740 C   0  0  0  0  0  0  0  0  0  0  0  0
  141.6980   70.8510  220.0330 C   0  0  0  0  0  0  0  0  0  0  0  0
  141.0690   70.3520  221.1610 F   0  0  0  0  0  0  0  0  0  0  0  0
  140.7720   70.8880  219.0080 F   0  0  0  0  0  0  0  0  0  0  0  0
  142.7150   69.9710  219.7070 F   0  0  0  0  0  0  0  0  0  0  0  0
  141.4560   73.3430  220.7000 C   0  0  0  0  0  0  0  0  0  0  0  0
  140.0240   73.1120  221.1760 C   0  0  0  0  0  0  0  0  0  0  0  0
  139.9690   72.8850  222.6360 N   0  0  0  0  0  0  0  0  0  0  0  0
  139.0070   71.8590  223.0940 C   0  0  1  0  0  0  0  0  0  0  0  0
  138.5390   70.9240  221.9380 C   0  0  0  0  0  0  0  0  0  0  0  0
  137.8240   69.6620  222.4630 C   0  0  0  0  0  0  0  0  0  0  0  0
  138.7430   68.8270  223.3710 C   0  0  0  0  0  0  0  0  0  0  0  0
  139.3610   69.7100  224.4110 C   0  0  0  0  0  0  0  0  0  0  0  0
  139.5210   71.0780  224.2770 C   0  0  0  0  0  0  0  0  0  0  0  0
  140.0780   71.6100  225.3900 N   0  0  0  0  0  0  0  0  0  0  0  0
  140.3390   70.5630  226.1950 C   0  0  0  0  0  0  0  0  0  0  0  0
  140.9570   70.5920  227.4430 C   0  0  0  0  0  0  0  0  0  0  0  0
  141.1430   69.3680  228.1130 C   0  0  0  0  0  0  0  0  0  0  0  0
  140.7080   68.1580  227.5290 C   0  0  0  0  0  0  0  0  0  0  0  0
  140.0850   68.1560  226.2670 C   0  0  0  0  0  0  0  0  0  0  0  0
  139.9180   69.3830  225.6270 C   0  0  0  0  0  0  0  0  0  0  0  0
  143.8631   75.8013  220.5307 H   0  0  0  0  0  0  0  0  0  0  0  0
  145.2910   73.8324  220.0655 H   0  0  0  0  0  0  0  0  0  0  0  0
  144.2815   71.5852  219.8123 H   0  0  0  0  0  0  0  0  0  0  0  0
  139.4179   73.9960  220.9285 H   0  0  0  0  0  0  0  0  0  0  0  0
  139.6328   72.2159  220.6721 H   0  0  0  0  0  0  0  0  0  0  0  0
  139.7320   73.7900  223.1090 H   0  0  0  0  0  0  0  0  0  0  0  0
  138.1165   72.4056  223.4377 H   0  0  0  0  0  0  0  0  0  0  0  0
  137.8454   71.4808  221.2907 H   0  0  0  0  0  0  0  0  0  0  0  0
  139.4318   70.6002  221.3829 H   0  0  0  0  0  0  0  0  0  0  0  0
  136.9366   69.9672  223.0370 H   0  0  0  0  0  0  0  0  0  0  0  0
  137.5394   69.0433  221.5992 H   0  0  0  0  0  0  0  0  0  0  0  0
  138.1535   68.0394  223.8631 H   0  0  0  0  0  0  0  0  0  0  0  0
  139.5370   68.3683  222.7634 H   0  0  0  0  0  0  0  0  0  0  0  0
  140.2630   72.6180  225.5870 H   0  0  0  0  0  0  0  0  0  0  0  0
  141.2889   71.5405  227.8904 H   0  0  0  0  0  0  0  0  0  0  0  0
  141.6308   69.3539  229.0988 H   0  0  0  0  0  0  0  0  0  0  0  0
  140.8573   67.2091  228.0650 H   0  0  0  0  0  0  0  0  0  0  0  0
  139.7422   67.2197  225.8023 H   0  0  0  0  0  0  0  0  0  0  0  0
  1  2  1  0
  2  3  1  0
  2  4  1  0
  2  5  1  0
  5  6  2  0
  6  7  1  0
  7  8  2  0
  8  9  1  0
  9 10  1  0
 10 11  1  0
 10 12  1  0
 10 13  1  0
  9 14  2  0
 14 15  1  0
 15 16  1  0
 16 17  1  0
 17 18  1  0
 18 19  1  0
 19 20  1  0
 20 21  1  0
 21 22  2  0
 22 23  1  0
 23 24  1  0
 24 25  2  0
 25 26  1  0
 26 27  2  0
 27 28  1  0
 28 29  2  0
 14  5  1  0
 22 17  1  0
 29 24  1  0
 29 21  1  0
  6 30  1  0
  7 31  1  0
  8 32  1  0
 15 33  1  0
 15 34  1  0
 16 35  1  0
 17 36  1  1
 18 37  1  0
 18 38  1  0
 19 39  1  0
 19 40  1  0
 20 41  1  0
 20 42  1  0
 23 43  1  0
 25 44  1  0
 26 45  1  0
 27 46  1  0
 28 47  1  0
M  END
>  <UniqueID>  (4) 
29

>  <SMILES>  (4) 
FC(F)(F)c1cccc(C(F)(F)F)c1CN[C@H]1CCCc2c1[nH]c1ccccc21

>  <Energy>  (4) 
93.11408168616087

>  <Genealogy>  (4) 
FC(F)(F)c1cccc(C(F)(F)F)c1CN[C@H]1CCCc2c1[nH]c1ccccc21 (chirality)
FC(F)(F)c1cccc(C(F)(F)F)c1CN[C@H]1CCCc2c1[nH]c1ccccc21 (3D coordinates assigned)
FC(F)(F)c1cccc(C(F)(F)F)c1CN[C@H]1CCCc2c1[nH]c1ccccc21 (nonaromatic ring conformer: 93.11408168616087 kcal/mol)

>  <smiles>  (4) 
FC(F)(F)c1cccc(C(F)(F)F)c1CNC1CCCc2c1[nH]c1ccccc21

>  <score_type>  (4) 
oracle

>  <origin>  (4) 
autodockgpu

>  <m_score__min__energy>  (4) 
-7.21

>  <m_primary>  (4) 
energy

>  <meeko>  (4) 
{"free_energy": -6.86, "intermolecular_energy": -8.35, "internal_energy": -1.17, "cluster_size": 17, "cluster_id": 1, "rank_in_cluster": 11}

>  <energy>  (4) 
-7.18

>  <cluster_rmsd>  (4) 
0.27

>  <rmsd>  (4) 
269.84

>  <cluster>  (4) 
1

$$$$
OEDLLKAXDUWBBK-SFHVURJKNA-N
     RDKit          3D

 47 50  0  0  0  0  0  0  0  0999 V2000
  141.7100   70.9280  219.7320 F   0  0  0  0  0  0  0  0  0  0  0  0
  142.3670   71.5850  220.7540 C   0  0  0  0  0  0  0  0  0  0  0  0
  143.6600   71.1050  220.8600 F   0  0  0  0  0  0  0  0  0  0  0  0
  141.6950   71.2800  221.9270 F   0  0  0  0  0  0  0  0  0  0  0  0
  142.3960   73.0880  220.5230 C   0  0  0  0  0  0  0  0  0  0  0  0
  143.5640   73.6330  219.9590 C   0  0  0  0  0  0  0  0  0  0  0  0
  143.6820   74.9970  219.7350 C   0  0  0  0  0  0  0  0  0  0  0  0
  142.6590   75.8580  220.1050 C   0  0  0  0  0  0  0  0  0  0  0  0
  141.4690   75.3670  220.6710 C   0  0  0  0  0  0  0  0  0  0  0  0
  140.4280   76.3720  221.1420 C   0  0  0  0  0  0  0  0  0  0  0  0
  139.2740   76.3080  220.3790 F   0  0  0  0  0  0  0  0  0  0  0  0
  140.0870   76.1200  222.4560 F   0  0  0  0  0  0  0  0  0  0  0  0
  140.9240   77.6590  221.0300 F   0  0  0  0  0  0  0  0  0  0  0  0
  141.2800   73.9510  220.7780 C   0  0  0  0  0  0  0  0  0  0  0  0
  139.9120   73.3790  221.1420 C   0  0  0  0  0  0  0  0  0  0  0  0
  139.8330   73.0400  222.5790 N   0  0  0  0  0  0  0  0  0  0  0  0
  138.9370   71.9160  222.9280 C   0  0  1  0  0  0  0  0  0  0  0  0
  138.5860   71.0290  221.6950 C   0  0  0  0  0  0  0  0  0  0  0  0
  137.9510   69.6840  222.1050 C   0  0  0  0  0  0  0  0  0  0  0  0
  138.8990   68.8600  222.9950 C   0  0  0  0  0  0  0  0  0  0  0  0
  139.4080   69.7150  224.1150 C   0  0  0  0  0  0  0  0  0  0  0  0
  139.4660   71.0960  224.0780 C   0  0  0  0  0  0  0  0  0  0  0  0
  139.9380   71.5910  225.2450 N   0  0  0  0  0  0  0  0  0  0  0  0
  140.2500   70.5140  225.9900 C   0  0  0  0  0  0  0  0  0  0  0  0
  140.8170   70.5040  227.2620 C   0  0  0  0  0  0  0  0  0  0  0  0
  141.0720   69.2550  227.8590 C   0  0  0  0  0  0  0  0  0  0  0  0
  140.7550   68.0580  227.1790 C   0  0  0  0  0  0  0  0  0  0  0  0
  140.1810   68.0960  225.8950 C   0  0  0  0  0  0  0  0  0  0  0  0
  139.9430   69.3480  225.3300 C   0  0  0  0  0  0  0  0  0  0  0  0
  144.3973   72.9667  219.6913 H   0  0  0  0  0  0  0  0  0  0  0  0
  144.5907   75.3976  219.2619 H   0  0  0  0  0  0  0  0  0  0  0  0
  142.7805   76.9407  219.9534 H   0  0  0  0  0  0  0  0  0  0  0  0
  139.1384   74.1250  220.9074 H   0  0  0  0  0  0  0  0  0  0  0  0
  139.7563   72.4584  220.5605 H   0  0  0  0  0  0  0  0  0  0  0  0
  139.5160   73.8870  223.1070 H   0  0  0  0  0  0  0  0  0  0  0  0
  137.9949   72.3704  223.2686 H   0  0  0  0  0  0  0  0  0  0  0  0
  137.8764   71.5754  221.0563 H   0  0  0  0  0  0  0  0  0  0  0  0
  139.5216   70.8108  221.1593 H   0  0  0  0  0  0  0  0  0  0  0  0
  137.0219   69.8818  222.6597 H   0  0  0  0  0  0  0  0  0  0  0  0
  137.7465   69.1064  221.1914 H   0  0  0  0  0  0  0  0  0  0  0  0
  138.3549   67.9988  223.4102 H   0  0  0  0  0  0  0  0  0  0  0  0
  139.7479   68.5042  222.3927 H   0  0  0  0  0  0  0  0  0  0  0  0
  140.0370   72.5940  225.5150 H   0  0  0  0  0  0  0  0  0  0  0  0
  141.0579   71.4421  227.7835 H   0  0  0  0  0  0  0  0  0  0  0  0
  141.5213   69.2107  228.8621 H   0  0  0  0  0  0  0  0  0  0  0  0
  140.9586   67.0885  227.6572 H   0  0  0  0  0  0  0  0  0  0  0  0
  139.9290   67.1707  225.3562 H   0  0  0  0  0  0  0  0  0  0  0  0
  1  2  1  0
  2  3  1  0
  2  4  1  0
  2  5  1  0
  5  6  2  0
  6  7  1  0
  7  8  2  0
  8  9  1  0
  9 10  1  0
 10 11  1  0
 10 12  1  0
 10 13  1  0
  9 14  2  0
 14 15  1  0
 15 16  1  0
 16 17  1  0
 17 18  1  0
 18 19  1  0
 19 20  1  0
 20 21  1  0
 21 22  2  0
 22 23  1  0
 23 24  1  0
 24 25  2  0
 25 26  1  0
 26 27  2  0
 27 28  1  0
 28 29  2  0
 14  5  1  0
 22 17  1  0
 29 24  1  0
 29 21  1  0
  6 30  1  0
  7 31  1  0
  8 32  1  0
 15 33  1  0
 15 34  1  0
 16 35  1  0
 17 36  1  1
 18 37  1  0
 18 38  1  0
 19 39  1  0
 19 40  1  0
 20 41  1  0
 20 42  1  0
 23 43  1  0
 25 44  1  0
 26 45  1  0
 27 46  1  0
 28 47  1  0
M  END
>  <UniqueID>  (5) 
29

>  <SMILES>  (5) 
FC(F)(F)c1cccc(C(F)(F)F)c1CN[C@H]1CCCc2c1[nH]c1ccccc21

>  <Energy>  (5) 
93.11408168616087

>  <Genealogy>  (5) 
FC(F)(F)c1cccc(C(F)(F)F)c1CN[C@H]1CCCc2c1[nH]c1ccccc21 (chirality)
FC(F)(F)c1cccc(C(F)(F)F)c1CN[C@H]1CCCc2c1[nH]c1ccccc21 (3D coordinates assigned)
FC(F)(F)c1cccc(C(F)(F)F)c1CN[C@H]1CCCc2c1[nH]c1ccccc21 (nonaromatic ring conformer: 93.11408168616087 kcal/mol)

>  <smiles>  (5) 
FC(F)(F)c1cccc(C(F)(F)F)c1CNC1CCCc2c1[nH]c1ccccc21

>  <score_type>  (5) 
oracle

>  <origin>  (5) 
autodockgpu

>  <m_score__min__energy>  (5) 
-7.21

>  <m_primary>  (5) 
energy

>  <meeko>  (5) 
{"free_energy": -6.72, "intermolecular_energy": -8.21, "internal_energy": -1.19, "cluster_size": 17, "cluster_id": 1, "rank_in_cluster": 15}

>  <energy>  (5) 
-7.15

>  <cluster_rmsd>  (5) 
0.33

>  <rmsd>  (5) 
269.82

>  <cluster>  (5) 
1

$$$$
OEDLLKAXDUWBBK-SFHVURJKNA-N
     RDKit          3D

 47 50  0  0  0  0  0  0  0  0999 V2000
  144.3550   72.0250  220.7120 F   0  0  0  0  0  0  0  0  0  0  0  0
  142.9880   72.1510  220.5580 C   0  0  0  0  0  0  0  0  0  0  0  0
  142.3430   71.5510  221.6250 F   0  0  0  0  0  0  0  0  0  0  0  0
  142.6470   71.4630  219.4050 F   0  0  0  0  0  0  0  0  0  0  0  0
  142.5690   73.6100  220.4620 C   0  0  0  0  0  0  0  0  0  0  0  0
  143.4990   74.5150  219.9190 C   0  0  0  0  0  0  0  0  0  0  0  0
  143.2060   75.8670  219.8150 C   0  0  0  0  0  0  0  0  0  0  0  0
  141.9970   76.3590  220.2860 C   0  0  0  0  0  0  0  0  0  0  0  0
  141.0300   75.4980  220.8350 C   0  0  0  0  0  0  0  0  0  0  0  0
  139.7680   76.1140  221.4200 C   0  0  0  0  0  0  0  0  0  0  0  0
  139.8470   77.4960  221.4650 F   0  0  0  0  0  0  0  0  0  0  0  0
  138.6740   75.7720  220.6500 F   0  0  0  0  0  0  0  0  0  0  0  0
  139.5790   75.6720  222.7180 F   0  0  0  0  0  0  0  0  0  0  0  0
  141.2650   74.0860  220.8200 C   0  0  0  0  0  0  0  0  0  0  0  0
  140.1420   73.1110  221.1650 C   0  0  0  0  0  0  0  0  0  0  0  0
  140.0650   72.8680  222.6220 N   0  0  0  0  0  0  0  0  0  0  0  0
  139.0940   71.8390  223.0540 C   0  0  1  0  0  0  0  0  0  0  0  0
  138.6690   70.8950  221.8890 C   0  0  0  0  0  0  0  0  0  0  0  0
  137.9440   69.6310  222.3970 C   0  0  0  0  0  0  0  0  0  0  0  0
  138.8390   68.8060  223.3400 C   0  0  0  0  0  0  0  0  0  0  0  0
  139.4180   69.6990  224.3930 C   0  0  0  0  0  0  0  0  0  0  0  0
  139.5740   71.0670  224.2570 C   0  0  0  0  0  0  0  0  0  0  0  0
  140.0920   71.6080  225.3840 N   0  0  0  0  0  0  0  0  0  0  0  0
  140.3330   70.5660  226.2030 C   0  0  0  0  0  0  0  0  0  0  0  0
  140.9100   70.6060  227.4700 C   0  0  0  0  0  0  0  0  0  0  0  0
  141.0820   69.3870  228.1530 C   0  0  0  0  0  0  0  0  0  0  0  0
  140.6730   68.1710  227.5610 C   0  0  0  0  0  0  0  0  0  0  0  0
  140.0900   68.1590  226.2810 C   0  0  0  0  0  0  0  0  0  0  0  0
  139.9370   69.3810  225.6280 C   0  0  0  0  0  0  0  0  0  0  0  0
  144.4746   74.1446  219.5711 H   0  0  0  0  0  0  0  0  0  0  0  0
  143.9350   76.5518  219.3573 H   0  0  0  0  0  0  0  0  0  0  0  0
  141.7920   77.4382  220.2291 H   0  0  0  0  0  0  0  0  0  0  0  0
  139.1853   73.5314  220.8215 H   0  0  0  0  0  0  0  0  0  0  0  0
  140.3502   72.1533  220.6654 H   0  0  0  0  0  0  0  0  0  0  0  0
  139.8230   73.7680  223.1010 H   0  0  0  0  0  0  0  0  0  0  0  0
  138.1898   72.3826  223.3653 H   0  0  0  0  0  0  0  0  0  0  0  0
  137.9938   71.4443  221.2165 H   0  0  0  0  0  0  0  0  0  0  0  0
  139.5814   70.5732  221.3655 H   0  0  0  0  0  0  0  0  0  0  0  0
  137.0365   69.9337  222.9399 H   0  0  0  0  0  0  0  0  0  0  0  0
  137.6911   69.0061  221.5278 H   0  0  0  0  0  0  0  0  0  0  0  0
  138.2385   68.0180  223.8181 H   0  0  0  0  0  0  0  0  0  0  0  0
  139.6545   68.3479  222.7612 H   0  0  0  0  0  0  0  0  0  0  0  0
  140.2650   72.6180  225.5820 H   0  0  0  0  0  0  0  0  0  0  0  0
  141.2212   71.5592  227.9224 H   0  0  0  0  0  0  0  0  0  0  0  0
  141.5378   69.3812  229.1541 H   0  0  0  0  0  0  0  0  0  0  0  0
  140.8117   67.2255  228.1058 H   0  0  0  0  0  0  0  0  0  0  0  0
  139.7662   67.2183  225.8117 H   0  0  0  0  0  0  0  0  0  0  0  0
  1  2  1  0
  2  3  1  0
  2  4  1  0
  2  5  1  0
  5  6  2  0
  6  7  1  0
  7  8  2  0
  8  9  1  0
  9 10  1  0
 10 11  1  0
 10 12  1  0
 10 13  1  0
  9 14  2  0
 14 15  1  0
 15 16  1  0
 16 17  1  0
 17 18  1  0
 18 19  1  0
 19 20  1  0
 20 21  1  0
 21 22  2  0
 22 23  1  0
 23 24  1  0
 24 25  2  0
 25 26  1  0
 26 27  2  0
 27 28  1  0
 28 29  2  0
 14  5  1  0
 22 17  1  0
 29 24  1  0
 29 21  1  0
  6 30  1  0
  7 31  1  0
  8 32  1  0
 15 33  1  0
 15 34  1  0
 16 35  1  0
 17 36  1  1
 18 37  1  0
 18 38  1  0
 19 39  1  0
 19 40  1  0
 20 41  1  0
 20 42  1  0
 23 43  1  0
 25 44  1  0
 26 45  1  0
 27 46  1  0
 28 47  1  0
M  END
>  <UniqueID>  (6) 
29

>  <SMILES>  (6) 
FC(F)(F)c1cccc(C(F)(F)F)c1CN[C@H]1CCCc2c1[nH]c1ccccc21

>  <Energy>  (6) 
93.11408168616087

>  <Genealogy>  (6) 
FC(F)(F)c1cccc(C(F)(F)F)c1CN[C@H]1CCCc2c1[nH]c1ccccc21 (chirality)
FC(F)(F)c1cccc(C(F)(F)F)c1CN[C@H]1CCCc2c1[nH]c1ccccc21 (3D coordinates assigned)
FC(F)(F)c1cccc(C(F)(F)F)c1CN[C@H]1CCCc2c1[nH]c1ccccc21 (nonaromatic ring conformer: 93.11408168616087 kcal/mol)

>  <smiles>  (6) 
FC(F)(F)c1cccc(C(F)(F)F)c1CNC1CCCc2c1[nH]c1ccccc21

>  <score_type>  (6) 
oracle

>  <origin>  (6) 
autodockgpu

>  <m_score__min__energy>  (6) 
-7.21

>  <m_primary>  (6) 
energy

>  <meeko>  (6) 
{"free_energy": -7.13, "intermolecular_energy": -8.62, "internal_energy": -1.0, "cluster_size": 17, "cluster_id": 1, "rank_in_cluster": 6}

>  <energy>  (6) 
-7.13

>  <cluster_rmsd>  (6) 
0.41

>  <rmsd>  (6) 
269.78

>  <cluster>  (6) 
1

$$$$
OEDLLKAXDUWBBK-SFHVURJKNA-N
     RDKit          3D

 47 50  0  0  0  0  0  0  0  0999 V2000
  137.1500   76.8620  222.1610 F   0  0  0  0  0  0  0  0  0  0  0  0
  138.5000   77.1020  221.9930 C   0  0  0  0  0  0  0  0  0  0  0  0
  138.8000   77.1400  220.6430 F   0  0  0  0  0  0  0  0  0  0  0  0
  139.1730   76.0300  222.5560 F   0  0  0  0  0  0  0  0  0  0  0  0
  138.9200   78.4090  222.6480 C   0  0  0  0  0  0  0  0  0  0  0  0
  137.9080   79.2010  223.2180 C   0  0  0  0  0  0  0  0  0  0  0  0
  138.2020   80.4190  223.8160 C   0  0  0  0  0  0  0  0  0  0  0  0
  139.5040   80.8970  223.8240 C   0  0  0  0  0  0  0  0  0  0  0  0
  140.5550   80.1440  223.2700 C   0  0  0  0  0  0  0  0  0  0  0  0
  141.9420   80.7690  223.2260 C   0  0  0  0  0  0  0  0  0  0  0  0
  142.2950   81.1420  221.9410 F   0  0  0  0  0  0  0  0  0  0  0  0
  141.9790   81.8950  224.0250 F   0  0  0  0  0  0  0  0  0  0  0  0
  142.8890   79.8590  223.6640 F   0  0  0  0  0  0  0  0  0  0  0  0
  140.2850   78.8280  222.7770 C   0  0  0  0  0  0  0  0  0  0  0  0
  141.4320   77.8890  222.4100 C   0  0  0  0  0  0  0  0  0  0  0  0
  142.1780   78.3800  221.2310 N   0  0  0  0  0  0  0  0  0  0  0  0
  141.8840   77.6990  219.9520 C   0  0  1  0  0  0  0  0  0  0  0  0
  142.1470   78.6130  218.7160 C   0  0  0  0  0  0  0  0  0  0  0  0
  142.1780   77.8150  217.3960 C   0  0  0  0  0  0  0  0  0  0  0  0
  143.2860   76.7470  217.4070 C   0  0  0  0  0  0  0  0  0  0  0  0
  143.1900   75.9360  218.6620 C   0  0  0  0  0  0  0  0  0  0  0  0
  142.5930   76.3730  219.8310 C   0  0  0  0  0  0  0  0  0  0  0  0
  142.6290   75.4110  220.7820 N   0  0  0  0  0  0  0  0  0  0  0  0
  143.3190   74.3930  220.2340 C   0  0  0  0  0  0  0  0  0  0  0  0
  143.6650   73.1870  220.8380 C   0  0  0  0  0  0  0  0  0  0  0  0
  144.4050   72.2600  220.0810 C   0  0  0  0  0  0  0  0  0  0  0  0
  144.7760   72.5550  218.7500 C   0  0  0  0  0  0  0  0  0  0  0  0
  144.4130   73.7810  218.1630 C   0  0  0  0  0  0  0  0  0  0  0  0
  143.6830   74.6800  218.9390 C   0  0  0  0  0  0  0  0  0  0  0  0
  136.8659   78.8499  223.1898 H   0  0  0  0  0  0  0  0  0  0  0  0
  137.3994   81.0071  224.2851 H   0  0  0  0  0  0  0  0  0  0  0  0
  139.7178   81.8795  224.2702 H   0  0  0  0  0  0  0  0  0  0  0  0
  142.1213   77.8158  223.2641 H   0  0  0  0  0  0  0  0  0  0  0  0
  141.0072   76.9045  222.1644 H   0  0  0  0  0  0  0  0  0  0  0  0
  143.2040   78.2910  221.4210 H   0  0  0  0  0  0  0  0  0  0  0  0
  140.8054   77.4831  219.9619 H   0  0  0  0  0  0  0  0  0  0  0  0
  141.3473   79.3659  218.6559 H   0  0  0  0  0  0  0  0  0  0  0  0
  143.1321   79.0842  218.8485 H   0  0  0  0  0  0  0  0  0  0  0  0
  141.2059   77.3198  217.2551 H   0  0  0  0  0  0  0  0  0  0  0  0
  142.3837   78.5165  216.5740 H   0  0  0  0  0  0  0  0  0  0  0  0
  143.1671   76.0873  216.5349 H   0  0  0  0  0  0  0  0  0  0  0  0
  144.2685   77.2398  217.3649 H   0  0  0  0  0  0  0  0  0  0  0  0
  142.2100   75.4460  221.7360 H   0  0  0  0  0  0  0  0  0  0  0  0
  143.3692   72.9660  221.8742 H   0  0  0  0  0  0  0  0  0  0  0  0
  144.6968   71.2986  220.5288 H   0  0  0  0  0  0  0  0  0  0  0  0
  145.3529   71.8208  218.1685 H   0  0  0  0  0  0  0  0  0  0  0  0
  144.6954   74.0218  217.1275 H   0  0  0  0  0  0  0  0  0  0  0  0
  1  2  1  0
  2  3  1  0
  2  4  1  0
  2  5  1  0
  5  6  2  0
  6  7  1  0
  7  8  2  0
  8  9  1  0
  9 10  1  0
 10 11  1  0
 10 12  1  0
 10 13  1  0
  9 14  2  0
 14 15  1  0
 15 16  1  0
 16 17  1  0
 17 18  1  0
 18 19  1  0
 19 20  1  0
 20 21  1  0
 21 22  2  0
 22 23  1  0
 23 24  1  0
 24 25  2  0
 25 26  1  0
 26 27  2  0
 27 28  1  0
 28 29  2  0
 14  5  1  0
 22 17  1  0
 29 24  1  0
 29 21  1  0
  6 30  1  0
  7 31  1  0
  8 32  1  0
 15 33  1  0
 15 34  1  0
 16 35  1  0
 17 36  1  1
 18 37  1  0
 18 38  1  0
 19 39  1  0
 19 40  1  0
 20 41  1  0
 20 42  1  0
 23 43  1  0
 25 44  1  0
 26 45  1  0
 27 46  1  0
 28 47  1  0
M  END
>  <UniqueID>  (7) 
29

>  <SMILES>  (7) 
FC(F)(F)c1cccc(C(F)(F)F)c1CN[C@H]1CCCc2c1[nH]c1ccccc21

>  <Energy>  (7) 
93.11408168616087

>  <Genealogy>  (7) 
FC(F)(F)c1cccc(C(F)(F)F)c1CN[C@H]1CCCc2c1[nH]c1ccccc21 (chirality)
FC(F)(F)c1cccc(C(F)(F)F)c1CN[C@H]1CCCc2c1[nH]c1ccccc21 (3D coordinates assigned)
FC(F)(F)c1cccc(C(F)(F)F)c1CN[C@H]1CCCc2c1[nH]c1ccccc21 (nonaromatic ring conformer: 93.11408168616087 kcal/mol)

>  <smiles>  (7) 
FC(F)(F)c1cccc(C(F)(F)F)c1CNC1CCCc2c1[nH]c1ccccc21

>  <score_type>  (7) 
oracle

>  <origin>  (7) 
autodockgpu

>  <m_score__min__energy>  (7) 
-7.21

>  <m_primary>  (7) 
energy

>  <meeko>  (7) 
{"free_energy": -6.46, "intermolecular_energy": -7.95, "internal_energy": -1.16, "cluster_size": 3, "cluster_id": 2, "rank_in_cluster": 3}

>  <energy>  (7) 
-7.13

>  <cluster_rmsd>  (7) 
0.34

>  <rmsd>  (7) 
269.82

>  <cluster>  (7) 
1

$$$$
OEDLLKAXDUWBBK-SFHVURJKNA-N
     RDKit          3D

 47 50  0  0  0  0  0  0  0  0999 V2000
  137.0110   77.0610  222.1690 F   0  0  0  0  0  0  0  0  0  0  0  0
  138.3830   77.1680  222.0540 C   0  0  0  0  0  0  0  0  0  0  0  0
  138.7410   77.1410  220.7180 F   0  0  0  0  0  0  0  0  0  0  0  0
  138.9280   76.0540  222.6700 F   0  0  0  0  0  0  0  0  0  0  0  0
  138.8980   78.4480  222.6960 C   0  0  0  0  0  0  0  0  0  0  0  0
  137.9550   79.2820  223.3220 C   0  0  0  0  0  0  0  0  0  0  0  0
  138.3370   80.4780  223.9140 C   0  0  0  0  0  0  0  0  0  0  0  0
  139.6600   80.8930  223.8580 C   0  0  0  0  0  0  0  0  0  0  0  0
  140.6440   80.0970  223.2470 C   0  0  0  0  0  0  0  0  0  0  0  0
  142.0550   80.6560  223.1370 C   0  0  0  0  0  0  0  0  0  0  0  0
  143.0070   79.7150  223.4920 F   0  0  0  0  0  0  0  0  0  0  0  0
  142.3080   81.0530  221.8390 F   0  0  0  0  0  0  0  0  0  0  0  0
  142.2080   81.7350  223.9900 F   0  0  0  0  0  0  0  0  0  0  0  0
  140.2870   78.8000  222.7580 C   0  0  0  0  0  0  0  0  0  0  0  0
  141.3670   77.8110  222.3270 C   0  0  0  0  0  0  0  0  0  0  0  0
  142.1150   78.3060  221.1510 N   0  0  0  0  0  0  0  0  0  0  0  0
  141.8570   77.5980  219.8780 C   0  0  1  0  0  0  0  0  0  0  0  0
  142.1050   78.5040  218.6330 C   0  0  0  0  0  0  0  0  0  0  0  0
  142.1760   77.6900  217.3250 C   0  0  0  0  0  0  0  0  0  0  0  0
  143.3160   76.6570  217.3620 C   0  0  0  0  0  0  0  0  0  0  0  0
  143.2330   75.8600  218.6270 C   0  0  0  0  0  0  0  0  0  0  0  0
  142.6090   76.2940  219.7830 C   0  0  0  0  0  0  0  0  0  0  0  0
  142.6650   75.3470  220.7470 N   0  0  0  0  0  0  0  0  0  0  0  0
  143.3920   74.3440  220.2210 C   0  0  0  0  0  0  0  0  0  0  0  0
  143.7690   73.1570  220.8460 C   0  0  0  0  0  0  0  0  0  0  0  0
  144.5460   72.2440  220.1090 C   0  0  0  0  0  0  0  0  0  0  0  0
  144.9220   72.5330  218.7790 C   0  0  0  0  0  0  0  0  0  0  0  0
  144.5280   73.7390  218.1700 C   0  0  0  0  0  0  0  0  0  0  0  0
  143.7610   74.6240  218.9260 C   0  0  0  0  0  0  0  0  0  0  0  0
  136.8970   78.9818  223.3430 H   0  0  0  0  0  0  0  0  0  0  0  0
  137.5889   81.0986  224.4290 H   0  0  0  0  0  0  0  0  0  0  0  0
  139.9430   81.8603  224.2988 H   0  0  0  0  0  0  0  0  0  0  0  0
  142.0690   77.6621  223.1607 H   0  0  0  0  0  0  0  0  0  0  0  0
  140.8792   76.8639  222.0530 H   0  0  0  0  0  0  0  0  0  0  0  0
  143.1410   78.2470  221.3560 H   0  0  0  0  0  0  0  0  0  0  0  0
  140.7860   77.3470  219.8790 H   0  0  0  0  0  0  0  0  0  0  0  0
  141.2827   79.2304  218.5540 H   0  0  0  0  0  0  0  0  0  0  0  0
  143.0729   79.0084  218.7698 H   0  0  0  0  0  0  0  0  0  0  0  0
  141.2213   77.1631  217.1802 H   0  0  0  0  0  0  0  0  0  0  0  0
  142.3698   78.3868  216.4962 H   0  0  0  0  0  0  0  0  0  0  0  0
  143.2263   75.9822  216.4980 H   0  0  0  0  0  0  0  0  0  0  0  0
  144.2831   77.1797  217.3232 H   0  0  0  0  0  0  0  0  0  0  0  0
  142.2330   75.3810  221.6970 H   0  0  0  0  0  0  0  0  0  0  0  0
  143.4690   72.9406  221.8819 H   0  0  0  0  0  0  0  0  0  0  0  0
  144.8628   71.2981  220.5725 H   0  0  0  0  0  0  0  0  0  0  0  0
  145.5280   71.8094  218.2141 H   0  0  0  0  0  0  0  0  0  0  0  0
  144.8150   73.9748  217.1346 H   0  0  0  0  0  0  0  0  0  0  0  0
  1  2  1  0
  2  3  1  0
  2  4  1  0
  2  5  1  0
  5  6  2  0
  6  7  1  0
  7  8  2  0
  8  9  1  0
  9 10  1  0
 10 11  1  0
 10 12  1  0
 10 13  1  0
  9 14  2  0
 14 15  1  0
 15 16  1  0
 16 17  1  0
 17 18  1  0
 18 19  1  0
 19 20  1  0
 20 21  1  0
 21 22  2  0
 22 23  1  0
 23 24  1  0
 24 25  2  0
 25 26  1  0
 26 27  2  0
 27 28  1  0
 28 29  2  0
 14  5  1  0
 22 17  1  0
 29 24  1  0
 29 21  1  0
  6 30  1  0
  7 31  1  0
  8 32  1  0
 15 33  1  0
 15 34  1  0
 16 35  1  0
 17 36  1  1
 18 37  1  0
 18 38  1  0
 19 39  1  0
 19 40  1  0
 20 41  1  0
 20 42  1  0
 23 43  1  0
 25 44  1  0
 26 45  1  0
 27 46  1  0
 28 47  1  0
M  END
>  <UniqueID>  (8) 
29

>  <SMILES>  (8) 
FC(F)(F)c1cccc(C(F)(F)F)c1CN[C@H]1CCCc2c1[nH]c1ccccc21

>  <Energy>  (8) 
93.11408168616087

>  <Genealogy>  (8) 
FC(F)(F)c1cccc(C(F)(F)F)c1CN[C@H]1CCCc2c1[nH]c1ccccc21 (chirality)
FC(F)(F)c1cccc(C(F)(F)F)c1CN[C@H]1CCCc2c1[nH]c1ccccc21 (3D coordinates assigned)
FC(F)(F)c1cccc(C(F)(F)F)c1CN[C@H]1CCCc2c1[nH]c1ccccc21 (nonaromatic ring conformer: 93.11408168616087 kcal/mol)

>  <smiles>  (8) 
FC(F)(F)c1cccc(C(F)(F)F)c1CNC1CCCc2c1[nH]c1ccccc21

>  <score_type>  (8) 
oracle

>  <origin>  (8) 
autodockgpu

>  <m_score__min__energy>  (8) 
-7.21

>  <m_primary>  (8) 
energy

>  <meeko>  (8) 
{"free_energy": -6.52, "intermolecular_energy": -8.01, "internal_energy": -1.11, "cluster_size": 3, "cluster_id": 2, "rank_in_cluster": 1}

>  <energy>  (8) 
-7.04

>  <cluster_rmsd>  (8) 
1.68

>  <rmsd>  (8) 
269.8

>  <cluster>  (8) 
1

$$$$
OEDLLKAXDUWBBK-SFHVURJKNA-N
     RDKit          3D

 47 50  0  0  0  0  0  0  0  0999 V2000
  144.7060   72.5860  220.8780 F   0  0  0  0  0  0  0  0  0  0  0  0
  143.3560   72.4810  220.5990 C   0  0  0  0  0  0  0  0  0  0  0  0
  142.7400   71.7140  221.5710 F   0  0  0  0  0  0  0  0  0  0  0  0
  143.2450   71.8160  219.3890 F   0  0  0  0  0  0  0  0  0  0  0  0
  142.6930   73.8480  220.5280 C   0  0  0  0  0  0  0  0  0  0  0  0
  143.4480   74.9050  219.9890 C   0  0  0  0  0  0  0  0  0  0  0  0
  142.9260   76.1890  219.9070 C   0  0  0  0  0  0  0  0  0  0  0  0
  141.6580   76.4600  220.3990 C   0  0  0  0  0  0  0  0  0  0  0  0
  140.8590   75.4400  220.9460 C   0  0  0  0  0  0  0  0  0  0  0  0
  139.5180   75.8240  221.5530 C   0  0  0  0  0  0  0  0  0  0  0  0
  138.4940   75.0210  221.0800 F   0  0  0  0  0  0  0  0  0  0  0  0
  139.5650   75.6920  222.9270 F   0  0  0  0  0  0  0  0  0  0  0  0
  139.2020   77.1300  221.2230 F   0  0  0  0  0  0  0  0  0  0  0  0
  141.3320   74.0890  220.9070 C   0  0  0  0  0  0  0  0  0  0  0  0
  140.3960   72.9320  221.2510 C   0  0  0  0  0  0  0  0  0  0  0  0
  140.1750   72.8300  222.7090 N   0  0  0  0  0  0  0  0  0  0  0  0
  139.1850   71.8200  223.1420 C   0  0  1  0  0  0  0  0  0  0  0  0
  138.7610   70.8660  221.9840 C   0  0  0  0  0  0  0  0  0  0  0  0
  138.0110   69.6200  222.4990 C   0  0  0  0  0  0  0  0  0  0  0  0
  138.8820   68.7960  223.4640 C   0  0  0  0  0  0  0  0  0  0  0  0
  139.4600   69.6940  224.5130 C   0  0  0  0  0  0  0  0  0  0  0  0
  139.6380   71.0570  224.3610 C   0  0  0  0  0  0  0  0  0  0  0  0
  140.1490   71.6060  225.4880 N   0  0  0  0  0  0  0  0  0  0  0  0
  140.3640   70.5720  226.3230 C   0  0  0  0  0  0  0  0  0  0  0  0
  140.9250   70.6200  227.5970 C   0  0  0  0  0  0  0  0  0  0  0  0
  141.0700   69.4080  228.2980 C   0  0  0  0  0  0  0  0  0  0  0  0
  140.6520   68.1900  227.7180 C   0  0  0  0  0  0  0  0  0  0  0  0
  140.0860   68.1700  226.4290 C   0  0  0  0  0  0  0  0  0  0  0  0
  139.9590   69.3850  225.7590 C   0  0  0  0  0  0  0  0  0  0  0  0
  144.4684   74.7114  219.6266 H   0  0  0  0  0  0  0  0  0  0  0  0
  143.5203   76.9941  219.4502 H   0  0  0  0  0  0  0  0  0  0  0  0
  141.2711   77.4890  220.3608 H   0  0  0  0  0  0  0  0  0  0  0  0
  139.4286   73.0945  220.7532 H   0  0  0  0  0  0  0  0  0  0  0  0
  140.8613   71.9969  220.9059 H   0  0  0  0  0  0  0  0  0  0  0  0
  139.8690   73.7640  223.0700 H   0  0  0  0  0  0  0  0  0  0  0  0
  138.2852   72.3810  223.4347 H   0  0  0  0  0  0  0  0  0  0  0  0
  138.1028   71.4159  221.2953 H   0  0  0  0  0  0  0  0  0  0  0  0
  139.6753   70.5237  221.4772 H   0  0  0  0  0  0  0  0  0  0  0  0
  137.1011   69.9430  223.0260 H   0  0  0  0  0  0  0  0  0  0  0  0
  137.7595   68.9871  221.6352 H   0  0  0  0  0  0  0  0  0  0  0  0
  138.2645   68.0227  223.9443 H   0  0  0  0  0  0  0  0  0  0  0  0
  139.6986   68.3197  222.9016 H   0  0  0  0  0  0  0  0  0  0  0  0
  140.3340   72.6160  225.6740 H   0  0  0  0  0  0  0  0  0  0  0  0
  141.2445   71.5744  228.0410 H   0  0  0  0  0  0  0  0  0  0  0  0
  141.5123   69.4095  229.3052 H   0  0  0  0  0  0  0  0  0  0  0  0
  140.7695   67.2502  228.2774 H   0  0  0  0  0  0  0  0  0  0  0  0
  139.7556   67.2280  225.9670 H   0  0  0  0  0  0  0  0  0  0  0  0
  1  2  1  0
  2  3  1  0
  2  4  1  0
  2  5  1  0
  5  6  2  0
  6  7  1  0
  7  8  2  0
  8  9  1  0
  9 10  1  0
 10 11  1  0
 10 12  1  0
 10 13  1  0
  9 14  2  0
 14 15  1  0
 15 16  1  0
 16 17  1  0
 17 18  1  0
 18 19  1  0
 19 20  1  0
 20 21  1  0
 21 22  2  0
 22 23  1  0
 23 24  1  0
 24 25  2  0
 25 26  1  0
 26 27  2  0
 27 28  1  0
 28 29  2  0
 14  5  1  0
 22 17  1  0
 29 24  1  0
 29 21  1  0
  6 30  1  0
  7 31  1  0
  8 32  1  0
 15 33  1  0
 15 34  1  0
 16 35  1  0
 17 36  1  1
 18 37  1  0
 18 38  1  0
 19 39  1  0
 19 40  1  0
 20 41  1  0
 20 42  1  0
 23 43  1  0
 25 44  1  0
 26 45  1  0
 27 46  1  0
 28 47  1  0
M  END
>  <UniqueID>  (9) 
29

>  <SMILES>  (9) 
FC(F)(F)c1cccc(C(F)(F)F)c1CN[C@H]1CCCc2c1[nH]c1ccccc21

>  <Energy>  (9) 
93.11408168616087

>  <Genealogy>  (9) 
FC(F)(F)c1cccc(C(F)(F)F)c1CN[C@H]1CCCc2c1[nH]c1ccccc21 (chirality)
FC(F)(F)c1cccc(C(F)(F)F)c1CN[C@H]1CCCc2c1[nH]c1ccccc21 (3D coordinates assigned)
FC(F)(F)c1cccc(C(F)(F)F)c1CN[C@H]1CCCc2c1[nH]c1ccccc21 (nonaromatic ring conformer: 93.11408168616087 kcal/mol)

>  <smiles>  (9) 
FC(F)(F)c1cccc(C(F)(F)F)c1CNC1CCCc2c1[nH]c1ccccc21

>  <score_type>  (9) 
oracle

>  <origin>  (9) 
autodockgpu

>  <m_score__min__energy>  (9) 
-7.21

>  <m_primary>  (9) 
energy

>  <meeko>  (9) 
{"free_energy": -7.2, "intermolecular_energy": -8.7, "internal_energy": -0.93, "cluster_size": 17, "cluster_id": 1, "rank_in_cluster": 2}

>  <energy>  (9) 
-6.87

>  <cluster_rmsd>  (9) 
1.73

>  <rmsd>  (9) 
269.82

>  <cluster>  (9) 
1

$$$$
OEDLLKAXDUWBBK-SFHVURJKNA-N
     RDKit          3D

 47 50  0  0  0  0  0  0  0  0999 V2000
  143.3000   71.8690  219.3930 F   0  0  0  0  0  0  0  0  0  0  0  0
  143.4100   72.5520  220.5900 C   0  0  0  0  0  0  0  0  0  0  0  0
  144.7460   72.7330  220.8990 F   0  0  0  0  0  0  0  0  0  0  0  0
  142.8450   71.7490  221.5660 F   0  0  0  0  0  0  0  0  0  0  0  0
  142.7110   73.9010  220.5280 C   0  0  0  0  0  0  0  0  0  0  0  0
  143.4340   74.9800  219.9870 C   0  0  0  0  0  0  0  0  0  0  0  0
  142.8780   76.2500  219.9130 C   0  0  0  0  0  0  0  0  0  0  0  0
  141.6070   76.4860  220.4150 C   0  0  0  0  0  0  0  0  0  0  0  0
  140.8390   75.4440  220.9640 C   0  0  0  0  0  0  0  0  0  0  0  0
  139.4930   75.7910  221.5810 C   0  0  0  0  0  0  0  0  0  0  0  0
  139.1110   77.0880  221.2820 F   0  0  0  0  0  0  0  0  0  0  0  0
  138.5180   74.9360  221.1040 F   0  0  0  0  0  0  0  0  0  0  0  0
  139.5610   75.6920  222.9600 F   0  0  0  0  0  0  0  0  0  0  0  0
  141.3460   74.1060  220.9170 C   0  0  0  0  0  0  0  0  0  0  0  0
  140.4440   72.9240  221.2640 C   0  0  0  0  0  0  0  0  0  0  0  0
  140.2120   72.8290  222.7210 N   0  0  0  0  0  0  0  0  0  0  0  0
  139.2170   71.8220  223.1510 C   0  0  1  0  0  0  0  0  0  0  0  0
  138.7920   70.8710  221.9920 C   0  0  0  0  0  0  0  0  0  0  0  0
  138.0380   69.6270  222.5050 C   0  0  0  0  0  0  0  0  0  0  0  0
  138.9040   68.7990  223.4710 C   0  0  0  0  0  0  0  0  0  0  0  0
  139.4830   69.6940  224.5220 C   0  0  0  0  0  0  0  0  0  0  0  0
  139.6650   71.0570  224.3710 C   0  0  0  0  0  0  0  0  0  0  0  0
  140.1760   71.6040  225.4990 N   0  0  0  0  0  0  0  0  0  0  0  0
  140.3860   70.5690  226.3340 C   0  0  0  0  0  0  0  0  0  0  0  0
  140.9460   70.6140  227.6090 C   0  0  0  0  0  0  0  0  0  0  0  0
  141.0850   69.4020  228.3100 C   0  0  0  0  0  0  0  0  0  0  0  0
  140.6640   68.1850  227.7280 C   0  0  0  0  0  0  0  0  0  0  0  0
  140.1000   68.1670  226.4380 C   0  0  0  0  0  0  0  0  0  0  0  0
  139.9790   69.3840  225.7690 C   0  0  0  0  0  0  0  0  0  0  0  0
  144.4565   74.8146  219.6166 H   0  0  0  0  0  0  0  0  0  0  0  0
  143.4476   77.0718  219.4546 H   0  0  0  0  0  0  0  0  0  0  0  0
  141.1930   77.5046  220.3832 H   0  0  0  0  0  0  0  0  0  0  0  0
  139.4769   73.0511  220.7556 H   0  0  0  0  0  0  0  0  0  0  0  0
  140.9421   72.0008  220.9329 H   0  0  0  0  0  0  0  0  0  0  0  0
  139.9040   73.7660  223.0740 H   0  0  0  0  0  0  0  0  0  0  0  0
  138.3182   72.3855  223.4418 H   0  0  0  0  0  0  0  0  0  0  0  0
  138.1362   71.4235  221.3030 H   0  0  0  0  0  0  0  0  0  0  0  0
  139.7059   70.5267  221.4857 H   0  0  0  0  0  0  0  0  0  0  0  0
  137.1281   69.9524  223.0306 H   0  0  0  0  0  0  0  0  0  0  0  0
  137.7869   68.9955  221.6401 H   0  0  0  0  0  0  0  0  0  0  0  0
  138.2828   68.0274  223.9493 H   0  0  0  0  0  0  0  0  0  0  0  0
  139.7201   68.3203  222.9099 H   0  0  0  0  0  0  0  0  0  0  0  0
  140.3640   72.6130  225.6860 H   0  0  0  0  0  0  0  0  0  0  0  0
  141.2692   71.5669  228.0535 H   0  0  0  0  0  0  0  0  0  0  0  0
  141.5246   69.4018  229.3184 H   0  0  0  0  0  0  0  0  0  0  0  0
  140.7778   67.2445  228.2871 H   0  0  0  0  0  0  0  0  0  0  0  0
  139.7669   67.2265  225.9748 H   0  0  0  0  0  0  0  0  0  0  0  0
  1  2  1  0
  2  3  1  0
  2  4  1  0
  2  5  1  0
  5  6  2  0
  6  7  1  0
  7  8  2  0
  8  9  1  0
  9 10  1  0
 10 11  1  0
 10 12  1  0
 10 13  1  0
  9 14  2  0
 14 15  1  0
 15 16  1  0
 16 17  1  0
 17 18  1  0
 18 19  1  0
 19 20  1  0
 20 21  1  0
 21 22  2  0
 22 23  1  0
 23 24  1  0
 24 25  2  0
 25 26  1  0
 26 27  2  0
 27 28  1  0
 28 29  2  0
 14  5  1  0
 22 17  1  0
 29 24  1  0
 29 21  1  0
  6 30  1  0
  7 31  1  0
  8 32  1  0
 15 33  1  0
 15 34  1  0
 16 35  1  0
 17 36  1  1
 18 37  1  0
 18 38  1  0
 19 39  1  0
 19 40  1  0
 20 41  1  0
 20 42  1  0
 23 43  1  0
 25 44  1  0
 26 45  1  0
 27 46  1  0
 28 47  1  0
M  END
>  <UniqueID>  (10) 
29

>  <SMILES>  (10) 
FC(F)(F)c1cccc(C(F)(F)F)c1CN[C@H]1CCCc2c1[nH]c1ccccc21

>  <Energy>  (10) 
93.11408168616087

>  <Genealogy>  (10) 
FC(F)(F)c1cccc(C(F)(F)F)c1CN[C@H]1CCCc2c1[nH]c1ccccc21 (chirality)
FC(F)(F)c1cccc(C(F)(F)F)c1CN[C@H]1CCCc2c1[nH]c1ccccc21 (3D coordinates assigned)
FC(F)(F)c1cccc(C(F)(F)F)c1CN[C@H]1CCCc2c1[nH]c1ccccc21 (nonaromatic ring conformer: 93.11408168616087 kcal/mol)

>  <smiles>  (10) 
FC(F)(F)c1cccc(C(F)(F)F)c1CNC1CCCc2c1[nH]c1ccccc21

>  <score_type>  (10) 
oracle

>  <origin>  (10) 
autodockgpu

>  <m_score__min__energy>  (10) 
-7.21

>  <m_primary>  (10) 
energy

>  <meeko>  (10) 
{"free_energy": -7.21, "intermolecular_energy": -8.7, "internal_energy": -0.92, "cluster_size": 17, "cluster_id": 1, "rank_in_cluster": 1}

>  <energy>  (10) 
-6.87

>  <cluster_rmsd>  (10) 
1.29

>  <rmsd>  (10) 
269.6

>  <cluster>  (10) 
1

$$$$
OEDLLKAXDUWBBK-SFHVURJKNA-N
     RDKit          3D

 47 50  0  0  0  0  0  0  0  0999 V2000
  136.5370   75.9320  223.5360 F   0  0  0  0  0  0  0  0  0  0  0  0
  137.0870   75.2930  222.4410 C   0  0  0  0  0  0  0  0  0  0  0  0
  136.3170   75.5500  221.3200 F   0  0  0  0  0  0  0  0  0  0  0  0
  137.0340   73.9330  222.6990 F   0  0  0  0  0  0  0  0  0  0  0  0
  138.5180   75.7420  222.1930 C   0  0  0  0  0  0  0  0  0  0  0  0
  138.8510   77.0630  222.5420 C   0  0  0  0  0  0  0  0  0  0  0  0
  140.1300   77.5600  222.3300 C   0  0  0  0  0  0  0  0  0  0  0  0
  141.0950   76.7690  221.7250 C   0  0  0  0  0  0  0  0  0  0  0  0
  140.8170   75.4400  221.3590 C   0  0  0  0  0  0  0  0  0  0  0  0
  141.8900   74.6600  220.6140 C   0  0  0  0  0  0  0  0  0  0  0  0
  141.4580   74.2640  219.3590 F   0  0  0  0  0  0  0  0  0  0  0  0
  143.0180   75.4410  220.4520 F   0  0  0  0  0  0  0  0  0  0  0  0
  142.2180   73.5130  221.3150 F   0  0  0  0  0  0  0  0  0  0  0  0
  139.5470   74.8740  221.7000 C   0  0  0  0  0  0  0  0  0  0  0  0
  139.3040   73.3740  221.5520 C   0  0  0  0  0  0  0  0  0  0  0  0
  139.7870   72.6290  222.7350 N   0  0  0  0  0  0  0  0  0  0  0  0
  138.9010   71.5490  223.2230 C   0  0  1  0  0  0  0  0  0  0  0  0
  138.5130   70.5430  222.0970 C   0  0  0  0  0  0  0  0  0  0  0  0
  137.8900   69.2490  222.6610 C   0  0  0  0  0  0  0  0  0  0  0  0
  138.8640   68.5160  223.6020 C   0  0  0  0  0  0  0  0  0  0  0  0
  139.4060   69.4780  224.6130 C   0  0  0  0  0  0  0  0  0  0  0  0
  139.4640   70.8490  224.4340 C   0  0  0  0  0  0  0  0  0  0  0  0
  139.9710   71.4580  225.5300 N   0  0  0  0  0  0  0  0  0  0  0  0
  140.3040   70.4610  226.3720 C   0  0  0  0  0  0  0  0  0  0  0  0
  140.9100   70.5790  227.6210 C   0  0  0  0  0  0  0  0  0  0  0  0
  141.1820   69.3960  228.3330 C   0  0  0  0  0  0  0  0  0  0  0  0
  140.8440   68.1370  227.7890 C   0  0  0  0  0  0  0  0  0  0  0  0
  140.2320   68.0460  226.5250 C   0  0  0  0  0  0  0  0  0  0  0  0
  139.9780   69.2350  225.8420 C   0  0  0  0  0  0  0  0  0  0  0  0
  138.0855   77.7133  222.9904 H   0  0  0  0  0  0  0  0  0  0  0  0
  140.3787   78.5848  222.6430 H   0  0  0  0  0  0  0  0  0  0  0  0
  142.0931   77.1875  221.5284 H   0  0  0  0  0  0  0  0  0  0  0  0
  138.2249   73.1964  221.4334 H   0  0  0  0  0  0  0  0  0  0  0  0
  139.8576   73.0193  220.6701 H   0  0  0  0  0  0  0  0  0  0  0  0
  139.9410   73.3050  223.5190 H   0  0  0  0  0  0  0  0  0  0  0  0
  137.9693   72.0381  223.5436 H   0  0  0  0  0  0  0  0  0  0  0  0
  137.7848   71.0242  221.4275 H   0  0  0  0  0  0  0  0  0  0  0  0
  139.4318   70.2685  221.5581 H   0  0  0  0  0  0  0  0  0  0  0  0
  136.9782   69.5057  223.2202 H   0  0  0  0  0  0  0  0  0  0  0  0
  137.6580   68.5821  221.8175 H   0  0  0  0  0  0  0  0  0  0  0  0
  138.3321   67.7033  224.1184 H   0  0  0  0  0  0  0  0  0  0  0  0
  139.6944   68.0977  223.0142 H   0  0  0  0  0  0  0  0  0  0  0  0
  140.0790   72.4830  225.6940 H   0  0  0  0  0  0  0  0  0  0  0  0
  141.1673   71.5643  228.0368 H   0  0  0  0  0  0  0  0  0  0  0  0
  141.6618   69.4522  229.3213 H   0  0  0  0  0  0  0  0  0  0  0  0
  141.0608   67.2207  228.3577 H   0  0  0  0  0  0  0  0  0  0  0  0
  139.9635   67.0715  226.0911 H   0  0  0  0  0  0  0  0  0  0  0  0
  1  2  1  0
  2  3  1  0
  2  4  1  0
  2  5  1  0
  5  6  2  0
  6  7  1  0
  7  8  2  0
  8  9  1  0
  9 10  1  0
 10 11  1  0
 10 12  1  0
 10 13  1  0
  9 14  2  0
 14 15  1  0
 15 16  1  0
 16 17  1  0
 17 18  1  0
 18 19  1  0
 19 20  1  0
 20 21  1  0
 21 22  2  0
 22 23  1  0
 23 24  1  0
 24 25  2  0
 25 26  1  0
 26 27  2  0
 27 28  1  0
 28 29  2  0
 14  5  1  0
 22 17  1  0
 29 24  1  0
 29 21  1  0
  6 30  1  0
  7 31  1  0
  8 32  1  0
 15 33  1  0
 15 34  1  0
 16 35  1  0
 17 36  1  1
 18 37  1  0
 18 38  1  0
 19 39  1  0
 19 40  1  0
 20 41  1  0
 20 42  1  0
 23 43  1  0
 25 44  1  0
 26 45  1  0
 27 46  1  0
 28 47  1  0
M  END
>  <UniqueID>  (11) 
29

>  <SMILES>  (11) 
FC(F)(F)c1cccc(C(F)(F)F)c1CN[C@H]1CCCc2c1[nH]c1ccccc21

>  <Energy>  (11) 
93.11408168616087

>  <Genealogy>  (11) 
FC(F)(F)c1cccc(C(F)(F)F)c1CN[C@H]1CCCc2c1[nH]c1ccccc21 (chirality)
FC(F)(F)c1cccc(C(F)(F)F)c1CN[C@H]1CCCc2c1[nH]c1ccccc21 (3D coordinates assigned)
FC(F)(F)c1cccc(C(F)(F)F)c1CN[C@H]1CCCc2c1[nH]c1ccccc21 (nonaromatic ring conformer: 93.11408168616087 kcal/mol)

>  <smiles>  (11) 
FC(F)(F)c1cccc(C(F)(F)F)c1CNC1CCCc2c1[nH]c1ccccc21

>  <score_type>  (11) 
oracle

>  <origin>  (11) 
autodockgpu

>  <m_score__min__energy>  (11) 
-7.21

>  <m_primary>  (11) 
energy

>  <meeko>  (11) 
{"free_energy": -7.04, "intermolecular_energy": -8.53, "internal_energy": -0.86, "cluster_size": 17, "cluster_id": 1, "rank_in_cluster": 8}

>  <energy>  (11) 
-6.86

>  <cluster_rmsd>  (11) 
1.29

>  <rmsd>  (11) 
269.6

>  <cluster>  (11) 
1

$$$$
OEDLLKAXDUWBBK-SFHVURJKNA-N
     RDKit          3D

 47 50  0  0  0  0  0  0  0  0999 V2000
  142.6090   71.6350  221.5840 F   0  0  0  0  0  0  0  0  0  0  0  0
  143.2200   72.3680  220.5850 C   0  0  0  0  0  0  0  0  0  0  0  0
  143.0500   71.7300  219.3700 F   0  0  0  0  0  0  0  0  0  0  0  0
  144.5750   72.3930  220.8750 F   0  0  0  0  0  0  0  0  0  0  0  0
  142.6580   73.7790  220.5050 C   0  0  0  0  0  0  0  0  0  0  0  0
  143.4920   74.7780  219.9710 C   0  0  0  0  0  0  0  0  0  0  0  0
  143.0650   76.0960  219.8820 C   0  0  0  0  0  0  0  0  0  0  0  0
  141.8150   76.4590  220.3610 C   0  0  0  0  0  0  0  0  0  0  0  0
  140.9400   75.5010  220.9020 C   0  0  0  0  0  0  0  0  0  0  0  0
  139.6250   75.9820  221.4960 C   0  0  0  0  0  0  0  0  0  0  0  0
  138.5370   75.3900  220.8760 F   0  0  0  0  0  0  0  0  0  0  0  0
  139.5710   75.6740  222.8410 F   0  0  0  0  0  0  0  0  0  0  0  0
  139.4980   77.3500  221.3280 F   0  0  0  0  0  0  0  0  0  0  0  0
  141.3150   74.1190  220.8710 C   0  0  0  0  0  0  0  0  0  0  0  0
  140.2950   73.0340  221.2080 C   0  0  0  0  0  0  0  0  0  0  0  0
  140.1600   72.8540  222.6690 N   0  0  0  0  0  0  0  0  0  0  0  0
  139.1730   71.8420  223.1060 C   0  0  1  0  0  0  0  0  0  0  0  0
  138.7510   70.8840  221.9510 C   0  0  0  0  0  0  0  0  0  0  0  0
  138.0060   69.6360  222.4700 C   0  0  0  0  0  0  0  0  0  0  0  0
  138.8810   68.8170  223.4350 C   0  0  0  0  0  0  0  0  0  0  0  0
  139.4580   69.7190  224.4810 C   0  0  0  0  0  0  0  0  0  0  0  0
  139.6310   71.0830  224.3260 C   0  0  0  0  0  0  0  0  0  0  0  0
  140.1410   71.6360  225.4510 N   0  0  0  0  0  0  0  0  0  0  0  0
  140.3610   70.6050  226.2880 C   0  0  0  0  0  0  0  0  0  0  0  0
  140.9250   70.6570  227.5610 C   0  0  0  0  0  0  0  0  0  0  0  0
  141.0750   69.4480  228.2650 C   0  0  0  0  0  0  0  0  0  0  0  0
  140.6600   68.2270  227.6870 C   0  0  0  0  0  0  0  0  0  0  0  0
  140.0920   68.2020  226.4000 C   0  0  0  0  0  0  0  0  0  0  0  0
  139.9600   69.4150  225.7270 C   0  0  0  0  0  0  0  0  0  0  0  0
  144.4990   74.5105  219.6181 H   0  0  0  0  0  0  0  0  0  0  0  0
  143.7204   76.8551  219.4300 H   0  0  0  0  0  0  0  0  0  0  0  0
  141.5035   77.5130  220.3168 H   0  0  0  0  0  0  0  0  0  0  0  0
  139.3180   73.3197  220.7910 H   0  0  0  0  0  0  0  0  0  0  0  0
  140.6432   72.0853  220.7736 H   0  0  0  0  0  0  0  0  0  0  0  0
  139.8980   73.7730  223.0990 H   0  0  0  0  0  0  0  0  0  0  0  0
  138.2717   72.4006  223.3987 H   0  0  0  0  0  0  0  0  0  0  0  0
  138.0899   71.4299  221.2619 H   0  0  0  0  0  0  0  0  0  0  0  0
  139.6659   70.5439  221.4437 H   0  0  0  0  0  0  0  0  0  0  0  0
  137.0958   69.9569  222.9979 H   0  0  0  0  0  0  0  0  0  0  0  0
  137.7554   69.0005  221.6078 H   0  0  0  0  0  0  0  0  0  0  0  0
  138.2668   68.0428  223.9180 H   0  0  0  0  0  0  0  0  0  0  0  0
  139.6981   68.3421  222.8722 H   0  0  0  0  0  0  0  0  0  0  0  0
  140.3230   72.6470  225.6350 H   0  0  0  0  0  0  0  0  0  0  0  0
  141.2431   71.6133  228.0019 H   0  0  0  0  0  0  0  0  0  0  0  0
  141.5181   69.4533  229.2718 H   0  0  0  0  0  0  0  0  0  0  0  0
  140.7820   67.2886  228.2478 H   0  0  0  0  0  0  0  0  0  0  0  0
  139.7636   67.2578  225.9411 H   0  0  0  0  0  0  0  0  0  0  0  0
  1  2  1  0
  2  3  1  0
  2  4  1  0
  2  5  1  0
  5  6  2  0
  6  7  1  0
  7  8  2  0
  8  9  1  0
  9 10  1  0
 10 11  1  0
 10 12  1  0
 10 13  1  0
  9 14  2  0
 14 15  1  0
 15 16  1  0
 16 17  1  0
 17 18  1  0
 18 19  1  0
 19 20  1  0
 20 21  1  0
 21 22  2  0
 22 23  1  0
 23 24  1  0
 24 25  2  0
 25 26  1  0
 26 27  2  0
 27 28  1  0
 28 29  2  0
 14  5  1  0
 22 17  1  0
 29 24  1  0
 29 21  1  0
  6 30  1  0
  7 31  1  0
  8 32  1  0
 15 33  1  0
 15 34  1  0
 16 35  1  0
 17 36  1  1
 18 37  1  0
 18 38  1  0
 19 39  1  0
 19 40  1  0
 20 41  1  0
 20 42  1  0
 23 43  1  0
 25 44  1  0
 26 45  1  0
 27 46  1  0
 28 47  1  0
M  END
>  <UniqueID>  (12) 
29

>  <SMILES>  (12) 
FC(F)(F)c1cccc(C(F)(F)F)c1CN[C@H]1CCCc2c1[nH]c1ccccc21

>  <Energy>  (12) 
93.11408168616087

>  <Genealogy>  (12) 
FC(F)(F)c1cccc(C(F)(F)F)c1CN[C@H]1CCCc2c1[nH]c1ccccc21 (chirality)
FC(F)(F)c1cccc(C(F)(F)F)c1CN[C@H]1CCCc2c1[nH]c1ccccc21 (3D coordinates assigned)
FC(F)(F)c1cccc(C(F)(F)F)c1CN[C@H]1CCCc2c1[nH]c1ccccc21 (nonaromatic ring conformer: 93.11408168616087 kcal/mol)

>  <smiles>  (12) 
FC(F)(F)c1cccc(C(F)(F)F)c1CNC1CCCc2c1[nH]c1ccccc21

>  <score_type>  (12) 
oracle

>  <origin>  (12) 
autodockgpu

>  <m_score__min__energy>  (12) 
-7.21

>  <m_primary>  (12) 
energy

>  <meeko>  (12) 
{"free_energy": -7.19, "intermolecular_energy": -8.68, "internal_energy": -0.98, "cluster_size": 17, "cluster_id": 1, "rank_in_cluster": 3}

>  <energy>  (12) 
-6.86

>  <cluster_rmsd>  (12) 
1.3

>  <rmsd>  (12) 
269.64

>  <cluster>  (12) 
1

$$$$
OEDLLKAXDUWBBK-SFHVURJKNA-N
     RDKit          3D

 47 50  0  0  0  0  0  0  0  0999 V2000
  137.2420   72.7020  222.5930 F   0  0  0  0  0  0  0  0  0  0  0  0
  137.3270   73.6890  221.6300 C   0  0  0  0  0  0  0  0  0  0  0  0
  136.3290   74.6250  221.8360 F   0  0  0  0  0  0  0  0  0  0  0  0
  137.1020   73.0800  220.4060 F   0  0  0  0  0  0  0  0  0  0  0  0
  138.6840   74.3750  221.6520 C   0  0  0  0  0  0  0  0  0  0  0  0
  138.7740   75.6090  222.3210 C   0  0  0  0  0  0  0  0  0  0  0  0
  139.9700   76.3120  222.3710 C   0  0  0  0  0  0  0  0  0  0  0  0
  141.0940   75.8250  221.7190 C   0  0  0  0  0  0  0  0  0  0  0  0
  141.0600   74.5960  221.0360 C   0  0  0  0  0  0  0  0  0  0  0  0
  142.2980   74.1680  220.2630 C   0  0  0  0  0  0  0  0  0  0  0  0
  142.8880   73.0460  220.8210 F   0  0  0  0  0  0  0  0  0  0  0  0
  141.9630   73.8710  218.9570 F   0  0  0  0  0  0  0  0  0  0  0  0
  143.2440   75.1790  220.2810 F   0  0  0  0  0  0  0  0  0  0  0  0
  139.8730   73.7980  221.0970 C   0  0  0  0  0  0  0  0  0  0  0  0
  139.8840   72.3560  220.5930 C   0  0  0  0  0  0  0  0  0  0  0  0
  140.4160   71.4300  221.6150 N   0  0  0  0  0  0  0  0  0  0  0  0
  139.4120   70.8030  222.5030 C   0  0  1  0  0  0  0  0  0  0  0  0
  139.0140   69.3710  222.0340 C   0  0  0  0  0  0  0  0  0  0  0  0
  138.2480   68.5920  223.1230 C   0  0  0  0  0  0  0  0  0  0  0  0
  139.0940   68.4270  224.3990 C   0  0  0  0  0  0  0  0  0  0  0  0
  139.6500   69.7550  224.8100 C   0  0  0  0  0  0  0  0  0  0  0  0
  139.8340   70.8230  223.9510 C   0  0  0  0  0  0  0  0  0  0  0  0
  140.3200   71.8980  224.6140 N   0  0  0  0  0  0  0  0  0  0  0  0
  140.5120   71.4800  225.8790 C   0  0  0  0  0  0  0  0  0  0  0  0
  141.0440   72.2140  226.9370 C   0  0  0  0  0  0  0  0  0  0  0  0
  141.1690   71.5730  228.1840 C   0  0  0  0  0  0  0  0  0  0  0  0
  140.7610   70.2300  228.3440 C   0  0  0  0  0  0  0  0  0  0  0  0
  140.2260   69.5120  227.2590 C   0  0  0  0  0  0  0  0  0  0  0  0
  140.1180   70.1720  226.0360 C   0  0  0  0  0  0  0  0  0  0  0  0
  137.8818   76.0239  222.8128 H   0  0  0  0  0  0  0  0  0  0  0  0
  140.0269   77.2581  222.9292 H   0  0  0  0  0  0  0  0  0  0  0  0
  142.0259   76.4092  221.7366 H   0  0  0  0  0  0  0  0  0  0  0  0
  138.8558   72.0575  220.3406 H   0  0  0  0  0  0  0  0  0  0  0  0
  140.5348   72.3043  219.7077 H   0  0  0  0  0  0  0  0  0  0  0  0
  141.1040   71.9470  222.2120 H   0  0  0  0  0  0  0  0  0  0  0  0
  138.5069   71.4235  222.4271 H   0  0  0  0  0  0  0  0  0  0  0  0
  138.3746   69.4552  221.1429 H   0  0  0  0  0  0  0  0  0  0  0  0
  139.9395   68.8192  221.8125 H   0  0  0  0  0  0  0  0  0  0  0  0
  137.3270   69.1391  223.3729 H   0  0  0  0  0  0  0  0  0  0  0  0
  138.0146   67.5908  222.7317 H   0  0  0  0  0  0  0  0  0  0  0  0
  138.4631   68.0286  225.2072 H   0  0  0  0  0  0  0  0  0  0  0  0
  139.9220   67.7308  224.2000 H   0  0  0  0  0  0  0  0  0  0  0  0
  140.5030   72.8510  224.2300 H   0  0  0  0  0  0  0  0  0  0  0  0
  141.3561   73.2601  226.8023 H   0  0  0  0  0  0  0  0  0  0  0  0
  141.5876   72.1220  229.0404 H   0  0  0  0  0  0  0  0  0  0  0  0
  140.8624   69.7419  229.3246 H   0  0  0  0  0  0  0  0  0  0  0  0
  139.9041   68.4662  227.3718 H   0  0  0  0  0  0  0  0  0  0  0  0
  1  2  1  0
  2  3  1  0
  2  4  1  0
  2  5  1  0
  5  6  2  0
  6  7  1  0
  7  8  2  0
  8  9  1  0
  9 10  1  0
 10 11  1  0
 10 12  1  0
 10 13  1  0
  9 14  2  0
 14 15  1  0
 15 16  1  0
 16 17  1  0
 17 18  1  0
 18 19  1  0
 19 20  1  0
 20 21  1  0
 21 22  2  0
 22 23  1  0
 23 24  1  0
 24 25  2  0
 25 26  1  0
 26 27  2  0
 27 28  1  0
 28 29  2  0
 14  5  1  0
 22 17  1  0
 29 24  1  0
 29 21  1  0
  6 30  1  0
  7 31  1  0
  8 32  1  0
 15 33  1  0
 15 34  1  0
 16 35  1  0
 17 36  1  1
 18 37  1  0
 18 38  1  0
 19 39  1  0
 19 40  1  0
 20 41  1  0
 20 42  1  0
 23 43  1  0
 25 44  1  0
 26 45  1  0
 27 46  1  0
 28 47  1  0
M  END
>  <UniqueID>  (13) 
29

>  <SMILES>  (13) 
FC(F)(F)c1cccc(C(F)(F)F)c1CN[C@H]1CCCc2c1[nH]c1ccccc21

>  <Energy>  (13) 
93.11408168616087

>  <Genealogy>  (13) 
FC(F)(F)c1cccc(C(F)(F)F)c1CN[C@H]1CCCc2c1[nH]c1ccccc21 (chirality)
FC(F)(F)c1cccc(C(F)(F)F)c1CN[C@H]1CCCc2c1[nH]c1ccccc21 (3D coordinates assigned)
FC(F)(F)c1cccc(C(F)(F)F)c1CN[C@H]1CCCc2c1[nH]c1ccccc21 (nonaromatic ring conformer: 93.11408168616087 kcal/mol)

>  <smiles>  (13) 
FC(F)(F)c1cccc(C(F)(F)F)c1CNC1CCCc2c1[nH]c1ccccc21

>  <score_type>  (13) 
oracle

>  <origin>  (13) 
autodockgpu

>  <m_score__min__energy>  (13) 
-7.21

>  <m_primary>  (13) 
energy

>  <meeko>  (13) 
{"free_energy": -6.4, "intermolecular_energy": -7.89, "internal_energy": -1.38, "cluster_size": 17, "cluster_id": 1, "rank_in_cluster": 16}

>  <energy>  (13) 
-6.84

>  <cluster_rmsd>  (13) 
1.32

>  <rmsd>  (13) 
269.63

>  <cluster>  (13) 
1

$$$$
OEDLLKAXDUWBBK-SFHVURJKNA-N
     RDKit          3D

 47 50  0  0  0  0  0  0  0  0999 V2000
  144.4590   72.1330  220.7230 F   0  0  0  0  0  0  0  0  0  0  0  0
  143.0880   72.2080  220.5660 C   0  0  0  0  0  0  0  0  0  0  0  0
  142.4640   71.5810  221.6290 F   0  0  0  0  0  0  0  0  0  0  0  0
  142.7760   71.5120  219.4090 F   0  0  0  0  0  0  0  0  0  0  0  0
  142.6150   73.6510  220.4730 C   0  0  0  0  0  0  0  0  0  0  0  0
  143.5080   74.5900  219.9280 C   0  0  0  0  0  0  0  0  0  0  0  0
  143.1640   75.9310  219.8270 C   0  0  0  0  0  0  0  0  0  0  0  0
  141.9400   76.3760  220.3040 C   0  0  0  0  0  0  0  0  0  0  0  0
  141.0080   75.4790  220.8550 C   0  0  0  0  0  0  0  0  0  0  0  0
  139.7260   76.0470  221.4450 C   0  0  0  0  0  0  0  0  0  0  0  0
  139.5370   75.6330  222.7530 F   0  0  0  0  0  0  0  0  0  0  0  0
  139.7710   77.4270  221.4360 F   0  0  0  0  0  0  0  0  0  0  0  0
  138.6320   75.6140  220.7150 F   0  0  0  0  0  0  0  0  0  0  0  0
  141.2950   74.0770  220.8360 C   0  0  0  0  0  0  0  0  0  0  0  0
  140.2100   73.0600  221.1850 C   0  0  0  0  0  0  0  0  0  0  0  0
  140.1190   72.8450  222.6440 N   0  0  0  0  0  0  0  0  0  0  0  0
  139.1450   71.8240  223.0860 C   0  0  1  0  0  0  0  0  0  0  0  0
  138.7200   70.8670  221.9310 C   0  0  0  0  0  0  0  0  0  0  0  0
  137.9910   69.6110  222.4530 C   0  0  0  0  0  0  0  0  0  0  0  0
  138.8810   68.7950  223.4070 C   0  0  0  0  0  0  0  0  0  0  0  0
  139.4600   69.6990  224.4510 C   0  0  0  0  0  0  0  0  0  0  0  0
  139.6200   71.0650  224.3000 C   0  0  0  0  0  0  0  0  0  0  0  0
  140.1360   71.6180  225.4220 N   0  0  0  0  0  0  0  0  0  0  0  0
  140.3720   70.5850  226.2530 C   0  0  0  0  0  0  0  0  0  0  0  0
  140.9470   70.6380  227.5210 C   0  0  0  0  0  0  0  0  0  0  0  0
  141.1130   69.4270  228.2190 C   0  0  0  0  0  0  0  0  0  0  0  0
  140.7030   68.2050  227.6410 C   0  0  0  0  0  0  0  0  0  0  0  0
  140.1240   68.1800  226.3590 C   0  0  0  0  0  0  0  0  0  0  0  0
  139.9760   69.3940  225.6920 C   0  0  0  0  0  0  0  0  0  0  0  0
  144.4954   74.2567  219.5759 H   0  0  0  0  0  0  0  0  0  0  0  0
  143.8647   76.6433  219.3670 H   0  0  0  0  0  0  0  0  0  0  0  0
  141.6947   77.4470  220.2504 H   0  0  0  0  0  0  0  0  0  0  0  0
  139.2416   73.4299  220.8170 H   0  0  0  0  0  0  0  0  0  0  0  0
  140.4691   72.1021  220.7103 H   0  0  0  0  0  0  0  0  0  0  0  0
  139.8720   73.7540  223.1040 H   0  0  0  0  0  0  0  0  0  0  0  0
  138.2416   72.3737  223.3888 H   0  0  0  0  0  0  0  0  0  0  0  0
  138.0474   71.4098  221.2506 H   0  0  0  0  0  0  0  0  0  0  0  0
  139.6325   70.5369  221.4129 H   0  0  0  0  0  0  0  0  0  0  0  0
  137.0833   69.9226  222.9905 H   0  0  0  0  0  0  0  0  0  0  0  0
  137.7385   68.9764  221.5907 H   0  0  0  0  0  0  0  0  0  0  0  0
  138.2773   68.0143  223.8928 H   0  0  0  0  0  0  0  0  0  0  0  0
  139.6965   68.3278  222.8355 H   0  0  0  0  0  0  0  0  0  0  0  0
  140.3110   72.6290  225.6080 H   0  0  0  0  0  0  0  0  0  0  0  0
  141.2611   71.5954  227.9624 H   0  0  0  0  0  0  0  0  0  0  0  0
  141.5652   69.4322  229.2217 H   0  0  0  0  0  0  0  0  0  0  0  0
  140.8375   67.2658  228.1975 H   0  0  0  0  0  0  0  0  0  0  0  0
  139.7995   67.2348  225.8994 H   0  0  0  0  0  0  0  0  0  0  0  0
  1  2  1  0
  2  3  1  0
  2  4  1  0
  2  5  1  0
  5  6  2  0
  6  7  1  0
  7  8  2  0
  8  9  1  0
  9 10  1  0
 10 11  1  0
 10 12  1  0
 10 13  1  0
  9 14  2  0
 14 15  1  0
 15 16  1  0
 16 17  1  0
 17 18  1  0
 18 19  1  0
 19 20  1  0
 20 21  1  0
 21 22  2  0
 22 23  1  0
 23 24  1  0
 24 25  2  0
 25 26  1  0
 26 27  2  0
 27 28  1  0
 28 29  2  0
 14  5  1  0
 22 17  1  0
 29 24  1  0
 29 21  1  0
  6 30  1  0
  7 31  1  0
  8 32  1  0
 15 33  1  0
 15 34  1  0
 16 35  1  0
 17 36  1  1
 18 37  1  0
 18 38  1  0
 19 39  1  0
 19 40  1  0
 20 41  1  0
 20 42  1  0
 23 43  1  0
 25 44  1  0
 26 45  1  0
 27 46  1  0
 28 47  1  0
M  END
>  <UniqueID>  (14) 
29

>  <SMILES>  (14) 
FC(F)(F)c1cccc(C(F)(F)F)c1CN[C@H]1CCCc2c1[nH]c1ccccc21

>  <Energy>  (14) 
93.11408168616087

>  <Genealogy>  (14) 
FC(F)(F)c1cccc(C(F)(F)F)c1CN[C@H]1CCCc2c1[nH]c1ccccc21 (chirality)
FC(F)(F)c1cccc(C(F)(F)F)c1CN[C@H]1CCCc2c1[nH]c1ccccc21 (3D coordinates assigned)
FC(F)(F)c1cccc(C(F)(F)F)c1CN[C@H]1CCCc2c1[nH]c1ccccc21 (nonaromatic ring conformer: 93.11408168616087 kcal/mol)

>  <smiles>  (14) 
FC(F)(F)c1cccc(C(F)(F)F)c1CNC1CCCc2c1[nH]c1ccccc21

>  <score_type>  (14) 
oracle

>  <origin>  (14) 
autodockgpu

>  <m_score__min__energy>  (14) 
-7.21

>  <m_primary>  (14) 
energy

>  <meeko>  (14) 
{"free_energy": -7.15, "intermolecular_energy": -8.65, "internal_energy": -0.99, "cluster_size": 17, "cluster_id": 1, "rank_in_cluster": 5}

>  <energy>  (14) 
-6.79

>  <cluster_rmsd>  (14) 
1.34

>  <rmsd>  (14) 
269.55

>  <cluster>  (14) 
1

$$$$
OEDLLKAXDUWBBK-SFHVURJKNA-N
     RDKit          3D

 47 50  0  0  0  0  0  0  0  0999 V2000
  137.0670   76.9660  222.2440 F   0  0  0  0  0  0  0  0  0  0  0  0
  138.4310   77.1240  222.0830 C   0  0  0  0  0  0  0  0  0  0  0  0
  138.7430   77.1110  220.7360 F   0  0  0  0  0  0  0  0  0  0  0  0
  139.0360   76.0290  222.6790 F   0  0  0  0  0  0  0  0  0  0  0  0
  138.9200   78.4200  222.7100 C   0  0  0  0  0  0  0  0  0  0  0  0
  137.9600   79.2470  223.3190 C   0  0  0  0  0  0  0  0  0  0  0  0
  138.3180   80.4570  223.8960 C   0  0  0  0  0  0  0  0  0  0  0  0
  139.6330   80.8940  223.8430 C   0  0  0  0  0  0  0  0  0  0  0  0
  140.6350   80.1060  223.2480 C   0  0  0  0  0  0  0  0  0  0  0  0
  142.0370   80.6870  223.1390 C   0  0  0  0  0  0  0  0  0  0  0  0
  142.3580   81.0070  221.8300 F   0  0  0  0  0  0  0  0  0  0  0  0
  142.1330   81.8370  223.8970 F   0  0  0  0  0  0  0  0  0  0  0  0
  142.9710   79.7640  223.5760 F   0  0  0  0  0  0  0  0  0  0  0  0
  140.3020   78.7960  222.7750 C   0  0  0  0  0  0  0  0  0  0  0  0
  141.4020   77.8200  222.3640 C   0  0  0  0  0  0  0  0  0  0  0  0
  142.1530   78.3150  221.1910 N   0  0  0  0  0  0  0  0  0  0  0  0
  141.8830   77.6210  219.9120 C   0  0  1  0  0  0  0  0  0  0  0  0
  142.1260   78.5380  218.6750 C   0  0  0  0  0  0  0  0  0  0  0  0
  142.1850   77.7360  217.3580 C   0  0  0  0  0  0  0  0  0  0  0  0
  143.3210   76.6980  217.3780 C   0  0  0  0  0  0  0  0  0  0  0  0
  143.2420   75.8890  218.6350 C   0  0  0  0  0  0  0  0  0  0  0  0
  142.6280   76.3150  219.8000 C   0  0  0  0  0  0  0  0  0  0  0  0
  142.6870   75.3580  220.7540 N   0  0  0  0  0  0  0  0  0  0  0  0
  143.4060   74.3570  220.2130 C   0  0  0  0  0  0  0  0  0  0  0  0
  143.7810   73.1620  220.8230 C   0  0  0  0  0  0  0  0  0  0  0  0
  144.5490   72.2530  220.0730 C   0  0  0  0  0  0  0  0  0  0  0  0
  144.9180   72.5530  218.7420 C   0  0  0  0  0  0  0  0  0  0  0  0
  144.5250   73.7670  218.1490 C   0  0  0  0  0  0  0  0  0  0  0  0
  143.7680   74.6480  218.9190 C   0  0  0  0  0  0  0  0  0  0  0  0
  136.9070   78.9294  223.3384 H   0  0  0  0  0  0  0  0  0  0  0  0
  137.5560   81.0718  224.3973 H   0  0  0  0  0  0  0  0  0  0  0  0
  139.8966   81.8717  224.2728 H   0  0  0  0  0  0  0  0  0  0  0  0
  142.0981   77.6905  223.2058 H   0  0  0  0  0  0  0  0  0  0  0  0
  140.9319   76.8627  222.0947 H   0  0  0  0  0  0  0  0  0  0  0  0
  143.1790   78.2420  221.3930 H   0  0  0  0  0  0  0  0  0  0  0  0
  140.8109   77.3751  219.9167 H   0  0  0  0  0  0  0  0  0  0  0  0
  141.3060   79.2682  218.6087 H   0  0  0  0  0  0  0  0  0  0  0  0
  143.0967   79.0375  218.8102 H   0  0  0  0  0  0  0  0  0  0  0  0
  141.2272   77.2145  217.2143 H   0  0  0  0  0  0  0  0  0  0  0  0
  142.3761   78.4398  216.5345 H   0  0  0  0  0  0  0  0  0  0  0  0
  143.2236   76.0322  216.5078 H   0  0  0  0  0  0  0  0  0  0  0  0
  144.2900   77.2171  217.3388 H   0  0  0  0  0  0  0  0  0  0  0  0
  142.2620   75.3850  221.7070 H   0  0  0  0  0  0  0  0  0  0  0  0
  143.4859   72.9364  221.8584 H   0  0  0  0  0  0  0  0  0  0  0  0
  144.8648   71.3015  220.5258 H   0  0  0  0  0  0  0  0  0  0  0  0
  145.5167   71.8323  218.1656 H   0  0  0  0  0  0  0  0  0  0  0  0
  144.8054   74.0120  217.1140 H   0  0  0  0  0  0  0  0  0  0  0  0
  1  2  1  0
  2  3  1  0
  2  4  1  0
  2  5  1  0
  5  6  2  0
  6  7  1  0
  7  8  2  0
  8  9  1  0
  9 10  1  0
 10 11  1  0
 10 12  1  0
 10 13  1  0
  9 14  2  0
 14 15  1  0
 15 16  1  0
 16 17  1  0
 17 18  1  0
 18 19  1  0
 19 20  1  0
 20 21  1  0
 21 22  2  0
 22 23  1  0
 23 24  1  0
 24 25  2  0
 25 26  1  0
 26 27  2  0
 27 28  1  0
 28 29  2  0
 14  5  1  0
 22 17  1  0
 29 24  1  0
 29 21  1  0
  6 30  1  0
  7 31  1  0
  8 32  1  0
 15 33  1  0
 15 34  1  0
 16 35  1  0
 17 36  1  1
 18 37  1  0
 18 38  1  0
 19 39  1  0
 19 40  1  0
 20 41  1  0
 20 42  1  0
 23 43  1  0
 25 44  1  0
 26 45  1  0
 27 46  1  0
 28 47  1  0
M  END
>  <UniqueID>  (15) 
29

>  <SMILES>  (15) 
FC(F)(F)c1cccc(C(F)(F)F)c1CN[C@H]1CCCc2c1[nH]c1ccccc21

>  <Energy>  (15) 
93.11408168616087

>  <Genealogy>  (15) 
FC(F)(F)c1cccc(C(F)(F)F)c1CN[C@H]1CCCc2c1[nH]c1ccccc21 (chirality)
FC(F)(F)c1cccc(C(F)(F)F)c1CN[C@H]1CCCc2c1[nH]c1ccccc21 (3D coordinates assigned)
FC(F)(F)c1cccc(C(F)(F)F)c1CN[C@H]1CCCc2c1[nH]c1ccccc21 (nonaromatic ring conformer: 93.11408168616087 kcal/mol)

>  <smiles>  (15) 
FC(F)(F)c1cccc(C(F)(F)F)c1CNC1CCCc2c1[nH]c1ccccc21

>  <score_type>  (15) 
oracle

>  <origin>  (15) 
autodockgpu

>  <m_score__min__energy>  (15) 
-7.21

>  <m_primary>  (15) 
energy

>  <meeko>  (15) 
{"free_energy": -6.5, "intermolecular_energy": -7.99, "internal_energy": -1.12, "cluster_size": 3, "cluster_id": 2, "rank_in_cluster": 2}

>  <energy>  (15) 
-6.72

>  <cluster_rmsd>  (15) 
0.85

>  <rmsd>  (15) 
269.64

>  <cluster>  (15) 
1

$$$$
OEDLLKAXDUWBBK-SFHVURJKNA-N
     RDKit          3D

 47 50  0  0  0  0  0  0  0  0999 V2000
  143.0000   71.6000  219.4210 F   0  0  0  0  0  0  0  0  0  0  0  0
  143.1660   72.2960  220.6030 C   0  0  0  0  0  0  0  0  0  0  0  0
  144.5070   72.3200  220.9420 F   0  0  0  0  0  0  0  0  0  0  0  0
  142.4850   71.5940  221.5840 F   0  0  0  0  0  0  0  0  0  0  0  0
  142.6400   73.7190  220.4930 C   0  0  0  0  0  0  0  0  0  0  0  0
  143.5030   74.6860  219.9480 C   0  0  0  0  0  0  0  0  0  0  0  0
  143.1100   76.0120  219.8310 C   0  0  0  0  0  0  0  0  0  0  0  0
  141.8650   76.4150  220.2920 C   0  0  0  0  0  0  0  0  0  0  0  0
  140.9620   75.4890  220.8420 C   0  0  0  0  0  0  0  0  0  0  0  0
  139.6540   76.0130  221.4150 C   0  0  0  0  0  0  0  0  0  0  0  0
  139.5980   77.3960  221.3820 F   0  0  0  0  0  0  0  0  0  0  0  0
  138.5880   75.5250  220.6850 F   0  0  0  0  0  0  0  0  0  0  0  0
  139.5240   75.6290  222.7380 F   0  0  0  0  0  0  0  0  0  0  0  0
  141.3020   74.0980  220.8390 C   0  0  0  0  0  0  0  0  0  0  0  0
  140.2530   73.0450  221.1870 C   0  0  0  0  0  0  0  0  0  0  0  0
  140.1650   72.8280  222.6470 N   0  0  0  0  0  0  0  0  0  0  0  0
  139.1870   71.8110  223.0910 C   0  0  1  0  0  0  0  0  0  0  0  0
  138.7690   70.8450  221.9410 C   0  0  0  0  0  0  0  0  0  0  0  0
  138.0350   69.5950  222.4680 C   0  0  0  0  0  0  0  0  0  0  0  0
  138.9190   68.7860  223.4350 C   0  0  0  0  0  0  0  0  0  0  0  0
  139.4920   69.6980  224.4760 C   0  0  0  0  0  0  0  0  0  0  0  0
  139.6540   71.0620  224.3140 C   0  0  0  0  0  0  0  0  0  0  0  0
  140.1630   71.6240  225.4340 N   0  0  0  0  0  0  0  0  0  0  0  0
  140.3930   70.5990  226.2760 C   0  0  0  0  0  0  0  0  0  0  0  0
  140.9590   70.6620  227.5470 C   0  0  0  0  0  0  0  0  0  0  0  0
  141.1200   69.4570  228.2560 C   0  0  0  0  0  0  0  0  0  0  0  0
  140.7130   68.2300  227.6860 C   0  0  0  0  0  0  0  0  0  0  0  0
  140.1420   68.1940  226.4000 C   0  0  0  0  0  0  0  0  0  0  0  0
  139.9990   69.4040  225.7220 C   0  0  0  0  0  0  0  0  0  0  0  0
  144.5058   74.3868  219.6089 H   0  0  0  0  0  0  0  0  0  0  0  0
  143.7880   76.7460  219.3711 H   0  0  0  0  0  0  0  0  0  0  0  0
  141.5803   77.4755  220.2261 H   0  0  0  0  0  0  0  0  0  0  0  0
  139.2733   73.3805  220.8160 H   0  0  0  0  0  0  0  0  0  0  0  0
  140.5472   72.0961  220.7147 H   0  0  0  0  0  0  0  0  0  0  0  0
  139.9240   73.7380  223.1080 H   0  0  0  0  0  0  0  0  0  0  0  0
  138.2817   72.3633  223.3834 H   0  0  0  0  0  0  0  0  0  0  0  0
  138.1020   71.3830  221.2513 H   0  0  0  0  0  0  0  0  0  0  0  0
  139.6847   70.5095  221.4322 H   0  0  0  0  0  0  0  0  0  0  0  0
  137.1242   69.9121  222.9970 H   0  0  0  0  0  0  0  0  0  0  0  0
  137.7867   68.9536  221.6096 H   0  0  0  0  0  0  0  0  0  0  0  0
  138.3118   68.0095  223.9231 H   0  0  0  0  0  0  0  0  0  0  0  0
  139.7381   68.3142  222.8724 H   0  0  0  0  0  0  0  0  0  0  0  0
  140.3380   72.6370  225.6130 H   0  0  0  0  0  0  0  0  0  0  0  0
  141.2702   71.6229  227.9827 H   0  0  0  0  0  0  0  0  0  0  0  0
  141.5660   69.4706  229.2614 H   0  0  0  0  0  0  0  0  0  0  0  0
  140.8434   67.2956  228.2516 H   0  0  0  0  0  0  0  0  0  0  0  0
  139.8201   67.2452  225.9460 H   0  0  0  0  0  0  0  0  0  0  0  0
  1  2  1  0
  2  3  1  0
  2  4  1  0
  2  5  1  0
  5  6  2  0
  6  7  1  0
  7  8  2  0
  8  9  1  0
  9 10  1  0
 10 11  1  0
 10 12  1  0
 10 13  1  0
  9 14  2  0
 14 15  1  0
 15 16  1  0
 16 17  1  0
 17 18  1  0
 18 19  1  0
 19 20  1  0
 20 21  1  0
 21 22  2  0
 22 23  1  0
 23 24  1  0
 24 25  2  0
 25 26  1  0
 26 27  2  0
 27 28  1  0
 28 29  2  0
 14  5  1  0
 22 17  1  0
 29 24  1  0
 29 21  1  0
  6 30  1  0
  7 31  1  0
  8 32  1  0
 15 33  1  0
 15 34  1  0
 16 35  1  0
 17 36  1  1
 18 37  1  0
 18 38  1  0
 19 39  1  0
 19 40  1  0
 20 41  1  0
 20 42  1  0
 23 43  1  0
 25 44  1  0
 26 45  1  0
 27 46  1  0
 28 47  1  0
M  END
>  <UniqueID>  (16) 
29

>  <SMILES>  (16) 
FC(F)(F)c1cccc(C(F)(F)F)c1CN[C@H]1CCCc2c1[nH]c1ccccc21

>  <Energy>  (16) 
93.11408168616087

>  <Genealogy>  (16) 
FC(F)(F)c1cccc(C(F)(F)F)c1CN[C@H]1CCCc2c1[nH]c1ccccc21 (chirality)
FC(F)(F)c1cccc(C(F)(F)F)c1CN[C@H]1CCCc2c1[nH]c1ccccc21 (3D coordinates assigned)
FC(F)(F)c1cccc(C(F)(F)F)c1CN[C@H]1CCCc2c1[nH]c1ccccc21 (nonaromatic ring conformer: 93.11408168616087 kcal/mol)

>  <smiles>  (16) 
FC(F)(F)c1cccc(C(F)(F)F)c1CNC1CCCc2c1[nH]c1ccccc21

>  <score_type>  (16) 
oracle

>  <origin>  (16) 
autodockgpu

>  <m_score__min__energy>  (16) 
-7.21

>  <m_primary>  (16) 
energy

>  <meeko>  (16) 
{"free_energy": -7.18, "intermolecular_energy": -8.68, "internal_energy": -0.97, "cluster_size": 17, "cluster_id": 1, "rank_in_cluster": 4}

>  <energy>  (16) 
-6.4

>  <cluster_rmsd>  (16) 
1.75

>  <rmsd>  (16) 
269.53

>  <cluster>  (16) 
1

$$$$
OEDLLKAXDUWBBK-SFHVURJKNA-N
     RDKit          3D

 47 50  0  0  0  0  0  0  0  0999 V2000
  140.0910   75.8850  220.2990 F   0  0  0  0  0  0  0  0  0  0  0  0
  141.3020   75.8920  220.9640 C   0  0  0  0  0  0  0  0  0  0  0  0
  141.0840   76.0360  222.3230 F   0  0  0  0  0  0  0  0  0  0  0  0
  142.0010   77.0010  220.5180 F   0  0  0  0  0  0  0  0  0  0  0  0
  142.0890   74.6160  220.7050 C   0  0  0  0  0  0  0  0  0  0  0  0
  143.4750   74.7410  220.5060 C   0  0  0  0  0  0  0  0  0  0  0  0
  144.2640   73.6300  220.2420 C   0  0  0  0  0  0  0  0  0  0  0  0
  143.6860   72.3740  220.1280 C   0  0  0  0  0  0  0  0  0  0  0  0
  142.3050   72.1920  220.3210 C   0  0  0  0  0  0  0  0  0  0  0  0
  141.7230   70.8060  220.0870 C   0  0  0  0  0  0  0  0  0  0  0  0
  142.7100   69.8780  219.7990 F   0  0  0  0  0  0  0  0  0  0  0  0
  141.0500   70.3790  221.2140 F   0  0  0  0  0  0  0  0  0  0  0  0
  140.8550   70.8290  219.0090 F   0  0  0  0  0  0  0  0  0  0  0  0
  141.5060   73.3070  220.7300 C   0  0  0  0  0  0  0  0  0  0  0  0
  140.0670   73.0970  221.1960 C   0  0  0  0  0  0  0  0  0  0  0  0
  139.9950   72.9020  222.6600 N   0  0  0  0  0  0  0  0  0  0  0  0
  139.0190   71.8950  223.1290 C   0  0  1  0  0  0  0  0  0  0  0  0
  138.5140   70.9720  221.9780 C   0  0  0  0  0  0  0  0  0  0  0  0
  137.7810   69.7240  222.5100 C   0  0  0  0  0  0  0  0  0  0  0  0
  138.6960   68.8680  223.4030 C   0  0  0  0  0  0  0  0  0  0  0  0
  139.3480   69.7350  224.4350 C   0  0  0  0  0  0  0  0  0  0  0  0
  139.5340   71.1000  224.3020 C   0  0  0  0  0  0  0  0  0  0  0  0
  140.1180   71.6170  225.4080 N   0  0  0  0  0  0  0  0  0  0  0  0
  140.3690   70.5620  226.2060 C   0  0  0  0  0  0  0  0  0  0  0  0
  141.0060   70.5750  227.4450 C   0  0  0  0  0  0  0  0  0  0  0  0
  141.1770   69.3460  228.1100 C   0  0  0  0  0  0  0  0  0  0  0  0
  140.7090   68.1470  227.5290 C   0  0  0  0  0  0  0  0  0  0  0  0
  140.0670   68.1620  226.2770 C   0  0  0  0  0  0  0  0  0  0  0  0
  139.9160   69.3930  225.6420 C   0  0  0  0  0  0  0  0  0  0  0  0
  143.9419   75.7355  220.5604 H   0  0  0  0  0  0  0  0  0  0  0  0
  145.3514   73.7458  220.1228 H   0  0  0  0  0  0  0  0  0  0  0  0
  144.3175   71.5073  219.8829 H   0  0  0  0  0  0  0  0  0  0  0  0
  139.4704   73.9799  220.9231 H   0  0  0  0  0  0  0  0  0  0  0  0
  139.6742   72.1931  220.7075 H   0  0  0  0  0  0  0  0  0  0  0  0
  139.7620   73.8190  223.1100 H   0  0  0  0  0  0  0  0  0  0  0  0
  138.1453   72.4598  223.4864 H   0  0  0  0  0  0  0  0  0  0  0  0
  137.8226   71.5447  221.3424 H   0  0  0  0  0  0  0  0  0  0  0  0
  139.3917   70.6309  221.4095 H   0  0  0  0  0  0  0  0  0  0  0  0
  136.9084   70.0457  223.0973 H   0  0  0  0  0  0  0  0  0  0  0  0
  137.4713   69.1135  221.6490 H   0  0  0  0  0  0  0  0  0  0  0  0
  138.0974   68.0920  223.9025 H   0  0  0  0  0  0  0  0  0  0  0  0
  139.4710   68.3942  222.7826 H   0  0  0  0  0  0  0  0  0  0  0  0
  140.3270   72.6200  225.6050 H   0  0  0  0  0  0  0  0  0  0  0  0
  141.3638   71.5154  227.8894 H   0  0  0  0  0  0  0  0  0  0  0  0
  141.6785   69.3195  229.0887 H   0  0  0  0  0  0  0  0  0  0  0  0
  140.8475   67.1934  228.0596 H   0  0  0  0  0  0  0  0  0  0  0  0
  139.6973   67.2344  225.8157 H   0  0  0  0  0  0  0  0  0  0  0  0
  1  2  1  0
  2  3  1  0
  2  4  1  0
  2  5  1  0
  5  6  2  0
  6  7  1  0
  7  8  2  0
  8  9  1  0
  9 10  1  0
 10 11  1  0
 10 12  1  0
 10 13  1  0
  9 14  2  0
 14 15  1  0
 15 16  1  0
 16 17  1  0
 17 18  1  0
 18 19  1  0
 19 20  1  0
 20 21  1  0
 21 22  2  0
 22 23  1  0
 23 24  1  0
 24 25  2  0
 25 26  1  0
 26 27  2  0
 27 28  1  0
 28 29  2  0
 14  5  1  0
 22 17  1  0
 29 24  1  0
 29 21  1  0
  6 30  1  0
  7 31  1  0
  8 32  1  0
 15 33  1  0
 15 34  1  0
 16 35  1  0
 17 36  1  1
 18 37  1  0
 18 38  1  0
 19 39  1  0
 19 40  1  0
 20 41  1  0
 20 42  1  0
 23 43  1  0
 25 44  1  0
 26 45  1  0
 27 46  1  0
 28 47  1  0
M  END
>  <UniqueID>  (17) 
29

>  <SMILES>  (17) 
FC(F)(F)c1cccc(C(F)(F)F)c1CN[C@H]1CCCc2c1[nH]c1ccccc21

>  <Energy>  (17) 
93.11408168616087

>  <Genealogy>  (17) 
FC(F)(F)c1cccc(C(F)(F)F)c1CN[C@H]1CCCc2c1[nH]c1ccccc21 (chirality)
FC(F)(F)c1cccc(C(F)(F)F)c1CN[C@H]1CCCc2c1[nH]c1ccccc21 (3D coordinates assigned)
FC(F)(F)c1cccc(C(F)(F)F)c1CN[C@H]1CCCc2c1[nH]c1ccccc21 (nonaromatic ring conformer: 93.11408168616087 kcal/mol)

>  <smiles>  (17) 
FC(F)(F)c1cccc(C(F)(F)F)c1CNC1CCCc2c1[nH]c1ccccc21

>  <score_type>  (17) 
oracle

>  <origin>  (17) 
autodockgpu

>  <m_score__min__energy>  (17) 
-7.21

>  <m_primary>  (17) 
energy

>  <meeko>  (17) 
{"free_energy": -6.84, "intermolecular_energy": -8.33, "internal_energy": -1.17, "cluster_size": 17, "cluster_id": 1, "rank_in_cluster": 13}

>  <energy>  (17) 
-6.12

>  <cluster_rmsd>  (17) 
1.77

>  <rmsd>  (17) 
269.47

>  <cluster>  (17) 
1

$$$$
OEDLLKAXDUWBBK-SFHVURJKNA-N
     RDKit          3D

 47 50  0  0  0  0  0  0  0  0999 V2000
  136.3290   76.5110  223.3480 F   0  0  0  0  0  0  0  0  0  0  0  0
  136.8830   75.5880  222.4820 C   0  0  0  0  0  0  0  0  0  0  0  0
  136.2320   75.6480  221.2630 F   0  0  0  0  0  0  0  0  0  0  0  0
  136.6600   74.3350  223.0300 F   0  0  0  0  0  0  0  0  0  0  0  0
  138.3700   75.8330  222.2800 C   0  0  0  0  0  0  0  0  0  0  0  0
  138.8660   77.1060  222.6140 C   0  0  0  0  0  0  0  0  0  0  0  0
  140.2070   77.4210  222.4410 C   0  0  0  0  0  0  0  0  0  0  0  0
  141.0770   76.4910  221.8920 C   0  0  0  0  0  0  0  0  0  0  0  0
  140.6350   75.2030  221.5430 C   0  0  0  0  0  0  0  0  0  0  0  0
  141.6190   74.2660  220.8570 C   0  0  0  0  0  0  0  0  0  0  0  0
  141.8430   73.1220  221.6060 F   0  0  0  0  0  0  0  0  0  0  0  0
  141.1270   73.8810  219.6250 F   0  0  0  0  0  0  0  0  0  0  0  0
  142.8400   74.8940  220.6930 F   0  0  0  0  0  0  0  0  0  0  0  0
  139.2890   74.8220  221.8460 C   0  0  0  0  0  0  0  0  0  0  0  0
  138.8500   73.3650  221.7210 C   0  0  0  0  0  0  0  0  0  0  0  0
  139.5360   72.5070  222.7100 N   0  0  0  0  0  0  0  0  0  0  0  0
  138.7190   71.4240  223.3010 C   0  0  1  0  0  0  0  0  0  0  0  0
  138.2950   70.3550  222.2480 C   0  0  0  0  0  0  0  0  0  0  0  0
  137.7530   69.0700  222.9070 C   0  0  0  0  0  0  0  0  0  0  0  0
  138.8080   68.4120  223.8150 C   0  0  0  0  0  0  0  0  0  0  0  0
  139.3800   69.4350  224.7460 C   0  0  0  0  0  0  0  0  0  0  0  0
  139.3800   70.7970  224.5030 C   0  0  0  0  0  0  0  0  0  0  0  0
  139.9350   71.4720  225.5370 N   0  0  0  0  0  0  0  0  0  0  0  0
  140.3540   70.5250  226.3980 C   0  0  0  0  0  0  0  0  0  0  0  0
  141.0320   70.7180  227.5990 C   0  0  0  0  0  0  0  0  0  0  0  0
  141.3890   69.5780  228.3440 C   0  0  0  0  0  0  0  0  0  0  0  0
  141.0590   68.2860  227.8780 C   0  0  0  0  0  0  0  0  0  0  0  0
  140.3720   68.1190  226.6610 C   0  0  0  0  0  0  0  0  0  0  0  0
  140.0360   69.2660  225.9450 C   0  0  0  0  0  0  0  0  0  0  0  0
  138.1801   77.8646  223.0190 H   0  0  0  0  0  0  0  0  0  0  0  0
  140.5806   78.4114  222.7403 H   0  0  0  0  0  0  0  0  0  0  0  0
  142.1294   76.7655  221.7271 H   0  0  0  0  0  0  0  0  0  0  0  0
  137.7642   73.3032  221.8860 H   0  0  0  0  0  0  0  0  0  0  0  0
  139.1133   73.0099  220.7137 H   0  0  0  0  0  0  0  0  0  0  0  0
  139.8930   73.1100  223.4890 H   0  0  0  0  0  0  0  0  0  0  0  0
  137.7939   71.8997  223.6586 H   0  0  0  0  0  0  0  0  0  0  0  0
  137.5103   70.7819  221.6062 H   0  0  0  0  0  0  0  0  0  0  0  0
  139.1870   70.0843  221.6640 H   0  0  0  0  0  0  0  0  0  0  0  0
  136.8697   69.3237  223.5115 H   0  0  0  0  0  0  0  0  0  0  0  0
  137.4916   68.3580  222.1103 H   0  0  0  0  0  0  0  0  0  0  0  0
  138.3371   67.6080  224.3997 H   0  0  0  0  0  0  0  0  0  0  0  0
  139.6136   67.9934  223.1939 H   0  0  0  0  0  0  0  0  0  0  0  0
  140.0190   72.5060  225.6480 H   0  0  0  0  0  0  0  0  0  0  0  0
  141.2807   71.7289  227.9542 H   0  0  0  0  0  0  0  0  0  0  0  0
  141.9286   69.6942  229.2955 H   0  0  0  0  0  0  0  0  0  0  0  0
  141.3412   67.4035  228.4709 H   0  0  0  0  0  0  0  0  0  0  0  0
  140.1095   67.1179  226.2882 H   0  0  0  0  0  0  0  0  0  0  0  0
  1  2  1  0
  2  3  1  0
  2  4  1  0
  2  5  1  0
  5  6  2  0
  6  7  1  0
  7  8  2  0
  8  9  1  0
  9 10  1  0
 10 11  1  0
 10 12  1  0
 10 13  1  0
  9 14  2  0
 14 15  1  0
 15 16  1  0
 16 17  1  0
 17 18  1  0
 18 19  1  0
 19 20  1  0
 20 21  1  0
 21 22  2  0
 22 23  1  0
 23 24  1  0
 24 25  2  0
 25 26  1  0
 26 27  2  0
 27 28  1  0
 28 29  2  0
 14  5  1  0
 22 17  1  0
 29 24  1  0
 29 21  1  0
  6 30  1  0
  7 31  1  0
  8 32  1  0
 15 33  1  0
 15 34  1  0
 16 35  1  0
 17 36  1  1
 18 37  1  0
 18 38  1  0
 19 39  1  0
 19 40  1  0
 20 41  1  0
 20 42  1  0
 23 43  1  0
 25 44  1  0
 26 45  1  0
 27 46  1  0
 28 47  1  0
M  END
>  <UniqueID>  (18) 
29

>  <SMILES>  (18) 
FC(F)(F)c1cccc(C(F)(F)F)c1CN[C@H]1CCCc2c1[nH]c1ccccc21

>  <Energy>  (18) 
93.11408168616087

>  <Genealogy>  (18) 
FC(F)(F)c1cccc(C(F)(F)F)c1CN[C@H]1CCCc2c1[nH]c1ccccc21 (chirality)
FC(F)(F)c1cccc(C(F)(F)F)c1CN[C@H]1CCCc2c1[nH]c1ccccc21 (3D coordinates assigned)
FC(F)(F)c1cccc(C(F)(F)F)c1CN[C@H]1CCCc2c1[nH]c1ccccc21 (nonaromatic ring conformer: 93.11408168616087 kcal/mol)

>  <smiles>  (18) 
FC(F)(F)c1cccc(C(F)(F)F)c1CNC1CCCc2c1[nH]c1ccccc21

>  <score_type>  (18) 
oracle

>  <origin>  (18) 
autodockgpu

>  <m_score__min__energy>  (18) 
-7.21

>  <m_primary>  (18) 
energy

>  <meeko>  (18) 
{"free_energy": -6.87, "intermolecular_energy": -8.37, "internal_energy": -0.9, "cluster_size": 17, "cluster_id": 1, "rank_in_cluster": 9}

>  <energy>  (18) 
-6.52

>  <cluster_rmsd>  (18) 
0.0

>  <rmsd>  (18) 
270.25

>  <cluster>  (18) 
2

$$$$
OEDLLKAXDUWBBK-SFHVURJKNA-N
     RDKit          3D

 47 50  0  0  0  0  0  0  0  0999 V2000
  140.0860   75.8900  220.2760 F   0  0  0  0  0  0  0  0  0  0  0  0
  141.2930   75.9120  220.9470 C   0  0  0  0  0  0  0  0  0  0  0  0
  141.0670   76.0580  222.3040 F   0  0  0  0  0  0  0  0  0  0  0  0
  141.9830   77.0270  220.5010 F   0  0  0  0  0  0  0  0  0  0  0  0
  142.0950   74.6440  220.6960 C   0  0  0  0  0  0  0  0  0  0  0  0
  143.4800   74.7820  220.5020 C   0  0  0  0  0  0  0  0  0  0  0  0
  144.2830   73.6790  220.2460 C   0  0  0  0  0  0  0  0  0  0  0  0
  143.7190   72.4170  220.1330 C   0  0  0  0  0  0  0  0  0  0  0  0
  142.3390   72.2210  220.3200 C   0  0  0  0  0  0  0  0  0  0  0  0
  141.7730   70.8270  220.0880 C   0  0  0  0  0  0  0  0  0  0  0  0
  141.0710   70.3700  221.1910 F   0  0  0  0  0  0  0  0  0  0  0  0
  140.9120   70.8400  219.0080 F   0  0  0  0  0  0  0  0  0  0  0  0
  142.7990   69.9290  219.8540 F   0  0  0  0  0  0  0  0  0  0  0  0
  141.5260   73.3280  220.7220 C   0  0  0  0  0  0  0  0  0  0  0  0
  140.0870   73.1040  221.1820 C   0  0  0  0  0  0  0  0  0  0  0  0
  140.0110   72.9100  222.6460 N   0  0  0  0  0  0  0  0  0  0  0  0
  139.0380   71.8980  223.1130 C   0  0  1  0  0  0  0  0  0  0  0  0
  138.5500   70.9660  221.9620 C   0  0  0  0  0  0  0  0  0  0  0  0
  137.8210   69.7150  222.4940 C   0  0  0  0  0  0  0  0  0  0  0  0
  138.7360   68.8700  223.3980 C   0  0  0  0  0  0  0  0  0  0  0  0
  139.3730   69.7470  224.4310 C   0  0  0  0  0  0  0  0  0  0  0  0
  139.5500   71.1120  224.2940 C   0  0  0  0  0  0  0  0  0  0  0  0
  140.1210   71.6390  225.4010 N   0  0  0  0  0  0  0  0  0  0  0  0
  140.3740   70.5900  226.2070 C   0  0  0  0  0  0  0  0  0  0  0  0
  141.0010   70.6130  227.4500 C   0  0  0  0  0  0  0  0  0  0  0  0
  141.1750   69.3890  228.1220 C   0  0  0  0  0  0  0  0  0  0  0  0
  140.7210   68.1830  227.5440 C   0  0  0  0  0  0  0  0  0  0  0  0
  140.0890   68.1870  226.2860 C   0  0  0  0  0  0  0  0  0  0  0  0
  139.9340   69.4150  225.6440 C   0  0  0  0  0  0  0  0  0  0  0  0
  143.9358   75.7818  220.5539 H   0  0  0  0  0  0  0  0  0  0  0  0
  145.3697   73.8062  220.1325 H   0  0  0  0  0  0  0  0  0  0  0  0
  144.3608   71.5563  219.8935 H   0  0  0  0  0  0  0  0  0  0  0  0
  139.4826   73.9805  220.9056 H   0  0  0  0  0  0  0  0  0  0  0  0
  139.7053   72.1957  220.6928 H   0  0  0  0  0  0  0  0  0  0  0  0
  139.7710   73.8260  223.0950 H   0  0  0  0  0  0  0  0  0  0  0  0
  138.1574   72.4576  223.4615 H   0  0  0  0  0  0  0  0  0  0  0  0
  137.8602   71.5306  221.3175 H   0  0  0  0  0  0  0  0  0  0  0  0
  139.4351   70.6286  221.4028 H   0  0  0  0  0  0  0  0  0  0  0  0
  136.9416   70.0332  223.0732 H   0  0  0  0  0  0  0  0  0  0  0  0
  137.5215   69.0984  221.6337 H   0  0  0  0  0  0  0  0  0  0  0  0
  138.1398   68.0915  223.8964 H   0  0  0  0  0  0  0  0  0  0  0  0
  139.5195   68.3995  222.7858 H   0  0  0  0  0  0  0  0  0  0  0  0
  140.3220   72.6450  225.5950 H   0  0  0  0  0  0  0  0  0  0  0  0
  141.3492   71.5579  227.8926 H   0  0  0  0  0  0  0  0  0  0  0  0
  141.6684   69.3713  229.1050 H   0  0  0  0  0  0  0  0  0  0  0  0
  140.8623   67.2333  228.0808 H   0  0  0  0  0  0  0  0  0  0  0  0
  139.7302   67.2545  225.8259 H   0  0  0  0  0  0  0  0  0  0  0  0
  1  2  1  0
  2  3  1  0
  2  4  1  0
  2  5  1  0
  5  6  2  0
  6  7  1  0
  7  8  2  0
  8  9  1  0
  9 10  1  0
 10 11  1  0
 10 12  1  0
 10 13  1  0
  9 14  2  0
 14 15  1  0
 15 16  1  0
 16 17  1  0
 17 18  1  0
 18 19  1  0
 19 20  1  0
 20 21  1  0
 21 22  2  0
 22 23  1  0
 23 24  1  0
 24 25  2  0
 25 26  1  0
 26 27  2  0
 27 28  1  0
 28 29  2  0
 14  5  1  0
 22 17  1  0
 29 24  1  0
 29 21  1  0
  6 30  1  0
  7 31  1  0
  8 32  1  0
 15 33  1  0
 15 34  1  0
 16 35  1  0
 17 36  1  1
 18 37  1  0
 18 38  1  0
 19 39  1  0
 19 40  1  0
 20 41  1  0
 20 42  1  0
 23 43  1  0
 25 44  1  0
 26 45  1  0
 27 46  1  0
 28 47  1  0
M  END
>  <UniqueID>  (19) 
29

>  <SMILES>  (19) 
FC(F)(F)c1cccc(C(F)(F)F)c1CN[C@H]1CCCc2c1[nH]c1ccccc21

>  <Energy>  (19) 
93.11408168616087

>  <Genealogy>  (19) 
FC(F)(F)c1cccc(C(F)(F)F)c1CN[C@H]1CCCc2c1[nH]c1ccccc21 (chirality)
FC(F)(F)c1cccc(C(F)(F)F)c1CN[C@H]1CCCc2c1[nH]c1ccccc21 (3D coordinates assigned)
FC(F)(F)c1cccc(C(F)(F)F)c1CN[C@H]1CCCc2c1[nH]c1ccccc21 (nonaromatic ring conformer: 93.11408168616087 kcal/mol)

>  <smiles>  (19) 
FC(F)(F)c1cccc(C(F)(F)F)c1CNC1CCCc2c1[nH]c1ccccc21

>  <score_type>  (19) 
oracle

>  <origin>  (19) 
autodockgpu

>  <m_score__min__energy>  (19) 
-7.21

>  <m_primary>  (19) 
energy

>  <meeko>  (19) 
{"free_energy": -6.86, "intermolecular_energy": -8.35, "internal_energy": -1.16, "cluster_size": 17, "cluster_id": 1, "rank_in_cluster": 12}

>  <energy>  (19) 
-6.5

>  <cluster_rmsd>  (19) 
0.06

>  <rmsd>  (19) 
270.27

>  <cluster>  (19) 
2

$$$$
OEDLLKAXDUWBBK-SFHVURJKNA-N
     RDKit          3D

 47 50  0  0  0  0  0  0  0  0999 V2000
  141.9180   73.2010  219.5160 F   0  0  0  0  0  0  0  0  0  0  0  0
  142.0830   73.6450  220.8140 C   0  0  0  0  0  0  0  0  0  0  0  0
  143.1780   74.4860  220.8820 F   0  0  0  0  0  0  0  0  0  0  0  0
  142.3460   72.5290  221.5920 F   0  0  0  0  0  0  0  0  0  0  0  0
  140.8460   74.3740  221.3160 C   0  0  0  0  0  0  0  0  0  0  0  0
  141.0070   75.7060  221.7370 C   0  0  0  0  0  0  0  0  0  0  0  0
  139.9340   76.4370  222.2290 C   0  0  0  0  0  0  0  0  0  0  0  0
  138.6850   75.8460  222.3540 C   0  0  0  0  0  0  0  0  0  0  0  0
  138.4680   74.5180  221.9460 C   0  0  0  0  0  0  0  0  0  0  0  0
  137.0990   73.9030  222.2000 C   0  0  0  0  0  0  0  0  0  0  0  0
  137.1890   72.7560  222.9710 F   0  0  0  0  0  0  0  0  0  0  0  0
  136.2910   74.8040  222.8640 F   0  0  0  0  0  0  0  0  0  0  0  0
  136.5080   73.5460  221.0010 F   0  0  0  0  0  0  0  0  0  0  0  0
  139.5310   73.8020  221.3090 C   0  0  0  0  0  0  0  0  0  0  0  0
  139.2610   72.4630  220.6260 C   0  0  0  0  0  0  0  0  0  0  0  0
  139.8400   71.3390  221.3920 N   0  0  0  0  0  0  0  0  0  0  0  0
  138.9530   70.7240  222.4040 C   0  0  1  0  0  0  0  0  0  0  0  0
  138.5220   69.2760  222.0170 C   0  0  0  0  0  0  0  0  0  0  0  0
  137.8970   68.5170  223.2060 C   0  0  0  0  0  0  0  0  0  0  0  0
  138.8850   68.3920  224.3790 C   0  0  0  0  0  0  0  0  0  0  0  0
  139.4670   69.7360  224.6920 C   0  0  0  0  0  0  0  0  0  0  0  0
  139.5380   70.7840  223.7920 C   0  0  0  0  0  0  0  0  0  0  0  0
  140.0820   71.8800  224.3700 N   0  0  0  0  0  0  0  0  0  0  0  0
  140.4240   71.4970  225.6140 C   0  0  0  0  0  0  0  0  0  0  0  0
  141.0640   72.2620  226.5860 C   0  0  0  0  0  0  0  0  0  0  0  0
  141.3390   71.6540  227.8260 C   0  0  0  0  0  0  0  0  0  0  0  0
  140.9700   70.3110  228.0620 C   0  0  0  0  0  0  0  0  0  0  0  0
  140.3240   69.5600  227.0630 C   0  0  0  0  0  0  0  0  0  0  0  0
  140.0670   70.1890  225.8460 C   0  0  0  0  0  0  0  0  0  0  0  0
  141.9994   76.1766  221.6755 H   0  0  0  0  0  0  0  0  0  0  0  0
  140.0747   77.4883  222.5207 H   0  0  0  0  0  0  0  0  0  0  0  0
  137.8518   76.4251  222.7788 H   0  0  0  0  0  0  0  0  0  0  0  0
  138.1740   72.3167  220.5428 H   0  0  0  0  0  0  0  0  0  0  0  0
  139.7303   72.4815  219.6313 H   0  0  0  0  0  0  0  0  0  0  0  0
  140.7070   71.6720  221.8760 H   0  0  0  0  0  0  0  0  0  0  0  0
  138.0372   71.3331  222.4186 H   0  0  0  0  0  0  0  0  0  0  0  0
  137.7829   69.3316  221.2042 H   0  0  0  0  0  0  0  0  0  0  0  0
  139.4225   68.7282  221.7022 H   0  0  0  0  0  0  0  0  0  0  0  0
  137.0041   69.0611  223.5475 H   0  0  0  0  0  0  0  0  0  0  0  0
  137.6336   67.5039  222.8679 H   0  0  0  0  0  0  0  0  0  0  0  0
  138.3562   68.0072  225.2635 H   0  0  0  0  0  0  0  0  0  0  0  0
  139.6937   67.6994  224.1028 H   0  0  0  0  0  0  0  0  0  0  0  0
  140.2080   72.8250  223.9450 H   0  0  0  0  0  0  0  0  0  0  0  0
  141.3456   73.3074  226.3914 H   0  0  0  0  0  0  0  0  0  0  0  0
  141.8445   72.2286  228.6161 H   0  0  0  0  0  0  0  0  0  0  0  0
  141.1897   69.8483  229.0355 H   0  0  0  0  0  0  0  0  0  0  0  0
  140.0321   68.5137  227.2362 H   0  0  0  0  0  0  0  0  0  0  0  0
  1  2  1  0
  2  3  1  0
  2  4  1  0
  2  5  1  0
  5  6  2  0
  6  7  1  0
  7  8  2  0
  8  9  1  0
  9 10  1  0
 10 11  1  0
 10 12  1  0
 10 13  1  0
  9 14  2  0
 14 15  1  0
 15 16  1  0
 16 17  1  0
 17 18  1  0
 18 19  1  0
 19 20  1  0
 20 21  1  0
 21 22  2  0
 22 23  1  0
 23 24  1  0
 24 25  2  0
 25 26  1  0
 26 27  2  0
 27 28  1  0
 28 29  2  0
 14  5  1  0
 22 17  1  0
 29 24  1  0
 29 21  1  0
  6 30  1  0
  7 31  1  0
  8 32  1  0
 15 33  1  0
 15 34  1  0
 16 35  1  0
 17 36  1  1
 18 37  1  0
 18 38  1  0
 19 39  1  0
 19 40  1  0
 20 41  1  0
 20 42  1  0
 23 43  1  0
 25 44  1  0
 26 45  1  0
 27 46  1  0
 28 47  1  0
M  END
>  <UniqueID>  (20) 
29

>  <SMILES>  (20) 
FC(F)(F)c1cccc(C(F)(F)F)c1CN[C@H]1CCCc2c1[nH]c1ccccc21

>  <Energy>  (20) 
93.11408168616087

>  <Genealogy>  (20) 
FC(F)(F)c1cccc(C(F)(F)F)c1CN[C@H]1CCCc2c1[nH]c1ccccc21 (chirality)
FC(F)(F)c1cccc(C(F)(F)F)c1CN[C@H]1CCCc2c1[nH]c1ccccc21 (3D coordinates assigned)
FC(F)(F)c1cccc(C(F)(F)F)c1CN[C@H]1CCCc2c1[nH]c1ccccc21 (nonaromatic ring conformer: 93.11408168616087 kcal/mol)

>  <smiles>  (20) 
FC(F)(F)c1cccc(C(F)(F)F)c1CNC1CCCc2c1[nH]c1ccccc21

>  <score_type>  (20) 
oracle

>  <origin>  (20) 
autodockgpu

>  <m_score__min__energy>  (20) 
-7.21

>  <m_primary>  (20) 
energy

>  <meeko>  (20) 
{"free_energy": -6.12, "intermolecular_energy": -7.61, "internal_energy": -1.5, "cluster_size": 17, "cluster_id": 1, "rank_in_cluster": 17}

>  <energy>  (20) 
-6.46

>  <cluster_rmsd>  (20) 
0.15

>  <rmsd>  (20) 
270.26

>  <cluster>  (20) 
2

$$$$
OEDLLKAXDUWBBK-GOSISDBHNA-N
     RDKit          3D

 47 50  0  0  0  0  0  0  0  0999 V2000
  141.2520   78.2230  220.2330 F   0  0  0  0  0  0  0  0  0  0  0  0
  141.8090   77.4770  219.2110 C   0  0  0  0  0  0  0  0  0  0  0  0
  142.7710   78.2280  218.5660 F   0  0  0  0  0  0  0  0  0  0  0  0
  140.7990   77.2160  218.3010 F   0  0  0  0  0  0  0  0  0  0  0  0
  142.4140   76.1920  219.7650 C   0  0  0  0  0  0  0  0  0  0  0  0
  143.8110   76.0360  219.7130 C   0  0  0  0  0  0  0  0  0  0  0  0
  144.4160   74.8570  220.1240 C   0  0  0  0  0  0  0  0  0  0  0  0
  143.6440   73.7890  220.5600 C   0  0  0  0  0  0  0  0  0  0  0  0
  142.2430   73.8890  220.6360 C   0  0  0  0  0  0  0  0  0  0  0  0
  141.4510   72.6490  221.0270 C   0  0  0  0  0  0  0  0  0  0  0  0
  141.0850   72.7260  222.3580 F   0  0  0  0  0  0  0  0  0  0  0  0
  142.2080   71.5120  220.8200 F   0  0  0  0  0  0  0  0  0  0  0  0
  140.2880   72.5230  220.2850 F   0  0  0  0  0  0  0  0  0  0  0  0
  141.6170   75.1360  220.3150 C   0  0  0  0  0  0  0  0  0  0  0  0
  140.1360   75.3650  220.6050 C   0  0  0  0  0  0  0  0  0  0  0  0
  139.8110   74.9770  221.9860 N   0  0  0  0  0  0  0  0  0  0  0  0
  139.0580   76.0130  222.7170 C   0  0  2  0  0  0  0  0  0  0  0  0
  137.6500   76.2490  222.0950 C   0  0  0  0  0  0  0  0  0  0  0  0
  136.9910   77.5310  222.6410 C   0  0  0  0  0  0  0  0  0  0  0  0
  137.8140   78.7830  222.2910 C   0  0  0  0  0  0  0  0  0  0  0  0
  139.2620   78.5460  222.5910 C   0  0  0  0  0  0  0  0  0  0  0  0
  139.8440   77.2940  222.7170 C   0  0  0  0  0  0  0  0  0  0  0  0
  141.1650   77.4020  222.9910 N   0  0  0  0  0  0  0  0  0  0  0  0
  141.4250   78.7240  222.9890 C   0  0  0  0  0  0  0  0  0  0  0  0
  142.6530   79.3440  223.2130 C   0  0  0  0  0  0  0  0  0  0  0  0
  142.7000   80.7500  223.1700 C   0  0  0  0  0  0  0  0  0  0  0  0
  141.5290   81.4970  222.9100 C   0  0  0  0  0  0  0  0  0  0  0  0
  140.3010   80.8480  222.6930 C   0  0  0  0  0  0  0  0  0  0  0  0
  140.2870   79.4550  222.7400 C   0  0  0  0  0  0  0  0  0  0  0  0
  144.4341   76.8624  219.3403 H   0  0  0  0  0  0  0  0  0  0  0  0
  145.5122   74.7682  220.1042 H   0  0  0  0  0  0  0  0  0  0  0  0
  144.1359   72.8491  220.8508 H   0  0  0  0  0  0  0  0  0  0  0  0
  139.9010   76.4303  220.4643 H   0  0  0  0  0  0  0  0  0  0  0  0
  139.5409   74.7487  219.9150 H   0  0  0  0  0  0  0  0  0  0  0  0
  140.6960   74.7480  222.4950 H   0  0  0  0  0  0  0  0  0  0  0  0
  138.9086   75.6653  223.7498 H   0  0  0  0  0  0  0  0  0  0  0  0
  137.7533   76.3388  221.0036 H   0  0  0  0  0  0  0  0  0  0  0  0
  137.0104   75.3950  222.3625 H   0  0  0  0  0  0  0  0  0  0  0  0
  135.9865   77.6302  222.2039 H   0  0  0  0  0  0  0  0  0  0  0  0
  136.9359   77.4502  223.7367 H   0  0  0  0  0  0  0  0  0  0  0  0
  137.6961   79.0087  221.2209 H   0  0  0  0  0  0  0  0  0  0  0  0
  137.4550   79.6305  222.8934 H   0  0  0  0  0  0  0  0  0  0  0  0
  141.8370   76.6290  223.1890 H   0  0  0  0  0  0  0  0  0  0  0  0
  143.5577   78.7526  223.4171 H   0  0  0  0  0  0  0  0  0  0  0  0
  143.6540   81.2705  223.3398 H   0  0  0  0  0  0  0  0  0  0  0  0
  141.5788   82.5954  222.8771 H   0  0  0  0  0  0  0  0  0  0  0  0
  139.3828   81.4198  222.4930 H   0  0  0  0  0  0  0  0  0  0  0  0
  1  2  1  0
  2  3  1  0
  2  4  1  0
  2  5  1  0
  5  6  2  0
  6  7  1  0
  7  8  2  0
  8  9  1  0
  9 10  1  0
 10 11  1  0
 10 12  1  0
 10 13  1  0
  9 14  2  0
 14 15  1  0
 15 16  1  0
 16 17  1  0
 17 18  1  0
 18 19  1  0
 19 20  1  0
 20 21  1  0
 21 22  2  0
 22 23  1  0
 23 24  1  0
 24 25  2  0
 25 26  1  0
 26 27  2  0
 27 28  1  0
 28 29  2  0
 14  5  1  0
 22 17  1  0
 29 24  1  0
 29 21  1  0
  6 30  1  0
  7 31  1  0
  8 32  1  0
 15 33  1  0
 15 34  1  0
 16 35  1  0
 17 36  1  1
 18 37  1  0
 18 38  1  0
 19 39  1  0
 19 40  1  0
 20 41  1  0
 20 42  1  0
 23 43  1  0
 25 44  1  0
 26 45  1  0
 27 46  1  0
 28 47  1  0
M  END
>  <UniqueID>  (21) 
30

>  <SMILES>  (21) 
FC(F)(F)c1cccc(C(F)(F)F)c1CN[C@@H]1CCCc2c1[nH]c1ccccc21

>  <Energy>  (21) 
95.04361686842613

>  <Genealogy>  (21) 
FC(F)(F)c1cccc(C(F)(F)F)c1CN[C@@H]1CCCc2c1[nH]c1ccccc21 (chirality)
FC(F)(F)c1cccc(C(F)(F)F)c1CN[C@@H]1CCCc2c1[nH]c1ccccc21 (3D coordinates assigned)
FC(F)(F)c1cccc(C(F)(F)F)c1CN[C@@H]1CCCc2c1[nH]c1ccccc21 (nonaromatic ring conformer: 95.04361686842613 kcal/mol)

>  <smiles>  (21) 
FC(F)(F)c1cccc(C(F)(F)F)c1CNC1CCCc2c1[nH]c1ccccc21

>  <score_type>  (21) 
oracle

>  <origin>  (21) 
autodockgpu

>  <m_score__min__energy>  (21) 
-7.4000000000000004

>  <m_primary>  (21) 
energy

>  <meeko>  (21) 
{"free_energy": -6.67, "intermolecular_energy": -8.16, "internal_energy": -1.74, "cluster_size": 9, "cluster_id": 2, "rank_in_cluster": 9}

>  <energy>  (21) 
-7.4

>  <cluster_rmsd>  (21) 
0.0

>  <rmsd>  (21) 
271.61

>  <cluster>  (21) 
1

$$$$
OEDLLKAXDUWBBK-GOSISDBHNA-N
     RDKit          3D

 47 50  0  0  0  0  0  0  0  0999 V2000
  141.4770   72.2330  219.5200 F   0  0  0  0  0  0  0  0  0  0  0  0
  142.4500   72.9340  220.2060 C   0  0  0  0  0  0  0  0  0  0  0  0
  143.6510   72.8320  219.5330 F   0  0  0  0  0  0  0  0  0  0  0  0
  142.6040   72.3190  221.4360 F   0  0  0  0  0  0  0  0  0  0  0  0
  142.0410   74.3960  220.3540 C   0  0  0  0  0  0  0  0  0  0  0  0
  142.9050   75.3840  219.8490 C   0  0  0  0  0  0  0  0  0  0  0  0
  142.6310   76.7340  220.0260 C   0  0  0  0  0  0  0  0  0  0  0  0
  141.5130   77.1330  220.7430 C   0  0  0  0  0  0  0  0  0  0  0  0
  140.6110   76.1890  221.2690 C   0  0  0  0  0  0  0  0  0  0  0  0
  139.4600   76.6900  222.1290 C   0  0  0  0  0  0  0  0  0  0  0  0
  139.8160   77.8780  222.7430 F   0  0  0  0  0  0  0  0  0  0  0  0
  139.1360   75.7520  223.0890 F   0  0  0  0  0  0  0  0  0  0  0  0
  138.3240   76.9370  221.3790 F   0  0  0  0  0  0  0  0  0  0  0  0
  140.8280   74.7980  221.0010 C   0  0  0  0  0  0  0  0  0  0  0  0
  139.7630   73.7610  221.3450 C   0  0  0  0  0  0  0  0  0  0  0  0
  140.0100   73.1820  222.6740 N   0  0  0  0  0  0  0  0  0  0  0  0
  140.2290   71.7240  222.6390 C   0  0  2  0  0  0  0  0  0  0  0  0
  139.1680   71.0030  221.7580 C   0  0  0  0  0  0  0  0  0  0  0  0
  139.1900   69.4750  221.9690 C   0  0  0  0  0  0  0  0  0  0  0  0
  138.8460   69.1010  223.4220 C   0  0  0  0  0  0  0  0  0  0  0  0
  139.6210   69.9610  224.3720 C   0  0  0  0  0  0  0  0  0  0  0  0
  140.1910   71.1810  224.0410 C   0  0  0  0  0  0  0  0  0  0  0  0
  140.8280   71.7200  225.1070 N   0  0  0  0  0  0  0  0  0  0  0  0
  140.6170   70.8600  226.1230 C   0  0  0  0  0  0  0  0  0  0  0  0
  141.0680   70.9790  227.4370 C   0  0  0  0  0  0  0  0  0  0  0  0
  140.7350   69.9540  228.3420 C   0  0  0  0  0  0  0  0  0  0  0  0
  139.9700   68.8450  227.9180 C   0  0  0  0  0  0  0  0  0  0  0  0
  139.5320   68.7460  226.5850 C   0  0  0  0  0  0  0  0  0  0  0  0
  139.8760   69.7770  225.7130 C   0  0  0  0  0  0  0  0  0  0  0  0
  143.8124   75.0827  219.3051 H   0  0  0  0  0  0  0  0  0  0  0  0
  143.3039   77.4902  219.5955 H   0  0  0  0  0  0  0  0  0  0  0  0
  141.3279   78.2054  220.9034 H   0  0  0  0  0  0  0  0  0  0  0  0
  138.7745   74.2434  221.3396 H   0  0  0  0  0  0  0  0  0  0  0  0
  139.7993   72.9557  220.5966 H   0  0  0  0  0  0  0  0  0  0  0  0
  139.2050   73.4110  223.3020 H   0  0  0  0  0  0  0  0  0  0  0  0
  141.2151   71.5347  222.1898 H   0  0  0  0  0  0  0  0  0  0  0  0
  138.1698   71.3841  222.0195 H   0  0  0  0  0  0  0  0  0  0  0  0
  139.4051   71.2057  220.7031 H   0  0  0  0  0  0  0  0  0  0  0  0
  138.4537   69.0107  221.2965 H   0  0  0  0  0  0  0  0  0  0  0  0
  140.2047   69.1110  221.7500 H   0  0  0  0  0  0  0  0  0  0  0  0
  137.7694   69.2508  223.5911 H   0  0  0  0  0  0  0  0  0  0  0  0
  139.1088   68.0468  223.5943 H   0  0  0  0  0  0  0  0  0  0  0  0
  141.3860   72.6010  225.1330 H   0  0  0  0  0  0  0  0  0  0  0  0
  141.6649   71.8462  227.7560 H   0  0  0  0  0  0  0  0  0  0  0  0
  141.0729   70.0170  229.3869 H   0  0  0  0  0  0  0  0  0  0  0  0
  139.7146   68.0520  228.6363 H   0  0  0  0  0  0  0  0  0  0  0  0
  138.9388   67.8851  226.2430 H   0  0  0  0  0  0  0  0  0  0  0  0
  1  2  1  0
  2  3  1  0
  2  4  1  0
  2  5  1  0
  5  6  2  0
  6  7  1  0
  7  8  2  0
  8  9  1  0
  9 10  1  0
 10 11  1  0
 10 12  1  0
 10 13  1  0
  9 14  2  0
 14 15  1  0
 15 16  1  0
 16 17  1  0
 17 18  1  0
 18 19  1  0
 19 20  1  0
 20 21  1  0
 21 22  2  0
 22 23  1  0
 23 24  1  0
 24 25  2  0
 25 26  1  0
 26 27  2  0
 27 28  1  0
 28 29  2  0
 14  5  1  0
 22 17  1  0
 29 24  1  0
 29 21  1  0
  6 30  1  0
  7 31  1  0
  8 32  1  0
 15 33  1  0
 15 34  1  0
 16 35  1  0
 17 36  1  6
 18 37  1  0
 18 38  1  0
 19 39  1  0
 19 40  1  0
 20 41  1  0
 20 42  1  0
 23 43  1  0
 25 44  1  0
 26 45  1  0
 27 46  1  0
 28 47  1  0
M  END
>  <UniqueID>  (22) 
30

>  <SMILES>  (22) 
FC(F)(F)c1cccc(C(F)(F)F)c1CN[C@@H]1CCCc2c1[nH]c1ccccc21

>  <Energy>  (22) 
95.04361686842613

>  <Genealogy>  (22) 
FC(F)(F)c1cccc(C(F)(F)F)c1CN[C@@H]1CCCc2c1[nH]c1ccccc21 (chirality)
FC(F)(F)c1cccc(C(F)(F)F)c1CN[C@@H]1CCCc2c1[nH]c1ccccc21 (3D coordinates assigned)
FC(F)(F)c1cccc(C(F)(F)F)c1CN[C@@H]1CCCc2c1[nH]c1ccccc21 (nonaromatic ring conformer: 95.04361686842613 kcal/mol)

>  <smiles>  (22) 
FC(F)(F)c1cccc(C(F)(F)F)c1CNC1CCCc2c1[nH]c1ccccc21

>  <score_type>  (22) 
oracle

>  <origin>  (22) 
autodockgpu

>  <m_score__min__energy>  (22) 
-7.4000000000000004

>  <m_primary>  (22) 
energy

>  <meeko>  (22) 
{"free_energy": -7.4, "intermolecular_energy": -8.89, "internal_energy": -1.01, "cluster_size": 11, "cluster_id": 1, "rank_in_cluster": 1}

>  <energy>  (22) 
-7.4

>  <cluster_rmsd>  (22) 
0.31

>  <rmsd>  (22) 
271.56

>  <cluster>  (22) 
1

$$$$
OEDLLKAXDUWBBK-GOSISDBHNA-N
     RDKit          3D

 47 50  0  0  0  0  0  0  0  0999 V2000
  141.5780   72.1410  219.4360 F   0  0  0  0  0  0  0  0  0  0  0  0
  142.6300   72.8480  219.9870 C   0  0  0  0  0  0  0  0  0  0  0  0
  143.7520   72.6940  219.1960 F   0  0  0  0  0  0  0  0  0  0  0  0
  142.9030   72.2780  221.2190 F   0  0  0  0  0  0  0  0  0  0  0  0
  142.2650   74.3230  220.1170 C   0  0  0  0  0  0  0  0  0  0  0  0
  143.1400   75.2780  219.5690 C   0  0  0  0  0  0  0  0  0  0  0  0
  142.9060   76.6370  219.7260 C   0  0  0  0  0  0  0  0  0  0  0  0
  141.8190   77.0790  220.4650 C   0  0  0  0  0  0  0  0  0  0  0  0
  140.9080   76.1700  221.0330 C   0  0  0  0  0  0  0  0  0  0  0  0
  139.7940   76.7180  221.9140 C   0  0  0  0  0  0  0  0  0  0  0  0
  138.6930   77.0330  221.1380 F   0  0  0  0  0  0  0  0  0  0  0  0
  140.2260   77.8460  222.5850 F   0  0  0  0  0  0  0  0  0  0  0  0
  139.3820   75.7960  222.8600 F   0  0  0  0  0  0  0  0  0  0  0  0
  141.0810   74.7690  220.7880 C   0  0  0  0  0  0  0  0  0  0  0  0
  139.9980   73.7680  221.1810 C   0  0  0  0  0  0  0  0  0  0  0  0
  140.2520   73.2280  222.5250 N   0  0  0  0  0  0  0  0  0  0  0  0
  140.3730   71.7590  222.5470 C   0  0  2  0  0  0  0  0  0  0  0  0
  139.3120   71.0790  221.6330 C   0  0  0  0  0  0  0  0  0  0  0  0
  139.2200   69.5620  221.8910 C   0  0  0  0  0  0  0  0  0  0  0  0
  138.7770   69.2610  223.3340 C   0  0  0  0  0  0  0  0  0  0  0  0
  139.5600   70.1000  224.2970 C   0  0  0  0  0  0  0  0  0  0  0  0
  140.2270   71.2670  223.9600 C   0  0  0  0  0  0  0  0  0  0  0  0
  140.8440   71.7990  225.0420 N   0  0  0  0  0  0  0  0  0  0  0  0
  140.5240   70.9900  226.0710 C   0  0  0  0  0  0  0  0  0  0  0  0
  140.9140   71.1230  227.4020 C   0  0  0  0  0  0  0  0  0  0  0  0
  140.4670   70.1540  228.3200 C   0  0  0  0  0  0  0  0  0  0  0  0
  139.6510   69.0840  227.8900 C   0  0  0  0  0  0  0  0  0  0  0  0
  139.2760   68.9690  226.5390 C   0  0  0  0  0  0  0  0  0  0  0  0
  139.7330   69.9440  225.6550 C   0  0  0  0  0  0  0  0  0  0  0  0
  144.0240   74.9425  219.0069 H   0  0  0  0  0  0  0  0  0  0  0  0
  143.5859   77.3668  219.2621 H   0  0  0  0  0  0  0  0  0  0  0  0
  141.6665   78.1588  220.6095 H   0  0  0  0  0  0  0  0  0  0  0  0
  139.0204   74.2722  221.1733 H   0  0  0  0  0  0  0  0  0  0  0  0
  140.0051   72.9379  220.4593 H   0  0  0  0  0  0  0  0  0  0  0  0
  139.4860   73.5360  223.1680 H   0  0  0  0  0  0  0  0  0  0  0  0
  141.3660   71.4908  222.1572 H   0  0  0  0  0  0  0  0  0  0  0  0
  138.3297   71.5335  221.8292 H   0  0  0  0  0  0  0  0  0  0  0  0
  139.6162   71.2294  220.5866 H   0  0  0  0  0  0  0  0  0  0  0  0
  138.4897   69.1246  221.1943 H   0  0  0  0  0  0  0  0  0  0  0  0
  140.2177   69.1248  221.7380 H   0  0  0  0  0  0  0  0  0  0  0  0
  137.7059   69.4878  223.4408 H   0  0  0  0  0  0  0  0  0  0  0  0
  138.9574   68.1981  223.5523 H   0  0  0  0  0  0  0  0  0  0  0  0
  141.4590   72.6410  225.0710 H   0  0  0  0  0  0  0  0  0  0  0  0
  141.5514   71.9592  227.7254 H   0  0  0  0  0  0  0  0  0  0  0  0
  140.7549   70.2304  229.3789 H   0  0  0  0  0  0  0  0  0  0  0  0
  139.3060   68.3346  228.6175 H   0  0  0  0  0  0  0  0  0  0  0  0
  138.6439   68.1381  226.1926 H   0  0  0  0  0  0  0  0  0  0  0  0
  1  2  1  0
  2  3  1  0
  2  4  1  0
  2  5  1  0
  5  6  2  0
  6  7  1  0
  7  8  2  0
  8  9  1  0
  9 10  1  0
 10 11  1  0
 10 12  1  0
 10 13  1  0
  9 14  2  0
 14 15  1  0
 15 16  1  0
 16 17  1  0
 17 18  1  0
 18 19  1  0
 19 20  1  0
 20 21  1  0
 21 22  2  0
 22 23  1  0
 23 24  1  0
 24 25  2  0
 25 26  1  0
 26 27  2  0
 27 28  1  0
 28 29  2  0
 14  5  1  0
 22 17  1  0
 29 24  1  0
 29 21  1  0
  6 30  1  0
  7 31  1  0
  8 32  1  0
 15 33  1  0
 15 34  1  0
 16 35  1  0
 17 36  1  6
 18 37  1  0
 18 38  1  0
 19 39  1  0
 19 40  1  0
 20 41  1  0
 20 42  1  0
 23 43  1  0
 25 44  1  0
 26 45  1  0
 27 46  1  0
 28 47  1  0
M  END
>  <UniqueID>  (23) 
30

>  <SMILES>  (23) 
FC(F)(F)c1cccc(C(F)(F)F)c1CN[C@@H]1CCCc2c1[nH]c1ccccc21

>  <Energy>  (23) 
95.04361686842613

>  <Genealogy>  (23) 
FC(F)(F)c1cccc(C(F)(F)F)c1CN[C@@H]1CCCc2c1[nH]c1ccccc21 (chirality)
FC(F)(F)c1cccc(C(F)(F)F)c1CN[C@@H]1CCCc2c1[nH]c1ccccc21 (3D coordinates assigned)
FC(F)(F)c1cccc(C(F)(F)F)c1CN[C@@H]1CCCc2c1[nH]c1ccccc21 (nonaromatic ring conformer: 95.04361686842613 kcal/mol)

>  <smiles>  (23) 
FC(F)(F)c1cccc(C(F)(F)F)c1CNC1CCCc2c1[nH]c1ccccc21

>  <score_type>  (23) 
oracle

>  <origin>  (23) 
autodockgpu

>  <m_score__min__energy>  (23) 
-7.4000000000000004

>  <m_primary>  (23) 
energy

>  <meeko>  (23) 
{"free_energy": -7.4, "intermolecular_energy": -8.89, "internal_energy": -1.02, "cluster_size": 11, "cluster_id": 1, "rank_in_cluster": 2}

>  <energy>  (23) 
-7.4

>  <cluster_rmsd>  (23) 
0.33

>  <rmsd>  (23) 
271.56

>  <cluster>  (23) 
1

$$$$
OEDLLKAXDUWBBK-GOSISDBHNA-N
     RDKit          3D

 47 50  0  0  0  0  0  0  0  0999 V2000
  143.7970   72.9460  219.5000 F   0  0  0  0  0  0  0  0  0  0  0  0
  142.5780   72.9880  220.1500 C   0  0  0  0  0  0  0  0  0  0  0  0
  142.6910   72.3700  221.3790 F   0  0  0  0  0  0  0  0  0  0  0  0
  141.6860   72.2520  219.3890 F   0  0  0  0  0  0  0  0  0  0  0  0
  142.1180   74.4330  220.3160 C   0  0  0  0  0  0  0  0  0  0  0  0
  142.9590   75.4580  219.8490 C   0  0  0  0  0  0  0  0  0  0  0  0
  142.6370   76.7940  220.0450 C   0  0  0  0  0  0  0  0  0  0  0  0
  141.4910   77.1420  220.7450 C   0  0  0  0  0  0  0  0  0  0  0  0
  140.6100   76.1590  221.2330 C   0  0  0  0  0  0  0  0  0  0  0  0
  139.4250   76.6060  222.0770 C   0  0  0  0  0  0  0  0  0  0  0  0
  139.6720   77.8610  222.6050 F   0  0  0  0  0  0  0  0  0  0  0  0
  139.2030   75.7080  223.1030 F   0  0  0  0  0  0  0  0  0  0  0  0
  138.2630   76.6920  221.3310 F   0  0  0  0  0  0  0  0  0  0  0  0
  140.8790   74.7820  220.9440 C   0  0  0  0  0  0  0  0  0  0  0  0
  139.8410   73.7040  221.2450 C   0  0  0  0  0  0  0  0  0  0  0  0
  140.0420   73.1500  222.5930 N   0  0  0  0  0  0  0  0  0  0  0  0
  140.2390   71.6890  222.5950 C   0  0  2  0  0  0  0  0  0  0  0  0
  139.1650   70.9610  221.7360 C   0  0  0  0  0  0  0  0  0  0  0  0
  139.1650   69.4390  221.9870 C   0  0  0  0  0  0  0  0  0  0  0  0
  138.8210   69.1080  223.4500 C   0  0  0  0  0  0  0  0  0  0  0  0
  139.6120   69.9810  224.3750 C   0  0  0  0  0  0  0  0  0  0  0  0
  140.1990   71.1830  224.0110 C   0  0  0  0  0  0  0  0  0  0  0  0
  140.8470   71.7390  225.0600 N   0  0  0  0  0  0  0  0  0  0  0  0
  140.6280   70.9100  226.0990 C   0  0  0  0  0  0  0  0  0  0  0  0
  141.0840   71.0550  227.4080 C   0  0  0  0  0  0  0  0  0  0  0  0
  140.7400   70.0600  228.3410 C   0  0  0  0  0  0  0  0  0  0  0  0
  139.9570   68.9510  227.9480 C   0  0  0  0  0  0  0  0  0  0  0  0
  139.5130   68.8250  226.6200 C   0  0  0  0  0  0  0  0  0  0  0  0
  139.8690   69.8270  225.7190 C   0  0  0  0  0  0  0  0  0  0  0  0
  143.8873   75.1972  219.3197 H   0  0  0  0  0  0  0  0  0  0  0  0
  143.2934   77.5801  219.6435 H   0  0  0  0  0  0  0  0  0  0  0  0
  141.2671   78.2044  220.9216 H   0  0  0  0  0  0  0  0  0  0  0  0
  138.8348   74.1440  221.1818 H   0  0  0  0  0  0  0  0  0  0  0  0
  139.9500   72.8932  220.5097 H   0  0  0  0  0  0  0  0  0  0  0  0
  139.2240   73.4040  223.1940 H   0  0  0  0  0  0  0  0  0  0  0  0
  141.2204   71.4734  222.1473 H   0  0  0  0  0  0  0  0  0  0  0  0
  138.1733   71.3636  221.9899 H   0  0  0  0  0  0  0  0  0  0  0  0
  139.4020   71.1324  220.6756 H   0  0  0  0  0  0  0  0  0  0  0  0
  138.4193   68.9684  221.3293 H   0  0  0  0  0  0  0  0  0  0  0  0
  140.1734   69.0544  221.7744 H   0  0  0  0  0  0  0  0  0  0  0  0
  137.7474   69.2779  223.6187 H   0  0  0  0  0  0  0  0  0  0  0  0
  139.0691   68.0549  223.6488 H   0  0  0  0  0  0  0  0  0  0  0  0
  141.4190   72.6120  225.0620 H   0  0  0  0  0  0  0  0  0  0  0  0
  141.6944   71.9213  227.7027 H   0  0  0  0  0  0  0  0  0  0  0  0
  141.0825   70.1456  229.3828 H   0  0  0  0  0  0  0  0  0  0  0  0
  139.6929   68.1803  228.6871 H   0  0  0  0  0  0  0  0  0  0  0  0
  138.9052   67.9648  226.3028 H   0  0  0  0  0  0  0  0  0  0  0  0
  1  2  1  0
  2  3  1  0
  2  4  1  0
  2  5  1  0
  5  6  2  0
  6  7  1  0
  7  8  2  0
  8  9  1  0
  9 10  1  0
 10 11  1  0
 10 12  1  0
 10 13  1  0
  9 14  2  0
 14 15  1  0
 15 16  1  0
 16 17  1  0
 17 18  1  0
 18 19  1  0
 19 20  1  0
 20 21  1  0
 21 22  2  0
 22 23  1  0
 23 24  1  0
 24 25  2  0
 25 26  1  0
 26 27  2  0
 27 28  1  0
 28 29  2  0
 14  5  1  0
 22 17  1  0
 29 24  1  0
 29 21  1  0
  6 30  1  0
  7 31  1  0
  8 32  1  0
 15 33  1  0
 15 34  1  0
 16 35  1  0
 17 36  1  6
 18 37  1  0
 18 38  1  0
 19 39  1  0
 19 40  1  0
 20 41  1  0
 20 42  1  0
 23 43  1  0
 25 44  1  0
 26 45  1  0
 27 46  1  0
 28 47  1  0
M  END
>  <UniqueID>  (24) 
30

>  <SMILES>  (24) 
FC(F)(F)c1cccc(C(F)(F)F)c1CN[C@@H]1CCCc2c1[nH]c1ccccc21

>  <Energy>  (24) 
95.04361686842613

>  <Genealogy>  (24) 
FC(F)(F)c1cccc(C(F)(F)F)c1CN[C@@H]1CCCc2c1[nH]c1ccccc21 (chirality)
FC(F)(F)c1cccc(C(F)(F)F)c1CN[C@@H]1CCCc2c1[nH]c1ccccc21 (3D coordinates assigned)
FC(F)(F)c1cccc(C(F)(F)F)c1CN[C@@H]1CCCc2c1[nH]c1ccccc21 (nonaromatic ring conformer: 95.04361686842613 kcal/mol)

>  <smiles>  (24) 
FC(F)(F)c1cccc(C(F)(F)F)c1CNC1CCCc2c1[nH]c1ccccc21

>  <score_type>  (24) 
oracle

>  <origin>  (24) 
autodockgpu

>  <m_score__min__energy>  (24) 
-7.4000000000000004

>  <m_primary>  (24) 
energy

>  <meeko>  (24) 
{"free_energy": -7.35, "intermolecular_energy": -8.84, "internal_energy": -1.05, "cluster_size": 11, "cluster_id": 1, "rank_in_cluster": 11}

>  <energy>  (24) 
-7.4

>  <cluster_rmsd>  (24) 
0.32

>  <rmsd>  (24) 
271.54

>  <cluster>  (24) 
1

$$$$
OEDLLKAXDUWBBK-GOSISDBHNA-N
     RDKit          3D

 47 50  0  0  0  0  0  0  0  0999 V2000
  143.5450   72.0290  219.4720 F   0  0  0  0  0  0  0  0  0  0  0  0
  142.4680   72.3990  220.2560 C   0  0  0  0  0  0  0  0  0  0  0  0
  142.6650   71.9530  221.5480 F   0  0  0  0  0  0  0  0  0  0  0  0
  141.3550   71.7480  219.7520 F   0  0  0  0  0  0  0  0  0  0  0  0
  142.2940   73.9140  220.2320 C   0  0  0  0  0  0  0  0  0  0  0  0
  143.3250   74.6950  219.6790 C   0  0  0  0  0  0  0  0  0  0  0  0
  143.2650   76.0810  219.7030 C   0  0  0  0  0  0  0  0  0  0  0  0
  142.1970   76.7250  220.3110 C   0  0  0  0  0  0  0  0  0  0  0  0
  141.1360   75.9960  220.8780 C   0  0  0  0  0  0  0  0  0  0  0  0
  140.0470   76.7610  221.6160 C   0  0  0  0  0  0  0  0  0  0  0  0
  139.6140   76.0260  222.7060 F   0  0  0  0  0  0  0  0  0  0  0  0
  138.9810   77.0100  220.7740 F   0  0  0  0  0  0  0  0  0  0  0  0
  140.5030   77.9780  222.0930 F   0  0  0  0  0  0  0  0  0  0  0  0
  141.1370   74.5680  220.7650 C   0  0  0  0  0  0  0  0  0  0  0  0
  139.9060   73.7530  221.1510 C   0  0  0  0  0  0  0  0  0  0  0  0
  140.0400   73.2220  222.5160 N   0  0  0  0  0  0  0  0  0  0  0  0
  140.1100   71.7490  222.5610 C   0  0  2  0  0  0  0  0  0  0  0  0
  138.9440   71.0930  221.7660 C   0  0  0  0  0  0  0  0  0  0  0  0
  138.8220   69.5850  222.0670 C   0  0  0  0  0  0  0  0  0  0  0  0
  138.5060   69.3300  223.5520 C   0  0  0  0  0  0  0  0  0  0  0  0
  139.4040   70.1580  224.4190 C   0  0  0  0  0  0  0  0  0  0  0  0
  140.0790   71.2920  223.9930 C   0  0  0  0  0  0  0  0  0  0  0  0
  140.8130   71.8220  225.0000 N   0  0  0  0  0  0  0  0  0  0  0  0
  140.5620   71.0470  226.0730 C   0  0  0  0  0  0  0  0  0  0  0  0
  141.0790   71.1920  227.3600 C   0  0  0  0  0  0  0  0  0  0  0  0
  140.6850   70.2590  228.3370 C   0  0  0  0  0  0  0  0  0  0  0  0
  139.7940   69.2120  228.0100 C   0  0  0  0  0  0  0  0  0  0  0  0
  139.2910   69.0850  226.7030 C   0  0  0  0  0  0  0  0  0  0  0  0
  139.6990   70.0240  225.7570 C   0  0  0  0  0  0  0  0  0  0  0  0
  144.1929   74.1989  219.2201 H   0  0  0  0  0  0  0  0  0  0  0  0
  144.0678   76.6719  219.2379 H   0  0  0  0  0  0  0  0  0  0  0  0
  142.1797   77.8242  220.3503 H   0  0  0  0  0  0  0  0  0  0  0  0
  139.0160   74.3974  221.1002 H   0  0  0  0  0  0  0  0  0  0  0  0
  139.8074   72.9094  220.4519 H   0  0  0  0  0  0  0  0  0  0  0  0
  139.2400   73.5620  223.0970 H   0  0  0  0  0  0  0  0  0  0  0  0
  141.0517   71.4346  222.0873 H   0  0  0  0  0  0  0  0  0  0  0  0
  138.0016   71.5885  222.0424 H   0  0  0  0  0  0  0  0  0  0  0  0
  139.1532   71.2114  220.6926 H   0  0  0  0  0  0  0  0  0  0  0  0
  138.0142   69.1619  221.4519 H   0  0  0  0  0  0  0  0  0  0  0  0
  139.7845   69.1071  221.8319 H   0  0  0  0  0  0  0  0  0  0  0  0
  137.4582   69.5985  223.7523 H   0  0  0  0  0  0  0  0  0  0  0  0
  138.6693   68.2658  223.7772 H   0  0  0  0  0  0  0  0  0  0  0  0
  141.4580   72.6400  224.9520 H   0  0  0  0  0  0  0  0  0  0  0  0
  141.7729   72.0099  227.6038 H   0  0  0  0  0  0  0  0  0  0  0  0
  141.0733   70.3453  229.3626 H   0  0  0  0  0  0  0  0  0  0  0  0
  139.4917   68.4909  228.7837 H   0  0  0  0  0  0  0  0  0  0  0  0
  138.5992   68.2724  226.4362 H   0  0  0  0  0  0  0  0  0  0  0  0
  1  2  1  0
  2  3  1  0
  2  4  1  0
  2  5  1  0
  5  6  2  0
  6  7  1  0
  7  8  2  0
  8  9  1  0
  9 10  1  0
 10 11  1  0
 10 12  1  0
 10 13  1  0
  9 14  2  0
 14 15  1  0
 15 16  1  0
 16 17  1  0
 17 18  1  0
 18 19  1  0
 19 20  1  0
 20 21  1  0
 21 22  2  0
 22 23  1  0
 23 24  1  0
 24 25  2  0
 25 26  1  0
 26 27  2  0
 27 28  1  0
 28 29  2  0
 14  5  1  0
 22 17  1  0
 29 24  1  0
 29 21  1  0
  6 30  1  0
  7 31  1  0
  8 32  1  0
 15 33  1  0
 15 34  1  0
 16 35  1  0
 17 36  1  6
 18 37  1  0
 18 38  1  0
 19 39  1  0
 19 40  1  0
 20 41  1  0
 20 42  1  0
 23 43  1  0
 25 44  1  0
 26 45  1  0
 27 46  1  0
 28 47  1  0
M  END
>  <UniqueID>  (25) 
30

>  <SMILES>  (25) 
FC(F)(F)c1cccc(C(F)(F)F)c1CN[C@@H]1CCCc2c1[nH]c1ccccc21

>  <Energy>  (25) 
95.04361686842613

>  <Genealogy>  (25) 
FC(F)(F)c1cccc(C(F)(F)F)c1CN[C@@H]1CCCc2c1[nH]c1ccccc21 (chirality)
FC(F)(F)c1cccc(C(F)(F)F)c1CN[C@@H]1CCCc2c1[nH]c1ccccc21 (3D coordinates assigned)
FC(F)(F)c1cccc(C(F)(F)F)c1CN[C@@H]1CCCc2c1[nH]c1ccccc21 (nonaromatic ring conformer: 95.04361686842613 kcal/mol)

>  <smiles>  (25) 
FC(F)(F)c1cccc(C(F)(F)F)c1CNC1CCCc2c1[nH]c1ccccc21

>  <score_type>  (25) 
oracle

>  <origin>  (25) 
autodockgpu

>  <m_score__min__energy>  (25) 
-7.4000000000000004

>  <m_primary>  (25) 
energy

>  <meeko>  (25) 
{"free_energy": -7.37, "intermolecular_energy": -8.86, "internal_energy": -1.04, "cluster_size": 11, "cluster_id": 1, "rank_in_cluster": 9}

>  <energy>  (25) 
-7.39

>  <cluster_rmsd>  (25) 
0.27

>  <rmsd>  (25) 
271.57

>  <cluster>  (25) 
1

$$$$
OEDLLKAXDUWBBK-GOSISDBHNA-N
     RDKit          3D

 47 50  0  0  0  0  0  0  0  0999 V2000
  142.8200   72.5610  221.2740 F   0  0  0  0  0  0  0  0  0  0  0  0
  142.6670   73.1810  220.0490 C   0  0  0  0  0  0  0  0  0  0  0  0
  141.7920   72.4500  219.2690 F   0  0  0  0  0  0  0  0  0  0  0  0
  143.9030   73.1610  219.4250 F   0  0  0  0  0  0  0  0  0  0  0  0
  142.1540   74.6050  220.2390 C   0  0  0  0  0  0  0  0  0  0  0  0
  142.9360   75.6660  219.7480 C   0  0  0  0  0  0  0  0  0  0  0  0
  142.5660   76.9870  219.9620 C   0  0  0  0  0  0  0  0  0  0  0  0
  141.4320   77.2850  220.7030 C   0  0  0  0  0  0  0  0  0  0  0  0
  140.6100   76.2640  221.2160 C   0  0  0  0  0  0  0  0  0  0  0  0
  139.4380   76.6590  222.1030 C   0  0  0  0  0  0  0  0  0  0  0  0
  139.2500   75.7020  223.0850 F   0  0  0  0  0  0  0  0  0  0  0  0
  138.2870   76.7810  221.3490 F   0  0  0  0  0  0  0  0  0  0  0  0
  139.6560   77.8680  222.7410 F   0  0  0  0  0  0  0  0  0  0  0  0
  140.9240   74.9010  220.9110 C   0  0  0  0  0  0  0  0  0  0  0  0
  139.9430   73.7800  221.2410 C   0  0  0  0  0  0  0  0  0  0  0  0
  140.2130   73.2300  222.5790 N   0  0  0  0  0  0  0  0  0  0  0  0
  140.3440   71.7610  222.5860 C   0  0  2  0  0  0  0  0  0  0  0  0
  139.2820   71.0830  221.6720 C   0  0  0  0  0  0  0  0  0  0  0  0
  139.2020   69.5630  221.9170 C   0  0  0  0  0  0  0  0  0  0  0  0
  138.7710   69.2450  223.3600 C   0  0  0  0  0  0  0  0  0  0  0  0
  139.5530   70.0810  224.3260 C   0  0  0  0  0  0  0  0  0  0  0  0
  140.2100   71.2560  223.9960 C   0  0  0  0  0  0  0  0  0  0  0  0
  140.8300   71.7820  225.0780 N   0  0  0  0  0  0  0  0  0  0  0  0
  140.5220   70.9610  226.1020 C   0  0  0  0  0  0  0  0  0  0  0  0
  140.9190   71.0850  227.4320 C   0  0  0  0  0  0  0  0  0  0  0  0
  140.4840   70.1040  228.3440 C   0  0  0  0  0  0  0  0  0  0  0  0
  139.6730   69.0320  227.9080 C   0  0  0  0  0  0  0  0  0  0  0  0
  139.2910   68.9270  226.5590 C   0  0  0  0  0  0  0  0  0  0  0  0
  139.7360   69.9140  225.6810 C   0  0  0  0  0  0  0  0  0  0  0  0
  143.8553   75.4457  219.1855 H   0  0  0  0  0  0  0  0  0  0  0  0
  143.1750   77.8010  219.5419 H   0  0  0  0  0  0  0  0  0  0  0  0
  141.1708   78.3365  220.8929 H   0  0  0  0  0  0  0  0  0  0  0  0
  138.9178   74.1778  221.2142 H   0  0  0  0  0  0  0  0  0  0  0  0
  140.0603   72.9772  220.4982 H   0  0  0  0  0  0  0  0  0  0  0  0
  139.4500   73.5270  223.2320 H   0  0  0  0  0  0  0  0  0  0  0  0
  141.3359   71.5020  222.1873 H   0  0  0  0  0  0  0  0  0  0  0  0
  138.2979   71.5291  221.8782 H   0  0  0  0  0  0  0  0  0  0  0  0
  139.5783   71.2453  220.6252 H   0  0  0  0  0  0  0  0  0  0  0  0
  138.4700   69.1271  221.2212 H   0  0  0  0  0  0  0  0  0  0  0  0
  140.2018   69.1345  221.7536 H   0  0  0  0  0  0  0  0  0  0  0  0
  137.6988   69.4620  223.4758 H   0  0  0  0  0  0  0  0  0  0  0  0
  138.9618   68.1816  223.5670 H   0  0  0  0  0  0  0  0  0  0  0  0
  141.4390   72.6280  225.1110 H   0  0  0  0  0  0  0  0  0  0  0  0
  141.5523   71.9228  227.7592 H   0  0  0  0  0  0  0  0  0  0  0  0
  140.7772   70.1726  229.4020 H   0  0  0  0  0  0  0  0  0  0  0  0
  139.3377   68.2731  228.6303 H   0  0  0  0  0  0  0  0  0  0  0  0
  138.6628   68.0948  226.2086 H   0  0  0  0  0  0  0  0  0  0  0  0
  1  2  1  0
  2  3  1  0
  2  4  1  0
  2  5  1  0
  5  6  2  0
  6  7  1  0
  7  8  2  0
  8  9  1  0
  9 10  1  0
 10 11  1  0
 10 12  1  0
 10 13  1  0
  9 14  2  0
 14 15  1  0
 15 16  1  0
 16 17  1  0
 17 18  1  0
 18 19  1  0
 19 20  1  0
 20 21  1  0
 21 22  2  0
 22 23  1  0
 23 24  1  0
 24 25  2  0
 25 26  1  0
 26 27  2  0
 27 28  1  0
 28 29  2  0
 14  5  1  0
 22 17  1  0
 29 24  1  0
 29 21  1  0
  6 30  1  0
  7 31  1  0
  8 32  1  0
 15 33  1  0
 15 34  1  0
 16 35  1  0
 17 36  1  6
 18 37  1  0
 18 38  1  0
 19 39  1  0
 19 40  1  0
 20 41  1  0
 20 42  1  0
 23 43  1  0
 25 44  1  0
 26 45  1  0
 27 46  1  0
 28 47  1  0
M  END
>  <UniqueID>  (26) 
30

>  <SMILES>  (26) 
FC(F)(F)c1cccc(C(F)(F)F)c1CN[C@@H]1CCCc2c1[nH]c1ccccc21

>  <Energy>  (26) 
95.04361686842613

>  <Genealogy>  (26) 
FC(F)(F)c1cccc(C(F)(F)F)c1CN[C@@H]1CCCc2c1[nH]c1ccccc21 (chirality)
FC(F)(F)c1cccc(C(F)(F)F)c1CN[C@@H]1CCCc2c1[nH]c1ccccc21 (3D coordinates assigned)
FC(F)(F)c1cccc(C(F)(F)F)c1CN[C@@H]1CCCc2c1[nH]c1ccccc21 (nonaromatic ring conformer: 95.04361686842613 kcal/mol)

>  <smiles>  (26) 
FC(F)(F)c1cccc(C(F)(F)F)c1CNC1CCCc2c1[nH]c1ccccc21

>  <score_type>  (26) 
oracle

>  <origin>  (26) 
autodockgpu

>  <m_score__min__energy>  (26) 
-7.4000000000000004

>  <m_primary>  (26) 
energy

>  <meeko>  (26) 
{"free_energy": -7.35, "intermolecular_energy": -8.85, "internal_energy": -1.03, "cluster_size": 11, "cluster_id": 1, "rank_in_cluster": 10}

>  <energy>  (26) 
-7.38

>  <cluster_rmsd>  (26) 
0.31

>  <rmsd>  (26) 
271.58

>  <cluster>  (26) 
1

$$$$
OEDLLKAXDUWBBK-GOSISDBHNA-N
     RDKit          3D

 47 50  0  0  0  0  0  0  0  0999 V2000
  142.8100   78.2620  218.6020 F   0  0  0  0  0  0  0  0  0  0  0  0
  141.8270   77.5050  219.2110 C   0  0  0  0  0  0  0  0  0  0  0  0
  140.8300   77.2250  218.2970 F   0  0  0  0  0  0  0  0  0  0  0  0
  141.2730   78.2860  220.2110 F   0  0  0  0  0  0  0  0  0  0  0  0
  142.4220   76.2160  219.7670 C   0  0  0  0  0  0  0  0  0  0  0  0
  143.8180   76.0510  219.7180 C   0  0  0  0  0  0  0  0  0  0  0  0
  144.4140   74.8670  220.1310 C   0  0  0  0  0  0  0  0  0  0  0  0
  143.6340   73.8050  220.5660 C   0  0  0  0  0  0  0  0  0  0  0  0
  142.2340   73.9150  220.6390 C   0  0  0  0  0  0  0  0  0  0  0  0
  141.4320   72.6810  221.0290 C   0  0  0  0  0  0  0  0  0  0  0  0
  142.2020   71.5450  220.8500 F   0  0  0  0  0  0  0  0  0  0  0  0
  140.2880   72.5900  220.2610 F   0  0  0  0  0  0  0  0  0  0  0  0
  141.0470   72.7130  222.3590 F   0  0  0  0  0  0  0  0  0  0  0  0
  141.6170   75.1660  220.3160 C   0  0  0  0  0  0  0  0  0  0  0  0
  140.1370   75.4060  220.6030 C   0  0  0  0  0  0  0  0  0  0  0  0
  139.8010   74.9950  221.9750 N   0  0  0  0  0  0  0  0  0  0  0  0
  139.0480   76.0220  222.7190 C   0  0  2  0  0  0  0  0  0  0  0  0
  137.6300   76.2460  222.1180 C   0  0  0  0  0  0  0  0  0  0  0  0
  136.9650   77.5200  222.6760 C   0  0  0  0  0  0  0  0  0  0  0  0
  137.7720   78.7810  222.3180 C   0  0  0  0  0  0  0  0  0  0  0  0
  139.2270   78.5580  222.5960 C   0  0  0  0  0  0  0  0  0  0  0  0
  139.8220   77.3110  222.7120 C   0  0  0  0  0  0  0  0  0  0  0  0
  141.1460   77.4310  222.9680 N   0  0  0  0  0  0  0  0  0  0  0  0
  141.3920   78.7560  222.9660 C   0  0  0  0  0  0  0  0  0  0  0  0
  142.6180   79.3870  223.1740 C   0  0  0  0  0  0  0  0  0  0  0  0
  142.6500   80.7930  223.1340 C   0  0  0  0  0  0  0  0  0  0  0  0
  141.4690   81.5290  222.8920 C   0  0  0  0  0  0  0  0  0  0  0  0
  140.2440   80.8690  222.6900 C   0  0  0  0  0  0  0  0  0  0  0  0
  140.2440   79.4760  222.7340 C   0  0  0  0  0  0  0  0  0  0  0  0
  144.4475   76.8731  219.3466 H   0  0  0  0  0  0  0  0  0  0  0  0
  145.5096   74.7704  220.1133 H   0  0  0  0  0  0  0  0  0  0  0  0
  144.1187   72.8618  220.8584 H   0  0  0  0  0  0  0  0  0  0  0  0
  139.9144   76.4764  220.4818 H   0  0  0  0  0  0  0  0  0  0  0  0
  139.5385   74.8100  219.8983 H   0  0  0  0  0  0  0  0  0  0  0  0
  140.6820   74.7530  222.4860 H   0  0  0  0  0  0  0  0  0  0  0  0
  138.9161   75.6699  223.7528 H   0  0  0  0  0  0  0  0  0  0  0  0
  137.7173   76.3395  221.0255 H   0  0  0  0  0  0  0  0  0  0  0  0
  137.0028   75.3851  222.3929 H   0  0  0  0  0  0  0  0  0  0  0  0
  135.9540   77.6104  222.2521 H   0  0  0  0  0  0  0  0  0  0  0  0
  136.9241   77.4361  223.7720 H   0  0  0  0  0  0  0  0  0  0  0  0
  137.6364   79.0086  221.2504 H   0  0  0  0  0  0  0  0  0  0  0  0
  137.4139   79.6227  222.9289 H   0  0  0  0  0  0  0  0  0  0  0  0
  141.8280   76.6640  223.1540 H   0  0  0  0  0  0  0  0  0  0  0  0
  143.5313   78.8039  223.3634 H   0  0  0  0  0  0  0  0  0  0  0  0
  143.6010   81.3226  223.2923 H   0  0  0  0  0  0  0  0  0  0  0  0
  141.5079   82.6279  222.8613 H   0  0  0  0  0  0  0  0  0  0  0  0
  139.3179   81.4325  222.5037 H   0  0  0  0  0  0  0  0  0  0  0  0
  1  2  1  0
  2  3  1  0
  2  4  1  0
  2  5  1  0
  5  6  2  0
  6  7  1  0
  7  8  2  0
  8  9  1  0
  9 10  1  0
 10 11  1  0
 10 12  1  0
 10 13  1  0
  9 14  2  0
 14 15  1  0
 15 16  1  0
 16 17  1  0
 17 18  1  0
 18 19  1  0
 19 20  1  0
 20 21  1  0
 21 22  2  0
 22 23  1  0
 23 24  1  0
 24 25  2  0
 25 26  1  0
 26 27  2  0
 27 28  1  0
 28 29  2  0
 14  5  1  0
 22 17  1  0
 29 24  1  0
 29 21  1  0
  6 30  1  0
  7 31  1  0
  8 32  1  0
 15 33  1  0
 15 34  1  0
 16 35  1  0
 17 36  1  1
 18 37  1  0
 18 38  1  0
 19 39  1  0
 19 40  1  0
 20 41  1  0
 20 42  1  0
 23 43  1  0
 25 44  1  0
 26 45  1  0
 27 46  1  0
 28 47  1  0
M  END
>  <UniqueID>  (27) 
30

>  <SMILES>  (27) 
FC(F)(F)c1cccc(C(F)(F)F)c1CN[C@@H]1CCCc2c1[nH]c1ccccc21

>  <Energy>  (27) 
95.04361686842613

>  <Genealogy>  (27) 
FC(F)(F)c1cccc(C(F)(F)F)c1CN[C@@H]1CCCc2c1[nH]c1ccccc21 (chirality)
FC(F)(F)c1cccc(C(F)(F)F)c1CN[C@@H]1CCCc2c1[nH]c1ccccc21 (3D coordinates assigned)
FC(F)(F)c1cccc(C(F)(F)F)c1CN[C@@H]1CCCc2c1[nH]c1ccccc21 (nonaromatic ring conformer: 95.04361686842613 kcal/mol)

>  <smiles>  (27) 
FC(F)(F)c1cccc(C(F)(F)F)c1CNC1CCCc2c1[nH]c1ccccc21

>  <score_type>  (27) 
oracle

>  <origin>  (27) 
autodockgpu

>  <m_score__min__energy>  (27) 
-7.4000000000000004

>  <m_primary>  (27) 
energy

>  <meeko>  (27) 
{"free_energy": -6.7, "intermolecular_energy": -8.2, "internal_energy": -1.73, "cluster_size": 9, "cluster_id": 2, "rank_in_cluster": 3}

>  <energy>  (27) 
-7.38

>  <cluster_rmsd>  (27) 
0.17

>  <rmsd>  (27) 
271.6

>  <cluster>  (27) 
1

$$$$
OEDLLKAXDUWBBK-GOSISDBHNA-N
     RDKit          3D

 47 50  0  0  0  0  0  0  0  0999 V2000
  141.4450   78.3240  220.2610 F   0  0  0  0  0  0  0  0  0  0  0  0
  141.8060   77.4880  219.2220 C   0  0  0  0  0  0  0  0  0  0  0  0
  142.7010   78.1400  218.3970 F   0  0  0  0  0  0  0  0  0  0  0  0
  140.6600   77.2390  218.4840 F   0  0  0  0  0  0  0  0  0  0  0  0
  142.4160   76.2020  219.7670 C   0  0  0  0  0  0  0  0  0  0  0  0
  143.8140   76.0520  219.7120 C   0  0  0  0  0  0  0  0  0  0  0  0
  144.4240   74.8720  220.1150 C   0  0  0  0  0  0  0  0  0  0  0  0
  143.6570   73.7980  220.5440 C   0  0  0  0  0  0  0  0  0  0  0  0
  142.2550   73.8920  220.6230 C   0  0  0  0  0  0  0  0  0  0  0  0
  141.4690   72.6470  221.0060 C   0  0  0  0  0  0  0  0  0  0  0  0
  141.0770   72.7280  222.3310 F   0  0  0  0  0  0  0  0  0  0  0  0
  142.2400   71.5170  220.8200 F   0  0  0  0  0  0  0  0  0  0  0  0
  140.3210   72.5050  220.2450 F   0  0  0  0  0  0  0  0  0  0  0  0
  141.6240   75.1390  220.3100 C   0  0  0  0  0  0  0  0  0  0  0  0
  140.1430   75.3610  220.6040 C   0  0  0  0  0  0  0  0  0  0  0  0
  139.8280   74.9950  221.9930 N   0  0  0  0  0  0  0  0  0  0  0  0
  139.0610   76.0340  222.7060 C   0  0  2  0  0  0  0  0  0  0  0  0
  137.6650   76.2670  222.0570 C   0  0  0  0  0  0  0  0  0  0  0  0
  136.9950   77.5510  222.5850 C   0  0  0  0  0  0  0  0  0  0  0  0
  137.8250   78.8020  222.2450 C   0  0  0  0  0  0  0  0  0  0  0  0
  139.2670   78.5670  222.5720 C   0  0  0  0  0  0  0  0  0  0  0  0
  139.8460   77.3160  222.7150 C   0  0  0  0  0  0  0  0  0  0  0  0
  141.1620   77.4260  223.0130 N   0  0  0  0  0  0  0  0  0  0  0  0
  141.4220   78.7480  223.0110 C   0  0  0  0  0  0  0  0  0  0  0  0
  142.6450   79.3690  223.2550 C   0  0  0  0  0  0  0  0  0  0  0  0
  142.6920   80.7750  223.2070 C   0  0  0  0  0  0  0  0  0  0  0  0
  141.5260   81.5200  222.9210 C   0  0  0  0  0  0  0  0  0  0  0  0
  140.3030   80.8690  222.6840 C   0  0  0  0  0  0  0  0  0  0  0  0
  140.2880   79.4770  222.7370 C   0  0  0  0  0  0  0  0  0  0  0  0
  144.4334   76.8831  219.3438 H   0  0  0  0  0  0  0  0  0  0  0  0
  145.5206   74.7878  220.0942 H   0  0  0  0  0  0  0  0  0  0  0  0
  144.1530   72.8578  220.8269 H   0  0  0  0  0  0  0  0  0  0  0  0
  139.8986   76.4218  220.4458 H   0  0  0  0  0  0  0  0  0  0  0  0
  139.5496   74.7276  219.9282 H   0  0  0  0  0  0  0  0  0  0  0  0
  140.7180   74.7910  222.5040 H   0  0  0  0  0  0  0  0  0  0  0  0
  138.8932   75.6901  223.7373 H   0  0  0  0  0  0  0  0  0  0  0  0
  137.7887   76.3523  220.9673 H   0  0  0  0  0  0  0  0  0  0  0  0
  137.0208   75.4139  222.3164 H   0  0  0  0  0  0  0  0  0  0  0  0
  135.9990   77.6480  222.1283 H   0  0  0  0  0  0  0  0  0  0  0  0
  136.9185   77.4750  223.6797 H   0  0  0  0  0  0  0  0  0  0  0  0
  137.7266   79.0234  221.1720 H   0  0  0  0  0  0  0  0  0  0  0  0
  137.4551   79.6516  222.8378 H   0  0  0  0  0  0  0  0  0  0  0  0
  141.8310   76.6540  223.2260 H   0  0  0  0  0  0  0  0  0  0  0  0
  143.5460   78.7788  223.4783 H   0  0  0  0  0  0  0  0  0  0  0  0
  143.6422   81.2969  223.3933 H   0  0  0  0  0  0  0  0  0  0  0  0
  141.5757   82.6182  222.8835 H   0  0  0  0  0  0  0  0  0  0  0  0
  139.3885   81.4395  222.4641 H   0  0  0  0  0  0  0  0  0  0  0  0
  1  2  1  0
  2  3  1  0
  2  4  1  0
  2  5  1  0
  5  6  2  0
  6  7  1  0
  7  8  2  0
  8  9  1  0
  9 10  1  0
 10 11  1  0
 10 12  1  0
 10 13  1  0
  9 14  2  0
 14 15  1  0
 15 16  1  0
 16 17  1  0
 17 18  1  0
 18 19  1  0
 19 20  1  0
 20 21  1  0
 21 22  2  0
 22 23  1  0
 23 24  1  0
 24 25  2  0
 25 26  1  0
 26 27  2  0
 27 28  1  0
 28 29  2  0
 14  5  1  0
 22 17  1  0
 29 24  1  0
 29 21  1  0
  6 30  1  0
  7 31  1  0
  8 32  1  0
 15 33  1  0
 15 34  1  0
 16 35  1  0
 17 36  1  1
 18 37  1  0
 18 38  1  0
 19 39  1  0
 19 40  1  0
 20 41  1  0
 20 42  1  0
 23 43  1  0
 25 44  1  0
 26 45  1  0
 27 46  1  0
 28 47  1  0
M  END
>  <UniqueID>  (28) 
30

>  <SMILES>  (28) 
FC(F)(F)c1cccc(C(F)(F)F)c1CN[C@@H]1CCCc2c1[nH]c1ccccc21

>  <Energy>  (28) 
95.04361686842613

>  <Genealogy>  (28) 
FC(F)(F)c1cccc(C(F)(F)F)c1CN[C@@H]1CCCc2c1[nH]c1ccccc21 (chirality)
FC(F)(F)c1cccc(C(F)(F)F)c1CN[C@@H]1CCCc2c1[nH]c1ccccc21 (3D coordinates assigned)
FC(F)(F)c1cccc(C(F)(F)F)c1CN[C@@H]1CCCc2c1[nH]c1ccccc21 (nonaromatic ring conformer: 95.04361686842613 kcal/mol)

>  <smiles>  (28) 
FC(F)(F)c1cccc(C(F)(F)F)c1CNC1CCCc2c1[nH]c1ccccc21

>  <score_type>  (28) 
oracle

>  <origin>  (28) 
autodockgpu

>  <m_score__min__energy>  (28) 
-7.4000000000000004

>  <m_primary>  (28) 
energy

>  <meeko>  (28) 
{"free_energy": -6.67, "intermolecular_energy": -8.17, "internal_energy": -1.74, "cluster_size": 9, "cluster_id": 2, "rank_in_cluster": 8}

>  <energy>  (28) 
-7.38

>  <cluster_rmsd>  (28) 
0.22

>  <rmsd>  (28) 
271.61

>  <cluster>  (28) 
1

$$$$
OEDLLKAXDUWBBK-GOSISDBHNA-N
     RDKit          3D

 47 50  0  0  0  0  0  0  0  0999 V2000
  142.7330   78.2890  218.5850 F   0  0  0  0  0  0  0  0  0  0  0  0
  141.7650   77.5170  219.1990 C   0  0  0  0  0  0  0  0  0  0  0  0
  140.7670   77.2230  218.2920 F   0  0  0  0  0  0  0  0  0  0  0  0
  141.2060   78.2880  220.2040 F   0  0  0  0  0  0  0  0  0  0  0  0
  142.3830   76.2360  219.7500 C   0  0  0  0  0  0  0  0  0  0  0  0
  143.7810   76.0930  219.6950 C   0  0  0  0  0  0  0  0  0  0  0  0
  144.3980   74.9180  220.1030 C   0  0  0  0  0  0  0  0  0  0  0  0
  143.6370   73.8430  220.5390 C   0  0  0  0  0  0  0  0  0  0  0  0
  142.2350   73.9300  220.6180 C   0  0  0  0  0  0  0  0  0  0  0  0
  141.4550   72.6830  221.0090 C   0  0  0  0  0  0  0  0  0  0  0  0
  142.2450   71.5610  220.8320 F   0  0  0  0  0  0  0  0  0  0  0  0
  140.3130   72.5720  220.2410 F   0  0  0  0  0  0  0  0  0  0  0  0
  141.0690   72.7100  222.3390 F   0  0  0  0  0  0  0  0  0  0  0  0
  141.5970   75.1730  220.3000 C   0  0  0  0  0  0  0  0  0  0  0  0
  140.1150   75.3880  220.5940 C   0  0  0  0  0  0  0  0  0  0  0  0
  139.7940   74.9830  221.9710 N   0  0  0  0  0  0  0  0  0  0  0  0
  139.0430   76.0110  222.7170 C   0  0  2  0  0  0  0  0  0  0  0  0
  137.6220   76.2320  222.1200 C   0  0  0  0  0  0  0  0  0  0  0  0
  136.9580   77.5070  222.6790 C   0  0  0  0  0  0  0  0  0  0  0  0
  137.7620   78.7680  222.3160 C   0  0  0  0  0  0  0  0  0  0  0  0
  139.2180   78.5460  222.5890 C   0  0  0  0  0  0  0  0  0  0  0  0
  139.8150   77.3000  222.7050 C   0  0  0  0  0  0  0  0  0  0  0  0
  141.1400   77.4220  222.9550 N   0  0  0  0  0  0  0  0  0  0  0  0
  141.3850   78.7470  222.9500 C   0  0  0  0  0  0  0  0  0  0  0  0
  142.6110   79.3800  223.1530 C   0  0  0  0  0  0  0  0  0  0  0  0
  142.6410   80.7860  223.1110 C   0  0  0  0  0  0  0  0  0  0  0  0
  141.4580   81.5210  222.8720 C   0  0  0  0  0  0  0  0  0  0  0  0
  140.2330   80.8590  222.6760 C   0  0  0  0  0  0  0  0  0  0  0  0
  140.2350   79.4660  222.7220 C   0  0  0  0  0  0  0  0  0  0  0  0
  144.3957   76.9257  219.3226 H   0  0  0  0  0  0  0  0  0  0  0  0
  145.4949   74.8391  220.0804 H   0  0  0  0  0  0  0  0  0  0  0  0
  144.1380   72.9073  220.8277 H   0  0  0  0  0  0  0  0  0  0  0  0
  139.8721   76.4531  220.4650 H   0  0  0  0  0  0  0  0  0  0  0  0
  139.5238   74.7746  219.8981 H   0  0  0  0  0  0  0  0  0  0  0  0
  140.6810   74.7490  222.4750 H   0  0  0  0  0  0  0  0  0  0  0  0
  138.9159   75.6612  223.7521 H   0  0  0  0  0  0  0  0  0  0  0  0
  137.7053   76.3238  221.0270 H   0  0  0  0  0  0  0  0  0  0  0  0
  136.9966   75.3708  222.3978 H   0  0  0  0  0  0  0  0  0  0  0  0
  135.9452   77.5959  222.2592 H   0  0  0  0  0  0  0  0  0  0  0  0
  136.9220   77.4247  223.7753 H   0  0  0  0  0  0  0  0  0  0  0  0
  137.6222   78.9939  221.2486 H   0  0  0  0  0  0  0  0  0  0  0  0
  137.4054   79.6107  222.9265 H   0  0  0  0  0  0  0  0  0  0  0  0
  141.8230   76.6560  223.1400 H   0  0  0  0  0  0  0  0  0  0  0  0
  143.5257   78.7983  223.3401 H   0  0  0  0  0  0  0  0  0  0  0  0
  143.5920   81.3168  223.2653 H   0  0  0  0  0  0  0  0  0  0  0  0
  141.4957   82.6199  222.8390 H   0  0  0  0  0  0  0  0  0  0  0  0
  139.3053   81.4210  222.4927 H   0  0  0  0  0  0  0  0  0  0  0  0
  1  2  1  0
  2  3  1  0
  2  4  1  0
  2  5  1  0
  5  6  2  0
  6  7  1  0
  7  8  2  0
  8  9  1  0
  9 10  1  0
 10 11  1  0
 10 12  1  0
 10 13  1  0
  9 14  2  0
 14 15  1  0
 15 16  1  0
 16 17  1  0
 17 18  1  0
 18 19  1  0
 19 20  1  0
 20 21  1  0
 21 22  2  0
 22 23  1  0
 23 24  1  0
 24 25  2  0
 25 26  1  0
 26 27  2  0
 27 28  1  0
 28 29  2  0
 14  5  1  0
 22 17  1  0
 29 24  1  0
 29 21  1  0
  6 30  1  0
  7 31  1  0
  8 32  1  0
 15 33  1  0
 15 34  1  0
 16 35  1  0
 17 36  1  1
 18 37  1  0
 18 38  1  0
 19 39  1  0
 19 40  1  0
 20 41  1  0
 20 42  1  0
 23 43  1  0
 25 44  1  0
 26 45  1  0
 27 46  1  0
 28 47  1  0
M  END
>  <UniqueID>  (29) 
30

>  <SMILES>  (29) 
FC(F)(F)c1cccc(C(F)(F)F)c1CN[C@@H]1CCCc2c1[nH]c1ccccc21

>  <Energy>  (29) 
95.04361686842613

>  <Genealogy>  (29) 
FC(F)(F)c1cccc(C(F)(F)F)c1CN[C@@H]1CCCc2c1[nH]c1ccccc21 (chirality)
FC(F)(F)c1cccc(C(F)(F)F)c1CN[C@@H]1CCCc2c1[nH]c1ccccc21 (3D coordinates assigned)
FC(F)(F)c1cccc(C(F)(F)F)c1CN[C@@H]1CCCc2c1[nH]c1ccccc21 (nonaromatic ring conformer: 95.04361686842613 kcal/mol)

>  <smiles>  (29) 
FC(F)(F)c1cccc(C(F)(F)F)c1CNC1CCCc2c1[nH]c1ccccc21

>  <score_type>  (29) 
oracle

>  <origin>  (29) 
autodockgpu

>  <m_score__min__energy>  (29) 
-7.4000000000000004

>  <m_primary>  (29) 
energy

>  <meeko>  (29) 
{"free_energy": -6.69, "intermolecular_energy": -8.18, "internal_energy": -1.75, "cluster_size": 9, "cluster_id": 2, "rank_in_cluster": 5}

>  <energy>  (29) 
-7.37

>  <cluster_rmsd>  (29) 
0.51

>  <rmsd>  (29) 
271.54

>  <cluster>  (29) 
1

$$$$
OEDLLKAXDUWBBK-GOSISDBHNA-N
     RDKit          3D

 47 50  0  0  0  0  0  0  0  0999 V2000
  143.7560   72.6930  219.1790 F   0  0  0  0  0  0  0  0  0  0  0  0
  142.6520   72.8410  219.9950 C   0  0  0  0  0  0  0  0  0  0  0  0
  142.9230   72.3030  221.2380 F   0  0  0  0  0  0  0  0  0  0  0  0
  141.6270   72.1000  219.4320 F   0  0  0  0  0  0  0  0  0  0  0  0
  142.2800   74.3150  220.1190 C   0  0  0  0  0  0  0  0  0  0  0  0
  143.1590   75.2710  219.5780 C   0  0  0  0  0  0  0  0  0  0  0  0
  142.9200   76.6300  219.7300 C   0  0  0  0  0  0  0  0  0  0  0  0
  141.8230   77.0710  220.4570 C   0  0  0  0  0  0  0  0  0  0  0  0
  140.9090   76.1600  221.0180 C   0  0  0  0  0  0  0  0  0  0  0  0
  139.7850   76.7070  221.8860 C   0  0  0  0  0  0  0  0  0  0  0  0
  138.6970   77.0300  221.0960 F   0  0  0  0  0  0  0  0  0  0  0  0
  140.2110   77.8290  222.5690 F   0  0  0  0  0  0  0  0  0  0  0  0
  139.3560   75.7800  222.8210 F   0  0  0  0  0  0  0  0  0  0  0  0
  141.0880   74.7590  220.7770 C   0  0  0  0  0  0  0  0  0  0  0  0
  140.0050   73.7560  221.1600 C   0  0  0  0  0  0  0  0  0  0  0  0
  140.2460   73.2190  222.5080 N   0  0  0  0  0  0  0  0  0  0  0  0
  140.3570   71.7480  222.5360 C   0  0  2  0  0  0  0  0  0  0  0  0
  139.2970   71.0740  221.6160 C   0  0  0  0  0  0  0  0  0  0  0  0
  139.1920   69.5580  221.8790 C   0  0  0  0  0  0  0  0  0  0  0  0
  138.7380   69.2650  223.3200 C   0  0  0  0  0  0  0  0  0  0  0  0
  139.5190   70.1010  224.2860 C   0  0  0  0  0  0  0  0  0  0  0  0
  140.1980   71.2630  223.9490 C   0  0  0  0  0  0  0  0  0  0  0  0
  140.8110   71.7930  225.0330 N   0  0  0  0  0  0  0  0  0  0  0  0
  140.4780   70.9900  226.0630 C   0  0  0  0  0  0  0  0  0  0  0  0
  140.8600   71.1250  227.3970 C   0  0  0  0  0  0  0  0  0  0  0  0
  140.3990   70.1630  228.3140 C   0  0  0  0  0  0  0  0  0  0  0  0
  139.5790   69.0970  227.8820 C   0  0  0  0  0  0  0  0  0  0  0  0
  139.2120   68.9800  226.5300 C   0  0  0  0  0  0  0  0  0  0  0  0
  139.6830   69.9490  225.6450 C   0  0  0  0  0  0  0  0  0  0  0  0
  144.0496   74.9364  219.0259 H   0  0  0  0  0  0  0  0  0  0  0  0
  143.6031   77.3606  219.2722 H   0  0  0  0  0  0  0  0  0  0  0  0
  141.6655   78.1506  220.5970 H   0  0  0  0  0  0  0  0  0  0  0  0
  139.0259   74.2570  221.1408 H   0  0  0  0  0  0  0  0  0  0  0  0
  140.0229   72.9245  220.4400 H   0  0  0  0  0  0  0  0  0  0  0  0
  139.4790   73.5340  223.1460 H   0  0  0  0  0  0  0  0  0  0  0  0
  141.3506   71.4698  222.1548 H   0  0  0  0  0  0  0  0  0  0  0  0
  138.3168   71.5367  221.8036 H   0  0  0  0  0  0  0  0  0  0  0  0
  139.6090   71.2191  220.5712 H   0  0  0  0  0  0  0  0  0  0  0  0
  138.4628   69.1236  221.1793 H   0  0  0  0  0  0  0  0  0  0  0  0
  140.1875   69.1131  221.7339 H   0  0  0  0  0  0  0  0  0  0  0  0
  137.6678   69.4991  223.4189 H   0  0  0  0  0  0  0  0  0  0  0  0
  138.9109   68.2017  223.5426 H   0  0  0  0  0  0  0  0  0  0  0  0
  141.4320   72.6310  225.0640 H   0  0  0  0  0  0  0  0  0  0  0  0
  141.5015   71.9573  227.7221 H   0  0  0  0  0  0  0  0  0  0  0  0
  140.6790   70.2414  229.3749 H   0  0  0  0  0  0  0  0  0  0  0  0
  139.2246   68.3521  228.6097 H   0  0  0  0  0  0  0  0  0  0  0  0
  138.5755   68.1529  226.1825 H   0  0  0  0  0  0  0  0  0  0  0  0
  1  2  1  0
  2  3  1  0
  2  4  1  0
  2  5  1  0
  5  6  2  0
  6  7  1  0
  7  8  2  0
  8  9  1  0
  9 10  1  0
 10 11  1  0
 10 12  1  0
 10 13  1  0
  9 14  2  0
 14 15  1  0
 15 16  1  0
 16 17  1  0
 17 18  1  0
 18 19  1  0
 19 20  1  0
 20 21  1  0
 21 22  2  0
 22 23  1  0
 23 24  1  0
 24 25  2  0
 25 26  1  0
 26 27  2  0
 27 28  1  0
 28 29  2  0
 14  5  1  0
 22 17  1  0
 29 24  1  0
 29 21  1  0
  6 30  1  0
  7 31  1  0
  8 32  1  0
 15 33  1  0
 15 34  1  0
 16 35  1  0
 17 36  1  6
 18 37  1  0
 18 38  1  0
 19 39  1  0
 19 40  1  0
 20 41  1  0
 20 42  1  0
 23 43  1  0
 25 44  1  0
 26 45  1  0
 27 46  1  0
 28 47  1  0
M  END
>  <UniqueID>  (30) 
30

>  <SMILES>  (30) 
FC(F)(F)c1cccc(C(F)(F)F)c1CN[C@@H]1CCCc2c1[nH]c1ccccc21

>  <Energy>  (30) 
95.04361686842613

>  <Genealogy>  (30) 
FC(F)(F)c1cccc(C(F)(F)F)c1CN[C@@H]1CCCc2c1[nH]c1ccccc21 (chirality)
FC(F)(F)c1cccc(C(F)(F)F)c1CN[C@@H]1CCCc2c1[nH]c1ccccc21 (3D coordinates assigned)
FC(F)(F)c1cccc(C(F)(F)F)c1CN[C@@H]1CCCc2c1[nH]c1ccccc21 (nonaromatic ring conformer: 95.04361686842613 kcal/mol)

>  <smiles>  (30) 
FC(F)(F)c1cccc(C(F)(F)F)c1CNC1CCCc2c1[nH]c1ccccc21

>  <score_type>  (30) 
oracle

>  <origin>  (30) 
autodockgpu

>  <m_score__min__energy>  (30) 
-7.4000000000000004

>  <m_primary>  (30) 
energy

>  <meeko>  (30) 
{"free_energy": -7.4, "intermolecular_energy": -8.89, "internal_energy": -1.03, "cluster_size": 11, "cluster_id": 1, "rank_in_cluster": 4}

>  <energy>  (30) 
-7.35

>  <cluster_rmsd>  (30) 
0.24

>  <rmsd>  (30) 
271.6

>  <cluster>  (30) 
1

$$$$
OEDLLKAXDUWBBK-GOSISDBHNA-N
     RDKit          3D

 47 50  0  0  0  0  0  0  0  0999 V2000
  142.8020   78.0520  218.3330 F   0  0  0  0  0  0  0  0  0  0  0  0
  141.9150   77.4840  219.2270 C   0  0  0  0  0  0  0  0  0  0  0  0
  140.7040   77.2690  218.6000 F   0  0  0  0  0  0  0  0  0  0  0  0
  141.7080   78.4080  220.2370 F   0  0  0  0  0  0  0  0  0  0  0  0
  142.4780   76.1740  219.7690 C   0  0  0  0  0  0  0  0  0  0  0  0
  143.8690   75.9740  219.7150 C   0  0  0  0  0  0  0  0  0  0  0  0
  144.4360   74.7710  220.1140 C   0  0  0  0  0  0  0  0  0  0  0  0
  143.6300   73.7250  220.5390 C   0  0  0  0  0  0  0  0  0  0  0  0
  142.2330   73.8690  220.6170 C   0  0  0  0  0  0  0  0  0  0  0  0
  141.4010   72.6520  220.9950 C   0  0  0  0  0  0  0  0  0  0  0  0
  141.0540   72.7180  222.3330 F   0  0  0  0  0  0  0  0  0  0  0  0
  142.1140   71.4930  220.7590 F   0  0  0  0  0  0  0  0  0  0  0  0
  140.2260   72.5820  220.2670 F   0  0  0  0  0  0  0  0  0  0  0  0
  141.6470   75.1390  220.3080 C   0  0  0  0  0  0  0  0  0  0  0  0
  140.1750   75.4130  220.6010 C   0  0  0  0  0  0  0  0  0  0  0  0
  139.8320   75.0010  221.9710 N   0  0  0  0  0  0  0  0  0  0  0  0
  139.0690   76.0240  222.7100 C   0  0  2  0  0  0  0  0  0  0  0  0
  137.6540   76.2400  222.0990 C   0  0  0  0  0  0  0  0  0  0  0  0
  136.9790   77.5110  222.6530 C   0  0  0  0  0  0  0  0  0  0  0  0
  137.7810   78.7760  222.3000 C   0  0  0  0  0  0  0  0  0  0  0  0
  139.2350   78.5600  222.5880 C   0  0  0  0  0  0  0  0  0  0  0  0
  139.8360   77.3170  222.7080 C   0  0  0  0  0  0  0  0  0  0  0  0
  141.1570   77.4440  222.9720 N   0  0  0  0  0  0  0  0  0  0  0  0
  141.3970   78.7700  222.9710 C   0  0  0  0  0  0  0  0  0  0  0  0
  142.6180   79.4070  223.1880 C   0  0  0  0  0  0  0  0  0  0  0  0
  142.6430   80.8140  223.1480 C   0  0  0  0  0  0  0  0  0  0  0  0
  141.4590   81.5440  222.8980 C   0  0  0  0  0  0  0  0  0  0  0  0
  140.2390   80.8770  222.6880 C   0  0  0  0  0  0  0  0  0  0  0  0
  140.2460   79.4840  222.7330 C   0  0  0  0  0  0  0  0  0  0  0  0
  144.5183   76.7837  219.3507 H   0  0  0  0  0  0  0  0  0  0  0  0
  145.5288   74.6469  220.0930 H   0  0  0  0  0  0  0  0  0  0  0  0
  144.0912   72.7667  220.8198 H   0  0  0  0  0  0  0  0  0  0  0  0
  139.9786   76.4894  220.4878 H   0  0  0  0  0  0  0  0  0  0  0  0
  139.5604   74.8364  219.8940 H   0  0  0  0  0  0  0  0  0  0  0  0
  140.7110   74.7640  222.4870 H   0  0  0  0  0  0  0  0  0  0  0  0
  138.9324   75.6718  223.7431 H   0  0  0  0  0  0  0  0  0  0  0  0
  137.7482   76.3340  221.0071 H   0  0  0  0  0  0  0  0  0  0  0  0
  137.0294   75.3757  222.3690 H   0  0  0  0  0  0  0  0  0  0  0  0
  135.9701   77.5961  222.2231 H   0  0  0  0  0  0  0  0  0  0  0  0
  136.9324   77.4269  223.7488 H   0  0  0  0  0  0  0  0  0  0  0  0
  137.6514   79.0027  221.2314 H   0  0  0  0  0  0  0  0  0  0  0  0
  137.4143   79.6163  222.9077 H   0  0  0  0  0  0  0  0  0  0  0  0
  141.8420   76.6800  223.1620 H   0  0  0  0  0  0  0  0  0  0  0  0
  143.5328   78.8286  223.3843 H   0  0  0  0  0  0  0  0  0  0  0  0
  143.5902   81.3486  223.3124 H   0  0  0  0  0  0  0  0  0  0  0  0
  141.4921   82.6431  222.8674 H   0  0  0  0  0  0  0  0  0  0  0  0
  139.3111   81.4354  222.4949 H   0  0  0  0  0  0  0  0  0  0  0  0
  1  2  1  0
  2  3  1  0
  2  4  1  0
  2  5  1  0
  5  6  2  0
  6  7  1  0
  7  8  2  0
  8  9  1  0
  9 10  1  0
 10 11  1  0
 10 12  1  0
 10 13  1  0
  9 14  2  0
 14 15  1  0
 15 16  1  0
 16 17  1  0
 17 18  1  0
 18 19  1  0
 19 20  1  0
 20 21  1  0
 21 22  2  0
 22 23  1  0
 23 24  1  0
 24 25  2  0
 25 26  1  0
 26 27  2  0
 27 28  1  0
 28 29  2  0
 14  5  1  0
 22 17  1  0
 29 24  1  0
 29 21  1  0
  6 30  1  0
  7 31  1  0
  8 32  1  0
 15 33  1  0
 15 34  1  0
 16 35  1  0
 17 36  1  1
 18 37  1  0
 18 38  1  0
 19 39  1  0
 19 40  1  0
 20 41  1  0
 20 42  1  0
 23 43  1  0
 25 44  1  0
 26 45  1  0
 27 46  1  0
 28 47  1  0
M  END
>  <UniqueID>  (31) 
30

>  <SMILES>  (31) 
FC(F)(F)c1cccc(C(F)(F)F)c1CN[C@@H]1CCCc2c1[nH]c1ccccc21

>  <Energy>  (31) 
95.04361686842613

>  <Genealogy>  (31) 
FC(F)(F)c1cccc(C(F)(F)F)c1CN[C@@H]1CCCc2c1[nH]c1ccccc21 (chirality)
FC(F)(F)c1cccc(C(F)(F)F)c1CN[C@@H]1CCCc2c1[nH]c1ccccc21 (3D coordinates assigned)
FC(F)(F)c1cccc(C(F)(F)F)c1CN[C@@H]1CCCc2c1[nH]c1ccccc21 (nonaromatic ring conformer: 95.04361686842613 kcal/mol)

>  <smiles>  (31) 
FC(F)(F)c1cccc(C(F)(F)F)c1CNC1CCCc2c1[nH]c1ccccc21

>  <score_type>  (31) 
oracle

>  <origin>  (31) 
autodockgpu

>  <m_score__min__energy>  (31) 
-7.4000000000000004

>  <m_primary>  (31) 
energy

>  <meeko>  (31) 
{"free_energy": -6.73, "intermolecular_energy": -8.22, "internal_energy": -1.68, "cluster_size": 9, "cluster_id": 2, "rank_in_cluster": 2}

>  <energy>  (31) 
-7.35

>  <cluster_rmsd>  (31) 
0.11

>  <rmsd>  (31) 
271.6

>  <cluster>  (31) 
1

$$$$
OEDLLKAXDUWBBK-GOSISDBHNA-N
     RDKit          3D

 47 50  0  0  0  0  0  0  0  0999 V2000
  140.8130   77.1740  218.2570 F   0  0  0  0  0  0  0  0  0  0  0  0
  141.7900   77.4770  219.1860 C   0  0  0  0  0  0  0  0  0  0  0  0
  141.2420   78.2420  220.1960 F   0  0  0  0  0  0  0  0  0  0  0  0
  142.7390   78.2510  218.5410 F   0  0  0  0  0  0  0  0  0  0  0  0
  142.3950   76.1970  219.7510 C   0  0  0  0  0  0  0  0  0  0  0  0
  143.7920   76.0410  219.7010 C   0  0  0  0  0  0  0  0  0  0  0  0
  144.3980   74.8650  220.1230 C   0  0  0  0  0  0  0  0  0  0  0  0
  143.6260   73.8010  220.5670 C   0  0  0  0  0  0  0  0  0  0  0  0
  142.2250   73.9010  220.6410 C   0  0  0  0  0  0  0  0  0  0  0  0
  141.4330   72.6640  221.0420 C   0  0  0  0  0  0  0  0  0  0  0  0
  141.0800   72.7450  222.3780 F   0  0  0  0  0  0  0  0  0  0  0  0
  142.1850   71.5250  220.8310 F   0  0  0  0  0  0  0  0  0  0  0  0
  140.2630   72.5400  220.3130 F   0  0  0  0  0  0  0  0  0  0  0  0
  141.5980   75.1450  220.3090 C   0  0  0  0  0  0  0  0  0  0  0  0
  140.1180   75.3760  220.5970 C   0  0  0  0  0  0  0  0  0  0  0  0
  139.7840   74.9660  221.9700 N   0  0  0  0  0  0  0  0  0  0  0  0
  139.0420   75.9970  222.7190 C   0  0  2  0  0  0  0  0  0  0  0  0
  137.6220   76.2300  222.1260 C   0  0  0  0  0  0  0  0  0  0  0  0
  136.9690   77.5080  222.6890 C   0  0  0  0  0  0  0  0  0  0  0  0
  137.7810   78.7640  222.3260 C   0  0  0  0  0  0  0  0  0  0  0  0
  139.2350   78.5310  222.5960 C   0  0  0  0  0  0  0  0  0  0  0  0
  139.8230   77.2810  222.7080 C   0  0  0  0  0  0  0  0  0  0  0  0
  141.1500   77.3930  222.9560 N   0  0  0  0  0  0  0  0  0  0  0  0
  141.4050   78.7160  222.9530 C   0  0  0  0  0  0  0  0  0  0  0  0
  142.6350   79.3390  223.1550 C   0  0  0  0  0  0  0  0  0  0  0  0
  142.6760   80.7450  223.1150 C   0  0  0  0  0  0  0  0  0  0  0  0
  141.4970   81.4890  222.8800 C   0  0  0  0  0  0  0  0  0  0  0  0
  140.2680   80.8360  222.6850 C   0  0  0  0  0  0  0  0  0  0  0  0
  140.2590   79.4430  222.7290 C   0  0  0  0  0  0  0  0  0  0  0  0
  144.4149   76.8643  219.3213 H   0  0  0  0  0  0  0  0  0  0  0  0
  145.4943   74.7766  220.1052 H   0  0  0  0  0  0  0  0  0  0  0  0
  144.1179   72.8637  220.8661 H   0  0  0  0  0  0  0  0  0  0  0  0
  139.8889   76.4448  220.4737 H   0  0  0  0  0  0  0  0  0  0  0  0
  139.5233   74.7740  219.8942 H   0  0  0  0  0  0  0  0  0  0  0  0
  140.6650   74.7170  222.4760 H   0  0  0  0  0  0  0  0  0  0  0  0
  138.9145   75.6451  223.7534 H   0  0  0  0  0  0  0  0  0  0  0  0
  137.7035   76.3237  221.0330 H   0  0  0  0  0  0  0  0  0  0  0  0
  136.9908   75.3729  222.4034 H   0  0  0  0  0  0  0  0  0  0  0  0
  135.9556   77.6049  222.2722 H   0  0  0  0  0  0  0  0  0  0  0  0
  136.9355   77.4239  223.7853 H   0  0  0  0  0  0  0  0  0  0  0  0
  137.6409   78.9923  221.2591 H   0  0  0  0  0  0  0  0  0  0  0  0
  137.4315   79.6086  222.9380 H   0  0  0  0  0  0  0  0  0  0  0  0
  141.8280   76.6210  223.1370 H   0  0  0  0  0  0  0  0  0  0  0  0
  143.5455   78.7501  223.3399 H   0  0  0  0  0  0  0  0  0  0  0  0
  143.6313   81.2685  223.2675 H   0  0  0  0  0  0  0  0  0  0  0  0
  141.5420   82.5877  222.8496 H   0  0  0  0  0  0  0  0  0  0  0  0
  139.3443   81.4051  222.5037 H   0  0  0  0  0  0  0  0  0  0  0  0
  1  2  1  0
  2  3  1  0
  2  4  1  0
  2  5  1  0
  5  6  2  0
  6  7  1  0
  7  8  2  0
  8  9  1  0
  9 10  1  0
 10 11  1  0
 10 12  1  0
 10 13  1  0
  9 14  2  0
 14 15  1  0
 15 16  1  0
 16 17  1  0
 17 18  1  0
 18 19  1  0
 19 20  1  0
 20 21  1  0
 21 22  2  0
 22 23  1  0
 23 24  1  0
 24 25  2  0
 25 26  1  0
 26 27  2  0
 27 28  1  0
 28 29  2  0
 14  5  1  0
 22 17  1  0
 29 24  1  0
 29 21  1  0
  6 30  1  0
  7 31  1  0
  8 32  1  0
 15 33  1  0
 15 34  1  0
 16 35  1  0
 17 36  1  1
 18 37  1  0
 18 38  1  0
 19 39  1  0
 19 40  1  0
 20 41  1  0
 20 42  1  0
 23 43  1  0
 25 44  1  0
 26 45  1  0
 27 46  1  0
 28 47  1  0
M  END
>  <UniqueID>  (32) 
30

>  <SMILES>  (32) 
FC(F)(F)c1cccc(C(F)(F)F)c1CN[C@@H]1CCCc2c1[nH]c1ccccc21

>  <Energy>  (32) 
95.04361686842613

>  <Genealogy>  (32) 
FC(F)(F)c1cccc(C(F)(F)F)c1CN[C@@H]1CCCc2c1[nH]c1ccccc21 (chirality)
FC(F)(F)c1cccc(C(F)(F)F)c1CN[C@@H]1CCCc2c1[nH]c1ccccc21 (3D coordinates assigned)
FC(F)(F)c1cccc(C(F)(F)F)c1CN[C@@H]1CCCc2c1[nH]c1ccccc21 (nonaromatic ring conformer: 95.04361686842613 kcal/mol)

>  <smiles>  (32) 
FC(F)(F)c1cccc(C(F)(F)F)c1CNC1CCCc2c1[nH]c1ccccc21

>  <score_type>  (32) 
oracle

>  <origin>  (32) 
autodockgpu

>  <m_score__min__energy>  (32) 
-7.4000000000000004

>  <m_primary>  (32) 
energy

>  <meeko>  (32) 
{"free_energy": -6.68, "intermolecular_energy": -8.17, "internal_energy": -1.73, "cluster_size": 9, "cluster_id": 2, "rank_in_cluster": 7}

>  <energy>  (32) 
-6.73

>  <cluster_rmsd>  (32) 
0.0

>  <rmsd>  (32) 
271.69

>  <cluster>  (32) 
2

$$$$
OEDLLKAXDUWBBK-GOSISDBHNA-N
     RDKit          3D

 47 50  0  0  0  0  0  0  0  0999 V2000
  142.9560   77.9180  218.3860 F   0  0  0  0  0  0  0  0  0  0  0  0
  142.0430   77.3450  219.2500 C   0  0  0  0  0  0  0  0  0  0  0  0
  140.8420   77.1600  218.5940 F   0  0  0  0  0  0  0  0  0  0  0  0
  141.8270   78.2530  220.2740 F   0  0  0  0  0  0  0  0  0  0  0  0
  142.5760   76.0170  219.7780 C   0  0  0  0  0  0  0  0  0  0  0  0
  143.9620   75.7850  219.7190 C   0  0  0  0  0  0  0  0  0  0  0  0
  144.5010   74.5660  220.1060 C   0  0  0  0  0  0  0  0  0  0  0  0
  143.6720   73.5340  220.5230 C   0  0  0  0  0  0  0  0  0  0  0  0
  142.2780   73.7110  220.6040 C   0  0  0  0  0  0  0  0  0  0  0  0
  141.4190   72.5100  220.9730 C   0  0  0  0  0  0  0  0  0  0  0  0
  142.1330   71.3420  220.7720 F   0  0  0  0  0  0  0  0  0  0  0  0
  140.2710   72.4880  220.2060 F   0  0  0  0  0  0  0  0  0  0  0  0
  141.0370   72.5360  222.3040 F   0  0  0  0  0  0  0  0  0  0  0  0
  141.7220   74.9970  220.3090 C   0  0  0  0  0  0  0  0  0  0  0  0
  140.2570   75.3030  220.6080 C   0  0  0  0  0  0  0  0  0  0  0  0
  139.9310   74.9690  222.0030 N   0  0  0  0  0  0  0  0  0  0  0  0
  139.1110   75.9980  222.6680 C   0  0  2  0  0  0  0  0  0  0  0  0
  137.7420   76.1960  221.9540 C   0  0  0  0  0  0  0  0  0  0  0  0
  137.0220   77.4710  222.4370 C   0  0  0  0  0  0  0  0  0  0  0  0
  137.8410   78.7360  222.1220 C   0  0  0  0  0  0  0  0  0  0  0  0
  139.2710   78.5340  222.5180 C   0  0  0  0  0  0  0  0  0  0  0  0
  139.8690   77.2960  222.7000 C   0  0  0  0  0  0  0  0  0  0  0  0
  141.1670   77.4360  223.0570 N   0  0  0  0  0  0  0  0  0  0  0  0
  141.3990   78.7630  223.0520 C   0  0  0  0  0  0  0  0  0  0  0  0
  142.5980   79.4120  223.3460 C   0  0  0  0  0  0  0  0  0  0  0  0
  142.6180   80.8180  223.2850 C   0  0  0  0  0  0  0  0  0  0  0  0
  141.4520   81.5360  222.9380 C   0  0  0  0  0  0  0  0  0  0  0  0
  140.2540   80.8580  222.6520 C   0  0  0  0  0  0  0  0  0  0  0  0
  140.2650   79.4660  222.7190 C   0  0  0  0  0  0  0  0  0  0  0  0
  144.6294   76.5825  219.3604 H   0  0  0  0  0  0  0  0  0  0  0  0
  145.5906   74.4171  220.0821 H   0  0  0  0  0  0  0  0  0  0  0  0
  144.1112   72.5627  220.7944 H   0  0  0  0  0  0  0  0  0  0  0  0
  140.0700   76.3739  220.4398 H   0  0  0  0  0  0  0  0  0  0  0  0
  139.6257   74.6965  219.9420 H   0  0  0  0  0  0  0  0  0  0  0  0
  140.8180   74.8150  222.5350 H   0  0  0  0  0  0  0  0  0  0  0  0
  138.9021   75.6602  223.6938 H   0  0  0  0  0  0  0  0  0  0  0  0
  137.9138   76.2733  220.8702 H   0  0  0  0  0  0  0  0  0  0  0  0
  137.1041   75.3323  222.1932 H   0  0  0  0  0  0  0  0  0  0  0  0
  136.0463   77.5426  221.9341 H   0  0  0  0  0  0  0  0  0  0  0  0
  136.8968   77.4040  223.5278 H   0  0  0  0  0  0  0  0  0  0  0  0
  137.7880   78.9447  221.0433 H   0  0  0  0  0  0  0  0  0  0  0  0
  137.4267   79.5837  222.6875 H   0  0  0  0  0  0  0  0  0  0  0  0
  141.8410   76.6800  223.3090 H   0  0  0  0  0  0  0  0  0  0  0  0
  143.4996   78.8430  223.6170 H   0  0  0  0  0  0  0  0  0  0  0  0
  143.5478   81.3614  223.5090 H   0  0  0  0  0  0  0  0  0  0  0  0
  141.4816   82.6346  222.8912 H   0  0  0  0  0  0  0  0  0  0  0  0
  139.3393   81.4074  222.3845 H   0  0  0  0  0  0  0  0  0  0  0  0
  1  2  1  0
  2  3  1  0
  2  4  1  0
  2  5  1  0
  5  6  2  0
  6  7  1  0
  7  8  2  0
  8  9  1  0
  9 10  1  0
 10 11  1  0
 10 12  1  0
 10 13  1  0
  9 14  2  0
 14 15  1  0
 15 16  1  0
 16 17  1  0
 17 18  1  0
 18 19  1  0
 19 20  1  0
 20 21  1  0
 21 22  2  0
 22 23  1  0
 23 24  1  0
 24 25  2  0
 25 26  1  0
 26 27  2  0
 27 28  1  0
 28 29  2  0
 14  5  1  0
 22 17  1  0
 29 24  1  0
 29 21  1  0
  6 30  1  0
  7 31  1  0
  8 32  1  0
 15 33  1  0
 15 34  1  0
 16 35  1  0
 17 36  1  1
 18 37  1  0
 18 38  1  0
 19 39  1  0
 19 40  1  0
 20 41  1  0
 20 42  1  0
 23 43  1  0
 25 44  1  0
 26 45  1  0
 27 46  1  0
 28 47  1  0
M  END
>  <UniqueID>  (33) 
30

>  <SMILES>  (33) 
FC(F)(F)c1cccc(C(F)(F)F)c1CN[C@@H]1CCCc2c1[nH]c1ccccc21

>  <Energy>  (33) 
95.04361686842613

>  <Genealogy>  (33) 
FC(F)(F)c1cccc(C(F)(F)F)c1CN[C@@H]1CCCc2c1[nH]c1ccccc21 (chirality)
FC(F)(F)c1cccc(C(F)(F)F)c1CN[C@@H]1CCCc2c1[nH]c1ccccc21 (3D coordinates assigned)
FC(F)(F)c1cccc(C(F)(F)F)c1CN[C@@H]1CCCc2c1[nH]c1ccccc21 (nonaromatic ring conformer: 95.04361686842613 kcal/mol)

>  <smiles>  (33) 
FC(F)(F)c1cccc(C(F)(F)F)c1CNC1CCCc2c1[nH]c1ccccc21

>  <score_type>  (33) 
oracle

>  <origin>  (33) 
autodockgpu

>  <m_score__min__energy>  (33) 
-7.4000000000000004

>  <m_primary>  (33) 
energy

>  <meeko>  (33) 
{"free_energy": -6.73, "intermolecular_energy": -8.22, "internal_energy": -1.67, "cluster_size": 9, "cluster_id": 2, "rank_in_cluster": 1}

>  <energy>  (33) 
-6.73

>  <cluster_rmsd>  (33) 
0.15

>  <rmsd>  (33) 
271.68

>  <cluster>  (33) 
2

$$$$
OEDLLKAXDUWBBK-GOSISDBHNA-N
     RDKit          3D

 47 50  0  0  0  0  0  0  0  0999 V2000
  141.5650   72.1460  219.4890 F   0  0  0  0  0  0  0  0  0  0  0  0
  142.6220   72.8530  220.0300 C   0  0  0  0  0  0  0  0  0  0  0  0
  143.7400   72.6870  219.2360 F   0  0  0  0  0  0  0  0  0  0  0  0
  142.8970   72.2940  221.2660 F   0  0  0  0  0  0  0  0  0  0  0  0
  142.2630   74.3310  220.1470 C   0  0  0  0  0  0  0  0  0  0  0  0
  143.1380   75.2770  219.5840 C   0  0  0  0  0  0  0  0  0  0  0  0
  142.9110   76.6390  219.7300 C   0  0  0  0  0  0  0  0  0  0  0  0
  141.8300   77.0930  220.4710 C   0  0  0  0  0  0  0  0  0  0  0  0
  140.9190   76.1930  221.0540 C   0  0  0  0  0  0  0  0  0  0  0  0
  139.8140   76.7540  221.9370 C   0  0  0  0  0  0  0  0  0  0  0  0
  139.4850   75.8360  222.9180 F   0  0  0  0  0  0  0  0  0  0  0  0
  138.6960   77.0420  221.1790 F   0  0  0  0  0  0  0  0  0  0  0  0
  140.2040   77.9190  222.5750 F   0  0  0  0  0  0  0  0  0  0  0  0
  141.0850   74.7890  220.8220 C   0  0  0  0  0  0  0  0  0  0  0  0
  140.0010   73.7960  221.2310 C   0  0  0  0  0  0  0  0  0  0  0  0
  140.2760   73.2490  222.5690 N   0  0  0  0  0  0  0  0  0  0  0  0
  140.3900   71.7780  222.5810 C   0  0  2  0  0  0  0  0  0  0  0  0
  139.3340   71.1100  221.6530 C   0  0  0  0  0  0  0  0  0  0  0  0
  139.2330   69.5920  221.9000 C   0  0  0  0  0  0  0  0  0  0  0  0
  138.7770   69.2820  223.3370 C   0  0  0  0  0  0  0  0  0  0  0  0
  139.5540   70.1110  224.3130 C   0  0  0  0  0  0  0  0  0  0  0  0
  140.2300   71.2780  223.9900 C   0  0  0  0  0  0  0  0  0  0  0  0
  140.8390   71.7990  225.0800 N   0  0  0  0  0  0  0  0  0  0  0  0
  140.5070   70.9850  226.1010 C   0  0  0  0  0  0  0  0  0  0  0  0
  140.8850   71.1070  227.4370 C   0  0  0  0  0  0  0  0  0  0  0  0
  140.4260   70.1340  228.3440 C   0  0  0  0  0  0  0  0  0  0  0  0
  139.6090   69.0700  227.8990 C   0  0  0  0  0  0  0  0  0  0  0  0
  139.2460   68.9660  226.5440 C   0  0  0  0  0  0  0  0  0  0  0  0
  139.7150   69.9460  225.6710 C   0  0  0  0  0  0  0  0  0  0  0  0
  144.0165   74.9324  219.0188 H   0  0  0  0  0  0  0  0  0  0  0  0
  143.5917   77.3613  219.2558 H   0  0  0  0  0  0  0  0  0  0  0  0
  141.6824   78.1748  220.6051 H   0  0  0  0  0  0  0  0  0  0  0  0
  139.0277   74.3084  221.2432 H   0  0  0  0  0  0  0  0  0  0  0  0
  139.9871   72.9686  220.5063 H   0  0  0  0  0  0  0  0  0  0  0  0
  139.5220   73.5570  223.2260 H   0  0  0  0  0  0  0  0  0  0  0  0
  141.3845   71.5066  222.1972 H   0  0  0  0  0  0  0  0  0  0  0  0
  138.3521   71.5678  221.8437 H   0  0  0  0  0  0  0  0  0  0  0  0
  139.6476   71.2665  220.6103 H   0  0  0  0  0  0  0  0  0  0  0  0
  138.5065   69.1629  221.1943 H   0  0  0  0  0  0  0  0  0  0  0  0
  140.2302   69.1518  221.7525 H   0  0  0  0  0  0  0  0  0  0  0  0
  137.7058   69.5114  223.4364 H   0  0  0  0  0  0  0  0  0  0  0  0
  138.9525   68.2170  223.5489 H   0  0  0  0  0  0  0  0  0  0  0  0
  141.4570   72.6390  225.1200 H   0  0  0  0  0  0  0  0  0  0  0  0
  141.5226   71.9384  227.7721 H   0  0  0  0  0  0  0  0  0  0  0  0
  140.7048   70.2019  229.4059 H   0  0  0  0  0  0  0  0  0  0  0  0
  139.2541   68.3171  228.6182 H   0  0  0  0  0  0  0  0  0  0  0  0
  138.6140   68.1400  226.1859 H   0  0  0  0  0  0  0  0  0  0  0  0
  1  2  1  0
  2  3  1  0
  2  4  1  0
  2  5  1  0
  5  6  2  0
  6  7  1  0
  7  8  2  0
  8  9  1  0
  9 10  1  0
 10 11  1  0
 10 12  1  0
 10 13  1  0
  9 14  2  0
 14 15  1  0
 15 16  1  0
 16 17  1  0
 17 18  1  0
 18 19  1  0
 19 20  1  0
 20 21  1  0
 21 22  2  0
 22 23  1  0
 23 24  1  0
 24 25  2  0
 25 26  1  0
 26 27  2  0
 27 28  1  0
 28 29  2  0
 14  5  1  0
 22 17  1  0
 29 24  1  0
 29 21  1  0
  6 30  1  0
  7 31  1  0
  8 32  1  0
 15 33  1  0
 15 34  1  0
 16 35  1  0
 17 36  1  6
 18 37  1  0
 18 38  1  0
 19 39  1  0
 19 40  1  0
 20 41  1  0
 20 42  1  0
 23 43  1  0
 25 44  1  0
 26 45  1  0
 27 46  1  0
 28 47  1  0
M  END
>  <UniqueID>  (34) 
30

>  <SMILES>  (34) 
FC(F)(F)c1cccc(C(F)(F)F)c1CN[C@@H]1CCCc2c1[nH]c1ccccc21

>  <Energy>  (34) 
95.04361686842613

>  <Genealogy>  (34) 
FC(F)(F)c1cccc(C(F)(F)F)c1CN[C@@H]1CCCc2c1[nH]c1ccccc21 (chirality)
FC(F)(F)c1cccc(C(F)(F)F)c1CN[C@@H]1CCCc2c1[nH]c1ccccc21 (3D coordinates assigned)
FC(F)(F)c1cccc(C(F)(F)F)c1CN[C@@H]1CCCc2c1[nH]c1ccccc21 (nonaromatic ring conformer: 95.04361686842613 kcal/mol)

>  <smiles>  (34) 
FC(F)(F)c1cccc(C(F)(F)F)c1CNC1CCCc2c1[nH]c1ccccc21

>  <score_type>  (34) 
oracle

>  <origin>  (34) 
autodockgpu

>  <m_score__min__energy>  (34) 
-7.4000000000000004

>  <m_primary>  (34) 
energy

>  <meeko>  (34) 
{"free_energy": -7.38, "intermolecular_energy": -8.87, "internal_energy": -1.02, "cluster_size": 11, "cluster_id": 1, "rank_in_cluster": 6}

>  <energy>  (34) 
-6.7

>  <cluster_rmsd>  (34) 
0.22

>  <rmsd>  (34) 
271.68

>  <cluster>  (34) 
2

$$$$
OEDLLKAXDUWBBK-GOSISDBHNA-N
     RDKit          3D

 47 50  0  0  0  0  0  0  0  0999 V2000
  142.8040   78.2600  218.5930 F   0  0  0  0  0  0  0  0  0  0  0  0
  141.8210   77.5010  219.1980 C   0  0  0  0  0  0  0  0  0  0  0  0
  140.8310   77.2150  218.2800 F   0  0  0  0  0  0  0  0  0  0  0  0
  141.2580   78.2830  220.1930 F   0  0  0  0  0  0  0  0  0  0  0  0
  142.4190   76.2160  219.7610 C   0  0  0  0  0  0  0  0  0  0  0  0
  143.8150   76.0560  219.7190 C   0  0  0  0  0  0  0  0  0  0  0  0
  144.4140   74.8760  220.1380 C   0  0  0  0  0  0  0  0  0  0  0  0
  143.6360   73.8120  220.5740 C   0  0  0  0  0  0  0  0  0  0  0  0
  142.2340   73.9170  220.6410 C   0  0  0  0  0  0  0  0  0  0  0  0
  141.4360   72.6820  221.0320 C   0  0  0  0  0  0  0  0  0  0  0  0
  142.2080   71.5480  220.8520 F   0  0  0  0  0  0  0  0  0  0  0  0
  140.2910   72.5890  220.2650 F   0  0  0  0  0  0  0  0  0  0  0  0
  141.0530   72.7130  222.3620 F   0  0  0  0  0  0  0  0  0  0  0  0
  141.6150   75.1650  220.3110 C   0  0  0  0  0  0  0  0  0  0  0  0
  140.1330   75.4010  220.5910 C   0  0  0  0  0  0  0  0  0  0  0  0
  139.7910   74.9840  221.9590 N   0  0  0  0  0  0  0  0  0  0  0  0
  139.0420   76.0120  222.7080 C   0  0  2  0  0  0  0  0  0  0  0  0
  137.6230   76.2410  222.1100 C   0  0  0  0  0  0  0  0  0  0  0  0
  136.9640   77.5160  222.6720 C   0  0  0  0  0  0  0  0  0  0  0  0
  137.7730   78.7750  222.3150 C   0  0  0  0  0  0  0  0  0  0  0  0
  139.2270   78.5470  222.5890 C   0  0  0  0  0  0  0  0  0  0  0  0
  139.8190   77.2990  222.7010 C   0  0  0  0  0  0  0  0  0  0  0  0
  141.1440   77.4150  222.9540 N   0  0  0  0  0  0  0  0  0  0  0  0
  141.3950   78.7380  222.9540 C   0  0  0  0  0  0  0  0  0  0  0  0
  142.6220   79.3660  223.1600 C   0  0  0  0  0  0  0  0  0  0  0  0
  142.6580   80.7720  223.1230 C   0  0  0  0  0  0  0  0  0  0  0  0
  141.4780   81.5120  222.8850 C   0  0  0  0  0  0  0  0  0  0  0  0
  140.2510   80.8550  222.6850 C   0  0  0  0  0  0  0  0  0  0  0  0
  140.2480   79.4620  222.7260 C   0  0  0  0  0  0  0  0  0  0  0  0
  144.4430   76.8794  219.3480 H   0  0  0  0  0  0  0  0  0  0  0  0
  145.5100   74.7835  220.1245 H   0  0  0  0  0  0  0  0  0  0  0  0
  144.1231   72.8718  220.8719 H   0  0  0  0  0  0  0  0  0  0  0  0
  139.9089   76.4714  220.4729 H   0  0  0  0  0  0  0  0  0  0  0  0
  139.5393   74.8069  219.8807 H   0  0  0  0  0  0  0  0  0  0  0  0
  140.6680   74.7340  222.4710 H   0  0  0  0  0  0  0  0  0  0  0  0
  138.9120   75.6583  223.7414 H   0  0  0  0  0  0  0  0  0  0  0  0
  137.7081   76.3361  221.0174 H   0  0  0  0  0  0  0  0  0  0  0  0
  136.9936   75.3815  222.3841 H   0  0  0  0  0  0  0  0  0  0  0  0
  135.9522   77.6104  222.2510 H   0  0  0  0  0  0  0  0  0  0  0  0
  136.9265   77.4299  223.7680 H   0  0  0  0  0  0  0  0  0  0  0  0
  137.6356   79.0054  221.2482 H   0  0  0  0  0  0  0  0  0  0  0  0
  137.4187   79.6166  222.9284 H   0  0  0  0  0  0  0  0  0  0  0  0
  141.8250   76.6450  223.1360 H   0  0  0  0  0  0  0  0  0  0  0  0
  143.5344   78.7803  223.3458 H   0  0  0  0  0  0  0  0  0  0  0  0
  143.6109   81.2986  223.2804 H   0  0  0  0  0  0  0  0  0  0  0  0
  141.5196   82.6108  222.8559 H   0  0  0  0  0  0  0  0  0  0  0  0
  139.3256   81.4209  222.5025 H   0  0  0  0  0  0  0  0  0  0  0  0
  1  2  1  0
  2  3  1  0
  2  4  1  0
  2  5  1  0
  5  6  2  0
  6  7  1  0
  7  8  2  0
  8  9  1  0
  9 10  1  0
 10 11  1  0
 10 12  1  0
 10 13  1  0
  9 14  2  0
 14 15  1  0
 15 16  1  0
 16 17  1  0
 17 18  1  0
 18 19  1  0
 19 20  1  0
 20 21  1  0
 21 22  2  0
 22 23  1  0
 23 24  1  0
 24 25  2  0
 25 26  1  0
 26 27  2  0
 27 28  1  0
 28 29  2  0
 14  5  1  0
 22 17  1  0
 29 24  1  0
 29 21  1  0
  6 30  1  0
  7 31  1  0
  8 32  1  0
 15 33  1  0
 15 34  1  0
 16 35  1  0
 17 36  1  1
 18 37  1  0
 18 38  1  0
 19 39  1  0
 19 40  1  0
 20 41  1  0
 20 42  1  0
 23 43  1  0
 25 44  1  0
 26 45  1  0
 27 46  1  0
 28 47  1  0
M  END
>  <UniqueID>  (35) 
30

>  <SMILES>  (35) 
FC(F)(F)c1cccc(C(F)(F)F)c1CN[C@@H]1CCCc2c1[nH]c1ccccc21

>  <Energy>  (35) 
95.04361686842613

>  <Genealogy>  (35) 
FC(F)(F)c1cccc(C(F)(F)F)c1CN[C@@H]1CCCc2c1[nH]c1ccccc21 (chirality)
FC(F)(F)c1cccc(C(F)(F)F)c1CN[C@@H]1CCCc2c1[nH]c1ccccc21 (3D coordinates assigned)
FC(F)(F)c1cccc(C(F)(F)F)c1CN[C@@H]1CCCc2c1[nH]c1ccccc21 (nonaromatic ring conformer: 95.04361686842613 kcal/mol)

>  <smiles>  (35) 
FC(F)(F)c1cccc(C(F)(F)F)c1CNC1CCCc2c1[nH]c1ccccc21

>  <score_type>  (35) 
oracle

>  <origin>  (35) 
autodockgpu

>  <m_score__min__energy>  (35) 
-7.4000000000000004

>  <m_primary>  (35) 
energy

>  <meeko>  (35) 
{"free_energy": -6.69, "intermolecular_energy": -8.18, "internal_energy": -1.74, "cluster_size": 9, "cluster_id": 2, "rank_in_cluster": 4}

>  <energy>  (35) 
-6.69

>  <cluster_rmsd>  (35) 
0.23

>  <rmsd>  (35) 
271.67

>  <cluster>  (35) 
2

$$$$
OEDLLKAXDUWBBK-GOSISDBHNA-N
     RDKit          3D

 47 50  0  0  0  0  0  0  0  0999 V2000
  143.4530   72.4540  219.1730 F   0  0  0  0  0  0  0  0  0  0  0  0
  142.4280   72.6790  220.0720 C   0  0  0  0  0  0  0  0  0  0  0  0
  142.7740   72.1590  221.3030 F   0  0  0  0  0  0  0  0  0  0  0  0
  141.3250   71.9790  219.6140 F   0  0  0  0  0  0  0  0  0  0  0  0
  142.1420   74.1730  220.1820 C   0  0  0  0  0  0  0  0  0  0  0  0
  143.0650   75.0720  219.6190 C   0  0  0  0  0  0  0  0  0  0  0  0
  142.9050   76.4440  219.7580 C   0  0  0  0  0  0  0  0  0  0  0  0
  141.8440   76.9540  220.4940 C   0  0  0  0  0  0  0  0  0  0  0  0
  140.8880   76.1020  221.0770 C   0  0  0  0  0  0  0  0  0  0  0  0
  139.8080   76.7210  221.9530 C   0  0  0  0  0  0  0  0  0  0  0  0
  138.7210   77.0770  221.1760 F   0  0  0  0  0  0  0  0  0  0  0  0
  140.3000   77.8370  222.6020 F   0  0  0  0  0  0  0  0  0  0  0  0
  139.3550   75.8370  222.9170 F   0  0  0  0  0  0  0  0  0  0  0  0
  140.9850   74.6910  220.8510 C   0  0  0  0  0  0  0  0  0  0  0  0
  139.8520   73.7540  221.2590 C   0  0  0  0  0  0  0  0  0  0  0  0
  140.0960   73.1970  222.5990 N   0  0  0  0  0  0  0  0  0  0  0  0
  140.2910   71.7350  222.5920 C   0  0  2  0  0  0  0  0  0  0  0  0
  139.2290   71.0160  221.7100 C   0  0  0  0  0  0  0  0  0  0  0  0
  139.2230   69.4930  221.9480 C   0  0  0  0  0  0  0  0  0  0  0  0
  138.8560   69.1490  223.4020 C   0  0  0  0  0  0  0  0  0  0  0  0
  139.6350   70.0130  224.3470 C   0  0  0  0  0  0  0  0  0  0  0  0
  140.2290   71.2170  224.0010 C   0  0  0  0  0  0  0  0  0  0  0  0
  140.8620   71.7640  225.0660 N   0  0  0  0  0  0  0  0  0  0  0  0
  140.6250   70.9250  226.0940 C   0  0  0  0  0  0  0  0  0  0  0  0
  141.0630   71.0590  227.4100 C   0  0  0  0  0  0  0  0  0  0  0  0
  140.7030   70.0560  228.3300 C   0  0  0  0  0  0  0  0  0  0  0  0
  139.9240   68.9520  227.9150 C   0  0  0  0  0  0  0  0  0  0  0  0
  139.5010   68.8380  226.5800 C   0  0  0  0  0  0  0  0  0  0  0  0
  139.8720   69.8470  225.6930 C   0  0  0  0  0  0  0  0  0  0  0  0
  143.9279   74.6818  219.0593 H   0  0  0  0  0  0  0  0  0  0  0  0
  143.6219   77.1299  219.2830 H   0  0  0  0  0  0  0  0  0  0  0  0
  141.7492   78.0422  220.6235 H   0  0  0  0  0  0  0  0  0  0  0  0
  138.9053   74.3141  221.2675 H   0  0  0  0  0  0  0  0  0  0  0  0
  139.7990   72.9267  220.5360 H   0  0  0  0  0  0  0  0  0  0  0  0
  139.2980   73.4510  223.2260 H   0  0  0  0  0  0  0  0  0  0  0  0
  141.2791   71.5220  222.1580 H   0  0  0  0  0  0  0  0  0  0  0  0
  138.2341   71.4180  221.9519 H   0  0  0  0  0  0  0  0  0  0  0  0
  139.4825   71.1961  220.6549 H   0  0  0  0  0  0  0  0  0  0  0  0
  138.4871   69.0293  221.2747 H   0  0  0  0  0  0  0  0  0  0  0  0
  140.2344   69.1093  221.7482 H   0  0  0  0  0  0  0  0  0  0  0  0
  137.7802   69.3192  223.5559 H   0  0  0  0  0  0  0  0  0  0  0  0
  139.0989   68.0937  223.5950 H   0  0  0  0  0  0  0  0  0  0  0  0
  141.4350   72.6360  225.0830 H   0  0  0  0  0  0  0  0  0  0  0  0
  141.6711   71.9215  227.7204 H   0  0  0  0  0  0  0  0  0  0  0  0
  141.0298   70.1319  229.3776 H   0  0  0  0  0  0  0  0  0  0  0  0
  139.6466   68.1757  228.6432 H   0  0  0  0  0  0  0  0  0  0  0  0
  138.8973   67.9812  226.2461 H   0  0  0  0  0  0  0  0  0  0  0  0
  1  2  1  0
  2  3  1  0
  2  4  1  0
  2  5  1  0
  5  6  2  0
  6  7  1  0
  7  8  2  0
  8  9  1  0
  9 10  1  0
 10 11  1  0
 10 12  1  0
 10 13  1  0
  9 14  2  0
 14 15  1  0
 15 16  1  0
 16 17  1  0
 17 18  1  0
 18 19  1  0
 19 20  1  0
 20 21  1  0
 21 22  2  0
 22 23  1  0
 23 24  1  0
 24 25  2  0
 25 26  1  0
 26 27  2  0
 27 28  1  0
 28 29  2  0
 14  5  1  0
 22 17  1  0
 29 24  1  0
 29 21  1  0
  6 30  1  0
  7 31  1  0
  8 32  1  0
 15 33  1  0
 15 34  1  0
 16 35  1  0
 17 36  1  6
 18 37  1  0
 18 38  1  0
 19 39  1  0
 19 40  1  0
 20 41  1  0
 20 42  1  0
 23 43  1  0
 25 44  1  0
 26 45  1  0
 27 46  1  0
 28 47  1  0
M  END
>  <UniqueID>  (36) 
30

>  <SMILES>  (36) 
FC(F)(F)c1cccc(C(F)(F)F)c1CN[C@@H]1CCCc2c1[nH]c1ccccc21

>  <Energy>  (36) 
95.04361686842613

>  <Genealogy>  (36) 
FC(F)(F)c1cccc(C(F)(F)F)c1CN[C@@H]1CCCc2c1[nH]c1ccccc21 (chirality)
FC(F)(F)c1cccc(C(F)(F)F)c1CN[C@@H]1CCCc2c1[nH]c1ccccc21 (3D coordinates assigned)
FC(F)(F)c1cccc(C(F)(F)F)c1CN[C@@H]1CCCc2c1[nH]c1ccccc21 (nonaromatic ring conformer: 95.04361686842613 kcal/mol)

>  <smiles>  (36) 
FC(F)(F)c1cccc(C(F)(F)F)c1CNC1CCCc2c1[nH]c1ccccc21

>  <score_type>  (36) 
oracle

>  <origin>  (36) 
autodockgpu

>  <m_score__min__energy>  (36) 
-7.4000000000000004

>  <m_primary>  (36) 
energy

>  <meeko>  (36) 
{"free_energy": -7.39, "intermolecular_energy": -8.88, "internal_energy": -1.03, "cluster_size": 11, "cluster_id": 1, "rank_in_cluster": 5}

>  <energy>  (36) 
-6.69

>  <cluster_rmsd>  (36) 
0.25

>  <rmsd>  (36) 
271.66

>  <cluster>  (36) 
2

$$$$
OEDLLKAXDUWBBK-GOSISDBHNA-N
     RDKit          3D

 47 50  0  0  0  0  0  0  0  0999 V2000
  142.7180   78.1960  218.4630 F   0  0  0  0  0  0  0  0  0  0  0  0
  141.7990   77.5030  219.2260 C   0  0  0  0  0  0  0  0  0  0  0  0
  140.6860   77.2180  218.4600 F   0  0  0  0  0  0  0  0  0  0  0  0
  141.4000   78.3460  220.2490 F   0  0  0  0  0  0  0  0  0  0  0  0
  142.4220   76.2190  219.7650 C   0  0  0  0  0  0  0  0  0  0  0  0
  143.8200   76.0810  219.7080 C   0  0  0  0  0  0  0  0  0  0  0  0
  144.4410   74.9050  220.1040 C   0  0  0  0  0  0  0  0  0  0  0  0
  143.6840   73.8230  220.5310 C   0  0  0  0  0  0  0  0  0  0  0  0
  142.2820   73.9040  220.6110 C   0  0  0  0  0  0  0  0  0  0  0  0
  141.5060   72.6510  220.9910 C   0  0  0  0  0  0  0  0  0  0  0  0
  142.3140   71.5370  220.8430 F   0  0  0  0  0  0  0  0  0  0  0  0
  140.3870   72.5200  220.1930 F   0  0  0  0  0  0  0  0  0  0  0  0
  141.0850   72.6830  222.3090 F   0  0  0  0  0  0  0  0  0  0  0  0
  141.6390   75.1470  220.3050 C   0  0  0  0  0  0  0  0  0  0  0  0
  140.1570   75.3550  220.6020 C   0  0  0  0  0  0  0  0  0  0  0  0
  139.8510   74.9960  221.9950 N   0  0  0  0  0  0  0  0  0  0  0  0
  139.0670   76.0280  222.7000 C   0  0  2  0  0  0  0  0  0  0  0  0
  137.6730   76.2440  222.0410 C   0  0  0  0  0  0  0  0  0  0  0  0
  136.9850   77.5220  222.5610 C   0  0  0  0  0  0  0  0  0  0  0  0
  137.8030   78.7810  222.2240 C   0  0  0  0  0  0  0  0  0  0  0  0
  139.2460   78.5630  222.5620 C   0  0  0  0  0  0  0  0  0  0  0  0
  139.8380   77.3190  222.7120 C   0  0  0  0  0  0  0  0  0  0  0  0
  141.1510   77.4440  223.0190 N   0  0  0  0  0  0  0  0  0  0  0  0
  141.3950   78.7690  223.0150 C   0  0  0  0  0  0  0  0  0  0  0  0
  142.6100   79.4040  223.2660 C   0  0  0  0  0  0  0  0  0  0  0  0
  142.6420   80.8100  223.2150 C   0  0  0  0  0  0  0  0  0  0  0  0
  141.4700   81.5420  222.9200 C   0  0  0  0  0  0  0  0  0  0  0  0
  140.2550   80.8770  222.6750 C   0  0  0  0  0  0  0  0  0  0  0  0
  140.2560   79.4840  222.7320 C   0  0  0  0  0  0  0  0  0  0  0  0
  144.4318   76.9193  219.3434 H   0  0  0  0  0  0  0  0  0  0  0  0
  145.5382   74.8300  220.0794 H   0  0  0  0  0  0  0  0  0  0  0  0
  144.1887   72.8867  220.8115 H   0  0  0  0  0  0  0  0  0  0  0  0
  139.9004   76.4118  220.4367 H   0  0  0  0  0  0  0  0  0  0  0  0
  139.5682   74.7103  219.9329 H   0  0  0  0  0  0  0  0  0  0  0  0
  140.7450   74.8120  222.5060 H   0  0  0  0  0  0  0  0  0  0  0  0
  138.8953   75.6844  223.7307 H   0  0  0  0  0  0  0  0  0  0  0  0
  137.8033   76.3279  220.9520 H   0  0  0  0  0  0  0  0  0  0  0  0
  137.0366   75.3845  222.2984 H   0  0  0  0  0  0  0  0  0  0  0  0
  135.9913   77.6068  222.0970 H   0  0  0  0  0  0  0  0  0  0  0  0
  136.9017   77.4477  223.6553 H   0  0  0  0  0  0  0  0  0  0  0  0
  137.7098   78.9987  221.1498 H   0  0  0  0  0  0  0  0  0  0  0  0
  137.4194   79.6277  222.8121 H   0  0  0  0  0  0  0  0  0  0  0  0
  141.8260   76.6800  223.2380 H   0  0  0  0  0  0  0  0  0  0  0  0
  143.5158   78.8242  223.4968 H   0  0  0  0  0  0  0  0  0  0  0  0
  143.5854   81.3425  223.4060 H   0  0  0  0  0  0  0  0  0  0  0  0
  141.5081   82.6407  222.8816 H   0  0  0  0  0  0  0  0  0  0  0  0
  139.3360   81.4366  222.4464 H   0  0  0  0  0  0  0  0  0  0  0  0
  1  2  1  0
  2  3  1  0
  2  4  1  0
  2  5  1  0
  5  6  2  0
  6  7  1  0
  7  8  2  0
  8  9  1  0
  9 10  1  0
 10 11  1  0
 10 12  1  0
 10 13  1  0
  9 14  2  0
 14 15  1  0
 15 16  1  0
 16 17  1  0
 17 18  1  0
 18 19  1  0
 19 20  1  0
 20 21  1  0
 21 22  2  0
 22 23  1  0
 23 24  1  0
 24 25  2  0
 25 26  1  0
 26 27  2  0
 27 28  1  0
 28 29  2  0
 14  5  1  0
 22 17  1  0
 29 24  1  0
 29 21  1  0
  6 30  1  0
  7 31  1  0
  8 32  1  0
 15 33  1  0
 15 34  1  0
 16 35  1  0
 17 36  1  1
 18 37  1  0
 18 38  1  0
 19 39  1  0
 19 40  1  0
 20 41  1  0
 20 42  1  0
 23 43  1  0
 25 44  1  0
 26 45  1  0
 27 46  1  0
 28 47  1  0
M  END
>  <UniqueID>  (37) 
30

>  <SMILES>  (37) 
FC(F)(F)c1cccc(C(F)(F)F)c1CN[C@@H]1CCCc2c1[nH]c1ccccc21

>  <Energy>  (37) 
95.04361686842613

>  <Genealogy>  (37) 
FC(F)(F)c1cccc(C(F)(F)F)c1CN[C@@H]1CCCc2c1[nH]c1ccccc21 (chirality)
FC(F)(F)c1cccc(C(F)(F)F)c1CN[C@@H]1CCCc2c1[nH]c1ccccc21 (3D coordinates assigned)
FC(F)(F)c1cccc(C(F)(F)F)c1CN[C@@H]1CCCc2c1[nH]c1ccccc21 (nonaromatic ring conformer: 95.04361686842613 kcal/mol)

>  <smiles>  (37) 
FC(F)(F)c1cccc(C(F)(F)F)c1CNC1CCCc2c1[nH]c1ccccc21

>  <score_type>  (37) 
oracle

>  <origin>  (37) 
autodockgpu

>  <m_score__min__energy>  (37) 
-7.4000000000000004

>  <m_primary>  (37) 
energy

>  <meeko>  (37) 
{"free_energy": -6.68, "intermolecular_energy": -8.17, "internal_energy": -1.74, "cluster_size": 9, "cluster_id": 2, "rank_in_cluster": 6}

>  <energy>  (37) 
-6.68

>  <cluster_rmsd>  (37) 
0.19

>  <rmsd>  (37) 
271.69

>  <cluster>  (37) 
2

$$$$
OEDLLKAXDUWBBK-GOSISDBHNA-N
     RDKit          3D

 47 50  0  0  0  0  0  0  0  0999 V2000
  143.9460   73.1800  219.4610 F   0  0  0  0  0  0  0  0  0  0  0  0
  142.6990   73.1580  220.0570 C   0  0  0  0  0  0  0  0  0  0  0  0
  142.7810   72.4980  221.2680 F   0  0  0  0  0  0  0  0  0  0  0  0
  141.8660   72.4220  219.2320 F   0  0  0  0  0  0  0  0  0  0  0  0
  142.1840   74.5800  220.2550 C   0  0  0  0  0  0  0  0  0  0  0  0
  142.9770   75.6460  219.7940 C   0  0  0  0  0  0  0  0  0  0  0  0
  142.6040   76.9640  220.0170 C   0  0  0  0  0  0  0  0  0  0  0  0
  141.4550   77.2540  220.7390 C   0  0  0  0  0  0  0  0  0  0  0  0
  140.6220   76.2280  221.2210 C   0  0  0  0  0  0  0  0  0  0  0  0
  139.4310   76.6120  222.0890 C   0  0  0  0  0  0  0  0  0  0  0  0
  138.2880   76.6840  221.3130 F   0  0  0  0  0  0  0  0  0  0  0  0
  139.6560   77.8320  222.6970 F   0  0  0  0  0  0  0  0  0  0  0  0
  139.1960   75.6800  223.0850 F   0  0  0  0  0  0  0  0  0  0  0  0
  140.9410   74.8680  220.9050 C   0  0  0  0  0  0  0  0  0  0  0  0
  139.9520   73.7440  221.2010 C   0  0  0  0  0  0  0  0  0  0  0  0
  140.1680   73.2030  222.5520 N   0  0  0  0  0  0  0  0  0  0  0  0
  140.3260   71.7370  222.5700 C   0  0  2  0  0  0  0  0  0  0  0  0
  139.2570   71.0310  221.6850 C   0  0  0  0  0  0  0  0  0  0  0  0
  139.2100   69.5120  221.9470 C   0  0  0  0  0  0  0  0  0  0  0  0
  138.8150   69.2010  223.4020 C   0  0  0  0  0  0  0  0  0  0  0  0
  139.6030   70.0600  224.3430 C   0  0  0  0  0  0  0  0  0  0  0  0
  140.2320   71.2430  223.9870 C   0  0  0  0  0  0  0  0  0  0  0  0
  140.8650   71.7910  225.0510 N   0  0  0  0  0  0  0  0  0  0  0  0
  140.5930   70.9750  226.0880 C   0  0  0  0  0  0  0  0  0  0  0  0
  141.0170   71.1190  227.4090 C   0  0  0  0  0  0  0  0  0  0  0  0
  140.6190   70.1400  228.3390 C   0  0  0  0  0  0  0  0  0  0  0  0
  139.8180   69.0490  227.9310 C   0  0  0  0  0  0  0  0  0  0  0  0
  139.4090   68.9240  226.5920 C   0  0  0  0  0  0  0  0  0  0  0  0
  139.8180   69.9100  225.6950 C   0  0  0  0  0  0  0  0  0  0  0  0
  143.9076   75.4318  219.2481 H   0  0  0  0  0  0  0  0  0  0  0  0
  143.2220   77.7826  219.6196 H   0  0  0  0  0  0  0  0  0  0  0  0
  141.1913   78.3033  220.9377 H   0  0  0  0  0  0  0  0  0  0  0  0
  138.9270   74.1368  221.1290 H   0  0  0  0  0  0  0  0  0  0  0  0
  140.1042   72.9374  220.4688 H   0  0  0  0  0  0  0  0  0  0  0  0
  139.3710   73.4870  223.1670 H   0  0  0  0  0  0  0  0  0  0  0  0
  141.3138   71.4922  222.1526 H   0  0  0  0  0  0  0  0  0  0  0  0
  138.2696   71.4615  221.9076 H   0  0  0  0  0  0  0  0  0  0  0  0
  139.5278   71.1881  220.6305 H   0  0  0  0  0  0  0  0  0  0  0  0
  138.4718   69.0556  221.2712 H   0  0  0  0  0  0  0  0  0  0  0  0
  140.2140   69.1001  221.7670 H   0  0  0  0  0  0  0  0  0  0  0  0
  137.7420   69.4009  223.5386 H   0  0  0  0  0  0  0  0  0  0  0  0
  139.0282   68.1431  223.6152 H   0  0  0  0  0  0  0  0  0  0  0  0
  141.4590   72.6480  225.0630 H   0  0  0  0  0  0  0  0  0  0  0  0
  141.6426   71.9707  227.7144 H   0  0  0  0  0  0  0  0  0  0  0  0
  140.9333   70.2245  229.3898 H   0  0  0  0  0  0  0  0  0  0  0  0
  139.5122   68.2915  228.6676 H   0  0  0  0  0  0  0  0  0  0  0  0
  138.7879   68.0778  226.2632 H   0  0  0  0  0  0  0  0  0  0  0  0
  1  2  1  0
  2  3  1  0
  2  4  1  0
  2  5  1  0
  5  6  2  0
  6  7  1  0
  7  8  2  0
  8  9  1  0
  9 10  1  0
 10 11  1  0
 10 12  1  0
 10 13  1  0
  9 14  2  0
 14 15  1  0
 15 16  1  0
 16 17  1  0
 17 18  1  0
 18 19  1  0
 19 20  1  0
 20 21  1  0
 21 22  2  0
 22 23  1  0
 23 24  1  0
 24 25  2  0
 25 26  1  0
 26 27  2  0
 27 28  1  0
 28 29  2  0
 14  5  1  0
 22 17  1  0
 29 24  1  0
 29 21  1  0
  6 30  1  0
  7 31  1  0
  8 32  1  0
 15 33  1  0
 15 34  1  0
 16 35  1  0
 17 36  1  6
 18 37  1  0
 18 38  1  0
 19 39  1  0
 19 40  1  0
 20 41  1  0
 20 42  1  0
 23 43  1  0
 25 44  1  0
 26 45  1  0
 27 46  1  0
 28 47  1  0
M  END
>  <UniqueID>  (38) 
30

>  <SMILES>  (38) 
FC(F)(F)c1cccc(C(F)(F)F)c1CN[C@@H]1CCCc2c1[nH]c1ccccc21

>  <Energy>  (38) 
95.04361686842613

>  <Genealogy>  (38) 
FC(F)(F)c1cccc(C(F)(F)F)c1CN[C@@H]1CCCc2c1[nH]c1ccccc21 (chirality)
FC(F)(F)c1cccc(C(F)(F)F)c1CN[C@@H]1CCCc2c1[nH]c1ccccc21 (3D coordinates assigned)
FC(F)(F)c1cccc(C(F)(F)F)c1CN[C@@H]1CCCc2c1[nH]c1ccccc21 (nonaromatic ring conformer: 95.04361686842613 kcal/mol)

>  <smiles>  (38) 
FC(F)(F)c1cccc(C(F)(F)F)c1CNC1CCCc2c1[nH]c1ccccc21

>  <score_type>  (38) 
oracle

>  <origin>  (38) 
autodockgpu

>  <m_score__min__energy>  (38) 
-7.4000000000000004

>  <m_primary>  (38) 
energy

>  <meeko>  (38) 
{"free_energy": -7.38, "intermolecular_energy": -8.87, "internal_energy": -1.05, "cluster_size": 11, "cluster_id": 1, "rank_in_cluster": 8}

>  <energy>  (38) 
-6.68

>  <cluster_rmsd>  (38) 
0.23

>  <rmsd>  (38) 
271.66

>  <cluster>  (38) 
2

$$$$
OEDLLKAXDUWBBK-GOSISDBHNA-N
     RDKit          3D

 47 50  0  0  0  0  0  0  0  0999 V2000
  141.7800   72.3900  219.2950 F   0  0  0  0  0  0  0  0  0  0  0  0
  142.6530   73.1010  220.0970 C   0  0  0  0  0  0  0  0  0  0  0  0
  143.9090   73.0970  219.5240 F   0  0  0  0  0  0  0  0  0  0  0  0
  142.7390   72.4270  221.3030 F   0  0  0  0  0  0  0  0  0  0  0  0
  142.1530   74.5300  220.2840 C   0  0  0  0  0  0  0  0  0  0  0  0
  142.9630   75.5850  219.8260 C   0  0  0  0  0  0  0  0  0  0  0  0
  142.6050   76.9080  220.0400 C   0  0  0  0  0  0  0  0  0  0  0  0
  141.4520   77.2150  220.7490 C   0  0  0  0  0  0  0  0  0  0  0  0
  140.6020   76.2010  221.2290 C   0  0  0  0  0  0  0  0  0  0  0  0
  139.4090   76.6040  222.0840 C   0  0  0  0  0  0  0  0  0  0  0  0
  139.6350   77.8460  222.6490 F   0  0  0  0  0  0  0  0  0  0  0  0
  139.1990   75.6720  223.0810 F   0  0  0  0  0  0  0  0  0  0  0  0
  138.2460   76.6950  221.3380 F   0  0  0  0  0  0  0  0  0  0  0  0
  140.9080   74.8360  220.9220 C   0  0  0  0  0  0  0  0  0  0  0  0
  139.9030   73.7260  221.2130 C   0  0  0  0  0  0  0  0  0  0  0  0
  140.1090   73.1790  222.5630 N   0  0  0  0  0  0  0  0  0  0  0  0
  140.2930   71.7150  222.5730 C   0  0  2  0  0  0  0  0  0  0  0  0
  139.2210   70.9930  221.7060 C   0  0  0  0  0  0  0  0  0  0  0  0
  139.2050   69.4730  221.9630 C   0  0  0  0  0  0  0  0  0  0  0  0
  138.8440   69.1500  223.4240 C   0  0  0  0  0  0  0  0  0  0  0  0
  139.6340   70.0200  224.3530 C   0  0  0  0  0  0  0  0  0  0  0  0
  140.2340   71.2160  223.9900 C   0  0  0  0  0  0  0  0  0  0  0  0
  140.8770   71.7710  225.0430 N   0  0  0  0  0  0  0  0  0  0  0  0
  140.6410   70.9480  226.0830 C   0  0  0  0  0  0  0  0  0  0  0  0
  141.0860   71.0950  227.3960 C   0  0  0  0  0  0  0  0  0  0  0  0
  140.7240   70.1060  228.3290 C   0  0  0  0  0  0  0  0  0  0  0  0
  139.9350   69.0030  227.9330 C   0  0  0  0  0  0  0  0  0  0  0  0
  139.5030   68.8740  226.6010 C   0  0  0  0  0  0  0  0  0  0  0  0
  139.8770   69.8700  225.7000 C   0  0  0  0  0  0  0  0  0  0  0  0
  143.8957   75.3571  219.2893 H   0  0  0  0  0  0  0  0  0  0  0  0
  143.2376   77.7172  219.6461 H   0  0  0  0  0  0  0  0  0  0  0  0
  141.1982   78.2683  220.9389 H   0  0  0  0  0  0  0  0  0  0  0  0
  138.8838   74.1334  221.1401 H   0  0  0  0  0  0  0  0  0  0  0  0
  140.0448   72.9191  220.4790 H   0  0  0  0  0  0  0  0  0  0  0  0
  139.2970   73.4440  223.1680 H   0  0  0  0  0  0  0  0  0  0  0  0
  141.2768   71.4885  222.1362 H   0  0  0  0  0  0  0  0  0  0  0  0
  138.2304   71.4054  221.9483 H   0  0  0  0  0  0  0  0  0  0  0  0
  139.4700   71.1580  220.6473 H   0  0  0  0  0  0  0  0  0  0  0  0
  138.4616   69.0065  221.2999 H   0  0  0  0  0  0  0  0  0  0  0  0
  140.2122   69.0791  221.7619 H   0  0  0  0  0  0  0  0  0  0  0  0
  137.7703   69.3297  223.5819 H   0  0  0  0  0  0  0  0  0  0  0  0
  139.0807   68.0955  223.6291 H   0  0  0  0  0  0  0  0  0  0  0  0
  141.4570   72.6390  225.0470 H   0  0  0  0  0  0  0  0  0  0  0  0
  141.7009   71.9573  227.6933 H   0  0  0  0  0  0  0  0  0  0  0  0
  141.0575   70.1922  229.3737 H   0  0  0  0  0  0  0  0  0  0  0  0
  139.6562   68.2384  228.6731 H   0  0  0  0  0  0  0  0  0  0  0  0
  138.8915   68.0174  226.2812 H   0  0  0  0  0  0  0  0  0  0  0  0
  1  2  1  0
  2  3  1  0
  2  4  1  0
  2  5  1  0
  5  6  2  0
  6  7  1  0
  7  8  2  0
  8  9  1  0
  9 10  1  0
 10 11  1  0
 10 12  1  0
 10 13  1  0
  9 14  2  0
 14 15  1  0
 15 16  1  0
 16 17  1  0
 17 18  1  0
 18 19  1  0
 19 20  1  0
 20 21  1  0
 21 22  2  0
 22 23  1  0
 23 24  1  0
 24 25  2  0
 25 26  1  0
 26 27  2  0
 27 28  1  0
 28 29  2  0
 14  5  1  0
 22 17  1  0
 29 24  1  0
 29 21  1  0
  6 30  1  0
  7 31  1  0
  8 32  1  0
 15 33  1  0
 15 34  1  0
 16 35  1  0
 17 36  1  6
 18 37  1  0
 18 38  1  0
 19 39  1  0
 19 40  1  0
 20 41  1  0
 20 42  1  0
 23 43  1  0
 25 44  1  0
 26 45  1  0
 27 46  1  0
 28 47  1  0
M  END
>  <UniqueID>  (39) 
30

>  <SMILES>  (39) 
FC(F)(F)c1cccc(C(F)(F)F)c1CN[C@@H]1CCCc2c1[nH]c1ccccc21

>  <Energy>  (39) 
95.04361686842613

>  <Genealogy>  (39) 
FC(F)(F)c1cccc(C(F)(F)F)c1CN[C@@H]1CCCc2c1[nH]c1ccccc21 (chirality)
FC(F)(F)c1cccc(C(F)(F)F)c1CN[C@@H]1CCCc2c1[nH]c1ccccc21 (3D coordinates assigned)
FC(F)(F)c1cccc(C(F)(F)F)c1CN[C@@H]1CCCc2c1[nH]c1ccccc21 (nonaromatic ring conformer: 95.04361686842613 kcal/mol)

>  <smiles>  (39) 
FC(F)(F)c1cccc(C(F)(F)F)c1CNC1CCCc2c1[nH]c1ccccc21

>  <score_type>  (39) 
oracle

>  <origin>  (39) 
autodockgpu

>  <m_score__min__energy>  (39) 
-7.4000000000000004

>  <m_primary>  (39) 
energy

>  <meeko>  (39) 
{"free_energy": -7.38, "intermolecular_energy": -8.87, "internal_energy": -1.04, "cluster_size": 11, "cluster_id": 1, "rank_in_cluster": 7}

>  <energy>  (39) 
-6.67

>  <cluster_rmsd>  (39) 
0.18

>  <rmsd>  (39) 
271.69

>  <cluster>  (39) 
2

$$$$
OEDLLKAXDUWBBK-GOSISDBHNA-N
     RDKit          3D

 47 50  0  0  0  0  0  0  0  0999 V2000
  143.8510   72.7680  219.2080 F   0  0  0  0  0  0  0  0  0  0  0  0
  142.7100   72.8880  219.9790 C   0  0  0  0  0  0  0  0  0  0  0  0
  142.9300   72.3200  221.2180 F   0  0  0  0  0  0  0  0  0  0  0  0
  141.7170   72.1570  219.3510 F   0  0  0  0  0  0  0  0  0  0  0  0
  142.3230   74.3560  220.1230 C   0  0  0  0  0  0  0  0  0  0  0  0
  143.1950   75.3300  219.6030 C   0  0  0  0  0  0  0  0  0  0  0  0
  142.9420   76.6840  219.7750 C   0  0  0  0  0  0  0  0  0  0  0  0
  141.8370   77.1020  220.5030 C   0  0  0  0  0  0  0  0  0  0  0  0
  140.9290   76.1730  221.0440 C   0  0  0  0  0  0  0  0  0  0  0  0
  139.7950   76.6950  221.9150 C   0  0  0  0  0  0  0  0  0  0  0  0
  138.7020   77.0070  221.1250 F   0  0  0  0  0  0  0  0  0  0  0  0
  140.2020   77.8190  222.6070 F   0  0  0  0  0  0  0  0  0  0  0  0
  139.3800   75.7540  222.8420 F   0  0  0  0  0  0  0  0  0  0  0  0
  141.1240   74.7780  220.7820 C   0  0  0  0  0  0  0  0  0  0  0  0
  140.0480   73.7580  221.1440 C   0  0  0  0  0  0  0  0  0  0  0  0
  140.2730   73.2230  222.4950 N   0  0  0  0  0  0  0  0  0  0  0  0
  140.3790   71.7520  222.5260 C   0  0  2  0  0  0  0  0  0  0  0  0
  139.3150   71.0780  221.6120 C   0  0  0  0  0  0  0  0  0  0  0  0
  139.2070   69.5630  221.8790 C   0  0  0  0  0  0  0  0  0  0  0  0
  138.7570   69.2750  223.3230 C   0  0  0  0  0  0  0  0  0  0  0  0
  139.5430   70.1120  224.2840 C   0  0  0  0  0  0  0  0  0  0  0  0
  140.2230   71.2710  223.9420 C   0  0  0  0  0  0  0  0  0  0  0  0
  140.8410   71.8030  225.0230 N   0  0  0  0  0  0  0  0  0  0  0  0
  140.5090   71.0040  226.0550 C   0  0  0  0  0  0  0  0  0  0  0  0
  140.8950   71.1410  227.3880 C   0  0  0  0  0  0  0  0  0  0  0  0
  140.4340   70.1820  228.3100 C   0  0  0  0  0  0  0  0  0  0  0  0
  139.6100   69.1170  227.8820 C   0  0  0  0  0  0  0  0  0  0  0  0
  139.2400   68.9980  226.5310 C   0  0  0  0  0  0  0  0  0  0  0  0
  139.7100   69.9640  225.6430 C   0  0  0  0  0  0  0  0  0  0  0  0
  144.0922   75.0133  219.0510 H   0  0  0  0  0  0  0  0  0  0  0  0
  143.6201   77.4286  219.3325 H   0  0  0  0  0  0  0  0  0  0  0  0
  141.6681   78.1776  220.6598 H   0  0  0  0  0  0  0  0  0  0  0  0
  139.0622   74.2447  221.1078 H   0  0  0  0  0  0  0  0  0  0  0  0
  140.0904   72.9281  220.4232 H   0  0  0  0  0  0  0  0  0  0  0  0
  139.4980   73.5410  223.1230 H   0  0  0  0  0  0  0  0  0  0  0  0
  141.3703   71.4703  222.1414 H   0  0  0  0  0  0  0  0  0  0  0  0
  138.3366   71.5435  221.8016 H   0  0  0  0  0  0  0  0  0  0  0  0
  139.6243   71.2194  220.5659 H   0  0  0  0  0  0  0  0  0  0  0  0
  138.4742   69.1288  221.1830 H   0  0  0  0  0  0  0  0  0  0  0  0
  140.2007   69.1149  221.7314 H   0  0  0  0  0  0  0  0  0  0  0  0
  137.6876   69.5117  223.4248 H   0  0  0  0  0  0  0  0  0  0  0  0
  138.9284   68.2120  223.5481 H   0  0  0  0  0  0  0  0  0  0  0  0
  141.4640   72.6400  225.0490 H   0  0  0  0  0  0  0  0  0  0  0  0
  141.5396   71.9725  227.7092 H   0  0  0  0  0  0  0  0  0  0  0  0
  140.7170   70.2624  229.3699 H   0  0  0  0  0  0  0  0  0  0  0  0
  139.2550   68.3747  228.6121 H   0  0  0  0  0  0  0  0  0  0  0  0
  138.6016   68.1711  226.1866 H   0  0  0  0  0  0  0  0  0  0  0  0
  1  2  1  0
  2  3  1  0
  2  4  1  0
  2  5  1  0
  5  6  2  0
  6  7  1  0
  7  8  2  0
  8  9  1  0
  9 10  1  0
 10 11  1  0
 10 12  1  0
 10 13  1  0
  9 14  2  0
 14 15  1  0
 15 16  1  0
 16 17  1  0
 17 18  1  0
 18 19  1  0
 19 20  1  0
 20 21  1  0
 21 22  2  0
 22 23  1  0
 23 24  1  0
 24 25  2  0
 25 26  1  0
 26 27  2  0
 27 28  1  0
 28 29  2  0
 14  5  1  0
 22 17  1  0
 29 24  1  0
 29 21  1  0
  6 30  1  0
  7 31  1  0
  8 32  1  0
 15 33  1  0
 15 34  1  0
 16 35  1  0
 17 36  1  6
 18 37  1  0
 18 38  1  0
 19 39  1  0
 19 40  1  0
 20 41  1  0
 20 42  1  0
 23 43  1  0
 25 44  1  0
 26 45  1  0
 27 46  1  0
 28 47  1  0
M  END
>  <UniqueID>  (40) 
30

>  <SMILES>  (40) 
FC(F)(F)c1cccc(C(F)(F)F)c1CN[C@@H]1CCCc2c1[nH]c1ccccc21

>  <Energy>  (40) 
95.04361686842613

>  <Genealogy>  (40) 
FC(F)(F)c1cccc(C(F)(F)F)c1CN[C@@H]1CCCc2c1[nH]c1ccccc21 (chirality)
FC(F)(F)c1cccc(C(F)(F)F)c1CN[C@@H]1CCCc2c1[nH]c1ccccc21 (3D coordinates assigned)
FC(F)(F)c1cccc(C(F)(F)F)c1CN[C@@H]1CCCc2c1[nH]c1ccccc21 (nonaromatic ring conformer: 95.04361686842613 kcal/mol)

>  <smiles>  (40) 
FC(F)(F)c1cccc(C(F)(F)F)c1CNC1CCCc2c1[nH]c1ccccc21

>  <score_type>  (40) 
oracle

>  <origin>  (40) 
autodockgpu

>  <m_score__min__energy>  (40) 
-7.4000000000000004

>  <m_primary>  (40) 
energy

>  <meeko>  (40) 
{"free_energy": -7.4, "intermolecular_energy": -8.89, "internal_energy": -1.02, "cluster_size": 11, "cluster_id": 1, "rank_in_cluster": 3}

>  <energy>  (40) 
-6.67

>  <cluster_rmsd>  (40) 
0.21

>  <rmsd>  (40) 
271.68

>  <cluster>  (40) 
2

$$$$
OEDLLKAXDUWBBK-SFHVURJKNA-N
     RDKit          3D

 47 50  0  0  0  0  0  0  0  0999 V2000
  142.4180   71.5350  221.6300 F   0  0  0  0  0  0  0  0  0  0  0  0
  143.0740   72.2040  220.6150 C   0  0  0  0  0  0  0  0  0  0  0  0
  142.8460   71.5600  219.4120 F   0  0  0  0  0  0  0  0  0  0  0  0
  144.4290   72.1330  220.8940 F   0  0  0  0  0  0  0  0  0  0  0  0
  142.6170   73.6510  220.5140 C   0  0  0  0  0  0  0  0  0  0  0  0
  143.5270   74.5810  219.9810 C   0  0  0  0  0  0  0  0  0  0  0  0
  143.1990   75.9250  219.8730 C   0  0  0  0  0  0  0  0  0  0  0  0
  141.9740   76.3840  220.3340 C   0  0  0  0  0  0  0  0  0  0  0  0
  141.0250   75.4980  220.8740 C   0  0  0  0  0  0  0  0  0  0  0  0
  139.7420   76.0800  221.4480 C   0  0  0  0  0  0  0  0  0  0  0  0
  139.5900   75.7630  222.7870 F   0  0  0  0  0  0  0  0  0  0  0  0
  139.7530   77.4560  221.3320 F   0  0  0  0  0  0  0  0  0  0  0  0
  138.6450   75.5680  220.7770 F   0  0  0  0  0  0  0  0  0  0  0  0
  141.2980   74.0920  220.8610 C   0  0  0  0  0  0  0  0  0  0  0  0
  140.1980   73.0880  221.1970 C   0  0  0  0  0  0  0  0  0  0  0  0
  140.0650   72.8990  222.6570 N   0  0  0  0  0  0  0  0  0  0  0  0
  139.1000   71.8640  223.0880 C   0  0  1  0  0  0  0  0  0  0  0  0
  138.6690   70.9270  221.9190 C   0  0  0  0  0  0  0  0  0  0  0  0
  137.9500   69.6580  222.4230 C   0  0  0  0  0  0  0  0  0  0  0  0
  138.8540   68.8280  223.3520 C   0  0  0  0  0  0  0  0  0  0  0  0
  139.4390   69.7140  224.4080 C   0  0  0  0  0  0  0  0  0  0  0  0
  139.5910   71.0840  224.2820 C   0  0  0  0  0  0  0  0  0  0  0  0
  140.1150   71.6170  225.4090 N   0  0  0  0  0  0  0  0  0  0  0  0
  140.3650   70.5700  226.2180 C   0  0  0  0  0  0  0  0  0  0  0  0
  140.9510   70.6010  227.4810 C   0  0  0  0  0  0  0  0  0  0  0  0
  141.1300   69.3780  228.1540 C   0  0  0  0  0  0  0  0  0  0  0  0
  140.7200   68.1650  227.5560 C   0  0  0  0  0  0  0  0  0  0  0  0
  140.1290   68.1620  226.2790 C   0  0  0  0  0  0  0  0  0  0  0  0
  139.9680   69.3880  225.6370 C   0  0  0  0  0  0  0  0  0  0  0  0
  144.5160   74.2372  219.6438 H   0  0  0  0  0  0  0  0  0  0  0  0
  143.9129   76.6288  219.4202 H   0  0  0  0  0  0  0  0  0  0  0  0
  141.7413   77.4576  220.2763 H   0  0  0  0  0  0  0  0  0  0  0  0
  139.2425   73.4569  220.7958 H   0  0  0  0  0  0  0  0  0  0  0  0
  140.4643   72.1205  220.7465 H   0  0  0  0  0  0  0  0  0  0  0  0
  139.7840   73.8100  223.0900 H   0  0  0  0  0  0  0  0  0  0  0  0
  138.1966   72.4030  223.4095 H   0  0  0  0  0  0  0  0  0  0  0  0
  137.9882   71.4796  221.2548 H   0  0  0  0  0  0  0  0  0  0  0  0
  139.5785   70.6108  221.3872 H   0  0  0  0  0  0  0  0  0  0  0  0
  137.0464   69.9549  222.9756 H   0  0  0  0  0  0  0  0  0  0  0  0
  137.6907   69.0393  221.5512 H   0  0  0  0  0  0  0  0  0  0  0  0
  138.2592   68.0346  223.8282 H   0  0  0  0  0  0  0  0  0  0  0  0
  139.6662   68.3768  222.7632 H   0  0  0  0  0  0  0  0  0  0  0  0
  140.2880   72.6260  225.6130 H   0  0  0  0  0  0  0  0  0  0  0  0
  141.2640   71.5513  227.9381 H   0  0  0  0  0  0  0  0  0  0  0  0
  141.5921   69.3662  229.1522 H   0  0  0  0  0  0  0  0  0  0  0  0
  140.8640   67.2158  228.0929 H   0  0  0  0  0  0  0  0  0  0  0  0
  139.8053   67.2241  225.8040 H   0  0  0  0  0  0  0  0  0  0  0  0
  1  2  1  0
  2  3  1  0
  2  4  1  0
  2  5  1  0
  5  6  2  0
  6  7  1  0
  7  8  2  0
  8  9  1  0
  9 10  1  0
 10 11  1  0
 10 12  1  0
 10 13  1  0
  9 14  2  0
 14 15  1  0
 15 16  1  0
 16 17  1  0
 17 18  1  0
 18 19  1  0
 19 20  1  0
 20 21  1  0
 21 22  2  0
 22 23  1  0
 23 24  1  0
 24 25  2  0
 25 26  1  0
 26 27  2  0
 27 28  1  0
 28 29  2  0
 14  5  1  0
 22 17  1  0
 29 24  1  0
 29 21  1  0
  6 30  1  0
  7 31  1  0
  8 32  1  0
 15 33  1  0
 15 34  1  0
 16 35  1  0
 17 36  1  1
 18 37  1  0
 18 38  1  0
 19 39  1  0
 19 40  1  0
 20 41  1  0
 20 42  1  0
 23 43  1  0
 25 44  1  0
 26 45  1  0
 27 46  1  0
 28 47  1  0
M  END
>  <UniqueID>  (41) 
31

>  <SMILES>  (41) 
FC(F)(F)c1cccc(C(F)(F)F)c1CN[C@H]1CCCc2c1[nH]c1ccccc21

>  <Energy>  (41) 
95.50398610088541

>  <Genealogy>  (41) 
FC(F)(F)c1cccc(C(F)(F)F)c1CN[C@H]1CCCc2c1[nH]c1ccccc21 (chirality)
FC(F)(F)c1cccc(C(F)(F)F)c1CN[C@H]1CCCc2c1[nH]c1ccccc21 (3D coordinates assigned)
FC(F)(F)c1cccc(C(F)(F)F)c1CN[C@H]1CCCc2c1[nH]c1ccccc21 (nonaromatic ring conformer: 95.50398610088541 kcal/mol)

>  <smiles>  (41) 
FC(F)(F)c1cccc(C(F)(F)F)c1CNC1CCCc2c1[nH]c1ccccc21

>  <score_type>  (41) 
oracle

>  <origin>  (41) 
autodockgpu

>  <m_score__min__energy>  (41) 
-7.21

>  <m_primary>  (41) 
energy

>  <meeko>  (41) 
{"free_energy": -7.13, "intermolecular_energy": -8.62, "internal_energy": -1.01, "cluster_size": 17, "cluster_id": 1, "rank_in_cluster": 7}

>  <energy>  (41) 
-7.21

>  <cluster_rmsd>  (41) 
0.0

>  <rmsd>  (41) 
269.9

>  <cluster>  (41) 
1

$$$$
OEDLLKAXDUWBBK-SFHVURJKNA-N
     RDKit          3D

 47 50  0  0  0  0  0  0  0  0999 V2000
  140.9070   76.0340  222.2920 F   0  0  0  0  0  0  0  0  0  0  0  0
  141.2090   75.9040  220.9500 C   0  0  0  0  0  0  0  0  0  0  0  0
  141.9170   77.0130  220.5240 F   0  0  0  0  0  0  0  0  0  0  0  0
  140.0050   75.8700  220.2670 F   0  0  0  0  0  0  0  0  0  0  0  0
  142.0200   74.6450  220.6800 C   0  0  0  0  0  0  0  0  0  0  0  0
  143.4020   74.7990  220.4740 C   0  0  0  0  0  0  0  0  0  0  0  0
  144.2120   73.7050  220.2010 C   0  0  0  0  0  0  0  0  0  0  0  0
  143.6590   72.4380  220.0830 C   0  0  0  0  0  0  0  0  0  0  0  0
  142.2820   72.2280  220.2810 C   0  0  0  0  0  0  0  0  0  0  0  0
  141.7270   70.8320  220.0430 C   0  0  0  0  0  0  0  0  0  0  0  0
  142.7300   69.9260  219.7400 F   0  0  0  0  0  0  0  0  0  0  0  0
  141.0720   70.3830  221.1740 F   0  0  0  0  0  0  0  0  0  0  0  0
  140.8490   70.8440  218.9740 F   0  0  0  0  0  0  0  0  0  0  0  0
  141.4630   73.3240  220.7010 C   0  0  0  0  0  0  0  0  0  0  0  0
  140.0310   73.0840  221.1730 C   0  0  0  0  0  0  0  0  0  0  0  0
  139.9710   72.8790  222.6360 N   0  0  0  0  0  0  0  0  0  0  0  0
  139.0080   71.8590  223.1050 C   0  0  1  0  0  0  0  0  0  0  0  0
  138.5250   70.9220  221.9560 C   0  0  0  0  0  0  0  0  0  0  0  0
  137.8090   69.6650  222.4910 C   0  0  0  0  0  0  0  0  0  0  0  0
  138.7330   68.8280  223.3930 C   0  0  0  0  0  0  0  0  0  0  0  0
  139.3650   69.7110  224.4240 C   0  0  0  0  0  0  0  0  0  0  0  0
  139.5290   71.0780  224.2860 C   0  0  0  0  0  0  0  0  0  0  0  0
  140.0990   71.6100  225.3920 N   0  0  0  0  0  0  0  0  0  0  0  0
  140.3620   70.5640  226.1970 C   0  0  0  0  0  0  0  0  0  0  0  0
  140.9920   70.5940  227.4390 C   0  0  0  0  0  0  0  0  0  0  0  0
  141.1790   69.3710  228.1110 C   0  0  0  0  0  0  0  0  0  0  0  0
  140.7330   68.1610  227.5340 C   0  0  0  0  0  0  0  0  0  0  0  0
  140.0980   68.1590  226.2780 C   0  0  0  0  0  0  0  0  0  0  0  0
  139.9310   69.3850  225.6360 C   0  0  0  0  0  0  0  0  0  0  0  0
  143.8489   75.8026  220.5300 H   0  0  0  0  0  0  0  0  0  0  0  0
  145.2963   73.8432  220.0778 H   0  0  0  0  0  0  0  0  0  0  0  0
  144.3066   71.5853  219.8309 H   0  0  0  0  0  0  0  0  0  0  0  0
  139.4163   73.9571  220.9087 H   0  0  0  0  0  0  0  0  0  0  0  0
  139.6526   72.1759  220.6810 H   0  0  0  0  0  0  0  0  0  0  0  0
  139.7310   73.7900  223.0940 H   0  0  0  0  0  0  0  0  0  0  0  0
  138.1234   72.4116  223.4543 H   0  0  0  0  0  0  0  0  0  0  0  0
  137.8282   71.4799  221.3132 H   0  0  0  0  0  0  0  0  0  0  0  0
  139.4114   70.5922  221.3942 H   0  0  0  0  0  0  0  0  0  0  0  0
  136.9285   69.9759  223.0724 H   0  0  0  0  0  0  0  0  0  0  0  0
  137.5133   69.0453  221.6316 H   0  0  0  0  0  0  0  0  0  0  0  0
  138.1445   68.0448  223.8932 H   0  0  0  0  0  0  0  0  0  0  0  0
  139.5189   68.3636  222.7793 H   0  0  0  0  0  0  0  0  0  0  0  0
  140.2910   72.6180  225.5840 H   0  0  0  0  0  0  0  0  0  0  0  0
  141.3323   71.5423  227.8804 H   0  0  0  0  0  0  0  0  0  0  0  0
  141.6759   69.3575  229.0923 H   0  0  0  0  0  0  0  0  0  0  0  0
  140.8833   67.2127  228.0708 H   0  0  0  0  0  0  0  0  0  0  0  0
  139.7460   67.2232  225.8192 H   0  0  0  0  0  0  0  0  0  0  0  0
  1  2  1  0
  2  3  1  0
  2  4  1  0
  2  5  1  0
  5  6  2  0
  6  7  1  0
  7  8  2  0
  8  9  1  0
  9 10  1  0
 10 11  1  0
 10 12  1  0
 10 13  1  0
  9 14  2  0
 14 15  1  0
 15 16  1  0
 16 17  1  0
 17 18  1  0
 18 19  1  0
 19 20  1  0
 20 21  1  0
 21 22  2  0
 22 23  1  0
 23 24  1  0
 24 25  2  0
 25 26  1  0
 26 27  2  0
 27 28  1  0
 28 29  2  0
 14  5  1  0
 22 17  1  0
 29 24  1  0
 29 21  1  0
  6 30  1  0
  7 31  1  0
  8 32  1  0
 15 33  1  0
 15 34  1  0
 16 35  1  0
 17 36  1  1
 18 37  1  0
 18 38  1  0
 19 39  1  0
 19 40  1  0
 20 41  1  0
 20 42  1  0
 23 43  1  0
 25 44  1  0
 26 45  1  0
 27 46  1  0
 28 47  1  0
M  END
>  <UniqueID>  (42) 
31

>  <SMILES>  (42) 
FC(F)(F)c1cccc(C(F)(F)F)c1CN[C@H]1CCCc2c1[nH]c1ccccc21

>  <Energy>  (42) 
95.50398610088541

>  <Genealogy>  (42) 
FC(F)(F)c1cccc(C(F)(F)F)c1CN[C@H]1CCCc2c1[nH]c1ccccc21 (chirality)
FC(F)(F)c1cccc(C(F)(F)F)c1CN[C@H]1CCCc2c1[nH]c1ccccc21 (3D coordinates assigned)
FC(F)(F)c1cccc(C(F)(F)F)c1CN[C@H]1CCCc2c1[nH]c1ccccc21 (nonaromatic ring conformer: 95.50398610088541 kcal/mol)

>  <smiles>  (42) 
FC(F)(F)c1cccc(C(F)(F)F)c1CNC1CCCc2c1[nH]c1ccccc21

>  <score_type>  (42) 
oracle

>  <origin>  (42) 
autodockgpu

>  <m_score__min__energy>  (42) 
-7.21

>  <m_primary>  (42) 
energy

>  <meeko>  (42) 
{"free_energy": -6.87, "intermolecular_energy": -8.36, "internal_energy": -1.16, "cluster_size": 17, "cluster_id": 1, "rank_in_cluster": 10}

>  <energy>  (42) 
-7.2

>  <cluster_rmsd>  (42) 
0.06

>  <rmsd>  (42) 
269.88

>  <cluster>  (42) 
1

$$$$
OEDLLKAXDUWBBK-SFHVURJKNA-N
     RDKit          3D

 47 50  0  0  0  0  0  0  0  0999 V2000
  141.0370   76.1180  222.2960 F   0  0  0  0  0  0  0  0  0  0  0  0
  141.3130   75.9630  220.9510 C   0  0  0  0  0  0  0  0  0  0  0  0
  142.0690   77.0330  220.5060 F   0  0  0  0  0  0  0  0  0  0  0  0
  140.0990   75.9830  220.2850 F   0  0  0  0  0  0  0  0  0  0  0  0
  142.0570   74.6640  220.6800 C   0  0  0  0  0  0  0  0  0  0  0  0
  143.4440   74.7450  220.4650 C   0  0  0  0  0  0  0  0  0  0  0  0
  144.1950   73.6110  220.1900 C   0  0  0  0  0  0  0  0  0  0  0  0
  143.5770   72.3740  220.0800 C   0  0  0  0  0  0  0  0  0  0  0  0
  142.1930   72.2350  220.2890 C   0  0  0  0  0  0  0  0  0  0  0  0
  141.5650   70.8680  220.0600 C   0  0  0  0  0  0  0  0  0  0  0  0
  141.0250   70.3510  221.2250 F   0  0  0  0  0  0  0  0  0  0  0  0
  140.5540   70.9620  219.1240 F   0  0  0  0  0  0  0  0  0  0  0  0
  142.5230   69.9710  219.6190 F   0  0  0  0  0  0  0  0  0  0  0  0
  141.4340   73.3730  220.7100 C   0  0  0  0  0  0  0  0  0  0  0  0
  139.9940   73.2070  221.1920 C   0  0  0  0  0  0  0  0  0  0  0  0
  139.9390   72.9280  222.6430 N   0  0  0  0  0  0  0  0  0  0  0  0
  138.9790   71.8840  223.0630 C   0  0  1  0  0  0  0  0  0  0  0  0
  138.5110   70.9920  221.8740 C   0  0  0  0  0  0  0  0  0  0  0  0
  137.7970   69.7100  222.3510 C   0  0  0  0  0  0  0  0  0  0  0  0
  138.7190   68.8430  223.2280 C   0  0  0  0  0  0  0  0  0  0  0  0
  139.3370   69.6880  224.2980 C   0  0  0  0  0  0  0  0  0  0  0  0
  139.4940   71.0600  224.2160 C   0  0  0  0  0  0  0  0  0  0  0  0
  140.0520   71.5510  225.3470 N   0  0  0  0  0  0  0  0  0  0  0  0
  140.3150   70.4750  226.1120 C   0  0  0  0  0  0  0  0  0  0  0  0
  140.9340   70.4590  227.3600 C   0  0  0  0  0  0  0  0  0  0  0  0
  141.1220   69.2110  227.9840 C   0  0  0  0  0  0  0  0  0  0  0  0
  140.6890   68.0230  227.3560 C   0  0  0  0  0  0  0  0  0  0  0  0
  140.0640   68.0670  226.0950 C   0  0  0  0  0  0  0  0  0  0  0  0
  139.8950   69.3170  225.5010 C   0  0  0  0  0  0  0  0  0  0  0  0
  143.9425   75.7242  220.5156 H   0  0  0  0  0  0  0  0  0  0  0  0
  145.2841   73.6933  220.0588 H   0  0  0  0  0  0  0  0  0  0  0  0
  144.1782   71.4887  219.8256 H   0  0  0  0  0  0  0  0  0  0  0  0
  139.4382   74.1333  220.9844 H   0  0  0  0  0  0  0  0  0  0  0  0
  139.5467   72.3552  220.6587 H   0  0  0  0  0  0  0  0  0  0  0  0
  139.7000   73.8150  223.1470 H   0  0  0  0  0  0  0  0  0  0  0  0
  138.0884   72.4170  223.4272 H   0  0  0  0  0  0  0  0  0  0  0  0
  137.8166   71.5719  221.2483 H   0  0  0  0  0  0  0  0  0  0  0  0
  139.4041   70.6895  221.3076 H   0  0  0  0  0  0  0  0  0  0  0  0
  136.9091   69.9920  222.9359 H   0  0  0  0  0  0  0  0  0  0  0  0
  137.5125   69.1236  221.4649 H   0  0  0  0  0  0  0  0  0  0  0  0
  138.1310   68.0374  223.6920 H   0  0  0  0  0  0  0  0  0  0  0  0
  139.5128   68.4076  222.6032 H   0  0  0  0  0  0  0  0  0  0  0  0
  140.2360   72.5510  225.5820 H   0  0  0  0  0  0  0  0  0  0  0  0
  141.2650   71.3907  227.8420 H   0  0  0  0  0  0  0  0  0  0  0  0
  141.6101   69.1612  228.9685 H   0  0  0  0  0  0  0  0  0  0  0  0
  140.8411   67.0550  227.8559 H   0  0  0  0  0  0  0  0  0  0  0  0
  139.7214   67.1482  225.5965 H   0  0  0  0  0  0  0  0  0  0  0  0
  1  2  1  0
  2  3  1  0
  2  4  1  0
  2  5  1  0
  5  6  2  0
  6  7  1  0
  7  8  2  0
  8  9  1  0
  9 10  1  0
 10 11  1  0
 10 12  1  0
 10 13  1  0
  9 14  2  0
 14 15  1  0
 15 16  1  0
 16 17  1  0
 17 18  1  0
 18 19  1  0
 19 20  1  0
 20 21  1  0
 21 22  2  0
 22 23  1  0
 23 24  1  0
 24 25  2  0
 25 26  1  0
 26 27  2  0
 27 28  1  0
 28 29  2  0
 14  5  1  0
 22 17  1  0
 29 24  1  0
 29 21  1  0
  6 30  1  0
  7 31  1  0
  8 32  1  0
 15 33  1  0
 15 34  1  0
 16 35  1  0
 17 36  1  1
 18 37  1  0
 18 38  1  0
 19 39  1  0
 19 40  1  0
 20 41  1  0
 20 42  1  0
 23 43  1  0
 25 44  1  0
 26 45  1  0
 27 46  1  0
 28 47  1  0
M  END
>  <UniqueID>  (43) 
31

>  <SMILES>  (43) 
FC(F)(F)c1cccc(C(F)(F)F)c1CN[C@H]1CCCc2c1[nH]c1ccccc21

>  <Energy>  (43) 
95.50398610088541

>  <Genealogy>  (43) 
FC(F)(F)c1cccc(C(F)(F)F)c1CN[C@H]1CCCc2c1[nH]c1ccccc21 (chirality)
FC(F)(F)c1cccc(C(F)(F)F)c1CN[C@H]1CCCc2c1[nH]c1ccccc21 (3D coordinates assigned)
FC(F)(F)c1cccc(C(F)(F)F)c1CN[C@H]1CCCc2c1[nH]c1ccccc21 (nonaromatic ring conformer: 95.50398610088541 kcal/mol)

>  <smiles>  (43) 
FC(F)(F)c1cccc(C(F)(F)F)c1CNC1CCCc2c1[nH]c1ccccc21

>  <score_type>  (43) 
oracle

>  <origin>  (43) 
autodockgpu

>  <m_score__min__energy>  (43) 
-7.21

>  <m_primary>  (43) 
energy

>  <meeko>  (43) 
{"free_energy": -6.79, "intermolecular_energy": -8.28, "internal_energy": -1.19, "cluster_size": 17, "cluster_id": 1, "rank_in_cluster": 14}

>  <energy>  (43) 
-7.19

>  <cluster_rmsd>  (43) 
0.2

>  <rmsd>  (43) 
269.86

>  <cluster>  (43) 
1

$$$$
OEDLLKAXDUWBBK-SFHVURJKNA-N
     RDKit          3D

 47 50  0  0  0  0  0  0  0  0999 V2000
  140.0110   75.9120  220.2990 F   0  0  0  0  0  0  0  0  0  0  0  0
  141.2240   75.9230  220.9600 C   0  0  0  0  0  0  0  0  0  0  0  0
  141.0100   76.0490  222.3210 F   0  0  0  0  0  0  0  0  0  0  0  0
  141.9100   77.0460  220.5250 F   0  0  0  0  0  0  0  0  0  0  0  0
  142.0240   74.6600  220.6820 C   0  0  0  0  0  0  0  0  0  0  0  0
  143.4070   74.8020  220.4720 C   0  0  0  0  0  0  0  0  0  0  0  0
  144.2060   73.7030  220.1920 C   0  0  0  0  0  0  0  0  0  0  0  0
  143.6420   72.4420  220.0710 C   0  0  0  0  0  0  0  0  0  0  0  0
  142.2650   72.2420  220.2740 C   0  0  0  0  0  0  0  0  0  0  0  0
  141.6980   70.8510  220.0330 C   0  0  0  0  0  0  0  0  0  0  0  0
  141.0690   70.3520  221.1610 F   0  0  0  0  0  0  0  0  0  0  0  0
  140.7720   70.8880  219.0080 F   0  0  0  0  0  0  0  0  0  0  0  0
  142.7150   69.9710  219.7070 F   0  0  0  0  0  0  0  0  0  0  0  0
  141.4560   73.3430  220.7000 C   0  0  0  0  0  0  0  0  0  0  0  0
  140.0240   73.1120  221.1760 C   0  0  0  0  0  0  0  0  0  0  0  0
  139.9690   72.8850  222.6360 N   0  0  0  0  0  0  0  0  0  0  0  0
  139.0070   71.8590  223.0940 C   0  0  1  0  0  0  0  0  0  0  0  0
  138.5390   70.9240  221.9380 C   0  0  0  0  0  0  0  0  0  0  0  0
  137.8240   69.6620  222.4630 C   0  0  0  0  0  0  0  0  0  0  0  0
  138.7430   68.8270  223.3710 C   0  0  0  0  0  0  0  0  0  0  0  0
  139.3610   69.7100  224.4110 C   0  0  0  0  0  0  0  0  0  0  0  0
  139.5210   71.0780  224.2770 C   0  0  0  0  0  0  0  0  0  0  0  0
  140.0780   71.6100  225.3900 N   0  0  0  0  0  0  0  0  0  0  0  0
  140.3390   70.5630  226.1950 C   0  0  0  0  0  0  0  0  0  0  0  0
  140.9570   70.5920  227.4430 C   0  0  0  0  0  0  0  0  0  0  0  0
  141.1430   69.3680  228.1130 C   0  0  0  0  0  0  0  0  0  0  0  0
  140.7080   68.1580  227.5290 C   0  0  0  0  0  0  0  0  0  0  0  0
  140.0850   68.1560  226.2670 C   0  0  0  0  0  0  0  0  0  0  0  0
  139.9180   69.3830  225.6270 C   0  0  0  0  0  0  0  0  0  0  0  0
  143.8631   75.8013  220.5307 H   0  0  0  0  0  0  0  0  0  0  0  0
  145.2910   73.8324  220.0655 H   0  0  0  0  0  0  0  0  0  0  0  0
  144.2815   71.5852  219.8123 H   0  0  0  0  0  0  0  0  0  0  0  0
  139.4179   73.9960  220.9285 H   0  0  0  0  0  0  0  0  0  0  0  0
  139.6328   72.2159  220.6721 H   0  0  0  0  0  0  0  0  0  0  0  0
  139.7320   73.7900  223.1090 H   0  0  0  0  0  0  0  0  0  0  0  0
  138.1165   72.4056  223.4377 H   0  0  0  0  0  0  0  0  0  0  0  0
  137.8454   71.4808  221.2907 H   0  0  0  0  0  0  0  0  0  0  0  0
  139.4318   70.6002  221.3829 H   0  0  0  0  0  0  0  0  0  0  0  0
  136.9366   69.9672  223.0370 H   0  0  0  0  0  0  0  0  0  0  0  0
  137.5394   69.0433  221.5992 H   0  0  0  0  0  0  0  0  0  0  0  0
  138.1535   68.0394  223.8631 H   0  0  0  0  0  0  0  0  0  0  0  0
  139.5370   68.3683  222.7634 H   0  0  0  0  0  0  0  0  0  0  0  0
  140.2630   72.6180  225.5870 H   0  0  0  0  0  0  0  0  0  0  0  0
  141.2889   71.5405  227.8904 H   0  0  0  0  0  0  0  0  0  0  0  0
  141.6308   69.3539  229.0988 H   0  0  0  0  0  0  0  0  0  0  0  0
  140.8573   67.2091  228.0650 H   0  0  0  0  0  0  0  0  0  0  0  0
  139.7422   67.2197  225.8023 H   0  0  0  0  0  0  0  0  0  0  0  0
  1  2  1  0
  2  3  1  0
  2  4  1  0
  2  5  1  0
  5  6  2  0
  6  7  1  0
  7  8  2  0
  8  9  1  0
  9 10  1  0
 10 11  1  0
 10 12  1  0
 10 13  1  0
  9 14  2  0
 14 15  1  0
 15 16  1  0
 16 17  1  0
 17 18  1  0
 18 19  1  0
 19 20  1  0
 20 21  1  0
 21 22  2  0
 22 23  1  0
 23 24  1  0
 24 25  2  0
 25 26  1  0
 26 27  2  0
 27 28  1  0
 28 29  2  0
 14  5  1  0
 22 17  1  0
 29 24  1  0
 29 21  1  0
  6 30  1  0
  7 31  1  0
  8 32  1  0
 15 33  1  0
 15 34  1  0
 16 35  1  0
 17 36  1  1
 18 37  1  0
 18 38  1  0
 19 39  1  0
 19 40  1  0
 20 41  1  0
 20 42  1  0
 23 43  1  0
 25 44  1  0
 26 45  1  0
 27 46  1  0
 28 47  1  0
M  END
>  <UniqueID>  (44) 
31

>  <SMILES>  (44) 
FC(F)(F)c1cccc(C(F)(F)F)c1CN[C@H]1CCCc2c1[nH]c1ccccc21

>  <Energy>  (44) 
95.50398610088541

>  <Genealogy>  (44) 
FC(F)(F)c1cccc(C(F)(F)F)c1CN[C@H]1CCCc2c1[nH]c1ccccc21 (chirality)
FC(F)(F)c1cccc(C(F)(F)F)c1CN[C@H]1CCCc2c1[nH]c1ccccc21 (3D coordinates assigned)
FC(F)(F)c1cccc(C(F)(F)F)c1CN[C@H]1CCCc2c1[nH]c1ccccc21 (nonaromatic ring conformer: 95.50398610088541 kcal/mol)

>  <smiles>  (44) 
FC(F)(F)c1cccc(C(F)(F)F)c1CNC1CCCc2c1[nH]c1ccccc21

>  <score_type>  (44) 
oracle

>  <origin>  (44) 
autodockgpu

>  <m_score__min__energy>  (44) 
-7.21

>  <m_primary>  (44) 
energy

>  <meeko>  (44) 
{"free_energy": -6.86, "intermolecular_energy": -8.35, "internal_energy": -1.17, "cluster_size": 17, "cluster_id": 1, "rank_in_cluster": 11}

>  <energy>  (44) 
-7.18

>  <cluster_rmsd>  (44) 
0.27

>  <rmsd>  (44) 
269.84

>  <cluster>  (44) 
1

$$$$
OEDLLKAXDUWBBK-SFHVURJKNA-N
     RDKit          3D

 47 50  0  0  0  0  0  0  0  0999 V2000
  141.7100   70.9280  219.7320 F   0  0  0  0  0  0  0  0  0  0  0  0
  142.3670   71.5850  220.7540 C   0  0  0  0  0  0  0  0  0  0  0  0
  143.6600   71.1050  220.8600 F   0  0  0  0  0  0  0  0  0  0  0  0
  141.6950   71.2800  221.9270 F   0  0  0  0  0  0  0  0  0  0  0  0
  142.3960   73.0880  220.5230 C   0  0  0  0  0  0  0  0  0  0  0  0
  143.5640   73.6330  219.9590 C   0  0  0  0  0  0  0  0  0  0  0  0
  143.6820   74.9970  219.7350 C   0  0  0  0  0  0  0  0  0  0  0  0
  142.6590   75.8580  220.1050 C   0  0  0  0  0  0  0  0  0  0  0  0
  141.4690   75.3670  220.6710 C   0  0  0  0  0  0  0  0  0  0  0  0
  140.4280   76.3720  221.1420 C   0  0  0  0  0  0  0  0  0  0  0  0
  139.2740   76.3080  220.3790 F   0  0  0  0  0  0  0  0  0  0  0  0
  140.0870   76.1200  222.4560 F   0  0  0  0  0  0  0  0  0  0  0  0
  140.9240   77.6590  221.0300 F   0  0  0  0  0  0  0  0  0  0  0  0
  141.2800   73.9510  220.7780 C   0  0  0  0  0  0  0  0  0  0  0  0
  139.9120   73.3790  221.1420 C   0  0  0  0  0  0  0  0  0  0  0  0
  139.8330   73.0400  222.5790 N   0  0  0  0  0  0  0  0  0  0  0  0
  138.9370   71.9160  222.9280 C   0  0  1  0  0  0  0  0  0  0  0  0
  138.5860   71.0290  221.6950 C   0  0  0  0  0  0  0  0  0  0  0  0
  137.9510   69.6840  222.1050 C   0  0  0  0  0  0  0  0  0  0  0  0
  138.8990   68.8600  222.9950 C   0  0  0  0  0  0  0  0  0  0  0  0
  139.4080   69.7150  224.1150 C   0  0  0  0  0  0  0  0  0  0  0  0
  139.4660   71.0960  224.0780 C   0  0  0  0  0  0  0  0  0  0  0  0
  139.9380   71.5910  225.2450 N   0  0  0  0  0  0  0  0  0  0  0  0
  140.2500   70.5140  225.9900 C   0  0  0  0  0  0  0  0  0  0  0  0
  140.8170   70.5040  227.2620 C   0  0  0  0  0  0  0  0  0  0  0  0
  141.0720   69.2550  227.8590 C   0  0  0  0  0  0  0  0  0  0  0  0
  140.7550   68.0580  227.1790 C   0  0  0  0  0  0  0  0  0  0  0  0
  140.1810   68.0960  225.8950 C   0  0  0  0  0  0  0  0  0  0  0  0
  139.9430   69.3480  225.3300 C   0  0  0  0  0  0  0  0  0  0  0  0
  144.3973   72.9667  219.6913 H   0  0  0  0  0  0  0  0  0  0  0  0
  144.5907   75.3976  219.2619 H   0  0  0  0  0  0  0  0  0  0  0  0
  142.7805   76.9407  219.9534 H   0  0  0  0  0  0  0  0  0  0  0  0
  139.1384   74.1250  220.9074 H   0  0  0  0  0  0  0  0  0  0  0  0
  139.7563   72.4584  220.5605 H   0  0  0  0  0  0  0  0  0  0  0  0
  139.5160   73.8870  223.1070 H   0  0  0  0  0  0  0  0  0  0  0  0
  137.9949   72.3704  223.2686 H   0  0  0  0  0  0  0  0  0  0  0  0
  137.8764   71.5754  221.0563 H   0  0  0  0  0  0  0  0  0  0  0  0
  139.5216   70.8108  221.1593 H   0  0  0  0  0  0  0  0  0  0  0  0
  137.0219   69.8818  222.6597 H   0  0  0  0  0  0  0  0  0  0  0  0
  137.7465   69.1064  221.1914 H   0  0  0  0  0  0  0  0  0  0  0  0
  138.3549   67.9988  223.4102 H   0  0  0  0  0  0  0  0  0  0  0  0
  139.7479   68.5042  222.3927 H   0  0  0  0  0  0  0  0  0  0  0  0
  140.0370   72.5940  225.5150 H   0  0  0  0  0  0  0  0  0  0  0  0
  141.0579   71.4421  227.7835 H   0  0  0  0  0  0  0  0  0  0  0  0
  141.5213   69.2107  228.8621 H   0  0  0  0  0  0  0  0  0  0  0  0
  140.9586   67.0885  227.6572 H   0  0  0  0  0  0  0  0  0  0  0  0
  139.9290   67.1707  225.3562 H   0  0  0  0  0  0  0  0  0  0  0  0
  1  2  1  0
  2  3  1  0
  2  4  1  0
  2  5  1  0
  5  6  2  0
  6  7  1  0
  7  8  2  0
  8  9  1  0
  9 10  1  0
 10 11  1  0
 10 12  1  0
 10 13  1  0
  9 14  2  0
 14 15  1  0
 15 16  1  0
 16 17  1  0
 17 18  1  0
 18 19  1  0
 19 20  1  0
 20 21  1  0
 21 22  2  0
 22 23  1  0
 23 24  1  0
 24 25  2  0
 25 26  1  0
 26 27  2  0
 27 28  1  0
 28 29  2  0
 14  5  1  0
 22 17  1  0
 29 24  1  0
 29 21  1  0
  6 30  1  0
  7 31  1  0
  8 32  1  0
 15 33  1  0
 15 34  1  0
 16 35  1  0
 17 36  1  1
 18 37  1  0
 18 38  1  0
 19 39  1  0
 19 40  1  0
 20 41  1  0
 20 42  1  0
 23 43  1  0
 25 44  1  0
 26 45  1  0
 27 46  1  0
 28 47  1  0
M  END
>  <UniqueID>  (45) 
31

>  <SMILES>  (45) 
FC(F)(F)c1cccc(C(F)(F)F)c1CN[C@H]1CCCc2c1[nH]c1ccccc21

>  <Energy>  (45) 
95.50398610088541

>  <Genealogy>  (45) 
FC(F)(F)c1cccc(C(F)(F)F)c1CN[C@H]1CCCc2c1[nH]c1ccccc21 (chirality)
FC(F)(F)c1cccc(C(F)(F)F)c1CN[C@H]1CCCc2c1[nH]c1ccccc21 (3D coordinates assigned)
FC(F)(F)c1cccc(C(F)(F)F)c1CN[C@H]1CCCc2c1[nH]c1ccccc21 (nonaromatic ring conformer: 95.50398610088541 kcal/mol)

>  <smiles>  (45) 
FC(F)(F)c1cccc(C(F)(F)F)c1CNC1CCCc2c1[nH]c1ccccc21

>  <score_type>  (45) 
oracle

>  <origin>  (45) 
autodockgpu

>  <m_score__min__energy>  (45) 
-7.21

>  <m_primary>  (45) 
energy

>  <meeko>  (45) 
{"free_energy": -6.72, "intermolecular_energy": -8.21, "internal_energy": -1.19, "cluster_size": 17, "cluster_id": 1, "rank_in_cluster": 15}

>  <energy>  (45) 
-7.15

>  <cluster_rmsd>  (45) 
0.33

>  <rmsd>  (45) 
269.82

>  <cluster>  (45) 
1

$$$$
OEDLLKAXDUWBBK-SFHVURJKNA-N
     RDKit          3D

 47 50  0  0  0  0  0  0  0  0999 V2000
  144.3550   72.0250  220.7120 F   0  0  0  0  0  0  0  0  0  0  0  0
  142.9880   72.1510  220.5580 C   0  0  0  0  0  0  0  0  0  0  0  0
  142.3430   71.5510  221.6250 F   0  0  0  0  0  0  0  0  0  0  0  0
  142.6470   71.4630  219.4050 F   0  0  0  0  0  0  0  0  0  0  0  0
  142.5690   73.6100  220.4620 C   0  0  0  0  0  0  0  0  0  0  0  0
  143.4990   74.5150  219.9190 C   0  0  0  0  0  0  0  0  0  0  0  0
  143.2060   75.8670  219.8150 C   0  0  0  0  0  0  0  0  0  0  0  0
  141.9970   76.3590  220.2860 C   0  0  0  0  0  0  0  0  0  0  0  0
  141.0300   75.4980  220.8350 C   0  0  0  0  0  0  0  0  0  0  0  0
  139.7680   76.1140  221.4200 C   0  0  0  0  0  0  0  0  0  0  0  0
  139.8470   77.4960  221.4650 F   0  0  0  0  0  0  0  0  0  0  0  0
  138.6740   75.7720  220.6500 F   0  0  0  0  0  0  0  0  0  0  0  0
  139.5790   75.6720  222.7180 F   0  0  0  0  0  0  0  0  0  0  0  0
  141.2650   74.0860  220.8200 C   0  0  0  0  0  0  0  0  0  0  0  0
  140.1420   73.1110  221.1650 C   0  0  0  0  0  0  0  0  0  0  0  0
  140.0650   72.8680  222.6220 N   0  0  0  0  0  0  0  0  0  0  0  0
  139.0940   71.8390  223.0540 C   0  0  1  0  0  0  0  0  0  0  0  0
  138.6690   70.8950  221.8890 C   0  0  0  0  0  0  0  0  0  0  0  0
  137.9440   69.6310  222.3970 C   0  0  0  0  0  0  0  0  0  0  0  0
  138.8390   68.8060  223.3400 C   0  0  0  0  0  0  0  0  0  0  0  0
  139.4180   69.6990  224.3930 C   0  0  0  0  0  0  0  0  0  0  0  0
  139.5740   71.0670  224.2570 C   0  0  0  0  0  0  0  0  0  0  0  0
  140.0920   71.6080  225.3840 N   0  0  0  0  0  0  0  0  0  0  0  0
  140.3330   70.5660  226.2030 C   0  0  0  0  0  0  0  0  0  0  0  0
  140.9100   70.6060  227.4700 C   0  0  0  0  0  0  0  0  0  0  0  0
  141.0820   69.3870  228.1530 C   0  0  0  0  0  0  0  0  0  0  0  0
  140.6730   68.1710  227.5610 C   0  0  0  0  0  0  0  0  0  0  0  0
  140.0900   68.1590  226.2810 C   0  0  0  0  0  0  0  0  0  0  0  0
  139.9370   69.3810  225.6280 C   0  0  0  0  0  0  0  0  0  0  0  0
  144.4746   74.1446  219.5711 H   0  0  0  0  0  0  0  0  0  0  0  0
  143.9350   76.5518  219.3573 H   0  0  0  0  0  0  0  0  0  0  0  0
  141.7920   77.4382  220.2291 H   0  0  0  0  0  0  0  0  0  0  0  0
  139.1853   73.5314  220.8215 H   0  0  0  0  0  0  0  0  0  0  0  0
  140.3502   72.1533  220.6654 H   0  0  0  0  0  0  0  0  0  0  0  0
  139.8230   73.7680  223.1010 H   0  0  0  0  0  0  0  0  0  0  0  0
  138.1898   72.3826  223.3653 H   0  0  0  0  0  0  0  0  0  0  0  0
  137.9938   71.4443  221.2165 H   0  0  0  0  0  0  0  0  0  0  0  0
  139.5814   70.5732  221.3655 H   0  0  0  0  0  0  0  0  0  0  0  0
  137.0365   69.9337  222.9399 H   0  0  0  0  0  0  0  0  0  0  0  0
  137.6911   69.0061  221.5278 H   0  0  0  0  0  0  0  0  0  0  0  0
  138.2385   68.0180  223.8181 H   0  0  0  0  0  0  0  0  0  0  0  0
  139.6545   68.3479  222.7612 H   0  0  0  0  0  0  0  0  0  0  0  0
  140.2650   72.6180  225.5820 H   0  0  0  0  0  0  0  0  0  0  0  0
  141.2212   71.5592  227.9224 H   0  0  0  0  0  0  0  0  0  0  0  0
  141.5378   69.3812  229.1541 H   0  0  0  0  0  0  0  0  0  0  0  0
  140.8117   67.2255  228.1058 H   0  0  0  0  0  0  0  0  0  0  0  0
  139.7662   67.2183  225.8117 H   0  0  0  0  0  0  0  0  0  0  0  0
  1  2  1  0
  2  3  1  0
  2  4  1  0
  2  5  1  0
  5  6  2  0
  6  7  1  0
  7  8  2  0
  8  9  1  0
  9 10  1  0
 10 11  1  0
 10 12  1  0
 10 13  1  0
  9 14  2  0
 14 15  1  0
 15 16  1  0
 16 17  1  0
 17 18  1  0
 18 19  1  0
 19 20  1  0
 20 21  1  0
 21 22  2  0
 22 23  1  0
 23 24  1  0
 24 25  2  0
 25 26  1  0
 26 27  2  0
 27 28  1  0
 28 29  2  0
 14  5  1  0
 22 17  1  0
 29 24  1  0
 29 21  1  0
  6 30  1  0
  7 31  1  0
  8 32  1  0
 15 33  1  0
 15 34  1  0
 16 35  1  0
 17 36  1  1
 18 37  1  0
 18 38  1  0
 19 39  1  0
 19 40  1  0
 20 41  1  0
 20 42  1  0
 23 43  1  0
 25 44  1  0
 26 45  1  0
 27 46  1  0
 28 47  1  0
M  END
>  <UniqueID>  (46) 
31

>  <SMILES>  (46) 
FC(F)(F)c1cccc(C(F)(F)F)c1CN[C@H]1CCCc2c1[nH]c1ccccc21

>  <Energy>  (46) 
95.50398610088541

>  <Genealogy>  (46) 
FC(F)(F)c1cccc(C(F)(F)F)c1CN[C@H]1CCCc2c1[nH]c1ccccc21 (chirality)
FC(F)(F)c1cccc(C(F)(F)F)c1CN[C@H]1CCCc2c1[nH]c1ccccc21 (3D coordinates assigned)
FC(F)(F)c1cccc(C(F)(F)F)c1CN[C@H]1CCCc2c1[nH]c1ccccc21 (nonaromatic ring conformer: 95.50398610088541 kcal/mol)

>  <smiles>  (46) 
FC(F)(F)c1cccc(C(F)(F)F)c1CNC1CCCc2c1[nH]c1ccccc21

>  <score_type>  (46) 
oracle

>  <origin>  (46) 
autodockgpu

>  <m_score__min__energy>  (46) 
-7.21

>  <m_primary>  (46) 
energy

>  <meeko>  (46) 
{"free_energy": -7.13, "intermolecular_energy": -8.62, "internal_energy": -1.0, "cluster_size": 17, "cluster_id": 1, "rank_in_cluster": 6}

>  <energy>  (46) 
-7.13

>  <cluster_rmsd>  (46) 
0.41

>  <rmsd>  (46) 
269.78

>  <cluster>  (46) 
1

$$$$
OEDLLKAXDUWBBK-SFHVURJKNA-N
     RDKit          3D

 47 50  0  0  0  0  0  0  0  0999 V2000
  137.1500   76.8620  222.1610 F   0  0  0  0  0  0  0  0  0  0  0  0
  138.5000   77.1020  221.9930 C   0  0  0  0  0  0  0  0  0  0  0  0
  138.8000   77.1400  220.6430 F   0  0  0  0  0  0  0  0  0  0  0  0
  139.1730   76.0300  222.5560 F   0  0  0  0  0  0  0  0  0  0  0  0
  138.9200   78.4090  222.6480 C   0  0  0  0  0  0  0  0  0  0  0  0
  137.9080   79.2010  223.2180 C   0  0  0  0  0  0  0  0  0  0  0  0
  138.2020   80.4190  223.8160 C   0  0  0  0  0  0  0  0  0  0  0  0
  139.5040   80.8970  223.8240 C   0  0  0  0  0  0  0  0  0  0  0  0
  140.5550   80.1440  223.2700 C   0  0  0  0  0  0  0  0  0  0  0  0
  141.9420   80.7690  223.2260 C   0  0  0  0  0  0  0  0  0  0  0  0
  142.2950   81.1420  221.9410 F   0  0  0  0  0  0  0  0  0  0  0  0
  141.9790   81.8950  224.0250 F   0  0  0  0  0  0  0  0  0  0  0  0
  142.8890   79.8590  223.6640 F   0  0  0  0  0  0  0  0  0  0  0  0
  140.2850   78.8280  222.7770 C   0  0  0  0  0  0  0  0  0  0  0  0
  141.4320   77.8890  222.4100 C   0  0  0  0  0  0  0  0  0  0  0  0
  142.1780   78.3800  221.2310 N   0  0  0  0  0  0  0  0  0  0  0  0
  141.8840   77.6990  219.9520 C   0  0  1  0  0  0  0  0  0  0  0  0
  142.1470   78.6130  218.7160 C   0  0  0  0  0  0  0  0  0  0  0  0
  142.1780   77.8150  217.3960 C   0  0  0  0  0  0  0  0  0  0  0  0
  143.2860   76.7470  217.4070 C   0  0  0  0  0  0  0  0  0  0  0  0
  143.1900   75.9360  218.6620 C   0  0  0  0  0  0  0  0  0  0  0  0
  142.5930   76.3730  219.8310 C   0  0  0  0  0  0  0  0  0  0  0  0
  142.6290   75.4110  220.7820 N   0  0  0  0  0  0  0  0  0  0  0  0
  143.3190   74.3930  220.2340 C   0  0  0  0  0  0  0  0  0  0  0  0
  143.6650   73.1870  220.8380 C   0  0  0  0  0  0  0  0  0  0  0  0
  144.4050   72.2600  220.0810 C   0  0  0  0  0  0  0  0  0  0  0  0
  144.7760   72.5550  218.7500 C   0  0  0  0  0  0  0  0  0  0  0  0
  144.4130   73.7810  218.1630 C   0  0  0  0  0  0  0  0  0  0  0  0
  143.6830   74.6800  218.9390 C   0  0  0  0  0  0  0  0  0  0  0  0
  136.8659   78.8499  223.1898 H   0  0  0  0  0  0  0  0  0  0  0  0
  137.3994   81.0071  224.2851 H   0  0  0  0  0  0  0  0  0  0  0  0
  139.7178   81.8795  224.2702 H   0  0  0  0  0  0  0  0  0  0  0  0
  142.1213   77.8158  223.2641 H   0  0  0  0  0  0  0  0  0  0  0  0
  141.0072   76.9045  222.1644 H   0  0  0  0  0  0  0  0  0  0  0  0
  143.2040   78.2910  221.4210 H   0  0  0  0  0  0  0  0  0  0  0  0
  140.8054   77.4831  219.9619 H   0  0  0  0  0  0  0  0  0  0  0  0
  141.3473   79.3659  218.6559 H   0  0  0  0  0  0  0  0  0  0  0  0
  143.1321   79.0842  218.8485 H   0  0  0  0  0  0  0  0  0  0  0  0
  141.2059   77.3198  217.2551 H   0  0  0  0  0  0  0  0  0  0  0  0
  142.3837   78.5165  216.5740 H   0  0  0  0  0  0  0  0  0  0  0  0
  143.1671   76.0873  216.5349 H   0  0  0  0  0  0  0  0  0  0  0  0
  144.2685   77.2398  217.3649 H   0  0  0  0  0  0  0  0  0  0  0  0
  142.2100   75.4460  221.7360 H   0  0  0  0  0  0  0  0  0  0  0  0
  143.3692   72.9660  221.8742 H   0  0  0  0  0  0  0  0  0  0  0  0
  144.6968   71.2986  220.5288 H   0  0  0  0  0  0  0  0  0  0  0  0
  145.3529   71.8208  218.1685 H   0  0  0  0  0  0  0  0  0  0  0  0
  144.6954   74.0218  217.1275 H   0  0  0  0  0  0  0  0  0  0  0  0
  1  2  1  0
  2  3  1  0
  2  4  1  0
  2  5  1  0
  5  6  2  0
  6  7  1  0
  7  8  2  0
  8  9  1  0
  9 10  1  0
 10 11  1  0
 10 12  1  0
 10 13  1  0
  9 14  2  0
 14 15  1  0
 15 16  1  0
 16 17  1  0
 17 18  1  0
 18 19  1  0
 19 20  1  0
 20 21  1  0
 21 22  2  0
 22 23  1  0
 23 24  1  0
 24 25  2  0
 25 26  1  0
 26 27  2  0
 27 28  1  0
 28 29  2  0
 14  5  1  0
 22 17  1  0
 29 24  1  0
 29 21  1  0
  6 30  1  0
  7 31  1  0
  8 32  1  0
 15 33  1  0
 15 34  1  0
 16 35  1  0
 17 36  1  1
 18 37  1  0
 18 38  1  0
 19 39  1  0
 19 40  1  0
 20 41  1  0
 20 42  1  0
 23 43  1  0
 25 44  1  0
 26 45  1  0
 27 46  1  0
 28 47  1  0
M  END
>  <UniqueID>  (47) 
31

>  <SMILES>  (47) 
FC(F)(F)c1cccc(C(F)(F)F)c1CN[C@H]1CCCc2c1[nH]c1ccccc21

>  <Energy>  (47) 
95.50398610088541

>  <Genealogy>  (47) 
FC(F)(F)c1cccc(C(F)(F)F)c1CN[C@H]1CCCc2c1[nH]c1ccccc21 (chirality)
FC(F)(F)c1cccc(C(F)(F)F)c1CN[C@H]1CCCc2c1[nH]c1ccccc21 (3D coordinates assigned)
FC(F)(F)c1cccc(C(F)(F)F)c1CN[C@H]1CCCc2c1[nH]c1ccccc21 (nonaromatic ring conformer: 95.50398610088541 kcal/mol)

>  <smiles>  (47) 
FC(F)(F)c1cccc(C(F)(F)F)c1CNC1CCCc2c1[nH]c1ccccc21

>  <score_type>  (47) 
oracle

>  <origin>  (47) 
autodockgpu

>  <m_score__min__energy>  (47) 
-7.21

>  <m_primary>  (47) 
energy

>  <meeko>  (47) 
{"free_energy": -6.46, "intermolecular_energy": -7.95, "internal_energy": -1.16, "cluster_size": 3, "cluster_id": 2, "rank_in_cluster": 3}

>  <energy>  (47) 
-7.13

>  <cluster_rmsd>  (47) 
0.34

>  <rmsd>  (47) 
269.82

>  <cluster>  (47) 
1

$$$$
OEDLLKAXDUWBBK-SFHVURJKNA-N
     RDKit          3D

 47 50  0  0  0  0  0  0  0  0999 V2000
  137.0110   77.0610  222.1690 F   0  0  0  0  0  0  0  0  0  0  0  0
  138.3830   77.1680  222.0540 C   0  0  0  0  0  0  0  0  0  0  0  0
  138.7410   77.1410  220.7180 F   0  0  0  0  0  0  0  0  0  0  0  0
  138.9280   76.0540  222.6700 F   0  0  0  0  0  0  0  0  0  0  0  0
  138.8980   78.4480  222.6960 C   0  0  0  0  0  0  0  0  0  0  0  0
  137.9550   79.2820  223.3220 C   0  0  0  0  0  0  0  0  0  0  0  0
  138.3370   80.4780  223.9140 C   0  0  0  0  0  0  0  0  0  0  0  0
  139.6600   80.8930  223.8580 C   0  0  0  0  0  0  0  0  0  0  0  0
  140.6440   80.0970  223.2470 C   0  0  0  0  0  0  0  0  0  0  0  0
  142.0550   80.6560  223.1370 C   0  0  0  0  0  0  0  0  0  0  0  0
  143.0070   79.7150  223.4920 F   0  0  0  0  0  0  0  0  0  0  0  0
  142.3080   81.0530  221.8390 F   0  0  0  0  0  0  0  0  0  0  0  0
  142.2080   81.7350  223.9900 F   0  0  0  0  0  0  0  0  0  0  0  0
  140.2870   78.8000  222.7580 C   0  0  0  0  0  0  0  0  0  0  0  0
  141.3670   77.8110  222.3270 C   0  0  0  0  0  0  0  0  0  0  0  0
  142.1150   78.3060  221.1510 N   0  0  0  0  0  0  0  0  0  0  0  0
  141.8570   77.5980  219.8780 C   0  0  1  0  0  0  0  0  0  0  0  0
  142.1050   78.5040  218.6330 C   0  0  0  0  0  0  0  0  0  0  0  0
  142.1760   77.6900  217.3250 C   0  0  0  0  0  0  0  0  0  0  0  0
  143.3160   76.6570  217.3620 C   0  0  0  0  0  0  0  0  0  0  0  0
  143.2330   75.8600  218.6270 C   0  0  0  0  0  0  0  0  0  0  0  0
  142.6090   76.2940  219.7830 C   0  0  0  0  0  0  0  0  0  0  0  0
  142.6650   75.3470  220.7470 N   0  0  0  0  0  0  0  0  0  0  0  0
  143.3920   74.3440  220.2210 C   0  0  0  0  0  0  0  0  0  0  0  0
  143.7690   73.1570  220.8460 C   0  0  0  0  0  0  0  0  0  0  0  0
  144.5460   72.2440  220.1090 C   0  0  0  0  0  0  0  0  0  0  0  0
  144.9220   72.5330  218.7790 C   0  0  0  0  0  0  0  0  0  0  0  0
  144.5280   73.7390  218.1700 C   0  0  0  0  0  0  0  0  0  0  0  0
  143.7610   74.6240  218.9260 C   0  0  0  0  0  0  0  0  0  0  0  0
  136.8970   78.9818  223.3430 H   0  0  0  0  0  0  0  0  0  0  0  0
  137.5889   81.0986  224.4290 H   0  0  0  0  0  0  0  0  0  0  0  0
  139.9430   81.8603  224.2988 H   0  0  0  0  0  0  0  0  0  0  0  0
  142.0690   77.6621  223.1607 H   0  0  0  0  0  0  0  0  0  0  0  0
  140.8792   76.8639  222.0530 H   0  0  0  0  0  0  0  0  0  0  0  0
  143.1410   78.2470  221.3560 H   0  0  0  0  0  0  0  0  0  0  0  0
  140.7860   77.3470  219.8790 H   0  0  0  0  0  0  0  0  0  0  0  0
  141.2827   79.2304  218.5540 H   0  0  0  0  0  0  0  0  0  0  0  0
  143.0729   79.0084  218.7698 H   0  0  0  0  0  0  0  0  0  0  0  0
  141.2213   77.1631  217.1802 H   0  0  0  0  0  0  0  0  0  0  0  0
  142.3698   78.3868  216.4962 H   0  0  0  0  0  0  0  0  0  0  0  0
  143.2263   75.9822  216.4980 H   0  0  0  0  0  0  0  0  0  0  0  0
  144.2831   77.1797  217.3232 H   0  0  0  0  0  0  0  0  0  0  0  0
  142.2330   75.3810  221.6970 H   0  0  0  0  0  0  0  0  0  0  0  0
  143.4690   72.9406  221.8819 H   0  0  0  0  0  0  0  0  0  0  0  0
  144.8628   71.2981  220.5725 H   0  0  0  0  0  0  0  0  0  0  0  0
  145.5280   71.8094  218.2141 H   0  0  0  0  0  0  0  0  0  0  0  0
  144.8150   73.9748  217.1346 H   0  0  0  0  0  0  0  0  0  0  0  0
  1  2  1  0
  2  3  1  0
  2  4  1  0
  2  5  1  0
  5  6  2  0
  6  7  1  0
  7  8  2  0
  8  9  1  0
  9 10  1  0
 10 11  1  0
 10 12  1  0
 10 13  1  0
  9 14  2  0
 14 15  1  0
 15 16  1  0
 16 17  1  0
 17 18  1  0
 18 19  1  0
 19 20  1  0
 20 21  1  0
 21 22  2  0
 22 23  1  0
 23 24  1  0
 24 25  2  0
 25 26  1  0
 26 27  2  0
 27 28  1  0
 28 29  2  0
 14  5  1  0
 22 17  1  0
 29 24  1  0
 29 21  1  0
  6 30  1  0
  7 31  1  0
  8 32  1  0
 15 33  1  0
 15 34  1  0
 16 35  1  0
 17 36  1  1
 18 37  1  0
 18 38  1  0
 19 39  1  0
 19 40  1  0
 20 41  1  0
 20 42  1  0
 23 43  1  0
 25 44  1  0
 26 45  1  0
 27 46  1  0
 28 47  1  0
M  END
>  <UniqueID>  (48) 
31

>  <SMILES>  (48) 
FC(F)(F)c1cccc(C(F)(F)F)c1CN[C@H]1CCCc2c1[nH]c1ccccc21

>  <Energy>  (48) 
95.50398610088541

>  <Genealogy>  (48) 
FC(F)(F)c1cccc(C(F)(F)F)c1CN[C@H]1CCCc2c1[nH]c1ccccc21 (chirality)
FC(F)(F)c1cccc(C(F)(F)F)c1CN[C@H]1CCCc2c1[nH]c1ccccc21 (3D coordinates assigned)
FC(F)(F)c1cccc(C(F)(F)F)c1CN[C@H]1CCCc2c1[nH]c1ccccc21 (nonaromatic ring conformer: 95.50398610088541 kcal/mol)

>  <smiles>  (48) 
FC(F)(F)c1cccc(C(F)(F)F)c1CNC1CCCc2c1[nH]c1ccccc21

>  <score_type>  (48) 
oracle

>  <origin>  (48) 
autodockgpu

>  <m_score__min__energy>  (48) 
-7.21

>  <m_primary>  (48) 
energy

>  <meeko>  (48) 
{"free_energy": -6.52, "intermolecular_energy": -8.01, "internal_energy": -1.11, "cluster_size": 3, "cluster_id": 2, "rank_in_cluster": 1}

>  <energy>  (48) 
-7.04

>  <cluster_rmsd>  (48) 
1.68

>  <rmsd>  (48) 
269.8

>  <cluster>  (48) 
1

$$$$
OEDLLKAXDUWBBK-SFHVURJKNA-N
     RDKit          3D

 47 50  0  0  0  0  0  0  0  0999 V2000
  144.7060   72.5860  220.8780 F   0  0  0  0  0  0  0  0  0  0  0  0
  143.3560   72.4810  220.5990 C   0  0  0  0  0  0  0  0  0  0  0  0
  142.7400   71.7140  221.5710 F   0  0  0  0  0  0  0  0  0  0  0  0
  143.2450   71.8160  219.3890 F   0  0  0  0  0  0  0  0  0  0  0  0
  142.6930   73.8480  220.5280 C   0  0  0  0  0  0  0  0  0  0  0  0
  143.4480   74.9050  219.9890 C   0  0  0  0  0  0  0  0  0  0  0  0
  142.9260   76.1890  219.9070 C   0  0  0  0  0  0  0  0  0  0  0  0
  141.6580   76.4600  220.3990 C   0  0  0  0  0  0  0  0  0  0  0  0
  140.8590   75.4400  220.9460 C   0  0  0  0  0  0  0  0  0  0  0  0
  139.5180   75.8240  221.5530 C   0  0  0  0  0  0  0  0  0  0  0  0
  138.4940   75.0210  221.0800 F   0  0  0  0  0  0  0  0  0  0  0  0
  139.5650   75.6920  222.9270 F   0  0  0  0  0  0  0  0  0  0  0  0
  139.2020   77.1300  221.2230 F   0  0  0  0  0  0  0  0  0  0  0  0
  141.3320   74.0890  220.9070 C   0  0  0  0  0  0  0  0  0  0  0  0
  140.3960   72.9320  221.2510 C   0  0  0  0  0  0  0  0  0  0  0  0
  140.1750   72.8300  222.7090 N   0  0  0  0  0  0  0  0  0  0  0  0
  139.1850   71.8200  223.1420 C   0  0  1  0  0  0  0  0  0  0  0  0
  138.7610   70.8660  221.9840 C   0  0  0  0  0  0  0  0  0  0  0  0
  138.0110   69.6200  222.4990 C   0  0  0  0  0  0  0  0  0  0  0  0
  138.8820   68.7960  223.4640 C   0  0  0  0  0  0  0  0  0  0  0  0
  139.4600   69.6940  224.5130 C   0  0  0  0  0  0  0  0  0  0  0  0
  139.6380   71.0570  224.3610 C   0  0  0  0  0  0  0  0  0  0  0  0
  140.1490   71.6060  225.4880 N   0  0  0  0  0  0  0  0  0  0  0  0
  140.3640   70.5720  226.3230 C   0  0  0  0  0  0  0  0  0  0  0  0
  140.9250   70.6200  227.5970 C   0  0  0  0  0  0  0  0  0  0  0  0
  141.0700   69.4080  228.2980 C   0  0  0  0  0  0  0  0  0  0  0  0
  140.6520   68.1900  227.7180 C   0  0  0  0  0  0  0  0  0  0  0  0
  140.0860   68.1700  226.4290 C   0  0  0  0  0  0  0  0  0  0  0  0
  139.9590   69.3850  225.7590 C   0  0  0  0  0  0  0  0  0  0  0  0
  144.4684   74.7114  219.6266 H   0  0  0  0  0  0  0  0  0  0  0  0
  143.5203   76.9941  219.4502 H   0  0  0  0  0  0  0  0  0  0  0  0
  141.2711   77.4890  220.3608 H   0  0  0  0  0  0  0  0  0  0  0  0
  139.4286   73.0945  220.7532 H   0  0  0  0  0  0  0  0  0  0  0  0
  140.8613   71.9969  220.9059 H   0  0  0  0  0  0  0  0  0  0  0  0
  139.8690   73.7640  223.0700 H   0  0  0  0  0  0  0  0  0  0  0  0
  138.2852   72.3810  223.4347 H   0  0  0  0  0  0  0  0  0  0  0  0
  138.1028   71.4159  221.2953 H   0  0  0  0  0  0  0  0  0  0  0  0
  139.6753   70.5237  221.4772 H   0  0  0  0  0  0  0  0  0  0  0  0
  137.1011   69.9430  223.0260 H   0  0  0  0  0  0  0  0  0  0  0  0
  137.7595   68.9871  221.6352 H   0  0  0  0  0  0  0  0  0  0  0  0
  138.2645   68.0227  223.9443 H   0  0  0  0  0  0  0  0  0  0  0  0
  139.6986   68.3197  222.9016 H   0  0  0  0  0  0  0  0  0  0  0  0
  140.3340   72.6160  225.6740 H   0  0  0  0  0  0  0  0  0  0  0  0
  141.2445   71.5744  228.0410 H   0  0  0  0  0  0  0  0  0  0  0  0
  141.5123   69.4095  229.3052 H   0  0  0  0  0  0  0  0  0  0  0  0
  140.7695   67.2502  228.2774 H   0  0  0  0  0  0  0  0  0  0  0  0
  139.7556   67.2280  225.9670 H   0  0  0  0  0  0  0  0  0  0  0  0
  1  2  1  0
  2  3  1  0
  2  4  1  0
  2  5  1  0
  5  6  2  0
  6  7  1  0
  7  8  2  0
  8  9  1  0
  9 10  1  0
 10 11  1  0
 10 12  1  0
 10 13  1  0
  9 14  2  0
 14 15  1  0
 15 16  1  0
 16 17  1  0
 17 18  1  0
 18 19  1  0
 19 20  1  0
 20 21  1  0
 21 22  2  0
 22 23  1  0
 23 24  1  0
 24 25  2  0
 25 26  1  0
 26 27  2  0
 27 28  1  0
 28 29  2  0
 14  5  1  0
 22 17  1  0
 29 24  1  0
 29 21  1  0
  6 30  1  0
  7 31  1  0
  8 32  1  0
 15 33  1  0
 15 34  1  0
 16 35  1  0
 17 36  1  1
 18 37  1  0
 18 38  1  0
 19 39  1  0
 19 40  1  0
 20 41  1  0
 20 42  1  0
 23 43  1  0
 25 44  1  0
 26 45  1  0
 27 46  1  0
 28 47  1  0
M  END
>  <UniqueID>  (49) 
31

>  <SMILES>  (49) 
FC(F)(F)c1cccc(C(F)(F)F)c1CN[C@H]1CCCc2c1[nH]c1ccccc21

>  <Energy>  (49) 
95.50398610088541

>  <Genealogy>  (49) 
FC(F)(F)c1cccc(C(F)(F)F)c1CN[C@H]1CCCc2c1[nH]c1ccccc21 (chirality)
FC(F)(F)c1cccc(C(F)(F)F)c1CN[C@H]1CCCc2c1[nH]c1ccccc21 (3D coordinates assigned)
FC(F)(F)c1cccc(C(F)(F)F)c1CN[C@H]1CCCc2c1[nH]c1ccccc21 (nonaromatic ring conformer: 95.50398610088541 kcal/mol)

>  <smiles>  (49) 
FC(F)(F)c1cccc(C(F)(F)F)c1CNC1CCCc2c1[nH]c1ccccc21

>  <score_type>  (49) 
oracle

>  <origin>  (49) 
autodockgpu

>  <m_score__min__energy>  (49) 
-7.21

>  <m_primary>  (49) 
energy

>  <meeko>  (49) 
{"free_energy": -7.2, "intermolecular_energy": -8.7, "internal_energy": -0.93, "cluster_size": 17, "cluster_id": 1, "rank_in_cluster": 2}

>  <energy>  (49) 
-6.87

>  <cluster_rmsd>  (49) 
1.73

>  <rmsd>  (49) 
269.82

>  <cluster>  (49) 
1

$$$$
OEDLLKAXDUWBBK-SFHVURJKNA-N
     RDKit          3D

 47 50  0  0  0  0  0  0  0  0999 V2000
  143.3000   71.8690  219.3930 F   0  0  0  0  0  0  0  0  0  0  0  0
  143.4100   72.5520  220.5900 C   0  0  0  0  0  0  0  0  0  0  0  0
  144.7460   72.7330  220.8990 F   0  0  0  0  0  0  0  0  0  0  0  0
  142.8450   71.7490  221.5660 F   0  0  0  0  0  0  0  0  0  0  0  0
  142.7110   73.9010  220.5280 C   0  0  0  0  0  0  0  0  0  0  0  0
  143.4340   74.9800  219.9870 C   0  0  0  0  0  0  0  0  0  0  0  0
  142.8780   76.2500  219.9130 C   0  0  0  0  0  0  0  0  0  0  0  0
  141.6070   76.4860  220.4150 C   0  0  0  0  0  0  0  0  0  0  0  0
  140.8390   75.4440  220.9640 C   0  0  0  0  0  0  0  0  0  0  0  0
  139.4930   75.7910  221.5810 C   0  0  0  0  0  0  0  0  0  0  0  0
  139.1110   77.0880  221.2820 F   0  0  0  0  0  0  0  0  0  0  0  0
  138.5180   74.9360  221.1040 F   0  0  0  0  0  0  0  0  0  0  0  0
  139.5610   75.6920  222.9600 F   0  0  0  0  0  0  0  0  0  0  0  0
  141.3460   74.1060  220.9170 C   0  0  0  0  0  0  0  0  0  0  0  0
  140.4440   72.9240  221.2640 C   0  0  0  0  0  0  0  0  0  0  0  0
  140.2120   72.8290  222.7210 N   0  0  0  0  0  0  0  0  0  0  0  0
  139.2170   71.8220  223.1510 C   0  0  1  0  0  0  0  0  0  0  0  0
  138.7920   70.8710  221.9920 C   0  0  0  0  0  0  0  0  0  0  0  0
  138.0380   69.6270  222.5050 C   0  0  0  0  0  0  0  0  0  0  0  0
  138.9040   68.7990  223.4710 C   0  0  0  0  0  0  0  0  0  0  0  0
  139.4830   69.6940  224.5220 C   0  0  0  0  0  0  0  0  0  0  0  0
  139.6650   71.0570  224.3710 C   0  0  0  0  0  0  0  0  0  0  0  0
  140.1760   71.6040  225.4990 N   0  0  0  0  0  0  0  0  0  0  0  0
  140.3860   70.5690  226.3340 C   0  0  0  0  0  0  0  0  0  0  0  0
  140.9460   70.6140  227.6090 C   0  0  0  0  0  0  0  0  0  0  0  0
  141.0850   69.4020  228.3100 C   0  0  0  0  0  0  0  0  0  0  0  0
  140.6640   68.1850  227.7280 C   0  0  0  0  0  0  0  0  0  0  0  0
  140.1000   68.1670  226.4380 C   0  0  0  0  0  0  0  0  0  0  0  0
  139.9790   69.3840  225.7690 C   0  0  0  0  0  0  0  0  0  0  0  0
  144.4565   74.8146  219.6166 H   0  0  0  0  0  0  0  0  0  0  0  0
  143.4476   77.0718  219.4546 H   0  0  0  0  0  0  0  0  0  0  0  0
  141.1930   77.5046  220.3832 H   0  0  0  0  0  0  0  0  0  0  0  0
  139.4769   73.0511  220.7556 H   0  0  0  0  0  0  0  0  0  0  0  0
  140.9421   72.0008  220.9329 H   0  0  0  0  0  0  0  0  0  0  0  0
  139.9040   73.7660  223.0740 H   0  0  0  0  0  0  0  0  0  0  0  0
  138.3182   72.3855  223.4418 H   0  0  0  0  0  0  0  0  0  0  0  0
  138.1362   71.4235  221.3030 H   0  0  0  0  0  0  0  0  0  0  0  0
  139.7059   70.5267  221.4857 H   0  0  0  0  0  0  0  0  0  0  0  0
  137.1281   69.9524  223.0306 H   0  0  0  0  0  0  0  0  0  0  0  0
  137.7869   68.9955  221.6401 H   0  0  0  0  0  0  0  0  0  0  0  0
  138.2828   68.0274  223.9493 H   0  0  0  0  0  0  0  0  0  0  0  0
  139.7201   68.3203  222.9099 H   0  0  0  0  0  0  0  0  0  0  0  0
  140.3640   72.6130  225.6860 H   0  0  0  0  0  0  0  0  0  0  0  0
  141.2692   71.5669  228.0535 H   0  0  0  0  0  0  0  0  0  0  0  0
  141.5246   69.4018  229.3184 H   0  0  0  0  0  0  0  0  0  0  0  0
  140.7778   67.2445  228.2871 H   0  0  0  0  0  0  0  0  0  0  0  0
  139.7669   67.2265  225.9748 H   0  0  0  0  0  0  0  0  0  0  0  0
  1  2  1  0
  2  3  1  0
  2  4  1  0
  2  5  1  0
  5  6  2  0
  6  7  1  0
  7  8  2  0
  8  9  1  0
  9 10  1  0
 10 11  1  0
 10 12  1  0
 10 13  1  0
  9 14  2  0
 14 15  1  0
 15 16  1  0
 16 17  1  0
 17 18  1  0
 18 19  1  0
 19 20  1  0
 20 21  1  0
 21 22  2  0
 22 23  1  0
 23 24  1  0
 24 25  2  0
 25 26  1  0
 26 27  2  0
 27 28  1  0
 28 29  2  0
 14  5  1  0
 22 17  1  0
 29 24  1  0
 29 21  1  0
  6 30  1  0
  7 31  1  0
  8 32  1  0
 15 33  1  0
 15 34  1  0
 16 35  1  0
 17 36  1  1
 18 37  1  0
 18 38  1  0
 19 39  1  0
 19 40  1  0
 20 41  1  0
 20 42  1  0
 23 43  1  0
 25 44  1  0
 26 45  1  0
 27 46  1  0
 28 47  1  0
M  END
>  <UniqueID>  (50) 
31

>  <SMILES>  (50) 
FC(F)(F)c1cccc(C(F)(F)F)c1CN[C@H]1CCCc2c1[nH]c1ccccc21

>  <Energy>  (50) 
95.50398610088541

>  <Genealogy>  (50) 
FC(F)(F)c1cccc(C(F)(F)F)c1CN[C@H]1CCCc2c1[nH]c1ccccc21 (chirality)
FC(F)(F)c1cccc(C(F)(F)F)c1CN[C@H]1CCCc2c1[nH]c1ccccc21 (3D coordinates assigned)
FC(F)(F)c1cccc(C(F)(F)F)c1CN[C@H]1CCCc2c1[nH]c1ccccc21 (nonaromatic ring conformer: 95.50398610088541 kcal/mol)

>  <smiles>  (50) 
FC(F)(F)c1cccc(C(F)(F)F)c1CNC1CCCc2c1[nH]c1ccccc21

>  <score_type>  (50) 
oracle

>  <origin>  (50) 
autodockgpu

>  <m_score__min__energy>  (50) 
-7.21

>  <m_primary>  (50) 
energy

>  <meeko>  (50) 
{"free_energy": -7.21, "intermolecular_energy": -8.7, "internal_energy": -0.92, "cluster_size": 17, "cluster_id": 1, "rank_in_cluster": 1}

>  <energy>  (50) 
-6.87

>  <cluster_rmsd>  (50) 
1.29

>  <rmsd>  (50) 
269.6

>  <cluster>  (50) 
1

$$$$
OEDLLKAXDUWBBK-SFHVURJKNA-N
     RDKit          3D

 47 50  0  0  0  0  0  0  0  0999 V2000
  136.5370   75.9320  223.5360 F   0  0  0  0  0  0  0  0  0  0  0  0
  137.0870   75.2930  222.4410 C   0  0  0  0  0  0  0  0  0  0  0  0
  136.3170   75.5500  221.3200 F   0  0  0  0  0  0  0  0  0  0  0  0
  137.0340   73.9330  222.6990 F   0  0  0  0  0  0  0  0  0  0  0  0
  138.5180   75.7420  222.1930 C   0  0  0  0  0  0  0  0  0  0  0  0
  138.8510   77.0630  222.5420 C   0  0  0  0  0  0  0  0  0  0  0  0
  140.1300   77.5600  222.3300 C   0  0  0  0  0  0  0  0  0  0  0  0
  141.0950   76.7690  221.7250 C   0  0  0  0  0  0  0  0  0  0  0  0
  140.8170   75.4400  221.3590 C   0  0  0  0  0  0  0  0  0  0  0  0
  141.8900   74.6600  220.6140 C   0  0  0  0  0  0  0  0  0  0  0  0
  141.4580   74.2640  219.3590 F   0  0  0  0  0  0  0  0  0  0  0  0
  143.0180   75.4410  220.4520 F   0  0  0  0  0  0  0  0  0  0  0  0
  142.2180   73.5130  221.3150 F   0  0  0  0  0  0  0  0  0  0  0  0
  139.5470   74.8740  221.7000 C   0  0  0  0  0  0  0  0  0  0  0  0
  139.3040   73.3740  221.5520 C   0  0  0  0  0  0  0  0  0  0  0  0
  139.7870   72.6290  222.7350 N   0  0  0  0  0  0  0  0  0  0  0  0
  138.9010   71.5490  223.2230 C   0  0  1  0  0  0  0  0  0  0  0  0
  138.5130   70.5430  222.0970 C   0  0  0  0  0  0  0  0  0  0  0  0
  137.8900   69.2490  222.6610 C   0  0  0  0  0  0  0  0  0  0  0  0
  138.8640   68.5160  223.6020 C   0  0  0  0  0  0  0  0  0  0  0  0
  139.4060   69.4780  224.6130 C   0  0  0  0  0  0  0  0  0  0  0  0
  139.4640   70.8490  224.4340 C   0  0  0  0  0  0  0  0  0  0  0  0
  139.9710   71.4580  225.5300 N   0  0  0  0  0  0  0  0  0  0  0  0
  140.3040   70.4610  226.3720 C   0  0  0  0  0  0  0  0  0  0  0  0
  140.9100   70.5790  227.6210 C   0  0  0  0  0  0  0  0  0  0  0  0
  141.1820   69.3960  228.3330 C   0  0  0  0  0  0  0  0  0  0  0  0
  140.8440   68.1370  227.7890 C   0  0  0  0  0  0  0  0  0  0  0  0
  140.2320   68.0460  226.5250 C   0  0  0  0  0  0  0  0  0  0  0  0
  139.9780   69.2350  225.8420 C   0  0  0  0  0  0  0  0  0  0  0  0
  138.0855   77.7133  222.9904 H   0  0  0  0  0  0  0  0  0  0  0  0
  140.3787   78.5848  222.6430 H   0  0  0  0  0  0  0  0  0  0  0  0
  142.0931   77.1875  221.5284 H   0  0  0  0  0  0  0  0  0  0  0  0
  138.2249   73.1964  221.4334 H   0  0  0  0  0  0  0  0  0  0  0  0
  139.8576   73.0193  220.6701 H   0  0  0  0  0  0  0  0  0  0  0  0
  139.9410   73.3050  223.5190 H   0  0  0  0  0  0  0  0  0  0  0  0
  137.9693   72.0381  223.5436 H   0  0  0  0  0  0  0  0  0  0  0  0
  137.7848   71.0242  221.4275 H   0  0  0  0  0  0  0  0  0  0  0  0
  139.4318   70.2685  221.5581 H   0  0  0  0  0  0  0  0  0  0  0  0
  136.9782   69.5057  223.2202 H   0  0  0  0  0  0  0  0  0  0  0  0
  137.6580   68.5821  221.8175 H   0  0  0  0  0  0  0  0  0  0  0  0
  138.3321   67.7033  224.1184 H   0  0  0  0  0  0  0  0  0  0  0  0
  139.6944   68.0977  223.0142 H   0  0  0  0  0  0  0  0  0  0  0  0
  140.0790   72.4830  225.6940 H   0  0  0  0  0  0  0  0  0  0  0  0
  141.1673   71.5643  228.0368 H   0  0  0  0  0  0  0  0  0  0  0  0
  141.6618   69.4522  229.3213 H   0  0  0  0  0  0  0  0  0  0  0  0
  141.0608   67.2207  228.3577 H   0  0  0  0  0  0  0  0  0  0  0  0
  139.9635   67.0715  226.0911 H   0  0  0  0  0  0  0  0  0  0  0  0
  1  2  1  0
  2  3  1  0
  2  4  1  0
  2  5  1  0
  5  6  2  0
  6  7  1  0
  7  8  2  0
  8  9  1  0
  9 10  1  0
 10 11  1  0
 10 12  1  0
 10 13  1  0
  9 14  2  0
 14 15  1  0
 15 16  1  0
 16 17  1  0
 17 18  1  0
 18 19  1  0
 19 20  1  0
 20 21  1  0
 21 22  2  0
 22 23  1  0
 23 24  1  0
 24 25  2  0
 25 26  1  0
 26 27  2  0
 27 28  1  0
 28 29  2  0
 14  5  1  0
 22 17  1  0
 29 24  1  0
 29 21  1  0
  6 30  1  0
  7 31  1  0
  8 32  1  0
 15 33  1  0
 15 34  1  0
 16 35  1  0
 17 36  1  1
 18 37  1  0
 18 38  1  0
 19 39  1  0
 19 40  1  0
 20 41  1  0
 20 42  1  0
 23 43  1  0
 25 44  1  0
 26 45  1  0
 27 46  1  0
 28 47  1  0
M  END
>  <UniqueID>  (51) 
31

>  <SMILES>  (51) 
FC(F)(F)c1cccc(C(F)(F)F)c1CN[C@H]1CCCc2c1[nH]c1ccccc21

>  <Energy>  (51) 
95.50398610088541

>  <Genealogy>  (51) 
FC(F)(F)c1cccc(C(F)(F)F)c1CN[C@H]1CCCc2c1[nH]c1ccccc21 (chirality)
FC(F)(F)c1cccc(C(F)(F)F)c1CN[C@H]1CCCc2c1[nH]c1ccccc21 (3D coordinates assigned)
FC(F)(F)c1cccc(C(F)(F)F)c1CN[C@H]1CCCc2c1[nH]c1ccccc21 (nonaromatic ring conformer: 95.50398610088541 kcal/mol)

>  <smiles>  (51) 
FC(F)(F)c1cccc(C(F)(F)F)c1CNC1CCCc2c1[nH]c1ccccc21

>  <score_type>  (51) 
oracle

>  <origin>  (51) 
autodockgpu

>  <m_score__min__energy>  (51) 
-7.21

>  <m_primary>  (51) 
energy

>  <meeko>  (51) 
{"free_energy": -7.04, "intermolecular_energy": -8.53, "internal_energy": -0.86, "cluster_size": 17, "cluster_id": 1, "rank_in_cluster": 8}

>  <energy>  (51) 
-6.86

>  <cluster_rmsd>  (51) 
1.29

>  <rmsd>  (51) 
269.6

>  <cluster>  (51) 
1

$$$$
OEDLLKAXDUWBBK-SFHVURJKNA-N
     RDKit          3D

 47 50  0  0  0  0  0  0  0  0999 V2000
  142.6090   71.6350  221.5840 F   0  0  0  0  0  0  0  0  0  0  0  0
  143.2200   72.3680  220.5850 C   0  0  0  0  0  0  0  0  0  0  0  0
  143.0500   71.7300  219.3700 F   0  0  0  0  0  0  0  0  0  0  0  0
  144.5750   72.3930  220.8750 F   0  0  0  0  0  0  0  0  0  0  0  0
  142.6580   73.7790  220.5050 C   0  0  0  0  0  0  0  0  0  0  0  0
  143.4920   74.7780  219.9710 C   0  0  0  0  0  0  0  0  0  0  0  0
  143.0650   76.0960  219.8820 C   0  0  0  0  0  0  0  0  0  0  0  0
  141.8150   76.4590  220.3610 C   0  0  0  0  0  0  0  0  0  0  0  0
  140.9400   75.5010  220.9020 C   0  0  0  0  0  0  0  0  0  0  0  0
  139.6250   75.9820  221.4960 C   0  0  0  0  0  0  0  0  0  0  0  0
  138.5370   75.3900  220.8760 F   0  0  0  0  0  0  0  0  0  0  0  0
  139.5710   75.6740  222.8410 F   0  0  0  0  0  0  0  0  0  0  0  0
  139.4980   77.3500  221.3280 F   0  0  0  0  0  0  0  0  0  0  0  0
  141.3150   74.1190  220.8710 C   0  0  0  0  0  0  0  0  0  0  0  0
  140.2950   73.0340  221.2080 C   0  0  0  0  0  0  0  0  0  0  0  0
  140.1600   72.8540  222.6690 N   0  0  0  0  0  0  0  0  0  0  0  0
  139.1730   71.8420  223.1060 C   0  0  1  0  0  0  0  0  0  0  0  0
  138.7510   70.8840  221.9510 C   0  0  0  0  0  0  0  0  0  0  0  0
  138.0060   69.6360  222.4700 C   0  0  0  0  0  0  0  0  0  0  0  0
  138.8810   68.8170  223.4350 C   0  0  0  0  0  0  0  0  0  0  0  0
  139.4580   69.7190  224.4810 C   0  0  0  0  0  0  0  0  0  0  0  0
  139.6310   71.0830  224.3260 C   0  0  0  0  0  0  0  0  0  0  0  0
  140.1410   71.6360  225.4510 N   0  0  0  0  0  0  0  0  0  0  0  0
  140.3610   70.6050  226.2880 C   0  0  0  0  0  0  0  0  0  0  0  0
  140.9250   70.6570  227.5610 C   0  0  0  0  0  0  0  0  0  0  0  0
  141.0750   69.4480  228.2650 C   0  0  0  0  0  0  0  0  0  0  0  0
  140.6600   68.2270  227.6870 C   0  0  0  0  0  0  0  0  0  0  0  0
  140.0920   68.2020  226.4000 C   0  0  0  0  0  0  0  0  0  0  0  0
  139.9600   69.4150  225.7270 C   0  0  0  0  0  0  0  0  0  0  0  0
  144.4990   74.5105  219.6181 H   0  0  0  0  0  0  0  0  0  0  0  0
  143.7204   76.8551  219.4300 H   0  0  0  0  0  0  0  0  0  0  0  0
  141.5035   77.5130  220.3168 H   0  0  0  0  0  0  0  0  0  0  0  0
  139.3180   73.3197  220.7910 H   0  0  0  0  0  0  0  0  0  0  0  0
  140.6432   72.0853  220.7736 H   0  0  0  0  0  0  0  0  0  0  0  0
  139.8980   73.7730  223.0990 H   0  0  0  0  0  0  0  0  0  0  0  0
  138.2717   72.4006  223.3987 H   0  0  0  0  0  0  0  0  0  0  0  0
  138.0899   71.4299  221.2619 H   0  0  0  0  0  0  0  0  0  0  0  0
  139.6659   70.5439  221.4437 H   0  0  0  0  0  0  0  0  0  0  0  0
  137.0958   69.9569  222.9979 H   0  0  0  0  0  0  0  0  0  0  0  0
  137.7554   69.0005  221.6078 H   0  0  0  0  0  0  0  0  0  0  0  0
  138.2668   68.0428  223.9180 H   0  0  0  0  0  0  0  0  0  0  0  0
  139.6981   68.3421  222.8722 H   0  0  0  0  0  0  0  0  0  0  0  0
  140.3230   72.6470  225.6350 H   0  0  0  0  0  0  0  0  0  0  0  0
  141.2431   71.6133  228.0019 H   0  0  0  0  0  0  0  0  0  0  0  0
  141.5181   69.4533  229.2718 H   0  0  0  0  0  0  0  0  0  0  0  0
  140.7820   67.2886  228.2478 H   0  0  0  0  0  0  0  0  0  0  0  0
  139.7636   67.2578  225.9411 H   0  0  0  0  0  0  0  0  0  0  0  0
  1  2  1  0
  2  3  1  0
  2  4  1  0
  2  5  1  0
  5  6  2  0
  6  7  1  0
  7  8  2  0
  8  9  1  0
  9 10  1  0
 10 11  1  0
 10 12  1  0
 10 13  1  0
  9 14  2  0
 14 15  1  0
 15 16  1  0
 16 17  1  0
 17 18  1  0
 18 19  1  0
 19 20  1  0
 20 21  1  0
 21 22  2  0
 22 23  1  0
 23 24  1  0
 24 25  2  0
 25 26  1  0
 26 27  2  0
 27 28  1  0
 28 29  2  0
 14  5  1  0
 22 17  1  0
 29 24  1  0
 29 21  1  0
  6 30  1  0
  7 31  1  0
  8 32  1  0
 15 33  1  0
 15 34  1  0
 16 35  1  0
 17 36  1  1
 18 37  1  0
 18 38  1  0
 19 39  1  0
 19 40  1  0
 20 41  1  0
 20 42  1  0
 23 43  1  0
 25 44  1  0
 26 45  1  0
 27 46  1  0
 28 47  1  0
M  END
>  <UniqueID>  (52) 
31

>  <SMILES>  (52) 
FC(F)(F)c1cccc(C(F)(F)F)c1CN[C@H]1CCCc2c1[nH]c1ccccc21

>  <Energy>  (52) 
95.50398610088541

>  <Genealogy>  (52) 
FC(F)(F)c1cccc(C(F)(F)F)c1CN[C@H]1CCCc2c1[nH]c1ccccc21 (chirality)
FC(F)(F)c1cccc(C(F)(F)F)c1CN[C@H]1CCCc2c1[nH]c1ccccc21 (3D coordinates assigned)
FC(F)(F)c1cccc(C(F)(F)F)c1CN[C@H]1CCCc2c1[nH]c1ccccc21 (nonaromatic ring conformer: 95.50398610088541 kcal/mol)

>  <smiles>  (52) 
FC(F)(F)c1cccc(C(F)(F)F)c1CNC1CCCc2c1[nH]c1ccccc21

>  <score_type>  (52) 
oracle

>  <origin>  (52) 
autodockgpu

>  <m_score__min__energy>  (52) 
-7.21

>  <m_primary>  (52) 
energy

>  <meeko>  (52) 
{"free_energy": -7.19, "intermolecular_energy": -8.68, "internal_energy": -0.98, "cluster_size": 17, "cluster_id": 1, "rank_in_cluster": 3}

>  <energy>  (52) 
-6.86

>  <cluster_rmsd>  (52) 
1.3

>  <rmsd>  (52) 
269.64

>  <cluster>  (52) 
1

$$$$
OEDLLKAXDUWBBK-SFHVURJKNA-N
     RDKit          3D

 47 50  0  0  0  0  0  0  0  0999 V2000
  137.2420   72.7020  222.5930 F   0  0  0  0  0  0  0  0  0  0  0  0
  137.3270   73.6890  221.6300 C   0  0  0  0  0  0  0  0  0  0  0  0
  136.3290   74.6250  221.8360 F   0  0  0  0  0  0  0  0  0  0  0  0
  137.1020   73.0800  220.4060 F   0  0  0  0  0  0  0  0  0  0  0  0
  138.6840   74.3750  221.6520 C   0  0  0  0  0  0  0  0  0  0  0  0
  138.7740   75.6090  222.3210 C   0  0  0  0  0  0  0  0  0  0  0  0
  139.9700   76.3120  222.3710 C   0  0  0  0  0  0  0  0  0  0  0  0
  141.0940   75.8250  221.7190 C   0  0  0  0  0  0  0  0  0  0  0  0
  141.0600   74.5960  221.0360 C   0  0  0  0  0  0  0  0  0  0  0  0
  142.2980   74.1680  220.2630 C   0  0  0  0  0  0  0  0  0  0  0  0
  142.8880   73.0460  220.8210 F   0  0  0  0  0  0  0  0  0  0  0  0
  141.9630   73.8710  218.9570 F   0  0  0  0  0  0  0  0  0  0  0  0
  143.2440   75.1790  220.2810 F   0  0  0  0  0  0  0  0  0  0  0  0
  139.8730   73.7980  221.0970 C   0  0  0  0  0  0  0  0  0  0  0  0
  139.8840   72.3560  220.5930 C   0  0  0  0  0  0  0  0  0  0  0  0
  140.4160   71.4300  221.6150 N   0  0  0  0  0  0  0  0  0  0  0  0
  139.4120   70.8030  222.5030 C   0  0  1  0  0  0  0  0  0  0  0  0
  139.0140   69.3710  222.0340 C   0  0  0  0  0  0  0  0  0  0  0  0
  138.2480   68.5920  223.1230 C   0  0  0  0  0  0  0  0  0  0  0  0
  139.0940   68.4270  224.3990 C   0  0  0  0  0  0  0  0  0  0  0  0
  139.6500   69.7550  224.8100 C   0  0  0  0  0  0  0  0  0  0  0  0
  139.8340   70.8230  223.9510 C   0  0  0  0  0  0  0  0  0  0  0  0
  140.3200   71.8980  224.6140 N   0  0  0  0  0  0  0  0  0  0  0  0
  140.5120   71.4800  225.8790 C   0  0  0  0  0  0  0  0  0  0  0  0
  141.0440   72.2140  226.9370 C   0  0  0  0  0  0  0  0  0  0  0  0
  141.1690   71.5730  228.1840 C   0  0  0  0  0  0  0  0  0  0  0  0
  140.7610   70.2300  228.3440 C   0  0  0  0  0  0  0  0  0  0  0  0
  140.2260   69.5120  227.2590 C   0  0  0  0  0  0  0  0  0  0  0  0
  140.1180   70.1720  226.0360 C   0  0  0  0  0  0  0  0  0  0  0  0
  137.8818   76.0239  222.8128 H   0  0  0  0  0  0  0  0  0  0  0  0
  140.0269   77.2581  222.9292 H   0  0  0  0  0  0  0  0  0  0  0  0
  142.0259   76.4092  221.7366 H   0  0  0  0  0  0  0  0  0  0  0  0
  138.8558   72.0575  220.3406 H   0  0  0  0  0  0  0  0  0  0  0  0
  140.5348   72.3043  219.7077 H   0  0  0  0  0  0  0  0  0  0  0  0
  141.1040   71.9470  222.2120 H   0  0  0  0  0  0  0  0  0  0  0  0
  138.5069   71.4235  222.4271 H   0  0  0  0  0  0  0  0  0  0  0  0
  138.3746   69.4552  221.1429 H   0  0  0  0  0  0  0  0  0  0  0  0
  139.9395   68.8192  221.8125 H   0  0  0  0  0  0  0  0  0  0  0  0
  137.3270   69.1391  223.3729 H   0  0  0  0  0  0  0  0  0  0  0  0
  138.0146   67.5908  222.7317 H   0  0  0  0  0  0  0  0  0  0  0  0
  138.4631   68.0286  225.2072 H   0  0  0  0  0  0  0  0  0  0  0  0
  139.9220   67.7308  224.2000 H   0  0  0  0  0  0  0  0  0  0  0  0
  140.5030   72.8510  224.2300 H   0  0  0  0  0  0  0  0  0  0  0  0
  141.3561   73.2601  226.8023 H   0  0  0  0  0  0  0  0  0  0  0  0
  141.5876   72.1220  229.0404 H   0  0  0  0  0  0  0  0  0  0  0  0
  140.8624   69.7419  229.3246 H   0  0  0  0  0  0  0  0  0  0  0  0
  139.9041   68.4662  227.3718 H   0  0  0  0  0  0  0  0  0  0  0  0
  1  2  1  0
  2  3  1  0
  2  4  1  0
  2  5  1  0
  5  6  2  0
  6  7  1  0
  7  8  2  0
  8  9  1  0
  9 10  1  0
 10 11  1  0
 10 12  1  0
 10 13  1  0
  9 14  2  0
 14 15  1  0
 15 16  1  0
 16 17  1  0
 17 18  1  0
 18 19  1  0
 19 20  1  0
 20 21  1  0
 21 22  2  0
 22 23  1  0
 23 24  1  0
 24 25  2  0
 25 26  1  0
 26 27  2  0
 27 28  1  0
 28 29  2  0
 14  5  1  0
 22 17  1  0
 29 24  1  0
 29 21  1  0
  6 30  1  0
  7 31  1  0
  8 32  1  0
 15 33  1  0
 15 34  1  0
 16 35  1  0
 17 36  1  1
 18 37  1  0
 18 38  1  0
 19 39  1  0
 19 40  1  0
 20 41  1  0
 20 42  1  0
 23 43  1  0
 25 44  1  0
 26 45  1  0
 27 46  1  0
 28 47  1  0
M  END
>  <UniqueID>  (53) 
31

>  <SMILES>  (53) 
FC(F)(F)c1cccc(C(F)(F)F)c1CN[C@H]1CCCc2c1[nH]c1ccccc21

>  <Energy>  (53) 
95.50398610088541

>  <Genealogy>  (53) 
FC(F)(F)c1cccc(C(F)(F)F)c1CN[C@H]1CCCc2c1[nH]c1ccccc21 (chirality)
FC(F)(F)c1cccc(C(F)(F)F)c1CN[C@H]1CCCc2c1[nH]c1ccccc21 (3D coordinates assigned)
FC(F)(F)c1cccc(C(F)(F)F)c1CN[C@H]1CCCc2c1[nH]c1ccccc21 (nonaromatic ring conformer: 95.50398610088541 kcal/mol)

>  <smiles>  (53) 
FC(F)(F)c1cccc(C(F)(F)F)c1CNC1CCCc2c1[nH]c1ccccc21

>  <score_type>  (53) 
oracle

>  <origin>  (53) 
autodockgpu

>  <m_score__min__energy>  (53) 
-7.21

>  <m_primary>  (53) 
energy

>  <meeko>  (53) 
{"free_energy": -6.4, "intermolecular_energy": -7.89, "internal_energy": -1.38, "cluster_size": 17, "cluster_id": 1, "rank_in_cluster": 16}

>  <energy>  (53) 
-6.84

>  <cluster_rmsd>  (53) 
1.32

>  <rmsd>  (53) 
269.63

>  <cluster>  (53) 
1

$$$$
OEDLLKAXDUWBBK-SFHVURJKNA-N
     RDKit          3D

 47 50  0  0  0  0  0  0  0  0999 V2000
  144.4590   72.1330  220.7230 F   0  0  0  0  0  0  0  0  0  0  0  0
  143.0880   72.2080  220.5660 C   0  0  0  0  0  0  0  0  0  0  0  0
  142.4640   71.5810  221.6290 F   0  0  0  0  0  0  0  0  0  0  0  0
  142.7760   71.5120  219.4090 F   0  0  0  0  0  0  0  0  0  0  0  0
  142.6150   73.6510  220.4730 C   0  0  0  0  0  0  0  0  0  0  0  0
  143.5080   74.5900  219.9280 C   0  0  0  0  0  0  0  0  0  0  0  0
  143.1640   75.9310  219.8270 C   0  0  0  0  0  0  0  0  0  0  0  0
  141.9400   76.3760  220.3040 C   0  0  0  0  0  0  0  0  0  0  0  0
  141.0080   75.4790  220.8550 C   0  0  0  0  0  0  0  0  0  0  0  0
  139.7260   76.0470  221.4450 C   0  0  0  0  0  0  0  0  0  0  0  0
  139.5370   75.6330  222.7530 F   0  0  0  0  0  0  0  0  0  0  0  0
  139.7710   77.4270  221.4360 F   0  0  0  0  0  0  0  0  0  0  0  0
  138.6320   75.6140  220.7150 F   0  0  0  0  0  0  0  0  0  0  0  0
  141.2950   74.0770  220.8360 C   0  0  0  0  0  0  0  0  0  0  0  0
  140.2100   73.0600  221.1850 C   0  0  0  0  0  0  0  0  0  0  0  0
  140.1190   72.8450  222.6440 N   0  0  0  0  0  0  0  0  0  0  0  0
  139.1450   71.8240  223.0860 C   0  0  1  0  0  0  0  0  0  0  0  0
  138.7200   70.8670  221.9310 C   0  0  0  0  0  0  0  0  0  0  0  0
  137.9910   69.6110  222.4530 C   0  0  0  0  0  0  0  0  0  0  0  0
  138.8810   68.7950  223.4070 C   0  0  0  0  0  0  0  0  0  0  0  0
  139.4600   69.6990  224.4510 C   0  0  0  0  0  0  0  0  0  0  0  0
  139.6200   71.0650  224.3000 C   0  0  0  0  0  0  0  0  0  0  0  0
  140.1360   71.6180  225.4220 N   0  0  0  0  0  0  0  0  0  0  0  0
  140.3720   70.5850  226.2530 C   0  0  0  0  0  0  0  0  0  0  0  0
  140.9470   70.6380  227.5210 C   0  0  0  0  0  0  0  0  0  0  0  0
  141.1130   69.4270  228.2190 C   0  0  0  0  0  0  0  0  0  0  0  0
  140.7030   68.2050  227.6410 C   0  0  0  0  0  0  0  0  0  0  0  0
  140.1240   68.1800  226.3590 C   0  0  0  0  0  0  0  0  0  0  0  0
  139.9760   69.3940  225.6920 C   0  0  0  0  0  0  0  0  0  0  0  0
  144.4954   74.2567  219.5759 H   0  0  0  0  0  0  0  0  0  0  0  0
  143.8647   76.6433  219.3670 H   0  0  0  0  0  0  0  0  0  0  0  0
  141.6947   77.4470  220.2504 H   0  0  0  0  0  0  0  0  0  0  0  0
  139.2416   73.4299  220.8170 H   0  0  0  0  0  0  0  0  0  0  0  0
  140.4691   72.1021  220.7103 H   0  0  0  0  0  0  0  0  0  0  0  0
  139.8720   73.7540  223.1040 H   0  0  0  0  0  0  0  0  0  0  0  0
  138.2416   72.3737  223.3888 H   0  0  0  0  0  0  0  0  0  0  0  0
  138.0474   71.4098  221.2506 H   0  0  0  0  0  0  0  0  0  0  0  0
  139.6325   70.5369  221.4129 H   0  0  0  0  0  0  0  0  0  0  0  0
  137.0833   69.9226  222.9905 H   0  0  0  0  0  0  0  0  0  0  0  0
  137.7385   68.9764  221.5907 H   0  0  0  0  0  0  0  0  0  0  0  0
  138.2773   68.0143  223.8928 H   0  0  0  0  0  0  0  0  0  0  0  0
  139.6965   68.3278  222.8355 H   0  0  0  0  0  0  0  0  0  0  0  0
  140.3110   72.6290  225.6080 H   0  0  0  0  0  0  0  0  0  0  0  0
  141.2611   71.5954  227.9624 H   0  0  0  0  0  0  0  0  0  0  0  0
  141.5652   69.4322  229.2217 H   0  0  0  0  0  0  0  0  0  0  0  0
  140.8375   67.2658  228.1975 H   0  0  0  0  0  0  0  0  0  0  0  0
  139.7995   67.2348  225.8994 H   0  0  0  0  0  0  0  0  0  0  0  0
  1  2  1  0
  2  3  1  0
  2  4  1  0
  2  5  1  0
  5  6  2  0
  6  7  1  0
  7  8  2  0
  8  9  1  0
  9 10  1  0
 10 11  1  0
 10 12  1  0
 10 13  1  0
  9 14  2  0
 14 15  1  0
 15 16  1  0
 16 17  1  0
 17 18  1  0
 18 19  1  0
 19 20  1  0
 20 21  1  0
 21 22  2  0
 22 23  1  0
 23 24  1  0
 24 25  2  0
 25 26  1  0
 26 27  2  0
 27 28  1  0
 28 29  2  0
 14  5  1  0
 22 17  1  0
 29 24  1  0
 29 21  1  0
  6 30  1  0
  7 31  1  0
  8 32  1  0
 15 33  1  0
 15 34  1  0
 16 35  1  0
 17 36  1  1
 18 37  1  0
 18 38  1  0
 19 39  1  0
 19 40  1  0
 20 41  1  0
 20 42  1  0
 23 43  1  0
 25 44  1  0
 26 45  1  0
 27 46  1  0
 28 47  1  0
M  END
>  <UniqueID>  (54) 
31

>  <SMILES>  (54) 
FC(F)(F)c1cccc(C(F)(F)F)c1CN[C@H]1CCCc2c1[nH]c1ccccc21

>  <Energy>  (54) 
95.50398610088541

>  <Genealogy>  (54) 
FC(F)(F)c1cccc(C(F)(F)F)c1CN[C@H]1CCCc2c1[nH]c1ccccc21 (chirality)
FC(F)(F)c1cccc(C(F)(F)F)c1CN[C@H]1CCCc2c1[nH]c1ccccc21 (3D coordinates assigned)
FC(F)(F)c1cccc(C(F)(F)F)c1CN[C@H]1CCCc2c1[nH]c1ccccc21 (nonaromatic ring conformer: 95.50398610088541 kcal/mol)

>  <smiles>  (54) 
FC(F)(F)c1cccc(C(F)(F)F)c1CNC1CCCc2c1[nH]c1ccccc21

>  <score_type>  (54) 
oracle

>  <origin>  (54) 
autodockgpu

>  <m_score__min__energy>  (54) 
-7.21

>  <m_primary>  (54) 
energy

>  <meeko>  (54) 
{"free_energy": -7.15, "intermolecular_energy": -8.65, "internal_energy": -0.99, "cluster_size": 17, "cluster_id": 1, "rank_in_cluster": 5}

>  <energy>  (54) 
-6.79

>  <cluster_rmsd>  (54) 
1.34

>  <rmsd>  (54) 
269.55

>  <cluster>  (54) 
1

$$$$
OEDLLKAXDUWBBK-SFHVURJKNA-N
     RDKit          3D

 47 50  0  0  0  0  0  0  0  0999 V2000
  137.0670   76.9660  222.2440 F   0  0  0  0  0  0  0  0  0  0  0  0
  138.4310   77.1240  222.0830 C   0  0  0  0  0  0  0  0  0  0  0  0
  138.7430   77.1110  220.7360 F   0  0  0  0  0  0  0  0  0  0  0  0
  139.0360   76.0290  222.6790 F   0  0  0  0  0  0  0  0  0  0  0  0
  138.9200   78.4200  222.7100 C   0  0  0  0  0  0  0  0  0  0  0  0
  137.9600   79.2470  223.3190 C   0  0  0  0  0  0  0  0  0  0  0  0
  138.3180   80.4570  223.8960 C   0  0  0  0  0  0  0  0  0  0  0  0
  139.6330   80.8940  223.8430 C   0  0  0  0  0  0  0  0  0  0  0  0
  140.6350   80.1060  223.2480 C   0  0  0  0  0  0  0  0  0  0  0  0
  142.0370   80.6870  223.1390 C   0  0  0  0  0  0  0  0  0  0  0  0
  142.3580   81.0070  221.8300 F   0  0  0  0  0  0  0  0  0  0  0  0
  142.1330   81.8370  223.8970 F   0  0  0  0  0  0  0  0  0  0  0  0
  142.9710   79.7640  223.5760 F   0  0  0  0  0  0  0  0  0  0  0  0
  140.3020   78.7960  222.7750 C   0  0  0  0  0  0  0  0  0  0  0  0
  141.4020   77.8200  222.3640 C   0  0  0  0  0  0  0  0  0  0  0  0
  142.1530   78.3150  221.1910 N   0  0  0  0  0  0  0  0  0  0  0  0
  141.8830   77.6210  219.9120 C   0  0  1  0  0  0  0  0  0  0  0  0
  142.1260   78.5380  218.6750 C   0  0  0  0  0  0  0  0  0  0  0  0
  142.1850   77.7360  217.3580 C   0  0  0  0  0  0  0  0  0  0  0  0
  143.3210   76.6980  217.3780 C   0  0  0  0  0  0  0  0  0  0  0  0
  143.2420   75.8890  218.6350 C   0  0  0  0  0  0  0  0  0  0  0  0
  142.6280   76.3150  219.8000 C   0  0  0  0  0  0  0  0  0  0  0  0
  142.6870   75.3580  220.7540 N   0  0  0  0  0  0  0  0  0  0  0  0
  143.4060   74.3570  220.2130 C   0  0  0  0  0  0  0  0  0  0  0  0
  143.7810   73.1620  220.8230 C   0  0  0  0  0  0  0  0  0  0  0  0
  144.5490   72.2530  220.0730 C   0  0  0  0  0  0  0  0  0  0  0  0
  144.9180   72.5530  218.7420 C   0  0  0  0  0  0  0  0  0  0  0  0
  144.5250   73.7670  218.1490 C   0  0  0  0  0  0  0  0  0  0  0  0
  143.7680   74.6480  218.9190 C   0  0  0  0  0  0  0  0  0  0  0  0
  136.9070   78.9294  223.3384 H   0  0  0  0  0  0  0  0  0  0  0  0
  137.5560   81.0718  224.3973 H   0  0  0  0  0  0  0  0  0  0  0  0
  139.8966   81.8717  224.2728 H   0  0  0  0  0  0  0  0  0  0  0  0
  142.0981   77.6905  223.2058 H   0  0  0  0  0  0  0  0  0  0  0  0
  140.9319   76.8627  222.0947 H   0  0  0  0  0  0  0  0  0  0  0  0
  143.1790   78.2420  221.3930 H   0  0  0  0  0  0  0  0  0  0  0  0
  140.8109   77.3751  219.9167 H   0  0  0  0  0  0  0  0  0  0  0  0
  141.3060   79.2682  218.6087 H   0  0  0  0  0  0  0  0  0  0  0  0
  143.0967   79.0375  218.8102 H   0  0  0  0  0  0  0  0  0  0  0  0
  141.2272   77.2145  217.2143 H   0  0  0  0  0  0  0  0  0  0  0  0
  142.3761   78.4398  216.5345 H   0  0  0  0  0  0  0  0  0  0  0  0
  143.2236   76.0322  216.5078 H   0  0  0  0  0  0  0  0  0  0  0  0
  144.2900   77.2171  217.3388 H   0  0  0  0  0  0  0  0  0  0  0  0
  142.2620   75.3850  221.7070 H   0  0  0  0  0  0  0  0  0  0  0  0
  143.4859   72.9364  221.8584 H   0  0  0  0  0  0  0  0  0  0  0  0
  144.8648   71.3015  220.5258 H   0  0  0  0  0  0  0  0  0  0  0  0
  145.5167   71.8323  218.1656 H   0  0  0  0  0  0  0  0  0  0  0  0
  144.8054   74.0120  217.1140 H   0  0  0  0  0  0  0  0  0  0  0  0
  1  2  1  0
  2  3  1  0
  2  4  1  0
  2  5  1  0
  5  6  2  0
  6  7  1  0
  7  8  2  0
  8  9  1  0
  9 10  1  0
 10 11  1  0
 10 12  1  0
 10 13  1  0
  9 14  2  0
 14 15  1  0
 15 16  1  0
 16 17  1  0
 17 18  1  0
 18 19  1  0
 19 20  1  0
 20 21  1  0
 21 22  2  0
 22 23  1  0
 23 24  1  0
 24 25  2  0
 25 26  1  0
 26 27  2  0
 27 28  1  0
 28 29  2  0
 14  5  1  0
 22 17  1  0
 29 24  1  0
 29 21  1  0
  6 30  1  0
  7 31  1  0
  8 32  1  0
 15 33  1  0
 15 34  1  0
 16 35  1  0
 17 36  1  1
 18 37  1  0
 18 38  1  0
 19 39  1  0
 19 40  1  0
 20 41  1  0
 20 42  1  0
 23 43  1  0
 25 44  1  0
 26 45  1  0
 27 46  1  0
 28 47  1  0
M  END
>  <UniqueID>  (55) 
31

>  <SMILES>  (55) 
FC(F)(F)c1cccc(C(F)(F)F)c1CN[C@H]1CCCc2c1[nH]c1ccccc21

>  <Energy>  (55) 
95.50398610088541

>  <Genealogy>  (55) 
FC(F)(F)c1cccc(C(F)(F)F)c1CN[C@H]1CCCc2c1[nH]c1ccccc21 (chirality)
FC(F)(F)c1cccc(C(F)(F)F)c1CN[C@H]1CCCc2c1[nH]c1ccccc21 (3D coordinates assigned)
FC(F)(F)c1cccc(C(F)(F)F)c1CN[C@H]1CCCc2c1[nH]c1ccccc21 (nonaromatic ring conformer: 95.50398610088541 kcal/mol)

>  <smiles>  (55) 
FC(F)(F)c1cccc(C(F)(F)F)c1CNC1CCCc2c1[nH]c1ccccc21

>  <score_type>  (55) 
oracle

>  <origin>  (55) 
autodockgpu

>  <m_score__min__energy>  (55) 
-7.21

>  <m_primary>  (55) 
energy

>  <meeko>  (55) 
{"free_energy": -6.5, "intermolecular_energy": -7.99, "internal_energy": -1.12, "cluster_size": 3, "cluster_id": 2, "rank_in_cluster": 2}

>  <energy>  (55) 
-6.72

>  <cluster_rmsd>  (55) 
0.85

>  <rmsd>  (55) 
269.64

>  <cluster>  (55) 
1

$$$$
OEDLLKAXDUWBBK-SFHVURJKNA-N
     RDKit          3D

 47 50  0  0  0  0  0  0  0  0999 V2000
  143.0000   71.6000  219.4210 F   0  0  0  0  0  0  0  0  0  0  0  0
  143.1660   72.2960  220.6030 C   0  0  0  0  0  0  0  0  0  0  0  0
  144.5070   72.3200  220.9420 F   0  0  0  0  0  0  0  0  0  0  0  0
  142.4850   71.5940  221.5840 F   0  0  0  0  0  0  0  0  0  0  0  0
  142.6400   73.7190  220.4930 C   0  0  0  0  0  0  0  0  0  0  0  0
  143.5030   74.6860  219.9480 C   0  0  0  0  0  0  0  0  0  0  0  0
  143.1100   76.0120  219.8310 C   0  0  0  0  0  0  0  0  0  0  0  0
  141.8650   76.4150  220.2920 C   0  0  0  0  0  0  0  0  0  0  0  0
  140.9620   75.4890  220.8420 C   0  0  0  0  0  0  0  0  0  0  0  0
  139.6540   76.0130  221.4150 C   0  0  0  0  0  0  0  0  0  0  0  0
  139.5980   77.3960  221.3820 F   0  0  0  0  0  0  0  0  0  0  0  0
  138.5880   75.5250  220.6850 F   0  0  0  0  0  0  0  0  0  0  0  0
  139.5240   75.6290  222.7380 F   0  0  0  0  0  0  0  0  0  0  0  0
  141.3020   74.0980  220.8390 C   0  0  0  0  0  0  0  0  0  0  0  0
  140.2530   73.0450  221.1870 C   0  0  0  0  0  0  0  0  0  0  0  0
  140.1650   72.8280  222.6470 N   0  0  0  0  0  0  0  0  0  0  0  0
  139.1870   71.8110  223.0910 C   0  0  1  0  0  0  0  0  0  0  0  0
  138.7690   70.8450  221.9410 C   0  0  0  0  0  0  0  0  0  0  0  0
  138.0350   69.5950  222.4680 C   0  0  0  0  0  0  0  0  0  0  0  0
  138.9190   68.7860  223.4350 C   0  0  0  0  0  0  0  0  0  0  0  0
  139.4920   69.6980  224.4760 C   0  0  0  0  0  0  0  0  0  0  0  0
  139.6540   71.0620  224.3140 C   0  0  0  0  0  0  0  0  0  0  0  0
  140.1630   71.6240  225.4340 N   0  0  0  0  0  0  0  0  0  0  0  0
  140.3930   70.5990  226.2760 C   0  0  0  0  0  0  0  0  0  0  0  0
  140.9590   70.6620  227.5470 C   0  0  0  0  0  0  0  0  0  0  0  0
  141.1200   69.4570  228.2560 C   0  0  0  0  0  0  0  0  0  0  0  0
  140.7130   68.2300  227.6860 C   0  0  0  0  0  0  0  0  0  0  0  0
  140.1420   68.1940  226.4000 C   0  0  0  0  0  0  0  0  0  0  0  0
  139.9990   69.4040  225.7220 C   0  0  0  0  0  0  0  0  0  0  0  0
  144.5058   74.3868  219.6089 H   0  0  0  0  0  0  0  0  0  0  0  0
  143.7880   76.7460  219.3711 H   0  0  0  0  0  0  0  0  0  0  0  0
  141.5803   77.4755  220.2261 H   0  0  0  0  0  0  0  0  0  0  0  0
  139.2733   73.3805  220.8160 H   0  0  0  0  0  0  0  0  0  0  0  0
  140.5472   72.0961  220.7147 H   0  0  0  0  0  0  0  0  0  0  0  0
  139.9240   73.7380  223.1080 H   0  0  0  0  0  0  0  0  0  0  0  0
  138.2817   72.3633  223.3834 H   0  0  0  0  0  0  0  0  0  0  0  0
  138.1020   71.3830  221.2513 H   0  0  0  0  0  0  0  0  0  0  0  0
  139.6847   70.5095  221.4322 H   0  0  0  0  0  0  0  0  0  0  0  0
  137.1242   69.9121  222.9970 H   0  0  0  0  0  0  0  0  0  0  0  0
  137.7867   68.9536  221.6096 H   0  0  0  0  0  0  0  0  0  0  0  0
  138.3118   68.0095  223.9231 H   0  0  0  0  0  0  0  0  0  0  0  0
  139.7381   68.3142  222.8724 H   0  0  0  0  0  0  0  0  0  0  0  0
  140.3380   72.6370  225.6130 H   0  0  0  0  0  0  0  0  0  0  0  0
  141.2702   71.6229  227.9827 H   0  0  0  0  0  0  0  0  0  0  0  0
  141.5660   69.4706  229.2614 H   0  0  0  0  0  0  0  0  0  0  0  0
  140.8434   67.2956  228.2516 H   0  0  0  0  0  0  0  0  0  0  0  0
  139.8201   67.2452  225.9460 H   0  0  0  0  0  0  0  0  0  0  0  0
  1  2  1  0
  2  3  1  0
  2  4  1  0
  2  5  1  0
  5  6  2  0
  6  7  1  0
  7  8  2  0
  8  9  1  0
  9 10  1  0
 10 11  1  0
 10 12  1  0
 10 13  1  0
  9 14  2  0
 14 15  1  0
 15 16  1  0
 16 17  1  0
 17 18  1  0
 18 19  1  0
 19 20  1  0
 20 21  1  0
 21 22  2  0
 22 23  1  0
 23 24  1  0
 24 25  2  0
 25 26  1  0
 26 27  2  0
 27 28  1  0
 28 29  2  0
 14  5  1  0
 22 17  1  0
 29 24  1  0
 29 21  1  0
  6 30  1  0
  7 31  1  0
  8 32  1  0
 15 33  1  0
 15 34  1  0
 16 35  1  0
 17 36  1  1
 18 37  1  0
 18 38  1  0
 19 39  1  0
 19 40  1  0
 20 41  1  0
 20 42  1  0
 23 43  1  0
 25 44  1  0
 26 45  1  0
 27 46  1  0
 28 47  1  0
M  END
>  <UniqueID>  (56) 
31

>  <SMILES>  (56) 
FC(F)(F)c1cccc(C(F)(F)F)c1CN[C@H]1CCCc2c1[nH]c1ccccc21

>  <Energy>  (56) 
95.50398610088541

>  <Genealogy>  (56) 
FC(F)(F)c1cccc(C(F)(F)F)c1CN[C@H]1CCCc2c1[nH]c1ccccc21 (chirality)
FC(F)(F)c1cccc(C(F)(F)F)c1CN[C@H]1CCCc2c1[nH]c1ccccc21 (3D coordinates assigned)
FC(F)(F)c1cccc(C(F)(F)F)c1CN[C@H]1CCCc2c1[nH]c1ccccc21 (nonaromatic ring conformer: 95.50398610088541 kcal/mol)

>  <smiles>  (56) 
FC(F)(F)c1cccc(C(F)(F)F)c1CNC1CCCc2c1[nH]c1ccccc21

>  <score_type>  (56) 
oracle

>  <origin>  (56) 
autodockgpu

>  <m_score__min__energy>  (56) 
-7.21

>  <m_primary>  (56) 
energy

>  <meeko>  (56) 
{"free_energy": -7.18, "intermolecular_energy": -8.68, "internal_energy": -0.97, "cluster_size": 17, "cluster_id": 1, "rank_in_cluster": 4}

>  <energy>  (56) 
-6.4

>  <cluster_rmsd>  (56) 
1.75

>  <rmsd>  (56) 
269.53

>  <cluster>  (56) 
1

$$$$
OEDLLKAXDUWBBK-SFHVURJKNA-N
     RDKit          3D

 47 50  0  0  0  0  0  0  0  0999 V2000
  140.0910   75.8850  220.2990 F   0  0  0  0  0  0  0  0  0  0  0  0
  141.3020   75.8920  220.9640 C   0  0  0  0  0  0  0  0  0  0  0  0
  141.0840   76.0360  222.3230 F   0  0  0  0  0  0  0  0  0  0  0  0
  142.0010   77.0010  220.5180 F   0  0  0  0  0  0  0  0  0  0  0  0
  142.0890   74.6160  220.7050 C   0  0  0  0  0  0  0  0  0  0  0  0
  143.4750   74.7410  220.5060 C   0  0  0  0  0  0  0  0  0  0  0  0
  144.2640   73.6300  220.2420 C   0  0  0  0  0  0  0  0  0  0  0  0
  143.6860   72.3740  220.1280 C   0  0  0  0  0  0  0  0  0  0  0  0
  142.3050   72.1920  220.3210 C   0  0  0  0  0  0  0  0  0  0  0  0
  141.7230   70.8060  220.0870 C   0  0  0  0  0  0  0  0  0  0  0  0
  142.7100   69.8780  219.7990 F   0  0  0  0  0  0  0  0  0  0  0  0
  141.0500   70.3790  221.2140 F   0  0  0  0  0  0  0  0  0  0  0  0
  140.8550   70.8290  219.0090 F   0  0  0  0  0  0  0  0  0  0  0  0
  141.5060   73.3070  220.7300 C   0  0  0  0  0  0  0  0  0  0  0  0
  140.0670   73.0970  221.1960 C   0  0  0  0  0  0  0  0  0  0  0  0
  139.9950   72.9020  222.6600 N   0  0  0  0  0  0  0  0  0  0  0  0
  139.0190   71.8950  223.1290 C   0  0  1  0  0  0  0  0  0  0  0  0
  138.5140   70.9720  221.9780 C   0  0  0  0  0  0  0  0  0  0  0  0
  137.7810   69.7240  222.5100 C   0  0  0  0  0  0  0  0  0  0  0  0
  138.6960   68.8680  223.4030 C   0  0  0  0  0  0  0  0  0  0  0  0
  139.3480   69.7350  224.4350 C   0  0  0  0  0  0  0  0  0  0  0  0
  139.5340   71.1000  224.3020 C   0  0  0  0  0  0  0  0  0  0  0  0
  140.1180   71.6170  225.4080 N   0  0  0  0  0  0  0  0  0  0  0  0
  140.3690   70.5620  226.2060 C   0  0  0  0  0  0  0  0  0  0  0  0
  141.0060   70.5750  227.4450 C   0  0  0  0  0  0  0  0  0  0  0  0
  141.1770   69.3460  228.1100 C   0  0  0  0  0  0  0  0  0  0  0  0
  140.7090   68.1470  227.5290 C   0  0  0  0  0  0  0  0  0  0  0  0
  140.0670   68.1620  226.2770 C   0  0  0  0  0  0  0  0  0  0  0  0
  139.9160   69.3930  225.6420 C   0  0  0  0  0  0  0  0  0  0  0  0
  143.9419   75.7355  220.5604 H   0  0  0  0  0  0  0  0  0  0  0  0
  145.3514   73.7458  220.1228 H   0  0  0  0  0  0  0  0  0  0  0  0
  144.3175   71.5073  219.8829 H   0  0  0  0  0  0  0  0  0  0  0  0
  139.4704   73.9799  220.9231 H   0  0  0  0  0  0  0  0  0  0  0  0
  139.6742   72.1931  220.7075 H   0  0  0  0  0  0  0  0  0  0  0  0
  139.7620   73.8190  223.1100 H   0  0  0  0  0  0  0  0  0  0  0  0
  138.1453   72.4598  223.4864 H   0  0  0  0  0  0  0  0  0  0  0  0
  137.8226   71.5447  221.3424 H   0  0  0  0  0  0  0  0  0  0  0  0
  139.3917   70.6309  221.4095 H   0  0  0  0  0  0  0  0  0  0  0  0
  136.9084   70.0457  223.0973 H   0  0  0  0  0  0  0  0  0  0  0  0
  137.4713   69.1135  221.6490 H   0  0  0  0  0  0  0  0  0  0  0  0
  138.0974   68.0920  223.9025 H   0  0  0  0  0  0  0  0  0  0  0  0
  139.4710   68.3942  222.7826 H   0  0  0  0  0  0  0  0  0  0  0  0
  140.3270   72.6200  225.6050 H   0  0  0  0  0  0  0  0  0  0  0  0
  141.3638   71.5154  227.8894 H   0  0  0  0  0  0  0  0  0  0  0  0
  141.6785   69.3195  229.0887 H   0  0  0  0  0  0  0  0  0  0  0  0
  140.8475   67.1934  228.0596 H   0  0  0  0  0  0  0  0  0  0  0  0
  139.6973   67.2344  225.8157 H   0  0  0  0  0  0  0  0  0  0  0  0
  1  2  1  0
  2  3  1  0
  2  4  1  0
  2  5  1  0
  5  6  2  0
  6  7  1  0
  7  8  2  0
  8  9  1  0
  9 10  1  0
 10 11  1  0
 10 12  1  0
 10 13  1  0
  9 14  2  0
 14 15  1  0
 15 16  1  0
 16 17  1  0
 17 18  1  0
 18 19  1  0
 19 20  1  0
 20 21  1  0
 21 22  2  0
 22 23  1  0
 23 24  1  0
 24 25  2  0
 25 26  1  0
 26 27  2  0
 27 28  1  0
 28 29  2  0
 14  5  1  0
 22 17  1  0
 29 24  1  0
 29 21  1  0
  6 30  1  0
  7 31  1  0
  8 32  1  0
 15 33  1  0
 15 34  1  0
 16 35  1  0
 17 36  1  1
 18 37  1  0
 18 38  1  0
 19 39  1  0
 19 40  1  0
 20 41  1  0
 20 42  1  0
 23 43  1  0
 25 44  1  0
 26 45  1  0
 27 46  1  0
 28 47  1  0
M  END
>  <UniqueID>  (57) 
31

>  <SMILES>  (57) 
FC(F)(F)c1cccc(C(F)(F)F)c1CN[C@H]1CCCc2c1[nH]c1ccccc21

>  <Energy>  (57) 
95.50398610088541

>  <Genealogy>  (57) 
FC(F)(F)c1cccc(C(F)(F)F)c1CN[C@H]1CCCc2c1[nH]c1ccccc21 (chirality)
FC(F)(F)c1cccc(C(F)(F)F)c1CN[C@H]1CCCc2c1[nH]c1ccccc21 (3D coordinates assigned)
FC(F)(F)c1cccc(C(F)(F)F)c1CN[C@H]1CCCc2c1[nH]c1ccccc21 (nonaromatic ring conformer: 95.50398610088541 kcal/mol)

>  <smiles>  (57) 
FC(F)(F)c1cccc(C(F)(F)F)c1CNC1CCCc2c1[nH]c1ccccc21

>  <score_type>  (57) 
oracle

>  <origin>  (57) 
autodockgpu

>  <m_score__min__energy>  (57) 
-7.21

>  <m_primary>  (57) 
energy

>  <meeko>  (57) 
{"free_energy": -6.84, "intermolecular_energy": -8.33, "internal_energy": -1.17, "cluster_size": 17, "cluster_id": 1, "rank_in_cluster": 13}

>  <energy>  (57) 
-6.12

>  <cluster_rmsd>  (57) 
1.77

>  <rmsd>  (57) 
269.47

>  <cluster>  (57) 
1

$$$$
OEDLLKAXDUWBBK-SFHVURJKNA-N
     RDKit          3D

 47 50  0  0  0  0  0  0  0  0999 V2000
  136.3290   76.5110  223.3480 F   0  0  0  0  0  0  0  0  0  0  0  0
  136.8830   75.5880  222.4820 C   0  0  0  0  0  0  0  0  0  0  0  0
  136.2320   75.6480  221.2630 F   0  0  0  0  0  0  0  0  0  0  0  0
  136.6600   74.3350  223.0300 F   0  0  0  0  0  0  0  0  0  0  0  0
  138.3700   75.8330  222.2800 C   0  0  0  0  0  0  0  0  0  0  0  0
  138.8660   77.1060  222.6140 C   0  0  0  0  0  0  0  0  0  0  0  0
  140.2070   77.4210  222.4410 C   0  0  0  0  0  0  0  0  0  0  0  0
  141.0770   76.4910  221.8920 C   0  0  0  0  0  0  0  0  0  0  0  0
  140.6350   75.2030  221.5430 C   0  0  0  0  0  0  0  0  0  0  0  0
  141.6190   74.2660  220.8570 C   0  0  0  0  0  0  0  0  0  0  0  0
  141.8430   73.1220  221.6060 F   0  0  0  0  0  0  0  0  0  0  0  0
  141.1270   73.8810  219.6250 F   0  0  0  0  0  0  0  0  0  0  0  0
  142.8400   74.8940  220.6930 F   0  0  0  0  0  0  0  0  0  0  0  0
  139.2890   74.8220  221.8460 C   0  0  0  0  0  0  0  0  0  0  0  0
  138.8500   73.3650  221.7210 C   0  0  0  0  0  0  0  0  0  0  0  0
  139.5360   72.5070  222.7100 N   0  0  0  0  0  0  0  0  0  0  0  0
  138.7190   71.4240  223.3010 C   0  0  1  0  0  0  0  0  0  0  0  0
  138.2950   70.3550  222.2480 C   0  0  0  0  0  0  0  0  0  0  0  0
  137.7530   69.0700  222.9070 C   0  0  0  0  0  0  0  0  0  0  0  0
  138.8080   68.4120  223.8150 C   0  0  0  0  0  0  0  0  0  0  0  0
  139.3800   69.4350  224.7460 C   0  0  0  0  0  0  0  0  0  0  0  0
  139.3800   70.7970  224.5030 C   0  0  0  0  0  0  0  0  0  0  0  0
  139.9350   71.4720  225.5370 N   0  0  0  0  0  0  0  0  0  0  0  0
  140.3540   70.5250  226.3980 C   0  0  0  0  0  0  0  0  0  0  0  0
  141.0320   70.7180  227.5990 C   0  0  0  0  0  0  0  0  0  0  0  0
  141.3890   69.5780  228.3440 C   0  0  0  0  0  0  0  0  0  0  0  0
  141.0590   68.2860  227.8780 C   0  0  0  0  0  0  0  0  0  0  0  0
  140.3720   68.1190  226.6610 C   0  0  0  0  0  0  0  0  0  0  0  0
  140.0360   69.2660  225.9450 C   0  0  0  0  0  0  0  0  0  0  0  0
  138.1801   77.8646  223.0190 H   0  0  0  0  0  0  0  0  0  0  0  0
  140.5806   78.4114  222.7403 H   0  0  0  0  0  0  0  0  0  0  0  0
  142.1294   76.7655  221.7271 H   0  0  0  0  0  0  0  0  0  0  0  0
  137.7642   73.3032  221.8860 H   0  0  0  0  0  0  0  0  0  0  0  0
  139.1133   73.0099  220.7137 H   0  0  0  0  0  0  0  0  0  0  0  0
  139.8930   73.1100  223.4890 H   0  0  0  0  0  0  0  0  0  0  0  0
  137.7939   71.8997  223.6586 H   0  0  0  0  0  0  0  0  0  0  0  0
  137.5103   70.7819  221.6062 H   0  0  0  0  0  0  0  0  0  0  0  0
  139.1870   70.0843  221.6640 H   0  0  0  0  0  0  0  0  0  0  0  0
  136.8697   69.3237  223.5115 H   0  0  0  0  0  0  0  0  0  0  0  0
  137.4916   68.3580  222.1103 H   0  0  0  0  0  0  0  0  0  0  0  0
  138.3371   67.6080  224.3997 H   0  0  0  0  0  0  0  0  0  0  0  0
  139.6136   67.9934  223.1939 H   0  0  0  0  0  0  0  0  0  0  0  0
  140.0190   72.5060  225.6480 H   0  0  0  0  0  0  0  0  0  0  0  0
  141.2807   71.7289  227.9542 H   0  0  0  0  0  0  0  0  0  0  0  0
  141.9286   69.6942  229.2955 H   0  0  0  0  0  0  0  0  0  0  0  0
  141.3412   67.4035  228.4709 H   0  0  0  0  0  0  0  0  0  0  0  0
  140.1095   67.1179  226.2882 H   0  0  0  0  0  0  0  0  0  0  0  0
  1  2  1  0
  2  3  1  0
  2  4  1  0
  2  5  1  0
  5  6  2  0
  6  7  1  0
  7  8  2  0
  8  9  1  0
  9 10  1  0
 10 11  1  0
 10 12  1  0
 10 13  1  0
  9 14  2  0
 14 15  1  0
 15 16  1  0
 16 17  1  0
 17 18  1  0
 18 19  1  0
 19 20  1  0
 20 21  1  0
 21 22  2  0
 22 23  1  0
 23 24  1  0
 24 25  2  0
 25 26  1  0
 26 27  2  0
 27 28  1  0
 28 29  2  0
 14  5  1  0
 22 17  1  0
 29 24  1  0
 29 21  1  0
  6 30  1  0
  7 31  1  0
  8 32  1  0
 15 33  1  0
 15 34  1  0
 16 35  1  0
 17 36  1  1
 18 37  1  0
 18 38  1  0
 19 39  1  0
 19 40  1  0
 20 41  1  0
 20 42  1  0
 23 43  1  0
 25 44  1  0
 26 45  1  0
 27 46  1  0
 28 47  1  0
M  END
>  <UniqueID>  (58) 
31

>  <SMILES>  (58) 
FC(F)(F)c1cccc(C(F)(F)F)c1CN[C@H]1CCCc2c1[nH]c1ccccc21

>  <Energy>  (58) 
95.50398610088541

>  <Genealogy>  (58) 
FC(F)(F)c1cccc(C(F)(F)F)c1CN[C@H]1CCCc2c1[nH]c1ccccc21 (chirality)
FC(F)(F)c1cccc(C(F)(F)F)c1CN[C@H]1CCCc2c1[nH]c1ccccc21 (3D coordinates assigned)
FC(F)(F)c1cccc(C(F)(F)F)c1CN[C@H]1CCCc2c1[nH]c1ccccc21 (nonaromatic ring conformer: 95.50398610088541 kcal/mol)

>  <smiles>  (58) 
FC(F)(F)c1cccc(C(F)(F)F)c1CNC1CCCc2c1[nH]c1ccccc21

>  <score_type>  (58) 
oracle

>  <origin>  (58) 
autodockgpu

>  <m_score__min__energy>  (58) 
-7.21

>  <m_primary>  (58) 
energy

>  <meeko>  (58) 
{"free_energy": -6.87, "intermolecular_energy": -8.37, "internal_energy": -0.9, "cluster_size": 17, "cluster_id": 1, "rank_in_cluster": 9}

>  <energy>  (58) 
-6.52

>  <cluster_rmsd>  (58) 
0.0

>  <rmsd>  (58) 
270.25

>  <cluster>  (58) 
2

$$$$
OEDLLKAXDUWBBK-SFHVURJKNA-N
     RDKit          3D

 47 50  0  0  0  0  0  0  0  0999 V2000
  140.0860   75.8900  220.2760 F   0  0  0  0  0  0  0  0  0  0  0  0
  141.2930   75.9120  220.9470 C   0  0  0  0  0  0  0  0  0  0  0  0
  141.0670   76.0580  222.3040 F   0  0  0  0  0  0  0  0  0  0  0  0
  141.9830   77.0270  220.5010 F   0  0  0  0  0  0  0  0  0  0  0  0
  142.0950   74.6440  220.6960 C   0  0  0  0  0  0  0  0  0  0  0  0
  143.4800   74.7820  220.5020 C   0  0  0  0  0  0  0  0  0  0  0  0
  144.2830   73.6790  220.2460 C   0  0  0  0  0  0  0  0  0  0  0  0
  143.7190   72.4170  220.1330 C   0  0  0  0  0  0  0  0  0  0  0  0
  142.3390   72.2210  220.3200 C   0  0  0  0  0  0  0  0  0  0  0  0
  141.7730   70.8270  220.0880 C   0  0  0  0  0  0  0  0  0  0  0  0
  141.0710   70.3700  221.1910 F   0  0  0  0  0  0  0  0  0  0  0  0
  140.9120   70.8400  219.0080 F   0  0  0  0  0  0  0  0  0  0  0  0
  142.7990   69.9290  219.8540 F   0  0  0  0  0  0  0  0  0  0  0  0
  141.5260   73.3280  220.7220 C   0  0  0  0  0  0  0  0  0  0  0  0
  140.0870   73.1040  221.1820 C   0  0  0  0  0  0  0  0  0  0  0  0
  140.0110   72.9100  222.6460 N   0  0  0  0  0  0  0  0  0  0  0  0
  139.0380   71.8980  223.1130 C   0  0  1  0  0  0  0  0  0  0  0  0
  138.5500   70.9660  221.9620 C   0  0  0  0  0  0  0  0  0  0  0  0
  137.8210   69.7150  222.4940 C   0  0  0  0  0  0  0  0  0  0  0  0
  138.7360   68.8700  223.3980 C   0  0  0  0  0  0  0  0  0  0  0  0
  139.3730   69.7470  224.4310 C   0  0  0  0  0  0  0  0  0  0  0  0
  139.5500   71.1120  224.2940 C   0  0  0  0  0  0  0  0  0  0  0  0
  140.1210   71.6390  225.4010 N   0  0  0  0  0  0  0  0  0  0  0  0
  140.3740   70.5900  226.2070 C   0  0  0  0  0  0  0  0  0  0  0  0
  141.0010   70.6130  227.4500 C   0  0  0  0  0  0  0  0  0  0  0  0
  141.1750   69.3890  228.1220 C   0  0  0  0  0  0  0  0  0  0  0  0
  140.7210   68.1830  227.5440 C   0  0  0  0  0  0  0  0  0  0  0  0
  140.0890   68.1870  226.2860 C   0  0  0  0  0  0  0  0  0  0  0  0
  139.9340   69.4150  225.6440 C   0  0  0  0  0  0  0  0  0  0  0  0
  143.9358   75.7818  220.5539 H   0  0  0  0  0  0  0  0  0  0  0  0
  145.3697   73.8062  220.1325 H   0  0  0  0  0  0  0  0  0  0  0  0
  144.3608   71.5563  219.8935 H   0  0  0  0  0  0  0  0  0  0  0  0
  139.4826   73.9805  220.9056 H   0  0  0  0  0  0  0  0  0  0  0  0
  139.7053   72.1957  220.6928 H   0  0  0  0  0  0  0  0  0  0  0  0
  139.7710   73.8260  223.0950 H   0  0  0  0  0  0  0  0  0  0  0  0
  138.1574   72.4576  223.4615 H   0  0  0  0  0  0  0  0  0  0  0  0
  137.8602   71.5306  221.3175 H   0  0  0  0  0  0  0  0  0  0  0  0
  139.4351   70.6286  221.4028 H   0  0  0  0  0  0  0  0  0  0  0  0
  136.9416   70.0332  223.0732 H   0  0  0  0  0  0  0  0  0  0  0  0
  137.5215   69.0984  221.6337 H   0  0  0  0  0  0  0  0  0  0  0  0
  138.1398   68.0915  223.8964 H   0  0  0  0  0  0  0  0  0  0  0  0
  139.5195   68.3995  222.7858 H   0  0  0  0  0  0  0  0  0  0  0  0
  140.3220   72.6450  225.5950 H   0  0  0  0  0  0  0  0  0  0  0  0
  141.3492   71.5579  227.8926 H   0  0  0  0  0  0  0  0  0  0  0  0
  141.6684   69.3713  229.1050 H   0  0  0  0  0  0  0  0  0  0  0  0
  140.8623   67.2333  228.0808 H   0  0  0  0  0  0  0  0  0  0  0  0
  139.7302   67.2545  225.8259 H   0  0  0  0  0  0  0  0  0  0  0  0
  1  2  1  0
  2  3  1  0
  2  4  1  0
  2  5  1  0
  5  6  2  0
  6  7  1  0
  7  8  2  0
  8  9  1  0
  9 10  1  0
 10 11  1  0
 10 12  1  0
 10 13  1  0
  9 14  2  0
 14 15  1  0
 15 16  1  0
 16 17  1  0
 17 18  1  0
 18 19  1  0
 19 20  1  0
 20 21  1  0
 21 22  2  0
 22 23  1  0
 23 24  1  0
 24 25  2  0
 25 26  1  0
 26 27  2  0
 27 28  1  0
 28 29  2  0
 14  5  1  0
 22 17  1  0
 29 24  1  0
 29 21  1  0
  6 30  1  0
  7 31  1  0
  8 32  1  0
 15 33  1  0
 15 34  1  0
 16 35  1  0
 17 36  1  1
 18 37  1  0
 18 38  1  0
 19 39  1  0
 19 40  1  0
 20 41  1  0
 20 42  1  0
 23 43  1  0
 25 44  1  0
 26 45  1  0
 27 46  1  0
 28 47  1  0
M  END
>  <UniqueID>  (59) 
31

>  <SMILES>  (59) 
FC(F)(F)c1cccc(C(F)(F)F)c1CN[C@H]1CCCc2c1[nH]c1ccccc21

>  <Energy>  (59) 
95.50398610088541

>  <Genealogy>  (59) 
FC(F)(F)c1cccc(C(F)(F)F)c1CN[C@H]1CCCc2c1[nH]c1ccccc21 (chirality)
FC(F)(F)c1cccc(C(F)(F)F)c1CN[C@H]1CCCc2c1[nH]c1ccccc21 (3D coordinates assigned)
FC(F)(F)c1cccc(C(F)(F)F)c1CN[C@H]1CCCc2c1[nH]c1ccccc21 (nonaromatic ring conformer: 95.50398610088541 kcal/mol)

>  <smiles>  (59) 
FC(F)(F)c1cccc(C(F)(F)F)c1CNC1CCCc2c1[nH]c1ccccc21

>  <score_type>  (59) 
oracle

>  <origin>  (59) 
autodockgpu

>  <m_score__min__energy>  (59) 
-7.21

>  <m_primary>  (59) 
energy

>  <meeko>  (59) 
{"free_energy": -6.86, "intermolecular_energy": -8.35, "internal_energy": -1.16, "cluster_size": 17, "cluster_id": 1, "rank_in_cluster": 12}

>  <energy>  (59) 
-6.5

>  <cluster_rmsd>  (59) 
0.06

>  <rmsd>  (59) 
270.27

>  <cluster>  (59) 
2

$$$$
OEDLLKAXDUWBBK-SFHVURJKNA-N
     RDKit          3D

 47 50  0  0  0  0  0  0  0  0999 V2000
  141.9180   73.2010  219.5160 F   0  0  0  0  0  0  0  0  0  0  0  0
  142.0830   73.6450  220.8140 C   0  0  0  0  0  0  0  0  0  0  0  0
  143.1780   74.4860  220.8820 F   0  0  0  0  0  0  0  0  0  0  0  0
  142.3460   72.5290  221.5920 F   0  0  0  0  0  0  0  0  0  0  0  0
  140.8460   74.3740  221.3160 C   0  0  0  0  0  0  0  0  0  0  0  0
  141.0070   75.7060  221.7370 C   0  0  0  0  0  0  0  0  0  0  0  0
  139.9340   76.4370  222.2290 C   0  0  0  0  0  0  0  0  0  0  0  0
  138.6850   75.8460  222.3540 C   0  0  0  0  0  0  0  0  0  0  0  0
  138.4680   74.5180  221.9460 C   0  0  0  0  0  0  0  0  0  0  0  0
  137.0990   73.9030  222.2000 C   0  0  0  0  0  0  0  0  0  0  0  0
  137.1890   72.7560  222.9710 F   0  0  0  0  0  0  0  0  0  0  0  0
  136.2910   74.8040  222.8640 F   0  0  0  0  0  0  0  0  0  0  0  0
  136.5080   73.5460  221.0010 F   0  0  0  0  0  0  0  0  0  0  0  0
  139.5310   73.8020  221.3090 C   0  0  0  0  0  0  0  0  0  0  0  0
  139.2610   72.4630  220.6260 C   0  0  0  0  0  0  0  0  0  0  0  0
  139.8400   71.3390  221.3920 N   0  0  0  0  0  0  0  0  0  0  0  0
  138.9530   70.7240  222.4040 C   0  0  1  0  0  0  0  0  0  0  0  0
  138.5220   69.2760  222.0170 C   0  0  0  0  0  0  0  0  0  0  0  0
  137.8970   68.5170  223.2060 C   0  0  0  0  0  0  0  0  0  0  0  0
  138.8850   68.3920  224.3790 C   0  0  0  0  0  0  0  0  0  0  0  0
  139.4670   69.7360  224.6920 C   0  0  0  0  0  0  0  0  0  0  0  0
  139.5380   70.7840  223.7920 C   0  0  0  0  0  0  0  0  0  0  0  0
  140.0820   71.8800  224.3700 N   0  0  0  0  0  0  0  0  0  0  0  0
  140.4240   71.4970  225.6140 C   0  0  0  0  0  0  0  0  0  0  0  0
  141.0640   72.2620  226.5860 C   0  0  0  0  0  0  0  0  0  0  0  0
  141.3390   71.6540  227.8260 C   0  0  0  0  0  0  0  0  0  0  0  0
  140.9700   70.3110  228.0620 C   0  0  0  0  0  0  0  0  0  0  0  0
  140.3240   69.5600  227.0630 C   0  0  0  0  0  0  0  0  0  0  0  0
  140.0670   70.1890  225.8460 C   0  0  0  0  0  0  0  0  0  0  0  0
  141.9994   76.1766  221.6755 H   0  0  0  0  0  0  0  0  0  0  0  0
  140.0747   77.4883  222.5207 H   0  0  0  0  0  0  0  0  0  0  0  0
  137.8518   76.4251  222.7788 H   0  0  0  0  0  0  0  0  0  0  0  0
  138.1740   72.3167  220.5428 H   0  0  0  0  0  0  0  0  0  0  0  0
  139.7303   72.4815  219.6313 H   0  0  0  0  0  0  0  0  0  0  0  0
  140.7070   71.6720  221.8760 H   0  0  0  0  0  0  0  0  0  0  0  0
  138.0372   71.3331  222.4186 H   0  0  0  0  0  0  0  0  0  0  0  0
  137.7829   69.3316  221.2042 H   0  0  0  0  0  0  0  0  0  0  0  0
  139.4225   68.7282  221.7022 H   0  0  0  0  0  0  0  0  0  0  0  0
  137.0041   69.0611  223.5475 H   0  0  0  0  0  0  0  0  0  0  0  0
  137.6336   67.5039  222.8679 H   0  0  0  0  0  0  0  0  0  0  0  0
  138.3562   68.0072  225.2635 H   0  0  0  0  0  0  0  0  0  0  0  0
  139.6937   67.6994  224.1028 H   0  0  0  0  0  0  0  0  0  0  0  0
  140.2080   72.8250  223.9450 H   0  0  0  0  0  0  0  0  0  0  0  0
  141.3456   73.3074  226.3914 H   0  0  0  0  0  0  0  0  0  0  0  0
  141.8445   72.2286  228.6161 H   0  0  0  0  0  0  0  0  0  0  0  0
  141.1897   69.8483  229.0355 H   0  0  0  0  0  0  0  0  0  0  0  0
  140.0321   68.5137  227.2362 H   0  0  0  0  0  0  0  0  0  0  0  0
  1  2  1  0
  2  3  1  0
  2  4  1  0
  2  5  1  0
  5  6  2  0
  6  7  1  0
  7  8  2  0
  8  9  1  0
  9 10  1  0
 10 11  1  0
 10 12  1  0
 10 13  1  0
  9 14  2  0
 14 15  1  0
 15 16  1  0
 16 17  1  0
 17 18  1  0
 18 19  1  0
 19 20  1  0
 20 21  1  0
 21 22  2  0
 22 23  1  0
 23 24  1  0
 24 25  2  0
 25 26  1  0
 26 27  2  0
 27 28  1  0
 28 29  2  0
 14  5  1  0
 22 17  1  0
 29 24  1  0
 29 21  1  0
  6 30  1  0
  7 31  1  0
  8 32  1  0
 15 33  1  0
 15 34  1  0
 16 35  1  0
 17 36  1  1
 18 37  1  0
 18 38  1  0
 19 39  1  0
 19 40  1  0
 20 41  1  0
 20 42  1  0
 23 43  1  0
 25 44  1  0
 26 45  1  0
 27 46  1  0
 28 47  1  0
M  END
>  <UniqueID>  (60) 
31

>  <SMILES>  (60) 
FC(F)(F)c1cccc(C(F)(F)F)c1CN[C@H]1CCCc2c1[nH]c1ccccc21

>  <Energy>  (60) 
95.50398610088541

>  <Genealogy>  (60) 
FC(F)(F)c1cccc(C(F)(F)F)c1CN[C@H]1CCCc2c1[nH]c1ccccc21 (chirality)
FC(F)(F)c1cccc(C(F)(F)F)c1CN[C@H]1CCCc2c1[nH]c1ccccc21 (3D coordinates assigned)
FC(F)(F)c1cccc(C(F)(F)F)c1CN[C@H]1CCCc2c1[nH]c1ccccc21 (nonaromatic ring conformer: 95.50398610088541 kcal/mol)

>  <smiles>  (60) 
FC(F)(F)c1cccc(C(F)(F)F)c1CNC1CCCc2c1[nH]c1ccccc21

>  <score_type>  (60) 
oracle

>  <origin>  (60) 
autodockgpu

>  <m_score__min__energy>  (60) 
-7.21

>  <m_primary>  (60) 
energy

>  <meeko>  (60) 
{"free_energy": -6.12, "intermolecular_energy": -7.61, "internal_energy": -1.5, "cluster_size": 17, "cluster_id": 1, "rank_in_cluster": 17}

>  <energy>  (60) 
-6.46

>  <cluster_rmsd>  (60) 
0.15

>  <rmsd>  (60) 
270.26

>  <cluster>  (60) 
2

$$$$
OEDLLKAXDUWBBK-SFHVURJKNA-N
     RDKit          3D

 47 50  0  0  0  0  0  0  0  0999 V2000
  142.4180   71.5350  221.6300 F   0  0  0  0  0  0  0  0  0  0  0  0
  143.0740   72.2040  220.6150 C   0  0  0  0  0  0  0  0  0  0  0  0
  142.8460   71.5600  219.4120 F   0  0  0  0  0  0  0  0  0  0  0  0
  144.4290   72.1330  220.8940 F   0  0  0  0  0  0  0  0  0  0  0  0
  142.6170   73.6510  220.5140 C   0  0  0  0  0  0  0  0  0  0  0  0
  143.5270   74.5810  219.9810 C   0  0  0  0  0  0  0  0  0  0  0  0
  143.1990   75.9250  219.8730 C   0  0  0  0  0  0  0  0  0  0  0  0
  141.9740   76.3840  220.3340 C   0  0  0  0  0  0  0  0  0  0  0  0
  141.0250   75.4980  220.8740 C   0  0  0  0  0  0  0  0  0  0  0  0
  139.7420   76.0800  221.4480 C   0  0  0  0  0  0  0  0  0  0  0  0
  139.5900   75.7630  222.7870 F   0  0  0  0  0  0  0  0  0  0  0  0
  139.7530   77.4560  221.3320 F   0  0  0  0  0  0  0  0  0  0  0  0
  138.6450   75.5680  220.7770 F   0  0  0  0  0  0  0  0  0  0  0  0
  141.2980   74.0920  220.8610 C   0  0  0  0  0  0  0  0  0  0  0  0
  140.1980   73.0880  221.1970 C   0  0  0  0  0  0  0  0  0  0  0  0
  140.0650   72.8990  222.6570 N   0  0  0  0  0  0  0  0  0  0  0  0
  139.1000   71.8640  223.0880 C   0  0  1  0  0  0  0  0  0  0  0  0
  138.6690   70.9270  221.9190 C   0  0  0  0  0  0  0  0  0  0  0  0
  137.9500   69.6580  222.4230 C   0  0  0  0  0  0  0  0  0  0  0  0
  138.8540   68.8280  223.3520 C   0  0  0  0  0  0  0  0  0  0  0  0
  139.4390   69.7140  224.4080 C   0  0  0  0  0  0  0  0  0  0  0  0
  139.5910   71.0840  224.2820 C   0  0  0  0  0  0  0  0  0  0  0  0
  140.1150   71.6170  225.4090 N   0  0  0  0  0  0  0  0  0  0  0  0
  140.3650   70.5700  226.2180 C   0  0  0  0  0  0  0  0  0  0  0  0
  140.9510   70.6010  227.4810 C   0  0  0  0  0  0  0  0  0  0  0  0
  141.1300   69.3780  228.1540 C   0  0  0  0  0  0  0  0  0  0  0  0
  140.7200   68.1650  227.5560 C   0  0  0  0  0  0  0  0  0  0  0  0
  140.1290   68.1620  226.2790 C   0  0  0  0  0  0  0  0  0  0  0  0
  139.9680   69.3880  225.6370 C   0  0  0  0  0  0  0  0  0  0  0  0
  144.5160   74.2372  219.6438 H   0  0  0  0  0  0  0  0  0  0  0  0
  143.9129   76.6288  219.4202 H   0  0  0  0  0  0  0  0  0  0  0  0
  141.7413   77.4576  220.2763 H   0  0  0  0  0  0  0  0  0  0  0  0
  139.2425   73.4569  220.7958 H   0  0  0  0  0  0  0  0  0  0  0  0
  140.4643   72.1205  220.7465 H   0  0  0  0  0  0  0  0  0  0  0  0
  139.7840   73.8100  223.0900 H   0  0  0  0  0  0  0  0  0  0  0  0
  138.1966   72.4030  223.4095 H   0  0  0  0  0  0  0  0  0  0  0  0
  137.9882   71.4796  221.2548 H   0  0  0  0  0  0  0  0  0  0  0  0
  139.5785   70.6108  221.3872 H   0  0  0  0  0  0  0  0  0  0  0  0
  137.0464   69.9549  222.9756 H   0  0  0  0  0  0  0  0  0  0  0  0
  137.6907   69.0393  221.5512 H   0  0  0  0  0  0  0  0  0  0  0  0
  138.2592   68.0346  223.8282 H   0  0  0  0  0  0  0  0  0  0  0  0
  139.6662   68.3768  222.7632 H   0  0  0  0  0  0  0  0  0  0  0  0
  140.2880   72.6260  225.6130 H   0  0  0  0  0  0  0  0  0  0  0  0
  141.2640   71.5513  227.9381 H   0  0  0  0  0  0  0  0  0  0  0  0
  141.5921   69.3662  229.1522 H   0  0  0  0  0  0  0  0  0  0  0  0
  140.8640   67.2158  228.0929 H   0  0  0  0  0  0  0  0  0  0  0  0
  139.8053   67.2241  225.8040 H   0  0  0  0  0  0  0  0  0  0  0  0
  1  2  1  0
  2  3  1  0
  2  4  1  0
  2  5  1  0
  5  6  2  0
  6  7  1  0
  7  8  2  0
  8  9  1  0
  9 10  1  0
 10 11  1  0
 10 12  1  0
 10 13  1  0
  9 14  2  0
 14 15  1  0
 15 16  1  0
 16 17  1  0
 17 18  1  0
 18 19  1  0
 19 20  1  0
 20 21  1  0
 21 22  2  0
 22 23  1  0
 23 24  1  0
 24 25  2  0
 25 26  1  0
 26 27  2  0
 27 28  1  0
 28 29  2  0
 14  5  1  0
 22 17  1  0
 29 24  1  0
 29 21  1  0
  6 30  1  0
  7 31  1  0
  8 32  1  0
 15 33  1  0
 15 34  1  0
 16 35  1  0
 17 36  1  1
 18 37  1  0
 18 38  1  0
 19 39  1  0
 19 40  1  0
 20 41  1  0
 20 42  1  0
 23 43  1  0
 25 44  1  0
 26 45  1  0
 27 46  1  0
 28 47  1  0
M  END
>  <UniqueID>  (61) 
32

>  <SMILES>  (61) 
FC(F)(F)c1cccc(C(F)(F)F)c1CN[C@H]1CCCc2c1[nH]c1ccccc21

>  <Energy>  (61) 
95.72876901229523

>  <Genealogy>  (61) 
FC(F)(F)c1cccc(C(F)(F)F)c1CN[C@H]1CCCc2c1[nH]c1ccccc21 (chirality)
FC(F)(F)c1cccc(C(F)(F)F)c1CN[C@H]1CCCc2c1[nH]c1ccccc21 (3D coordinates assigned)
FC(F)(F)c1cccc(C(F)(F)F)c1CN[C@H]1CCCc2c1[nH]c1ccccc21 (nonaromatic ring conformer: 95.72876901229523 kcal/mol)

>  <smiles>  (61) 
FC(F)(F)c1cccc(C(F)(F)F)c1CNC1CCCc2c1[nH]c1ccccc21

>  <score_type>  (61) 
oracle

>  <origin>  (61) 
autodockgpu

>  <m_score__min__energy>  (61) 
-7.21

>  <m_primary>  (61) 
energy

>  <meeko>  (61) 
{"free_energy": -7.13, "intermolecular_energy": -8.62, "internal_energy": -1.01, "cluster_size": 17, "cluster_id": 1, "rank_in_cluster": 7}

>  <energy>  (61) 
-7.21

>  <cluster_rmsd>  (61) 
0.0

>  <rmsd>  (61) 
269.9

>  <cluster>  (61) 
1

$$$$
OEDLLKAXDUWBBK-SFHVURJKNA-N
     RDKit          3D

 47 50  0  0  0  0  0  0  0  0999 V2000
  140.9070   76.0340  222.2920 F   0  0  0  0  0  0  0  0  0  0  0  0
  141.2090   75.9040  220.9500 C   0  0  0  0  0  0  0  0  0  0  0  0
  141.9170   77.0130  220.5240 F   0  0  0  0  0  0  0  0  0  0  0  0
  140.0050   75.8700  220.2670 F   0  0  0  0  0  0  0  0  0  0  0  0
  142.0200   74.6450  220.6800 C   0  0  0  0  0  0  0  0  0  0  0  0
  143.4020   74.7990  220.4740 C   0  0  0  0  0  0  0  0  0  0  0  0
  144.2120   73.7050  220.2010 C   0  0  0  0  0  0  0  0  0  0  0  0
  143.6590   72.4380  220.0830 C   0  0  0  0  0  0  0  0  0  0  0  0
  142.2820   72.2280  220.2810 C   0  0  0  0  0  0  0  0  0  0  0  0
  141.7270   70.8320  220.0430 C   0  0  0  0  0  0  0  0  0  0  0  0
  142.7300   69.9260  219.7400 F   0  0  0  0  0  0  0  0  0  0  0  0
  141.0720   70.3830  221.1740 F   0  0  0  0  0  0  0  0  0  0  0  0
  140.8490   70.8440  218.9740 F   0  0  0  0  0  0  0  0  0  0  0  0
  141.4630   73.3240  220.7010 C   0  0  0  0  0  0  0  0  0  0  0  0
  140.0310   73.0840  221.1730 C   0  0  0  0  0  0  0  0  0  0  0  0
  139.9710   72.8790  222.6360 N   0  0  0  0  0  0  0  0  0  0  0  0
  139.0080   71.8590  223.1050 C   0  0  1  0  0  0  0  0  0  0  0  0
  138.5250   70.9220  221.9560 C   0  0  0  0  0  0  0  0  0  0  0  0
  137.8090   69.6650  222.4910 C   0  0  0  0  0  0  0  0  0  0  0  0
  138.7330   68.8280  223.3930 C   0  0  0  0  0  0  0  0  0  0  0  0
  139.3650   69.7110  224.4240 C   0  0  0  0  0  0  0  0  0  0  0  0
  139.5290   71.0780  224.2860 C   0  0  0  0  0  0  0  0  0  0  0  0
  140.0990   71.6100  225.3920 N   0  0  0  0  0  0  0  0  0  0  0  0
  140.3620   70.5640  226.1970 C   0  0  0  0  0  0  0  0  0  0  0  0
  140.9920   70.5940  227.4390 C   0  0  0  0  0  0  0  0  0  0  0  0
  141.1790   69.3710  228.1110 C   0  0  0  0  0  0  0  0  0  0  0  0
  140.7330   68.1610  227.5340 C   0  0  0  0  0  0  0  0  0  0  0  0
  140.0980   68.1590  226.2780 C   0  0  0  0  0  0  0  0  0  0  0  0
  139.9310   69.3850  225.6360 C   0  0  0  0  0  0  0  0  0  0  0  0
  143.8489   75.8026  220.5300 H   0  0  0  0  0  0  0  0  0  0  0  0
  145.2963   73.8432  220.0778 H   0  0  0  0  0  0  0  0  0  0  0  0
  144.3066   71.5853  219.8309 H   0  0  0  0  0  0  0  0  0  0  0  0
  139.4163   73.9571  220.9087 H   0  0  0  0  0  0  0  0  0  0  0  0
  139.6526   72.1759  220.6810 H   0  0  0  0  0  0  0  0  0  0  0  0
  139.7310   73.7900  223.0940 H   0  0  0  0  0  0  0  0  0  0  0  0
  138.1234   72.4116  223.4543 H   0  0  0  0  0  0  0  0  0  0  0  0
  137.8282   71.4799  221.3132 H   0  0  0  0  0  0  0  0  0  0  0  0
  139.4114   70.5922  221.3942 H   0  0  0  0  0  0  0  0  0  0  0  0
  136.9285   69.9759  223.0724 H   0  0  0  0  0  0  0  0  0  0  0  0
  137.5133   69.0453  221.6316 H   0  0  0  0  0  0  0  0  0  0  0  0
  138.1445   68.0448  223.8932 H   0  0  0  0  0  0  0  0  0  0  0  0
  139.5189   68.3636  222.7793 H   0  0  0  0  0  0  0  0  0  0  0  0
  140.2910   72.6180  225.5840 H   0  0  0  0  0  0  0  0  0  0  0  0
  141.3323   71.5423  227.8804 H   0  0  0  0  0  0  0  0  0  0  0  0
  141.6759   69.3575  229.0923 H   0  0  0  0  0  0  0  0  0  0  0  0
  140.8833   67.2127  228.0708 H   0  0  0  0  0  0  0  0  0  0  0  0
  139.7460   67.2232  225.8192 H   0  0  0  0  0  0  0  0  0  0  0  0
  1  2  1  0
  2  3  1  0
  2  4  1  0
  2  5  1  0
  5  6  2  0
  6  7  1  0
  7  8  2  0
  8  9  1  0
  9 10  1  0
 10 11  1  0
 10 12  1  0
 10 13  1  0
  9 14  2  0
 14 15  1  0
 15 16  1  0
 16 17  1  0
 17 18  1  0
 18 19  1  0
 19 20  1  0
 20 21  1  0
 21 22  2  0
 22 23  1  0
 23 24  1  0
 24 25  2  0
 25 26  1  0
 26 27  2  0
 27 28  1  0
 28 29  2  0
 14  5  1  0
 22 17  1  0
 29 24  1  0
 29 21  1  0
  6 30  1  0
  7 31  1  0
  8 32  1  0
 15 33  1  0
 15 34  1  0
 16 35  1  0
 17 36  1  1
 18 37  1  0
 18 38  1  0
 19 39  1  0
 19 40  1  0
 20 41  1  0
 20 42  1  0
 23 43  1  0
 25 44  1  0
 26 45  1  0
 27 46  1  0
 28 47  1  0
M  END
>  <UniqueID>  (62) 
32

>  <SMILES>  (62) 
FC(F)(F)c1cccc(C(F)(F)F)c1CN[C@H]1CCCc2c1[nH]c1ccccc21

>  <Energy>  (62) 
95.72876901229523

>  <Genealogy>  (62) 
FC(F)(F)c1cccc(C(F)(F)F)c1CN[C@H]1CCCc2c1[nH]c1ccccc21 (chirality)
FC(F)(F)c1cccc(C(F)(F)F)c1CN[C@H]1CCCc2c1[nH]c1ccccc21 (3D coordinates assigned)
FC(F)(F)c1cccc(C(F)(F)F)c1CN[C@H]1CCCc2c1[nH]c1ccccc21 (nonaromatic ring conformer: 95.72876901229523 kcal/mol)

>  <smiles>  (62) 
FC(F)(F)c1cccc(C(F)(F)F)c1CNC1CCCc2c1[nH]c1ccccc21

>  <score_type>  (62) 
oracle

>  <origin>  (62) 
autodockgpu

>  <m_score__min__energy>  (62) 
-7.21

>  <m_primary>  (62) 
energy

>  <meeko>  (62) 
{"free_energy": -6.87, "intermolecular_energy": -8.36, "internal_energy": -1.16, "cluster_size": 17, "cluster_id": 1, "rank_in_cluster": 10}

>  <energy>  (62) 
-7.2

>  <cluster_rmsd>  (62) 
0.06

>  <rmsd>  (62) 
269.88

>  <cluster>  (62) 
1

$$$$
OEDLLKAXDUWBBK-SFHVURJKNA-N
     RDKit          3D

 47 50  0  0  0  0  0  0  0  0999 V2000
  141.0370   76.1180  222.2960 F   0  0  0  0  0  0  0  0  0  0  0  0
  141.3130   75.9630  220.9510 C   0  0  0  0  0  0  0  0  0  0  0  0
  142.0690   77.0330  220.5060 F   0  0  0  0  0  0  0  0  0  0  0  0
  140.0990   75.9830  220.2850 F   0  0  0  0  0  0  0  0  0  0  0  0
  142.0570   74.6640  220.6800 C   0  0  0  0  0  0  0  0  0  0  0  0
  143.4440   74.7450  220.4650 C   0  0  0  0  0  0  0  0  0  0  0  0
  144.1950   73.6110  220.1900 C   0  0  0  0  0  0  0  0  0  0  0  0
  143.5770   72.3740  220.0800 C   0  0  0  0  0  0  0  0  0  0  0  0
  142.1930   72.2350  220.2890 C   0  0  0  0  0  0  0  0  0  0  0  0
  141.5650   70.8680  220.0600 C   0  0  0  0  0  0  0  0  0  0  0  0
  141.0250   70.3510  221.2250 F   0  0  0  0  0  0  0  0  0  0  0  0
  140.5540   70.9620  219.1240 F   0  0  0  0  0  0  0  0  0  0  0  0
  142.5230   69.9710  219.6190 F   0  0  0  0  0  0  0  0  0  0  0  0
  141.4340   73.3730  220.7100 C   0  0  0  0  0  0  0  0  0  0  0  0
  139.9940   73.2070  221.1920 C   0  0  0  0  0  0  0  0  0  0  0  0
  139.9390   72.9280  222.6430 N   0  0  0  0  0  0  0  0  0  0  0  0
  138.9790   71.8840  223.0630 C   0  0  1  0  0  0  0  0  0  0  0  0
  138.5110   70.9920  221.8740 C   0  0  0  0  0  0  0  0  0  0  0  0
  137.7970   69.7100  222.3510 C   0  0  0  0  0  0  0  0  0  0  0  0
  138.7190   68.8430  223.2280 C   0  0  0  0  0  0  0  0  0  0  0  0
  139.3370   69.6880  224.2980 C   0  0  0  0  0  0  0  0  0  0  0  0
  139.4940   71.0600  224.2160 C   0  0  0  0  0  0  0  0  0  0  0  0
  140.0520   71.5510  225.3470 N   0  0  0  0  0  0  0  0  0  0  0  0
  140.3150   70.4750  226.1120 C   0  0  0  0  0  0  0  0  0  0  0  0
  140.9340   70.4590  227.3600 C   0  0  0  0  0  0  0  0  0  0  0  0
  141.1220   69.2110  227.9840 C   0  0  0  0  0  0  0  0  0  0  0  0
  140.6890   68.0230  227.3560 C   0  0  0  0  0  0  0  0  0  0  0  0
  140.0640   68.0670  226.0950 C   0  0  0  0  0  0  0  0  0  0  0  0
  139.8950   69.3170  225.5010 C   0  0  0  0  0  0  0  0  0  0  0  0
  143.9425   75.7242  220.5156 H   0  0  0  0  0  0  0  0  0  0  0  0
  145.2841   73.6933  220.0588 H   0  0  0  0  0  0  0  0  0  0  0  0
  144.1782   71.4887  219.8256 H   0  0  0  0  0  0  0  0  0  0  0  0
  139.4382   74.1333  220.9844 H   0  0  0  0  0  0  0  0  0  0  0  0
  139.5467   72.3552  220.6587 H   0  0  0  0  0  0  0  0  0  0  0  0
  139.7000   73.8150  223.1470 H   0  0  0  0  0  0  0  0  0  0  0  0
  138.0884   72.4170  223.4272 H   0  0  0  0  0  0  0  0  0  0  0  0
  137.8166   71.5719  221.2483 H   0  0  0  0  0  0  0  0  0  0  0  0
  139.4041   70.6895  221.3076 H   0  0  0  0  0  0  0  0  0  0  0  0
  136.9091   69.9920  222.9359 H   0  0  0  0  0  0  0  0  0  0  0  0
  137.5125   69.1236  221.4649 H   0  0  0  0  0  0  0  0  0  0  0  0
  138.1310   68.0374  223.6920 H   0  0  0  0  0  0  0  0  0  0  0  0
  139.5128   68.4076  222.6032 H   0  0  0  0  0  0  0  0  0  0  0  0
  140.2360   72.5510  225.5820 H   0  0  0  0  0  0  0  0  0  0  0  0
  141.2650   71.3907  227.8420 H   0  0  0  0  0  0  0  0  0  0  0  0
  141.6101   69.1612  228.9685 H   0  0  0  0  0  0  0  0  0  0  0  0
  140.8411   67.0550  227.8559 H   0  0  0  0  0  0  0  0  0  0  0  0
  139.7214   67.1482  225.5965 H   0  0  0  0  0  0  0  0  0  0  0  0
  1  2  1  0
  2  3  1  0
  2  4  1  0
  2  5  1  0
  5  6  2  0
  6  7  1  0
  7  8  2  0
  8  9  1  0
  9 10  1  0
 10 11  1  0
 10 12  1  0
 10 13  1  0
  9 14  2  0
 14 15  1  0
 15 16  1  0
 16 17  1  0
 17 18  1  0
 18 19  1  0
 19 20  1  0
 20 21  1  0
 21 22  2  0
 22 23  1  0
 23 24  1  0
 24 25  2  0
 25 26  1  0
 26 27  2  0
 27 28  1  0
 28 29  2  0
 14  5  1  0
 22 17  1  0
 29 24  1  0
 29 21  1  0
  6 30  1  0
  7 31  1  0
  8 32  1  0
 15 33  1  0
 15 34  1  0
 16 35  1  0
 17 36  1  1
 18 37  1  0
 18 38  1  0
 19 39  1  0
 19 40  1  0
 20 41  1  0
 20 42  1  0
 23 43  1  0
 25 44  1  0
 26 45  1  0
 27 46  1  0
 28 47  1  0
M  END
>  <UniqueID>  (63) 
32

>  <SMILES>  (63) 
FC(F)(F)c1cccc(C(F)(F)F)c1CN[C@H]1CCCc2c1[nH]c1ccccc21

>  <Energy>  (63) 
95.72876901229523

>  <Genealogy>  (63) 
FC(F)(F)c1cccc(C(F)(F)F)c1CN[C@H]1CCCc2c1[nH]c1ccccc21 (chirality)
FC(F)(F)c1cccc(C(F)(F)F)c1CN[C@H]1CCCc2c1[nH]c1ccccc21 (3D coordinates assigned)
FC(F)(F)c1cccc(C(F)(F)F)c1CN[C@H]1CCCc2c1[nH]c1ccccc21 (nonaromatic ring conformer: 95.72876901229523 kcal/mol)

>  <smiles>  (63) 
FC(F)(F)c1cccc(C(F)(F)F)c1CNC1CCCc2c1[nH]c1ccccc21

>  <score_type>  (63) 
oracle

>  <origin>  (63) 
autodockgpu

>  <m_score__min__energy>  (63) 
-7.21

>  <m_primary>  (63) 
energy

>  <meeko>  (63) 
{"free_energy": -6.79, "intermolecular_energy": -8.28, "internal_energy": -1.19, "cluster_size": 17, "cluster_id": 1, "rank_in_cluster": 14}

>  <energy>  (63) 
-7.19

>  <cluster_rmsd>  (63) 
0.2

>  <rmsd>  (63) 
269.86

>  <cluster>  (63) 
1

$$$$
OEDLLKAXDUWBBK-SFHVURJKNA-N
     RDKit          3D

 47 50  0  0  0  0  0  0  0  0999 V2000
  140.0110   75.9120  220.2990 F   0  0  0  0  0  0  0  0  0  0  0  0
  141.2240   75.9230  220.9600 C   0  0  0  0  0  0  0  0  0  0  0  0
  141.0100   76.0490  222.3210 F   0  0  0  0  0  0  0  0  0  0  0  0
  141.9100   77.0460  220.5250 F   0  0  0  0  0  0  0  0  0  0  0  0
  142.0240   74.6600  220.6820 C   0  0  0  0  0  0  0  0  0  0  0  0
  143.4070   74.8020  220.4720 C   0  0  0  0  0  0  0  0  0  0  0  0
  144.2060   73.7030  220.1920 C   0  0  0  0  0  0  0  0  0  0  0  0
  143.6420   72.4420  220.0710 C   0  0  0  0  0  0  0  0  0  0  0  0
  142.2650   72.2420  220.2740 C   0  0  0  0  0  0  0  0  0  0  0  0
  141.6980   70.8510  220.0330 C   0  0  0  0  0  0  0  0  0  0  0  0
  141.0690   70.3520  221.1610 F   0  0  0  0  0  0  0  0  0  0  0  0
  140.7720   70.8880  219.0080 F   0  0  0  0  0  0  0  0  0  0  0  0
  142.7150   69.9710  219.7070 F   0  0  0  0  0  0  0  0  0  0  0  0
  141.4560   73.3430  220.7000 C   0  0  0  0  0  0  0  0  0  0  0  0
  140.0240   73.1120  221.1760 C   0  0  0  0  0  0  0  0  0  0  0  0
  139.9690   72.8850  222.6360 N   0  0  0  0  0  0  0  0  0  0  0  0
  139.0070   71.8590  223.0940 C   0  0  1  0  0  0  0  0  0  0  0  0
  138.5390   70.9240  221.9380 C   0  0  0  0  0  0  0  0  0  0  0  0
  137.8240   69.6620  222.4630 C   0  0  0  0  0  0  0  0  0  0  0  0
  138.7430   68.8270  223.3710 C   0  0  0  0  0  0  0  0  0  0  0  0
  139.3610   69.7100  224.4110 C   0  0  0  0  0  0  0  0  0  0  0  0
  139.5210   71.0780  224.2770 C   0  0  0  0  0  0  0  0  0  0  0  0
  140.0780   71.6100  225.3900 N   0  0  0  0  0  0  0  0  0  0  0  0
  140.3390   70.5630  226.1950 C   0  0  0  0  0  0  0  0  0  0  0  0
  140.9570   70.5920  227.4430 C   0  0  0  0  0  0  0  0  0  0  0  0
  141.1430   69.3680  228.1130 C   0  0  0  0  0  0  0  0  0  0  0  0
  140.7080   68.1580  227.5290 C   0  0  0  0  0  0  0  0  0  0  0  0
  140.0850   68.1560  226.2670 C   0  0  0  0  0  0  0  0  0  0  0  0
  139.9180   69.3830  225.6270 C   0  0  0  0  0  0  0  0  0  0  0  0
  143.8631   75.8013  220.5307 H   0  0  0  0  0  0  0  0  0  0  0  0
  145.2910   73.8324  220.0655 H   0  0  0  0  0  0  0  0  0  0  0  0
  144.2815   71.5852  219.8123 H   0  0  0  0  0  0  0  0  0  0  0  0
  139.4179   73.9960  220.9285 H   0  0  0  0  0  0  0  0  0  0  0  0
  139.6328   72.2159  220.6721 H   0  0  0  0  0  0  0  0  0  0  0  0
  139.7320   73.7900  223.1090 H   0  0  0  0  0  0  0  0  0  0  0  0
  138.1165   72.4056  223.4377 H   0  0  0  0  0  0  0  0  0  0  0  0
  137.8454   71.4808  221.2907 H   0  0  0  0  0  0  0  0  0  0  0  0
  139.4318   70.6002  221.3829 H   0  0  0  0  0  0  0  0  0  0  0  0
  136.9366   69.9672  223.0370 H   0  0  0  0  0  0  0  0  0  0  0  0
  137.5394   69.0433  221.5992 H   0  0  0  0  0  0  0  0  0  0  0  0
  138.1535   68.0394  223.8631 H   0  0  0  0  0  0  0  0  0  0  0  0
  139.5370   68.3683  222.7634 H   0  0  0  0  0  0  0  0  0  0  0  0
  140.2630   72.6180  225.5870 H   0  0  0  0  0  0  0  0  0  0  0  0
  141.2889   71.5405  227.8904 H   0  0  0  0  0  0  0  0  0  0  0  0
  141.6308   69.3539  229.0988 H   0  0  0  0  0  0  0  0  0  0  0  0
  140.8573   67.2091  228.0650 H   0  0  0  0  0  0  0  0  0  0  0  0
  139.7422   67.2197  225.8023 H   0  0  0  0  0  0  0  0  0  0  0  0
  1  2  1  0
  2  3  1  0
  2  4  1  0
  2  5  1  0
  5  6  2  0
  6  7  1  0
  7  8  2  0
  8  9  1  0
  9 10  1  0
 10 11  1  0
 10 12  1  0
 10 13  1  0
  9 14  2  0
 14 15  1  0
 15 16  1  0
 16 17  1  0
 17 18  1  0
 18 19  1  0
 19 20  1  0
 20 21  1  0
 21 22  2  0
 22 23  1  0
 23 24  1  0
 24 25  2  0
 25 26  1  0
 26 27  2  0
 27 28  1  0
 28 29  2  0
 14  5  1  0
 22 17  1  0
 29 24  1  0
 29 21  1  0
  6 30  1  0
  7 31  1  0
  8 32  1  0
 15 33  1  0
 15 34  1  0
 16 35  1  0
 17 36  1  1
 18 37  1  0
 18 38  1  0
 19 39  1  0
 19 40  1  0
 20 41  1  0
 20 42  1  0
 23 43  1  0
 25 44  1  0
 26 45  1  0
 27 46  1  0
 28 47  1  0
M  END
>  <UniqueID>  (64) 
32

>  <SMILES>  (64) 
FC(F)(F)c1cccc(C(F)(F)F)c1CN[C@H]1CCCc2c1[nH]c1ccccc21

>  <Energy>  (64) 
95.72876901229523

>  <Genealogy>  (64) 
FC(F)(F)c1cccc(C(F)(F)F)c1CN[C@H]1CCCc2c1[nH]c1ccccc21 (chirality)
FC(F)(F)c1cccc(C(F)(F)F)c1CN[C@H]1CCCc2c1[nH]c1ccccc21 (3D coordinates assigned)
FC(F)(F)c1cccc(C(F)(F)F)c1CN[C@H]1CCCc2c1[nH]c1ccccc21 (nonaromatic ring conformer: 95.72876901229523 kcal/mol)

>  <smiles>  (64) 
FC(F)(F)c1cccc(C(F)(F)F)c1CNC1CCCc2c1[nH]c1ccccc21

>  <score_type>  (64) 
oracle

>  <origin>  (64) 
autodockgpu

>  <m_score__min__energy>  (64) 
-7.21

>  <m_primary>  (64) 
energy

>  <meeko>  (64) 
{"free_energy": -6.86, "intermolecular_energy": -8.35, "internal_energy": -1.17, "cluster_size": 17, "cluster_id": 1, "rank_in_cluster": 11}

>  <energy>  (64) 
-7.18

>  <cluster_rmsd>  (64) 
0.27

>  <rmsd>  (64) 
269.84

>  <cluster>  (64) 
1

$$$$
OEDLLKAXDUWBBK-SFHVURJKNA-N
     RDKit          3D

 47 50  0  0  0  0  0  0  0  0999 V2000
  141.7100   70.9280  219.7320 F   0  0  0  0  0  0  0  0  0  0  0  0
  142.3670   71.5850  220.7540 C   0  0  0  0  0  0  0  0  0  0  0  0
  143.6600   71.1050  220.8600 F   0  0  0  0  0  0  0  0  0  0  0  0
  141.6950   71.2800  221.9270 F   0  0  0  0  0  0  0  0  0  0  0  0
  142.3960   73.0880  220.5230 C   0  0  0  0  0  0  0  0  0  0  0  0
  143.5640   73.6330  219.9590 C   0  0  0  0  0  0  0  0  0  0  0  0
  143.6820   74.9970  219.7350 C   0  0  0  0  0  0  0  0  0  0  0  0
  142.6590   75.8580  220.1050 C   0  0  0  0  0  0  0  0  0  0  0  0
  141.4690   75.3670  220.6710 C   0  0  0  0  0  0  0  0  0  0  0  0
  140.4280   76.3720  221.1420 C   0  0  0  0  0  0  0  0  0  0  0  0
  139.2740   76.3080  220.3790 F   0  0  0  0  0  0  0  0  0  0  0  0
  140.0870   76.1200  222.4560 F   0  0  0  0  0  0  0  0  0  0  0  0
  140.9240   77.6590  221.0300 F   0  0  0  0  0  0  0  0  0  0  0  0
  141.2800   73.9510  220.7780 C   0  0  0  0  0  0  0  0  0  0  0  0
  139.9120   73.3790  221.1420 C   0  0  0  0  0  0  0  0  0  0  0  0
  139.8330   73.0400  222.5790 N   0  0  0  0  0  0  0  0  0  0  0  0
  138.9370   71.9160  222.9280 C   0  0  1  0  0  0  0  0  0  0  0  0
  138.5860   71.0290  221.6950 C   0  0  0  0  0  0  0  0  0  0  0  0
  137.9510   69.6840  222.1050 C   0  0  0  0  0  0  0  0  0  0  0  0
  138.8990   68.8600  222.9950 C   0  0  0  0  0  0  0  0  0  0  0  0
  139.4080   69.7150  224.1150 C   0  0  0  0  0  0  0  0  0  0  0  0
  139.4660   71.0960  224.0780 C   0  0  0  0  0  0  0  0  0  0  0  0
  139.9380   71.5910  225.2450 N   0  0  0  0  0  0  0  0  0  0  0  0
  140.2500   70.5140  225.9900 C   0  0  0  0  0  0  0  0  0  0  0  0
  140.8170   70.5040  227.2620 C   0  0  0  0  0  0  0  0  0  0  0  0
  141.0720   69.2550  227.8590 C   0  0  0  0  0  0  0  0  0  0  0  0
  140.7550   68.0580  227.1790 C   0  0  0  0  0  0  0  0  0  0  0  0
  140.1810   68.0960  225.8950 C   0  0  0  0  0  0  0  0  0  0  0  0
  139.9430   69.3480  225.3300 C   0  0  0  0  0  0  0  0  0  0  0  0
  144.3973   72.9667  219.6913 H   0  0  0  0  0  0  0  0  0  0  0  0
  144.5907   75.3976  219.2619 H   0  0  0  0  0  0  0  0  0  0  0  0
  142.7805   76.9407  219.9534 H   0  0  0  0  0  0  0  0  0  0  0  0
  139.1384   74.1250  220.9074 H   0  0  0  0  0  0  0  0  0  0  0  0
  139.7563   72.4584  220.5605 H   0  0  0  0  0  0  0  0  0  0  0  0
  139.5160   73.8870  223.1070 H   0  0  0  0  0  0  0  0  0  0  0  0
  137.9949   72.3704  223.2686 H   0  0  0  0  0  0  0  0  0  0  0  0
  137.8764   71.5754  221.0563 H   0  0  0  0  0  0  0  0  0  0  0  0
  139.5216   70.8108  221.1593 H   0  0  0  0  0  0  0  0  0  0  0  0
  137.0219   69.8818  222.6597 H   0  0  0  0  0  0  0  0  0  0  0  0
  137.7465   69.1064  221.1914 H   0  0  0  0  0  0  0  0  0  0  0  0
  138.3549   67.9988  223.4102 H   0  0  0  0  0  0  0  0  0  0  0  0
  139.7479   68.5042  222.3927 H   0  0  0  0  0  0  0  0  0  0  0  0
  140.0370   72.5940  225.5150 H   0  0  0  0  0  0  0  0  0  0  0  0
  141.0579   71.4421  227.7835 H   0  0  0  0  0  0  0  0  0  0  0  0
  141.5213   69.2107  228.8621 H   0  0  0  0  0  0  0  0  0  0  0  0
  140.9586   67.0885  227.6572 H   0  0  0  0  0  0  0  0  0  0  0  0
  139.9290   67.1707  225.3562 H   0  0  0  0  0  0  0  0  0  0  0  0
  1  2  1  0
  2  3  1  0
  2  4  1  0
  2  5  1  0
  5  6  2  0
  6  7  1  0
  7  8  2  0
  8  9  1  0
  9 10  1  0
 10 11  1  0
 10 12  1  0
 10 13  1  0
  9 14  2  0
 14 15  1  0
 15 16  1  0
 16 17  1  0
 17 18  1  0
 18 19  1  0
 19 20  1  0
 20 21  1  0
 21 22  2  0
 22 23  1  0
 23 24  1  0
 24 25  2  0
 25 26  1  0
 26 27  2  0
 27 28  1  0
 28 29  2  0
 14  5  1  0
 22 17  1  0
 29 24  1  0
 29 21  1  0
  6 30  1  0
  7 31  1  0
  8 32  1  0
 15 33  1  0
 15 34  1  0
 16 35  1  0
 17 36  1  1
 18 37  1  0
 18 38  1  0
 19 39  1  0
 19 40  1  0
 20 41  1  0
 20 42  1  0
 23 43  1  0
 25 44  1  0
 26 45  1  0
 27 46  1  0
 28 47  1  0
M  END
>  <UniqueID>  (65) 
32

>  <SMILES>  (65) 
FC(F)(F)c1cccc(C(F)(F)F)c1CN[C@H]1CCCc2c1[nH]c1ccccc21

>  <Energy>  (65) 
95.72876901229523

>  <Genealogy>  (65) 
FC(F)(F)c1cccc(C(F)(F)F)c1CN[C@H]1CCCc2c1[nH]c1ccccc21 (chirality)
FC(F)(F)c1cccc(C(F)(F)F)c1CN[C@H]1CCCc2c1[nH]c1ccccc21 (3D coordinates assigned)
FC(F)(F)c1cccc(C(F)(F)F)c1CN[C@H]1CCCc2c1[nH]c1ccccc21 (nonaromatic ring conformer: 95.72876901229523 kcal/mol)

>  <smiles>  (65) 
FC(F)(F)c1cccc(C(F)(F)F)c1CNC1CCCc2c1[nH]c1ccccc21

>  <score_type>  (65) 
oracle

>  <origin>  (65) 
autodockgpu

>  <m_score__min__energy>  (65) 
-7.21

>  <m_primary>  (65) 
energy

>  <meeko>  (65) 
{"free_energy": -6.72, "intermolecular_energy": -8.21, "internal_energy": -1.19, "cluster_size": 17, "cluster_id": 1, "rank_in_cluster": 15}

>  <energy>  (65) 
-7.15

>  <cluster_rmsd>  (65) 
0.33

>  <rmsd>  (65) 
269.82

>  <cluster>  (65) 
1

$$$$
OEDLLKAXDUWBBK-SFHVURJKNA-N
     RDKit          3D

 47 50  0  0  0  0  0  0  0  0999 V2000
  144.3550   72.0250  220.7120 F   0  0  0  0  0  0  0  0  0  0  0  0
  142.9880   72.1510  220.5580 C   0  0  0  0  0  0  0  0  0  0  0  0
  142.3430   71.5510  221.6250 F   0  0  0  0  0  0  0  0  0  0  0  0
  142.6470   71.4630  219.4050 F   0  0  0  0  0  0  0  0  0  0  0  0
  142.5690   73.6100  220.4620 C   0  0  0  0  0  0  0  0  0  0  0  0
  143.4990   74.5150  219.9190 C   0  0  0  0  0  0  0  0  0  0  0  0
  143.2060   75.8670  219.8150 C   0  0  0  0  0  0  0  0  0  0  0  0
  141.9970   76.3590  220.2860 C   0  0  0  0  0  0  0  0  0  0  0  0
  141.0300   75.4980  220.8350 C   0  0  0  0  0  0  0  0  0  0  0  0
  139.7680   76.1140  221.4200 C   0  0  0  0  0  0  0  0  0  0  0  0
  139.8470   77.4960  221.4650 F   0  0  0  0  0  0  0  0  0  0  0  0
  138.6740   75.7720  220.6500 F   0  0  0  0  0  0  0  0  0  0  0  0
  139.5790   75.6720  222.7180 F   0  0  0  0  0  0  0  0  0  0  0  0
  141.2650   74.0860  220.8200 C   0  0  0  0  0  0  0  0  0  0  0  0
  140.1420   73.1110  221.1650 C   0  0  0  0  0  0  0  0  0  0  0  0
  140.0650   72.8680  222.6220 N   0  0  0  0  0  0  0  0  0  0  0  0
  139.0940   71.8390  223.0540 C   0  0  1  0  0  0  0  0  0  0  0  0
  138.6690   70.8950  221.8890 C   0  0  0  0  0  0  0  0  0  0  0  0
  137.9440   69.6310  222.3970 C   0  0  0  0  0  0  0  0  0  0  0  0
  138.8390   68.8060  223.3400 C   0  0  0  0  0  0  0  0  0  0  0  0
  139.4180   69.6990  224.3930 C   0  0  0  0  0  0  0  0  0  0  0  0
  139.5740   71.0670  224.2570 C   0  0  0  0  0  0  0  0  0  0  0  0
  140.0920   71.6080  225.3840 N   0  0  0  0  0  0  0  0  0  0  0  0
  140.3330   70.5660  226.2030 C   0  0  0  0  0  0  0  0  0  0  0  0
  140.9100   70.6060  227.4700 C   0  0  0  0  0  0  0  0  0  0  0  0
  141.0820   69.3870  228.1530 C   0  0  0  0  0  0  0  0  0  0  0  0
  140.6730   68.1710  227.5610 C   0  0  0  0  0  0  0  0  0  0  0  0
  140.0900   68.1590  226.2810 C   0  0  0  0  0  0  0  0  0  0  0  0
  139.9370   69.3810  225.6280 C   0  0  0  0  0  0  0  0  0  0  0  0
  144.4746   74.1446  219.5711 H   0  0  0  0  0  0  0  0  0  0  0  0
  143.9350   76.5518  219.3573 H   0  0  0  0  0  0  0  0  0  0  0  0
  141.7920   77.4382  220.2291 H   0  0  0  0  0  0  0  0  0  0  0  0
  139.1853   73.5314  220.8215 H   0  0  0  0  0  0  0  0  0  0  0  0
  140.3502   72.1533  220.6654 H   0  0  0  0  0  0  0  0  0  0  0  0
  139.8230   73.7680  223.1010 H   0  0  0  0  0  0  0  0  0  0  0  0
  138.1898   72.3826  223.3653 H   0  0  0  0  0  0  0  0  0  0  0  0
  137.9938   71.4443  221.2165 H   0  0  0  0  0  0  0  0  0  0  0  0
  139.5814   70.5732  221.3655 H   0  0  0  0  0  0  0  0  0  0  0  0
  137.0365   69.9337  222.9399 H   0  0  0  0  0  0  0  0  0  0  0  0
  137.6911   69.0061  221.5278 H   0  0  0  0  0  0  0  0  0  0  0  0
  138.2385   68.0180  223.8181 H   0  0  0  0  0  0  0  0  0  0  0  0
  139.6545   68.3479  222.7612 H   0  0  0  0  0  0  0  0  0  0  0  0
  140.2650   72.6180  225.5820 H   0  0  0  0  0  0  0  0  0  0  0  0
  141.2212   71.5592  227.9224 H   0  0  0  0  0  0  0  0  0  0  0  0
  141.5378   69.3812  229.1541 H   0  0  0  0  0  0  0  0  0  0  0  0
  140.8117   67.2255  228.1058 H   0  0  0  0  0  0  0  0  0  0  0  0
  139.7662   67.2183  225.8117 H   0  0  0  0  0  0  0  0  0  0  0  0
  1  2  1  0
  2  3  1  0
  2  4  1  0
  2  5  1  0
  5  6  2  0
  6  7  1  0
  7  8  2  0
  8  9  1  0
  9 10  1  0
 10 11  1  0
 10 12  1  0
 10 13  1  0
  9 14  2  0
 14 15  1  0
 15 16  1  0
 16 17  1  0
 17 18  1  0
 18 19  1  0
 19 20  1  0
 20 21  1  0
 21 22  2  0
 22 23  1  0
 23 24  1  0
 24 25  2  0
 25 26  1  0
 26 27  2  0
 27 28  1  0
 28 29  2  0
 14  5  1  0
 22 17  1  0
 29 24  1  0
 29 21  1  0
  6 30  1  0
  7 31  1  0
  8 32  1  0
 15 33  1  0
 15 34  1  0
 16 35  1  0
 17 36  1  1
 18 37  1  0
 18 38  1  0
 19 39  1  0
 19 40  1  0
 20 41  1  0
 20 42  1  0
 23 43  1  0
 25 44  1  0
 26 45  1  0
 27 46  1  0
 28 47  1  0
M  END
>  <UniqueID>  (66) 
32

>  <SMILES>  (66) 
FC(F)(F)c1cccc(C(F)(F)F)c1CN[C@H]1CCCc2c1[nH]c1ccccc21

>  <Energy>  (66) 
95.72876901229523

>  <Genealogy>  (66) 
FC(F)(F)c1cccc(C(F)(F)F)c1CN[C@H]1CCCc2c1[nH]c1ccccc21 (chirality)
FC(F)(F)c1cccc(C(F)(F)F)c1CN[C@H]1CCCc2c1[nH]c1ccccc21 (3D coordinates assigned)
FC(F)(F)c1cccc(C(F)(F)F)c1CN[C@H]1CCCc2c1[nH]c1ccccc21 (nonaromatic ring conformer: 95.72876901229523 kcal/mol)

>  <smiles>  (66) 
FC(F)(F)c1cccc(C(F)(F)F)c1CNC1CCCc2c1[nH]c1ccccc21

>  <score_type>  (66) 
oracle

>  <origin>  (66) 
autodockgpu

>  <m_score__min__energy>  (66) 
-7.21

>  <m_primary>  (66) 
energy

>  <meeko>  (66) 
{"free_energy": -7.13, "intermolecular_energy": -8.62, "internal_energy": -1.0, "cluster_size": 17, "cluster_id": 1, "rank_in_cluster": 6}

>  <energy>  (66) 
-7.13

>  <cluster_rmsd>  (66) 
0.41

>  <rmsd>  (66) 
269.78

>  <cluster>  (66) 
1

$$$$
OEDLLKAXDUWBBK-SFHVURJKNA-N
     RDKit          3D

 47 50  0  0  0  0  0  0  0  0999 V2000
  137.1500   76.8620  222.1610 F   0  0  0  0  0  0  0  0  0  0  0  0
  138.5000   77.1020  221.9930 C   0  0  0  0  0  0  0  0  0  0  0  0
  138.8000   77.1400  220.6430 F   0  0  0  0  0  0  0  0  0  0  0  0
  139.1730   76.0300  222.5560 F   0  0  0  0  0  0  0  0  0  0  0  0
  138.9200   78.4090  222.6480 C   0  0  0  0  0  0  0  0  0  0  0  0
  137.9080   79.2010  223.2180 C   0  0  0  0  0  0  0  0  0  0  0  0
  138.2020   80.4190  223.8160 C   0  0  0  0  0  0  0  0  0  0  0  0
  139.5040   80.8970  223.8240 C   0  0  0  0  0  0  0  0  0  0  0  0
  140.5550   80.1440  223.2700 C   0  0  0  0  0  0  0  0  0  0  0  0
  141.9420   80.7690  223.2260 C   0  0  0  0  0  0  0  0  0  0  0  0
  142.2950   81.1420  221.9410 F   0  0  0  0  0  0  0  0  0  0  0  0
  141.9790   81.8950  224.0250 F   0  0  0  0  0  0  0  0  0  0  0  0
  142.8890   79.8590  223.6640 F   0  0  0  0  0  0  0  0  0  0  0  0
  140.2850   78.8280  222.7770 C   0  0  0  0  0  0  0  0  0  0  0  0
  141.4320   77.8890  222.4100 C   0  0  0  0  0  0  0  0  0  0  0  0
  142.1780   78.3800  221.2310 N   0  0  0  0  0  0  0  0  0  0  0  0
  141.8840   77.6990  219.9520 C   0  0  1  0  0  0  0  0  0  0  0  0
  142.1470   78.6130  218.7160 C   0  0  0  0  0  0  0  0  0  0  0  0
  142.1780   77.8150  217.3960 C   0  0  0  0  0  0  0  0  0  0  0  0
  143.2860   76.7470  217.4070 C   0  0  0  0  0  0  0  0  0  0  0  0
  143.1900   75.9360  218.6620 C   0  0  0  0  0  0  0  0  0  0  0  0
  142.5930   76.3730  219.8310 C   0  0  0  0  0  0  0  0  0  0  0  0
  142.6290   75.4110  220.7820 N   0  0  0  0  0  0  0  0  0  0  0  0
  143.3190   74.3930  220.2340 C   0  0  0  0  0  0  0  0  0  0  0  0
  143.6650   73.1870  220.8380 C   0  0  0  0  0  0  0  0  0  0  0  0
  144.4050   72.2600  220.0810 C   0  0  0  0  0  0  0  0  0  0  0  0
  144.7760   72.5550  218.7500 C   0  0  0  0  0  0  0  0  0  0  0  0
  144.4130   73.7810  218.1630 C   0  0  0  0  0  0  0  0  0  0  0  0
  143.6830   74.6800  218.9390 C   0  0  0  0  0  0  0  0  0  0  0  0
  136.8659   78.8499  223.1898 H   0  0  0  0  0  0  0  0  0  0  0  0
  137.3994   81.0071  224.2851 H   0  0  0  0  0  0  0  0  0  0  0  0
  139.7178   81.8795  224.2702 H   0  0  0  0  0  0  0  0  0  0  0  0
  142.1213   77.8158  223.2641 H   0  0  0  0  0  0  0  0  0  0  0  0
  141.0072   76.9045  222.1644 H   0  0  0  0  0  0  0  0  0  0  0  0
  143.2040   78.2910  221.4210 H   0  0  0  0  0  0  0  0  0  0  0  0
  140.8054   77.4831  219.9619 H   0  0  0  0  0  0  0  0  0  0  0  0
  141.3473   79.3659  218.6559 H   0  0  0  0  0  0  0  0  0  0  0  0
  143.1321   79.0842  218.8485 H   0  0  0  0  0  0  0  0  0  0  0  0
  141.2059   77.3198  217.2551 H   0  0  0  0  0  0  0  0  0  0  0  0
  142.3837   78.5165  216.5740 H   0  0  0  0  0  0  0  0  0  0  0  0
  143.1671   76.0873  216.5349 H   0  0  0  0  0  0  0  0  0  0  0  0
  144.2685   77.2398  217.3649 H   0  0  0  0  0  0  0  0  0  0  0  0
  142.2100   75.4460  221.7360 H   0  0  0  0  0  0  0  0  0  0  0  0
  143.3692   72.9660  221.8742 H   0  0  0  0  0  0  0  0  0  0  0  0
  144.6968   71.2986  220.5288 H   0  0  0  0  0  0  0  0  0  0  0  0
  145.3529   71.8208  218.1685 H   0  0  0  0  0  0  0  0  0  0  0  0
  144.6954   74.0218  217.1275 H   0  0  0  0  0  0  0  0  0  0  0  0
  1  2  1  0
  2  3  1  0
  2  4  1  0
  2  5  1  0
  5  6  2  0
  6  7  1  0
  7  8  2  0
  8  9  1  0
  9 10  1  0
 10 11  1  0
 10 12  1  0
 10 13  1  0
  9 14  2  0
 14 15  1  0
 15 16  1  0
 16 17  1  0
 17 18  1  0
 18 19  1  0
 19 20  1  0
 20 21  1  0
 21 22  2  0
 22 23  1  0
 23 24  1  0
 24 25  2  0
 25 26  1  0
 26 27  2  0
 27 28  1  0
 28 29  2  0
 14  5  1  0
 22 17  1  0
 29 24  1  0
 29 21  1  0
  6 30  1  0
  7 31  1  0
  8 32  1  0
 15 33  1  0
 15 34  1  0
 16 35  1  0
 17 36  1  1
 18 37  1  0
 18 38  1  0
 19 39  1  0
 19 40  1  0
 20 41  1  0
 20 42  1  0
 23 43  1  0
 25 44  1  0
 26 45  1  0
 27 46  1  0
 28 47  1  0
M  END
>  <UniqueID>  (67) 
32

>  <SMILES>  (67) 
FC(F)(F)c1cccc(C(F)(F)F)c1CN[C@H]1CCCc2c1[nH]c1ccccc21

>  <Energy>  (67) 
95.72876901229523

>  <Genealogy>  (67) 
FC(F)(F)c1cccc(C(F)(F)F)c1CN[C@H]1CCCc2c1[nH]c1ccccc21 (chirality)
FC(F)(F)c1cccc(C(F)(F)F)c1CN[C@H]1CCCc2c1[nH]c1ccccc21 (3D coordinates assigned)
FC(F)(F)c1cccc(C(F)(F)F)c1CN[C@H]1CCCc2c1[nH]c1ccccc21 (nonaromatic ring conformer: 95.72876901229523 kcal/mol)

>  <smiles>  (67) 
FC(F)(F)c1cccc(C(F)(F)F)c1CNC1CCCc2c1[nH]c1ccccc21

>  <score_type>  (67) 
oracle

>  <origin>  (67) 
autodockgpu

>  <m_score__min__energy>  (67) 
-7.21

>  <m_primary>  (67) 
energy

>  <meeko>  (67) 
{"free_energy": -6.46, "intermolecular_energy": -7.95, "internal_energy": -1.16, "cluster_size": 3, "cluster_id": 2, "rank_in_cluster": 3}

>  <energy>  (67) 
-7.13

>  <cluster_rmsd>  (67) 
0.34

>  <rmsd>  (67) 
269.82

>  <cluster>  (67) 
1

$$$$
OEDLLKAXDUWBBK-SFHVURJKNA-N
     RDKit          3D

 47 50  0  0  0  0  0  0  0  0999 V2000
  137.0110   77.0610  222.1690 F   0  0  0  0  0  0  0  0  0  0  0  0
  138.3830   77.1680  222.0540 C   0  0  0  0  0  0  0  0  0  0  0  0
  138.7410   77.1410  220.7180 F   0  0  0  0  0  0  0  0  0  0  0  0
  138.9280   76.0540  222.6700 F   0  0  0  0  0  0  0  0  0  0  0  0
  138.8980   78.4480  222.6960 C   0  0  0  0  0  0  0  0  0  0  0  0
  137.9550   79.2820  223.3220 C   0  0  0  0  0  0  0  0  0  0  0  0
  138.3370   80.4780  223.9140 C   0  0  0  0  0  0  0  0  0  0  0  0
  139.6600   80.8930  223.8580 C   0  0  0  0  0  0  0  0  0  0  0  0
  140.6440   80.0970  223.2470 C   0  0  0  0  0  0  0  0  0  0  0  0
  142.0550   80.6560  223.1370 C   0  0  0  0  0  0  0  0  0  0  0  0
  143.0070   79.7150  223.4920 F   0  0  0  0  0  0  0  0  0  0  0  0
  142.3080   81.0530  221.8390 F   0  0  0  0  0  0  0  0  0  0  0  0
  142.2080   81.7350  223.9900 F   0  0  0  0  0  0  0  0  0  0  0  0
  140.2870   78.8000  222.7580 C   0  0  0  0  0  0  0  0  0  0  0  0
  141.3670   77.8110  222.3270 C   0  0  0  0  0  0  0  0  0  0  0  0
  142.1150   78.3060  221.1510 N   0  0  0  0  0  0  0  0  0  0  0  0
  141.8570   77.5980  219.8780 C   0  0  1  0  0  0  0  0  0  0  0  0
  142.1050   78.5040  218.6330 C   0  0  0  0  0  0  0  0  0  0  0  0
  142.1760   77.6900  217.3250 C   0  0  0  0  0  0  0  0  0  0  0  0
  143.3160   76.6570  217.3620 C   0  0  0  0  0  0  0  0  0  0  0  0
  143.2330   75.8600  218.6270 C   0  0  0  0  0  0  0  0  0  0  0  0
  142.6090   76.2940  219.7830 C   0  0  0  0  0  0  0  0  0  0  0  0
  142.6650   75.3470  220.7470 N   0  0  0  0  0  0  0  0  0  0  0  0
  143.3920   74.3440  220.2210 C   0  0  0  0  0  0  0  0  0  0  0  0
  143.7690   73.1570  220.8460 C   0  0  0  0  0  0  0  0  0  0  0  0
  144.5460   72.2440  220.1090 C   0  0  0  0  0  0  0  0  0  0  0  0
  144.9220   72.5330  218.7790 C   0  0  0  0  0  0  0  0  0  0  0  0
  144.5280   73.7390  218.1700 C   0  0  0  0  0  0  0  0  0  0  0  0
  143.7610   74.6240  218.9260 C   0  0  0  0  0  0  0  0  0  0  0  0
  136.8970   78.9818  223.3430 H   0  0  0  0  0  0  0  0  0  0  0  0
  137.5889   81.0986  224.4290 H   0  0  0  0  0  0  0  0  0  0  0  0
  139.9430   81.8603  224.2988 H   0  0  0  0  0  0  0  0  0  0  0  0
  142.0690   77.6621  223.1607 H   0  0  0  0  0  0  0  0  0  0  0  0
  140.8792   76.8639  222.0530 H   0  0  0  0  0  0  0  0  0  0  0  0
  143.1410   78.2470  221.3560 H   0  0  0  0  0  0  0  0  0  0  0  0
  140.7860   77.3470  219.8790 H   0  0  0  0  0  0  0  0  0  0  0  0
  141.2827   79.2304  218.5540 H   0  0  0  0  0  0  0  0  0  0  0  0
  143.0729   79.0084  218.7698 H   0  0  0  0  0  0  0  0  0  0  0  0
  141.2213   77.1631  217.1802 H   0  0  0  0  0  0  0  0  0  0  0  0
  142.3698   78.3868  216.4962 H   0  0  0  0  0  0  0  0  0  0  0  0
  143.2263   75.9822  216.4980 H   0  0  0  0  0  0  0  0  0  0  0  0
  144.2831   77.1797  217.3232 H   0  0  0  0  0  0  0  0  0  0  0  0
  142.2330   75.3810  221.6970 H   0  0  0  0  0  0  0  0  0  0  0  0
  143.4690   72.9406  221.8819 H   0  0  0  0  0  0  0  0  0  0  0  0
  144.8628   71.2981  220.5725 H   0  0  0  0  0  0  0  0  0  0  0  0
  145.5280   71.8094  218.2141 H   0  0  0  0  0  0  0  0  0  0  0  0
  144.8150   73.9748  217.1346 H   0  0  0  0  0  0  0  0  0  0  0  0
  1  2  1  0
  2  3  1  0
  2  4  1  0
  2  5  1  0
  5  6  2  0
  6  7  1  0
  7  8  2  0
  8  9  1  0
  9 10  1  0
 10 11  1  0
 10 12  1  0
 10 13  1  0
  9 14  2  0
 14 15  1  0
 15 16  1  0
 16 17  1  0
 17 18  1  0
 18 19  1  0
 19 20  1  0
 20 21  1  0
 21 22  2  0
 22 23  1  0
 23 24  1  0
 24 25  2  0
 25 26  1  0
 26 27  2  0
 27 28  1  0
 28 29  2  0
 14  5  1  0
 22 17  1  0
 29 24  1  0
 29 21  1  0
  6 30  1  0
  7 31  1  0
  8 32  1  0
 15 33  1  0
 15 34  1  0
 16 35  1  0
 17 36  1  1
 18 37  1  0
 18 38  1  0
 19 39  1  0
 19 40  1  0
 20 41  1  0
 20 42  1  0
 23 43  1  0
 25 44  1  0
 26 45  1  0
 27 46  1  0
 28 47  1  0
M  END
>  <UniqueID>  (68) 
32

>  <SMILES>  (68) 
FC(F)(F)c1cccc(C(F)(F)F)c1CN[C@H]1CCCc2c1[nH]c1ccccc21

>  <Energy>  (68) 
95.72876901229523

>  <Genealogy>  (68) 
FC(F)(F)c1cccc(C(F)(F)F)c1CN[C@H]1CCCc2c1[nH]c1ccccc21 (chirality)
FC(F)(F)c1cccc(C(F)(F)F)c1CN[C@H]1CCCc2c1[nH]c1ccccc21 (3D coordinates assigned)
FC(F)(F)c1cccc(C(F)(F)F)c1CN[C@H]1CCCc2c1[nH]c1ccccc21 (nonaromatic ring conformer: 95.72876901229523 kcal/mol)

>  <smiles>  (68) 
FC(F)(F)c1cccc(C(F)(F)F)c1CNC1CCCc2c1[nH]c1ccccc21

>  <score_type>  (68) 
oracle

>  <origin>  (68) 
autodockgpu

>  <m_score__min__energy>  (68) 
-7.21

>  <m_primary>  (68) 
energy

>  <meeko>  (68) 
{"free_energy": -6.52, "intermolecular_energy": -8.01, "internal_energy": -1.11, "cluster_size": 3, "cluster_id": 2, "rank_in_cluster": 1}

>  <energy>  (68) 
-7.04

>  <cluster_rmsd>  (68) 
1.68

>  <rmsd>  (68) 
269.8

>  <cluster>  (68) 
1

$$$$
OEDLLKAXDUWBBK-SFHVURJKNA-N
     RDKit          3D

 47 50  0  0  0  0  0  0  0  0999 V2000
  144.7060   72.5860  220.8780 F   0  0  0  0  0  0  0  0  0  0  0  0
  143.3560   72.4810  220.5990 C   0  0  0  0  0  0  0  0  0  0  0  0
  142.7400   71.7140  221.5710 F   0  0  0  0  0  0  0  0  0  0  0  0
  143.2450   71.8160  219.3890 F   0  0  0  0  0  0  0  0  0  0  0  0
  142.6930   73.8480  220.5280 C   0  0  0  0  0  0  0  0  0  0  0  0
  143.4480   74.9050  219.9890 C   0  0  0  0  0  0  0  0  0  0  0  0
  142.9260   76.1890  219.9070 C   0  0  0  0  0  0  0  0  0  0  0  0
  141.6580   76.4600  220.3990 C   0  0  0  0  0  0  0  0  0  0  0  0
  140.8590   75.4400  220.9460 C   0  0  0  0  0  0  0  0  0  0  0  0
  139.5180   75.8240  221.5530 C   0  0  0  0  0  0  0  0  0  0  0  0
  138.4940   75.0210  221.0800 F   0  0  0  0  0  0  0  0  0  0  0  0
  139.5650   75.6920  222.9270 F   0  0  0  0  0  0  0  0  0  0  0  0
  139.2020   77.1300  221.2230 F   0  0  0  0  0  0  0  0  0  0  0  0
  141.3320   74.0890  220.9070 C   0  0  0  0  0  0  0  0  0  0  0  0
  140.3960   72.9320  221.2510 C   0  0  0  0  0  0  0  0  0  0  0  0
  140.1750   72.8300  222.7090 N   0  0  0  0  0  0  0  0  0  0  0  0
  139.1850   71.8200  223.1420 C   0  0  1  0  0  0  0  0  0  0  0  0
  138.7610   70.8660  221.9840 C   0  0  0  0  0  0  0  0  0  0  0  0
  138.0110   69.6200  222.4990 C   0  0  0  0  0  0  0  0  0  0  0  0
  138.8820   68.7960  223.4640 C   0  0  0  0  0  0  0  0  0  0  0  0
  139.4600   69.6940  224.5130 C   0  0  0  0  0  0  0  0  0  0  0  0
  139.6380   71.0570  224.3610 C   0  0  0  0  0  0  0  0  0  0  0  0
  140.1490   71.6060  225.4880 N   0  0  0  0  0  0  0  0  0  0  0  0
  140.3640   70.5720  226.3230 C   0  0  0  0  0  0  0  0  0  0  0  0
  140.9250   70.6200  227.5970 C   0  0  0  0  0  0  0  0  0  0  0  0
  141.0700   69.4080  228.2980 C   0  0  0  0  0  0  0  0  0  0  0  0
  140.6520   68.1900  227.7180 C   0  0  0  0  0  0  0  0  0  0  0  0
  140.0860   68.1700  226.4290 C   0  0  0  0  0  0  0  0  0  0  0  0
  139.9590   69.3850  225.7590 C   0  0  0  0  0  0  0  0  0  0  0  0
  144.4684   74.7114  219.6266 H   0  0  0  0  0  0  0  0  0  0  0  0
  143.5203   76.9941  219.4502 H   0  0  0  0  0  0  0  0  0  0  0  0
  141.2711   77.4890  220.3608 H   0  0  0  0  0  0  0  0  0  0  0  0
  139.4286   73.0945  220.7532 H   0  0  0  0  0  0  0  0  0  0  0  0
  140.8613   71.9969  220.9059 H   0  0  0  0  0  0  0  0  0  0  0  0
  139.8690   73.7640  223.0700 H   0  0  0  0  0  0  0  0  0  0  0  0
  138.2852   72.3810  223.4347 H   0  0  0  0  0  0  0  0  0  0  0  0
  138.1028   71.4159  221.2953 H   0  0  0  0  0  0  0  0  0  0  0  0
  139.6753   70.5237  221.4772 H   0  0  0  0  0  0  0  0  0  0  0  0
  137.1011   69.9430  223.0260 H   0  0  0  0  0  0  0  0  0  0  0  0
  137.7595   68.9871  221.6352 H   0  0  0  0  0  0  0  0  0  0  0  0
  138.2645   68.0227  223.9443 H   0  0  0  0  0  0  0  0  0  0  0  0
  139.6986   68.3197  222.9016 H   0  0  0  0  0  0  0  0  0  0  0  0
  140.3340   72.6160  225.6740 H   0  0  0  0  0  0  0  0  0  0  0  0
  141.2445   71.5744  228.0410 H   0  0  0  0  0  0  0  0  0  0  0  0
  141.5123   69.4095  229.3052 H   0  0  0  0  0  0  0  0  0  0  0  0
  140.7695   67.2502  228.2774 H   0  0  0  0  0  0  0  0  0  0  0  0
  139.7556   67.2280  225.9670 H   0  0  0  0  0  0  0  0  0  0  0  0
  1  2  1  0
  2  3  1  0
  2  4  1  0
  2  5  1  0
  5  6  2  0
  6  7  1  0
  7  8  2  0
  8  9  1  0
  9 10  1  0
 10 11  1  0
 10 12  1  0
 10 13  1  0
  9 14  2  0
 14 15  1  0
 15 16  1  0
 16 17  1  0
 17 18  1  0
 18 19  1  0
 19 20  1  0
 20 21  1  0
 21 22  2  0
 22 23  1  0
 23 24  1  0
 24 25  2  0
 25 26  1  0
 26 27  2  0
 27 28  1  0
 28 29  2  0
 14  5  1  0
 22 17  1  0
 29 24  1  0
 29 21  1  0
  6 30  1  0
  7 31  1  0
  8 32  1  0
 15 33  1  0
 15 34  1  0
 16 35  1  0
 17 36  1  1
 18 37  1  0
 18 38  1  0
 19 39  1  0
 19 40  1  0
 20 41  1  0
 20 42  1  0
 23 43  1  0
 25 44  1  0
 26 45  1  0
 27 46  1  0
 28 47  1  0
M  END
>  <UniqueID>  (69) 
32

>  <SMILES>  (69) 
FC(F)(F)c1cccc(C(F)(F)F)c1CN[C@H]1CCCc2c1[nH]c1ccccc21

>  <Energy>  (69) 
95.72876901229523

>  <Genealogy>  (69) 
FC(F)(F)c1cccc(C(F)(F)F)c1CN[C@H]1CCCc2c1[nH]c1ccccc21 (chirality)
FC(F)(F)c1cccc(C(F)(F)F)c1CN[C@H]1CCCc2c1[nH]c1ccccc21 (3D coordinates assigned)
FC(F)(F)c1cccc(C(F)(F)F)c1CN[C@H]1CCCc2c1[nH]c1ccccc21 (nonaromatic ring conformer: 95.72876901229523 kcal/mol)

>  <smiles>  (69) 
FC(F)(F)c1cccc(C(F)(F)F)c1CNC1CCCc2c1[nH]c1ccccc21

>  <score_type>  (69) 
oracle

>  <origin>  (69) 
autodockgpu

>  <m_score__min__energy>  (69) 
-7.21

>  <m_primary>  (69) 
energy

>  <meeko>  (69) 
{"free_energy": -7.2, "intermolecular_energy": -8.7, "internal_energy": -0.93, "cluster_size": 17, "cluster_id": 1, "rank_in_cluster": 2}

>  <energy>  (69) 
-6.87

>  <cluster_rmsd>  (69) 
1.73

>  <rmsd>  (69) 
269.82

>  <cluster>  (69) 
1

$$$$
OEDLLKAXDUWBBK-SFHVURJKNA-N
     RDKit          3D

 47 50  0  0  0  0  0  0  0  0999 V2000
  143.3000   71.8690  219.3930 F   0  0  0  0  0  0  0  0  0  0  0  0
  143.4100   72.5520  220.5900 C   0  0  0  0  0  0  0  0  0  0  0  0
  144.7460   72.7330  220.8990 F   0  0  0  0  0  0  0  0  0  0  0  0
  142.8450   71.7490  221.5660 F   0  0  0  0  0  0  0  0  0  0  0  0
  142.7110   73.9010  220.5280 C   0  0  0  0  0  0  0  0  0  0  0  0
  143.4340   74.9800  219.9870 C   0  0  0  0  0  0  0  0  0  0  0  0
  142.8780   76.2500  219.9130 C   0  0  0  0  0  0  0  0  0  0  0  0
  141.6070   76.4860  220.4150 C   0  0  0  0  0  0  0  0  0  0  0  0
  140.8390   75.4440  220.9640 C   0  0  0  0  0  0  0  0  0  0  0  0
  139.4930   75.7910  221.5810 C   0  0  0  0  0  0  0  0  0  0  0  0
  139.1110   77.0880  221.2820 F   0  0  0  0  0  0  0  0  0  0  0  0
  138.5180   74.9360  221.1040 F   0  0  0  0  0  0  0  0  0  0  0  0
  139.5610   75.6920  222.9600 F   0  0  0  0  0  0  0  0  0  0  0  0
  141.3460   74.1060  220.9170 C   0  0  0  0  0  0  0  0  0  0  0  0
  140.4440   72.9240  221.2640 C   0  0  0  0  0  0  0  0  0  0  0  0
  140.2120   72.8290  222.7210 N   0  0  0  0  0  0  0  0  0  0  0  0
  139.2170   71.8220  223.1510 C   0  0  1  0  0  0  0  0  0  0  0  0
  138.7920   70.8710  221.9920 C   0  0  0  0  0  0  0  0  0  0  0  0
  138.0380   69.6270  222.5050 C   0  0  0  0  0  0  0  0  0  0  0  0
  138.9040   68.7990  223.4710 C   0  0  0  0  0  0  0  0  0  0  0  0
  139.4830   69.6940  224.5220 C   0  0  0  0  0  0  0  0  0  0  0  0
  139.6650   71.0570  224.3710 C   0  0  0  0  0  0  0  0  0  0  0  0
  140.1760   71.6040  225.4990 N   0  0  0  0  0  0  0  0  0  0  0  0
  140.3860   70.5690  226.3340 C   0  0  0  0  0  0  0  0  0  0  0  0
  140.9460   70.6140  227.6090 C   0  0  0  0  0  0  0  0  0  0  0  0
  141.0850   69.4020  228.3100 C   0  0  0  0  0  0  0  0  0  0  0  0
  140.6640   68.1850  227.7280 C   0  0  0  0  0  0  0  0  0  0  0  0
  140.1000   68.1670  226.4380 C   0  0  0  0  0  0  0  0  0  0  0  0
  139.9790   69.3840  225.7690 C   0  0  0  0  0  0  0  0  0  0  0  0
  144.4565   74.8146  219.6166 H   0  0  0  0  0  0  0  0  0  0  0  0
  143.4476   77.0718  219.4546 H   0  0  0  0  0  0  0  0  0  0  0  0
  141.1930   77.5046  220.3832 H   0  0  0  0  0  0  0  0  0  0  0  0
  139.4769   73.0511  220.7556 H   0  0  0  0  0  0  0  0  0  0  0  0
  140.9421   72.0008  220.9329 H   0  0  0  0  0  0  0  0  0  0  0  0
  139.9040   73.7660  223.0740 H   0  0  0  0  0  0  0  0  0  0  0  0
  138.3182   72.3855  223.4418 H   0  0  0  0  0  0  0  0  0  0  0  0
  138.1362   71.4235  221.3030 H   0  0  0  0  0  0  0  0  0  0  0  0
  139.7059   70.5267  221.4857 H   0  0  0  0  0  0  0  0  0  0  0  0
  137.1281   69.9524  223.0306 H   0  0  0  0  0  0  0  0  0  0  0  0
  137.7869   68.9955  221.6401 H   0  0  0  0  0  0  0  0  0  0  0  0
  138.2828   68.0274  223.9493 H   0  0  0  0  0  0  0  0  0  0  0  0
  139.7201   68.3203  222.9099 H   0  0  0  0  0  0  0  0  0  0  0  0
  140.3640   72.6130  225.6860 H   0  0  0  0  0  0  0  0  0  0  0  0
  141.2692   71.5669  228.0535 H   0  0  0  0  0  0  0  0  0  0  0  0
  141.5246   69.4018  229.3184 H   0  0  0  0  0  0  0  0  0  0  0  0
  140.7778   67.2445  228.2871 H   0  0  0  0  0  0  0  0  0  0  0  0
  139.7669   67.2265  225.9748 H   0  0  0  0  0  0  0  0  0  0  0  0
  1  2  1  0
  2  3  1  0
  2  4  1  0
  2  5  1  0
  5  6  2  0
  6  7  1  0
  7  8  2  0
  8  9  1  0
  9 10  1  0
 10 11  1  0
 10 12  1  0
 10 13  1  0
  9 14  2  0
 14 15  1  0
 15 16  1  0
 16 17  1  0
 17 18  1  0
 18 19  1  0
 19 20  1  0
 20 21  1  0
 21 22  2  0
 22 23  1  0
 23 24  1  0
 24 25  2  0
 25 26  1  0
 26 27  2  0
 27 28  1  0
 28 29  2  0
 14  5  1  0
 22 17  1  0
 29 24  1  0
 29 21  1  0
  6 30  1  0
  7 31  1  0
  8 32  1  0
 15 33  1  0
 15 34  1  0
 16 35  1  0
 17 36  1  1
 18 37  1  0
 18 38  1  0
 19 39  1  0
 19 40  1  0
 20 41  1  0
 20 42  1  0
 23 43  1  0
 25 44  1  0
 26 45  1  0
 27 46  1  0
 28 47  1  0
M  END
>  <UniqueID>  (70) 
32

>  <SMILES>  (70) 
FC(F)(F)c1cccc(C(F)(F)F)c1CN[C@H]1CCCc2c1[nH]c1ccccc21

>  <Energy>  (70) 
95.72876901229523

>  <Genealogy>  (70) 
FC(F)(F)c1cccc(C(F)(F)F)c1CN[C@H]1CCCc2c1[nH]c1ccccc21 (chirality)
FC(F)(F)c1cccc(C(F)(F)F)c1CN[C@H]1CCCc2c1[nH]c1ccccc21 (3D coordinates assigned)
FC(F)(F)c1cccc(C(F)(F)F)c1CN[C@H]1CCCc2c1[nH]c1ccccc21 (nonaromatic ring conformer: 95.72876901229523 kcal/mol)

>  <smiles>  (70) 
FC(F)(F)c1cccc(C(F)(F)F)c1CNC1CCCc2c1[nH]c1ccccc21

>  <score_type>  (70) 
oracle

>  <origin>  (70) 
autodockgpu

>  <m_score__min__energy>  (70) 
-7.21

>  <m_primary>  (70) 
energy

>  <meeko>  (70) 
{"free_energy": -7.21, "intermolecular_energy": -8.7, "internal_energy": -0.92, "cluster_size": 17, "cluster_id": 1, "rank_in_cluster": 1}

>  <energy>  (70) 
-6.87

>  <cluster_rmsd>  (70) 
1.29

>  <rmsd>  (70) 
269.6

>  <cluster>  (70) 
1

$$$$
OEDLLKAXDUWBBK-SFHVURJKNA-N
     RDKit          3D

 47 50  0  0  0  0  0  0  0  0999 V2000
  136.5370   75.9320  223.5360 F   0  0  0  0  0  0  0  0  0  0  0  0
  137.0870   75.2930  222.4410 C   0  0  0  0  0  0  0  0  0  0  0  0
  136.3170   75.5500  221.3200 F   0  0  0  0  0  0  0  0  0  0  0  0
  137.0340   73.9330  222.6990 F   0  0  0  0  0  0  0  0  0  0  0  0
  138.5180   75.7420  222.1930 C   0  0  0  0  0  0  0  0  0  0  0  0
  138.8510   77.0630  222.5420 C   0  0  0  0  0  0  0  0  0  0  0  0
  140.1300   77.5600  222.3300 C   0  0  0  0  0  0  0  0  0  0  0  0
  141.0950   76.7690  221.7250 C   0  0  0  0  0  0  0  0  0  0  0  0
  140.8170   75.4400  221.3590 C   0  0  0  0  0  0  0  0  0  0  0  0
  141.8900   74.6600  220.6140 C   0  0  0  0  0  0  0  0  0  0  0  0
  141.4580   74.2640  219.3590 F   0  0  0  0  0  0  0  0  0  0  0  0
  143.0180   75.4410  220.4520 F   0  0  0  0  0  0  0  0  0  0  0  0
  142.2180   73.5130  221.3150 F   0  0  0  0  0  0  0  0  0  0  0  0
  139.5470   74.8740  221.7000 C   0  0  0  0  0  0  0  0  0  0  0  0
  139.3040   73.3740  221.5520 C   0  0  0  0  0  0  0  0  0  0  0  0
  139.7870   72.6290  222.7350 N   0  0  0  0  0  0  0  0  0  0  0  0
  138.9010   71.5490  223.2230 C   0  0  1  0  0  0  0  0  0  0  0  0
  138.5130   70.5430  222.0970 C   0  0  0  0  0  0  0  0  0  0  0  0
  137.8900   69.2490  222.6610 C   0  0  0  0  0  0  0  0  0  0  0  0
  138.8640   68.5160  223.6020 C   0  0  0  0  0  0  0  0  0  0  0  0
  139.4060   69.4780  224.6130 C   0  0  0  0  0  0  0  0  0  0  0  0
  139.4640   70.8490  224.4340 C   0  0  0  0  0  0  0  0  0  0  0  0
  139.9710   71.4580  225.5300 N   0  0  0  0  0  0  0  0  0  0  0  0
  140.3040   70.4610  226.3720 C   0  0  0  0  0  0  0  0  0  0  0  0
  140.9100   70.5790  227.6210 C   0  0  0  0  0  0  0  0  0  0  0  0
  141.1820   69.3960  228.3330 C   0  0  0  0  0  0  0  0  0  0  0  0
  140.8440   68.1370  227.7890 C   0  0  0  0  0  0  0  0  0  0  0  0
  140.2320   68.0460  226.5250 C   0  0  0  0  0  0  0  0  0  0  0  0
  139.9780   69.2350  225.8420 C   0  0  0  0  0  0  0  0  0  0  0  0
  138.0855   77.7133  222.9904 H   0  0  0  0  0  0  0  0  0  0  0  0
  140.3787   78.5848  222.6430 H   0  0  0  0  0  0  0  0  0  0  0  0
  142.0931   77.1875  221.5284 H   0  0  0  0  0  0  0  0  0  0  0  0
  138.2249   73.1964  221.4334 H   0  0  0  0  0  0  0  0  0  0  0  0
  139.8576   73.0193  220.6701 H   0  0  0  0  0  0  0  0  0  0  0  0
  139.9410   73.3050  223.5190 H   0  0  0  0  0  0  0  0  0  0  0  0
  137.9693   72.0381  223.5436 H   0  0  0  0  0  0  0  0  0  0  0  0
  137.7848   71.0242  221.4275 H   0  0  0  0  0  0  0  0  0  0  0  0
  139.4318   70.2685  221.5581 H   0  0  0  0  0  0  0  0  0  0  0  0
  136.9782   69.5057  223.2202 H   0  0  0  0  0  0  0  0  0  0  0  0
  137.6580   68.5821  221.8175 H   0  0  0  0  0  0  0  0  0  0  0  0
  138.3321   67.7033  224.1184 H   0  0  0  0  0  0  0  0  0  0  0  0
  139.6944   68.0977  223.0142 H   0  0  0  0  0  0  0  0  0  0  0  0
  140.0790   72.4830  225.6940 H   0  0  0  0  0  0  0  0  0  0  0  0
  141.1673   71.5643  228.0368 H   0  0  0  0  0  0  0  0  0  0  0  0
  141.6618   69.4522  229.3213 H   0  0  0  0  0  0  0  0  0  0  0  0
  141.0608   67.2207  228.3577 H   0  0  0  0  0  0  0  0  0  0  0  0
  139.9635   67.0715  226.0911 H   0  0  0  0  0  0  0  0  0  0  0  0
  1  2  1  0
  2  3  1  0
  2  4  1  0
  2  5  1  0
  5  6  2  0
  6  7  1  0
  7  8  2  0
  8  9  1  0
  9 10  1  0
 10 11  1  0
 10 12  1  0
 10 13  1  0
  9 14  2  0
 14 15  1  0
 15 16  1  0
 16 17  1  0
 17 18  1  0
 18 19  1  0
 19 20  1  0
 20 21  1  0
 21 22  2  0
 22 23  1  0
 23 24  1  0
 24 25  2  0
 25 26  1  0
 26 27  2  0
 27 28  1  0
 28 29  2  0
 14  5  1  0
 22 17  1  0
 29 24  1  0
 29 21  1  0
  6 30  1  0
  7 31  1  0
  8 32  1  0
 15 33  1  0
 15 34  1  0
 16 35  1  0
 17 36  1  1
 18 37  1  0
 18 38  1  0
 19 39  1  0
 19 40  1  0
 20 41  1  0
 20 42  1  0
 23 43  1  0
 25 44  1  0
 26 45  1  0
 27 46  1  0
 28 47  1  0
M  END
>  <UniqueID>  (71) 
32

>  <SMILES>  (71) 
FC(F)(F)c1cccc(C(F)(F)F)c1CN[C@H]1CCCc2c1[nH]c1ccccc21

>  <Energy>  (71) 
95.72876901229523

>  <Genealogy>  (71) 
FC(F)(F)c1cccc(C(F)(F)F)c1CN[C@H]1CCCc2c1[nH]c1ccccc21 (chirality)
FC(F)(F)c1cccc(C(F)(F)F)c1CN[C@H]1CCCc2c1[nH]c1ccccc21 (3D coordinates assigned)
FC(F)(F)c1cccc(C(F)(F)F)c1CN[C@H]1CCCc2c1[nH]c1ccccc21 (nonaromatic ring conformer: 95.72876901229523 kcal/mol)

>  <smiles>  (71) 
FC(F)(F)c1cccc(C(F)(F)F)c1CNC1CCCc2c1[nH]c1ccccc21

>  <score_type>  (71) 
oracle

>  <origin>  (71) 
autodockgpu

>  <m_score__min__energy>  (71) 
-7.21

>  <m_primary>  (71) 
energy

>  <meeko>  (71) 
{"free_energy": -7.04, "intermolecular_energy": -8.53, "internal_energy": -0.86, "cluster_size": 17, "cluster_id": 1, "rank_in_cluster": 8}

>  <energy>  (71) 
-6.86

>  <cluster_rmsd>  (71) 
1.29

>  <rmsd>  (71) 
269.6

>  <cluster>  (71) 
1

$$$$
OEDLLKAXDUWBBK-SFHVURJKNA-N
     RDKit          3D

 47 50  0  0  0  0  0  0  0  0999 V2000
  142.6090   71.6350  221.5840 F   0  0  0  0  0  0  0  0  0  0  0  0
  143.2200   72.3680  220.5850 C   0  0  0  0  0  0  0  0  0  0  0  0
  143.0500   71.7300  219.3700 F   0  0  0  0  0  0  0  0  0  0  0  0
  144.5750   72.3930  220.8750 F   0  0  0  0  0  0  0  0  0  0  0  0
  142.6580   73.7790  220.5050 C   0  0  0  0  0  0  0  0  0  0  0  0
  143.4920   74.7780  219.9710 C   0  0  0  0  0  0  0  0  0  0  0  0
  143.0650   76.0960  219.8820 C   0  0  0  0  0  0  0  0  0  0  0  0
  141.8150   76.4590  220.3610 C   0  0  0  0  0  0  0  0  0  0  0  0
  140.9400   75.5010  220.9020 C   0  0  0  0  0  0  0  0  0  0  0  0
  139.6250   75.9820  221.4960 C   0  0  0  0  0  0  0  0  0  0  0  0
  138.5370   75.3900  220.8760 F   0  0  0  0  0  0  0  0  0  0  0  0
  139.5710   75.6740  222.8410 F   0  0  0  0  0  0  0  0  0  0  0  0
  139.4980   77.3500  221.3280 F   0  0  0  0  0  0  0  0  0  0  0  0
  141.3150   74.1190  220.8710 C   0  0  0  0  0  0  0  0  0  0  0  0
  140.2950   73.0340  221.2080 C   0  0  0  0  0  0  0  0  0  0  0  0
  140.1600   72.8540  222.6690 N   0  0  0  0  0  0  0  0  0  0  0  0
  139.1730   71.8420  223.1060 C   0  0  1  0  0  0  0  0  0  0  0  0
  138.7510   70.8840  221.9510 C   0  0  0  0  0  0  0  0  0  0  0  0
  138.0060   69.6360  222.4700 C   0  0  0  0  0  0  0  0  0  0  0  0
  138.8810   68.8170  223.4350 C   0  0  0  0  0  0  0  0  0  0  0  0
  139.4580   69.7190  224.4810 C   0  0  0  0  0  0  0  0  0  0  0  0
  139.6310   71.0830  224.3260 C   0  0  0  0  0  0  0  0  0  0  0  0
  140.1410   71.6360  225.4510 N   0  0  0  0  0  0  0  0  0  0  0  0
  140.3610   70.6050  226.2880 C   0  0  0  0  0  0  0  0  0  0  0  0
  140.9250   70.6570  227.5610 C   0  0  0  0  0  0  0  0  0  0  0  0
  141.0750   69.4480  228.2650 C   0  0  0  0  0  0  0  0  0  0  0  0
  140.6600   68.2270  227.6870 C   0  0  0  0  0  0  0  0  0  0  0  0
  140.0920   68.2020  226.4000 C   0  0  0  0  0  0  0  0  0  0  0  0
  139.9600   69.4150  225.7270 C   0  0  0  0  0  0  0  0  0  0  0  0
  144.4990   74.5105  219.6181 H   0  0  0  0  0  0  0  0  0  0  0  0
  143.7204   76.8551  219.4300 H   0  0  0  0  0  0  0  0  0  0  0  0
  141.5035   77.5130  220.3168 H   0  0  0  0  0  0  0  0  0  0  0  0
  139.3180   73.3197  220.7910 H   0  0  0  0  0  0  0  0  0  0  0  0
  140.6432   72.0853  220.7736 H   0  0  0  0  0  0  0  0  0  0  0  0
  139.8980   73.7730  223.0990 H   0  0  0  0  0  0  0  0  0  0  0  0
  138.2717   72.4006  223.3987 H   0  0  0  0  0  0  0  0  0  0  0  0
  138.0899   71.4299  221.2619 H   0  0  0  0  0  0  0  0  0  0  0  0
  139.6659   70.5439  221.4437 H   0  0  0  0  0  0  0  0  0  0  0  0
  137.0958   69.9569  222.9979 H   0  0  0  0  0  0  0  0  0  0  0  0
  137.7554   69.0005  221.6078 H   0  0  0  0  0  0  0  0  0  0  0  0
  138.2668   68.0428  223.9180 H   0  0  0  0  0  0  0  0  0  0  0  0
  139.6981   68.3421  222.8722 H   0  0  0  0  0  0  0  0  0  0  0  0
  140.3230   72.6470  225.6350 H   0  0  0  0  0  0  0  0  0  0  0  0
  141.2431   71.6133  228.0019 H   0  0  0  0  0  0  0  0  0  0  0  0
  141.5181   69.4533  229.2718 H   0  0  0  0  0  0  0  0  0  0  0  0
  140.7820   67.2886  228.2478 H   0  0  0  0  0  0  0  0  0  0  0  0
  139.7636   67.2578  225.9411 H   0  0  0  0  0  0  0  0  0  0  0  0
  1  2  1  0
  2  3  1  0
  2  4  1  0
  2  5  1  0
  5  6  2  0
  6  7  1  0
  7  8  2  0
  8  9  1  0
  9 10  1  0
 10 11  1  0
 10 12  1  0
 10 13  1  0
  9 14  2  0
 14 15  1  0
 15 16  1  0
 16 17  1  0
 17 18  1  0
 18 19  1  0
 19 20  1  0
 20 21  1  0
 21 22  2  0
 22 23  1  0
 23 24  1  0
 24 25  2  0
 25 26  1  0
 26 27  2  0
 27 28  1  0
 28 29  2  0
 14  5  1  0
 22 17  1  0
 29 24  1  0
 29 21  1  0
  6 30  1  0
  7 31  1  0
  8 32  1  0
 15 33  1  0
 15 34  1  0
 16 35  1  0
 17 36  1  1
 18 37  1  0
 18 38  1  0
 19 39  1  0
 19 40  1  0
 20 41  1  0
 20 42  1  0
 23 43  1  0
 25 44  1  0
 26 45  1  0
 27 46  1  0
 28 47  1  0
M  END
>  <UniqueID>  (72) 
32

>  <SMILES>  (72) 
FC(F)(F)c1cccc(C(F)(F)F)c1CN[C@H]1CCCc2c1[nH]c1ccccc21

>  <Energy>  (72) 
95.72876901229523

>  <Genealogy>  (72) 
FC(F)(F)c1cccc(C(F)(F)F)c1CN[C@H]1CCCc2c1[nH]c1ccccc21 (chirality)
FC(F)(F)c1cccc(C(F)(F)F)c1CN[C@H]1CCCc2c1[nH]c1ccccc21 (3D coordinates assigned)
FC(F)(F)c1cccc(C(F)(F)F)c1CN[C@H]1CCCc2c1[nH]c1ccccc21 (nonaromatic ring conformer: 95.72876901229523 kcal/mol)

>  <smiles>  (72) 
FC(F)(F)c1cccc(C(F)(F)F)c1CNC1CCCc2c1[nH]c1ccccc21

>  <score_type>  (72) 
oracle

>  <origin>  (72) 
autodockgpu

>  <m_score__min__energy>  (72) 
-7.21

>  <m_primary>  (72) 
energy

>  <meeko>  (72) 
{"free_energy": -7.19, "intermolecular_energy": -8.68, "internal_energy": -0.98, "cluster_size": 17, "cluster_id": 1, "rank_in_cluster": 3}

>  <energy>  (72) 
-6.86

>  <cluster_rmsd>  (72) 
1.3

>  <rmsd>  (72) 
269.64

>  <cluster>  (72) 
1

$$$$
OEDLLKAXDUWBBK-SFHVURJKNA-N
     RDKit          3D

 47 50  0  0  0  0  0  0  0  0999 V2000
  137.2420   72.7020  222.5930 F   0  0  0  0  0  0  0  0  0  0  0  0
  137.3270   73.6890  221.6300 C   0  0  0  0  0  0  0  0  0  0  0  0
  136.3290   74.6250  221.8360 F   0  0  0  0  0  0  0  0  0  0  0  0
  137.1020   73.0800  220.4060 F   0  0  0  0  0  0  0  0  0  0  0  0
  138.6840   74.3750  221.6520 C   0  0  0  0  0  0  0  0  0  0  0  0
  138.7740   75.6090  222.3210 C   0  0  0  0  0  0  0  0  0  0  0  0
  139.9700   76.3120  222.3710 C   0  0  0  0  0  0  0  0  0  0  0  0
  141.0940   75.8250  221.7190 C   0  0  0  0  0  0  0  0  0  0  0  0
  141.0600   74.5960  221.0360 C   0  0  0  0  0  0  0  0  0  0  0  0
  142.2980   74.1680  220.2630 C   0  0  0  0  0  0  0  0  0  0  0  0
  142.8880   73.0460  220.8210 F   0  0  0  0  0  0  0  0  0  0  0  0
  141.9630   73.8710  218.9570 F   0  0  0  0  0  0  0  0  0  0  0  0
  143.2440   75.1790  220.2810 F   0  0  0  0  0  0  0  0  0  0  0  0
  139.8730   73.7980  221.0970 C   0  0  0  0  0  0  0  0  0  0  0  0
  139.8840   72.3560  220.5930 C   0  0  0  0  0  0  0  0  0  0  0  0
  140.4160   71.4300  221.6150 N   0  0  0  0  0  0  0  0  0  0  0  0
  139.4120   70.8030  222.5030 C   0  0  1  0  0  0  0  0  0  0  0  0
  139.0140   69.3710  222.0340 C   0  0  0  0  0  0  0  0  0  0  0  0
  138.2480   68.5920  223.1230 C   0  0  0  0  0  0  0  0  0  0  0  0
  139.0940   68.4270  224.3990 C   0  0  0  0  0  0  0  0  0  0  0  0
  139.6500   69.7550  224.8100 C   0  0  0  0  0  0  0  0  0  0  0  0
  139.8340   70.8230  223.9510 C   0  0  0  0  0  0  0  0  0  0  0  0
  140.3200   71.8980  224.6140 N   0  0  0  0  0  0  0  0  0  0  0  0
  140.5120   71.4800  225.8790 C   0  0  0  0  0  0  0  0  0  0  0  0
  141.0440   72.2140  226.9370 C   0  0  0  0  0  0  0  0  0  0  0  0
  141.1690   71.5730  228.1840 C   0  0  0  0  0  0  0  0  0  0  0  0
  140.7610   70.2300  228.3440 C   0  0  0  0  0  0  0  0  0  0  0  0
  140.2260   69.5120  227.2590 C   0  0  0  0  0  0  0  0  0  0  0  0
  140.1180   70.1720  226.0360 C   0  0  0  0  0  0  0  0  0  0  0  0
  137.8818   76.0239  222.8128 H   0  0  0  0  0  0  0  0  0  0  0  0
  140.0269   77.2581  222.9292 H   0  0  0  0  0  0  0  0  0  0  0  0
  142.0259   76.4092  221.7366 H   0  0  0  0  0  0  0  0  0  0  0  0
  138.8558   72.0575  220.3406 H   0  0  0  0  0  0  0  0  0  0  0  0
  140.5348   72.3043  219.7077 H   0  0  0  0  0  0  0  0  0  0  0  0
  141.1040   71.9470  222.2120 H   0  0  0  0  0  0  0  0  0  0  0  0
  138.5069   71.4235  222.4271 H   0  0  0  0  0  0  0  0  0  0  0  0
  138.3746   69.4552  221.1429 H   0  0  0  0  0  0  0  0  0  0  0  0
  139.9395   68.8192  221.8125 H   0  0  0  0  0  0  0  0  0  0  0  0
  137.3270   69.1391  223.3729 H   0  0  0  0  0  0  0  0  0  0  0  0
  138.0146   67.5908  222.7317 H   0  0  0  0  0  0  0  0  0  0  0  0
  138.4631   68.0286  225.2072 H   0  0  0  0  0  0  0  0  0  0  0  0
  139.9220   67.7308  224.2000 H   0  0  0  0  0  0  0  0  0  0  0  0
  140.5030   72.8510  224.2300 H   0  0  0  0  0  0  0  0  0  0  0  0
  141.3561   73.2601  226.8023 H   0  0  0  0  0  0  0  0  0  0  0  0
  141.5876   72.1220  229.0404 H   0  0  0  0  0  0  0  0  0  0  0  0
  140.8624   69.7419  229.3246 H   0  0  0  0  0  0  0  0  0  0  0  0
  139.9041   68.4662  227.3718 H   0  0  0  0  0  0  0  0  0  0  0  0
  1  2  1  0
  2  3  1  0
  2  4  1  0
  2  5  1  0
  5  6  2  0
  6  7  1  0
  7  8  2  0
  8  9  1  0
  9 10  1  0
 10 11  1  0
 10 12  1  0
 10 13  1  0
  9 14  2  0
 14 15  1  0
 15 16  1  0
 16 17  1  0
 17 18  1  0
 18 19  1  0
 19 20  1  0
 20 21  1  0
 21 22  2  0
 22 23  1  0
 23 24  1  0
 24 25  2  0
 25 26  1  0
 26 27  2  0
 27 28  1  0
 28 29  2  0
 14  5  1  0
 22 17  1  0
 29 24  1  0
 29 21  1  0
  6 30  1  0
  7 31  1  0
  8 32  1  0
 15 33  1  0
 15 34  1  0
 16 35  1  0
 17 36  1  1
 18 37  1  0
 18 38  1  0
 19 39  1  0
 19 40  1  0
 20 41  1  0
 20 42  1  0
 23 43  1  0
 25 44  1  0
 26 45  1  0
 27 46  1  0
 28 47  1  0
M  END
>  <UniqueID>  (73) 
32

>  <SMILES>  (73) 
FC(F)(F)c1cccc(C(F)(F)F)c1CN[C@H]1CCCc2c1[nH]c1ccccc21

>  <Energy>  (73) 
95.72876901229523

>  <Genealogy>  (73) 
FC(F)(F)c1cccc(C(F)(F)F)c1CN[C@H]1CCCc2c1[nH]c1ccccc21 (chirality)
FC(F)(F)c1cccc(C(F)(F)F)c1CN[C@H]1CCCc2c1[nH]c1ccccc21 (3D coordinates assigned)
FC(F)(F)c1cccc(C(F)(F)F)c1CN[C@H]1CCCc2c1[nH]c1ccccc21 (nonaromatic ring conformer: 95.72876901229523 kcal/mol)

>  <smiles>  (73) 
FC(F)(F)c1cccc(C(F)(F)F)c1CNC1CCCc2c1[nH]c1ccccc21

>  <score_type>  (73) 
oracle

>  <origin>  (73) 
autodockgpu

>  <m_score__min__energy>  (73) 
-7.21

>  <m_primary>  (73) 
energy

>  <meeko>  (73) 
{"free_energy": -6.4, "intermolecular_energy": -7.89, "internal_energy": -1.38, "cluster_size": 17, "cluster_id": 1, "rank_in_cluster": 16}

>  <energy>  (73) 
-6.84

>  <cluster_rmsd>  (73) 
1.32

>  <rmsd>  (73) 
269.63

>  <cluster>  (73) 
1

$$$$
OEDLLKAXDUWBBK-SFHVURJKNA-N
     RDKit          3D

 47 50  0  0  0  0  0  0  0  0999 V2000
  144.4590   72.1330  220.7230 F   0  0  0  0  0  0  0  0  0  0  0  0
  143.0880   72.2080  220.5660 C   0  0  0  0  0  0  0  0  0  0  0  0
  142.4640   71.5810  221.6290 F   0  0  0  0  0  0  0  0  0  0  0  0
  142.7760   71.5120  219.4090 F   0  0  0  0  0  0  0  0  0  0  0  0
  142.6150   73.6510  220.4730 C   0  0  0  0  0  0  0  0  0  0  0  0
  143.5080   74.5900  219.9280 C   0  0  0  0  0  0  0  0  0  0  0  0
  143.1640   75.9310  219.8270 C   0  0  0  0  0  0  0  0  0  0  0  0
  141.9400   76.3760  220.3040 C   0  0  0  0  0  0  0  0  0  0  0  0
  141.0080   75.4790  220.8550 C   0  0  0  0  0  0  0  0  0  0  0  0
  139.7260   76.0470  221.4450 C   0  0  0  0  0  0  0  0  0  0  0  0
  139.5370   75.6330  222.7530 F   0  0  0  0  0  0  0  0  0  0  0  0
  139.7710   77.4270  221.4360 F   0  0  0  0  0  0  0  0  0  0  0  0
  138.6320   75.6140  220.7150 F   0  0  0  0  0  0  0  0  0  0  0  0
  141.2950   74.0770  220.8360 C   0  0  0  0  0  0  0  0  0  0  0  0
  140.2100   73.0600  221.1850 C   0  0  0  0  0  0  0  0  0  0  0  0
  140.1190   72.8450  222.6440 N   0  0  0  0  0  0  0  0  0  0  0  0
  139.1450   71.8240  223.0860 C   0  0  1  0  0  0  0  0  0  0  0  0
  138.7200   70.8670  221.9310 C   0  0  0  0  0  0  0  0  0  0  0  0
  137.9910   69.6110  222.4530 C   0  0  0  0  0  0  0  0  0  0  0  0
  138.8810   68.7950  223.4070 C   0  0  0  0  0  0  0  0  0  0  0  0
  139.4600   69.6990  224.4510 C   0  0  0  0  0  0  0  0  0  0  0  0
  139.6200   71.0650  224.3000 C   0  0  0  0  0  0  0  0  0  0  0  0
  140.1360   71.6180  225.4220 N   0  0  0  0  0  0  0  0  0  0  0  0
  140.3720   70.5850  226.2530 C   0  0  0  0  0  0  0  0  0  0  0  0
  140.9470   70.6380  227.5210 C   0  0  0  0  0  0  0  0  0  0  0  0
  141.1130   69.4270  228.2190 C   0  0  0  0  0  0  0  0  0  0  0  0
  140.7030   68.2050  227.6410 C   0  0  0  0  0  0  0  0  0  0  0  0
  140.1240   68.1800  226.3590 C   0  0  0  0  0  0  0  0  0  0  0  0
  139.9760   69.3940  225.6920 C   0  0  0  0  0  0  0  0  0  0  0  0
  144.4954   74.2567  219.5759 H   0  0  0  0  0  0  0  0  0  0  0  0
  143.8647   76.6433  219.3670 H   0  0  0  0  0  0  0  0  0  0  0  0
  141.6947   77.4470  220.2504 H   0  0  0  0  0  0  0  0  0  0  0  0
  139.2416   73.4299  220.8170 H   0  0  0  0  0  0  0  0  0  0  0  0
  140.4691   72.1021  220.7103 H   0  0  0  0  0  0  0  0  0  0  0  0
  139.8720   73.7540  223.1040 H   0  0  0  0  0  0  0  0  0  0  0  0
  138.2416   72.3737  223.3888 H   0  0  0  0  0  0  0  0  0  0  0  0
  138.0474   71.4098  221.2506 H   0  0  0  0  0  0  0  0  0  0  0  0
  139.6325   70.5369  221.4129 H   0  0  0  0  0  0  0  0  0  0  0  0
  137.0833   69.9226  222.9905 H   0  0  0  0  0  0  0  0  0  0  0  0
  137.7385   68.9764  221.5907 H   0  0  0  0  0  0  0  0  0  0  0  0
  138.2773   68.0143  223.8928 H   0  0  0  0  0  0  0  0  0  0  0  0
  139.6965   68.3278  222.8355 H   0  0  0  0  0  0  0  0  0  0  0  0
  140.3110   72.6290  225.6080 H   0  0  0  0  0  0  0  0  0  0  0  0
  141.2611   71.5954  227.9624 H   0  0  0  0  0  0  0  0  0  0  0  0
  141.5652   69.4322  229.2217 H   0  0  0  0  0  0  0  0  0  0  0  0
  140.8375   67.2658  228.1975 H   0  0  0  0  0  0  0  0  0  0  0  0
  139.7995   67.2348  225.8994 H   0  0  0  0  0  0  0  0  0  0  0  0
  1  2  1  0
  2  3  1  0
  2  4  1  0
  2  5  1  0
  5  6  2  0
  6  7  1  0
  7  8  2  0
  8  9  1  0
  9 10  1  0
 10 11  1  0
 10 12  1  0
 10 13  1  0
  9 14  2  0
 14 15  1  0
 15 16  1  0
 16 17  1  0
 17 18  1  0
 18 19  1  0
 19 20  1  0
 20 21  1  0
 21 22  2  0
 22 23  1  0
 23 24  1  0
 24 25  2  0
 25 26  1  0
 26 27  2  0
 27 28  1  0
 28 29  2  0
 14  5  1  0
 22 17  1  0
 29 24  1  0
 29 21  1  0
  6 30  1  0
  7 31  1  0
  8 32  1  0
 15 33  1  0
 15 34  1  0
 16 35  1  0
 17 36  1  1
 18 37  1  0
 18 38  1  0
 19 39  1  0
 19 40  1  0
 20 41  1  0
 20 42  1  0
 23 43  1  0
 25 44  1  0
 26 45  1  0
 27 46  1  0
 28 47  1  0
M  END
>  <UniqueID>  (74) 
32

>  <SMILES>  (74) 
FC(F)(F)c1cccc(C(F)(F)F)c1CN[C@H]1CCCc2c1[nH]c1ccccc21

>  <Energy>  (74) 
95.72876901229523

>  <Genealogy>  (74) 
FC(F)(F)c1cccc(C(F)(F)F)c1CN[C@H]1CCCc2c1[nH]c1ccccc21 (chirality)
FC(F)(F)c1cccc(C(F)(F)F)c1CN[C@H]1CCCc2c1[nH]c1ccccc21 (3D coordinates assigned)
FC(F)(F)c1cccc(C(F)(F)F)c1CN[C@H]1CCCc2c1[nH]c1ccccc21 (nonaromatic ring conformer: 95.72876901229523 kcal/mol)

>  <smiles>  (74) 
FC(F)(F)c1cccc(C(F)(F)F)c1CNC1CCCc2c1[nH]c1ccccc21

>  <score_type>  (74) 
oracle

>  <origin>  (74) 
autodockgpu

>  <m_score__min__energy>  (74) 
-7.21

>  <m_primary>  (74) 
energy

>  <meeko>  (74) 
{"free_energy": -7.15, "intermolecular_energy": -8.65, "internal_energy": -0.99, "cluster_size": 17, "cluster_id": 1, "rank_in_cluster": 5}

>  <energy>  (74) 
-6.79

>  <cluster_rmsd>  (74) 
1.34

>  <rmsd>  (74) 
269.55

>  <cluster>  (74) 
1

$$$$
OEDLLKAXDUWBBK-SFHVURJKNA-N
     RDKit          3D

 47 50  0  0  0  0  0  0  0  0999 V2000
  137.0670   76.9660  222.2440 F   0  0  0  0  0  0  0  0  0  0  0  0
  138.4310   77.1240  222.0830 C   0  0  0  0  0  0  0  0  0  0  0  0
  138.7430   77.1110  220.7360 F   0  0  0  0  0  0  0  0  0  0  0  0
  139.0360   76.0290  222.6790 F   0  0  0  0  0  0  0  0  0  0  0  0
  138.9200   78.4200  222.7100 C   0  0  0  0  0  0  0  0  0  0  0  0
  137.9600   79.2470  223.3190 C   0  0  0  0  0  0  0  0  0  0  0  0
  138.3180   80.4570  223.8960 C   0  0  0  0  0  0  0  0  0  0  0  0
  139.6330   80.8940  223.8430 C   0  0  0  0  0  0  0  0  0  0  0  0
  140.6350   80.1060  223.2480 C   0  0  0  0  0  0  0  0  0  0  0  0
  142.0370   80.6870  223.1390 C   0  0  0  0  0  0  0  0  0  0  0  0
  142.3580   81.0070  221.8300 F   0  0  0  0  0  0  0  0  0  0  0  0
  142.1330   81.8370  223.8970 F   0  0  0  0  0  0  0  0  0  0  0  0
  142.9710   79.7640  223.5760 F   0  0  0  0  0  0  0  0  0  0  0  0
  140.3020   78.7960  222.7750 C   0  0  0  0  0  0  0  0  0  0  0  0
  141.4020   77.8200  222.3640 C   0  0  0  0  0  0  0  0  0  0  0  0
  142.1530   78.3150  221.1910 N   0  0  0  0  0  0  0  0  0  0  0  0
  141.8830   77.6210  219.9120 C   0  0  1  0  0  0  0  0  0  0  0  0
  142.1260   78.5380  218.6750 C   0  0  0  0  0  0  0  0  0  0  0  0
  142.1850   77.7360  217.3580 C   0  0  0  0  0  0  0  0  0  0  0  0
  143.3210   76.6980  217.3780 C   0  0  0  0  0  0  0  0  0  0  0  0
  143.2420   75.8890  218.6350 C   0  0  0  0  0  0  0  0  0  0  0  0
  142.6280   76.3150  219.8000 C   0  0  0  0  0  0  0  0  0  0  0  0
  142.6870   75.3580  220.7540 N   0  0  0  0  0  0  0  0  0  0  0  0
  143.4060   74.3570  220.2130 C   0  0  0  0  0  0  0  0  0  0  0  0
  143.7810   73.1620  220.8230 C   0  0  0  0  0  0  0  0  0  0  0  0
  144.5490   72.2530  220.0730 C   0  0  0  0  0  0  0  0  0  0  0  0
  144.9180   72.5530  218.7420 C   0  0  0  0  0  0  0  0  0  0  0  0
  144.5250   73.7670  218.1490 C   0  0  0  0  0  0  0  0  0  0  0  0
  143.7680   74.6480  218.9190 C   0  0  0  0  0  0  0  0  0  0  0  0
  136.9070   78.9294  223.3384 H   0  0  0  0  0  0  0  0  0  0  0  0
  137.5560   81.0718  224.3973 H   0  0  0  0  0  0  0  0  0  0  0  0
  139.8966   81.8717  224.2728 H   0  0  0  0  0  0  0  0  0  0  0  0
  142.0981   77.6905  223.2058 H   0  0  0  0  0  0  0  0  0  0  0  0
  140.9319   76.8627  222.0947 H   0  0  0  0  0  0  0  0  0  0  0  0
  143.1790   78.2420  221.3930 H   0  0  0  0  0  0  0  0  0  0  0  0
  140.8109   77.3751  219.9167 H   0  0  0  0  0  0  0  0  0  0  0  0
  141.3060   79.2682  218.6087 H   0  0  0  0  0  0  0  0  0  0  0  0
  143.0967   79.0375  218.8102 H   0  0  0  0  0  0  0  0  0  0  0  0
  141.2272   77.2145  217.2143 H   0  0  0  0  0  0  0  0  0  0  0  0
  142.3761   78.4398  216.5345 H   0  0  0  0  0  0  0  0  0  0  0  0
  143.2236   76.0322  216.5078 H   0  0  0  0  0  0  0  0  0  0  0  0
  144.2900   77.2171  217.3388 H   0  0  0  0  0  0  0  0  0  0  0  0
  142.2620   75.3850  221.7070 H   0  0  0  0  0  0  0  0  0  0  0  0
  143.4859   72.9364  221.8584 H   0  0  0  0  0  0  0  0  0  0  0  0
  144.8648   71.3015  220.5258 H   0  0  0  0  0  0  0  0  0  0  0  0
  145.5167   71.8323  218.1656 H   0  0  0  0  0  0  0  0  0  0  0  0
  144.8054   74.0120  217.1140 H   0  0  0  0  0  0  0  0  0  0  0  0
  1  2  1  0
  2  3  1  0
  2  4  1  0
  2  5  1  0
  5  6  2  0
  6  7  1  0
  7  8  2  0
  8  9  1  0
  9 10  1  0
 10 11  1  0
 10 12  1  0
 10 13  1  0
  9 14  2  0
 14 15  1  0
 15 16  1  0
 16 17  1  0
 17 18  1  0
 18 19  1  0
 19 20  1  0
 20 21  1  0
 21 22  2  0
 22 23  1  0
 23 24  1  0
 24 25  2  0
 25 26  1  0
 26 27  2  0
 27 28  1  0
 28 29  2  0
 14  5  1  0
 22 17  1  0
 29 24  1  0
 29 21  1  0
  6 30  1  0
  7 31  1  0
  8 32  1  0
 15 33  1  0
 15 34  1  0
 16 35  1  0
 17 36  1  1
 18 37  1  0
 18 38  1  0
 19 39  1  0
 19 40  1  0
 20 41  1  0
 20 42  1  0
 23 43  1  0
 25 44  1  0
 26 45  1  0
 27 46  1  0
 28 47  1  0
M  END
>  <UniqueID>  (75) 
32

>  <SMILES>  (75) 
FC(F)(F)c1cccc(C(F)(F)F)c1CN[C@H]1CCCc2c1[nH]c1ccccc21

>  <Energy>  (75) 
95.72876901229523

>  <Genealogy>  (75) 
FC(F)(F)c1cccc(C(F)(F)F)c1CN[C@H]1CCCc2c1[nH]c1ccccc21 (chirality)
FC(F)(F)c1cccc(C(F)(F)F)c1CN[C@H]1CCCc2c1[nH]c1ccccc21 (3D coordinates assigned)
FC(F)(F)c1cccc(C(F)(F)F)c1CN[C@H]1CCCc2c1[nH]c1ccccc21 (nonaromatic ring conformer: 95.72876901229523 kcal/mol)

>  <smiles>  (75) 
FC(F)(F)c1cccc(C(F)(F)F)c1CNC1CCCc2c1[nH]c1ccccc21

>  <score_type>  (75) 
oracle

>  <origin>  (75) 
autodockgpu

>  <m_score__min__energy>  (75) 
-7.21

>  <m_primary>  (75) 
energy

>  <meeko>  (75) 
{"free_energy": -6.5, "intermolecular_energy": -7.99, "internal_energy": -1.12, "cluster_size": 3, "cluster_id": 2, "rank_in_cluster": 2}

>  <energy>  (75) 
-6.72

>  <cluster_rmsd>  (75) 
0.85

>  <rmsd>  (75) 
269.64

>  <cluster>  (75) 
1

$$$$
OEDLLKAXDUWBBK-SFHVURJKNA-N
     RDKit          3D

 47 50  0  0  0  0  0  0  0  0999 V2000
  143.0000   71.6000  219.4210 F   0  0  0  0  0  0  0  0  0  0  0  0
  143.1660   72.2960  220.6030 C   0  0  0  0  0  0  0  0  0  0  0  0
  144.5070   72.3200  220.9420 F   0  0  0  0  0  0  0  0  0  0  0  0
  142.4850   71.5940  221.5840 F   0  0  0  0  0  0  0  0  0  0  0  0
  142.6400   73.7190  220.4930 C   0  0  0  0  0  0  0  0  0  0  0  0
  143.5030   74.6860  219.9480 C   0  0  0  0  0  0  0  0  0  0  0  0
  143.1100   76.0120  219.8310 C   0  0  0  0  0  0  0  0  0  0  0  0
  141.8650   76.4150  220.2920 C   0  0  0  0  0  0  0  0  0  0  0  0
  140.9620   75.4890  220.8420 C   0  0  0  0  0  0  0  0  0  0  0  0
  139.6540   76.0130  221.4150 C   0  0  0  0  0  0  0  0  0  0  0  0
  139.5980   77.3960  221.3820 F   0  0  0  0  0  0  0  0  0  0  0  0
  138.5880   75.5250  220.6850 F   0  0  0  0  0  0  0  0  0  0  0  0
  139.5240   75.6290  222.7380 F   0  0  0  0  0  0  0  0  0  0  0  0
  141.3020   74.0980  220.8390 C   0  0  0  0  0  0  0  0  0  0  0  0
  140.2530   73.0450  221.1870 C   0  0  0  0  0  0  0  0  0  0  0  0
  140.1650   72.8280  222.6470 N   0  0  0  0  0  0  0  0  0  0  0  0
  139.1870   71.8110  223.0910 C   0  0  1  0  0  0  0  0  0  0  0  0
  138.7690   70.8450  221.9410 C   0  0  0  0  0  0  0  0  0  0  0  0
  138.0350   69.5950  222.4680 C   0  0  0  0  0  0  0  0  0  0  0  0
  138.9190   68.7860  223.4350 C   0  0  0  0  0  0  0  0  0  0  0  0
  139.4920   69.6980  224.4760 C   0  0  0  0  0  0  0  0  0  0  0  0
  139.6540   71.0620  224.3140 C   0  0  0  0  0  0  0  0  0  0  0  0
  140.1630   71.6240  225.4340 N   0  0  0  0  0  0  0  0  0  0  0  0
  140.3930   70.5990  226.2760 C   0  0  0  0  0  0  0  0  0  0  0  0
  140.9590   70.6620  227.5470 C   0  0  0  0  0  0  0  0  0  0  0  0
  141.1200   69.4570  228.2560 C   0  0  0  0  0  0  0  0  0  0  0  0
  140.7130   68.2300  227.6860 C   0  0  0  0  0  0  0  0  0  0  0  0
  140.1420   68.1940  226.4000 C   0  0  0  0  0  0  0  0  0  0  0  0
  139.9990   69.4040  225.7220 C   0  0  0  0  0  0  0  0  0  0  0  0
  144.5058   74.3868  219.6089 H   0  0  0  0  0  0  0  0  0  0  0  0
  143.7880   76.7460  219.3711 H   0  0  0  0  0  0  0  0  0  0  0  0
  141.5803   77.4755  220.2261 H   0  0  0  0  0  0  0  0  0  0  0  0
  139.2733   73.3805  220.8160 H   0  0  0  0  0  0  0  0  0  0  0  0
  140.5472   72.0961  220.7147 H   0  0  0  0  0  0  0  0  0  0  0  0
  139.9240   73.7380  223.1080 H   0  0  0  0  0  0  0  0  0  0  0  0
  138.2817   72.3633  223.3834 H   0  0  0  0  0  0  0  0  0  0  0  0
  138.1020   71.3830  221.2513 H   0  0  0  0  0  0  0  0  0  0  0  0
  139.6847   70.5095  221.4322 H   0  0  0  0  0  0  0  0  0  0  0  0
  137.1242   69.9121  222.9970 H   0  0  0  0  0  0  0  0  0  0  0  0
  137.7867   68.9536  221.6096 H   0  0  0  0  0  0  0  0  0  0  0  0
  138.3118   68.0095  223.9231 H   0  0  0  0  0  0  0  0  0  0  0  0
  139.7381   68.3142  222.8724 H   0  0  0  0  0  0  0  0  0  0  0  0
  140.3380   72.6370  225.6130 H   0  0  0  0  0  0  0  0  0  0  0  0
  141.2702   71.6229  227.9827 H   0  0  0  0  0  0  0  0  0  0  0  0
  141.5660   69.4706  229.2614 H   0  0  0  0  0  0  0  0  0  0  0  0
  140.8434   67.2956  228.2516 H   0  0  0  0  0  0  0  0  0  0  0  0
  139.8201   67.2452  225.9460 H   0  0  0  0  0  0  0  0  0  0  0  0
  1  2  1  0
  2  3  1  0
  2  4  1  0
  2  5  1  0
  5  6  2  0
  6  7  1  0
  7  8  2  0
  8  9  1  0
  9 10  1  0
 10 11  1  0
 10 12  1  0
 10 13  1  0
  9 14  2  0
 14 15  1  0
 15 16  1  0
 16 17  1  0
 17 18  1  0
 18 19  1  0
 19 20  1  0
 20 21  1  0
 21 22  2  0
 22 23  1  0
 23 24  1  0
 24 25  2  0
 25 26  1  0
 26 27  2  0
 27 28  1  0
 28 29  2  0
 14  5  1  0
 22 17  1  0
 29 24  1  0
 29 21  1  0
  6 30  1  0
  7 31  1  0
  8 32  1  0
 15 33  1  0
 15 34  1  0
 16 35  1  0
 17 36  1  1
 18 37  1  0
 18 38  1  0
 19 39  1  0
 19 40  1  0
 20 41  1  0
 20 42  1  0
 23 43  1  0
 25 44  1  0
 26 45  1  0
 27 46  1  0
 28 47  1  0
M  END
>  <UniqueID>  (76) 
32

>  <SMILES>  (76) 
FC(F)(F)c1cccc(C(F)(F)F)c1CN[C@H]1CCCc2c1[nH]c1ccccc21

>  <Energy>  (76) 
95.72876901229523

>  <Genealogy>  (76) 
FC(F)(F)c1cccc(C(F)(F)F)c1CN[C@H]1CCCc2c1[nH]c1ccccc21 (chirality)
FC(F)(F)c1cccc(C(F)(F)F)c1CN[C@H]1CCCc2c1[nH]c1ccccc21 (3D coordinates assigned)
FC(F)(F)c1cccc(C(F)(F)F)c1CN[C@H]1CCCc2c1[nH]c1ccccc21 (nonaromatic ring conformer: 95.72876901229523 kcal/mol)

>  <smiles>  (76) 
FC(F)(F)c1cccc(C(F)(F)F)c1CNC1CCCc2c1[nH]c1ccccc21

>  <score_type>  (76) 
oracle

>  <origin>  (76) 
autodockgpu

>  <m_score__min__energy>  (76) 
-7.21

>  <m_primary>  (76) 
energy

>  <meeko>  (76) 
{"free_energy": -7.18, "intermolecular_energy": -8.68, "internal_energy": -0.97, "cluster_size": 17, "cluster_id": 1, "rank_in_cluster": 4}

>  <energy>  (76) 
-6.4

>  <cluster_rmsd>  (76) 
1.75

>  <rmsd>  (76) 
269.53

>  <cluster>  (76) 
1

$$$$
OEDLLKAXDUWBBK-SFHVURJKNA-N
     RDKit          3D

 47 50  0  0  0  0  0  0  0  0999 V2000
  140.0910   75.8850  220.2990 F   0  0  0  0  0  0  0  0  0  0  0  0
  141.3020   75.8920  220.9640 C   0  0  0  0  0  0  0  0  0  0  0  0
  141.0840   76.0360  222.3230 F   0  0  0  0  0  0  0  0  0  0  0  0
  142.0010   77.0010  220.5180 F   0  0  0  0  0  0  0  0  0  0  0  0
  142.0890   74.6160  220.7050 C   0  0  0  0  0  0  0  0  0  0  0  0
  143.4750   74.7410  220.5060 C   0  0  0  0  0  0  0  0  0  0  0  0
  144.2640   73.6300  220.2420 C   0  0  0  0  0  0  0  0  0  0  0  0
  143.6860   72.3740  220.1280 C   0  0  0  0  0  0  0  0  0  0  0  0
  142.3050   72.1920  220.3210 C   0  0  0  0  0  0  0  0  0  0  0  0
  141.7230   70.8060  220.0870 C   0  0  0  0  0  0  0  0  0  0  0  0
  142.7100   69.8780  219.7990 F   0  0  0  0  0  0  0  0  0  0  0  0
  141.0500   70.3790  221.2140 F   0  0  0  0  0  0  0  0  0  0  0  0
  140.8550   70.8290  219.0090 F   0  0  0  0  0  0  0  0  0  0  0  0
  141.5060   73.3070  220.7300 C   0  0  0  0  0  0  0  0  0  0  0  0
  140.0670   73.0970  221.1960 C   0  0  0  0  0  0  0  0  0  0  0  0
  139.9950   72.9020  222.6600 N   0  0  0  0  0  0  0  0  0  0  0  0
  139.0190   71.8950  223.1290 C   0  0  1  0  0  0  0  0  0  0  0  0
  138.5140   70.9720  221.9780 C   0  0  0  0  0  0  0  0  0  0  0  0
  137.7810   69.7240  222.5100 C   0  0  0  0  0  0  0  0  0  0  0  0
  138.6960   68.8680  223.4030 C   0  0  0  0  0  0  0  0  0  0  0  0
  139.3480   69.7350  224.4350 C   0  0  0  0  0  0  0  0  0  0  0  0
  139.5340   71.1000  224.3020 C   0  0  0  0  0  0  0  0  0  0  0  0
  140.1180   71.6170  225.4080 N   0  0  0  0  0  0  0  0  0  0  0  0
  140.3690   70.5620  226.2060 C   0  0  0  0  0  0  0  0  0  0  0  0
  141.0060   70.5750  227.4450 C   0  0  0  0  0  0  0  0  0  0  0  0
  141.1770   69.3460  228.1100 C   0  0  0  0  0  0  0  0  0  0  0  0
  140.7090   68.1470  227.5290 C   0  0  0  0  0  0  0  0  0  0  0  0
  140.0670   68.1620  226.2770 C   0  0  0  0  0  0  0  0  0  0  0  0
  139.9160   69.3930  225.6420 C   0  0  0  0  0  0  0  0  0  0  0  0
  143.9419   75.7355  220.5604 H   0  0  0  0  0  0  0  0  0  0  0  0
  145.3514   73.7458  220.1228 H   0  0  0  0  0  0  0  0  0  0  0  0
  144.3175   71.5073  219.8829 H   0  0  0  0  0  0  0  0  0  0  0  0
  139.4704   73.9799  220.9231 H   0  0  0  0  0  0  0  0  0  0  0  0
  139.6742   72.1931  220.7075 H   0  0  0  0  0  0  0  0  0  0  0  0
  139.7620   73.8190  223.1100 H   0  0  0  0  0  0  0  0  0  0  0  0
  138.1453   72.4598  223.4864 H   0  0  0  0  0  0  0  0  0  0  0  0
  137.8226   71.5447  221.3424 H   0  0  0  0  0  0  0  0  0  0  0  0
  139.3917   70.6309  221.4095 H   0  0  0  0  0  0  0  0  0  0  0  0
  136.9084   70.0457  223.0973 H   0  0  0  0  0  0  0  0  0  0  0  0
  137.4713   69.1135  221.6490 H   0  0  0  0  0  0  0  0  0  0  0  0
  138.0974   68.0920  223.9025 H   0  0  0  0  0  0  0  0  0  0  0  0
  139.4710   68.3942  222.7826 H   0  0  0  0  0  0  0  0  0  0  0  0
  140.3270   72.6200  225.6050 H   0  0  0  0  0  0  0  0  0  0  0  0
  141.3638   71.5154  227.8894 H   0  0  0  0  0  0  0  0  0  0  0  0
  141.6785   69.3195  229.0887 H   0  0  0  0  0  0  0  0  0  0  0  0
  140.8475   67.1934  228.0596 H   0  0  0  0  0  0  0  0  0  0  0  0
  139.6973   67.2344  225.8157 H   0  0  0  0  0  0  0  0  0  0  0  0
  1  2  1  0
  2  3  1  0
  2  4  1  0
  2  5  1  0
  5  6  2  0
  6  7  1  0
  7  8  2  0
  8  9  1  0
  9 10  1  0
 10 11  1  0
 10 12  1  0
 10 13  1  0
  9 14  2  0
 14 15  1  0
 15 16  1  0
 16 17  1  0
 17 18  1  0
 18 19  1  0
 19 20  1  0
 20 21  1  0
 21 22  2  0
 22 23  1  0
 23 24  1  0
 24 25  2  0
 25 26  1  0
 26 27  2  0
 27 28  1  0
 28 29  2  0
 14  5  1  0
 22 17  1  0
 29 24  1  0
 29 21  1  0
  6 30  1  0
  7 31  1  0
  8 32  1  0
 15 33  1  0
 15 34  1  0
 16 35  1  0
 17 36  1  1
 18 37  1  0
 18 38  1  0
 19 39  1  0
 19 40  1  0
 20 41  1  0
 20 42  1  0
 23 43  1  0
 25 44  1  0
 26 45  1  0
 27 46  1  0
 28 47  1  0
M  END
>  <UniqueID>  (77) 
32

>  <SMILES>  (77) 
FC(F)(F)c1cccc(C(F)(F)F)c1CN[C@H]1CCCc2c1[nH]c1ccccc21

>  <Energy>  (77) 
95.72876901229523

>  <Genealogy>  (77) 
FC(F)(F)c1cccc(C(F)(F)F)c1CN[C@H]1CCCc2c1[nH]c1ccccc21 (chirality)
FC(F)(F)c1cccc(C(F)(F)F)c1CN[C@H]1CCCc2c1[nH]c1ccccc21 (3D coordinates assigned)
FC(F)(F)c1cccc(C(F)(F)F)c1CN[C@H]1CCCc2c1[nH]c1ccccc21 (nonaromatic ring conformer: 95.72876901229523 kcal/mol)

>  <smiles>  (77) 
FC(F)(F)c1cccc(C(F)(F)F)c1CNC1CCCc2c1[nH]c1ccccc21

>  <score_type>  (77) 
oracle

>  <origin>  (77) 
autodockgpu

>  <m_score__min__energy>  (77) 
-7.21

>  <m_primary>  (77) 
energy

>  <meeko>  (77) 
{"free_energy": -6.84, "intermolecular_energy": -8.33, "internal_energy": -1.17, "cluster_size": 17, "cluster_id": 1, "rank_in_cluster": 13}

>  <energy>  (77) 
-6.12

>  <cluster_rmsd>  (77) 
1.77

>  <rmsd>  (77) 
269.47

>  <cluster>  (77) 
1

$$$$
OEDLLKAXDUWBBK-SFHVURJKNA-N
     RDKit          3D

 47 50  0  0  0  0  0  0  0  0999 V2000
  136.3290   76.5110  223.3480 F   0  0  0  0  0  0  0  0  0  0  0  0
  136.8830   75.5880  222.4820 C   0  0  0  0  0  0  0  0  0  0  0  0
  136.2320   75.6480  221.2630 F   0  0  0  0  0  0  0  0  0  0  0  0
  136.6600   74.3350  223.0300 F   0  0  0  0  0  0  0  0  0  0  0  0
  138.3700   75.8330  222.2800 C   0  0  0  0  0  0  0  0  0  0  0  0
  138.8660   77.1060  222.6140 C   0  0  0  0  0  0  0  0  0  0  0  0
  140.2070   77.4210  222.4410 C   0  0  0  0  0  0  0  0  0  0  0  0
  141.0770   76.4910  221.8920 C   0  0  0  0  0  0  0  0  0  0  0  0
  140.6350   75.2030  221.5430 C   0  0  0  0  0  0  0  0  0  0  0  0
  141.6190   74.2660  220.8570 C   0  0  0  0  0  0  0  0  0  0  0  0
  141.8430   73.1220  221.6060 F   0  0  0  0  0  0  0  0  0  0  0  0
  141.1270   73.8810  219.6250 F   0  0  0  0  0  0  0  0  0  0  0  0
  142.8400   74.8940  220.6930 F   0  0  0  0  0  0  0  0  0  0  0  0
  139.2890   74.8220  221.8460 C   0  0  0  0  0  0  0  0  0  0  0  0
  138.8500   73.3650  221.7210 C   0  0  0  0  0  0  0  0  0  0  0  0
  139.5360   72.5070  222.7100 N   0  0  0  0  0  0  0  0  0  0  0  0
  138.7190   71.4240  223.3010 C   0  0  1  0  0  0  0  0  0  0  0  0
  138.2950   70.3550  222.2480 C   0  0  0  0  0  0  0  0  0  0  0  0
  137.7530   69.0700  222.9070 C   0  0  0  0  0  0  0  0  0  0  0  0
  138.8080   68.4120  223.8150 C   0  0  0  0  0  0  0  0  0  0  0  0
  139.3800   69.4350  224.7460 C   0  0  0  0  0  0  0  0  0  0  0  0
  139.3800   70.7970  224.5030 C   0  0  0  0  0  0  0  0  0  0  0  0
  139.9350   71.4720  225.5370 N   0  0  0  0  0  0  0  0  0  0  0  0
  140.3540   70.5250  226.3980 C   0  0  0  0  0  0  0  0  0  0  0  0
  141.0320   70.7180  227.5990 C   0  0  0  0  0  0  0  0  0  0  0  0
  141.3890   69.5780  228.3440 C   0  0  0  0  0  0  0  0  0  0  0  0
  141.0590   68.2860  227.8780 C   0  0  0  0  0  0  0  0  0  0  0  0
  140.3720   68.1190  226.6610 C   0  0  0  0  0  0  0  0  0  0  0  0
  140.0360   69.2660  225.9450 C   0  0  0  0  0  0  0  0  0  0  0  0
  138.1801   77.8646  223.0190 H   0  0  0  0  0  0  0  0  0  0  0  0
  140.5806   78.4114  222.7403 H   0  0  0  0  0  0  0  0  0  0  0  0
  142.1294   76.7655  221.7271 H   0  0  0  0  0  0  0  0  0  0  0  0
  137.7642   73.3032  221.8860 H   0  0  0  0  0  0  0  0  0  0  0  0
  139.1133   73.0099  220.7137 H   0  0  0  0  0  0  0  0  0  0  0  0
  139.8930   73.1100  223.4890 H   0  0  0  0  0  0  0  0  0  0  0  0
  137.7939   71.8997  223.6586 H   0  0  0  0  0  0  0  0  0  0  0  0
  137.5103   70.7819  221.6062 H   0  0  0  0  0  0  0  0  0  0  0  0
  139.1870   70.0843  221.6640 H   0  0  0  0  0  0  0  0  0  0  0  0
  136.8697   69.3237  223.5115 H   0  0  0  0  0  0  0  0  0  0  0  0
  137.4916   68.3580  222.1103 H   0  0  0  0  0  0  0  0  0  0  0  0
  138.3371   67.6080  224.3997 H   0  0  0  0  0  0  0  0  0  0  0  0
  139.6136   67.9934  223.1939 H   0  0  0  0  0  0  0  0  0  0  0  0
  140.0190   72.5060  225.6480 H   0  0  0  0  0  0  0  0  0  0  0  0
  141.2807   71.7289  227.9542 H   0  0  0  0  0  0  0  0  0  0  0  0
  141.9286   69.6942  229.2955 H   0  0  0  0  0  0  0  0  0  0  0  0
  141.3412   67.4035  228.4709 H   0  0  0  0  0  0  0  0  0  0  0  0
  140.1095   67.1179  226.2882 H   0  0  0  0  0  0  0  0  0  0  0  0
  1  2  1  0
  2  3  1  0
  2  4  1  0
  2  5  1  0
  5  6  2  0
  6  7  1  0
  7  8  2  0
  8  9  1  0
  9 10  1  0
 10 11  1  0
 10 12  1  0
 10 13  1  0
  9 14  2  0
 14 15  1  0
 15 16  1  0
 16 17  1  0
 17 18  1  0
 18 19  1  0
 19 20  1  0
 20 21  1  0
 21 22  2  0
 22 23  1  0
 23 24  1  0
 24 25  2  0
 25 26  1  0
 26 27  2  0
 27 28  1  0
 28 29  2  0
 14  5  1  0
 22 17  1  0
 29 24  1  0
 29 21  1  0
  6 30  1  0
  7 31  1  0
  8 32  1  0
 15 33  1  0
 15 34  1  0
 16 35  1  0
 17 36  1  1
 18 37  1  0
 18 38  1  0
 19 39  1  0
 19 40  1  0
 20 41  1  0
 20 42  1  0
 23 43  1  0
 25 44  1  0
 26 45  1  0
 27 46  1  0
 28 47  1  0
M  END
>  <UniqueID>  (78) 
32

>  <SMILES>  (78) 
FC(F)(F)c1cccc(C(F)(F)F)c1CN[C@H]1CCCc2c1[nH]c1ccccc21

>  <Energy>  (78) 
95.72876901229523

>  <Genealogy>  (78) 
FC(F)(F)c1cccc(C(F)(F)F)c1CN[C@H]1CCCc2c1[nH]c1ccccc21 (chirality)
FC(F)(F)c1cccc(C(F)(F)F)c1CN[C@H]1CCCc2c1[nH]c1ccccc21 (3D coordinates assigned)
FC(F)(F)c1cccc(C(F)(F)F)c1CN[C@H]1CCCc2c1[nH]c1ccccc21 (nonaromatic ring conformer: 95.72876901229523 kcal/mol)

>  <smiles>  (78) 
FC(F)(F)c1cccc(C(F)(F)F)c1CNC1CCCc2c1[nH]c1ccccc21

>  <score_type>  (78) 
oracle

>  <origin>  (78) 
autodockgpu

>  <m_score__min__energy>  (78) 
-7.21

>  <m_primary>  (78) 
energy

>  <meeko>  (78) 
{"free_energy": -6.87, "intermolecular_energy": -8.37, "internal_energy": -0.9, "cluster_size": 17, "cluster_id": 1, "rank_in_cluster": 9}

>  <energy>  (78) 
-6.52

>  <cluster_rmsd>  (78) 
0.0

>  <rmsd>  (78) 
270.25

>  <cluster>  (78) 
2

$$$$
OEDLLKAXDUWBBK-SFHVURJKNA-N
     RDKit          3D

 47 50  0  0  0  0  0  0  0  0999 V2000
  140.0860   75.8900  220.2760 F   0  0  0  0  0  0  0  0  0  0  0  0
  141.2930   75.9120  220.9470 C   0  0  0  0  0  0  0  0  0  0  0  0
  141.0670   76.0580  222.3040 F   0  0  0  0  0  0  0  0  0  0  0  0
  141.9830   77.0270  220.5010 F   0  0  0  0  0  0  0  0  0  0  0  0
  142.0950   74.6440  220.6960 C   0  0  0  0  0  0  0  0  0  0  0  0
  143.4800   74.7820  220.5020 C   0  0  0  0  0  0  0  0  0  0  0  0
  144.2830   73.6790  220.2460 C   0  0  0  0  0  0  0  0  0  0  0  0
  143.7190   72.4170  220.1330 C   0  0  0  0  0  0  0  0  0  0  0  0
  142.3390   72.2210  220.3200 C   0  0  0  0  0  0  0  0  0  0  0  0
  141.7730   70.8270  220.0880 C   0  0  0  0  0  0  0  0  0  0  0  0
  141.0710   70.3700  221.1910 F   0  0  0  0  0  0  0  0  0  0  0  0
  140.9120   70.8400  219.0080 F   0  0  0  0  0  0  0  0  0  0  0  0
  142.7990   69.9290  219.8540 F   0  0  0  0  0  0  0  0  0  0  0  0
  141.5260   73.3280  220.7220 C   0  0  0  0  0  0  0  0  0  0  0  0
  140.0870   73.1040  221.1820 C   0  0  0  0  0  0  0  0  0  0  0  0
  140.0110   72.9100  222.6460 N   0  0  0  0  0  0  0  0  0  0  0  0
  139.0380   71.8980  223.1130 C   0  0  1  0  0  0  0  0  0  0  0  0
  138.5500   70.9660  221.9620 C   0  0  0  0  0  0  0  0  0  0  0  0
  137.8210   69.7150  222.4940 C   0  0  0  0  0  0  0  0  0  0  0  0
  138.7360   68.8700  223.3980 C   0  0  0  0  0  0  0  0  0  0  0  0
  139.3730   69.7470  224.4310 C   0  0  0  0  0  0  0  0  0  0  0  0
  139.5500   71.1120  224.2940 C   0  0  0  0  0  0  0  0  0  0  0  0
  140.1210   71.6390  225.4010 N   0  0  0  0  0  0  0  0  0  0  0  0
  140.3740   70.5900  226.2070 C   0  0  0  0  0  0  0  0  0  0  0  0
  141.0010   70.6130  227.4500 C   0  0  0  0  0  0  0  0  0  0  0  0
  141.1750   69.3890  228.1220 C   0  0  0  0  0  0  0  0  0  0  0  0
  140.7210   68.1830  227.5440 C   0  0  0  0  0  0  0  0  0  0  0  0
  140.0890   68.1870  226.2860 C   0  0  0  0  0  0  0  0  0  0  0  0
  139.9340   69.4150  225.6440 C   0  0  0  0  0  0  0  0  0  0  0  0
  143.9358   75.7818  220.5539 H   0  0  0  0  0  0  0  0  0  0  0  0
  145.3697   73.8062  220.1325 H   0  0  0  0  0  0  0  0  0  0  0  0
  144.3608   71.5563  219.8935 H   0  0  0  0  0  0  0  0  0  0  0  0
  139.4826   73.9805  220.9056 H   0  0  0  0  0  0  0  0  0  0  0  0
  139.7053   72.1957  220.6928 H   0  0  0  0  0  0  0  0  0  0  0  0
  139.7710   73.8260  223.0950 H   0  0  0  0  0  0  0  0  0  0  0  0
  138.1574   72.4576  223.4615 H   0  0  0  0  0  0  0  0  0  0  0  0
  137.8602   71.5306  221.3175 H   0  0  0  0  0  0  0  0  0  0  0  0
  139.4351   70.6286  221.4028 H   0  0  0  0  0  0  0  0  0  0  0  0
  136.9416   70.0332  223.0732 H   0  0  0  0  0  0  0  0  0  0  0  0
  137.5215   69.0984  221.6337 H   0  0  0  0  0  0  0  0  0  0  0  0
  138.1398   68.0915  223.8964 H   0  0  0  0  0  0  0  0  0  0  0  0
  139.5195   68.3995  222.7858 H   0  0  0  0  0  0  0  0  0  0  0  0
  140.3220   72.6450  225.5950 H   0  0  0  0  0  0  0  0  0  0  0  0
  141.3492   71.5579  227.8926 H   0  0  0  0  0  0  0  0  0  0  0  0
  141.6684   69.3713  229.1050 H   0  0  0  0  0  0  0  0  0  0  0  0
  140.8623   67.2333  228.0808 H   0  0  0  0  0  0  0  0  0  0  0  0
  139.7302   67.2545  225.8259 H   0  0  0  0  0  0  0  0  0  0  0  0
  1  2  1  0
  2  3  1  0
  2  4  1  0
  2  5  1  0
  5  6  2  0
  6  7  1  0
  7  8  2  0
  8  9  1  0
  9 10  1  0
 10 11  1  0
 10 12  1  0
 10 13  1  0
  9 14  2  0
 14 15  1  0
 15 16  1  0
 16 17  1  0
 17 18  1  0
 18 19  1  0
 19 20  1  0
 20 21  1  0
 21 22  2  0
 22 23  1  0
 23 24  1  0
 24 25  2  0
 25 26  1  0
 26 27  2  0
 27 28  1  0
 28 29  2  0
 14  5  1  0
 22 17  1  0
 29 24  1  0
 29 21  1  0
  6 30  1  0
  7 31  1  0
  8 32  1  0
 15 33  1  0
 15 34  1  0
 16 35  1  0
 17 36  1  1
 18 37  1  0
 18 38  1  0
 19 39  1  0
 19 40  1  0
 20 41  1  0
 20 42  1  0
 23 43  1  0
 25 44  1  0
 26 45  1  0
 27 46  1  0
 28 47  1  0
M  END
>  <UniqueID>  (79) 
32

>  <SMILES>  (79) 
FC(F)(F)c1cccc(C(F)(F)F)c1CN[C@H]1CCCc2c1[nH]c1ccccc21

>  <Energy>  (79) 
95.72876901229523

>  <Genealogy>  (79) 
FC(F)(F)c1cccc(C(F)(F)F)c1CN[C@H]1CCCc2c1[nH]c1ccccc21 (chirality)
FC(F)(F)c1cccc(C(F)(F)F)c1CN[C@H]1CCCc2c1[nH]c1ccccc21 (3D coordinates assigned)
FC(F)(F)c1cccc(C(F)(F)F)c1CN[C@H]1CCCc2c1[nH]c1ccccc21 (nonaromatic ring conformer: 95.72876901229523 kcal/mol)

>  <smiles>  (79) 
FC(F)(F)c1cccc(C(F)(F)F)c1CNC1CCCc2c1[nH]c1ccccc21

>  <score_type>  (79) 
oracle

>  <origin>  (79) 
autodockgpu

>  <m_score__min__energy>  (79) 
-7.21

>  <m_primary>  (79) 
energy

>  <meeko>  (79) 
{"free_energy": -6.86, "intermolecular_energy": -8.35, "internal_energy": -1.16, "cluster_size": 17, "cluster_id": 1, "rank_in_cluster": 12}

>  <energy>  (79) 
-6.5

>  <cluster_rmsd>  (79) 
0.06

>  <rmsd>  (79) 
270.27

>  <cluster>  (79) 
2

$$$$
OEDLLKAXDUWBBK-SFHVURJKNA-N
     RDKit          3D

 47 50  0  0  0  0  0  0  0  0999 V2000
  141.9180   73.2010  219.5160 F   0  0  0  0  0  0  0  0  0  0  0  0
  142.0830   73.6450  220.8140 C   0  0  0  0  0  0  0  0  0  0  0  0
  143.1780   74.4860  220.8820 F   0  0  0  0  0  0  0  0  0  0  0  0
  142.3460   72.5290  221.5920 F   0  0  0  0  0  0  0  0  0  0  0  0
  140.8460   74.3740  221.3160 C   0  0  0  0  0  0  0  0  0  0  0  0
  141.0070   75.7060  221.7370 C   0  0  0  0  0  0  0  0  0  0  0  0
  139.9340   76.4370  222.2290 C   0  0  0  0  0  0  0  0  0  0  0  0
  138.6850   75.8460  222.3540 C   0  0  0  0  0  0  0  0  0  0  0  0
  138.4680   74.5180  221.9460 C   0  0  0  0  0  0  0  0  0  0  0  0
  137.0990   73.9030  222.2000 C   0  0  0  0  0  0  0  0  0  0  0  0
  137.1890   72.7560  222.9710 F   0  0  0  0  0  0  0  0  0  0  0  0
  136.2910   74.8040  222.8640 F   0  0  0  0  0  0  0  0  0  0  0  0
  136.5080   73.5460  221.0010 F   0  0  0  0  0  0  0  0  0  0  0  0
  139.5310   73.8020  221.3090 C   0  0  0  0  0  0  0  0  0  0  0  0
  139.2610   72.4630  220.6260 C   0  0  0  0  0  0  0  0  0  0  0  0
  139.8400   71.3390  221.3920 N   0  0  0  0  0  0  0  0  0  0  0  0
  138.9530   70.7240  222.4040 C   0  0  1  0  0  0  0  0  0  0  0  0
  138.5220   69.2760  222.0170 C   0  0  0  0  0  0  0  0  0  0  0  0
  137.8970   68.5170  223.2060 C   0  0  0  0  0  0  0  0  0  0  0  0
  138.8850   68.3920  224.3790 C   0  0  0  0  0  0  0  0  0  0  0  0
  139.4670   69.7360  224.6920 C   0  0  0  0  0  0  0  0  0  0  0  0
  139.5380   70.7840  223.7920 C   0  0  0  0  0  0  0  0  0  0  0  0
  140.0820   71.8800  224.3700 N   0  0  0  0  0  0  0  0  0  0  0  0
  140.4240   71.4970  225.6140 C   0  0  0  0  0  0  0  0  0  0  0  0
  141.0640   72.2620  226.5860 C   0  0  0  0  0  0  0  0  0  0  0  0
  141.3390   71.6540  227.8260 C   0  0  0  0  0  0  0  0  0  0  0  0
  140.9700   70.3110  228.0620 C   0  0  0  0  0  0  0  0  0  0  0  0
  140.3240   69.5600  227.0630 C   0  0  0  0  0  0  0  0  0  0  0  0
  140.0670   70.1890  225.8460 C   0  0  0  0  0  0  0  0  0  0  0  0
  141.9994   76.1766  221.6755 H   0  0  0  0  0  0  0  0  0  0  0  0
  140.0747   77.4883  222.5207 H   0  0  0  0  0  0  0  0  0  0  0  0
  137.8518   76.4251  222.7788 H   0  0  0  0  0  0  0  0  0  0  0  0
  138.1740   72.3167  220.5428 H   0  0  0  0  0  0  0  0  0  0  0  0
  139.7303   72.4815  219.6313 H   0  0  0  0  0  0  0  0  0  0  0  0
  140.7070   71.6720  221.8760 H   0  0  0  0  0  0  0  0  0  0  0  0
  138.0372   71.3331  222.4186 H   0  0  0  0  0  0  0  0  0  0  0  0
  137.7829   69.3316  221.2042 H   0  0  0  0  0  0  0  0  0  0  0  0
  139.4225   68.7282  221.7022 H   0  0  0  0  0  0  0  0  0  0  0  0
  137.0041   69.0611  223.5475 H   0  0  0  0  0  0  0  0  0  0  0  0
  137.6336   67.5039  222.8679 H   0  0  0  0  0  0  0  0  0  0  0  0
  138.3562   68.0072  225.2635 H   0  0  0  0  0  0  0  0  0  0  0  0
  139.6937   67.6994  224.1028 H   0  0  0  0  0  0  0  0  0  0  0  0
  140.2080   72.8250  223.9450 H   0  0  0  0  0  0  0  0  0  0  0  0
  141.3456   73.3074  226.3914 H   0  0  0  0  0  0  0  0  0  0  0  0
  141.8445   72.2286  228.6161 H   0  0  0  0  0  0  0  0  0  0  0  0
  141.1897   69.8483  229.0355 H   0  0  0  0  0  0  0  0  0  0  0  0
  140.0321   68.5137  227.2362 H   0  0  0  0  0  0  0  0  0  0  0  0
  1  2  1  0
  2  3  1  0
  2  4  1  0
  2  5  1  0
  5  6  2  0
  6  7  1  0
  7  8  2  0
  8  9  1  0
  9 10  1  0
 10 11  1  0
 10 12  1  0
 10 13  1  0
  9 14  2  0
 14 15  1  0
 15 16  1  0
 16 17  1  0
 17 18  1  0
 18 19  1  0
 19 20  1  0
 20 21  1  0
 21 22  2  0
 22 23  1  0
 23 24  1  0
 24 25  2  0
 25 26  1  0
 26 27  2  0
 27 28  1  0
 28 29  2  0
 14  5  1  0
 22 17  1  0
 29 24  1  0
 29 21  1  0
  6 30  1  0
  7 31  1  0
  8 32  1  0
 15 33  1  0
 15 34  1  0
 16 35  1  0
 17 36  1  1
 18 37  1  0
 18 38  1  0
 19 39  1  0
 19 40  1  0
 20 41  1  0
 20 42  1  0
 23 43  1  0
 25 44  1  0
 26 45  1  0
 27 46  1  0
 28 47  1  0
M  END
>  <UniqueID>  (80) 
32

>  <SMILES>  (80) 
FC(F)(F)c1cccc(C(F)(F)F)c1CN[C@H]1CCCc2c1[nH]c1ccccc21

>  <Energy>  (80) 
95.72876901229523

>  <Genealogy>  (80) 
FC(F)(F)c1cccc(C(F)(F)F)c1CN[C@H]1CCCc2c1[nH]c1ccccc21 (chirality)
FC(F)(F)c1cccc(C(F)(F)F)c1CN[C@H]1CCCc2c1[nH]c1ccccc21 (3D coordinates assigned)
FC(F)(F)c1cccc(C(F)(F)F)c1CN[C@H]1CCCc2c1[nH]c1ccccc21 (nonaromatic ring conformer: 95.72876901229523 kcal/mol)

>  <smiles>  (80) 
FC(F)(F)c1cccc(C(F)(F)F)c1CNC1CCCc2c1[nH]c1ccccc21

>  <score_type>  (80) 
oracle

>  <origin>  (80) 
autodockgpu

>  <m_score__min__energy>  (80) 
-7.21

>  <m_primary>  (80) 
energy

>  <meeko>  (80) 
{"free_energy": -6.12, "intermolecular_energy": -7.61, "internal_energy": -1.5, "cluster_size": 17, "cluster_id": 1, "rank_in_cluster": 17}

>  <energy>  (80) 
-6.46

>  <cluster_rmsd>  (80) 
0.15

>  <rmsd>  (80) 
270.26

>  <cluster>  (80) 
2

$$$$
