
     RDKit          3D

 52 55  0  0  0  0  0  0  0  0999 V2000
  141.9400   72.4880  220.8840 O   0  0  0  0  0  0  0  0  0  0  0  0
  141.1880   73.2970  221.5150 C   0  0  0  0  0  0  0  0  0  0  0  0
  140.2110   72.8620  222.4500 N   0  0  0  0  0  0  0  0  0  0  0  0
  140.0010   71.4410  222.7550 C   0  0  0  0  0  0  0  0  0  0  0  0
  138.5410   71.2630  222.8670 C   0  0  0  0  0  0  0  0  0  0  0  0
  137.7880   72.2830  222.9960 O   0  0  0  0  0  0  0  0  0  0  0  0
  137.8810   70.0090  222.8410 N   0  0  0  0  0  0  0  0  0  0  0  0
  138.3480   68.8610  222.0890 C   0  0  0  0  0  0  0  0  0  0  0  0
  137.0210   68.4060  221.4850 C   0  0  0  0  0  0  0  0  0  0  0  0
  136.1580   68.3790  222.7270 C   0  0  0  0  0  0  0  0  0  0  0  0
  136.6680   69.5700  223.5000 C   0  0  1  0  0  0  0  0  0  0  0  0
  137.0310   69.1900  224.9220 C   0  0  0  0  0  0  0  0  0  0  0  0
  138.2430   68.5040  224.9980 O   0  0  0  0  0  0  0  0  0  0  0  0
  139.1860   68.8190  225.9660 C   0  0  0  0  0  0  0  0  0  0  0  0
  139.7370   67.8720  226.8170 C   0  0  0  0  0  0  0  0  0  0  0  0
  140.6680   68.1890  227.7730 C   0  0  0  0  0  0  0  0  0  0  0  0
  141.0720   69.5230  227.8830 C   0  0  0  0  0  0  0  0  0  0  0  0
  140.5530   70.5070  227.0570 C   0  0  0  0  0  0  0  0  0  0  0  0
  141.0960   72.1400  227.2460 Cl  0  0  0  0  0  0  0  0  0  0  0  0
  139.6270   70.1140  226.1280 C   0  0  0  0  0  0  0  0  0  0  0  0
  141.3230   74.7500  221.2780 C   0  0  0  0  0  0  0  0  0  0  0  0
  142.1210   75.1860  220.2240 C   0  0  0  0  0  0  0  0  0  0  0  0
  142.2360   76.5620  220.0170 C   0  0  0  0  0  0  0  0  0  0  0  0
  141.5660   77.4210  220.8500 C   0  0  0  0  0  0  0  0  0  0  0  0
  141.6380   78.7970  220.6980 C   0  0  0  0  0  0  0  0  0  0  0  0
  140.9710   79.6750  221.5280 C   0  0  0  0  0  0  0  0  0  0  0  0
  141.0360   81.4000  221.3710 Cl  0  0  0  0  0  0  0  0  0  0  0  0
  140.1930   79.1420  222.5600 C   0  0  0  0  0  0  0  0  0  0  0  0
  140.0940   77.7750  222.7480 C   0  0  0  0  0  0  0  0  0  0  0  0
  140.7850   76.9590  221.8850 C   0  0  0  0  0  0  0  0  0  0  0  0
  140.6910   75.6410  222.0620 N   0  0  0  0  0  0  0  0  0  0  0  0
  139.6330   73.5830  222.9280 H   0  0  0  0  0  0  0  0  0  0  0  0
  140.4021   70.8127  221.9461 H   0  0  0  0  0  0  0  0  0  0  0  0
  140.5160   71.1464  223.6813 H   0  0  0  0  0  0  0  0  0  0  0  0
  139.0763   69.1449  221.3151 H   0  0  0  0  0  0  0  0  0  0  0  0
  138.8831   68.1001  222.6761 H   0  0  0  0  0  0  0  0  0  0  0  0
  136.6438   69.1242  220.7421 H   0  0  0  0  0  0  0  0  0  0  0  0
  137.0665   67.4553  220.9335 H   0  0  0  0  0  0  0  0  0  0  0  0
  135.0935   68.4941  222.4748 H   0  0  0  0  0  0  0  0  0  0  0  0
  136.2194   67.4331  223.2851 H   0  0  0  0  0  0  0  0  0  0  0  0
  135.8896   70.3466  223.5309 H   0  0  0  0  0  0  0  0  0  0  0  0
  137.1064   70.1075  225.5241 H   0  0  0  0  0  0  0  0  0  0  0  0
  136.2439   68.5215  225.3010 H   0  0  0  0  0  0  0  0  0  0  0  0
  139.4142   66.8248  226.7212 H   0  0  0  0  0  0  0  0  0  0  0  0
  141.0851   67.4155  228.4346 H   0  0  0  0  0  0  0  0  0  0  0  0
  141.8188   69.7976  228.6425 H   0  0  0  0  0  0  0  0  0  0  0  0
  139.2065   70.8851  225.4658 H   0  0  0  0  0  0  0  0  0  0  0  0
  142.6446   74.4690  219.5746 H   0  0  0  0  0  0  0  0  0  0  0  0
  142.8560   76.9520  219.1963 H   0  0  0  0  0  0  0  0  0  0  0  0
  142.2521   79.2059  219.8821 H   0  0  0  0  0  0  0  0  0  0  0  0
  139.6503   79.8211  223.2340 H   0  0  0  0  0  0  0  0  0  0  0  0
  139.4829   77.3555  223.5607 H   0  0  0  0  0  0  0  0  0  0  0  0
  1  2  2  0
  2  3  1  0
  3  4  1  0
  4  5  1  0
  5  6  2  0
  5  7  1  0
  7  8  1  0
  8  9  1  0
  9 10  1  0
 10 11  1  0
 11 12  1  0
 12 13  1  0
 13 14  1  0
 14 15  2  0
 15 16  1  0
 16 17  2  0
 17 18  1  0
 18 19  1  0
 18 20  2  0
  2 21  1  0
 21 22  2  0
 22 23  1  0
 23 24  2  0
 24 25  1  0
 25 26  2  0
 26 27  1  0
 26 28  1  0
 28 29  2  0
 29 30  1  0
 30 31  2  0
 11  7  1  0
 20 14  1  0
 31 21  1  0
 30 24  1  0
  3 32  1  0
  4 33  1  0
  4 34  1  0
  8 35  1  0
  8 36  1  0
  9 37  1  0
  9 38  1  0
 10 39  1  0
 10 40  1  0
 11 41  1  1
 12 42  1  0
 12 43  1  0
 15 44  1  0
 16 45  1  0
 17 46  1  0
 20 47  1  0
 22 48  1  0
 23 49  1  0
 25 50  1  0
 28 51  1  0
 29 52  1  0
M  END
>  <smiles>  (1) 
O=C(NCC(=O)N1CCC[C@H]1COc1cccc(Cl)c1)c1ccc2cc(Cl)ccc2n1

>  <score_type>  (1) 
oracle

>  <origin>  (1) 
autodockgpu

>  <m_score__min__energy>  (1) 
-8.7599999999999998

>  <m_primary>  (1) 
energy

>  <meeko>  (1) 
{"free_energy": -8.14, "intermolecular_energy": -10.22, "internal_energy": -2.53, "cluster_size": 3, "cluster_id": 2, "rank_in_cluster": 3}

>  <energy>  (1) 
-8.76

>  <cluster_rmsd>  (1) 
0.0

>  <rmsd>  (1) 
270.83

>  <cluster>  (1) 
1

$$$$

     RDKit          3D

 52 55  0  0  0  0  0  0  0  0999 V2000
  141.3390   72.8020  221.0370 O   0  0  0  0  0  0  0  0  0  0  0  0
  140.5790   73.6700  221.5730 C   0  0  0  0  0  0  0  0  0  0  0  0
  139.4130   73.3190  222.3050 N   0  0  0  0  0  0  0  0  0  0  0  0
  139.0030   71.9230  222.4950 C   0  0  0  0  0  0  0  0  0  0  0  0
  137.5560   71.9610  222.7770 C   0  0  0  0  0  0  0  0  0  0  0  0
  136.9090   73.0470  222.6130 O   0  0  0  0  0  0  0  0  0  0  0  0
  136.7960   70.8530  223.2310 N   0  0  0  0  0  0  0  0  0  0  0  0
  135.4720   70.5240  222.7460 C   0  0  0  0  0  0  0  0  0  0  0  0
  134.7890   70.2160  224.0780 C   0  0  0  0  0  0  0  0  0  0  0  0
  135.7940   69.2570  224.6760 C   0  0  0  0  0  0  0  0  0  0  0  0
  137.1090   69.8390  224.2170 C   0  0  1  0  0  0  0  0  0  0  0  0
  137.9680   68.7900  223.5380 C   0  0  0  0  0  0  0  0  0  0  0  0
  138.8250   68.1440  224.4290 O   0  0  0  0  0  0  0  0  0  0  0  0
  139.5700   68.8590  225.3550 C   0  0  0  0  0  0  0  0  0  0  0  0
  139.9590   70.1760  225.1530 C   0  0  0  0  0  0  0  0  0  0  0  0
  140.6960   70.8780  226.0720 C   0  0  0  0  0  0  0  0  0  0  0  0
  141.0640   70.2320  227.2560 C   0  0  0  0  0  0  0  0  0  0  0  0
  140.7000   68.9180  227.5050 C   0  0  0  0  0  0  0  0  0  0  0  0
  141.1880   68.1760  228.9920 Cl  0  0  0  0  0  0  0  0  0  0  0  0
  139.9660   68.2820  226.5420 C   0  0  0  0  0  0  0  0  0  0  0  0
  140.9080   75.1060  221.4380 C   0  0  0  0  0  0  0  0  0  0  0  0
  141.8090   75.4970  220.4520 C   0  0  0  0  0  0  0  0  0  0  0  0
  142.1070   76.8560  220.3410 C   0  0  0  0  0  0  0  0  0  0  0  0
  141.5060   77.7440  221.1980 C   0  0  0  0  0  0  0  0  0  0  0  0
  141.7580   79.1050  221.1400 C   0  0  0  0  0  0  0  0  0  0  0  0
  141.1630   80.0120  221.9940 C   0  0  0  0  0  0  0  0  0  0  0  0
  141.4510   81.7200  221.9530 Cl  0  0  0  0  0  0  0  0  0  0  0  0
  140.2700   79.5220  222.9520 C   0  0  0  0  0  0  0  0  0  0  0  0
  139.9900   78.1710  223.0450 C   0  0  0  0  0  0  0  0  0  0  0  0
  140.6180   77.3250  222.1630 C   0  0  0  0  0  0  0  0  0  0  0  0
  140.3510   76.0220  222.2490 N   0  0  0  0  0  0  0  0  0  0  0  0
  138.8410   74.0850  222.7140 H   0  0  0  0  0  0  0  0  0  0  0  0
  139.2000   71.3391  221.5838 H   0  0  0  0  0  0  0  0  0  0  0  0
  139.5615   71.4462  223.3140 H   0  0  0  0  0  0  0  0  0  0  0  0
  135.0009   71.3731  222.2292 H   0  0  0  0  0  0  0  0  0  0  0  0
  135.4323   69.7165  222.0001 H   0  0  0  0  0  0  0  0  0  0  0  0
  134.6708   71.1195  224.6942 H   0  0  0  0  0  0  0  0  0  0  0  0
  133.7663   69.8200  223.9924 H   0  0  0  0  0  0  0  0  0  0  0  0
  135.7264   69.2430  225.7738 H   0  0  0  0  0  0  0  0  0  0  0  0
  135.6433   68.2123  224.3662 H   0  0  0  0  0  0  0  0  0  0  0  0
  137.6568   70.2360  225.0843 H   0  0  0  0  0  0  0  0  0  0  0  0
  137.3095   68.0402  223.0752 H   0  0  0  0  0  0  0  0  0  0  0  0
  138.5889   69.3007  222.7873 H   0  0  0  0  0  0  0  0  0  0  0  0
  139.6644   70.6764  224.2188 H   0  0  0  0  0  0  0  0  0  0  0  0
  140.9897   71.9210  225.8827 H   0  0  0  0  0  0  0  0  0  0  0  0
  141.6550   70.7782  228.0059 H   0  0  0  0  0  0  0  0  0  0  0  0
  139.6717   67.2385  226.7278 H   0  0  0  0  0  0  0  0  0  0  0  0
  142.2718   74.7582  219.7812 H   0  0  0  0  0  0  0  0  0  0  0  0
  142.8142   77.2108  219.5768 H   0  0  0  0  0  0  0  0  0  0  0  0
  142.4617   79.4787  220.3816 H   0  0  0  0  0  0  0  0  0  0  0  0
  139.7815   80.2238  223.6440 H   0  0  0  0  0  0  0  0  0  0  0  0
  139.2881   77.7865  223.7997 H   0  0  0  0  0  0  0  0  0  0  0  0
  1  2  2  0
  2  3  1  0
  3  4  1  0
  4  5  1  0
  5  6  2  0
  5  7  1  0
  7  8  1  0
  8  9  1  0
  9 10  1  0
 10 11  1  0
 11 12  1  0
 12 13  1  0
 13 14  1  0
 14 15  2  0
 15 16  1  0
 16 17  2  0
 17 18  1  0
 18 19  1  0
 18 20  2  0
  2 21  1  0
 21 22  2  0
 22 23  1  0
 23 24  2  0
 24 25  1  0
 25 26  2  0
 26 27  1  0
 26 28  1  0
 28 29  2  0
 29 30  1  0
 30 31  2  0
 11  7  1  0
 20 14  1  0
 31 21  1  0
 30 24  1  0
  3 32  1  0
  4 33  1  0
  4 34  1  0
  8 35  1  0
  8 36  1  0
  9 37  1  0
  9 38  1  0
 10 39  1  0
 10 40  1  0
 11 41  1  1
 12 42  1  0
 12 43  1  0
 15 44  1  0
 16 45  1  0
 17 46  1  0
 20 47  1  0
 22 48  1  0
 23 49  1  0
 25 50  1  0
 28 51  1  0
 29 52  1  0
M  END
>  <smiles>  (2) 
O=C(NCC(=O)N1CCC[C@H]1COc1cccc(Cl)c1)c1ccc2cc(Cl)ccc2n1

>  <score_type>  (2) 
oracle

>  <origin>  (2) 
autodockgpu

>  <m_score__min__energy>  (2) 
-8.7599999999999998

>  <m_primary>  (2) 
energy

>  <meeko>  (2) 
{"free_energy": -8.15, "intermolecular_energy": -10.23, "internal_energy": -2.24, "cluster_size": 3, "cluster_id": 2, "rank_in_cluster": 2}

>  <energy>  (2) 
-8.63

>  <cluster_rmsd>  (2) 
0.46

>  <rmsd>  (2) 
270.82

>  <cluster>  (2) 
1

$$$$

     RDKit          3D

 52 55  0  0  0  0  0  0  0  0999 V2000
  139.5620   72.0530  220.7190 O   0  0  0  0  0  0  0  0  0  0  0  0
  139.5940   72.4660  221.9220 C   0  0  0  0  0  0  0  0  0  0  0  0
  139.5220   73.8440  222.2590 N   0  0  0  0  0  0  0  0  0  0  0  0
  139.4050   74.8920  221.2370 C   0  0  0  0  0  0  0  0  0  0  0  0
  140.6470   75.6820  221.3240 C   0  0  0  0  0  0  0  0  0  0  0  0
  140.9990   76.1860  222.4410 O   0  0  0  0  0  0  0  0  0  0  0  0
  141.5140   75.9390  220.2320 N   0  0  0  0  0  0  0  0  0  0  0  0
  141.9640   74.9260  219.2980 C   0  0  0  0  0  0  0  0  0  0  0  0
  143.4430   75.3010  219.2200 C   0  0  0  0  0  0  0  0  0  0  0  0
  143.3280   76.7850  218.9540 C   0  0  0  0  0  0  0  0  0  0  0  0
  142.1330   77.1720  219.7910 C   0  0  1  0  0  0  0  0  0  0  0  0
  141.1080   77.9310  218.9720 C   0  0  0  0  0  0  0  0  0  0  0  0
  140.7450   79.1420  219.5590 O   0  0  0  0  0  0  0  0  0  0  0  0
  140.6740   79.2780  220.9380 C   0  0  0  0  0  0  0  0  0  0  0  0
  139.5970   78.8190  221.6850 C   0  0  0  0  0  0  0  0  0  0  0  0
  139.5310   78.9570  223.0470 C   0  0  0  0  0  0  0  0  0  0  0  0
  140.5960   79.5860  223.7000 C   0  0  0  0  0  0  0  0  0  0  0  0
  141.6940   80.0610  223.0000 C   0  0  0  0  0  0  0  0  0  0  0  0
  142.9800   80.8290  223.8680 Cl  0  0  0  0  0  0  0  0  0  0  0  0
  141.6890   79.8870  221.6420 C   0  0  0  0  0  0  0  0  0  0  0  0
  139.7100   71.4870  223.0240 C   0  0  0  0  0  0  0  0  0  0  0  0
  139.2590   70.1870  222.8150 C   0  0  0  0  0  0  0  0  0  0  0  0
  139.3770   69.2770  223.8680 C   0  0  0  0  0  0  0  0  0  0  0  0
  139.9270   69.6960  225.0530 C   0  0  0  0  0  0  0  0  0  0  0  0
  140.0730   68.8430  226.1360 C   0  0  0  0  0  0  0  0  0  0  0  0
  140.6230   69.2470  227.3360 C   0  0  0  0  0  0  0  0  0  0  0  0
  140.8230   68.2120  228.7120 Cl  0  0  0  0  0  0  0  0  0  0  0  0
  141.0480   70.5740  227.4490 C   0  0  0  0  0  0  0  0  0  0  0  0
  140.9210   71.4590  226.3930 C   0  0  0  0  0  0  0  0  0  0  0  0
  140.3640   70.9890  225.2290 C   0  0  0  0  0  0  0  0  0  0  0  0
  140.2400   71.8380  224.2090 N   0  0  0  0  0  0  0  0  0  0  0  0
  139.5550   74.1060  223.2650 H   0  0  0  0  0  0  0  0  0  0  0  0
  139.3066   74.4427  220.2378 H   0  0  0  0  0  0  0  0  0  0  0  0
  138.5157   75.5184  221.4009 H   0  0  0  0  0  0  0  0  0  0  0  0
  141.8179   73.9095  219.6921 H   0  0  0  0  0  0  0  0  0  0  0  0
  141.4329   74.9056  218.3349 H   0  0  0  0  0  0  0  0  0  0  0  0
  143.9659   75.0958  220.1657 H   0  0  0  0  0  0  0  0  0  0  0  0
  144.0225   74.7411  218.4712 H   0  0  0  0  0  0  0  0  0  0  0  0
  144.2325   77.3192  219.2805 H   0  0  0  0  0  0  0  0  0  0  0  0
  143.2174   77.0335  217.8881 H   0  0  0  0  0  0  0  0  0  0  0  0
  142.4616   77.8113  220.6236 H   0  0  0  0  0  0  0  0  0  0  0  0
  141.5318   78.1343  217.9775 H   0  0  0  0  0  0  0  0  0  0  0  0
  140.2042   77.3073  218.9073 H   0  0  0  0  0  0  0  0  0  0  0  0
  138.7641   78.3252  221.1630 H   0  0  0  0  0  0  0  0  0  0  0  0
  138.6639   78.5832  223.6113 H   0  0  0  0  0  0  0  0  0  0  0  0
  140.5614   79.7063  224.7928 H   0  0  0  0  0  0  0  0  0  0  0  0
  142.5548   80.2590  221.0745 H   0  0  0  0  0  0  0  0  0  0  0  0
  138.8234   69.8857  221.8509 H   0  0  0  0  0  0  0  0  0  0  0  0
  139.0337   68.2388  223.7488 H   0  0  0  0  0  0  0  0  0  0  0  0
  139.7365   67.8006  226.0349 H   0  0  0  0  0  0  0  0  0  0  0  0
  141.4912   70.9207  228.3942 H   0  0  0  0  0  0  0  0  0  0  0  0
  141.2548   72.5033  226.4827 H   0  0  0  0  0  0  0  0  0  0  0  0
  1  2  2  0
  2  3  1  0
  3  4  1  0
  4  5  1  0
  5  6  2  0
  5  7  1  0
  7  8  1  0
  8  9  1  0
  9 10  1  0
 10 11  1  0
 11 12  1  0
 12 13  1  0
 13 14  1  0
 14 15  2  0
 15 16  1  0
 16 17  2  0
 17 18  1  0
 18 19  1  0
 18 20  2  0
  2 21  1  0
 21 22  2  0
 22 23  1  0
 23 24  2  0
 24 25  1  0
 25 26  2  0
 26 27  1  0
 26 28  1  0
 28 29  2  0
 29 30  1  0
 30 31  2  0
 11  7  1  0
 20 14  1  0
 31 21  1  0
 30 24  1  0
  3 32  1  0
  4 33  1  0
  4 34  1  0
  8 35  1  0
  8 36  1  0
  9 37  1  0
  9 38  1  0
 10 39  1  0
 10 40  1  0
 11 41  1  1
 12 42  1  0
 12 43  1  0
 15 44  1  0
 16 45  1  0
 17 46  1  0
 20 47  1  0
 22 48  1  0
 23 49  1  0
 25 50  1  0
 28 51  1  0
 29 52  1  0
M  END
>  <smiles>  (3) 
O=C(NCC(=O)N1CCC[C@H]1COc1cccc(Cl)c1)c1ccc2cc(Cl)ccc2n1

>  <score_type>  (3) 
oracle

>  <origin>  (3) 
autodockgpu

>  <m_score__min__energy>  (3) 
-8.7599999999999998

>  <m_primary>  (3) 
energy

>  <meeko>  (3) 
{"free_energy": -8.63, "intermolecular_energy": -10.71, "internal_energy": -2.23, "cluster_size": 6, "cluster_id": 1, "rank_in_cluster": 2}

>  <energy>  (3) 
-8.6

>  <cluster_rmsd>  (3) 
0.51

>  <rmsd>  (3) 
270.8

>  <cluster>  (3) 
1

$$$$

     RDKit          3D

 52 55  0  0  0  0  0  0  0  0999 V2000
  139.7670   72.3550  220.5620 O   0  0  0  0  0  0  0  0  0  0  0  0
  139.7290   72.7770  221.7620 C   0  0  0  0  0  0  0  0  0  0  0  0
  139.6330   74.1570  222.0850 N   0  0  0  0  0  0  0  0  0  0  0  0
  139.5700   75.1970  221.0510 C   0  0  0  0  0  0  0  0  0  0  0  0
  140.3990   76.3110  221.5470 C   0  0  0  0  0  0  0  0  0  0  0  0
  140.6390   76.4130  222.7950 O   0  0  0  0  0  0  0  0  0  0  0  0
  140.9730   77.3130  220.7240 N   0  0  0  0  0  0  0  0  0  0  0  0
  141.8260   78.3760  221.2160 C   0  0  0  0  0  0  0  0  0  0  0  0
  141.2230   79.5520  220.4480 C   0  0  0  0  0  0  0  0  0  0  0  0
  141.2140   78.9780  219.0480 C   0  0  0  0  0  0  0  0  0  0  0  0
  140.8730   77.5290  219.2960 C   0  0  1  0  0  0  0  0  0  0  0  0
  141.8690   76.6050  218.6220 C   0  0  0  0  0  0  0  0  0  0  0  0
  143.0110   76.3970  219.3950 O   0  0  0  0  0  0  0  0  0  0  0  0
  143.3390   75.1330  219.8640 C   0  0  0  0  0  0  0  0  0  0  0  0
  142.4770   74.0490  219.7730 C   0  0  0  0  0  0  0  0  0  0  0  0
  142.8070   72.8020  220.2380 C   0  0  0  0  0  0  0  0  0  0  0  0
  144.0640   72.6270  220.8250 C   0  0  0  0  0  0  0  0  0  0  0  0
  144.9610   73.6780  220.9390 C   0  0  0  0  0  0  0  0  0  0  0  0
  146.5020   73.3940  221.6760 Cl  0  0  0  0  0  0  0  0  0  0  0  0
  144.5610   74.8920  220.4520 C   0  0  0  0  0  0  0  0  0  0  0  0
  139.7860   71.8050  222.8760 C   0  0  0  0  0  0  0  0  0  0  0  0
  139.2550   70.5340  222.6840 C   0  0  0  0  0  0  0  0  0  0  0  0
  139.3180   69.6310  223.7470 C   0  0  0  0  0  0  0  0  0  0  0  0
  139.8950   70.0290  224.9260 C   0  0  0  0  0  0  0  0  0  0  0  0
  139.9900   69.1810  226.0190 C   0  0  0  0  0  0  0  0  0  0  0  0
  140.5670   69.5650  227.2130 C   0  0  0  0  0  0  0  0  0  0  0  0
  140.7040   68.5360  228.6010 Cl  0  0  0  0  0  0  0  0  0  0  0  0
  141.0740   70.8640  227.3100 C   0  0  0  0  0  0  0  0  0  0  0  0
  140.9990   71.7420  226.2440 C   0  0  0  0  0  0  0  0  0  0  0  0
  140.4120   71.2950  225.0860 C   0  0  0  0  0  0  0  0  0  0  0  0
  140.3390   72.1370  224.0560 N   0  0  0  0  0  0  0  0  0  0  0  0
  139.6060   74.4260  223.0900 H   0  0  0  0  0  0  0  0  0  0  0  0
  139.9706   74.8158  220.1001 H   0  0  0  0  0  0  0  0  0  0  0  0
  138.5346   75.5169  220.8626 H   0  0  0  0  0  0  0  0  0  0  0  0
  141.7350   78.5057  222.3045 H   0  0  0  0  0  0  0  0  0  0  0  0
  142.9047   78.2205  221.0667 H   0  0  0  0  0  0  0  0  0  0  0  0
  140.2076   79.7898  220.7978 H   0  0  0  0  0  0  0  0  0  0  0  0
  141.7675   80.5018  220.5547 H   0  0  0  0  0  0  0  0  0  0  0  0
  140.4514   79.4652  218.4227 H   0  0  0  0  0  0  0  0  0  0  0  0
  142.1613   79.1210  218.5075 H   0  0  0  0  0  0  0  0  0  0  0  0
  139.8698   77.3164  218.8980 H   0  0  0  0  0  0  0  0  0  0  0  0
  141.3837   75.6346  218.4411 H   0  0  0  0  0  0  0  0  0  0  0  0
  142.1836   77.0809  217.6815 H   0  0  0  0  0  0  0  0  0  0  0  0
  141.4903   74.1961  219.3096 H   0  0  0  0  0  0  0  0  0  0  0  0
  142.1020   71.9621  220.1516 H   0  0  0  0  0  0  0  0  0  0  0  0
  144.3472   71.6341  221.2045 H   0  0  0  0  0  0  0  0  0  0  0  0
  145.2638   75.7340  220.5357 H   0  0  0  0  0  0  0  0  0  0  0  0
  138.7994   70.2489  221.7242 H   0  0  0  0  0  0  0  0  0  0  0  0
  138.9106   68.6148  223.6405 H   0  0  0  0  0  0  0  0  0  0  0  0
  139.5892   68.1604  225.9311 H   0  0  0  0  0  0  0  0  0  0  0  0
  141.5406   71.1935  228.2501 H   0  0  0  0  0  0  0  0  0  0  0  0
  141.3965   72.7647  226.3213 H   0  0  0  0  0  0  0  0  0  0  0  0
  1  2  2  0
  2  3  1  0
  3  4  1  0
  4  5  1  0
  5  6  2  0
  5  7  1  0
  7  8  1  0
  8  9  1  0
  9 10  1  0
 10 11  1  0
 11 12  1  0
 12 13  1  0
 13 14  1  0
 14 15  2  0
 15 16  1  0
 16 17  2  0
 17 18  1  0
 18 19  1  0
 18 20  2  0
  2 21  1  0
 21 22  2  0
 22 23  1  0
 23 24  2  0
 24 25  1  0
 25 26  2  0
 26 27  1  0
 26 28  1  0
 28 29  2  0
 29 30  1  0
 30 31  2  0
 11  7  1  0
 20 14  1  0
 31 21  1  0
 30 24  1  0
  3 32  1  0
  4 33  1  0
  4 34  1  0
  8 35  1  0
  8 36  1  0
  9 37  1  0
  9 38  1  0
 10 39  1  0
 10 40  1  0
 11 41  1  6
 12 42  1  0
 12 43  1  0
 15 44  1  0
 16 45  1  0
 17 46  1  0
 20 47  1  0
 22 48  1  0
 23 49  1  0
 25 50  1  0
 28 51  1  0
 29 52  1  0
M  END
>  <smiles>  (4) 
O=C(NCC(=O)N1CCC[C@H]1COc1cccc(Cl)c1)c1ccc2cc(Cl)ccc2n1

>  <score_type>  (4) 
oracle

>  <origin>  (4) 
autodockgpu

>  <m_score__min__energy>  (4) 
-8.7599999999999998

>  <m_primary>  (4) 
energy

>  <meeko>  (4) 
{"free_energy": -8.4, "intermolecular_energy": -10.49, "internal_energy": -2.87, "cluster_size": 7, "cluster_id": 3, "rank_in_cluster": 5}

>  <energy>  (4) 
-8.23

>  <cluster_rmsd>  (4) 
0.6

>  <rmsd>  (4) 
270.72

>  <cluster>  (4) 
1

$$$$

     RDKit          3D

 52 55  0  0  0  0  0  0  0  0999 V2000
  141.7570   79.1910  217.1680 O   0  0  0  0  0  0  0  0  0  0  0  0
  142.1880   78.6470  218.2340 C   0  0  0  0  0  0  0  0  0  0  0  0
  142.1930   79.3150  219.4870 N   0  0  0  0  0  0  0  0  0  0  0  0
  141.6970   80.6880  219.6400 C   0  0  0  0  0  0  0  0  0  0  0  0
  140.8660   80.6850  220.8580 C   0  0  0  0  0  0  0  0  0  0  0  0
  139.6030   80.8250  220.7620 O   0  0  0  0  0  0  0  0  0  0  0  0
  141.3710   80.5330  222.1750 N   0  0  0  0  0  0  0  0  0  0  0  0
  140.8950   81.2850  223.3180 C   0  0  0  0  0  0  0  0  0  0  0  0
  142.2360   81.6420  223.9560 C   0  0  0  0  0  0  0  0  0  0  0  0
  142.8900   80.2770  223.9830 C   0  0  0  0  0  0  0  0  0  0  0  0
  142.4100   79.6650  222.6890 C   0  0  1  0  0  0  0  0  0  0  0  0
  141.7910   78.3000  222.9220 C   0  0  0  0  0  0  0  0  0  0  0  0
  141.3680   77.6970  221.7380 O   0  0  0  0  0  0  0  0  0  0  0  0
  140.6300   76.5220  221.7560 C   0  0  0  0  0  0  0  0  0  0  0  0
  139.2650   76.4930  222.0080 C   0  0  0  0  0  0  0  0  0  0  0  0
  138.5410   75.3290  222.0240 C   0  0  0  0  0  0  0  0  0  0  0  0
  139.2140   74.1290  221.7750 C   0  0  0  0  0  0  0  0  0  0  0  0
  140.5760   74.1040  221.5180 C   0  0  0  0  0  0  0  0  0  0  0  0
  141.3490   72.5840  221.2170 Cl  0  0  0  0  0  0  0  0  0  0  0  0
  141.2310   75.3050  221.5180 C   0  0  0  0  0  0  0  0  0  0  0  0
  142.7090   77.2630  218.1830 C   0  0  0  0  0  0  0  0  0  0  0  0
  142.6380   76.5640  216.9820 C   0  0  0  0  0  0  0  0  0  0  0  0
  143.1340   75.2590  216.9550 C   0  0  0  0  0  0  0  0  0  0  0  0
  143.6670   74.7240  218.1000 C   0  0  0  0  0  0  0  0  0  0  0  0
  144.1770   73.4350  218.1400 C   0  0  0  0  0  0  0  0  0  0  0  0
  144.7160   72.8810  219.2830 C   0  0  0  0  0  0  0  0  0  0  0  0
  145.3630   71.2750  219.3730 Cl  0  0  0  0  0  0  0  0  0  0  0  0
  144.7430   73.6620  220.4420 C   0  0  0  0  0  0  0  0  0  0  0  0
  144.2450   74.9530  220.4470 C   0  0  0  0  0  0  0  0  0  0  0  0
  143.7230   75.4410  219.2740 C   0  0  0  0  0  0  0  0  0  0  0  0
  143.2420   76.6840  219.2740 N   0  0  0  0  0  0  0  0  0  0  0  0
  142.5610   78.8050  220.3150 H   0  0  0  0  0  0  0  0  0  0  0  0
  142.5379   81.3881  219.7525 H   0  0  0  0  0  0  0  0  0  0  0  0
  141.1213   81.0095  218.7595 H   0  0  0  0  0  0  0  0  0  0  0  0
  140.3325   82.1805  223.0154 H   0  0  0  0  0  0  0  0  0  0  0  0
  140.1912   80.7497  223.9724 H   0  0  0  0  0  0  0  0  0  0  0  0
  142.8041   82.3541  223.3394 H   0  0  0  0  0  0  0  0  0  0  0  0
  142.1642   82.1393  224.9345 H   0  0  0  0  0  0  0  0  0  0  0  0
  143.9866   80.3609  224.0014 H   0  0  0  0  0  0  0  0  0  0  0  0
  142.6339   79.6833  224.8729 H   0  0  0  0  0  0  0  0  0  0  0  0
  143.2597   79.5547  221.9991 H   0  0  0  0  0  0  0  0  0  0  0  0
  142.5385   77.6507  223.4012 H   0  0  0  0  0  0  0  0  0  0  0  0
  140.9067   78.4385  223.5614 H   0  0  0  0  0  0  0  0  0  0  0  0
  138.7437   77.4419  222.2026 H   0  0  0  0  0  0  0  0  0  0  0  0
  137.4600   75.3388  222.2272 H   0  0  0  0  0  0  0  0  0  0  0  0
  138.6505   73.1843  221.7832 H   0  0  0  0  0  0  0  0  0  0  0  0
  142.3119   75.2988  221.3140 H   0  0  0  0  0  0  0  0  0  0  0  0
  142.2048   77.0250  216.0821 H   0  0  0  0  0  0  0  0  0  0  0  0
  143.0978   74.6680  216.0280 H   0  0  0  0  0  0  0  0  0  0  0  0
  144.1507   72.8290  217.2223 H   0  0  0  0  0  0  0  0  0  0  0  0
  145.1675   73.2430  221.3662 H   0  0  0  0  0  0  0  0  0  0  0  0
  144.2664   75.5674  221.3592 H   0  0  0  0  0  0  0  0  0  0  0  0
  1  2  2  0
  2  3  1  0
  3  4  1  0
  4  5  1  0
  5  6  2  0
  5  7  1  0
  7  8  1  0
  8  9  1  0
  9 10  1  0
 10 11  1  0
 11 12  1  0
 12 13  1  0
 13 14  1  0
 14 15  2  0
 15 16  1  0
 16 17  2  0
 17 18  1  0
 18 19  1  0
 18 20  2  0
  2 21  1  0
 21 22  2  0
 22 23  1  0
 23 24  2  0
 24 25  1  0
 25 26  2  0
 26 27  1  0
 26 28  1  0
 28 29  2  0
 29 30  1  0
 30 31  2  0
 11  7  1  0
 20 14  1  0
 31 21  1  0
 30 24  1  0
  3 32  1  0
  4 33  1  0
  4 34  1  0
  8 35  1  0
  8 36  1  0
  9 37  1  0
  9 38  1  0
 10 39  1  0
 10 40  1  0
 11 41  1  6
 12 42  1  0
 12 43  1  0
 15 44  1  0
 16 45  1  0
 17 46  1  0
 20 47  1  0
 22 48  1  0
 23 49  1  0
 25 50  1  0
 28 51  1  0
 29 52  1  0
M  END
>  <smiles>  (5) 
O=C(NCC(=O)N1CCC[C@H]1COc1cccc(Cl)c1)c1ccc2cc(Cl)ccc2n1

>  <score_type>  (5) 
oracle

>  <origin>  (5) 
autodockgpu

>  <m_score__min__energy>  (5) 
-8.7599999999999998

>  <m_primary>  (5) 
energy

>  <meeko>  (5) 
{"free_energy": -6.4, "intermolecular_energy": -8.49, "internal_energy": -3.69, "cluster_size": 1, "cluster_id": 6, "rank_in_cluster": 1}

>  <energy>  (5) 
-7.79

>  <cluster_rmsd>  (5) 
1.65

>  <rmsd>  (5) 
270.18

>  <cluster>  (5) 
1

$$$$

     RDKit          3D

 52 55  0  0  0  0  0  0  0  0999 V2000
  138.9110   71.9740  220.4640 O   0  0  0  0  0  0  0  0  0  0  0  0
  138.9420   72.4180  221.6570 C   0  0  0  0  0  0  0  0  0  0  0  0
  138.7080   73.7830  221.9710 N   0  0  0  0  0  0  0  0  0  0  0  0
  138.4130   74.7820  220.9360 C   0  0  0  0  0  0  0  0  0  0  0  0
  139.6940   75.0560  220.2600 C   0  0  0  0  0  0  0  0  0  0  0  0
  140.0580   74.3300  219.2780 O   0  0  0  0  0  0  0  0  0  0  0  0
  140.5880   76.0960  220.6230 N   0  0  0  0  0  0  0  0  0  0  0  0
  141.0730   76.3160  221.9710 C   0  0  0  0  0  0  0  0  0  0  0  0
  140.9140   77.8330  222.0460 C   0  0  0  0  0  0  0  0  0  0  0  0
  141.6050   78.2370  220.7630 C   0  0  0  0  0  0  0  0  0  0  0  0
  141.2040   77.1300  219.8180 C   0  0  1  0  0  0  0  0  0  0  0  0
  142.4140   76.5210  219.1380 C   0  0  0  0  0  0  0  0  0  0  0  0
  143.4360   76.2170  220.0380 O   0  0  0  0  0  0  0  0  0  0  0  0
  143.8300   74.9050  220.2590 C   0  0  0  0  0  0  0  0  0  0  0  0
  145.1510   74.5450  220.4900 C   0  0  0  0  0  0  0  0  0  0  0  0
  145.5360   73.2470  220.7070 C   0  0  0  0  0  0  0  0  0  0  0  0
  144.5500   72.2560  220.6940 C   0  0  0  0  0  0  0  0  0  0  0  0
  143.2170   72.5630  220.4690 C   0  0  0  0  0  0  0  0  0  0  0  0
  142.0470   71.2880  220.4660 Cl  0  0  0  0  0  0  0  0  0  0  0  0
  142.9100   73.8800  220.2600 C   0  0  0  0  0  0  0  0  0  0  0  0
  139.2310   71.4890  222.7700 C   0  0  0  0  0  0  0  0  0  0  0  0
  138.8820   70.1490  222.6330 C   0  0  0  0  0  0  0  0  0  0  0  0
  139.1630   69.2870  223.6950 C   0  0  0  0  0  0  0  0  0  0  0  0
  139.7660   69.7900  224.8200 C   0  0  0  0  0  0  0  0  0  0  0  0
  140.0720   68.9880  225.9090 C   0  0  0  0  0  0  0  0  0  0  0  0
  140.6790   69.4770  227.0490 C   0  0  0  0  0  0  0  0  0  0  0  0
  141.0770   68.5090  228.4300 Cl  0  0  0  0  0  0  0  0  0  0  0  0
  140.9920   70.8390  227.0930 C   0  0  0  0  0  0  0  0  0  0  0  0
  140.7040   71.6750  226.0290 C   0  0  0  0  0  0  0  0  0  0  0  0
  140.0990   71.1210  224.9260 C   0  0  0  0  0  0  0  0  0  0  0  0
  139.8210   71.9230  223.8980 N   0  0  0  0  0  0  0  0  0  0  0  0
  138.7500   74.0720  222.9700 H   0  0  0  0  0  0  0  0  0  0  0  0
  137.6796   74.3845  220.2189 H   0  0  0  0  0  0  0  0  0  0  0  0
  137.9821   75.6966  221.3695 H   0  0  0  0  0  0  0  0  0  0  0  0
  140.4541   75.8002  222.7200 H   0  0  0  0  0  0  0  0  0  0  0  0
  142.0863   75.9389  222.1734 H   0  0  0  0  0  0  0  0  0  0  0  0
  139.8555   78.1322  222.0505 H   0  0  0  0  0  0  0  0  0  0  0  0
  141.3228   78.2958  222.9563 H   0  0  0  0  0  0  0  0  0  0  0  0
  141.2452   79.2138  220.4075 H   0  0  0  0  0  0  0  0  0  0  0  0
  142.6938   78.3536  220.8674 H   0  0  0  0  0  0  0  0  0  0  0  0
  140.5318   77.5328  219.0460 H   0  0  0  0  0  0  0  0  0  0  0  0
  142.1047   75.5958  218.6298 H   0  0  0  0  0  0  0  0  0  0  0  0
  142.8054   77.2622  218.4256 H   0  0  0  0  0  0  0  0  0  0  0  0
  145.9191   75.3323  220.4993 H   0  0  0  0  0  0  0  0  0  0  0  0
  146.5910   72.9926  220.8863 H   0  0  0  0  0  0  0  0  0  0  0  0
  144.8385   71.2086  220.8663 H   0  0  0  0  0  0  0  0  0  0  0  0
  141.8558   74.1379  220.0804 H   0  0  0  0  0  0  0  0  0  0  0  0
  138.3994   69.7800  221.7160 H   0  0  0  0  0  0  0  0  0  0  0  0
  138.9045   68.2197  223.6305 H   0  0  0  0  0  0  0  0  0  0  0  0
  139.8209   67.9180  225.8629 H   0  0  0  0  0  0  0  0  0  0  0  0
  141.4760   71.2533  227.9898 H   0  0  0  0  0  0  0  0  0  0  0  0
  140.9507   72.7464  226.0645 H   0  0  0  0  0  0  0  0  0  0  0  0
  1  2  2  0
  2  3  1  0
  3  4  1  0
  4  5  1  0
  5  6  2  0
  5  7  1  0
  7  8  1  0
  8  9  1  0
  9 10  1  0
 10 11  1  0
 11 12  1  0
 12 13  1  0
 13 14  1  0
 14 15  2  0
 15 16  1  0
 16 17  2  0
 17 18  1  0
 18 19  1  0
 18 20  2  0
  2 21  1  0
 21 22  2  0
 22 23  1  0
 23 24  2  0
 24 25  1  0
 25 26  2  0
 26 27  1  0
 26 28  1  0
 28 29  2  0
 29 30  1  0
 30 31  2  0
 11  7  1  0
 20 14  1  0
 31 21  1  0
 30 24  1  0
  3 32  1  0
  4 33  1  0
  4 34  1  0
  8 35  1  0
  8 36  1  0
  9 37  1  0
  9 38  1  0
 10 39  1  0
 10 40  1  0
 11 41  1  6
 12 42  1  0
 12 43  1  0
 15 44  1  0
 16 45  1  0
 17 46  1  0
 20 47  1  0
 22 48  1  0
 23 49  1  0
 25 50  1  0
 28 51  1  0
 29 52  1  0
M  END
>  <smiles>  (6) 
O=C(NCC(=O)N1CCC[C@H]1COc1cccc(Cl)c1)c1ccc2cc(Cl)ccc2n1

>  <score_type>  (6) 
oracle

>  <origin>  (6) 
autodockgpu

>  <m_score__min__energy>  (6) 
-8.7599999999999998

>  <m_primary>  (6) 
energy

>  <meeko>  (6) 
{"free_energy": -7.7, "intermolecular_energy": -9.79, "internal_energy": -2.61, "cluster_size": 7, "cluster_id": 3, "rank_in_cluster": 6}

>  <energy>  (6) 
-7.43

>  <cluster_rmsd>  (6) 
1.68

>  <rmsd>  (6) 
269.94

>  <cluster>  (6) 
1

$$$$

     RDKit          3D

 52 55  0  0  0  0  0  0  0  0999 V2000
  139.7490   72.6340  220.4870 O   0  0  0  0  0  0  0  0  0  0  0  0
  139.7250   73.0210  221.6990 C   0  0  0  0  0  0  0  0  0  0  0  0
  139.7100   74.3940  222.0630 N   0  0  0  0  0  0  0  0  0  0  0  0
  139.7210   75.4670  221.0610 C   0  0  0  0  0  0  0  0  0  0  0  0
  140.5380   76.5510  221.6380 C   0  0  0  0  0  0  0  0  0  0  0  0
  140.6710   76.6370  222.9020 O   0  0  0  0  0  0  0  0  0  0  0  0
  141.2110   77.5400  220.8770 N   0  0  0  0  0  0  0  0  0  0  0  0
  141.6970   78.7920  221.4230 C   0  0  0  0  0  0  0  0  0  0  0  0
  141.2310   79.7400  220.3190 C   0  0  0  0  0  0  0  0  0  0  0  0
  141.7690   79.0180  219.1040 C   0  0  0  0  0  0  0  0  0  0  0  0
  141.5650   77.5680  219.4730 C   0  0  1  0  0  0  0  0  0  0  0  0
  142.8460   76.7730  219.3090 C   0  0  0  0  0  0  0  0  0  0  0  0
  142.6160   75.4870  218.8190 O   0  0  0  0  0  0  0  0  0  0  0  0
  143.0850   74.3690  219.4920 C   0  0  0  0  0  0  0  0  0  0  0  0
  142.3910   73.1670  219.5320 C   0  0  0  0  0  0  0  0  0  0  0  0
  142.8590   72.0650  220.2000 C   0  0  0  0  0  0  0  0  0  0  0  0
  144.0860   72.1670  220.8630 C   0  0  0  0  0  0  0  0  0  0  0  0
  144.8180   73.3440  220.8530 C   0  0  0  0  0  0  0  0  0  0  0  0
  146.3310   73.4030  221.6940 Cl  0  0  0  0  0  0  0  0  0  0  0  0
  144.2870   74.4010  220.1660 C   0  0  0  0  0  0  0  0  0  0  0  0
  139.7120   72.0150  222.7830 C   0  0  0  0  0  0  0  0  0  0  0  0
  139.0470   70.8110  222.5720 C   0  0  0  0  0  0  0  0  0  0  0  0
  139.0460   69.8740  223.6070 C   0  0  0  0  0  0  0  0  0  0  0  0
  139.6930   70.1740  224.7790 C   0  0  0  0  0  0  0  0  0  0  0  0
  139.7300   69.2880  225.8440 C   0  0  0  0  0  0  0  0  0  0  0  0
  140.3760   69.5730  227.0310 C   0  0  0  0  0  0  0  0  0  0  0  0
  140.4450   68.4930  228.3840 Cl  0  0  0  0  0  0  0  0  0  0  0  0
  141.0170   70.8100  227.1480 C   0  0  0  0  0  0  0  0  0  0  0  0
  141.0050   71.7240  226.1090 C   0  0  0  0  0  0  0  0  0  0  0  0
  140.3420   71.3750  224.9580 C   0  0  0  0  0  0  0  0  0  0  0  0
  140.3290   72.2520  223.9540 N   0  0  0  0  0  0  0  0  0  0  0  0
  139.6910   74.6340  223.0760 H   0  0  0  0  0  0  0  0  0  0  0  0
  140.1684   75.1090  220.1220 H   0  0  0  0  0  0  0  0  0  0  0  0
  138.7027   75.8103  220.8259 H   0  0  0  0  0  0  0  0  0  0  0  0
  141.2305   79.0271  222.3910 H   0  0  0  0  0  0  0  0  0  0  0  0
  142.7740   78.8217  221.6448 H   0  0  0  0  0  0  0  0  0  0  0  0
  140.1347   79.8250  220.2905 H   0  0  0  0  0  0  0  0  0  0  0  0
  141.5732   80.7797  220.4278 H   0  0  0  0  0  0  0  0  0  0  0  0
  141.2010   79.2824  218.1999 H   0  0  0  0  0  0  0  0  0  0  0  0
  142.8139   79.2695  218.8697 H   0  0  0  0  0  0  0  0  0  0  0  0
  140.7920   77.1300  218.8244 H   0  0  0  0  0  0  0  0  0  0  0  0
  143.5047   77.3056  218.6073 H   0  0  0  0  0  0  0  0  0  0  0  0
  143.3089   76.6752  220.3020 H   0  0  0  0  0  0  0  0  0  0  0  0
  141.4271   73.0961  219.0067 H   0  0  0  0  0  0  0  0  0  0  0  0
  142.2852   71.1266  220.2140 H   0  0  0  0  0  0  0  0  0  0  0  0
  144.4790   71.2938  221.4045 H   0  0  0  0  0  0  0  0  0  0  0  0
  144.8583   75.3409  220.1503 H   0  0  0  0  0  0  0  0  0  0  0  0
  138.5378   70.6039  221.6192 H   0  0  0  0  0  0  0  0  0  0  0  0
  138.5335   68.9084  223.4844 H   0  0  0  0  0  0  0  0  0  0  0  0
  139.2236   68.3171  225.7396 H   0  0  0  0  0  0  0  0  0  0  0  0
  141.5401   71.0612  228.0825 H   0  0  0  0  0  0  0  0  0  0  0  0
  141.5094   72.6971  226.2019 H   0  0  0  0  0  0  0  0  0  0  0  0
  1  2  2  0
  2  3  1  0
  3  4  1  0
  4  5  1  0
  5  6  2  0
  5  7  1  0
  7  8  1  0
  8  9  1  0
  9 10  1  0
 10 11  1  0
 11 12  1  0
 12 13  1  0
 13 14  1  0
 14 15  2  0
 15 16  1  0
 16 17  2  0
 17 18  1  0
 18 19  1  0
 18 20  2  0
  2 21  1  0
 21 22  2  0
 22 23  1  0
 23 24  2  0
 24 25  1  0
 25 26  2  0
 26 27  1  0
 26 28  1  0
 28 29  2  0
 29 30  1  0
 30 31  2  0
 11  7  1  0
 20 14  1  0
 31 21  1  0
 30 24  1  0
  3 32  1  0
  4 33  1  0
  4 34  1  0
  8 35  1  0
  8 36  1  0
  9 37  1  0
  9 38  1  0
 10 39  1  0
 10 40  1  0
 11 41  1  6
 12 42  1  0
 12 43  1  0
 15 44  1  0
 16 45  1  0
 17 46  1  0
 20 47  1  0
 22 48  1  0
 23 49  1  0
 25 50  1  0
 28 51  1  0
 29 52  1  0
M  END
>  <smiles>  (7) 
O=C(NCC(=O)N1CCC[C@H]1COc1cccc(Cl)c1)c1ccc2cc(Cl)ccc2n1

>  <score_type>  (7) 
oracle

>  <origin>  (7) 
autodockgpu

>  <m_score__min__energy>  (7) 
-8.7599999999999998

>  <m_primary>  (7) 
energy

>  <meeko>  (7) 
{"free_energy": -8.4, "intermolecular_energy": -10.49, "internal_energy": -2.76, "cluster_size": 7, "cluster_id": 3, "rank_in_cluster": 4}

>  <energy>  (7) 
-8.61

>  <cluster_rmsd>  (7) 
0.0

>  <rmsd>  (7) 
270.39

>  <cluster>  (7) 
2

$$$$

     RDKit          3D

 52 55  0  0  0  0  0  0  0  0999 V2000
  140.4020   72.2550  220.5880 O   0  0  0  0  0  0  0  0  0  0  0  0
  140.1070   72.6790  221.7510 C   0  0  0  0  0  0  0  0  0  0  0  0
  139.8210   74.0440  222.0180 N   0  0  0  0  0  0  0  0  0  0  0  0
  139.8460   75.0670  220.9660 C   0  0  0  0  0  0  0  0  0  0  0  0
  140.0190   76.3570  221.6590 C   0  0  0  0  0  0  0  0  0  0  0  0
  139.4350   76.5580  222.7730 O   0  0  0  0  0  0  0  0  0  0  0  0
  140.8100   77.4290  221.1730 N   0  0  0  0  0  0  0  0  0  0  0  0
  141.2270   78.5590  221.9790 C   0  0  0  0  0  0  0  0  0  0  0  0
  140.9400   79.6870  220.9890 C   0  0  0  0  0  0  0  0  0  0  0  0
  141.6400   79.1480  219.7610 C   0  0  0  0  0  0  0  0  0  0  0  0
  141.3660   77.6670  219.8580 C   0  0  1  0  0  0  0  0  0  0  0  0
  142.6470   76.8620  219.7500 C   0  0  0  0  0  0  0  0  0  0  0  0
  142.4080   75.4930  219.6290 O   0  0  0  0  0  0  0  0  0  0  0  0
  143.3750   74.5630  219.9780 C   0  0  0  0  0  0  0  0  0  0  0  0
  144.6230   74.9220  220.4690 C   0  0  0  0  0  0  0  0  0  0  0  0
  145.5770   73.9970  220.8120 C   0  0  0  0  0  0  0  0  0  0  0  0
  145.2680   72.6420  220.6570 C   0  0  0  0  0  0  0  0  0  0  0  0
  144.0360   72.2320  220.1720 C   0  0  0  0  0  0  0  0  0  0  0  0
  143.7170   70.5380  220.0060 Cl  0  0  0  0  0  0  0  0  0  0  0  0
  143.1370   73.2120  219.8510 C   0  0  0  0  0  0  0  0  0  0  0  0
  140.0540   71.7240  222.8800 C   0  0  0  0  0  0  0  0  0  0  0  0
  139.5040   70.4640  222.6670 C   0  0  0  0  0  0  0  0  0  0  0  0
  139.4640   69.5770  223.7440 C   0  0  0  0  0  0  0  0  0  0  0  0
  139.9630   69.9780  224.9580 C   0  0  0  0  0  0  0  0  0  0  0  0
  139.9540   69.1470  226.0670 C   0  0  0  0  0  0  0  0  0  0  0  0
  140.4510   69.5340  227.2950 C   0  0  0  0  0  0  0  0  0  0  0  0
  140.4580   68.5250  228.7040 Cl  0  0  0  0  0  0  0  0  0  0  0  0
  140.9850   70.8220  227.4100 C   0  0  0  0  0  0  0  0  0  0  0  0
  141.0140   71.6840  226.3290 C   0  0  0  0  0  0  0  0  0  0  0  0
  140.5010   71.2330  225.1370 C   0  0  0  0  0  0  0  0  0  0  0  0
  140.5280   72.0600  224.0920 N   0  0  0  0  0  0  0  0  0  0  0  0
  139.5870   74.3150  222.9950 H   0  0  0  0  0  0  0  0  0  0  0  0
  140.6849   74.8872  220.2776 H   0  0  0  0  0  0  0  0  0  0  0  0
  138.9238   75.0517  220.3665 H   0  0  0  0  0  0  0  0  0  0  0  0
  140.6269   78.6539  222.8960 H   0  0  0  0  0  0  0  0  0  0  0  0
  142.2602   78.5137  222.3538 H   0  0  0  0  0  0  0  0  0  0  0  0
  139.8608   79.8158  220.8195 H   0  0  0  0  0  0  0  0  0  0  0  0
  141.2768   80.6828  221.3130 H   0  0  0  0  0  0  0  0  0  0  0  0
  141.2129   79.5726  218.8405 H   0  0  0  0  0  0  0  0  0  0  0  0
  142.7109   79.3959  219.7203 H   0  0  0  0  0  0  0  0  0  0  0  0
  140.6901   77.3658  219.0441 H   0  0  0  0  0  0  0  0  0  0  0  0
  143.2043   77.2026  218.8649 H   0  0  0  0  0  0  0  0  0  0  0  0
  143.2211   77.0210  220.6747 H   0  0  0  0  0  0  0  0  0  0  0  0
  144.8564   75.9904  220.5878 H   0  0  0  0  0  0  0  0  0  0  0  0
  146.5574   74.3127  221.1981 H   0  0  0  0  0  0  0  0  0  0  0  0
  146.0193   71.8848  220.9259 H   0  0  0  0  0  0  0  0  0  0  0  0
  142.1557   72.8995  219.4645 H   0  0  0  0  0  0  0  0  0  0  0  0
  139.1127   70.1756  221.6802 H   0  0  0  0  0  0  0  0  0  0  0  0
  139.0383   68.5702  223.6214 H   0  0  0  0  0  0  0  0  0  0  0  0
  139.5328   68.1360  225.9642 H   0  0  0  0  0  0  0  0  0  0  0  0
  141.3890   71.1550  228.3775 H   0  0  0  0  0  0  0  0  0  0  0  0
  141.4337   72.6967  226.4205 H   0  0  0  0  0  0  0  0  0  0  0  0
  1  2  2  0
  2  3  1  0
  3  4  1  0
  4  5  1  0
  5  6  2  0
  5  7  1  0
  7  8  1  0
  8  9  1  0
  9 10  1  0
 10 11  1  0
 11 12  1  0
 12 13  1  0
 13 14  1  0
 14 15  2  0
 15 16  1  0
 16 17  2  0
 17 18  1  0
 18 19  1  0
 18 20  2  0
  2 21  1  0
 21 22  2  0
 22 23  1  0
 23 24  2  0
 24 25  1  0
 25 26  2  0
 26 27  1  0
 26 28  1  0
 28 29  2  0
 29 30  1  0
 30 31  2  0
 11  7  1  0
 20 14  1  0
 31 21  1  0
 30 24  1  0
  3 32  1  0
  4 33  1  0
  4 34  1  0
  8 35  1  0
  8 36  1  0
  9 37  1  0
  9 38  1  0
 10 39  1  0
 10 40  1  0
 11 41  1  6
 12 42  1  0
 12 43  1  0
 15 44  1  0
 16 45  1  0
 17 46  1  0
 20 47  1  0
 22 48  1  0
 23 49  1  0
 25 50  1  0
 28 51  1  0
 29 52  1  0
M  END
>  <smiles>  (8) 
O=C(NCC(=O)N1CCC[C@H]1COc1cccc(Cl)c1)c1ccc2cc(Cl)ccc2n1

>  <score_type>  (8) 
oracle

>  <origin>  (8) 
autodockgpu

>  <m_score__min__energy>  (8) 
-8.7599999999999998

>  <m_primary>  (8) 
energy

>  <meeko>  (8) 
{"free_energy": -8.45, "intermolecular_energy": -10.53, "internal_energy": -2.64, "cluster_size": 7, "cluster_id": 3, "rank_in_cluster": 3}

>  <energy>  (8) 
-8.15

>  <cluster_rmsd>  (8) 
1.96

>  <rmsd>  (8) 
270.37

>  <cluster>  (8) 
2

$$$$

     RDKit          3D

 52 55  0  0  0  0  0  0  0  0999 V2000
  138.9620   71.6800  220.8000 O   0  0  0  0  0  0  0  0  0  0  0  0
  139.3400   72.1360  221.9260 C   0  0  0  0  0  0  0  0  0  0  0  0
  139.6140   73.5130  222.1410 N   0  0  0  0  0  0  0  0  0  0  0  0
  139.4790   74.5110  221.0730 C   0  0  0  0  0  0  0  0  0  0  0  0
  140.6580   75.3880  221.1870 C   0  0  0  0  0  0  0  0  0  0  0  0
  141.0860   75.7250  222.3390 O   0  0  0  0  0  0  0  0  0  0  0  0
  141.3830   75.9070  220.0840 N   0  0  0  0  0  0  0  0  0  0  0  0
  141.9200   75.0940  219.0110 C   0  0  0  0  0  0  0  0  0  0  0  0
  143.3060   75.7250  218.8920 C   0  0  0  0  0  0  0  0  0  0  0  0
  142.9260   77.1880  218.8110 C   0  0  0  0  0  0  0  0  0  0  0  0
  141.7530   77.2690  219.7580 C   0  0  1  0  0  0  0  0  0  0  0  0
  140.5550   77.9220  219.0960 C   0  0  0  0  0  0  0  0  0  0  0  0
  140.1530   79.0870  219.7500 O   0  0  0  0  0  0  0  0  0  0  0  0
  140.2570   79.2080  221.1280 C   0  0  0  0  0  0  0  0  0  0  0  0
  139.2440   78.8230  221.9960 C   0  0  0  0  0  0  0  0  0  0  0  0
  139.3510   78.9460  223.3570 C   0  0  0  0  0  0  0  0  0  0  0  0
  140.5320   79.4810  223.8810 C   0  0  0  0  0  0  0  0  0  0  0  0
  141.5730   79.8800  223.0570 C   0  0  0  0  0  0  0  0  0  0  0  0
  143.0090   80.5340  223.7690 Cl  0  0  0  0  0  0  0  0  0  0  0  0
  141.3930   79.7270  221.7090 C   0  0  0  0  0  0  0  0  0  0  0  0
  139.5060   71.2090  223.0670 C   0  0  0  0  0  0  0  0  0  0  0  0
  139.0220   69.9090  222.9500 C   0  0  0  0  0  0  0  0  0  0  0  0
  139.1880   69.0490  224.0370 C   0  0  0  0  0  0  0  0  0  0  0  0
  139.8150   69.5140  225.1660 C   0  0  0  0  0  0  0  0  0  0  0  0
  140.0110   68.7120  226.2790 C   0  0  0  0  0  0  0  0  0  0  0  0
  140.6400   69.1630  227.4230 C   0  0  0  0  0  0  0  0  0  0  0  0
  140.9040   68.1920  228.8340 Cl  0  0  0  0  0  0  0  0  0  0  0  0
  141.0920   70.4860  227.4440 C   0  0  0  0  0  0  0  0  0  0  0  0
  140.9160   71.3200  226.3560 C   0  0  0  0  0  0  0  0  0  0  0  0
  140.2830   70.8060  225.2510 C   0  0  0  0  0  0  0  0  0  0  0  0
  140.1120   71.6070  224.1990 N   0  0  0  0  0  0  0  0  0  0  0  0
  139.9200   73.8110  223.0900 H   0  0  0  0  0  0  0  0  0  0  0  0
  139.4622   74.0187  220.0894 H   0  0  0  0  0  0  0  0  0  0  0  0
  138.5423   75.0798  221.1683 H   0  0  0  0  0  0  0  0  0  0  0  0
  141.9747   74.0310  219.2886 H   0  0  0  0  0  0  0  0  0  0  0  0
  141.3262   75.0862  218.0851 H   0  0  0  0  0  0  0  0  0  0  0  0
  143.9275   75.5134  219.7746 H   0  0  0  0  0  0  0  0  0  0  0  0
  143.9105   75.3572  218.0498 H   0  0  0  0  0  0  0  0  0  0  0  0
  143.7522   77.8332  219.1443 H   0  0  0  0  0  0  0  0  0  0  0  0
  142.6924   77.5264  217.7908 H   0  0  0  0  0  0  0  0  0  0  0  0
  142.0355   77.8617  220.6405 H   0  0  0  0  0  0  0  0  0  0  0  0
  140.8187   78.1731  218.0580 H   0  0  0  0  0  0  0  0  0  0  0  0
  139.7188   77.2086  219.1392 H   0  0  0  0  0  0  0  0  0  0  0  0
  138.3189   78.4026  221.5748 H   0  0  0  0  0  0  0  0  0  0  0  0
  138.5303   78.6324  224.0189 H   0  0  0  0  0  0  0  0  0  0  0  0
  140.6373   79.5876  224.9708 H   0  0  0  0  0  0  0  0  0  0  0  0
  142.2115   80.0399  221.0440 H   0  0  0  0  0  0  0  0  0  0  0  0
  138.5242   69.5699  222.0295 H   0  0  0  0  0  0  0  0  0  0  0  0
  138.8214   68.0130  223.9894 H   0  0  0  0  0  0  0  0  0  0  0  0
  139.6507   67.6731  226.2502 H   0  0  0  0  0  0  0  0  0  0  0  0
  141.5968   70.8700  228.3427 H   0  0  0  0  0  0  0  0  0  0  0  0
  141.2712   72.3609  226.3746 H   0  0  0  0  0  0  0  0  0  0  0  0
  1  2  2  0
  2  3  1  0
  3  4  1  0
  4  5  1  0
  5  6  2  0
  5  7  1  0
  7  8  1  0
  8  9  1  0
  9 10  1  0
 10 11  1  0
 11 12  1  0
 12 13  1  0
 13 14  1  0
 14 15  2  0
 15 16  1  0
 16 17  2  0
 17 18  1  0
 18 19  1  0
 18 20  2  0
  2 21  1  0
 21 22  2  0
 22 23  1  0
 23 24  2  0
 24 25  1  0
 25 26  2  0
 26 27  1  0
 26 28  1  0
 28 29  2  0
 29 30  1  0
 30 31  2  0
 11  7  1  0
 20 14  1  0
 31 21  1  0
 30 24  1  0
  3 32  1  0
  4 33  1  0
  4 34  1  0
  8 35  1  0
  8 36  1  0
  9 37  1  0
  9 38  1  0
 10 39  1  0
 10 40  1  0
 11 41  1  1
 12 42  1  0
 12 43  1  0
 15 44  1  0
 16 45  1  0
 17 46  1  0
 20 47  1  0
 22 48  1  0
 23 49  1  0
 25 50  1  0
 28 51  1  0
 29 52  1  0
M  END
>  <smiles>  (9) 
O=C(NCC(=O)N1CCC[C@H]1COc1cccc(Cl)c1)c1ccc2cc(Cl)ccc2n1

>  <score_type>  (9) 
oracle

>  <origin>  (9) 
autodockgpu

>  <m_score__min__energy>  (9) 
-8.7599999999999998

>  <m_primary>  (9) 
energy

>  <meeko>  (9) 
{"free_energy": -8.23, "intermolecular_energy": -10.31, "internal_energy": -2.41, "cluster_size": 6, "cluster_id": 1, "rank_in_cluster": 4}

>  <energy>  (9) 
-8.14

>  <cluster_rmsd>  (9) 
1.83

>  <rmsd>  (9) 
270.3

>  <cluster>  (9) 
2

$$$$

     RDKit          3D

 52 55  0  0  0  0  0  0  0  0999 V2000
  136.0150   75.0410  221.3700 O   0  0  0  0  0  0  0  0  0  0  0  0
  137.1490   75.0200  221.9460 C   0  0  0  0  0  0  0  0  0  0  0  0
  137.8260   73.8110  222.2560 N   0  0  0  0  0  0  0  0  0  0  0  0
  137.2620   72.4950  221.9310 C   0  0  0  0  0  0  0  0  0  0  0  0
  137.4670   71.6600  223.1290 C   0  0  0  0  0  0  0  0  0  0  0  0
  136.4670   71.3240  223.8440 O   0  0  0  0  0  0  0  0  0  0  0  0
  138.7280   71.1820  223.5690 N   0  0  0  0  0  0  0  0  0  0  0  0
  139.0110   69.7910  223.8630 C   0  0  0  0  0  0  0  0  0  0  0  0
  139.7830   69.9670  225.1700 C   0  0  0  0  0  0  0  0  0  0  0  0
  140.7830   71.0210  224.7480 C   0  0  0  0  0  0  0  0  0  0  0  0
  139.9660   71.8890  223.8220 C   0  0  1  0  0  0  0  0  0  0  0  0
  140.6630   72.0820  222.4900 C   0  0  0  0  0  0  0  0  0  0  0  0
  140.5350   73.3830  222.0040 O   0  0  0  0  0  0  0  0  0  0  0  0
  141.5340   73.9650  221.2370 C   0  0  0  0  0  0  0  0  0  0  0  0
  141.3770   75.1870  220.5980 C   0  0  0  0  0  0  0  0  0  0  0  0
  142.3680   75.7570  219.8410 C   0  0  0  0  0  0  0  0  0  0  0  0
  143.5800   75.0720  219.7160 C   0  0  0  0  0  0  0  0  0  0  0  0
  143.7870   73.8490  220.3350 C   0  0  0  0  0  0  0  0  0  0  0  0
  145.3120   73.0530  220.1400 Cl  0  0  0  0  0  0  0  0  0  0  0  0
  142.7520   73.3430  221.0730 C   0  0  0  0  0  0  0  0  0  0  0  0
  137.8010   76.2960  222.3130 C   0  0  0  0  0  0  0  0  0  0  0  0
  137.0030   77.4040  222.5770 C   0  0  0  0  0  0  0  0  0  0  0  0
  137.6380   78.5990  222.9220 C   0  0  0  0  0  0  0  0  0  0  0  0
  139.0080   78.6330  222.9870 C   0  0  0  0  0  0  0  0  0  0  0  0
  139.6990   79.7860  223.3240 C   0  0  0  0  0  0  0  0  0  0  0  0
  141.0760   79.8380  223.3950 C   0  0  0  0  0  0  0  0  0  0  0  0
  141.9760   81.2590  223.8120 Cl  0  0  0  0  0  0  0  0  0  0  0  0
  141.7920   78.6700  223.1120 C   0  0  0  0  0  0  0  0  0  0  0  0
  141.1430   77.4970  222.7710 C   0  0  0  0  0  0  0  0  0  0  0  0
  139.7700   77.5180  222.7200 C   0  0  0  0  0  0  0  0  0  0  0  0
  139.1400   76.3890  222.3930 N   0  0  0  0  0  0  0  0  0  0  0  0
  138.7520   73.8730  222.7280 H   0  0  0  0  0  0  0  0  0  0  0  0
  136.1890   72.5837  221.7056 H   0  0  0  0  0  0  0  0  0  0  0  0
  137.7451   72.0562  221.0456 H   0  0  0  0  0  0  0  0  0  0  0  0
  138.0908   69.2052  224.0047 H   0  0  0  0  0  0  0  0  0  0  0  0
  139.5439   69.2423  223.0724 H   0  0  0  0  0  0  0  0  0  0  0  0
  139.1331   70.3237  225.9826 H   0  0  0  0  0  0  0  0  0  0  0  0
  140.2262   69.0444  225.5728 H   0  0  0  0  0  0  0  0  0  0  0  0
  141.1465   71.5942  225.6136 H   0  0  0  0  0  0  0  0  0  0  0  0
  141.6874   70.6065  224.2787 H   0  0  0  0  0  0  0  0  0  0  0  0
  139.8121   72.8747  224.2854 H   0  0  0  0  0  0  0  0  0  0  0  0
  141.7322   71.8558  222.6152 H   0  0  0  0  0  0  0  0  0  0  0  0
  140.1890   71.4056  221.7635 H   0  0  0  0  0  0  0  0  0  0  0  0
  140.4200   75.7191  220.7030 H   0  0  0  0  0  0  0  0  0  0  0  0
  142.2134   76.7269  219.3456 H   0  0  0  0  0  0  0  0  0  0  0  0
  144.3874   75.5131  219.1131 H   0  0  0  0  0  0  0  0  0  0  0  0
  142.9029   72.3730  221.5694 H   0  0  0  0  0  0  0  0  0  0  0  0
  135.9065   77.3411  222.5160 H   0  0  0  0  0  0  0  0  0  0  0  0
  137.0474   79.5013  223.1388 H   0  0  0  0  0  0  0  0  0  0  0  0
  139.1254   80.6984  223.5442 H   0  0  0  0  0  0  0  0  0  0  0  0
  142.8908   78.6846  223.1615 H   0  0  0  0  0  0  0  0  0  0  0  0
  141.7066   76.5790  222.5483 H   0  0  0  0  0  0  0  0  0  0  0  0
  1  2  2  0
  2  3  1  0
  3  4  1  0
  4  5  1  0
  5  6  2  0
  5  7  1  0
  7  8  1  0
  8  9  1  0
  9 10  1  0
 10 11  1  0
 11 12  1  0
 12 13  1  0
 13 14  1  0
 14 15  2  0
 15 16  1  0
 16 17  2  0
 17 18  1  0
 18 19  1  0
 18 20  2  0
  2 21  1  0
 21 22  2  0
 22 23  1  0
 23 24  2  0
 24 25  1  0
 25 26  2  0
 26 27  1  0
 26 28  1  0
 28 29  2  0
 29 30  1  0
 30 31  2  0
 11  7  1  0
 20 14  1  0
 31 21  1  0
 30 24  1  0
  3 32  1  0
  4 33  1  0
  4 34  1  0
  8 35  1  0
  8 36  1  0
  9 37  1  0
  9 38  1  0
 10 39  1  0
 10 40  1  0
 11 41  1  1
 12 42  1  0
 12 43  1  0
 15 44  1  0
 16 45  1  0
 17 46  1  0
 20 47  1  0
 22 48  1  0
 23 49  1  0
 25 50  1  0
 28 51  1  0
 29 52  1  0
M  END
>  <smiles>  (10) 
O=C(NCC(=O)N1CCC[C@H]1COc1cccc(Cl)c1)c1ccc2cc(Cl)ccc2n1

>  <score_type>  (10) 
oracle

>  <origin>  (10) 
autodockgpu

>  <m_score__min__energy>  (10) 
-8.7599999999999998

>  <m_primary>  (10) 
energy

>  <meeko>  (10) 
{"free_energy": -7.61, "intermolecular_energy": -9.7, "internal_energy": -3.0, "cluster_size": 2, "cluster_id": 4, "rank_in_cluster": 1}

>  <energy>  (10) 
-8.57

>  <cluster_rmsd>  (10) 
0.0

>  <rmsd>  (10) 
270.54

>  <cluster>  (10) 
3

$$$$

     RDKit          3D

 52 55  0  0  0  0  0  0  0  0999 V2000
  135.9240   75.1450  221.4770 O   0  0  0  0  0  0  0  0  0  0  0  0
  137.0700   75.0950  222.0290 C   0  0  0  0  0  0  0  0  0  0  0  0
  137.7260   73.8700  222.3190 N   0  0  0  0  0  0  0  0  0  0  0  0
  137.1270   72.5690  222.0000 C   0  0  0  0  0  0  0  0  0  0  0  0
  138.1410   71.5580  222.3540 C   0  0  0  0  0  0  0  0  0  0  0  0
  139.2500   71.9270  222.8610 O   0  0  0  0  0  0  0  0  0  0  0  0
  137.9800   70.1610  222.1710 N   0  0  0  0  0  0  0  0  0  0  0  0
  138.0620   69.4970  220.8860 C   0  0  0  0  0  0  0  0  0  0  0  0
  136.8520   68.5720  221.0090 C   0  0  0  0  0  0  0  0  0  0  0  0
  137.1260   67.9540  222.3620 C   0  0  0  0  0  0  0  0  0  0  0  0
  137.7140   69.1110  223.1320 C   0  0  1  0  0  0  0  0  0  0  0  0
  139.0350   68.7320  223.7720 C   0  0  0  0  0  0  0  0  0  0  0  0
  138.8710   68.1340  225.0220 O   0  0  0  0  0  0  0  0  0  0  0  0
  139.5700   68.5850  226.1310 C   0  0  0  0  0  0  0  0  0  0  0  0
  139.9420   67.7520  227.1770 C   0  0  0  0  0  0  0  0  0  0  0  0
  140.6330   68.2040  228.2720 C   0  0  0  0  0  0  0  0  0  0  0  0
  140.9720   69.5600  228.3250 C   0  0  0  0  0  0  0  0  0  0  0  0
  140.6250   70.4330  227.3060 C   0  0  0  0  0  0  0  0  0  0  0  0
  141.0760   72.0990  227.4340 Cl  0  0  0  0  0  0  0  0  0  0  0  0
  139.9360   69.9090  226.2470 C   0  0  0  0  0  0  0  0  0  0  0  0
  137.7580   76.3540  222.3890 C   0  0  0  0  0  0  0  0  0  0  0  0
  136.9900   77.4710  222.7050 C   0  0  0  0  0  0  0  0  0  0  0  0
  137.6580   78.6500  223.0420 C   0  0  0  0  0  0  0  0  0  0  0  0
  139.0300   78.6610  223.0480 C   0  0  0  0  0  0  0  0  0  0  0  0
  139.7530   79.7980  223.3730 C   0  0  0  0  0  0  0  0  0  0  0  0
  141.1330   79.8270  223.3840 C   0  0  0  0  0  0  0  0  0  0  0  0
  142.0730   81.2270  223.7840 Cl  0  0  0  0  0  0  0  0  0  0  0  0
  141.8170   78.6540  223.0520 C   0  0  0  0  0  0  0  0  0  0  0  0
  141.1340   77.4970  222.7200 C   0  0  0  0  0  0  0  0  0  0  0  0
  139.7620   77.5390  222.7290 C   0  0  0  0  0  0  0  0  0  0  0  0
  139.1000   76.4260  222.4120 N   0  0  0  0  0  0  0  0  0  0  0  0
  138.6630   73.9090  222.7720 H   0  0  0  0  0  0  0  0  0  0  0  0
  136.2112   72.4148  222.5895 H   0  0  0  0  0  0  0  0  0  0  0  0
  136.8458   72.5038  220.9385 H   0  0  0  0  0  0  0  0  0  0  0  0
  137.9558   70.2041  220.0501 H   0  0  0  0  0  0  0  0  0  0  0  0
  139.0181   68.9953  220.6760 H   0  0  0  0  0  0  0  0  0  0  0  0
  135.9066   69.1343  221.0016 H   0  0  0  0  0  0  0  0  0  0  0  0
  136.7363   67.8508  220.1865 H   0  0  0  0  0  0  0  0  0  0  0  0
  136.1982   67.5942  222.8307 H   0  0  0  0  0  0  0  0  0  0  0  0
  137.7847   67.0741  222.3186 H   0  0  0  0  0  0  0  0  0  0  0  0
  137.0139   69.4178  223.9230 H   0  0  0  0  0  0  0  0  0  0  0  0
  139.5585   68.0269  223.1096 H   0  0  0  0  0  0  0  0  0  0  0  0
  139.6135   69.6563  223.9170 H   0  0  0  0  0  0  0  0  0  0  0  0
  139.6718   66.6869  227.1257 H   0  0  0  0  0  0  0  0  0  0  0  0
  140.9129   67.5192  229.0860 H   0  0  0  0  0  0  0  0  0  0  0  0
  141.5264   69.9421  229.1949 H   0  0  0  0  0  0  0  0  0  0  0  0
  139.6544   70.5913  225.4314 H   0  0  0  0  0  0  0  0  0  0  0  0
  135.8910   77.4264  222.6897 H   0  0  0  0  0  0  0  0  0  0  0  0
  137.0920   79.5575  223.2992 H   0  0  0  0  0  0  0  0  0  0  0  0
  139.2043   80.7153  223.6329 H   0  0  0  0  0  0  0  0  0  0  0  0
  142.9170   78.6505  223.0547 H   0  0  0  0  0  0  0  0  0  0  0  0
  141.6727   76.5745  222.4577 H   0  0  0  0  0  0  0  0  0  0  0  0
  1  2  2  0
  2  3  1  0
  3  4  1  0
  4  5  1  0
  5  6  2  0
  5  7  1  0
  7  8  1  0
  8  9  1  0
  9 10  1  0
 10 11  1  0
 11 12  1  0
 12 13  1  0
 13 14  1  0
 14 15  2  0
 15 16  1  0
 16 17  2  0
 17 18  1  0
 18 19  1  0
 18 20  2  0
  2 21  1  0
 21 22  2  0
 22 23  1  0
 23 24  2  0
 24 25  1  0
 25 26  2  0
 26 27  1  0
 26 28  1  0
 28 29  2  0
 29 30  1  0
 30 31  2  0
 11  7  1  0
 20 14  1  0
 31 21  1  0
 30 24  1  0
  3 32  1  0
  4 33  1  0
  4 34  1  0
  8 35  1  0
  8 36  1  0
  9 37  1  0
  9 38  1  0
 10 39  1  0
 10 40  1  0
 11 41  1  1
 12 42  1  0
 12 43  1  0
 15 44  1  0
 16 45  1  0
 17 46  1  0
 20 47  1  0
 22 48  1  0
 23 49  1  0
 25 50  1  0
 28 51  1  0
 29 52  1  0
M  END
>  <smiles>  (11) 
O=C(NCC(=O)N1CCC[C@H]1COc1cccc(Cl)c1)c1ccc2cc(Cl)ccc2n1

>  <score_type>  (11) 
oracle

>  <origin>  (11) 
autodockgpu

>  <m_score__min__energy>  (11) 
-8.7599999999999998

>  <m_primary>  (11) 
energy

>  <meeko>  (11) 
{"free_energy": -8.61, "intermolecular_energy": -10.7, "internal_energy": -2.11, "cluster_size": 3, "cluster_id": 2, "rank_in_cluster": 1}

>  <energy>  (11) 
-8.47

>  <cluster_rmsd>  (11) 
1.04

>  <rmsd>  (11) 
270.54

>  <cluster>  (11) 
3

$$$$

     RDKit          3D

 52 55  0  0  0  0  0  0  0  0999 V2000
  139.0250   71.9730  220.6570 O   0  0  0  0  0  0  0  0  0  0  0  0
  139.2830   72.4320  221.8150 C   0  0  0  0  0  0  0  0  0  0  0  0
  139.4010   73.8230  222.0770 N   0  0  0  0  0  0  0  0  0  0  0  0
  139.2330   74.8320  221.0240 C   0  0  0  0  0  0  0  0  0  0  0  0
  140.2650   75.8550  221.2760 C   0  0  0  0  0  0  0  0  0  0  0  0
  140.6280   76.1050  222.4710 O   0  0  0  0  0  0  0  0  0  0  0  0
  140.9100   76.6110  220.2640 N   0  0  0  0  0  0  0  0  0  0  0  0
  142.1410   77.3490  220.4630 C   0  0  0  0  0  0  0  0  0  0  0  0
  141.7690   78.6480  219.7500 C   0  0  0  0  0  0  0  0  0  0  0  0
  141.2520   78.0940  218.4410 C   0  0  0  0  0  0  0  0  0  0  0  0
  140.5470   76.8340  218.8800 C   0  0  1  0  0  0  0  0  0  0  0  0
  141.0180   75.6320  218.0840 C   0  0  0  0  0  0  0  0  0  0  0  0
  142.3850   75.3950  218.2350 O   0  0  0  0  0  0  0  0  0  0  0  0
  142.8520   74.4180  219.1010 C   0  0  0  0  0  0  0  0  0  0  0  0
  142.0920   73.3180  219.4770 C   0  0  0  0  0  0  0  0  0  0  0  0
  142.5580   72.3550  220.3340 C   0  0  0  0  0  0  0  0  0  0  0  0
  143.8530   72.4960  220.8430 C   0  0  0  0  0  0  0  0  0  0  0  0
  144.6530   73.5750  220.4980 C   0  0  0  0  0  0  0  0  0  0  0  0
  146.2470   73.6890  221.1640 Cl  0  0  0  0  0  0  0  0  0  0  0  0
  144.1180   74.4950  219.6380 C   0  0  0  0  0  0  0  0  0  0  0  0
  139.4690   71.4940  222.9440 C   0  0  0  0  0  0  0  0  0  0  0  0
  139.0420   70.1780  222.7980 C   0  0  0  0  0  0  0  0  0  0  0  0
  139.2260   69.3090  223.8750 C   0  0  0  0  0  0  0  0  0  0  0  0
  139.8150   69.7810  225.0210 C   0  0  0  0  0  0  0  0  0  0  0  0
  140.0270   68.9690  226.1250 C   0  0  0  0  0  0  0  0  0  0  0  0
  140.6170   69.4280  227.2860 C   0  0  0  0  0  0  0  0  0  0  0  0
  140.9000   68.4460  228.6860 Cl  0  0  0  0  0  0  0  0  0  0  0  0
  141.0140   70.7680  227.3350 C   0  0  0  0  0  0  0  0  0  0  0  0
  140.8200   71.6120  226.2570 C   0  0  0  0  0  0  0  0  0  0  0  0
  140.2270   71.0890  225.1340 C   0  0  0  0  0  0  0  0  0  0  0  0
  140.0390   71.8990  224.0920 N   0  0  0  0  0  0  0  0  0  0  0  0
  139.6130   74.1240  223.0500 H   0  0  0  0  0  0  0  0  0  0  0  0
  139.3782   74.3782  220.0326 H   0  0  0  0  0  0  0  0  0  0  0  0
  138.2223   75.2659  221.0381 H   0  0  0  0  0  0  0  0  0  0  0  0
  142.3546   77.5122  221.5296 H   0  0  0  0  0  0  0  0  0  0  0  0
  143.0508   76.8538  220.0929 H   0  0  0  0  0  0  0  0  0  0  0  0
  140.9903   79.2030  220.2938 H   0  0  0  0  0  0  0  0  0  0  0  0
  142.5903   79.3733  219.6527 H   0  0  0  0  0  0  0  0  0  0  0  0
  140.5532   78.7945  217.9604 H   0  0  0  0  0  0  0  0  0  0  0  0
  142.0410   77.9196  217.6947 H   0  0  0  0  0  0  0  0  0  0  0  0
  139.4633   76.9516  218.7325 H   0  0  0  0  0  0  0  0  0  0  0  0
  140.4659   74.7440  218.4256 H   0  0  0  0  0  0  0  0  0  0  0  0
  140.8297   75.8400  217.0204 H   0  0  0  0  0  0  0  0  0  0  0  0
  141.0750   73.2154  219.0706 H   0  0  0  0  0  0  0  0  0  0  0  0
  141.9310   71.4955  220.6135 H   0  0  0  0  0  0  0  0  0  0  0  0
  144.2457   71.7341  221.5324 H   0  0  0  0  0  0  0  0  0  0  0  0
  144.7422   75.3557  219.3560 H   0  0  0  0  0  0  0  0  0  0  0  0
  138.5744   69.8333  221.8639 H   0  0  0  0  0  0  0  0  0  0  0  0
  138.9031   68.2597  223.8059 H   0  0  0  0  0  0  0  0  0  0  0  0
  139.7123   67.9162  226.0737 H   0  0  0  0  0  0  0  0  0  0  0  0
  141.4891   71.1576  228.2474 H   0  0  0  0  0  0  0  0  0  0  0  0
  141.1301   72.6666  226.2975 H   0  0  0  0  0  0  0  0  0  0  0  0
  1  2  2  0
  2  3  1  0
  3  4  1  0
  4  5  1  0
  5  6  2  0
  5  7  1  0
  7  8  1  0
  8  9  1  0
  9 10  1  0
 10 11  1  0
 11 12  1  0
 12 13  1  0
 13 14  1  0
 14 15  2  0
 15 16  1  0
 16 17  2  0
 17 18  1  0
 18 19  1  0
 18 20  2  0
  2 21  1  0
 21 22  2  0
 22 23  1  0
 23 24  2  0
 24 25  1  0
 25 26  2  0
 26 27  1  0
 26 28  1  0
 28 29  2  0
 29 30  1  0
 30 31  2  0
 11  7  1  0
 20 14  1  0
 31 21  1  0
 30 24  1  0
  3 32  1  0
  4 33  1  0
  4 34  1  0
  8 35  1  0
  8 36  1  0
  9 37  1  0
  9 38  1  0
 10 39  1  0
 10 40  1  0
 11 41  1  1
 12 42  1  0
 12 43  1  0
 15 44  1  0
 16 45  1  0
 17 46  1  0
 20 47  1  0
 22 48  1  0
 23 49  1  0
 25 50  1  0
 28 51  1  0
 29 52  1  0
M  END
>  <smiles>  (12) 
O=C(NCC(=O)N1CCC[C@H]1COc1cccc(Cl)c1)c1ccc2cc(Cl)ccc2n1

>  <score_type>  (12) 
oracle

>  <origin>  (12) 
autodockgpu

>  <m_score__min__energy>  (12) 
-8.7599999999999998

>  <m_primary>  (12) 
energy

>  <meeko>  (12) 
{"free_energy": -7.65, "intermolecular_energy": -9.74, "internal_energy": -2.98, "cluster_size": 7, "cluster_id": 3, "rank_in_cluster": 7}

>  <energy>  (12) 
-8.45

>  <cluster_rmsd>  (12) 
0.3

>  <rmsd>  (12) 
270.59

>  <cluster>  (12) 
3

$$$$

     RDKit          3D

 52 55  0  0  0  0  0  0  0  0999 V2000
  137.3460   71.2000  220.8400 O   0  0  0  0  0  0  0  0  0  0  0  0
  137.9010   71.7710  221.8320 C   0  0  0  0  0  0  0  0  0  0  0  0
  138.1080   73.1750  221.8900 N   0  0  0  0  0  0  0  0  0  0  0  0
  137.6930   74.0690  220.8030 C   0  0  0  0  0  0  0  0  0  0  0  0
  138.7260   73.9430  219.7580 C   0  0  0  0  0  0  0  0  0  0  0  0
  138.5600   73.1170  218.8020 O   0  0  0  0  0  0  0  0  0  0  0  0
  139.9310   74.6910  219.7250 N   0  0  0  0  0  0  0  0  0  0  0  0
  140.0130   76.0800  219.3240 C   0  0  0  0  0  0  0  0  0  0  0  0
  141.2490   76.0070  218.4300 C   0  0  0  0  0  0  0  0  0  0  0  0
  142.2010   75.2770  219.3520 C   0  0  0  0  0  0  0  0  0  0  0  0
  141.2870   74.3040  220.0540 C   0  0  1  0  0  0  0  0  0  0  0  0
  141.4370   74.3960  221.5600 C   0  0  0  0  0  0  0  0  0  0  0  0
  140.2670   74.8240  222.1880 O   0  0  0  0  0  0  0  0  0  0  0  0
  140.0290   76.1700  222.4230 C   0  0  0  0  0  0  0  0  0  0  0  0
  138.7520   76.7110  222.4740 C   0  0  0  0  0  0  0  0  0  0  0  0
  138.5220   78.0430  222.7060 C   0  0  0  0  0  0  0  0  0  0  0  0
  139.6260   78.8790  222.8980 C   0  0  0  0  0  0  0  0  0  0  0  0
  140.9220   78.3880  222.8570 C   0  0  0  0  0  0  0  0  0  0  0  0
  142.2450   79.4770  223.1040 Cl  0  0  0  0  0  0  0  0  0  0  0  0
  141.0710   77.0490  222.6210 C   0  0  0  0  0  0  0  0  0  0  0  0
  138.3540   70.9540  222.9800 C   0  0  0  0  0  0  0  0  0  0  0  0
  137.9500   69.6250  223.0570 C   0  0  0  0  0  0  0  0  0  0  0  0
  138.3880   68.8710  224.1480 C   0  0  0  0  0  0  0  0  0  0  0  0
  139.1920   69.4640  225.0890 C   0  0  0  0  0  0  0  0  0  0  0  0
  139.6610   68.7710  226.1940 C   0  0  0  0  0  0  0  0  0  0  0  0
  140.4710   69.3510  227.1500 C   0  0  0  0  0  0  0  0  0  0  0  0
  141.0770   68.5200  228.5440 Cl  0  0  0  0  0  0  0  0  0  0  0  0
  140.8240   70.6940  226.9840 C   0  0  0  0  0  0  0  0  0  0  0  0
  140.3770   71.4220  225.8960 C   0  0  0  0  0  0  0  0  0  0  0  0
  139.5750   70.7820  224.9840 C   0  0  0  0  0  0  0  0  0  0  0  0
  139.1430   71.4800  223.9330 N   0  0  0  0  0  0  0  0  0  0  0  0
  138.5690   73.5690  222.7350 H   0  0  0  0  0  0  0  0  0  0  0  0
  136.7121   73.7634  220.4099 H   0  0  0  0  0  0  0  0  0  0  0  0
  137.5952   75.1081  221.1504 H   0  0  0  0  0  0  0  0  0  0  0  0
  139.1206   76.4002  218.7663 H   0  0  0  0  0  0  0  0  0  0  0  0
  140.0723   76.8047  220.1495 H   0  0  0  0  0  0  0  0  0  0  0  0
  141.0538   75.4360  217.5103 H   0  0  0  0  0  0  0  0  0  0  0  0
  141.6132   76.9785  218.0646 H   0  0  0  0  0  0  0  0  0  0  0  0
  142.9815   74.7506  218.7829 H   0  0  0  0  0  0  0  0  0  0  0  0
  142.7463   75.9420  220.0379 H   0  0  0  0  0  0  0  0  0  0  0  0
  141.5309   73.2792  219.7374 H   0  0  0  0  0  0  0  0  0  0  0  0
  141.7032   73.4023  221.9494 H   0  0  0  0  0  0  0  0  0  0  0  0
  142.2213   75.1372  221.7732 H   0  0  0  0  0  0  0  0  0  0  0  0
  137.8899   76.0449  222.3223 H   0  0  0  0  0  0  0  0  0  0  0  0
  137.4976   78.4424  222.7400 H   0  0  0  0  0  0  0  0  0  0  0  0
  139.4628   79.9505  223.0858 H   0  0  0  0  0  0  0  0  0  0  0  0
  142.0940   76.6461  222.5870 H   0  0  0  0  0  0  0  0  0  0  0  0
  137.3059   69.1820  222.2831 H   0  0  0  0  0  0  0  0  0  0  0  0
  138.0927   67.8165  224.2516 H   0  0  0  0  0  0  0  0  0  0  0  0
  139.3761   67.7154  226.3143 H   0  0  0  0  0  0  0  0  0  0  0  0
  141.4683   71.1799  227.7316 H   0  0  0  0  0  0  0  0  0  0  0  0
  140.6549   72.4783  225.7660 H   0  0  0  0  0  0  0  0  0  0  0  0
  1  2  2  0
  2  3  1  0
  3  4  1  0
  4  5  1  0
  5  6  2  0
  5  7  1  0
  7  8  1  0
  8  9  1  0
  9 10  1  0
 10 11  1  0
 11 12  1  0
 12 13  1  0
 13 14  1  0
 14 15  2  0
 15 16  1  0
 16 17  2  0
 17 18  1  0
 18 19  1  0
 18 20  2  0
  2 21  1  0
 21 22  2  0
 22 23  1  0
 23 24  2  0
 24 25  1  0
 25 26  2  0
 26 27  1  0
 26 28  1  0
 28 29  2  0
 29 30  1  0
 30 31  2  0
 11  7  1  0
 20 14  1  0
 31 21  1  0
 30 24  1  0
  3 32  1  0
  4 33  1  0
  4 34  1  0
  8 35  1  0
  8 36  1  0
  9 37  1  0
  9 38  1  0
 10 39  1  0
 10 40  1  0
 11 41  1  6
 12 42  1  0
 12 43  1  0
 15 44  1  0
 16 45  1  0
 17 46  1  0
 20 47  1  0
 22 48  1  0
 23 49  1  0
 25 50  1  0
 28 51  1  0
 29 52  1  0
M  END
>  <smiles>  (13) 
O=C(NCC(=O)N1CCC[C@H]1COc1cccc(Cl)c1)c1ccc2cc(Cl)ccc2n1

>  <score_type>  (13) 
oracle

>  <origin>  (13) 
autodockgpu

>  <m_score__min__energy>  (13) 
-8.7599999999999998

>  <m_primary>  (13) 
energy

>  <meeko>  (13) 
{"free_energy": -7.43, "intermolecular_energy": -9.51, "internal_energy": -3.01, "cluster_size": 6, "cluster_id": 1, "rank_in_cluster": 6}

>  <energy>  (13) 
-8.4

>  <cluster_rmsd>  (13) 
1.03

>  <rmsd>  (13) 
270.48

>  <cluster>  (13) 
3

$$$$

     RDKit          3D

 52 55  0  0  0  0  0  0  0  0999 V2000
  137.3700   70.9570  220.9560 O   0  0  0  0  0  0  0  0  0  0  0  0
  137.8830   71.5630  221.9500 C   0  0  0  0  0  0  0  0  0  0  0  0
  138.0030   72.9770  222.0050 N   0  0  0  0  0  0  0  0  0  0  0  0
  137.5400   73.8420  220.9130 C   0  0  0  0  0  0  0  0  0  0  0  0
  138.4900   73.6370  219.8040 C   0  0  0  0  0  0  0  0  0  0  0  0
  138.1850   72.8500  218.8490 O   0  0  0  0  0  0  0  0  0  0  0  0
  139.7590   74.2620  219.7070 N   0  0  0  0  0  0  0  0  0  0  0  0
  139.9710   75.5830  219.1500 C   0  0  0  0  0  0  0  0  0  0  0  0
  141.2010   75.2940  218.2910 C   0  0  0  0  0  0  0  0  0  0  0  0
  142.0760   74.5930  219.3070 C   0  0  0  0  0  0  0  0  0  0  0  0
  141.0710   73.7940  220.1010 C   0  0  1  0  0  0  0  0  0  0  0  0
  141.2190   74.0470  221.5890 C   0  0  0  0  0  0  0  0  0  0  0  0
  140.0730   74.6110  222.1510 O   0  0  0  0  0  0  0  0  0  0  0  0
  139.9640   75.9810  222.3350 C   0  0  0  0  0  0  0  0  0  0  0  0
  141.0680   76.8170  222.4430 C   0  0  0  0  0  0  0  0  0  0  0  0
  140.9540   78.1710  222.6260 C   0  0  0  0  0  0  0  0  0  0  0  0
  139.6710   78.7210  222.7040 C   0  0  0  0  0  0  0  0  0  0  0  0
  138.5370   77.9300  222.6020 C   0  0  0  0  0  0  0  0  0  0  0  0
  136.9780   78.6740  222.7070 Cl  0  0  0  0  0  0  0  0  0  0  0  0
  138.7300   76.5870  222.4210 C   0  0  0  0  0  0  0  0  0  0  0  0
  138.3780   70.7790  223.1020 C   0  0  0  0  0  0  0  0  0  0  0  0
  138.0550   69.4280  223.1820 C   0  0  0  0  0  0  0  0  0  0  0  0
  138.5320   68.7040  224.2770 C   0  0  0  0  0  0  0  0  0  0  0  0
  139.2930   69.3470  225.2210 C   0  0  0  0  0  0  0  0  0  0  0  0
  139.7970   68.6870  226.3300 C   0  0  0  0  0  0  0  0  0  0  0  0
  140.5640   69.3180  227.2890 C   0  0  0  0  0  0  0  0  0  0  0  0
  141.2120   68.5280  228.6890 Cl  0  0  0  0  0  0  0  0  0  0  0  0
  140.8360   70.6790  227.1210 C   0  0  0  0  0  0  0  0  0  0  0  0
  140.3520   71.3760  226.0290 C   0  0  0  0  0  0  0  0  0  0  0  0
  139.5960   70.6860  225.1140 C   0  0  0  0  0  0  0  0  0  0  0  0
  139.1280   71.3530  224.0590 N   0  0  0  0  0  0  0  0  0  0  0  0
  138.4330   73.4010  222.8520 H   0  0  0  0  0  0  0  0  0  0  0  0
  136.5236   73.5568  220.6037 H   0  0  0  0  0  0  0  0  0  0  0  0
  137.5019   74.8970  221.2221 H   0  0  0  0  0  0  0  0  0  0  0  0
  139.1154   75.9160  218.5442 H   0  0  0  0  0  0  0  0  0  0  0  0
  140.0915   76.3904  219.8873 H   0  0  0  0  0  0  0  0  0  0  0  0
  140.9596   74.6398  217.4403 H   0  0  0  0  0  0  0  0  0  0  0  0
  141.6555   76.1791  217.8220 H   0  0  0  0  0  0  0  0  0  0  0  0
  142.8086   73.9358  218.8157 H   0  0  0  0  0  0  0  0  0  0  0  0
  142.6755   75.2811  219.9211 H   0  0  0  0  0  0  0  0  0  0  0  0
  141.2214   72.7215  219.9084 H   0  0  0  0  0  0  0  0  0  0  0  0
  141.4239   73.0899  222.0910 H   0  0  0  0  0  0  0  0  0  0  0  0
  142.0449   74.7604  221.7266 H   0  0  0  0  0  0  0  0  0  0  0  0
  142.0734   76.3753  222.3792 H   0  0  0  0  0  0  0  0  0  0  0  0
  141.8475   78.8072  222.7092 H   0  0  0  0  0  0  0  0  0  0  0  0
  139.5588   79.8055  222.8495 H   0  0  0  0  0  0  0  0  0  0  0  0
  137.8385   75.9479  222.3386 H   0  0  0  0  0  0  0  0  0  0  0  0
  137.4426   68.9448  222.4065 H   0  0  0  0  0  0  0  0  0  0  0  0
  138.3010   67.6336  224.3813 H   0  0  0  0  0  0  0  0  0  0  0  0
  139.5770   67.6161  226.4514 H   0  0  0  0  0  0  0  0  0  0  0  0
  141.4457   71.2047  227.8706 H   0  0  0  0  0  0  0  0  0  0  0  0
  140.5656   72.4471  225.8980 H   0  0  0  0  0  0  0  0  0  0  0  0
  1  2  2  0
  2  3  1  0
  3  4  1  0
  4  5  1  0
  5  6  2  0
  5  7  1  0
  7  8  1  0
  8  9  1  0
  9 10  1  0
 10 11  1  0
 11 12  1  0
 12 13  1  0
 13 14  1  0
 14 15  2  0
 15 16  1  0
 16 17  2  0
 17 18  1  0
 18 19  1  0
 18 20  2  0
  2 21  1  0
 21 22  2  0
 22 23  1  0
 23 24  2  0
 24 25  1  0
 25 26  2  0
 26 27  1  0
 26 28  1  0
 28 29  2  0
 29 30  1  0
 30 31  2  0
 11  7  1  0
 20 14  1  0
 31 21  1  0
 30 24  1  0
  3 32  1  0
  4 33  1  0
  4 34  1  0
  8 35  1  0
  8 36  1  0
  9 37  1  0
  9 38  1  0
 10 39  1  0
 10 40  1  0
 11 41  1  1
 12 42  1  0
 12 43  1  0
 15 44  1  0
 16 45  1  0
 17 46  1  0
 20 47  1  0
 22 48  1  0
 23 49  1  0
 25 50  1  0
 28 51  1  0
 29 52  1  0
M  END
>  <smiles>  (14) 
O=C(NCC(=O)N1CCC[C@H]1COc1cccc(Cl)c1)c1ccc2cc(Cl)ccc2n1

>  <score_type>  (14) 
oracle

>  <origin>  (14) 
autodockgpu

>  <m_score__min__energy>  (14) 
-8.7599999999999998

>  <m_primary>  (14) 
energy

>  <meeko>  (14) 
{"free_energy": -6.92, "intermolecular_energy": -9.0, "internal_energy": -3.04, "cluster_size": 1, "cluster_id": 5, "rank_in_cluster": 1}

>  <energy>  (14) 
-8.4

>  <cluster_rmsd>  (14) 
1.0

>  <rmsd>  (14) 
270.53

>  <cluster>  (14) 
3

$$$$

     RDKit          3D

 52 55  0  0  0  0  0  0  0  0999 V2000
  140.7680   72.4430  220.9200 O   0  0  0  0  0  0  0  0  0  0  0  0
  140.0960   72.6830  221.9730 C   0  0  0  0  0  0  0  0  0  0  0  0
  139.3610   73.8850  222.1550 N   0  0  0  0  0  0  0  0  0  0  0  0
  139.3270   74.9390  221.1340 C   0  0  0  0  0  0  0  0  0  0  0  0
  140.6190   75.6420  221.2350 C   0  0  0  0  0  0  0  0  0  0  0  0
  141.0420   76.0270  222.3740 O   0  0  0  0  0  0  0  0  0  0  0  0
  141.4620   75.9350  220.1330 N   0  0  0  0  0  0  0  0  0  0  0  0
  141.7180   75.0180  219.0410 C   0  0  0  0  0  0  0  0  0  0  0  0
  143.2300   75.1980  218.9160 C   0  0  0  0  0  0  0  0  0  0  0  0
  143.3150   76.7070  218.8640 C   0  0  0  0  0  0  0  0  0  0  0  0
  142.2280   77.1250  219.8250 C   0  0  1  0  0  0  0  0  0  0  0  0
  141.2840   78.1260  219.1880 C   0  0  0  0  0  0  0  0  0  0  0  0
  140.1370   78.3390  219.9510 O   0  0  0  0  0  0  0  0  0  0  0  0
  140.2190   78.8090  221.2540 C   0  0  0  0  0  0  0  0  0  0  0  0
  139.1490   78.7660  222.1380 C   0  0  0  0  0  0  0  0  0  0  0  0
  139.2350   79.2330  223.4240 C   0  0  0  0  0  0  0  0  0  0  0  0
  140.4540   79.7700  223.8520 C   0  0  0  0  0  0  0  0  0  0  0  0
  141.5510   79.8350  223.0080 C   0  0  0  0  0  0  0  0  0  0  0  0
  143.0310   80.5110  223.5990 Cl  0  0  0  0  0  0  0  0  0  0  0  0
  141.3890   79.3500  221.7380 C   0  0  0  0  0  0  0  0  0  0  0  0
  140.0670   71.6800  223.0600 C   0  0  0  0  0  0  0  0  0  0  0  0
  139.5200   70.4270  222.8020 C   0  0  0  0  0  0  0  0  0  0  0  0
  139.5020   69.4950  223.8410 C   0  0  0  0  0  0  0  0  0  0  0  0
  140.0200   69.8460  225.0620 C   0  0  0  0  0  0  0  0  0  0  0  0
  140.0330   68.9670  226.1340 C   0  0  0  0  0  0  0  0  0  0  0  0
  140.5490   69.3040  227.3690 C   0  0  0  0  0  0  0  0  0  0  0  0
  140.5840   68.2340  228.7320 Cl  0  0  0  0  0  0  0  0  0  0  0  0
  141.0790   70.5880  227.5310 C   0  0  0  0  0  0  0  0  0  0  0  0
  141.0850   71.4960  226.4880 C   0  0  0  0  0  0  0  0  0  0  0  0
  140.5550   71.0940  225.2860 C   0  0  0  0  0  0  0  0  0  0  0  0
  140.5600   71.9660  224.2780 N   0  0  0  0  0  0  0  0  0  0  0  0
  138.8350   74.0090  223.0440 H   0  0  0  0  0  0  0  0  0  0  0  0
  139.2085   74.4983  220.1331 H   0  0  0  0  0  0  0  0  0  0  0  0
  138.4811   75.6247  221.2898 H   0  0  0  0  0  0  0  0  0  0  0  0
  141.4472   73.9839  219.3005 H   0  0  0  0  0  0  0  0  0  0  0  0
  141.1444   75.2096  218.1222 H   0  0  0  0  0  0  0  0  0  0  0  0
  143.7626   74.7895  219.7875 H   0  0  0  0  0  0  0  0  0  0  0  0
  143.6877   74.6798  218.0605 H   0  0  0  0  0  0  0  0  0  0  0  0
  144.3008   77.0620  219.1990 H   0  0  0  0  0  0  0  0  0  0  0  0
  143.1905   77.1201  217.8521 H   0  0  0  0  0  0  0  0  0  0  0  0
  142.6826   77.5866  220.7139 H   0  0  0  0  0  0  0  0  0  0  0  0
  141.8123   79.0837  219.0705 H   0  0  0  0  0  0  0  0  0  0  0  0
  140.9681   77.7163  218.2172 H   0  0  0  0  0  0  0  0  0  0  0  0
  138.1951   78.3406  221.7929 H   0  0  0  0  0  0  0  0  0  0  0  0
  138.3692   79.1868  224.1009 H   0  0  0  0  0  0  0  0  0  0  0  0
  140.5435   80.1488  224.8808 H   0  0  0  0  0  0  0  0  0  0  0  0
  142.2524   79.3956  221.0579 H   0  0  0  0  0  0  0  0  0  0  0  0
  139.1144   70.1786  221.8102 H   0  0  0  0  0  0  0  0  0  0  0  0
  139.0781   68.4924  223.6829 H   0  0  0  0  0  0  0  0  0  0  0  0
  139.6148   67.9592  225.9945 H   0  0  0  0  0  0  0  0  0  0  0  0
  141.4983   70.8807  228.5049 H   0  0  0  0  0  0  0  0  0  0  0  0
  141.5003   72.5064  226.6165 H   0  0  0  0  0  0  0  0  0  0  0  0
  1  2  2  0
  2  3  1  0
  3  4  1  0
  4  5  1  0
  5  6  2  0
  5  7  1  0
  7  8  1  0
  8  9  1  0
  9 10  1  0
 10 11  1  0
 11 12  1  0
 12 13  1  0
 13 14  1  0
 14 15  2  0
 15 16  1  0
 16 17  2  0
 17 18  1  0
 18 19  1  0
 18 20  2  0
  2 21  1  0
 21 22  2  0
 22 23  1  0
 23 24  2  0
 24 25  1  0
 25 26  2  0
 26 27  1  0
 26 28  1  0
 28 29  2  0
 29 30  1  0
 30 31  2  0
 11  7  1  0
 20 14  1  0
 31 21  1  0
 30 24  1  0
  3 32  1  0
  4 33  1  0
  4 34  1  0
  8 35  1  0
  8 36  1  0
  9 37  1  0
  9 38  1  0
 10 39  1  0
 10 40  1  0
 11 41  1  1
 12 42  1  0
 12 43  1  0
 15 44  1  0
 16 45  1  0
 17 46  1  0
 20 47  1  0
 22 48  1  0
 23 49  1  0
 25 50  1  0
 28 51  1  0
 29 52  1  0
M  END
>  <smiles>  (15) 
O=C(NCC(=O)N1CCC[C@H]1COc1cccc(Cl)c1)c1ccc2cc(Cl)ccc2n1

>  <score_type>  (15) 
oracle

>  <origin>  (15) 
autodockgpu

>  <m_score__min__energy>  (15) 
-8.7599999999999998

>  <m_primary>  (15) 
energy

>  <meeko>  (15) 
{"free_energy": -8.76, "intermolecular_energy": -10.84, "internal_energy": -1.96, "cluster_size": 6, "cluster_id": 1, "rank_in_cluster": 1}

>  <energy>  (15) 
-7.7

>  <cluster_rmsd>  (15) 
0.95

>  <rmsd>  (15) 
270.2

>  <cluster>  (15) 
3

$$$$

     RDKit          3D

 52 55  0  0  0  0  0  0  0  0999 V2000
  140.1100   72.2530  220.5030 O   0  0  0  0  0  0  0  0  0  0  0  0
  139.9300   72.6900  221.6850 C   0  0  0  0  0  0  0  0  0  0  0  0
  139.7080   74.0640  221.9670 N   0  0  0  0  0  0  0  0  0  0  0  0
  139.6720   75.0810  220.9100 C   0  0  0  0  0  0  0  0  0  0  0  0
  140.2070   76.3140  221.5160 C   0  0  0  0  0  0  0  0  0  0  0  0
  139.9810   76.5640  222.7450 O   0  0  0  0  0  0  0  0  0  0  0  0
  140.9810   77.2800  220.8230 N   0  0  0  0  0  0  0  0  0  0  0  0
  141.8250   78.2610  221.4720 C   0  0  0  0  0  0  0  0  0  0  0  0
  141.4450   79.4950  220.6540 C   0  0  0  0  0  0  0  0  0  0  0  0
  141.6130   78.9470  219.2540 C   0  0  0  0  0  0  0  0  0  0  0  0
  141.1250   77.5270  219.4030 C   0  0  1  0  0  0  0  0  0  0  0  0
  142.1400   76.5360  218.8670 C   0  0  0  0  0  0  0  0  0  0  0  0
  142.4640   75.5480  219.7960 O   0  0  0  0  0  0  0  0  0  0  0  0
  143.5830   74.7460  219.6290 C   0  0  0  0  0  0  0  0  0  0  0  0
  143.9210   74.1670  218.4140 C   0  0  0  0  0  0  0  0  0  0  0  0
  145.0290   73.3740  218.2550 C   0  0  0  0  0  0  0  0  0  0  0  0
  145.8430   73.1480  219.3680 C   0  0  0  0  0  0  0  0  0  0  0  0
  145.5500   73.7030  220.6040 C   0  0  0  0  0  0  0  0  0  0  0  0
  146.6000   73.3830  221.9430 Cl  0  0  0  0  0  0  0  0  0  0  0  0
  144.4280   74.4820  220.6850 C   0  0  0  0  0  0  0  0  0  0  0  0
  139.9480   71.7410  222.8200 C   0  0  0  0  0  0  0  0  0  0  0  0
  139.4450   70.4580  222.6290 C   0  0  0  0  0  0  0  0  0  0  0  0
  139.4710   69.5780  223.7130 C   0  0  0  0  0  0  0  0  0  0  0  0
  139.9860   70.0080  224.9100 C   0  0  0  0  0  0  0  0  0  0  0  0
  140.0410   69.1840  226.0230 C   0  0  0  0  0  0  0  0  0  0  0  0
  140.5550   69.6010  227.2350 C   0  0  0  0  0  0  0  0  0  0  0  0
  140.6410   68.6020  228.6490 Cl  0  0  0  0  0  0  0  0  0  0  0  0
  141.0370   70.9100  227.3290 C   0  0  0  0  0  0  0  0  0  0  0  0
  141.0000   71.7650  226.2420 C   0  0  0  0  0  0  0  0  0  0  0  0
  140.4750   71.2850  225.0670 C   0  0  0  0  0  0  0  0  0  0  0  0
  140.4390   72.1060  224.0180 N   0  0  0  0  0  0  0  0  0  0  0  0
  139.5690   74.3460  222.9590 H   0  0  0  0  0  0  0  0  0  0  0  0
  140.2966   74.7708  220.0593 H   0  0  0  0  0  0  0  0  0  0  0  0
  138.6514   75.2294  220.5274 H   0  0  0  0  0  0  0  0  0  0  0  0
  141.5735   78.3799  222.5362 H   0  0  0  0  0  0  0  0  0  0  0  0
  142.8982   78.0203  221.4882 H   0  0  0  0  0  0  0  0  0  0  0  0
  140.4087   79.8092  220.8474 H   0  0  0  0  0  0  0  0  0  0  0  0
  142.0382   80.3952  220.8725 H   0  0  0  0  0  0  0  0  0  0  0  0
  140.9994   79.5052  218.5315 H   0  0  0  0  0  0  0  0  0  0  0  0
  142.6422   79.0210  218.8729 H   0  0  0  0  0  0  0  0  0  0  0  0
  140.1841   77.4037  218.8467 H   0  0  0  0  0  0  0  0  0  0  0  0
  141.7230   76.0540  217.9705 H   0  0  0  0  0  0  0  0  0  0  0  0
  143.0604   77.0923  218.6361 H   0  0  0  0  0  0  0  0  0  0  0  0
  143.2745   74.3513  217.5434 H   0  0  0  0  0  0  0  0  0  0  0  0
  145.2700   72.9285  217.2786 H   0  0  0  0  0  0  0  0  0  0  0  0
  146.7365   72.5154  219.2610 H   0  0  0  0  0  0  0  0  0  0  0  0
  144.1837   74.9283  221.6603 H   0  0  0  0  0  0  0  0  0  0  0  0
  139.0397   70.1466  221.6550 H   0  0  0  0  0  0  0  0  0  0  0  0
  139.0838   68.5537  223.6087 H   0  0  0  0  0  0  0  0  0  0  0  0
  139.6596   68.1558  225.9375 H   0  0  0  0  0  0  0  0  0  0  0  0
  141.4526   71.2660  228.2832 H   0  0  0  0  0  0  0  0  0  0  0  0
  141.3785   72.7952  226.3163 H   0  0  0  0  0  0  0  0  0  0  0  0
  1  2  2  0
  2  3  1  0
  3  4  1  0
  4  5  1  0
  5  6  2  0
  5  7  1  0
  7  8  1  0
  8  9  1  0
  9 10  1  0
 10 11  1  0
 11 12  1  0
 12 13  1  0
 13 14  1  0
 14 15  2  0
 15 16  1  0
 16 17  2  0
 17 18  1  0
 18 19  1  0
 18 20  2  0
  2 21  1  0
 21 22  2  0
 22 23  1  0
 23 24  2  0
 24 25  1  0
 25 26  2  0
 26 27  1  0
 26 28  1  0
 28 29  2  0
 29 30  1  0
 30 31  2  0
 11  7  1  0
 20 14  1  0
 31 21  1  0
 30 24  1  0
  3 32  1  0
  4 33  1  0
  4 34  1  0
  8 35  1  0
  8 36  1  0
  9 37  1  0
  9 38  1  0
 10 39  1  0
 10 40  1  0
 11 41  1  6
 12 42  1  0
 12 43  1  0
 15 44  1  0
 16 45  1  0
 17 46  1  0
 20 47  1  0
 22 48  1  0
 23 49  1  0
 25 50  1  0
 28 51  1  0
 29 52  1  0
M  END
>  <smiles>  (16) 
O=C(NCC(=O)N1CCC[C@H]1COc1cccc(Cl)c1)c1ccc2cc(Cl)ccc2n1

>  <score_type>  (16) 
oracle

>  <origin>  (16) 
autodockgpu

>  <m_score__min__energy>  (16) 
-8.7599999999999998

>  <m_primary>  (16) 
energy

>  <meeko>  (16) 
{"free_energy": -8.47, "intermolecular_energy": -10.56, "internal_energy": -2.38, "cluster_size": 7, "cluster_id": 3, "rank_in_cluster": 2}

>  <energy>  (16) 
-7.65

>  <cluster_rmsd>  (16) 
1.21

>  <rmsd>  (16) 
270.14

>  <cluster>  (16) 
3

$$$$

     RDKit          3D

 52 55  0  0  0  0  0  0  0  0999 V2000
  136.0880   75.1450  221.2330 O   0  0  0  0  0  0  0  0  0  0  0  0
  137.2080   75.1190  221.8370 C   0  0  0  0  0  0  0  0  0  0  0  0
  137.8480   73.9070  222.2090 N   0  0  0  0  0  0  0  0  0  0  0  0
  137.2600   72.5930  221.9200 C   0  0  0  0  0  0  0  0  0  0  0  0
  137.4370   71.7920  223.1450 C   0  0  0  0  0  0  0  0  0  0  0  0
  136.4420   71.5860  223.9140 O   0  0  0  0  0  0  0  0  0  0  0  0
  138.6640   71.2110  223.5540 N   0  0  0  0  0  0  0  0  0  0  0  0
  138.8620   69.7890  223.7520 C   0  0  0  0  0  0  0  0  0  0  0  0
  139.6330   69.8280  225.0700 C   0  0  0  0  0  0  0  0  0  0  0  0
  140.6970   70.8470  224.7260 C   0  0  0  0  0  0  0  0  0  0  0  0
  139.9400   71.8240  223.8600 C   0  0  1  0  0  0  0  0  0  0  0  0
  140.6570   72.0680  222.5470 C   0  0  0  0  0  0  0  0  0  0  0  0
  140.6050   73.4040  222.1500 O   0  0  0  0  0  0  0  0  0  0  0  0
  141.5590   73.9350  221.2950 C   0  0  0  0  0  0  0  0  0  0  0  0
  142.6630   73.2160  220.8570 C   0  0  0  0  0  0  0  0  0  0  0  0
  143.6030   73.7470  220.0120 C   0  0  0  0  0  0  0  0  0  0  0  0
  143.4330   75.0660  219.5800 C   0  0  0  0  0  0  0  0  0  0  0  0
  142.3480   75.8260  219.9880 C   0  0  0  0  0  0  0  0  0  0  0  0
  142.1970   77.4530  219.4160 Cl  0  0  0  0  0  0  0  0  0  0  0  0
  141.4520   75.2280  220.8310 C   0  0  0  0  0  0  0  0  0  0  0  0
  137.8820   76.3920  222.1730 C   0  0  0  0  0  0  0  0  0  0  0  0
  137.1280   77.5610  222.2080 C   0  0  0  0  0  0  0  0  0  0  0  0
  137.7830   78.7520  222.5260 C   0  0  0  0  0  0  0  0  0  0  0  0
  139.1300   78.7240  222.7890 C   0  0  0  0  0  0  0  0  0  0  0  0
  139.8380   79.8700  223.1120 C   0  0  0  0  0  0  0  0  0  0  0  0
  141.1930   79.8600  223.3790 C   0  0  0  0  0  0  0  0  0  0  0  0
  142.1140   81.2700  223.7860 Cl  0  0  0  0  0  0  0  0  0  0  0  0
  141.8640   78.6350  223.3190 C   0  0  0  0  0  0  0  0  0  0  0  0
  141.1960   77.4670  223.0010 C   0  0  0  0  0  0  0  0  0  0  0  0
  139.8480   77.5500  222.7460 C   0  0  0  0  0  0  0  0  0  0  0  0
  139.2000   76.4270  222.4400 N   0  0  0  0  0  0  0  0  0  0  0  0
  138.7640   73.9650  222.7000 H   0  0  0  0  0  0  0  0  0  0  0  0
  136.1911   72.6964  221.6817 H   0  0  0  0  0  0  0  0  0  0  0  0
  137.7421   72.1170  221.0534 H   0  0  0  0  0  0  0  0  0  0  0  0
  137.9077   69.2507  223.8497 H   0  0  0  0  0  0  0  0  0  0  0  0
  139.3674   69.2655  222.9271 H   0  0  0  0  0  0  0  0  0  0  0  0
  138.9992   70.1658  225.9032 H   0  0  0  0  0  0  0  0  0  0  0  0
  140.0177   68.8549  225.4091 H   0  0  0  0  0  0  0  0  0  0  0  0
  141.0872   71.3362  225.6307 H   0  0  0  0  0  0  0  0  0  0  0  0
  141.5789   70.4129  224.2322 H   0  0  0  0  0  0  0  0  0  0  0  0
  139.8414   72.7825  224.3907 H   0  0  0  0  0  0  0  0  0  0  0  0
  141.7110   71.7747  222.6609 H   0  0  0  0  0  0  0  0  0  0  0  0
  140.1518   71.4699  221.7743 H   0  0  0  0  0  0  0  0  0  0  0  0
  142.7885   72.1790  221.2017 H   0  0  0  0  0  0  0  0  0  0  0  0
  144.4674   73.1516  219.6828 H   0  0  0  0  0  0  0  0  0  0  0  0
  144.1764   75.5101  218.9017 H   0  0  0  0  0  0  0  0  0  0  0  0
  140.5860   75.8204  221.1614 H   0  0  0  0  0  0  0  0  0  0  0  0
  136.0495   77.5470  221.9918 H   0  0  0  0  0  0  0  0  0  0  0  0
  137.2271   79.7004  222.5653 H   0  0  0  0  0  0  0  0  0  0  0  0
  139.2987   80.8276  223.1577 H   0  0  0  0  0  0  0  0  0  0  0  0
  142.9433   78.5998  223.5286 H   0  0  0  0  0  0  0  0  0  0  0  0
  141.7254   76.5040  222.9537 H   0  0  0  0  0  0  0  0  0  0  0  0
  1  2  2  0
  2  3  1  0
  3  4  1  0
  4  5  1  0
  5  6  2  0
  5  7  1  0
  7  8  1  0
  8  9  1  0
  9 10  1  0
 10 11  1  0
 11 12  1  0
 12 13  1  0
 13 14  1  0
 14 15  2  0
 15 16  1  0
 16 17  2  0
 17 18  1  0
 18 19  1  0
 18 20  2  0
  2 21  1  0
 21 22  2  0
 22 23  1  0
 23 24  2  0
 24 25  1  0
 25 26  2  0
 26 27  1  0
 26 28  1  0
 28 29  2  0
 29 30  1  0
 30 31  2  0
 11  7  1  0
 20 14  1  0
 31 21  1  0
 30 24  1  0
  3 32  1  0
  4 33  1  0
  4 34  1  0
  8 35  1  0
  8 36  1  0
  9 37  1  0
  9 38  1  0
 10 39  1  0
 10 40  1  0
 11 41  1  1
 12 42  1  0
 12 43  1  0
 15 44  1  0
 16 45  1  0
 17 46  1  0
 20 47  1  0
 22 48  1  0
 23 49  1  0
 25 50  1  0
 28 51  1  0
 29 52  1  0
M  END
>  <smiles>  (17) 
O=C(NCC(=O)N1CCC[C@H]1COc1cccc(Cl)c1)c1ccc2cc(Cl)ccc2n1

>  <score_type>  (17) 
oracle

>  <origin>  (17) 
autodockgpu

>  <m_score__min__energy>  (17) 
-8.7599999999999998

>  <m_primary>  (17) 
energy

>  <meeko>  (17) 
{"free_energy": -7.3, "intermolecular_energy": -9.38, "internal_energy": -3.26, "cluster_size": 2, "cluster_id": 4, "rank_in_cluster": 2}

>  <energy>  (17) 
-7.61

>  <cluster_rmsd>  (17) 
0.0

>  <rmsd>  (17) 
270.22

>  <cluster>  (17) 
4

$$$$

     RDKit          3D

 52 55  0  0  0  0  0  0  0  0999 V2000
  140.3870   72.1870  220.5830 O   0  0  0  0  0  0  0  0  0  0  0  0
  140.0470   72.6050  221.7360 C   0  0  0  0  0  0  0  0  0  0  0  0
  139.6790   73.9540  221.9820 N   0  0  0  0  0  0  0  0  0  0  0  0
  139.6660   74.9660  220.9190 C   0  0  0  0  0  0  0  0  0  0  0  0
  140.0380   76.2380  221.5670 C   0  0  0  0  0  0  0  0  0  0  0  0
  139.5810   76.5160  222.7230 O   0  0  0  0  0  0  0  0  0  0  0  0
  140.8940   77.2110  220.9910 N   0  0  0  0  0  0  0  0  0  0  0  0
  141.5080   78.2920  221.7350 C   0  0  0  0  0  0  0  0  0  0  0  0
  141.2560   79.4390  220.7580 C   0  0  0  0  0  0  0  0  0  0  0  0
  141.7720   78.8180  219.4790 C   0  0  0  0  0  0  0  0  0  0  0  0
  141.3450   77.3770  219.6250 C   0  0  1  0  0  0  0  0  0  0  0  0
  142.5120   76.4320  219.4110 C   0  0  0  0  0  0  0  0  0  0  0  0
  142.5260   75.3850  220.3320 O   0  0  0  0  0  0  0  0  0  0  0  0
  143.5190   74.4160  220.3010 C   0  0  0  0  0  0  0  0  0  0  0  0
  144.8650   74.7120  220.4690 C   0  0  0  0  0  0  0  0  0  0  0  0
  145.8420   73.7510  220.4370 C   0  0  0  0  0  0  0  0  0  0  0  0
  145.4560   72.4230  220.2270 C   0  0  0  0  0  0  0  0  0  0  0  0
  144.1250   72.0760  220.0550 C   0  0  0  0  0  0  0  0  0  0  0  0
  143.7140   70.4130  219.8000 Cl  0  0  0  0  0  0  0  0  0  0  0  0
  143.2070   73.0900  220.0990 C   0  0  0  0  0  0  0  0  0  0  0  0
  140.0270   71.6600  222.8730 C   0  0  0  0  0  0  0  0  0  0  0  0
  139.4800   70.3940  222.6840 C   0  0  0  0  0  0  0  0  0  0  0  0
  139.4710   69.5170  223.7710 C   0  0  0  0  0  0  0  0  0  0  0  0
  139.9970   69.9320  224.9680 C   0  0  0  0  0  0  0  0  0  0  0  0
  140.0190   69.1100  226.0840 C   0  0  0  0  0  0  0  0  0  0  0  0
  140.5430   69.5120  227.2960 C   0  0  0  0  0  0  0  0  0  0  0  0
  140.5890   68.5150  228.7140 Cl  0  0  0  0  0  0  0  0  0  0  0  0
  141.0720   70.8030  227.3880 C   0  0  0  0  0  0  0  0  0  0  0  0
  141.0690   71.6560  226.2990 C   0  0  0  0  0  0  0  0  0  0  0  0
  140.5310   71.1910  225.1240 C   0  0  0  0  0  0  0  0  0  0  0  0
  140.5280   72.0100  224.0710 N   0  0  0  0  0  0  0  0  0  0  0  0
  139.4120   74.2210  222.9520 H   0  0  0  0  0  0  0  0  0  0  0  0
  140.3945   74.7080  220.1362 H   0  0  0  0  0  0  0  0  0  0  0  0
  138.6798   75.0320  220.4363 H   0  0  0  0  0  0  0  0  0  0  0  0
  141.0116   78.4593  222.7022 H   0  0  0  0  0  0  0  0  0  0  0  0
  142.5606   78.1333  222.0121 H   0  0  0  0  0  0  0  0  0  0  0  0
  140.1867   79.6873  220.6880 H   0  0  0  0  0  0  0  0  0  0  0  0
  141.7308   80.3924  221.0328 H   0  0  0  0  0  0  0  0  0  0  0  0
  141.3096   79.2829  218.5958 H   0  0  0  0  0  0  0  0  0  0  0  0
  142.8552   78.9436  219.3345 H   0  0  0  0  0  0  0  0  0  0  0  0
  140.5658   77.1491  218.8828 H   0  0  0  0  0  0  0  0  0  0  0  0
  142.4430   76.0097  218.3976 H   0  0  0  0  0  0  0  0  0  0  0  0
  143.4388   77.0089  219.5460 H   0  0  0  0  0  0  0  0  0  0  0  0
  145.1591   75.7590  220.6343 H   0  0  0  0  0  0  0  0  0  0  0  0
  146.9007   74.0169  220.5728 H   0  0  0  0  0  0  0  0  0  0  0  0
  146.2252   71.6372  220.1977 H   0  0  0  0  0  0  0  0  0  0  0  0
  142.1473   72.8279  219.9638 H   0  0  0  0  0  0  0  0  0  0  0  0
  139.0678   70.0937  221.7093 H   0  0  0  0  0  0  0  0  0  0  0  0
  139.0477   68.5069  223.6686 H   0  0  0  0  0  0  0  0  0  0  0  0
  139.6017   68.0957  226.0002 H   0  0  0  0  0  0  0  0  0  0  0  0
  141.4978   71.1461  228.3425 H   0  0  0  0  0  0  0  0  0  0  0  0
  141.4835   72.6723  226.3716 H   0  0  0  0  0  0  0  0  0  0  0  0
  1  2  2  0
  2  3  1  0
  3  4  1  0
  4  5  1  0
  5  6  2  0
  5  7  1  0
  7  8  1  0
  8  9  1  0
  9 10  1  0
 10 11  1  0
 11 12  1  0
 12 13  1  0
 13 14  1  0
 14 15  2  0
 15 16  1  0
 16 17  2  0
 17 18  1  0
 18 19  1  0
 18 20  2  0
  2 21  1  0
 21 22  2  0
 22 23  1  0
 23 24  2  0
 24 25  1  0
 25 26  2  0
 26 27  1  0
 26 28  1  0
 28 29  2  0
 29 30  1  0
 30 31  2  0
 11  7  1  0
 20 14  1  0
 31 21  1  0
 30 24  1  0
  3 32  1  0
  4 33  1  0
  4 34  1  0
  8 35  1  0
  8 36  1  0
  9 37  1  0
  9 38  1  0
 10 39  1  0
 10 40  1  0
 11 41  1  6
 12 42  1  0
 12 43  1  0
 15 44  1  0
 16 45  1  0
 17 46  1  0
 20 47  1  0
 22 48  1  0
 23 49  1  0
 25 50  1  0
 28 51  1  0
 29 52  1  0
M  END
>  <smiles>  (18) 
O=C(NCC(=O)N1CCC[C@H]1COc1cccc(Cl)c1)c1ccc2cc(Cl)ccc2n1

>  <score_type>  (18) 
oracle

>  <origin>  (18) 
autodockgpu

>  <m_score__min__energy>  (18) 
-8.7599999999999998

>  <m_primary>  (18) 
energy

>  <meeko>  (18) 
{"free_energy": -8.57, "intermolecular_energy": -10.66, "internal_energy": -2.56, "cluster_size": 7, "cluster_id": 3, "rank_in_cluster": 1}

>  <energy>  (18) 
-7.3

>  <cluster_rmsd>  (18) 
0.98

>  <rmsd>  (18) 
270.17

>  <cluster>  (18) 
4

$$$$

     RDKit          3D

 52 55  0  0  0  0  0  0  0  0999 V2000
  139.3880   71.5910  220.7560 O   0  0  0  0  0  0  0  0  0  0  0  0
  139.4760   72.0710  221.9310 C   0  0  0  0  0  0  0  0  0  0  0  0
  139.4540   73.4680  222.1900 N   0  0  0  0  0  0  0  0  0  0  0  0
  139.3260   74.4580  221.1140 C   0  0  0  0  0  0  0  0  0  0  0  0
  140.4410   75.4050  221.3020 C   0  0  0  0  0  0  0  0  0  0  0  0
  140.5510   76.0410  222.4010 O   0  0  0  0  0  0  0  0  0  0  0  0
  141.4350   75.6780  220.3290 N   0  0  0  0  0  0  0  0  0  0  0  0
  141.8240   74.7520  219.2840 C   0  0  0  0  0  0  0  0  0  0  0  0
  143.3420   74.9010  219.3740 C   0  0  0  0  0  0  0  0  0  0  0  0
  143.4640   76.4090  219.3330 C   0  0  0  0  0  0  0  0  0  0  0  0
  142.2620   76.8510  220.1310 C   0  0  1  0  0  0  0  0  0  0  0  0
  141.4370   77.8680  219.3660 C   0  0  0  0  0  0  0  0  0  0  0  0
  140.2610   78.2110  220.0330 O   0  0  0  0  0  0  0  0  0  0  0  0
  140.2910   78.7420  221.3140 C   0  0  0  0  0  0  0  0  0  0  0  0
  139.1830   78.7520  222.1510 C   0  0  0  0  0  0  0  0  0  0  0  0
  139.2180   79.2780  223.4170 C   0  0  0  0  0  0  0  0  0  0  0  0
  140.4230   79.8230  223.8720 C   0  0  0  0  0  0  0  0  0  0  0  0
  141.5570   79.8370  223.0750 C   0  0  0  0  0  0  0  0  0  0  0  0
  143.0170   80.5270  223.7000 Cl  0  0  0  0  0  0  0  0  0  0  0  0
  141.4450   79.2940  221.8240 C   0  0  0  0  0  0  0  0  0  0  0  0
  139.6070   71.1530  223.0830 C   0  0  0  0  0  0  0  0  0  0  0  0
  139.1240   69.8540  222.9640 C   0  0  0  0  0  0  0  0  0  0  0  0
  139.2570   69.0030  224.0620 C   0  0  0  0  0  0  0  0  0  0  0  0
  139.8540   69.4750  225.2040 C   0  0  0  0  0  0  0  0  0  0  0  0
  140.0170   68.6820  226.3290 C   0  0  0  0  0  0  0  0  0  0  0  0
  140.6140   69.1410  227.4860 C   0  0  0  0  0  0  0  0  0  0  0  0
  140.8370   68.1810  228.9120 Cl  0  0  0  0  0  0  0  0  0  0  0  0
  141.0700   70.4630  227.5090 C   0  0  0  0  0  0  0  0  0  0  0  0
  140.9260   71.2890  226.4090 C   0  0  0  0  0  0  0  0  0  0  0  0
  140.3220   70.7670  225.2920 C   0  0  0  0  0  0  0  0  0  0  0  0
  140.1830   71.5590  224.2290 N   0  0  0  0  0  0  0  0  0  0  0  0
  139.5310   73.7860  223.1770 H   0  0  0  0  0  0  0  0  0  0  0  0
  139.4015   73.9679  220.1321 H   0  0  0  0  0  0  0  0  0  0  0  0
  138.3522   74.9684  221.1483 H   0  0  0  0  0  0  0  0  0  0  0  0
  141.4981   73.7245  219.5030 H   0  0  0  0  0  0  0  0  0  0  0  0
  141.3900   74.9521  218.2932 H   0  0  0  0  0  0  0  0  0  0  0  0
  143.7376   74.4853  220.3125 H   0  0  0  0  0  0  0  0  0  0  0  0
  143.9056   74.3703  218.5925 H   0  0  0  0  0  0  0  0  0  0  0  0
  144.3998   76.7458  219.8029 H   0  0  0  0  0  0  0  0  0  0  0  0
  143.4914   76.8210  218.3134 H   0  0  0  0  0  0  0  0  0  0  0  0
  142.5970   77.3058  221.0749 H   0  0  0  0  0  0  0  0  0  0  0  0
  142.0402   78.7769  219.2240 H   0  0  0  0  0  0  0  0  0  0  0  0
  141.1560   77.4153  218.4037 H   0  0  0  0  0  0  0  0  0  0  0  0
  138.2399   78.3209  221.7840 H   0  0  0  0  0  0  0  0  0  0  0  0
  138.3232   79.2715  224.0568 H   0  0  0  0  0  0  0  0  0  0  0  0
  140.4719   80.2499  224.8846 H   0  0  0  0  0  0  0  0  0  0  0  0
  142.3380   79.2987  221.1817 H   0  0  0  0  0  0  0  0  0  0  0  0
  138.6516   69.5081  222.0328 H   0  0  0  0  0  0  0  0  0  0  0  0
  138.8883   67.9678  224.0128 H   0  0  0  0  0  0  0  0  0  0  0  0
  139.6556   67.6435  226.2987 H   0  0  0  0  0  0  0  0  0  0  0  0
  141.5517   70.8527  228.4179 H   0  0  0  0  0  0  0  0  0  0  0  0
  141.2834   72.3292  226.4284 H   0  0  0  0  0  0  0  0  0  0  0  0
  1  2  2  0
  2  3  1  0
  3  4  1  0
  4  5  1  0
  5  6  2  0
  5  7  1  0
  7  8  1  0
  8  9  1  0
  9 10  1  0
 10 11  1  0
 11 12  1  0
 12 13  1  0
 13 14  1  0
 14 15  2  0
 15 16  1  0
 16 17  2  0
 17 18  1  0
 18 19  1  0
 18 20  2  0
  2 21  1  0
 21 22  2  0
 22 23  1  0
 23 24  2  0
 24 25  1  0
 25 26  2  0
 26 27  1  0
 26 28  1  0
 28 29  2  0
 29 30  1  0
 30 31  2  0
 11  7  1  0
 20 14  1  0
 31 21  1  0
 30 24  1  0
  3 32  1  0
  4 33  1  0
  4 34  1  0
  8 35  1  0
  8 36  1  0
  9 37  1  0
  9 38  1  0
 10 39  1  0
 10 40  1  0
 11 41  1  1
 12 42  1  0
 12 43  1  0
 15 44  1  0
 16 45  1  0
 17 46  1  0
 20 47  1  0
 22 48  1  0
 23 49  1  0
 25 50  1  0
 28 51  1  0
 29 52  1  0
M  END
>  <smiles>  (19) 
O=C(NCC(=O)N1CCC[C@H]1COc1cccc(Cl)c1)c1ccc2cc(Cl)ccc2n1

>  <score_type>  (19) 
oracle

>  <origin>  (19) 
autodockgpu

>  <m_score__min__energy>  (19) 
-8.7599999999999998

>  <m_primary>  (19) 
energy

>  <meeko>  (19) 
{"free_energy": -8.6, "intermolecular_energy": -10.69, "internal_energy": -2.13, "cluster_size": 6, "cluster_id": 1, "rank_in_cluster": 3}

>  <energy>  (19) 
-6.92

>  <cluster_rmsd>  (19) 
0.0

>  <rmsd>  (19) 
269.79

>  <cluster>  (19) 
5

$$$$

     RDKit          3D

 52 55  0  0  0  0  0  0  0  0999 V2000
  138.5100   70.5640  221.3370 O   0  0  0  0  0  0  0  0  0  0  0  0
  138.7690   71.4550  222.2070 C   0  0  0  0  0  0  0  0  0  0  0  0
  138.4730   72.8290  222.0060 N   0  0  0  0  0  0  0  0  0  0  0  0
  137.8440   73.3200  220.7740 C   0  0  0  0  0  0  0  0  0  0  0  0
  138.9040   73.3140  219.7480 C   0  0  0  0  0  0  0  0  0  0  0  0
  138.9120   72.4060  218.8540 O   0  0  0  0  0  0  0  0  0  0  0  0
  139.9520   74.2660  219.6700 N   0  0  0  0  0  0  0  0  0  0  0  0
  139.7960   75.6010  219.1280 C   0  0  0  0  0  0  0  0  0  0  0  0
  141.0640   75.6730  218.2790 C   0  0  0  0  0  0  0  0  0  0  0  0
  142.0910   75.2280  219.2980 C   0  0  0  0  0  0  0  0  0  0  0  0
  141.3390   74.1740  220.0740 C   0  0  1  0  0  0  0  0  0  0  0  0
  141.4000   74.4400  221.5660 C   0  0  0  0  0  0  0  0  0  0  0  0
  140.1840   74.8900  222.0780 O   0  0  0  0  0  0  0  0  0  0  0  0
  139.9740   76.2320  222.3560 C   0  0  0  0  0  0  0  0  0  0  0  0
  138.7080   76.7950  222.4420 C   0  0  0  0  0  0  0  0  0  0  0  0
  138.5070   78.1230  222.7160 C   0  0  0  0  0  0  0  0  0  0  0  0
  139.6290   78.9330  222.9180 C   0  0  0  0  0  0  0  0  0  0  0  0
  140.9140   78.4190  222.8440 C   0  0  0  0  0  0  0  0  0  0  0  0
  142.2610   79.4760  223.1040 Cl  0  0  0  0  0  0  0  0  0  0  0  0
  141.0360   77.0850  222.5650 C   0  0  0  0  0  0  0  0  0  0  0  0
  139.4030   71.0600  223.4840 C   0  0  0  0  0  0  0  0  0  0  0  0
  140.3370   71.9150  224.0610 C   0  0  0  0  0  0  0  0  0  0  0  0
  140.9240   71.5250  225.2670 C   0  0  0  0  0  0  0  0  0  0  0  0
  140.5600   70.3270  225.8290 C   0  0  0  0  0  0  0  0  0  0  0  0
  141.1050   69.8820  227.0230 C   0  0  0  0  0  0  0  0  0  0  0  0
  140.7510   68.6800  227.6020 C   0  0  0  0  0  0  0  0  0  0  0  0
  141.4080   68.0880  229.0930 Cl  0  0  0  0  0  0  0  0  0  0  0  0
  139.8020   67.8890  226.9470 C   0  0  0  0  0  0  0  0  0  0  0  0
  139.2340   68.2950  225.7520 C   0  0  0  0  0  0  0  0  0  0  0  0
  139.6330   69.5020  225.2330 C   0  0  0  0  0  0  0  0  0  0  0  0
  139.0870   69.8980  224.0820 N   0  0  0  0  0  0  0  0  0  0  0  0
  138.7150   73.5000  222.7640 H   0  0  0  0  0  0  0  0  0  0  0  0
  137.0188   72.6568  220.4753 H   0  0  0  0  0  0  0  0  0  0  0  0
  137.4200   74.3258  220.9104 H   0  0  0  0  0  0  0  0  0  0  0  0
  138.8862   75.6928  218.5167 H   0  0  0  0  0  0  0  0  0  0  0  0
  139.6842   76.4012  219.8745 H   0  0  0  0  0  0  0  0  0  0  0  0
  141.0188   74.9879  217.4196 H   0  0  0  0  0  0  0  0  0  0  0  0
  141.2601   76.6547  217.8231 H   0  0  0  0  0  0  0  0  0  0  0  0
  142.9800   74.8037  218.8084 H   0  0  0  0  0  0  0  0  0  0  0  0
  142.4732   76.0473  219.9247 H   0  0  0  0  0  0  0  0  0  0  0  0
  141.7811   73.1870  219.8734 H   0  0  0  0  0  0  0  0  0  0  0  0
  141.6755   73.5072  222.0797 H   0  0  0  0  0  0  0  0  0  0  0  0
  142.1466   75.2301  221.7345 H   0  0  0  0  0  0  0  0  0  0  0  0
  137.8312   76.1498  222.2840 H   0  0  0  0  0  0  0  0  0  0  0  0
  137.4909   78.5402  222.7754 H   0  0  0  0  0  0  0  0  0  0  0  0
  139.4886   80.0011  223.1404 H   0  0  0  0  0  0  0  0  0  0  0  0
  142.0507   76.6649  222.5034 H   0  0  0  0  0  0  0  0  0  0  0  0
  140.6048   72.8685  223.5822 H   0  0  0  0  0  0  0  0  0  0  0  0
  141.6675   72.1690  225.7594 H   0  0  0  0  0  0  0  0  0  0  0  0
  141.8502   70.5125  227.5301 H   0  0  0  0  0  0  0  0  0  0  0  0
  139.5017   66.9276  227.3891 H   0  0  0  0  0  0  0  0  0  0  0  0
  138.4886   67.6722  225.2358 H   0  0  0  0  0  0  0  0  0  0  0  0
  1  2  2  0
  2  3  1  0
  3  4  1  0
  4  5  1  0
  5  6  2  0
  5  7  1  0
  7  8  1  0
  8  9  1  0
  9 10  1  0
 10 11  1  0
 11 12  1  0
 12 13  1  0
 13 14  1  0
 14 15  2  0
 15 16  1  0
 16 17  2  0
 17 18  1  0
 18 19  1  0
 18 20  2  0
  2 21  1  0
 21 22  2  0
 22 23  1  0
 23 24  2  0
 24 25  1  0
 25 26  2  0
 26 27  1  0
 26 28  1  0
 28 29  2  0
 29 30  1  0
 30 31  2  0
 11  7  1  0
 20 14  1  0
 31 21  1  0
 30 24  1  0
  3 32  1  0
  4 33  1  0
  4 34  1  0
  8 35  1  0
  8 36  1  0
  9 37  1  0
  9 38  1  0
 10 39  1  0
 10 40  1  0
 11 41  1  1
 12 42  1  0
 12 43  1  0
 15 44  1  0
 16 45  1  0
 17 46  1  0
 20 47  1  0
 22 48  1  0
 23 49  1  0
 25 50  1  0
 28 51  1  0
 29 52  1  0
M  END
>  <smiles>  (20) 
O=C(NCC(=O)N1CCC[C@H]1COc1cccc(Cl)c1)c1ccc2cc(Cl)ccc2n1

>  <score_type>  (20) 
oracle

>  <origin>  (20) 
autodockgpu

>  <m_score__min__energy>  (20) 
-8.7599999999999998

>  <m_primary>  (20) 
energy

>  <meeko>  (20) 
{"free_energy": -7.79, "intermolecular_energy": -9.87, "internal_energy": -2.8, "cluster_size": 6, "cluster_id": 1, "rank_in_cluster": 5}

>  <energy>  (20) 
-6.4

>  <cluster_rmsd>  (20) 
0.0

>  <rmsd>  (20) 
270.36

>  <cluster>  (20) 
6

$$$$
