OQAGMIVLLKVZIV-DVFUPZKENA-O
     RDKit          3D

 49 52  0  0  0  0  0  0  0  0999 V2000
  141.7956   71.7831  221.3427 H   0  0  0  0  0  0  0  0  0  0  0  0
  140.8460   72.2270  221.6760 C   0  0  0  0  0  0  0  0  0  0  0  0
  139.8630   71.4150  222.0760 C   0  0  0  0  0  0  0  0  0  0  0  0
  139.0463   71.1802  221.3775 H   0  0  0  0  0  0  0  0  0  0  0  0
  139.8420   70.8240  223.4290 C   0  0  0  0  0  0  0  0  0  0  0  0
  140.4130   71.5510  224.4240 N   0  0  0  0  0  0  0  0  0  0  0  0
  140.4530   71.1080  225.7010 C   0  0  0  0  0  0  0  0  0  0  0  0
  141.0440   71.8960  226.6970 C   0  0  0  0  0  0  0  0  0  0  0  0
  141.4801   72.8726  226.4399 H   0  0  0  0  0  0  0  0  0  0  0  0
  141.0790   71.4400  228.0180 C   0  0  0  0  0  0  0  0  0  0  0  0
  141.5428   72.0592  228.7999 H   0  0  0  0  0  0  0  0  0  0  0  0
  140.5260   70.1990  228.3480 C   0  0  0  0  0  0  0  0  0  0  0  0
  140.5550   69.8442  229.3888 H   0  0  0  0  0  0  0  0  0  0  0  0
  139.9360   69.4080  227.3570 C   0  0  0  0  0  0  0  0  0  0  0  0
  139.5015   68.4323  227.6200 H   0  0  0  0  0  0  0  0  0  0  0  0
  139.8970   69.8580  226.0230 C   0  0  0  0  0  0  0  0  0  0  0  0
  139.3280   69.0970  224.9880 C   0  0  0  0  0  0  0  0  0  0  0  0
  138.8320   67.9650  225.2510 O   0  0  0  0  0  0  0  0  0  0  0  0
  139.3170   69.5740  223.6970 N   0  0  0  0  0  0  0  0  0  0  0  0
  138.7640   68.7200  222.6240 C   0  0  0  0  0  0  0  0  0  0  0  0
  139.3042   68.9234  221.6876 H   0  0  0  0  0  0  0  0  0  0  0  0
  138.8845   67.6665  222.9166 H   0  0  0  0  0  0  0  0  0  0  0  0
  137.2600   69.0040  222.4120 C   0  0  0  0  0  0  0  0  0  0  0  0
  137.1552   69.8278  221.6906 H   0  0  0  0  0  0  0  0  0  0  0  0
  136.7950   68.0787  222.0411 H   0  0  0  0  0  0  0  0  0  0  0  0
  136.5670   69.3830  223.6720 N   0  0  0  0  0  0  0  0  0  0  0  0
  137.0620   68.9060  224.4640 H   0  0  0  0  0  0  0  0  0  0  0  0
  135.1710   68.8900  223.6960 C   0  0  0  0  0  0  0  0  0  0  0  0
  135.1522   67.8542  223.3262 H   0  0  0  0  0  0  0  0  0  0  0  0
  134.8053   68.9451  224.7320 H   0  0  0  0  0  0  0  0  0  0  0  0
  134.2500   69.7500  222.8160 C   0  0  0  0  0  0  0  0  0  0  0  0
  134.5812   69.6791  221.7694 H   0  0  0  0  0  0  0  0  0  0  0  0
  133.2189   69.3800  222.9158 H   0  0  0  0  0  0  0  0  0  0  0  0
  134.2890   71.1010  223.2240 O   0  0  0  0  0  0  0  0  0  0  0  0
  135.5970   71.6100  223.0580 C   0  0  0  0  0  0  0  0  0  0  0  0
  135.8912   71.5098  222.0028 H   0  0  0  0  0  0  0  0  0  0  0  0
  135.6034   72.6677  223.3600 H   0  0  0  0  0  0  0  0  0  0  0  0
  136.6010   70.8420  223.9360 C   0  0  0  0  0  0  0  0  0  0  0  0
  137.6140   71.2170  223.7283 H   0  0  0  0  0  0  0  0  0  0  0  0
  136.3251   71.0035  224.9885 H   0  0  0  0  0  0  0  0  0  0  0  0
  140.7070   73.6970  221.6640 C   0  0  0  0  0  0  0  0  0  0  0  0
  139.7000   74.3120  222.3460 N   0  0  0  0  0  0  0  0  0  0  0  0
  139.5660   75.6640  222.3450 C   0  0  0  0  0  0  0  0  0  0  0  0
  138.7451   76.1408  222.9007 H   0  0  0  0  0  0  0  0  0  0  0  0
  140.4800   76.4430  221.6320 C   0  0  0  0  0  0  0  0  0  0  0  0
  140.3861   77.5389  221.6227 H   0  0  0  0  0  0  0  0  0  0  0  0
  141.4860   75.8360  220.9500 N   0  0  0  0  0  0  0  0  0  0  0  0
  141.6200   74.4830  220.9500 C   0  0  0  0  0  0  0  0  0  0  0  0
  142.4409   74.0085  220.3923 H   0  0  0  0  0  0  0  0  0  0  0  0
  1  2  1  0
  2  3  2  0
  3  4  1  0
  3  5  1  0
  5  6  2  0
  6  7  1  0
  7  8  2  0
  8  9  1  0
  8 10  1  0
 10 11  1  0
 10 12  2  0
 12 13  1  0
 12 14  1  0
 14 15  1  0
 14 16  2  0
 16 17  1  0
 17 18  2  0
 17 19  1  0
 19 20  1  0
 20 21  1  0
 20 22  1  0
 20 23  1  0
 23 24  1  0
 23 25  1  0
 23 26  1  0
 26 27  1  0
 26 28  1  0
 28 29  1  0
 28 30  1  0
 28 31  1  0
 31 32  1  0
 31 33  1  0
 31 34  1  0
 34 35  1  0
 35 36  1  0
 35 37  1  0
 35 38  1  0
 38 39  1  0
 38 40  1  0
  2 41  1  0
 41 42  2  0
 42 43  1  0
 43 44  1  0
 43 45  2  0
 45 46  1  0
 45 47  1  0
 47 48  2  0
 48 49  1  0
 19  5  1  0
 38 26  1  0
 48 41  1  0
 16  7  1  0
M  CHG  1  26   1
M  END
>  <UniqueID>  (1) 
506

>  <SMILES>  (1) 
O=c1c2ccccc2nc(/C=C/c2cnccn2)n1CC[NH+]1CCOCC1

>  <Energy>  (1) 
73.88275030105541

>  <Genealogy>  (1) 
O=c1c2ccccc2nc(/C=C/c2cnccn2)n1CC[NH+]1CCOCC1 (protonated)
O=c1c2ccccc2nc(/C=C/c2cnccn2)n1CC[NH+]1CCOCC1 (cis-trans isomerization)
O=c1c2ccccc2nc(/C=C/c2cnccn2)n1CC[NH+]1CCOCC1 (3D coordinates assigned)
O=c1c2ccccc2nc(/C=C/c2cnccn2)n1CC[NH+]1CCOCC1 (nonaromatic ring conformer: 73.88275030105541 kcal/mol)

>  <smiles>  (1) 
O=c1c2ccccc2nc(/C=C/c2cnccn2)n1CCN1CCOCC1

>  <score_type>  (1) 
oracle

>  <origin>  (1) 
autodockgpu

>  <m_score__min__energy>  (1) 
-6.6699999999999999

>  <m_primary>  (1) 
energy

>  <meeko>  (1) 
{"free_energy": -6.61, "intermolecular_energy": -8.4, "internal_energy": -1.96, "cluster_size": 11, "cluster_id": 2, "rank_in_cluster": 1}

>  <energy>  (1) 
-6.67

>  <cluster_rmsd>  (1) 
0.0

>  <rmsd>  (1) 
270.87

>  <cluster>  (1) 
1

$$$$
OQAGMIVLLKVZIV-DVFUPZKENA-O
     RDKit          3D

 49 52  0  0  0  0  0  0  0  0999 V2000
  141.9337   71.8311  221.3390 H   0  0  0  0  0  0  0  0  0  0  0  0
  140.9500   72.2000  221.6650 C   0  0  0  0  0  0  0  0  0  0  0  0
  140.0180   71.3120  222.0260 C   0  0  0  0  0  0  0  0  0  0  0  0
  139.2805   70.9782  221.2812 H   0  0  0  0  0  0  0  0  0  0  0  0
  139.9510   70.7670  223.3960 C   0  0  0  0  0  0  0  0  0  0  0  0
  140.5160   71.5130  224.3800 N   0  0  0  0  0  0  0  0  0  0  0  0
  140.5150   71.1120  225.6720 C   0  0  0  0  0  0  0  0  0  0  0  0
  141.1000   71.9180  226.6560 C   0  0  0  0  0  0  0  0  0  0  0  0
  141.5651   72.8753  226.3780 H   0  0  0  0  0  0  0  0  0  0  0  0
  141.0930   71.5060  227.9920 C   0  0  0  0  0  0  0  0  0  0  0  0
  141.5533   72.1397  228.7644 H   0  0  0  0  0  0  0  0  0  0  0  0
  140.5020   70.2900  228.3480 C   0  0  0  0  0  0  0  0  0  0  0  0
  140.4972   69.9697  229.4003 H   0  0  0  0  0  0  0  0  0  0  0  0
  139.9170   69.4800  227.3700 C   0  0  0  0  0  0  0  0  0  0  0  0
  139.4531   68.5239  227.6540 H   0  0  0  0  0  0  0  0  0  0  0  0
  139.9210   69.8870  226.0210 C   0  0  0  0  0  0  0  0  0  0  0  0
  139.3580   69.1060  224.9980 C   0  0  0  0  0  0  0  0  0  0  0  0
  138.8290   67.9950  225.2850 O   0  0  0  0  0  0  0  0  0  0  0  0
  139.3900   69.5390  223.6920 N   0  0  0  0  0  0  0  0  0  0  0  0
  138.8420   68.6630  222.6340 C   0  0  0  0  0  0  0  0  0  0  0  0
  139.4151   68.8157  221.7076 H   0  0  0  0  0  0  0  0  0  0  0  0
  138.9214   67.6178  222.9675 H   0  0  0  0  0  0  0  0  0  0  0  0
  137.3540   68.9840  222.3670 C   0  0  0  0  0  0  0  0  0  0  0  0
  137.2961   69.8096  221.6424 H   0  0  0  0  0  0  0  0  0  0  0  0
  136.8801   68.0702  221.9791 H   0  0  0  0  0  0  0  0  0  0  0  0
  136.6250   69.3810  223.6010 N   0  0  0  0  0  0  0  0  0  0  0  0
  137.0830   68.8980  224.4110 H   0  0  0  0  0  0  0  0  0  0  0  0
  135.2200   68.9150  223.5770 C   0  0  0  0  0  0  0  0  0  0  0  0
  135.1946   67.8783  223.2101 H   0  0  0  0  0  0  0  0  0  0  0  0
  134.8193   68.9815  224.5993 H   0  0  0  0  0  0  0  0  0  0  0  0
  134.3470   69.7880  222.6630 C   0  0  0  0  0  0  0  0  0  0  0  0
  134.7130   69.7065  221.6289 H   0  0  0  0  0  0  0  0  0  0  0  0
  133.3063   69.4378  222.7285 H   0  0  0  0  0  0  0  0  0  0  0  0
  134.3970   71.1400  223.0670 O   0  0  0  0  0  0  0  0  0  0  0  0
  135.7190   71.6230  222.9450 C   0  0  0  0  0  0  0  0  0  0  0  0
  136.0477   71.5128  221.9011 H   0  0  0  0  0  0  0  0  0  0  0  0
  135.7351   72.6816  223.2435 H   0  0  0  0  0  0  0  0  0  0  0  0
  136.6770   70.8400  223.8600 C   0  0  0  0  0  0  0  0  0  0  0  0
  137.7035   71.1951  223.6862 H   0  0  0  0  0  0  0  0  0  0  0  0
  136.3675   71.0112  224.9016 H   0  0  0  0  0  0  0  0  0  0  0  0
  140.7100   73.6560  221.6870 C   0  0  0  0  0  0  0  0  0  0  0  0
  139.6140   74.1770  222.3060 N   0  0  0  0  0  0  0  0  0  0  0  0
  139.3860   75.5160  222.3360 C   0  0  0  0  0  0  0  0  0  0  0  0
  138.4929   75.9159  222.8385 H   0  0  0  0  0  0  0  0  0  0  0  0
  140.2960   76.3800  221.7230 C   0  0  0  0  0  0  0  0  0  0  0  0
  140.1272   77.4668  221.7406 H   0  0  0  0  0  0  0  0  0  0  0  0
  141.3910   75.8670  221.1050 N   0  0  0  0  0  0  0  0  0  0  0  0
  141.6190   74.5270  221.0720 C   0  0  0  0  0  0  0  0  0  0  0  0
  142.5111   74.1294  220.5659 H   0  0  0  0  0  0  0  0  0  0  0  0
  1  2  1  0
  2  3  2  0
  3  4  1  0
  3  5  1  0
  5  6  2  0
  6  7  1  0
  7  8  2  0
  8  9  1  0
  8 10  1  0
 10 11  1  0
 10 12  2  0
 12 13  1  0
 12 14  1  0
 14 15  1  0
 14 16  2  0
 16 17  1  0
 17 18  2  0
 17 19  1  0
 19 20  1  0
 20 21  1  0
 20 22  1  0
 20 23  1  0
 23 24  1  0
 23 25  1  0
 23 26  1  0
 26 27  1  0
 26 28  1  0
 28 29  1  0
 28 30  1  0
 28 31  1  0
 31 32  1  0
 31 33  1  0
 31 34  1  0
 34 35  1  0
 35 36  1  0
 35 37  1  0
 35 38  1  0
 38 39  1  0
 38 40  1  0
  2 41  1  0
 41 42  2  0
 42 43  1  0
 43 44  1  0
 43 45  2  0
 45 46  1  0
 45 47  1  0
 47 48  2  0
 48 49  1  0
 19  5  1  0
 38 26  1  0
 48 41  1  0
 16  7  1  0
M  CHG  1  26   1
M  END
>  <UniqueID>  (2) 
506

>  <SMILES>  (2) 
O=c1c2ccccc2nc(/C=C/c2cnccn2)n1CC[NH+]1CCOCC1

>  <Energy>  (2) 
73.88275030105541

>  <Genealogy>  (2) 
O=c1c2ccccc2nc(/C=C/c2cnccn2)n1CC[NH+]1CCOCC1 (protonated)
O=c1c2ccccc2nc(/C=C/c2cnccn2)n1CC[NH+]1CCOCC1 (cis-trans isomerization)
O=c1c2ccccc2nc(/C=C/c2cnccn2)n1CC[NH+]1CCOCC1 (3D coordinates assigned)
O=c1c2ccccc2nc(/C=C/c2cnccn2)n1CC[NH+]1CCOCC1 (nonaromatic ring conformer: 73.88275030105541 kcal/mol)

>  <smiles>  (2) 
O=c1c2ccccc2nc(/C=C/c2cnccn2)n1CCN1CCOCC1

>  <score_type>  (2) 
oracle

>  <origin>  (2) 
autodockgpu

>  <m_score__min__energy>  (2) 
-6.6699999999999999

>  <m_primary>  (2) 
energy

>  <meeko>  (2) 
{"free_energy": -6.56, "intermolecular_energy": -8.35, "internal_energy": -2.0, "cluster_size": 11, "cluster_id": 2, "rank_in_cluster": 4}

>  <energy>  (2) 
-6.4

>  <cluster_rmsd>  (2) 
0.78

>  <rmsd>  (2) 
270.91

>  <cluster>  (2) 
1

$$$$
OQAGMIVLLKVZIV-DVFUPZKENA-O
     RDKit          3D

 49 52  0  0  0  0  0  0  0  0999 V2000
  138.0173   72.3501  221.7021 H   0  0  0  0  0  0  0  0  0  0  0  0
  139.0470   72.6430  221.9550 C   0  0  0  0  0  0  0  0  0  0  0  0
  139.9370   71.6850  222.2370 C   0  0  0  0  0  0  0  0  0  0  0  0
  140.7067   71.4335  221.4924 H   0  0  0  0  0  0  0  0  0  0  0  0
  139.9140   70.9560  223.5210 C   0  0  0  0  0  0  0  0  0  0  0  0
  140.4670   71.5820  224.5910 N   0  0  0  0  0  0  0  0  0  0  0  0
  140.5040   71.0090  225.8150 C   0  0  0  0  0  0  0  0  0  0  0  0
  141.0740   71.6960  226.8940 C   0  0  0  0  0  0  0  0  0  0  0  0
  141.4959   72.7009  226.7449 H   0  0  0  0  0  0  0  0  0  0  0  0
  141.1070   71.1050  228.1610 C   0  0  0  0  0  0  0  0  0  0  0  0
  141.5558   71.6452  229.0076 H   0  0  0  0  0  0  0  0  0  0  0  0
  140.5700   69.8280  228.3530 C   0  0  0  0  0  0  0  0  0  0  0  0
  140.5955   69.3668  229.3513 H   0  0  0  0  0  0  0  0  0  0  0  0
  140.0010   69.1360  227.2800 C   0  0  0  0  0  0  0  0  0  0  0  0
  139.5808   68.1314  227.4352 H   0  0  0  0  0  0  0  0  0  0  0  0
  139.9650   69.7240  225.9990 C   0  0  0  0  0  0  0  0  0  0  0  0
  139.4160   69.0680  224.8860 C   0  0  0  0  0  0  0  0  0  0  0  0
  138.9350   67.9070  225.0240 O   0  0  0  0  0  0  0  0  0  0  0  0
  139.4080   69.6770  223.6510 N   0  0  0  0  0  0  0  0  0  0  0  0
  138.8750   68.9320  222.4890 C   0  0  0  0  0  0  0  0  0  0  0  0
  139.4275   69.2306  221.5859 H   0  0  0  0  0  0  0  0  0  0  0  0
  138.9973   67.8550  222.6765 H   0  0  0  0  0  0  0  0  0  0  0  0
  137.3730   69.2290  222.2840 C   0  0  0  0  0  0  0  0  0  0  0  0
  137.2738   70.1466  221.6855 H   0  0  0  0  0  0  0  0  0  0  0  0
  136.9285   68.3618  221.7737 H   0  0  0  0  0  0  0  0  0  0  0  0
  136.6470   69.4170  223.5680 N   0  0  0  0  0  0  0  0  0  0  0  0
  137.1380   68.8470  224.2980 H   0  0  0  0  0  0  0  0  0  0  0  0
  135.2630   68.8940  223.4920 C   0  0  0  0  0  0  0  0  0  0  0  0
  135.2779   67.9185  222.9839 H   0  0  0  0  0  0  0  0  0  0  0  0
  134.8757   68.7986  224.5171 H   0  0  0  0  0  0  0  0  0  0  0  0
  134.3380   69.8450  222.7170 C   0  0  0  0  0  0  0  0  0  0  0  0
  134.6909   69.9251  221.6782 H   0  0  0  0  0  0  0  0  0  0  0  0
  133.3148   69.4419  222.7425 H   0  0  0  0  0  0  0  0  0  0  0  0
  134.3350   71.1290  223.3060 O   0  0  0  0  0  0  0  0  0  0  0  0
  135.6330   71.6850  223.2410 C   0  0  0  0  0  0  0  0  0  0  0  0
  135.9499   71.7375  222.1890 H   0  0  0  0  0  0  0  0  0  0  0  0
  135.6069   72.6909  223.6853 H   0  0  0  0  0  0  0  0  0  0  0  0
  136.6390   70.8260  224.0280 C   0  0  0  0  0  0  0  0  0  0  0  0
  137.6461   71.2483  223.8957 H   0  0  0  0  0  0  0  0  0  0  0  0
  136.3387   70.8357  225.0862 H   0  0  0  0  0  0  0  0  0  0  0  0
  139.3930   74.0780  221.9700 C   0  0  0  0  0  0  0  0  0  0  0  0
  140.6940   74.4860  221.9620 N   0  0  0  0  0  0  0  0  0  0  0  0
  141.0230   75.8040  221.9700 C   0  0  0  0  0  0  0  0  0  0  0  0
  142.0788   76.1126  221.9647 H   0  0  0  0  0  0  0  0  0  0  0  0
  140.0080   76.7640  221.9850 C   0  0  0  0  0  0  0  0  0  0  0  0
  140.2581   77.8352  221.9911 H   0  0  0  0  0  0  0  0  0  0  0  0
  138.7100   76.3640  221.9920 N   0  0  0  0  0  0  0  0  0  0  0  0
  138.3800   75.0450  221.9850 C   0  0  0  0  0  0  0  0  0  0  0  0
  137.3234   74.7391  221.9911 H   0  0  0  0  0  0  0  0  0  0  0  0
  1  2  1  0
  2  3  2  0
  3  4  1  0
  3  5  1  0
  5  6  2  0
  6  7  1  0
  7  8  2  0
  8  9  1  0
  8 10  1  0
 10 11  1  0
 10 12  2  0
 12 13  1  0
 12 14  1  0
 14 15  1  0
 14 16  2  0
 16 17  1  0
 17 18  2  0
 17 19  1  0
 19 20  1  0
 20 21  1  0
 20 22  1  0
 20 23  1  0
 23 24  1  0
 23 25  1  0
 23 26  1  0
 26 27  1  0
 26 28  1  0
 28 29  1  0
 28 30  1  0
 28 31  1  0
 31 32  1  0
 31 33  1  0
 31 34  1  0
 34 35  1  0
 35 36  1  0
 35 37  1  0
 35 38  1  0
 38 39  1  0
 38 40  1  0
  2 41  1  0
 41 42  2  0
 42 43  1  0
 43 44  1  0
 43 45  2  0
 45 46  1  0
 45 47  1  0
 47 48  2  0
 48 49  1  0
 19  5  1  0
 38 26  1  0
 48 41  1  0
 16  7  1  0
M  CHG  1  26   1
M  END
>  <UniqueID>  (3) 
506

>  <SMILES>  (3) 
O=c1c2ccccc2nc(/C=C/c2cnccn2)n1CC[NH+]1CCOCC1

>  <Energy>  (3) 
73.88275030105541

>  <Genealogy>  (3) 
O=c1c2ccccc2nc(/C=C/c2cnccn2)n1CC[NH+]1CCOCC1 (protonated)
O=c1c2ccccc2nc(/C=C/c2cnccn2)n1CC[NH+]1CCOCC1 (cis-trans isomerization)
O=c1c2ccccc2nc(/C=C/c2cnccn2)n1CC[NH+]1CCOCC1 (3D coordinates assigned)
O=c1c2ccccc2nc(/C=C/c2cnccn2)n1CC[NH+]1CCOCC1 (nonaromatic ring conformer: 73.88275030105541 kcal/mol)

>  <smiles>  (3) 
O=c1c2ccccc2nc(/C=C/c2cnccn2)n1CCN1CCOCC1

>  <score_type>  (3) 
oracle

>  <origin>  (3) 
autodockgpu

>  <m_score__min__energy>  (3) 
-6.6699999999999999

>  <m_primary>  (3) 
energy

>  <meeko>  (3) 
{"free_energy": -6.53, "intermolecular_energy": -8.32, "internal_energy": -2.01, "cluster_size": 11, "cluster_id": 2, "rank_in_cluster": 6}

>  <energy>  (3) 
-6.35

>  <cluster_rmsd>  (3) 
0.68

>  <rmsd>  (3) 
271.13

>  <cluster>  (3) 
1

$$$$
OQAGMIVLLKVZIV-DVFUPZKENA-O
     RDKit          3D

 49 52  0  0  0  0  0  0  0  0999 V2000
  140.9366   71.9142  221.7620 H   0  0  0  0  0  0  0  0  0  0  0  0
  140.1290   72.2360  222.4360 C   0  0  0  0  0  0  0  0  0  0  0  0
  139.3470   73.2550  222.0620 C   0  0  0  0  0  0  0  0  0  0  0  0
  138.2728   73.0756  221.9074 H   0  0  0  0  0  0  0  0  0  0  0  0
  139.8850   74.6130  221.8510 C   0  0  0  0  0  0  0  0  0  0  0  0
  139.2620   75.6270  222.5050 N   0  0  0  0  0  0  0  0  0  0  0  0
  139.6680   76.9120  222.3860 C   0  0  0  0  0  0  0  0  0  0  0  0
  139.0030   77.9250  223.0860 C   0  0  0  0  0  0  0  0  0  0  0  0
  138.1468   77.6768  223.7304 H   0  0  0  0  0  0  0  0  0  0  0  0
  139.4260   79.2520  222.9670 C   0  0  0  0  0  0  0  0  0  0  0  0
  138.9017   80.0471  223.5174 H   0  0  0  0  0  0  0  0  0  0  0  0
  140.5150   79.5700  222.1490 C   0  0  0  0  0  0  0  0  0  0  0  0
  140.8469   80.6149  222.0592 H   0  0  0  0  0  0  0  0  0  0  0  0
  141.1830   78.5630  221.4450 C   0  0  0  0  0  0  0  0  0  0  0  0
  142.0381   78.8173  220.8015 H   0  0  0  0  0  0  0  0  0  0  0  0
  140.7620   77.2230  221.5590 C   0  0  0  0  0  0  0  0  0  0  0  0
  141.3890   76.1760  220.8650 C   0  0  0  0  0  0  0  0  0  0  0  0
  142.3670   76.4320  220.1060 O   0  0  0  0  0  0  0  0  0  0  0  0
  140.9400   74.8810  221.0000 N   0  0  0  0  0  0  0  0  0  0  0  0
  141.5870   73.8130  220.2080 C   0  0  0  0  0  0  0  0  0  0  0  0
  140.9253   72.9347  220.1798 H   0  0  0  0  0  0  0  0  0  0  0  0
  141.7682   74.1912  219.1911 H   0  0  0  0  0  0  0  0  0  0  0  0
  142.9410   73.4060  220.8310 C   0  0  0  0  0  0  0  0  0  0  0  0
  142.8478   73.4349  221.9267 H   0  0  0  0  0  0  0  0  0  0  0  0
  143.1833   72.3950  220.4716 H   0  0  0  0  0  0  0  0  0  0  0  0
  144.0510   74.3080  220.4230 N   0  0  0  0  0  0  0  0  0  0  0  0
  143.8640   75.2520  220.8380 H   0  0  0  0  0  0  0  0  0  0  0  0
  144.0870   74.4980  218.9550 C   0  0  0  0  0  0  0  0  0  0  0  0
  143.0614   74.6581  218.5910 H   0  0  0  0  0  0  0  0  0  0  0  0
  144.7230   75.3687  218.7375 H   0  0  0  0  0  0  0  0  0  0  0  0
  144.6850   73.2770  218.2380 C   0  0  0  0  0  0  0  0  0  0  0  0
  144.0419   72.4026  218.4164 H   0  0  0  0  0  0  0  0  0  0  0  0
  144.7447   73.4932  217.1611 H   0  0  0  0  0  0  0  0  0  0  0  0
  145.9840   73.0030  218.7190 O   0  0  0  0  0  0  0  0  0  0  0  0
  145.9240   72.6760  220.0920 C   0  0  0  0  0  0  0  0  0  0  0  0
  145.2650   71.8056  220.2262 H   0  0  0  0  0  0  0  0  0  0  0  0
  146.9409   72.4464  220.4429 H   0  0  0  0  0  0  0  0  0  0  0  0
  145.3750   73.8550  220.9150 C   0  0  0  0  0  0  0  0  0  0  0  0
  145.2750   73.5396  221.9641 H   0  0  0  0  0  0  0  0  0  0  0  0
  146.0790   74.6945  220.8170 H   0  0  0  0  0  0  0  0  0  0  0  0
  139.9500   71.5270  223.7180 C   0  0  0  0  0  0  0  0  0  0  0  0
  140.7000   71.8490  224.8090 N   0  0  0  0  0  0  0  0  0  0  0  0
  140.5400   71.2050  225.9940 C   0  0  0  0  0  0  0  0  0  0  0  0
  141.1568   71.4794  226.8625 H   0  0  0  0  0  0  0  0  0  0  0  0
  139.5850   70.1910  226.1000 C   0  0  0  0  0  0  0  0  0  0  0  0
  139.4428   69.6604  227.0530 H   0  0  0  0  0  0  0  0  0  0  0  0
  138.8340   69.8660  225.0170 N   0  0  0  0  0  0  0  0  0  0  0  0
  138.9940   70.5080  223.8300 C   0  0  0  0  0  0  0  0  0  0  0  0
  138.3773   70.2298  222.9627 H   0  0  0  0  0  0  0  0  0  0  0  0
  1  2  1  0
  2  3  2  0
  3  4  1  0
  3  5  1  0
  5  6  2  0
  6  7  1  0
  7  8  2  0
  8  9  1  0
  8 10  1  0
 10 11  1  0
 10 12  2  0
 12 13  1  0
 12 14  1  0
 14 15  1  0
 14 16  2  0
 16 17  1  0
 17 18  2  0
 17 19  1  0
 19 20  1  0
 20 21  1  0
 20 22  1  0
 20 23  1  0
 23 24  1  0
 23 25  1  0
 23 26  1  0
 26 27  1  0
 26 28  1  0
 28 29  1  0
 28 30  1  0
 28 31  1  0
 31 32  1  0
 31 33  1  0
 31 34  1  0
 34 35  1  0
 35 36  1  0
 35 37  1  0
 35 38  1  0
 38 39  1  0
 38 40  1  0
  2 41  1  0
 41 42  2  0
 42 43  1  0
 43 44  1  0
 43 45  2  0
 45 46  1  0
 45 47  1  0
 47 48  2  0
 48 49  1  0
 19  5  1  0
 38 26  1  0
 48 41  1  0
 16  7  1  0
M  CHG  1  26   1
M  END
>  <UniqueID>  (4) 
506

>  <SMILES>  (4) 
O=c1c2ccccc2nc(/C=C/c2cnccn2)n1CC[NH+]1CCOCC1

>  <Energy>  (4) 
73.88275030105541

>  <Genealogy>  (4) 
O=c1c2ccccc2nc(/C=C/c2cnccn2)n1CC[NH+]1CCOCC1 (protonated)
O=c1c2ccccc2nc(/C=C/c2cnccn2)n1CC[NH+]1CCOCC1 (cis-trans isomerization)
O=c1c2ccccc2nc(/C=C/c2cnccn2)n1CC[NH+]1CCOCC1 (3D coordinates assigned)
O=c1c2ccccc2nc(/C=C/c2cnccn2)n1CC[NH+]1CCOCC1 (nonaromatic ring conformer: 73.88275030105541 kcal/mol)

>  <smiles>  (4) 
O=c1c2ccccc2nc(/C=C/c2cnccn2)n1CCN1CCOCC1

>  <score_type>  (4) 
oracle

>  <origin>  (4) 
autodockgpu

>  <m_score__min__energy>  (4) 
-6.6699999999999999

>  <m_primary>  (4) 
energy

>  <meeko>  (4) 
{"free_energy": -6.38, "intermolecular_energy": -8.17, "internal_energy": -1.58, "cluster_size": 1, "cluster_id": 3, "rank_in_cluster": 1}

>  <energy>  (4) 
-6.22

>  <cluster_rmsd>  (4) 
1.29

>  <rmsd>  (4) 
270.99

>  <cluster>  (4) 
1

$$$$
OQAGMIVLLKVZIV-DVFUPZKENA-O
     RDKit          3D

 49 52  0  0  0  0  0  0  0  0999 V2000
  141.5230   72.4838  221.3487 H   0  0  0  0  0  0  0  0  0  0  0  0
  140.4950   72.4100  221.7330 C   0  0  0  0  0  0  0  0  0  0  0  0
  139.9980   71.2000  222.0120 C   0  0  0  0  0  0  0  0  0  0  0  0
  139.6222   70.5735  221.1897 H   0  0  0  0  0  0  0  0  0  0  0  0
  139.9400   70.6820  223.3940 C   0  0  0  0  0  0  0  0  0  0  0  0
  140.5160   71.4450  224.3590 N   0  0  0  0  0  0  0  0  0  0  0  0
  140.5240   71.0690  225.6580 C   0  0  0  0  0  0  0  0  0  0  0  0
  141.1210   71.8910  226.6210 C   0  0  0  0  0  0  0  0  0  0  0  0
  141.5884   72.8403  226.3206 H   0  0  0  0  0  0  0  0  0  0  0  0
  141.1230   71.5050  227.9650 C   0  0  0  0  0  0  0  0  0  0  0  0
  141.5920   72.1515  228.7213 H   0  0  0  0  0  0  0  0  0  0  0  0
  140.5300   70.2990  228.3490 C   0  0  0  0  0  0  0  0  0  0  0  0
  140.5324   69.9992  229.4073 H   0  0  0  0  0  0  0  0  0  0  0  0
  139.9340   69.4730  227.3920 C   0  0  0  0  0  0  0  0  0  0  0  0
  139.4688   68.5245  227.6986 H   0  0  0  0  0  0  0  0  0  0  0  0
  139.9280   69.8530  226.0350 C   0  0  0  0  0  0  0  0  0  0  0  0
  139.3540   69.0550  225.0320 C   0  0  0  0  0  0  0  0  0  0  0  0
  138.8220   67.9520  225.3460 O   0  0  0  0  0  0  0  0  0  0  0  0
  139.3770   69.4630  223.7170 N   0  0  0  0  0  0  0  0  0  0  0  0
  138.8150   68.5690  222.6810 C   0  0  0  0  0  0  0  0  0  0  0  0
  139.3821   68.6990  221.7475 H   0  0  0  0  0  0  0  0  0  0  0  0
  138.8900   67.5305  223.0359 H   0  0  0  0  0  0  0  0  0  0  0  0
  137.3280   68.8930  222.4180 C   0  0  0  0  0  0  0  0  0  0  0  0
  137.2699   69.7024  221.6754 H   0  0  0  0  0  0  0  0  0  0  0  0
  136.8460   67.9734  222.0546 H   0  0  0  0  0  0  0  0  0  0  0  0
  136.6100   69.3220  223.6470 N   0  0  0  0  0  0  0  0  0  0  0  0
  137.0710   68.8540  224.4650 H   0  0  0  0  0  0  0  0  0  0  0  0
  135.2020   68.8630  223.6440 C   0  0  0  0  0  0  0  0  0  0  0  0
  135.1680   67.8186  223.3004 H   0  0  0  0  0  0  0  0  0  0  0  0
  134.8091   68.9536  224.6674 H   0  0  0  0  0  0  0  0  0  0  0  0
  134.3280   69.7210  222.7170 C   0  0  0  0  0  0  0  0  0  0  0  0
  134.6868   69.6150  221.6826 H   0  0  0  0  0  0  0  0  0  0  0  0
  133.2858   69.3783  222.7970 H   0  0  0  0  0  0  0  0  0  0  0  0
  134.3880   71.0810  223.0910 O   0  0  0  0  0  0  0  0  0  0  0  0
  135.7120   71.5540  222.9500 C   0  0  0  0  0  0  0  0  0  0  0  0
  136.0328   71.4200  221.9064 H   0  0  0  0  0  0  0  0  0  0  0  0
  135.7356   72.6185  223.2263 H   0  0  0  0  0  0  0  0  0  0  0  0
  136.6720   70.7860  223.8740 C   0  0  0  0  0  0  0  0  0  0  0  0
  137.6991   71.1314  223.6849 H   0  0  0  0  0  0  0  0  0  0  0  0
  136.3713   70.9814  224.9139 H   0  0  0  0  0  0  0  0  0  0  0  0
  139.7170   73.6500  221.9210 C   0  0  0  0  0  0  0  0  0  0  0  0
  140.3400   74.8530  222.0680 N   0  0  0  0  0  0  0  0  0  0  0  0
  139.6330   76.0010  222.2380 C   0  0  0  0  0  0  0  0  0  0  0  0
  140.1551   76.9617  222.3580 H   0  0  0  0  0  0  0  0  0  0  0  0
  138.2380   75.9500  222.2590 C   0  0  0  0  0  0  0  0  0  0  0  0
  137.6514   76.8708  222.3935 H   0  0  0  0  0  0  0  0  0  0  0  0
  137.6110   74.7540  222.1120 N   0  0  0  0  0  0  0  0  0  0  0  0
  138.3170   73.6050  221.9450 C   0  0  0  0  0  0  0  0  0  0  0  0
  137.7923   72.6452  221.8293 H   0  0  0  0  0  0  0  0  0  0  0  0
  1  2  1  0
  2  3  2  0
  3  4  1  0
  3  5  1  0
  5  6  2  0
  6  7  1  0
  7  8  2  0
  8  9  1  0
  8 10  1  0
 10 11  1  0
 10 12  2  0
 12 13  1  0
 12 14  1  0
 14 15  1  0
 14 16  2  0
 16 17  1  0
 17 18  2  0
 17 19  1  0
 19 20  1  0
 20 21  1  0
 20 22  1  0
 20 23  1  0
 23 24  1  0
 23 25  1  0
 23 26  1  0
 26 27  1  0
 26 28  1  0
 28 29  1  0
 28 30  1  0
 28 31  1  0
 31 32  1  0
 31 33  1  0
 31 34  1  0
 34 35  1  0
 35 36  1  0
 35 37  1  0
 35 38  1  0
 38 39  1  0
 38 40  1  0
  2 41  1  0
 41 42  2  0
 42 43  1  0
 43 44  1  0
 43 45  2  0
 45 46  1  0
 45 47  1  0
 47 48  2  0
 48 49  1  0
 19  5  1  0
 38 26  1  0
 48 41  1  0
 16  7  1  0
M  CHG  1  26   1
M  END
>  <UniqueID>  (5) 
506

>  <SMILES>  (5) 
O=c1c2ccccc2nc(/C=C/c2cnccn2)n1CC[NH+]1CCOCC1

>  <Energy>  (5) 
73.88275030105541

>  <Genealogy>  (5) 
O=c1c2ccccc2nc(/C=C/c2cnccn2)n1CC[NH+]1CCOCC1 (protonated)
O=c1c2ccccc2nc(/C=C/c2cnccn2)n1CC[NH+]1CCOCC1 (cis-trans isomerization)
O=c1c2ccccc2nc(/C=C/c2cnccn2)n1CC[NH+]1CCOCC1 (3D coordinates assigned)
O=c1c2ccccc2nc(/C=C/c2cnccn2)n1CC[NH+]1CCOCC1 (nonaromatic ring conformer: 73.88275030105541 kcal/mol)

>  <smiles>  (5) 
O=c1c2ccccc2nc(/C=C/c2cnccn2)n1CCN1CCOCC1

>  <score_type>  (5) 
oracle

>  <origin>  (5) 
autodockgpu

>  <m_score__min__energy>  (5) 
-6.6699999999999999

>  <m_primary>  (5) 
energy

>  <meeko>  (5) 
{"free_energy": -6.33, "intermolecular_energy": -8.12, "internal_energy": -2.15, "cluster_size": 11, "cluster_id": 2, "rank_in_cluster": 9}

>  <energy>  (5) 
-6.2

>  <cluster_rmsd>  (5) 
1.24

>  <rmsd>  (5) 
271.05

>  <cluster>  (5) 
1

$$$$
OQAGMIVLLKVZIV-DVFUPZKENA-O
     RDKit          3D

 49 52  0  0  0  0  0  0  0  0999 V2000
  138.1756   72.6725  221.8770 H   0  0  0  0  0  0  0  0  0  0  0  0
  139.2600   72.4950  221.8260 C   0  0  0  0  0  0  0  0  0  0  0  0
  139.7220   71.2640  222.0710 C   0  0  0  0  0  0  0  0  0  0  0  0
  140.0761   70.6488  221.2307 H   0  0  0  0  0  0  0  0  0  0  0  0
  139.7700   70.7080  223.4370 C   0  0  0  0  0  0  0  0  0  0  0  0
  140.3970   71.4560  224.3820 N   0  0  0  0  0  0  0  0  0  0  0  0
  140.5030   71.0450  225.6660 C   0  0  0  0  0  0  0  0  0  0  0  0
  141.1490   71.8540  226.6090 C   0  0  0  0  0  0  0  0  0  0  0  0
  141.5745   72.8215  226.3043 H   0  0  0  0  0  0  0  0  0  0  0  0
  141.2530   71.4320  227.9370 C   0  0  0  0  0  0  0  0  0  0  0  0
  141.7613   72.0677  228.6769 H   0  0  0  0  0  0  0  0  0  0  0  0
  140.7120   70.2030  228.3270 C   0  0  0  0  0  0  0  0  0  0  0  0
  140.7947   69.8747  229.3736 H   0  0  0  0  0  0  0  0  0  0  0  0
  140.0660   69.3900  227.3900 C   0  0  0  0  0  0  0  0  0  0  0  0
  139.6417   68.4239  227.7009 H   0  0  0  0  0  0  0  0  0  0  0  0
  139.9580   69.8070  226.0480 C   0  0  0  0  0  0  0  0  0  0  0  0
  139.3320   69.0240  225.0650 C   0  0  0  0  0  0  0  0  0  0  0  0
  138.8450   67.9020  225.3830 O   0  0  0  0  0  0  0  0  0  0  0  0
  139.2550   69.4680  223.7640 N   0  0  0  0  0  0  0  0  0  0  0  0
  138.6410   68.5910  222.7440 C   0  0  0  0  0  0  0  0  0  0  0  0
  139.1369   68.7618  221.7771 H   0  0  0  0  0  0  0  0  0  0  0  0
  138.7646   67.5449  223.0607 H   0  0  0  0  0  0  0  0  0  0  0  0
  137.1320   68.8860  222.5970 C   0  0  0  0  0  0  0  0  0  0  0  0
  136.9998   69.6834  221.8509 H   0  0  0  0  0  0  0  0  0  0  0  0
  136.6387   67.9535  222.2854 H   0  0  0  0  0  0  0  0  0  0  0  0
  136.5080   69.3210  223.8750 N   0  0  0  0  0  0  0  0  0  0  0  0
  137.0200   68.8490  224.6570 H   0  0  0  0  0  0  0  0  0  0  0  0
  135.0980   68.8780  223.9720 C   0  0  0  0  0  0  0  0  0  0  0  0
  135.0285   67.8338  223.6330 H   0  0  0  0  0  0  0  0  0  0  0  0
  134.7800   68.9746  225.0206 H   0  0  0  0  0  0  0  0  0  0  0  0
  134.1690   69.7440  223.1090 C   0  0  0  0  0  0  0  0  0  0  0  0
  134.4522   69.6343  222.0518 H   0  0  0  0  0  0  0  0  0  0  0  0
  133.1318   69.4115  223.2630 H   0  0  0  0  0  0  0  0  0  0  0  0
  134.2690   71.1040  223.4770 O   0  0  0  0  0  0  0  0  0  0  0  0
  135.5850   71.5630  223.2410 C   0  0  0  0  0  0  0  0  0  0  0  0
  135.8291   71.4248  222.1774 H   0  0  0  0  0  0  0  0  0  0  0  0
  135.6395   72.6274  223.5132 H   0  0  0  0  0  0  0  0  0  0  0  0
  136.6010   70.7850  224.0960 C   0  0  0  0  0  0  0  0  0  0  0  0
  137.6156   71.1199  223.8343 H   0  0  0  0  0  0  0  0  0  0  0  0
  136.3769   70.9837  225.1545 H   0  0  0  0  0  0  0  0  0  0  0  0
  140.1480   73.6240  221.4900 C   0  0  0  0  0  0  0  0  0  0  0  0
  139.9550   74.8570  222.0380 N   0  0  0  0  0  0  0  0  0  0  0  0
  140.7690   75.9010  221.7390 C   0  0  0  0  0  0  0  0  0  0  0  0
  140.5942   76.8881  222.1918 H   0  0  0  0  0  0  0  0  0  0  0  0
  141.8310   75.7110  220.8510 C   0  0  0  0  0  0  0  0  0  0  0  0
  142.5006   76.5467  220.5997 H   0  0  0  0  0  0  0  0  0  0  0  0
  142.0290   74.4850  220.3010 N   0  0  0  0  0  0  0  0  0  0  0  0
  141.2130   73.4390  220.5990 C   0  0  0  0  0  0  0  0  0  0  0  0
  141.3881   72.4533  220.1431 H   0  0  0  0  0  0  0  0  0  0  0  0
  1  2  1  0
  2  3  2  0
  3  4  1  0
  3  5  1  0
  5  6  2  0
  6  7  1  0
  7  8  2  0
  8  9  1  0
  8 10  1  0
 10 11  1  0
 10 12  2  0
 12 13  1  0
 12 14  1  0
 14 15  1  0
 14 16  2  0
 16 17  1  0
 17 18  2  0
 17 19  1  0
 19 20  1  0
 20 21  1  0
 20 22  1  0
 20 23  1  0
 23 24  1  0
 23 25  1  0
 23 26  1  0
 26 27  1  0
 26 28  1  0
 28 29  1  0
 28 30  1  0
 28 31  1  0
 31 32  1  0
 31 33  1  0
 31 34  1  0
 34 35  1  0
 35 36  1  0
 35 37  1  0
 35 38  1  0
 38 39  1  0
 38 40  1  0
  2 41  1  0
 41 42  2  0
 42 43  1  0
 43 44  1  0
 43 45  2  0
 45 46  1  0
 45 47  1  0
 47 48  2  0
 48 49  1  0
 19  5  1  0
 38 26  1  0
 48 41  1  0
 16  7  1  0
M  CHG  1  26   1
M  END
>  <UniqueID>  (6) 
506

>  <SMILES>  (6) 
O=c1c2ccccc2nc(/C=C/c2cnccn2)n1CC[NH+]1CCOCC1

>  <Energy>  (6) 
73.88275030105541

>  <Genealogy>  (6) 
O=c1c2ccccc2nc(/C=C/c2cnccn2)n1CC[NH+]1CCOCC1 (protonated)
O=c1c2ccccc2nc(/C=C/c2cnccn2)n1CC[NH+]1CCOCC1 (cis-trans isomerization)
O=c1c2ccccc2nc(/C=C/c2cnccn2)n1CC[NH+]1CCOCC1 (3D coordinates assigned)
O=c1c2ccccc2nc(/C=C/c2cnccn2)n1CC[NH+]1CCOCC1 (nonaromatic ring conformer: 73.88275030105541 kcal/mol)

>  <smiles>  (6) 
O=c1c2ccccc2nc(/C=C/c2cnccn2)n1CCN1CCOCC1

>  <score_type>  (6) 
oracle

>  <origin>  (6) 
autodockgpu

>  <m_score__min__energy>  (6) 
-6.6699999999999999

>  <m_primary>  (6) 
energy

>  <meeko>  (6) 
{"free_energy": -6.37, "intermolecular_energy": -8.16, "internal_energy": -1.93, "cluster_size": 11, "cluster_id": 2, "rank_in_cluster": 8}

>  <energy>  (6) 
-6.06

>  <cluster_rmsd>  (6) 
1.74

>  <rmsd>  (6) 
270.74

>  <cluster>  (6) 
1

$$$$
OQAGMIVLLKVZIV-DVFUPZKENA-O
     RDKit          3D

 49 52  0  0  0  0  0  0  0  0999 V2000
  135.9936   68.0851  221.9787 H   0  0  0  0  0  0  0  0  0  0  0  0
  136.5260   68.5510  222.8210 C   0  0  0  0  0  0  0  0  0  0  0  0
  137.8610   68.4830  222.8540 C   0  0  0  0  0  0  0  0  0  0  0  0
  138.3716   67.7081  222.2634 H   0  0  0  0  0  0  0  0  0  0  0  0
  138.6690   69.4190  223.6610 C   0  0  0  0  0  0  0  0  0  0  0  0
  138.8190   69.1210  224.9770 N   0  0  0  0  0  0  0  0  0  0  0  0
  139.5370   69.9070  225.8110 C   0  0  0  0  0  0  0  0  0  0  0  0
  139.6750   69.5560  227.1590 C   0  0  0  0  0  0  0  0  0  0  0  0
  139.1957   68.6427  227.5412 H   0  0  0  0  0  0  0  0  0  0  0  0
  140.4220   70.3660  228.0200 C   0  0  0  0  0  0  0  0  0  0  0  0
  140.5291   70.0896  229.0793 H   0  0  0  0  0  0  0  0  0  0  0  0
  141.0330   71.5270  227.5360 C   0  0  0  0  0  0  0  0  0  0  0  0
  141.6205   72.1619  228.2155 H   0  0  0  0  0  0  0  0  0  0  0  0
  140.8990   71.8830  226.1900 C   0  0  0  0  0  0  0  0  0  0  0  0
  141.3825   72.7962  225.8127 H   0  0  0  0  0  0  0  0  0  0  0  0
  140.1460   71.0740  225.3170 C   0  0  0  0  0  0  0  0  0  0  0  0
  139.9690   71.3930  223.9600 C   0  0  0  0  0  0  0  0  0  0  0  0
  140.4980   72.4420  223.4960 O   0  0  0  0  0  0  0  0  0  0  0  0
  139.2200   70.5760  223.1440 N   0  0  0  0  0  0  0  0  0  0  0  0
  139.0060   70.9740  221.7360 C   0  0  0  0  0  0  0  0  0  0  0  0
  139.8847   71.5335  221.3826 H   0  0  0  0  0  0  0  0  0  0  0  0
  138.8601   70.0657  221.1329 H   0  0  0  0  0  0  0  0  0  0  0  0
  137.7510   71.8640  221.5980 C   0  0  0  0  0  0  0  0  0  0  0  0
  137.5768   72.0645  220.5306 H   0  0  0  0  0  0  0  0  0  0  0  0
  136.9074   71.3234  222.0520 H   0  0  0  0  0  0  0  0  0  0  0  0
  137.8900   73.1620  222.3100 N   0  0  0  0  0  0  0  0  0  0  0  0
  138.4150   72.9830  223.2000 H   0  0  0  0  0  0  0  0  0  0  0  0
  136.5730   73.7100  222.7060 C   0  0  0  0  0  0  0  0  0  0  0  0
  135.9588   72.8971  223.1205 H   0  0  0  0  0  0  0  0  0  0  0  0
  136.7409   74.4985  223.4544 H   0  0  0  0  0  0  0  0  0  0  0  0
  135.8340   74.3330  221.5120 C   0  0  0  0  0  0  0  0  0  0  0  0
  135.6276   73.5505  220.7670 H   0  0  0  0  0  0  0  0  0  0  0  0
  134.8934   74.7763  221.8707 H   0  0  0  0  0  0  0  0  0  0  0  0
  136.6150   75.3470  220.9150 O   0  0  0  0  0  0  0  0  0  0  0  0
  137.8090   74.7880  220.4060 C   0  0  0  0  0  0  0  0  0  0  0  0
  137.5570   74.0056  219.6751 H   0  0  0  0  0  0  0  0  0  0  0  0
  138.3946   75.5872  219.9281 H   0  0  0  0  0  0  0  0  0  0  0  0
  138.6520   74.1700  221.5340 C   0  0  0  0  0  0  0  0  0  0  0  0
  139.5348   73.6847  221.0922 H   0  0  0  0  0  0  0  0  0  0  0  0
  138.9435   74.9779  222.2213 H   0  0  0  0  0  0  0  0  0  0  0  0
  135.7390   69.2270  223.8710 C   0  0  0  0  0  0  0  0  0  0  0  0
  134.9640   68.5150  224.7360 N   0  0  0  0  0  0  0  0  0  0  0  0
  134.2400   69.1270  225.7090 C   0  0  0  0  0  0  0  0  0  0  0  0
  133.6194   68.5329  226.3959 H   0  0  0  0  0  0  0  0  0  0  0  0
  134.2910   70.5170  225.8290 C   0  0  0  0  0  0  0  0  0  0  0  0
  133.7118   71.0276  226.6125 H   0  0  0  0  0  0  0  0  0  0  0  0
  135.0620   71.2340  224.9700 N   0  0  0  0  0  0  0  0  0  0  0  0
  135.7860   70.6220  223.9950 C   0  0  0  0  0  0  0  0  0  0  0  0
  136.4046   71.2182  223.3081 H   0  0  0  0  0  0  0  0  0  0  0  0
  1  2  1  0
  2  3  2  0
  3  4  1  0
  3  5  1  0
  5  6  2  0
  6  7  1  0
  7  8  2  0
  8  9  1  0
  8 10  1  0
 10 11  1  0
 10 12  2  0
 12 13  1  0
 12 14  1  0
 14 15  1  0
 14 16  2  0
 16 17  1  0
 17 18  2  0
 17 19  1  0
 19 20  1  0
 20 21  1  0
 20 22  1  0
 20 23  1  0
 23 24  1  0
 23 25  1  0
 23 26  1  0
 26 27  1  0
 26 28  1  0
 28 29  1  0
 28 30  1  0
 28 31  1  0
 31 32  1  0
 31 33  1  0
 31 34  1  0
 34 35  1  0
 35 36  1  0
 35 37  1  0
 35 38  1  0
 38 39  1  0
 38 40  1  0
  2 41  1  0
 41 42  2  0
 42 43  1  0
 43 44  1  0
 43 45  2  0
 45 46  1  0
 45 47  1  0
 47 48  2  0
 48 49  1  0
 19  5  1  0
 38 26  1  0
 48 41  1  0
 16  7  1  0
M  CHG  1  26   1
M  END
>  <UniqueID>  (7) 
506

>  <SMILES>  (7) 
O=c1c2ccccc2nc(/C=C/c2cnccn2)n1CC[NH+]1CCOCC1

>  <Energy>  (7) 
73.88275030105541

>  <Genealogy>  (7) 
O=c1c2ccccc2nc(/C=C/c2cnccn2)n1CC[NH+]1CCOCC1 (protonated)
O=c1c2ccccc2nc(/C=C/c2cnccn2)n1CC[NH+]1CCOCC1 (cis-trans isomerization)
O=c1c2ccccc2nc(/C=C/c2cnccn2)n1CC[NH+]1CCOCC1 (3D coordinates assigned)
O=c1c2ccccc2nc(/C=C/c2cnccn2)n1CC[NH+]1CCOCC1 (nonaromatic ring conformer: 73.88275030105541 kcal/mol)

>  <smiles>  (7) 
O=c1c2ccccc2nc(/C=C/c2cnccn2)n1CCN1CCOCC1

>  <score_type>  (7) 
oracle

>  <origin>  (7) 
autodockgpu

>  <m_score__min__energy>  (7) 
-6.6699999999999999

>  <m_primary>  (7) 
energy

>  <meeko>  (7) 
{"free_energy": -6.02, "intermolecular_energy": -7.81, "internal_energy": -2.25, "cluster_size": 7, "cluster_id": 1, "rank_in_cluster": 7}

>  <energy>  (7) 
-6.02

>  <cluster_rmsd>  (7) 
1.61

>  <rmsd>  (7) 
270.84

>  <cluster>  (7) 
1

$$$$
OQAGMIVLLKVZIV-DVFUPZKENA-O
     RDKit          3D

 49 52  0  0  0  0  0  0  0  0999 V2000
  143.8202   80.3130  222.9858 H   0  0  0  0  0  0  0  0  0  0  0  0
  142.7990   80.0730  222.6550 C   0  0  0  0  0  0  0  0  0  0  0  0
  142.1570   79.0570  223.2390 C   0  0  0  0  0  0  0  0  0  0  0  0
  142.7336   78.3281  223.8274 H   0  0  0  0  0  0  0  0  0  0  0  0
  140.6960   78.8850  223.1170 C   0  0  0  0  0  0  0  0  0  0  0  0
  139.9170   79.7460  223.8210 N   0  0  0  0  0  0  0  0  0  0  0  0
  138.5670   79.6810  223.7860 C   0  0  0  0  0  0  0  0  0  0  0  0
  137.8020   80.5960  224.5200 C   0  0  0  0  0  0  0  0  0  0  0  0
  138.2999   81.3648  225.1292 H   0  0  0  0  0  0  0  0  0  0  0  0
  136.4060   80.5330  224.4790 C   0  0  0  0  0  0  0  0  0  0  0  0
  135.8065   81.2522  225.0564 H   0  0  0  0  0  0  0  0  0  0  0  0
  135.7710   79.5570  223.7050 C   0  0  0  0  0  0  0  0  0  0  0  0
  134.6724   79.5108  223.6738 H   0  0  0  0  0  0  0  0  0  0  0  0
  136.5290   78.6390  222.9700 C   0  0  0  0  0  0  0  0  0  0  0  0
  136.0256   77.8725  222.3625 H   0  0  0  0  0  0  0  0  0  0  0  0
  137.9360   78.6950  223.0070 C   0  0  0  0  0  0  0  0  0  0  0  0
  138.7440   77.7910  222.2990 C   0  0  0  0  0  0  0  0  0  0  0  0
  138.2000   76.8880  221.6010 O   0  0  0  0  0  0  0  0  0  0  0  0
  140.1160   77.8780  222.3700 N   0  0  0  0  0  0  0  0  0  0  0  0
  140.9340   76.8720  221.6580 C   0  0  0  0  0  0  0  0  0  0  0  0
  141.9599   76.8972  222.0540 H   0  0  0  0  0  0  0  0  0  0  0  0
  140.4843   75.8804  221.8148 H   0  0  0  0  0  0  0  0  0  0  0  0
  140.9710   77.1610  220.1410 C   0  0  0  0  0  0  0  0  0  0  0  0
  140.6590   76.2544  219.6019 H   0  0  0  0  0  0  0  0  0  0  0  0
  140.2911   78.0033  219.9456 H   0  0  0  0  0  0  0  0  0  0  0  0
  142.3240   77.5550  219.6670 N   0  0  0  0  0  0  0  0  0  0  0  0
  142.6770   78.3120  220.3020 H   0  0  0  0  0  0  0  0  0  0  0  0
  142.2770   78.1400  218.3080 C   0  0  0  0  0  0  0  0  0  0  0  0
  141.4291   78.8383  218.2497 H   0  0  0  0  0  0  0  0  0  0  0  0
  143.2292   78.6596  218.1254 H   0  0  0  0  0  0  0  0  0  0  0  0
  142.1070   77.0600  217.2300 C   0  0  0  0  0  0  0  0  0  0  0  0
  141.1426   76.5519  217.3772 H   0  0  0  0  0  0  0  0  0  0  0  0
  142.1390   77.5403  216.2409 H   0  0  0  0  0  0  0  0  0  0  0  0
  143.1480   76.1090  217.3060 O   0  0  0  0  0  0  0  0  0  0  0  0
  143.0970   75.4480  218.5540 C   0  0  0  0  0  0  0  0  0  0  0  0
  142.1159   74.9631  218.6644 H   0  0  0  0  0  0  0  0  0  0  0  0
  143.9026   74.6998  218.5875 H   0  0  0  0  0  0  0  0  0  0  0  0
  143.3010   76.4400  219.7120 C   0  0  0  0  0  0  0  0  0  0  0  0
  143.1832   75.9029  220.6647 H   0  0  0  0  0  0  0  0  0  0  0  0
  144.3099   76.8683  219.6188 H   0  0  0  0  0  0  0  0  0  0  0  0
  142.1910   80.8860  221.5830 C   0  0  0  0  0  0  0  0  0  0  0  0
  142.1660   80.4420  220.2940 N   0  0  0  0  0  0  0  0  0  0  0  0
  141.6040   81.1800  219.3020 C   0  0  0  0  0  0  0  0  0  0  0  0
  141.5954   80.8042  218.2682 H   0  0  0  0  0  0  0  0  0  0  0  0
  141.0370   82.4200  219.6050 C   0  0  0  0  0  0  0  0  0  0  0  0
  140.5778   83.0290  218.8124 H   0  0  0  0  0  0  0  0  0  0  0  0
  141.0580   82.8670  220.8880 N   0  0  0  0  0  0  0  0  0  0  0  0
  141.6220   82.1300  221.8820 C   0  0  0  0  0  0  0  0  0  0  0  0
  141.6312   82.5088  222.9147 H   0  0  0  0  0  0  0  0  0  0  0  0
  1  2  1  0
  2  3  2  0
  3  4  1  0
  3  5  1  0
  5  6  2  0
  6  7  1  0
  7  8  2  0
  8  9  1  0
  8 10  1  0
 10 11  1  0
 10 12  2  0
 12 13  1  0
 12 14  1  0
 14 15  1  0
 14 16  2  0
 16 17  1  0
 17 18  2  0
 17 19  1  0
 19 20  1  0
 20 21  1  0
 20 22  1  0
 20 23  1  0
 23 24  1  0
 23 25  1  0
 23 26  1  0
 26 27  1  0
 26 28  1  0
 28 29  1  0
 28 30  1  0
 28 31  1  0
 31 32  1  0
 31 33  1  0
 31 34  1  0
 34 35  1  0
 35 36  1  0
 35 37  1  0
 35 38  1  0
 38 39  1  0
 38 40  1  0
  2 41  1  0
 41 42  2  0
 42 43  1  0
 43 44  1  0
 43 45  2  0
 45 46  1  0
 45 47  1  0
 47 48  2  0
 48 49  1  0
 19  5  1  0
 38 26  1  0
 48 41  1  0
 16  7  1  0
M  CHG  1  26   1
M  END
>  <UniqueID>  (8) 
506

>  <SMILES>  (8) 
O=c1c2ccccc2nc(/C=C/c2cnccn2)n1CC[NH+]1CCOCC1

>  <Energy>  (8) 
73.88275030105541

>  <Genealogy>  (8) 
O=c1c2ccccc2nc(/C=C/c2cnccn2)n1CC[NH+]1CCOCC1 (protonated)
O=c1c2ccccc2nc(/C=C/c2cnccn2)n1CC[NH+]1CCOCC1 (cis-trans isomerization)
O=c1c2ccccc2nc(/C=C/c2cnccn2)n1CC[NH+]1CCOCC1 (3D coordinates assigned)
O=c1c2ccccc2nc(/C=C/c2cnccn2)n1CC[NH+]1CCOCC1 (nonaromatic ring conformer: 73.88275030105541 kcal/mol)

>  <smiles>  (8) 
O=c1c2ccccc2nc(/C=C/c2cnccn2)n1CCN1CCOCC1

>  <score_type>  (8) 
oracle

>  <origin>  (8) 
autodockgpu

>  <m_score__min__energy>  (8) 
-6.6699999999999999

>  <m_primary>  (8) 
energy

>  <meeko>  (8) 
{"free_energy": -5.63, "intermolecular_energy": -7.42, "internal_energy": -2.22, "cluster_size": 1, "cluster_id": 4, "rank_in_cluster": 1}

>  <energy>  (8) 
-6.61

>  <cluster_rmsd>  (8) 
0.0

>  <rmsd>  (8) 
271.28

>  <cluster>  (8) 
2

$$$$
OQAGMIVLLKVZIV-DVFUPZKENA-O
     RDKit          3D

 49 52  0  0  0  0  0  0  0  0999 V2000
  141.5149   72.5477  221.3235 H   0  0  0  0  0  0  0  0  0  0  0  0
  140.4950   72.4550  221.7250 C   0  0  0  0  0  0  0  0  0  0  0  0
  140.0220   71.2350  222.0020 C   0  0  0  0  0  0  0  0  0  0  0  0
  139.6786   70.5945  221.1763 H   0  0  0  0  0  0  0  0  0  0  0  0
  139.9480   70.7240  223.3850 C   0  0  0  0  0  0  0  0  0  0  0  0
  140.5270   71.4840  224.3510 N   0  0  0  0  0  0  0  0  0  0  0  0
  140.5210   71.1140  225.6510 C   0  0  0  0  0  0  0  0  0  0  0  0
  141.1210   71.9330  226.6150 C   0  0  0  0  0  0  0  0  0  0  0  0
  141.6021   72.8751  226.3135 H   0  0  0  0  0  0  0  0  0  0  0  0
  141.1090   71.5540  227.9610 C   0  0  0  0  0  0  0  0  0  0  0  0
  141.5792   72.1992  228.7177 H   0  0  0  0  0  0  0  0  0  0  0  0
  140.5000   70.3560  228.3460 C   0  0  0  0  0  0  0  0  0  0  0  0
  140.4926   70.0604  229.4055 H   0  0  0  0  0  0  0  0  0  0  0  0
  139.9000   69.5320  227.3880 C   0  0  0  0  0  0  0  0  0  0  0  0
  139.4215   68.5904  227.6952 H   0  0  0  0  0  0  0  0  0  0  0  0
  139.9080   69.9070  226.0300 C   0  0  0  0  0  0  0  0  0  0  0  0
  139.3310   69.1110  225.0260 C   0  0  0  0  0  0  0  0  0  0  0  0
  138.7850   68.0160  225.3410 O   0  0  0  0  0  0  0  0  0  0  0  0
  139.3680   69.5130  223.7100 N   0  0  0  0  0  0  0  0  0  0  0  0
  138.8040   68.6210  222.6740 C   0  0  0  0  0  0  0  0  0  0  0  0
  139.3912   68.7262  221.7498 H   0  0  0  0  0  0  0  0  0  0  0  0
  138.8472   67.5850  223.0413 H   0  0  0  0  0  0  0  0  0  0  0  0
  137.3300   68.9790  222.3800 C   0  0  0  0  0  0  0  0  0  0  0  0
  137.3062   69.8162  221.6668 H   0  0  0  0  0  0  0  0  0  0  0  0
  136.8448   68.0817  221.9684 H   0  0  0  0  0  0  0  0  0  0  0  0
  136.5830   69.3740  223.6030 N   0  0  0  0  0  0  0  0  0  0  0  0
  137.0350   68.8980  224.4210 H   0  0  0  0  0  0  0  0  0  0  0  0
  135.1820   68.8950  223.5640 C   0  0  0  0  0  0  0  0  0  0  0  0
  135.1703   67.8569  223.2003 H   0  0  0  0  0  0  0  0  0  0  0  0
  134.7687   68.9612  224.5813 H   0  0  0  0  0  0  0  0  0  0  0  0
  134.3120   69.7570  222.6370 C   0  0  0  0  0  0  0  0  0  0  0  0
  134.6906   69.6749  221.6075 H   0  0  0  0  0  0  0  0  0  0  0  0
  133.2738   69.3978  222.6924 H   0  0  0  0  0  0  0  0  0  0  0  0
  134.3450   71.1110  223.0360 O   0  0  0  0  0  0  0  0  0  0  0  0
  135.6650   71.6060  222.9290 C   0  0  0  0  0  0  0  0  0  0  0  0
  136.0076   71.4957  221.8895 H   0  0  0  0  0  0  0  0  0  0  0  0
  135.6674   72.6655  223.2247 H   0  0  0  0  0  0  0  0  0  0  0  0
  136.6190   70.8350  223.8580 C   0  0  0  0  0  0  0  0  0  0  0  0
  137.6443   71.1987  223.6952 H   0  0  0  0  0  0  0  0  0  0  0  0
  136.2958   71.0069  224.8953 H   0  0  0  0  0  0  0  0  0  0  0  0
  139.7020   73.6820  221.9370 C   0  0  0  0  0  0  0  0  0  0  0  0
  140.3100   74.8900  222.1060 N   0  0  0  0  0  0  0  0  0  0  0  0
  139.5890   76.0250  222.2970 C   0  0  0  0  0  0  0  0  0  0  0  0
  140.0990   76.9900  222.4339 H   0  0  0  0  0  0  0  0  0  0  0  0
  138.1940   75.9560  222.3180 C   0  0  0  0  0  0  0  0  0  0  0  0
  137.5960   76.8666  222.4701 H   0  0  0  0  0  0  0  0  0  0  0  0
  137.5820   74.7550  222.1490 N   0  0  0  0  0  0  0  0  0  0  0  0
  138.3030   73.6180  221.9600 C   0  0  0  0  0  0  0  0  0  0  0  0
  137.7908   72.6538  221.8260 H   0  0  0  0  0  0  0  0  0  0  0  0
  1  2  1  0
  2  3  2  0
  3  4  1  0
  3  5  1  0
  5  6  2  0
  6  7  1  0
  7  8  2  0
  8  9  1  0
  8 10  1  0
 10 11  1  0
 10 12  2  0
 12 13  1  0
 12 14  1  0
 14 15  1  0
 14 16  2  0
 16 17  1  0
 17 18  2  0
 17 19  1  0
 19 20  1  0
 20 21  1  0
 20 22  1  0
 20 23  1  0
 23 24  1  0
 23 25  1  0
 23 26  1  0
 26 27  1  0
 26 28  1  0
 28 29  1  0
 28 30  1  0
 28 31  1  0
 31 32  1  0
 31 33  1  0
 31 34  1  0
 34 35  1  0
 35 36  1  0
 35 37  1  0
 35 38  1  0
 38 39  1  0
 38 40  1  0
  2 41  1  0
 41 42  2  0
 42 43  1  0
 43 44  1  0
 43 45  2  0
 45 46  1  0
 45 47  1  0
 47 48  2  0
 48 49  1  0
 19  5  1  0
 38 26  1  0
 48 41  1  0
 16  7  1  0
M  CHG  1  26   1
M  END
>  <UniqueID>  (9) 
506

>  <SMILES>  (9) 
O=c1c2ccccc2nc(/C=C/c2cnccn2)n1CC[NH+]1CCOCC1

>  <Energy>  (9) 
73.88275030105541

>  <Genealogy>  (9) 
O=c1c2ccccc2nc(/C=C/c2cnccn2)n1CC[NH+]1CCOCC1 (protonated)
O=c1c2ccccc2nc(/C=C/c2cnccn2)n1CC[NH+]1CCOCC1 (cis-trans isomerization)
O=c1c2ccccc2nc(/C=C/c2cnccn2)n1CC[NH+]1CCOCC1 (3D coordinates assigned)
O=c1c2ccccc2nc(/C=C/c2cnccn2)n1CC[NH+]1CCOCC1 (nonaromatic ring conformer: 73.88275030105541 kcal/mol)

>  <smiles>  (9) 
O=c1c2ccccc2nc(/C=C/c2cnccn2)n1CCN1CCOCC1

>  <score_type>  (9) 
oracle

>  <origin>  (9) 
autodockgpu

>  <m_score__min__energy>  (9) 
-6.6699999999999999

>  <m_primary>  (9) 
energy

>  <meeko>  (9) 
{"free_energy": -6.3, "intermolecular_energy": -8.09, "internal_energy": -2.18, "cluster_size": 11, "cluster_id": 2, "rank_in_cluster": 11}

>  <energy>  (9) 
-6.59

>  <cluster_rmsd>  (9) 
0.07

>  <rmsd>  (9) 
271.26

>  <cluster>  (9) 
2

$$$$
OQAGMIVLLKVZIV-DVFUPZKENA-O
     RDKit          3D

 49 52  0  0  0  0  0  0  0  0999 V2000
  141.5163   71.4244  221.1452 H   0  0  0  0  0  0  0  0  0  0  0  0
  140.7050   72.0440  221.5550 C   0  0  0  0  0  0  0  0  0  0  0  0
  139.6490   71.4370  222.1060 C   0  0  0  0  0  0  0  0  0  0  0  0
  138.7113   71.3723  221.5346 H   0  0  0  0  0  0  0  0  0  0  0  0
  139.7060   70.8510  223.4600 C   0  0  0  0  0  0  0  0  0  0  0  0
  140.3210   71.5870  224.4210 N   0  0  0  0  0  0  0  0  0  0  0  0
  140.4340   71.1480  225.6950 C   0  0  0  0  0  0  0  0  0  0  0  0
  141.0670   71.9450  226.6570 C   0  0  0  0  0  0  0  0  0  0  0  0
  141.4769   72.9261  226.3751 H   0  0  0  0  0  0  0  0  0  0  0  0
  141.1780   71.4940  227.9750 C   0  0  0  0  0  0  0  0  0  0  0  0
  141.6763   72.1206  228.7293 H   0  0  0  0  0  0  0  0  0  0  0  0
  140.6570   70.2480  228.3370 C   0  0  0  0  0  0  0  0  0  0  0  0
  140.7451   69.8970  229.3758 H   0  0  0  0  0  0  0  0  0  0  0  0
  140.0240   69.4470  227.3810 C   0  0  0  0  0  0  0  0  0  0  0  0
  139.6152   68.4673  227.6692 H   0  0  0  0  0  0  0  0  0  0  0  0
  139.9090   69.8930  226.0490 C   0  0  0  0  0  0  0  0  0  0  0  0
  139.2950   69.1230  225.0480 C   0  0  0  0  0  0  0  0  0  0  0  0
  138.8270   67.9860  225.3400 O   0  0  0  0  0  0  0  0  0  0  0  0
  139.2110   69.5960  223.7580 N   0  0  0  0  0  0  0  0  0  0  0  0
  138.6110   68.7320  222.7180 C   0  0  0  0  0  0  0  0  0  0  0  0
  139.1120   68.9238  221.7577 H   0  0  0  0  0  0  0  0  0  0  0  0
  138.7409   67.6814  223.0168 H   0  0  0  0  0  0  0  0  0  0  0  0
  137.1000   69.0180  222.5660 C   0  0  0  0  0  0  0  0  0  0  0  0
  136.9689   69.8603  221.8707 H   0  0  0  0  0  0  0  0  0  0  0  0
  136.6236   68.1018  222.1871 H   0  0  0  0  0  0  0  0  0  0  0  0
  136.4510   69.3620  223.8590 N   0  0  0  0  0  0  0  0  0  0  0  0
  136.9630   68.8510  224.6180 H   0  0  0  0  0  0  0  0  0  0  0  0
  135.0500   68.8870  223.9090 C   0  0  0  0  0  0  0  0  0  0  0  0
  135.0053   67.8650  223.5046 H   0  0  0  0  0  0  0  0  0  0  0  0
  134.7168   68.9108  224.9570 H   0  0  0  0  0  0  0  0  0  0  0  0
  134.1150   69.7890  223.0880 C   0  0  0  0  0  0  0  0  0  0  0  0
  134.4134   69.7504  222.0300 H   0  0  0  0  0  0  0  0  0  0  0  0
  133.0824   69.4291  223.2068 H   0  0  0  0  0  0  0  0  0  0  0  0
  134.1850   71.1250  223.5410 O   0  0  0  0  0  0  0  0  0  0  0  0
  135.4950   71.6220  223.3530 C   0  0  0  0  0  0  0  0  0  0  0  0
  135.7556   71.5556  222.2864 H   0  0  0  0  0  0  0  0  0  0  0  0
  135.5257   72.6680  223.6920 H   0  0  0  0  0  0  0  0  0  0  0  0
  136.5140   70.8100  224.1720 C   0  0  0  0  0  0  0  0  0  0  0  0
  137.5255   71.1785  223.9460 H   0  0  0  0  0  0  0  0  0  0  0  0
  136.2726   70.9380  225.2375 H   0  0  0  0  0  0  0  0  0  0  0  0
  140.8250   73.5130  221.4750 C   0  0  0  0  0  0  0  0  0  0  0  0
  139.9030   74.3260  222.0650 N   0  0  0  0  0  0  0  0  0  0  0  0
  140.0070   75.6790  222.0010 C   0  0  0  0  0  0  0  0  0  0  0  0
  139.2508   76.3171  222.4816 H   0  0  0  0  0  0  0  0  0  0  0  0
  141.0820   76.2520  221.3200 C   0  0  0  0  0  0  0  0  0  0  0  0
  141.1813   77.3459  221.2613 H   0  0  0  0  0  0  0  0  0  0  0  0
  142.0050   75.4480  220.7300 N   0  0  0  0  0  0  0  0  0  0  0  0
  141.9010   74.0940  220.7920 C   0  0  0  0  0  0  0  0  0  0  0  0
  142.6575   73.4584  220.3086 H   0  0  0  0  0  0  0  0  0  0  0  0
  1  2  1  0
  2  3  2  0
  3  4  1  0
  3  5  1  0
  5  6  2  0
  6  7  1  0
  7  8  2  0
  8  9  1  0
  8 10  1  0
 10 11  1  0
 10 12  2  0
 12 13  1  0
 12 14  1  0
 14 15  1  0
 14 16  2  0
 16 17  1  0
 17 18  2  0
 17 19  1  0
 19 20  1  0
 20 21  1  0
 20 22  1  0
 20 23  1  0
 23 24  1  0
 23 25  1  0
 23 26  1  0
 26 27  1  0
 26 28  1  0
 28 29  1  0
 28 30  1  0
 28 31  1  0
 31 32  1  0
 31 33  1  0
 31 34  1  0
 34 35  1  0
 35 36  1  0
 35 37  1  0
 35 38  1  0
 38 39  1  0
 38 40  1  0
  2 41  1  0
 41 42  2  0
 42 43  1  0
 43 44  1  0
 43 45  2  0
 45 46  1  0
 45 47  1  0
 47 48  2  0
 48 49  1  0
 19  5  1  0
 38 26  1  0
 48 41  1  0
 16  7  1  0
M  CHG  1  26   1
M  END
>  <UniqueID>  (10) 
506

>  <SMILES>  (10) 
O=c1c2ccccc2nc(/C=C/c2cnccn2)n1CC[NH+]1CCOCC1

>  <Energy>  (10) 
73.88275030105541

>  <Genealogy>  (10) 
O=c1c2ccccc2nc(/C=C/c2cnccn2)n1CC[NH+]1CCOCC1 (protonated)
O=c1c2ccccc2nc(/C=C/c2cnccn2)n1CC[NH+]1CCOCC1 (cis-trans isomerization)
O=c1c2ccccc2nc(/C=C/c2cnccn2)n1CC[NH+]1CCOCC1 (3D coordinates assigned)
O=c1c2ccccc2nc(/C=C/c2cnccn2)n1CC[NH+]1CCOCC1 (nonaromatic ring conformer: 73.88275030105541 kcal/mol)

>  <smiles>  (10) 
O=c1c2ccccc2nc(/C=C/c2cnccn2)n1CCN1CCOCC1

>  <score_type>  (10) 
oracle

>  <origin>  (10) 
autodockgpu

>  <m_score__min__energy>  (10) 
-6.6699999999999999

>  <m_primary>  (10) 
energy

>  <meeko>  (10) 
{"free_energy": -6.58, "intermolecular_energy": -8.37, "internal_energy": -1.91, "cluster_size": 11, "cluster_id": 2, "rank_in_cluster": 3}

>  <energy>  (10) 
-6.58

>  <cluster_rmsd>  (10) 
0.3

>  <rmsd>  (10) 
271.3

>  <cluster>  (10) 
2

$$$$
OQAGMIVLLKVZIV-DVFUPZKENA-O
     RDKit          3D

 49 52  0  0  0  0  0  0  0  0999 V2000
  141.8976   71.7789  221.3629 H   0  0  0  0  0  0  0  0  0  0  0  0
  140.9270   72.1970  221.6680 C   0  0  0  0  0  0  0  0  0  0  0  0
  139.9570   71.3590  222.0470 C   0  0  0  0  0  0  0  0  0  0  0  0
  139.1719   71.0887  221.3255 H   0  0  0  0  0  0  0  0  0  0  0  0
  139.9100   70.7860  223.4070 C   0  0  0  0  0  0  0  0  0  0  0  0
  140.4750   71.5200  224.4000 N   0  0  0  0  0  0  0  0  0  0  0  0
  140.4920   71.0940  225.6840 C   0  0  0  0  0  0  0  0  0  0  0  0
  141.0770   71.8870  226.6780 C   0  0  0  0  0  0  0  0  0  0  0  0
  141.5281   72.8551  226.4146 H   0  0  0  0  0  0  0  0  0  0  0  0
  141.0880   71.4490  228.0050 C   0  0  0  0  0  0  0  0  0  0  0  0
  141.5477   72.0734  228.7853 H   0  0  0  0  0  0  0  0  0  0  0  0
  140.5160   70.2190  228.3430 C   0  0  0  0  0  0  0  0  0  0  0  0
  140.5262   69.8781  229.3888 H   0  0  0  0  0  0  0  0  0  0  0  0
  139.9310   69.4210  227.3550 C   0  0  0  0  0  0  0  0  0  0  0  0
  139.4818   68.4538  227.6249 H   0  0  0  0  0  0  0  0  0  0  0  0
  139.9160   69.8540  226.0140 C   0  0  0  0  0  0  0  0  0  0  0  0
  139.3530   69.0870  224.9810 C   0  0  0  0  0  0  0  0  0  0  0  0
  138.8410   67.9640  225.2520 O   0  0  0  0  0  0  0  0  0  0  0  0
  139.3670   69.5460  223.6840 N   0  0  0  0  0  0  0  0  0  0  0  0
  138.8190   68.6840  222.6140 C   0  0  0  0  0  0  0  0  0  0  0  0
  139.3820   68.8607  221.6857 H   0  0  0  0  0  0  0  0  0  0  0  0
  138.9129   67.6336  222.9269 H   0  0  0  0  0  0  0  0  0  0  0  0
  137.3250   68.9930  222.3660 C   0  0  0  0  0  0  0  0  0  0  0  0
  137.2511   69.8259  221.6513 H   0  0  0  0  0  0  0  0  0  0  0  0
  136.8559   68.0791  221.9727 H   0  0  0  0  0  0  0  0  0  0  0  0
  136.6060   69.3690  223.6120 N   0  0  0  0  0  0  0  0  0  0  0  0
  137.0810   68.8870  224.4130 H   0  0  0  0  0  0  0  0  0  0  0  0
  135.2080   68.8800  223.6020 C   0  0  0  0  0  0  0  0  0  0  0  0
  135.1948   67.8458  223.2276 H   0  0  0  0  0  0  0  0  0  0  0  0
  134.8192   68.9323  224.6297 H   0  0  0  0  0  0  0  0  0  0  0  0
  134.3090   69.7460  222.7050 C   0  0  0  0  0  0  0  0  0  0  0  0
  134.6635   69.6785  221.6659 H   0  0  0  0  0  0  0  0  0  0  0  0
  133.2750   69.3782  222.7803 H   0  0  0  0  0  0  0  0  0  0  0  0
  134.3420   71.0950  223.1190 O   0  0  0  0  0  0  0  0  0  0  0  0
  135.6550   71.6010  222.9850 C   0  0  0  0  0  0  0  0  0  0  0  0
  135.9727   71.5044  221.9363 H   0  0  0  0  0  0  0  0  0  0  0  0
  135.6572   72.6573  223.2919 H   0  0  0  0  0  0  0  0  0  0  0  0
  136.6370   70.8270  223.8820 C   0  0  0  0  0  0  0  0  0  0  0  0
  137.6553   71.2005  223.6986 H   0  0  0  0  0  0  0  0  0  0  0  0
  136.3375   70.9849  224.9286 H   0  0  0  0  0  0  0  0  0  0  0  0
  140.7460   73.6620  221.6430 C   0  0  0  0  0  0  0  0  0  0  0  0
  139.7170   74.2530  222.3120 N   0  0  0  0  0  0  0  0  0  0  0  0
  139.5450   75.6010  222.2980 C   0  0  0  0  0  0  0  0  0  0  0  0
  138.7059   76.0587  222.8424 H   0  0  0  0  0  0  0  0  0  0  0  0
  140.4420   76.4000  221.5870 C   0  0  0  0  0  0  0  0  0  0  0  0
  140.3169   77.4927  221.5677 H   0  0  0  0  0  0  0  0  0  0  0  0
  141.4710   75.8160  220.9190 N   0  0  0  0  0  0  0  0  0  0  0  0
  141.6430   74.4680  220.9300 C   0  0  0  0  0  0  0  0  0  0  0  0
  142.4813   74.0126  220.3824 H   0  0  0  0  0  0  0  0  0  0  0  0
  1  2  1  0
  2  3  2  0
  3  4  1  0
  3  5  1  0
  5  6  2  0
  6  7  1  0
  7  8  2  0
  8  9  1  0
  8 10  1  0
 10 11  1  0
 10 12  2  0
 12 13  1  0
 12 14  1  0
 14 15  1  0
 14 16  2  0
 16 17  1  0
 17 18  2  0
 17 19  1  0
 19 20  1  0
 20 21  1  0
 20 22  1  0
 20 23  1  0
 23 24  1  0
 23 25  1  0
 23 26  1  0
 26 27  1  0
 26 28  1  0
 28 29  1  0
 28 30  1  0
 28 31  1  0
 31 32  1  0
 31 33  1  0
 31 34  1  0
 34 35  1  0
 35 36  1  0
 35 37  1  0
 35 38  1  0
 38 39  1  0
 38 40  1  0
  2 41  1  0
 41 42  2  0
 42 43  1  0
 43 44  1  0
 43 45  2  0
 45 46  1  0
 45 47  1  0
 47 48  2  0
 48 49  1  0
 19  5  1  0
 38 26  1  0
 48 41  1  0
 16  7  1  0
M  CHG  1  26   1
M  END
>  <UniqueID>  (11) 
506

>  <SMILES>  (11) 
O=c1c2ccccc2nc(/C=C/c2cnccn2)n1CC[NH+]1CCOCC1

>  <Energy>  (11) 
73.88275030105541

>  <Genealogy>  (11) 
O=c1c2ccccc2nc(/C=C/c2cnccn2)n1CC[NH+]1CCOCC1 (protonated)
O=c1c2ccccc2nc(/C=C/c2cnccn2)n1CC[NH+]1CCOCC1 (cis-trans isomerization)
O=c1c2ccccc2nc(/C=C/c2cnccn2)n1CC[NH+]1CCOCC1 (3D coordinates assigned)
O=c1c2ccccc2nc(/C=C/c2cnccn2)n1CC[NH+]1CCOCC1 (nonaromatic ring conformer: 73.88275030105541 kcal/mol)

>  <smiles>  (11) 
O=c1c2ccccc2nc(/C=C/c2cnccn2)n1CCN1CCOCC1

>  <score_type>  (11) 
oracle

>  <origin>  (11) 
autodockgpu

>  <m_score__min__energy>  (11) 
-6.6699999999999999

>  <m_primary>  (11) 
energy

>  <meeko>  (11) 
{"free_energy": -6.59, "intermolecular_energy": -8.38, "internal_energy": -1.97, "cluster_size": 11, "cluster_id": 2, "rank_in_cluster": 2}

>  <energy>  (11) 
-6.56

>  <cluster_rmsd>  (11) 
0.13

>  <rmsd>  (11) 
271.27

>  <cluster>  (11) 
2

$$$$
OQAGMIVLLKVZIV-DVFUPZKENA-O
     RDKit          3D

 49 52  0  0  0  0  0  0  0  0999 V2000
  135.6659   68.0408  221.8064 H   0  0  0  0  0  0  0  0  0  0  0  0
  136.2260   68.3590  222.6980 C   0  0  0  0  0  0  0  0  0  0  0  0
  137.5570   68.2330  222.7000 C   0  0  0  0  0  0  0  0  0  0  0  0
  138.0385   67.6377  221.9102 H   0  0  0  0  0  0  0  0  0  0  0  0
  138.3990   68.8700  223.7320 C   0  0  0  0  0  0  0  0  0  0  0  0
  138.7120   68.1170  224.8180 N   0  0  0  0  0  0  0  0  0  0  0  0
  139.4750   68.5970  225.8250 C   0  0  0  0  0  0  0  0  0  0  0  0
  139.7820   67.7820  226.9220 C   0  0  0  0  0  0  0  0  0  0  0  0
  139.3980   66.7521  226.9665 H   0  0  0  0  0  0  0  0  0  0  0  0
  140.5760   68.2770  227.9600 C   0  0  0  0  0  0  0  0  0  0  0  0
  140.8167   67.6360  228.8209 H   0  0  0  0  0  0  0  0  0  0  0  0
  141.0650   69.5860  227.9060 C   0  0  0  0  0  0  0  0  0  0  0  0
  141.6907   69.9718  228.7243 H   0  0  0  0  0  0  0  0  0  0  0  0
  140.7610   70.4060  226.8150 C   0  0  0  0  0  0  0  0  0  0  0  0
  141.1473   71.4352  226.7768 H   0  0  0  0  0  0  0  0  0  0  0  0
  139.9600   69.9150  225.7640 C   0  0  0  0  0  0  0  0  0  0  0  0
  139.6150   70.7000  224.6520 C   0  0  0  0  0  0  0  0  0  0  0  0
  140.0300   71.8920  224.5810 O   0  0  0  0  0  0  0  0  0  0  0  0
  138.8240   70.1820  223.6510 N   0  0  0  0  0  0  0  0  0  0  0  0
  138.4320   71.0560  222.5250 C   0  0  0  0  0  0  0  0  0  0  0  0
  137.9389   70.4479  221.7523 H   0  0  0  0  0  0  0  0  0  0  0  0
  137.7462   71.8285  222.9031 H   0  0  0  0  0  0  0  0  0  0  0  0
  139.6660   71.7520  221.9090 C   0  0  0  0  0  0  0  0  0  0  0  0
  140.5717   71.3560  222.3917 H   0  0  0  0  0  0  0  0  0  0  0  0
  139.6603   71.5466  220.8284 H   0  0  0  0  0  0  0  0  0  0  0  0
  139.6370   73.2280  222.0880 N   0  0  0  0  0  0  0  0  0  0  0  0
  139.5790   73.4240  223.1160 H   0  0  0  0  0  0  0  0  0  0  0  0
  138.4270   73.8270  221.4800 C   0  0  0  0  0  0  0  0  0  0  0  0
  137.5553   73.2065  221.7353 H   0  0  0  0  0  0  0  0  0  0  0  0
  138.3140   74.8473  221.8751 H   0  0  0  0  0  0  0  0  0  0  0  0
  138.5440   73.9160  219.9500 C   0  0  0  0  0  0  0  0  0  0  0  0
  138.6238   72.9007  219.5343 H   0  0  0  0  0  0  0  0  0  0  0  0
  137.6497   74.4207  219.5557 H   0  0  0  0  0  0  0  0  0  0  0  0
  139.6860   74.6600  219.5790 O   0  0  0  0  0  0  0  0  0  0  0  0
  140.8500   74.0030  220.0370 C   0  0  0  0  0  0  0  0  0  0  0  0
  140.8847   72.9911  219.6071 H   0  0  0  0  0  0  0  0  0  0  0  0
  141.7282   74.5857  219.7221 H   0  0  0  0  0  0  0  0  0  0  0  0
  140.8560   73.8980  221.5720 C   0  0  0  0  0  0  0  0  0  0  0  0
  141.7382   73.3203  221.8850 H   0  0  0  0  0  0  0  0  0  0  0  0
  140.8824   74.9183  221.9823 H   0  0  0  0  0  0  0  0  0  0  0  0
  135.4790   68.9090  223.8470 C   0  0  0  0  0  0  0  0  0  0  0  0
  134.6670   68.1150  224.6000 N   0  0  0  0  0  0  0  0  0  0  0  0
  133.9790   68.6100  225.6620 C   0  0  0  0  0  0  0  0  0  0  0  0
  133.3276   67.9524  226.2564 H   0  0  0  0  0  0  0  0  0  0  0  0
  134.1060   69.9600  225.9920 C   0  0  0  0  0  0  0  0  0  0  0  0
  133.5566   70.3754  226.8497 H   0  0  0  0  0  0  0  0  0  0  0  0
  134.9140   70.7570  225.2450 N   0  0  0  0  0  0  0  0  0  0  0  0
  135.6020   70.2630  224.1820 C   0  0  0  0  0  0  0  0  0  0  0  0
  136.2516   70.9230  223.5884 H   0  0  0  0  0  0  0  0  0  0  0  0
  1  2  1  0
  2  3  2  0
  3  4  1  0
  3  5  1  0
  5  6  2  0
  6  7  1  0
  7  8  2  0
  8  9  1  0
  8 10  1  0
 10 11  1  0
 10 12  2  0
 12 13  1  0
 12 14  1  0
 14 15  1  0
 14 16  2  0
 16 17  1  0
 17 18  2  0
 17 19  1  0
 19 20  1  0
 20 21  1  0
 20 22  1  0
 20 23  1  0
 23 24  1  0
 23 25  1  0
 23 26  1  0
 26 27  1  0
 26 28  1  0
 28 29  1  0
 28 30  1  0
 28 31  1  0
 31 32  1  0
 31 33  1  0
 31 34  1  0
 34 35  1  0
 35 36  1  0
 35 37  1  0
 35 38  1  0
 38 39  1  0
 38 40  1  0
  2 41  1  0
 41 42  2  0
 42 43  1  0
 43 44  1  0
 43 45  2  0
 45 46  1  0
 45 47  1  0
 47 48  2  0
 48 49  1  0
 19  5  1  0
 38 26  1  0
 48 41  1  0
 16  7  1  0
M  CHG  1  26   1
M  END
>  <UniqueID>  (12) 
506

>  <SMILES>  (12) 
O=c1c2ccccc2nc(/C=C/c2cnccn2)n1CC[NH+]1CCOCC1

>  <Energy>  (12) 
73.88275030105541

>  <Genealogy>  (12) 
O=c1c2ccccc2nc(/C=C/c2cnccn2)n1CC[NH+]1CCOCC1 (protonated)
O=c1c2ccccc2nc(/C=C/c2cnccn2)n1CC[NH+]1CCOCC1 (cis-trans isomerization)
O=c1c2ccccc2nc(/C=C/c2cnccn2)n1CC[NH+]1CCOCC1 (3D coordinates assigned)
O=c1c2ccccc2nc(/C=C/c2cnccn2)n1CC[NH+]1CCOCC1 (nonaromatic ring conformer: 73.88275030105541 kcal/mol)

>  <smiles>  (12) 
O=c1c2ccccc2nc(/C=C/c2cnccn2)n1CCN1CCOCC1

>  <score_type>  (12) 
oracle

>  <origin>  (12) 
autodockgpu

>  <m_score__min__energy>  (12) 
-6.6699999999999999

>  <m_primary>  (12) 
energy

>  <meeko>  (12) 
{"free_energy": -6.4, "intermolecular_energy": -8.19, "internal_energy": -1.81, "cluster_size": 7, "cluster_id": 1, "rank_in_cluster": 2}

>  <energy>  (12) 
-6.53

>  <cluster_rmsd>  (12) 
0.72

>  <rmsd>  (12) 
271.27

>  <cluster>  (12) 
2

$$$$
OQAGMIVLLKVZIV-DVFUPZKENA-O
     RDKit          3D

 49 52  0  0  0  0  0  0  0  0999 V2000
  135.5355   70.1777  222.7412 H   0  0  0  0  0  0  0  0  0  0  0  0
  135.8560   69.3400  223.3780 C   0  0  0  0  0  0  0  0  0  0  0  0
  137.1130   68.8960  223.2720 C   0  0  0  0  0  0  0  0  0  0  0  0
  137.3656   68.1932  222.4644 H   0  0  0  0  0  0  0  0  0  0  0  0
  138.1710   69.3230  224.2090 C   0  0  0  0  0  0  0  0  0  0  0  0
  138.4200   68.5050  225.2640 N   0  0  0  0  0  0  0  0  0  0  0  0
  139.3660   68.7960  226.1860 C   0  0  0  0  0  0  0  0  0  0  0  0
  139.5970   67.9190  227.2530 C   0  0  0  0  0  0  0  0  0  0  0  0
  139.0063   66.9955  227.3435 H   0  0  0  0  0  0  0  0  0  0  0  0
  140.5780   68.2170  228.2030 C   0  0  0  0  0  0  0  0  0  0  0  0
  140.7577   67.5278  229.0412 H   0  0  0  0  0  0  0  0  0  0  0  0
  141.3310   69.3890  228.0900 C   0  0  0  0  0  0  0  0  0  0  0  0
  142.1032   69.6193  228.8387 H   0  0  0  0  0  0  0  0  0  0  0  0
  141.1050   70.2700  227.0270 C   0  0  0  0  0  0  0  0  0  0  0  0
  141.6993   71.1917  226.9414 H   0  0  0  0  0  0  0  0  0  0  0  0
  140.1170   69.9780  226.0660 C   0  0  0  0  0  0  0  0  0  0  0  0
  139.8400   70.8340  224.9870 C   0  0  0  0  0  0  0  0  0  0  0  0
  140.4940   71.9090  224.8650 O   0  0  0  0  0  0  0  0  0  0  0  0
  138.8610   70.5120  224.0750 N   0  0  0  0  0  0  0  0  0  0  0  0
  138.5570   71.4660  222.9860 C   0  0  0  0  0  0  0  0  0  0  0  0
  137.6104   71.1755  222.5069 H   0  0  0  0  0  0  0  0  0  0  0  0
  138.4771   72.4753  223.4160 H   0  0  0  0  0  0  0  0  0  0  0  0
  139.6800   71.4700  221.9250 C   0  0  0  0  0  0  0  0  0  0  0  0
  140.2290   70.5189  221.9890 H   0  0  0  0  0  0  0  0  0  0  0  0
  139.2081   71.5996  220.9398 H   0  0  0  0  0  0  0  0  0  0  0  0
  140.6410   72.5890  222.1160 N   0  0  0  0  0  0  0  0  0  0  0  0
  140.9800   72.5530  223.1080 H   0  0  0  0  0  0  0  0  0  0  0  0
  139.9850   73.9060  221.9480 C   0  0  0  0  0  0  0  0  0  0  0  0
  139.0180   73.8922  222.4721 H   0  0  0  0  0  0  0  0  0  0  0  0
  140.6490   74.6763  222.3671 H   0  0  0  0  0  0  0  0  0  0  0  0
  139.7440   74.2350  220.4660 C   0  0  0  0  0  0  0  0  0  0  0  0
  139.0543   73.4922  220.0388 H   0  0  0  0  0  0  0  0  0  0  0  0
  139.3112   75.2437  220.3936 H   0  0  0  0  0  0  0  0  0  0  0  0
  140.9580   74.2090  219.7450 O   0  0  0  0  0  0  0  0  0  0  0  0
  141.5060   72.9070  219.7860 C   0  0  0  0  0  0  0  0  0  0  0  0
  140.7809   72.1977  219.3604 H   0  0  0  0  0  0  0  0  0  0  0  0
  142.4387   72.9002  219.2028 H   0  0  0  0  0  0  0  0  0  0  0  0
  141.8280   72.4910  221.2320 C   0  0  0  0  0  0  0  0  0  0  0  0
  142.1851   71.4506  221.2310 H   0  0  0  0  0  0  0  0  0  0  0  0
  142.5972   73.1754  221.6191 H   0  0  0  0  0  0  0  0  0  0  0  0
  134.8820   68.7490  224.3170 C   0  0  0  0  0  0  0  0  0  0  0  0
  134.2950   67.5480  224.0560 N   0  0  0  0  0  0  0  0  0  0  0  0
  133.4010   66.9940  224.9160 C   0  0  0  0  0  0  0  0  0  0  0  0
  132.9364   66.0242  224.6845 H   0  0  0  0  0  0  0  0  0  0  0  0
  133.0770   67.6660  226.0960 C   0  0  0  0  0  0  0  0  0  0  0  0
  132.3563   67.2296  226.8032 H   0  0  0  0  0  0  0  0  0  0  0  0
  133.6600   68.8640  226.3630 N   0  0  0  0  0  0  0  0  0  0  0  0
  134.5530   69.4200  225.5020 C   0  0  0  0  0  0  0  0  0  0  0  0
  135.0146   70.3911  225.7343 H   0  0  0  0  0  0  0  0  0  0  0  0
  1  2  1  0
  2  3  2  0
  3  4  1  0
  3  5  1  0
  5  6  2  0
  6  7  1  0
  7  8  2  0
  8  9  1  0
  8 10  1  0
 10 11  1  0
 10 12  2  0
 12 13  1  0
 12 14  1  0
 14 15  1  0
 14 16  2  0
 16 17  1  0
 17 18  2  0
 17 19  1  0
 19 20  1  0
 20 21  1  0
 20 22  1  0
 20 23  1  0
 23 24  1  0
 23 25  1  0
 23 26  1  0
 26 27  1  0
 26 28  1  0
 28 29  1  0
 28 30  1  0
 28 31  1  0
 31 32  1  0
 31 33  1  0
 31 34  1  0
 34 35  1  0
 35 36  1  0
 35 37  1  0
 35 38  1  0
 38 39  1  0
 38 40  1  0
  2 41  1  0
 41 42  2  0
 42 43  1  0
 43 44  1  0
 43 45  2  0
 45 46  1  0
 45 47  1  0
 47 48  2  0
 48 49  1  0
 19  5  1  0
 38 26  1  0
 48 41  1  0
 16  7  1  0
M  CHG  1  26   1
M  END
>  <UniqueID>  (13) 
506

>  <SMILES>  (13) 
O=c1c2ccccc2nc(/C=C/c2cnccn2)n1CC[NH+]1CCOCC1

>  <Energy>  (13) 
73.88275030105541

>  <Genealogy>  (13) 
O=c1c2ccccc2nc(/C=C/c2cnccn2)n1CC[NH+]1CCOCC1 (protonated)
O=c1c2ccccc2nc(/C=C/c2cnccn2)n1CC[NH+]1CCOCC1 (cis-trans isomerization)
O=c1c2ccccc2nc(/C=C/c2cnccn2)n1CC[NH+]1CCOCC1 (3D coordinates assigned)
O=c1c2ccccc2nc(/C=C/c2cnccn2)n1CC[NH+]1CCOCC1 (nonaromatic ring conformer: 73.88275030105541 kcal/mol)

>  <smiles>  (13) 
O=c1c2ccccc2nc(/C=C/c2cnccn2)n1CCN1CCOCC1

>  <score_type>  (13) 
oracle

>  <origin>  (13) 
autodockgpu

>  <m_score__min__energy>  (13) 
-6.6699999999999999

>  <m_primary>  (13) 
energy

>  <meeko>  (13) 
{"free_energy": -6.35, "intermolecular_energy": -8.14, "internal_energy": -1.79, "cluster_size": 7, "cluster_id": 1, "rank_in_cluster": 3}

>  <energy>  (13) 
-6.53

>  <cluster_rmsd>  (13) 
0.73

>  <rmsd>  (13) 
271.26

>  <cluster>  (13) 
2

$$$$
OQAGMIVLLKVZIV-DVFUPZKENA-O
     RDKit          3D

 49 52  0  0  0  0  0  0  0  0999 V2000
  136.1368   68.2275  221.9357 H   0  0  0  0  0  0  0  0  0  0  0  0
  136.6290   68.5930  222.8490 C   0  0  0  0  0  0  0  0  0  0  0  0
  137.9490   68.4220  222.9800 C   0  0  0  0  0  0  0  0  0  0  0  0
  138.4431   67.6191  222.4133 H   0  0  0  0  0  0  0  0  0  0  0  0
  138.7610   69.2810  223.8640 C   0  0  0  0  0  0  0  0  0  0  0  0
  138.8560   68.9050  225.1650 N   0  0  0  0  0  0  0  0  0  0  0  0
  139.5720   69.6160  226.0660 C   0  0  0  0  0  0  0  0  0  0  0  0
  139.6510   69.1850  227.3950 C   0  0  0  0  0  0  0  0  0  0  0  0
  139.1268   68.2702  227.7086 H   0  0  0  0  0  0  0  0  0  0  0  0
  140.3960   69.9170  228.3240 C   0  0  0  0  0  0  0  0  0  0  0  0
  140.4569   69.5776  229.3686 H   0  0  0  0  0  0  0  0  0  0  0  0
  141.0640   71.0800  227.9280 C   0  0  0  0  0  0  0  0  0  0  0  0
  141.6509   71.6529  228.6611 H   0  0  0  0  0  0  0  0  0  0  0  0
  140.9870   71.5160  226.6010 C   0  0  0  0  0  0  0  0  0  0  0  0
  141.5127   72.4318  226.2928 H   0  0  0  0  0  0  0  0  0  0  0  0
  140.2380   70.7850  225.6590 C   0  0  0  0  0  0  0  0  0  0  0  0
  140.1180   71.1860  224.3180 C   0  0  0  0  0  0  0  0  0  0  0  0
  140.6980   72.2400  223.9320 O   0  0  0  0  0  0  0  0  0  0  0  0
  139.3690   70.4440  223.4330 N   0  0  0  0  0  0  0  0  0  0  0  0
  139.2170   70.9290  222.0440 C   0  0  0  0  0  0  0  0  0  0  0  0
  140.1988   71.2501  221.6658 H   0  0  0  0  0  0  0  0  0  0  0  0
  138.8158   70.1099  221.4291 H   0  0  0  0  0  0  0  0  0  0  0  0
  138.2360   72.1200  221.9770 C   0  0  0  0  0  0  0  0  0  0  0  0
  137.7341   72.1084  220.9982 H   0  0  0  0  0  0  0  0  0  0  0  0
  137.5178   72.0070  222.8025 H   0  0  0  0  0  0  0  0  0  0  0  0
  138.9160   73.4310  222.1480 N   0  0  0  0  0  0  0  0  0  0  0  0
  139.2360   73.4970  223.1440 H   0  0  0  0  0  0  0  0  0  0  0  0
  137.9830   74.5610  221.9350 C   0  0  0  0  0  0  0  0  0  0  0  0
  137.0346   74.3418  222.4474 H   0  0  0  0  0  0  0  0  0  0  0  0
  138.4486   75.4714  222.3404 H   0  0  0  0  0  0  0  0  0  0  0  0
  137.7010   74.7910  220.4420 C   0  0  0  0  0  0  0  0  0  0  0  0
  137.2033   73.9019  220.0275 H   0  0  0  0  0  0  0  0  0  0  0  0
  137.0544   75.6746  220.3364 H   0  0  0  0  0  0  0  0  0  0  0  0
  138.9030   75.0210  219.7360 O   0  0  0  0  0  0  0  0  0  0  0  0
  139.7290   73.8780  219.8210 C   0  0  0  0  0  0  0  0  0  0  0  0
  139.1902   73.0131  219.4067 H   0  0  0  0  0  0  0  0  0  0  0  0
  140.6499   74.0677  219.2500 H   0  0  0  0  0  0  0  0  0  0  0  0
  140.1100   73.5810  221.2810 C   0  0  0  0  0  0  0  0  0  0  0  0
  140.6917   72.6479  221.3133 H   0  0  0  0  0  0  0  0  0  0  0  0
  140.6986   74.4305  221.6578 H   0  0  0  0  0  0  0  0  0  0  0  0
  135.8070   69.2530  223.8820 C   0  0  0  0  0  0  0  0  0  0  0  0
  135.0250   68.5260  224.7280 N   0  0  0  0  0  0  0  0  0  0  0  0
  134.2690   69.1240  225.6850 C   0  0  0  0  0  0  0  0  0  0  0  0
  133.6432   68.5180  226.3566 H   0  0  0  0  0  0  0  0  0  0  0  0
  134.2930   70.5150  225.8090 C   0  0  0  0  0  0  0  0  0  0  0  0
  133.6870   71.0142  226.5794 H   0  0  0  0  0  0  0  0  0  0  0  0
  135.0720   71.2460  224.9690 N   0  0  0  0  0  0  0  0  0  0  0  0
  135.8270   70.6480  224.0100 C   0  0  0  0  0  0  0  0  0  0  0  0
  136.4504   71.2561  223.3379 H   0  0  0  0  0  0  0  0  0  0  0  0
  1  2  1  0
  2  3  2  0
  3  4  1  0
  3  5  1  0
  5  6  2  0
  6  7  1  0
  7  8  2  0
  8  9  1  0
  8 10  1  0
 10 11  1  0
 10 12  2  0
 12 13  1  0
 12 14  1  0
 14 15  1  0
 14 16  2  0
 16 17  1  0
 17 18  2  0
 17 19  1  0
 19 20  1  0
 20 21  1  0
 20 22  1  0
 20 23  1  0
 23 24  1  0
 23 25  1  0
 23 26  1  0
 26 27  1  0
 26 28  1  0
 28 29  1  0
 28 30  1  0
 28 31  1  0
 31 32  1  0
 31 33  1  0
 31 34  1  0
 34 35  1  0
 35 36  1  0
 35 37  1  0
 35 38  1  0
 38 39  1  0
 38 40  1  0
  2 41  1  0
 41 42  2  0
 42 43  1  0
 43 44  1  0
 43 45  2  0
 45 46  1  0
 45 47  1  0
 47 48  2  0
 48 49  1  0
 19  5  1  0
 38 26  1  0
 48 41  1  0
 16  7  1  0
M  CHG  1  26   1
M  END
>  <UniqueID>  (14) 
506

>  <SMILES>  (14) 
O=c1c2ccccc2nc(/C=C/c2cnccn2)n1CC[NH+]1CCOCC1

>  <Energy>  (14) 
73.88275030105541

>  <Genealogy>  (14) 
O=c1c2ccccc2nc(/C=C/c2cnccn2)n1CC[NH+]1CCOCC1 (protonated)
O=c1c2ccccc2nc(/C=C/c2cnccn2)n1CC[NH+]1CCOCC1 (cis-trans isomerization)
O=c1c2ccccc2nc(/C=C/c2cnccn2)n1CC[NH+]1CCOCC1 (3D coordinates assigned)
O=c1c2ccccc2nc(/C=C/c2cnccn2)n1CC[NH+]1CCOCC1 (nonaromatic ring conformer: 73.88275030105541 kcal/mol)

>  <smiles>  (14) 
O=c1c2ccccc2nc(/C=C/c2cnccn2)n1CCN1CCOCC1

>  <score_type>  (14) 
oracle

>  <origin>  (14) 
autodockgpu

>  <m_score__min__energy>  (14) 
-6.6699999999999999

>  <m_primary>  (14) 
energy

>  <meeko>  (14) 
{"free_energy": -6.2, "intermolecular_energy": -7.99, "internal_energy": -2.11, "cluster_size": 7, "cluster_id": 1, "rank_in_cluster": 5}

>  <energy>  (14) 
-6.52

>  <cluster_rmsd>  (14) 
0.18

>  <rmsd>  (14) 
271.26

>  <cluster>  (14) 
2

$$$$
OQAGMIVLLKVZIV-DVFUPZKENA-O
     RDKit          3D

 49 52  0  0  0  0  0  0  0  0999 V2000
  136.1935   68.2036  221.9766 H   0  0  0  0  0  0  0  0  0  0  0  0
  136.6490   68.5500  222.9160 C   0  0  0  0  0  0  0  0  0  0  0  0
  137.9600   68.3640  223.1010 C   0  0  0  0  0  0  0  0  0  0  0  0
  138.4503   67.5023  222.6245 H   0  0  0  0  0  0  0  0  0  0  0  0
  138.7680   69.2830  223.9270 C   0  0  0  0  0  0  0  0  0  0  0  0
  138.8760   68.9840  225.2470 N   0  0  0  0  0  0  0  0  0  0  0  0
  139.5900   69.7550  226.0990 C   0  0  0  0  0  0  0  0  0  0  0  0
  139.6830   69.4050  227.4510 C   0  0  0  0  0  0  0  0  0  0  0  0
  139.1718   68.5044  227.8220 H   0  0  0  0  0  0  0  0  0  0  0  0
  140.4250   70.1990  228.3300 C   0  0  0  0  0  0  0  0  0  0  0  0
  140.4969   69.9226  229.3923 H   0  0  0  0  0  0  0  0  0  0  0  0
  141.0760   71.3440  227.8610 C   0  0  0  0  0  0  0  0  0  0  0  0
  141.6612   71.9655  228.5548 H   0  0  0  0  0  0  0  0  0  0  0  0
  140.9850   71.7010  226.5120 C   0  0  0  0  0  0  0  0  0  0  0  0
  141.4975   72.6034  226.1472 H   0  0  0  0  0  0  0  0  0  0  0  0
  140.2380   70.9070  225.6190 C   0  0  0  0  0  0  0  0  0  0  0  0
  140.1050   71.2270  224.2580 C   0  0  0  0  0  0  0  0  0  0  0  0
  140.6690   72.2630  223.8060 O   0  0  0  0  0  0  0  0  0  0  0  0
  139.3590   70.4250  223.4230 N   0  0  0  0  0  0  0  0  0  0  0  0
  139.1910   70.8260  222.0100 C   0  0  0  0  0  0  0  0  0  0  0  0
  140.1483   71.2117  221.6295 H   0  0  0  0  0  0  0  0  0  0  0  0
  138.8723   69.9460  221.4321 H   0  0  0  0  0  0  0  0  0  0  0  0
  138.1130   71.9230  221.8690 C   0  0  0  0  0  0  0  0  0  0  0  0
  137.6884   71.8715  220.8556 H   0  0  0  0  0  0  0  0  0  0  0  0
  137.3489   71.7401  222.6388 H   0  0  0  0  0  0  0  0  0  0  0  0
  138.6560   73.2900  222.0890 N   0  0  0  0  0  0  0  0  0  0  0  0
  138.9560   73.3570  223.0910 H   0  0  0  0  0  0  0  0  0  0  0  0
  137.6180   74.3270  221.8940 C   0  0  0  0  0  0  0  0  0  0  0  0
  136.6899   73.9991  222.3851 H   0  0  0  0  0  0  0  0  0  0  0  0
  137.9855   75.2665  222.3324 H   0  0  0  0  0  0  0  0  0  0  0  0
  137.3330   74.5730  220.4050 C   0  0  0  0  0  0  0  0  0  0  0  0
  136.9320   73.6518  219.9571 H   0  0  0  0  0  0  0  0  0  0  0  0
  136.6025   75.3905  220.3152 H   0  0  0  0  0  0  0  0  0  0  0  0
  138.5140   74.9430  219.7250 O   0  0  0  0  0  0  0  0  0  0  0  0
  139.4500   73.8860  219.7880 C   0  0  0  0  0  0  0  0  0  0  0  0
  139.0062   72.9848  219.3398 H   0  0  0  0  0  0  0  0  0  0  0  0
  140.3541   74.1840  219.2368 H   0  0  0  0  0  0  0  0  0  0  0  0
  139.8400   73.5840  221.2450 C   0  0  0  0  0  0  0  0  0  0  0  0
  140.5113   72.7127  221.2594 H   0  0  0  0  0  0  0  0  0  0  0  0
  140.3359   74.4760  221.6553 H   0  0  0  0  0  0  0  0  0  0  0  0
  135.7890   69.2020  223.9230 C   0  0  0  0  0  0  0  0  0  0  0  0
  134.9470   68.4710  224.7060 N   0  0  0  0  0  0  0  0  0  0  0  0
  134.1550   69.0610  225.6390 C   0  0  0  0  0  0  0  0  0  0  0  0
  133.4805   68.4526  226.2595 H   0  0  0  0  0  0  0  0  0  0  0  0
  134.2050   70.4460  225.8030 C   0  0  0  0  0  0  0  0  0  0  0  0
  133.5712   70.9386  226.5551 H   0  0  0  0  0  0  0  0  0  0  0  0
  135.0430   71.1810  225.0260 N   0  0  0  0  0  0  0  0  0  0  0  0
  135.8340   70.5920  224.0910 C   0  0  0  0  0  0  0  0  0  0  0  0
  136.5055   71.2030  223.4699 H   0  0  0  0  0  0  0  0  0  0  0  0
  1  2  1  0
  2  3  2  0
  3  4  1  0
  3  5  1  0
  5  6  2  0
  6  7  1  0
  7  8  2  0
  8  9  1  0
  8 10  1  0
 10 11  1  0
 10 12  2  0
 12 13  1  0
 12 14  1  0
 14 15  1  0
 14 16  2  0
 16 17  1  0
 17 18  2  0
 17 19  1  0
 19 20  1  0
 20 21  1  0
 20 22  1  0
 20 23  1  0
 23 24  1  0
 23 25  1  0
 23 26  1  0
 26 27  1  0
 26 28  1  0
 28 29  1  0
 28 30  1  0
 28 31  1  0
 31 32  1  0
 31 33  1  0
 31 34  1  0
 34 35  1  0
 35 36  1  0
 35 37  1  0
 35 38  1  0
 38 39  1  0
 38 40  1  0
  2 41  1  0
 41 42  2  0
 42 43  1  0
 43 44  1  0
 43 45  2  0
 45 46  1  0
 45 47  1  0
 47 48  2  0
 48 49  1  0
 19  5  1  0
 38 26  1  0
 48 41  1  0
 16  7  1  0
M  CHG  1  26   1
M  END
>  <UniqueID>  (15) 
506

>  <SMILES>  (15) 
O=c1c2ccccc2nc(/C=C/c2cnccn2)n1CC[NH+]1CCOCC1

>  <Energy>  (15) 
73.88275030105541

>  <Genealogy>  (15) 
O=c1c2ccccc2nc(/C=C/c2cnccn2)n1CC[NH+]1CCOCC1 (protonated)
O=c1c2ccccc2nc(/C=C/c2cnccn2)n1CC[NH+]1CCOCC1 (cis-trans isomerization)
O=c1c2ccccc2nc(/C=C/c2cnccn2)n1CC[NH+]1CCOCC1 (3D coordinates assigned)
O=c1c2ccccc2nc(/C=C/c2cnccn2)n1CC[NH+]1CCOCC1 (nonaromatic ring conformer: 73.88275030105541 kcal/mol)

>  <smiles>  (15) 
O=c1c2ccccc2nc(/C=C/c2cnccn2)n1CCN1CCOCC1

>  <score_type>  (15) 
oracle

>  <origin>  (15) 
autodockgpu

>  <m_score__min__energy>  (15) 
-6.6699999999999999

>  <m_primary>  (15) 
energy

>  <meeko>  (15) 
{"free_energy": -6.22, "intermolecular_energy": -8.01, "internal_energy": -2.09, "cluster_size": 7, "cluster_id": 1, "rank_in_cluster": 4}

>  <energy>  (15) 
-6.37

>  <cluster_rmsd>  (15) 
0.57

>  <rmsd>  (15) 
271.23

>  <cluster>  (15) 
2

$$$$
OQAGMIVLLKVZIV-DVFUPZKENA-O
     RDKit          3D

 49 52  0  0  0  0  0  0  0  0999 V2000
  137.9123   72.4431  221.6793 H   0  0  0  0  0  0  0  0  0  0  0  0
  138.9550   72.6860  221.9320 C   0  0  0  0  0  0  0  0  0  0  0  0
  139.8030   71.6860  222.1940 C   0  0  0  0  0  0  0  0  0  0  0  0
  140.5122   71.3686  221.4154 H   0  0  0  0  0  0  0  0  0  0  0  0
  139.8140   70.9960  223.4990 C   0  0  0  0  0  0  0  0  0  0  0  0
  140.3730   71.6640  224.5410 N   0  0  0  0  0  0  0  0  0  0  0  0
  140.4390   71.1300  225.7810 C   0  0  0  0  0  0  0  0  0  0  0  0
  141.0150   71.8580  226.8290 C   0  0  0  0  0  0  0  0  0  0  0  0
  141.4184   72.8642  226.6422 H   0  0  0  0  0  0  0  0  0  0  0  0
  141.0780   71.3080  228.1120 C   0  0  0  0  0  0  0  0  0  0  0  0
  141.5308   71.8817  228.9341 H   0  0  0  0  0  0  0  0  0  0  0  0
  140.5660   70.0290  228.3520 C   0  0  0  0  0  0  0  0  0  0  0  0
  140.6165   69.5986  229.3630 H   0  0  0  0  0  0  0  0  0  0  0  0
  139.9900   69.2960  227.3100 C   0  0  0  0  0  0  0  0  0  0  0  0
  139.5875   68.2907  227.5033 H   0  0  0  0  0  0  0  0  0  0  0  0
  139.9240   69.8420  226.0130 C   0  0  0  0  0  0  0  0  0  0  0  0
  139.3680   69.1430  224.9300 C   0  0  0  0  0  0  0  0  0  0  0  0
  138.9090   67.9800  225.1110 O   0  0  0  0  0  0  0  0  0  0  0  0
  139.3300   69.7140  223.6770 N   0  0  0  0  0  0  0  0  0  0  0  0
  138.7910   68.9250  222.5480 C   0  0  0  0  0  0  0  0  0  0  0  0
  139.3252   69.2028  221.6274 H   0  0  0  0  0  0  0  0  0  0  0  0
  138.9324   67.8565  222.7677 H   0  0  0  0  0  0  0  0  0  0  0  0
  137.2820   69.1930  222.3570 C   0  0  0  0  0  0  0  0  0  0  0  0
  137.1597   70.0917  221.7346 H   0  0  0  0  0  0  0  0  0  0  0  0
  136.8437   68.3052  221.8777 H   0  0  0  0  0  0  0  0  0  0  0  0
  136.5720   69.4060  223.6460 N   0  0  0  0  0  0  0  0  0  0  0  0
  137.0720   68.8520  224.3810 H   0  0  0  0  0  0  0  0  0  0  0  0
  135.1880   68.8820  223.5990 C   0  0  0  0  0  0  0  0  0  0  0  0
  135.1965   67.8963  223.1108 H   0  0  0  0  0  0  0  0  0  0  0  0
  134.8144   68.8078  224.6310 H   0  0  0  0  0  0  0  0  0  0  0  0
  134.2520   69.8170  222.8170 C   0  0  0  0  0  0  0  0  0  0  0  0
  134.5910   69.8759  221.7722 H   0  0  0  0  0  0  0  0  0  0  0  0
  133.2295   69.4142  222.8647 H   0  0  0  0  0  0  0  0  0  0  0  0
  134.2560   71.1120  223.3790 O   0  0  0  0  0  0  0  0  0  0  0  0
  135.5520   71.6670  223.2870 C   0  0  0  0  0  0  0  0  0  0  0  0
  135.8559   71.6987  222.2303 H   0  0  0  0  0  0  0  0  0  0  0  0
  135.5305   72.6815  223.7116 H   0  0  0  0  0  0  0  0  0  0  0  0
  136.5680   70.8250  224.0780 C   0  0  0  0  0  0  0  0  0  0  0  0
  137.5729   71.2454  223.9249 H   0  0  0  0  0  0  0  0  0  0  0  0
  136.2805   70.8555  225.1393 H   0  0  0  0  0  0  0  0  0  0  0  0
  139.3650   74.1040  221.9690 C   0  0  0  0  0  0  0  0  0  0  0  0
  140.6810   74.4550  221.9500 N   0  0  0  0  0  0  0  0  0  0  0  0
  141.0680   75.7570  221.9790 C   0  0  0  0  0  0  0  0  0  0  0  0
  142.1363   76.0189  221.9648 H   0  0  0  0  0  0  0  0  0  0  0  0
  140.0970   76.7600  222.0270 C   0  0  0  0  0  0  0  0  0  0  0  0
  140.3941   77.8189  222.0492 H   0  0  0  0  0  0  0  0  0  0  0  0
  138.7830   76.4170  222.0460 N   0  0  0  0  0  0  0  0  0  0  0  0
  138.3950   75.1140  222.0190 C   0  0  0  0  0  0  0  0  0  0  0  0
  137.3262   74.8544  222.0363 H   0  0  0  0  0  0  0  0  0  0  0  0
  1  2  1  0
  2  3  2  0
  3  4  1  0
  3  5  1  0
  5  6  2  0
  6  7  1  0
  7  8  2  0
  8  9  1  0
  8 10  1  0
 10 11  1  0
 10 12  2  0
 12 13  1  0
 12 14  1  0
 14 15  1  0
 14 16  2  0
 16 17  1  0
 17 18  2  0
 17 19  1  0
 19 20  1  0
 20 21  1  0
 20 22  1  0
 20 23  1  0
 23 24  1  0
 23 25  1  0
 23 26  1  0
 26 27  1  0
 26 28  1  0
 28 29  1  0
 28 30  1  0
 28 31  1  0
 31 32  1  0
 31 33  1  0
 31 34  1  0
 34 35  1  0
 35 36  1  0
 35 37  1  0
 35 38  1  0
 38 39  1  0
 38 40  1  0
  2 41  1  0
 41 42  2  0
 42 43  1  0
 43 44  1  0
 43 45  2  0
 45 46  1  0
 45 47  1  0
 47 48  2  0
 48 49  1  0
 19  5  1  0
 38 26  1  0
 48 41  1  0
 16  7  1  0
M  CHG  1  26   1
M  END
>  <UniqueID>  (16) 
506

>  <SMILES>  (16) 
O=c1c2ccccc2nc(/C=C/c2cnccn2)n1CC[NH+]1CCOCC1

>  <Energy>  (16) 
73.88275030105541

>  <Genealogy>  (16) 
O=c1c2ccccc2nc(/C=C/c2cnccn2)n1CC[NH+]1CCOCC1 (protonated)
O=c1c2ccccc2nc(/C=C/c2cnccn2)n1CC[NH+]1CCOCC1 (cis-trans isomerization)
O=c1c2ccccc2nc(/C=C/c2cnccn2)n1CC[NH+]1CCOCC1 (3D coordinates assigned)
O=c1c2ccccc2nc(/C=C/c2cnccn2)n1CC[NH+]1CCOCC1 (nonaromatic ring conformer: 73.88275030105541 kcal/mol)

>  <smiles>  (16) 
O=c1c2ccccc2nc(/C=C/c2cnccn2)n1CCN1CCOCC1

>  <score_type>  (16) 
oracle

>  <origin>  (16) 
autodockgpu

>  <m_score__min__energy>  (16) 
-6.6699999999999999

>  <m_primary>  (16) 
energy

>  <meeko>  (16) 
{"free_energy": -6.53, "intermolecular_energy": -8.32, "internal_energy": -2.01, "cluster_size": 11, "cluster_id": 2, "rank_in_cluster": 5}

>  <energy>  (16) 
-6.33

>  <cluster_rmsd>  (16) 
0.73

>  <rmsd>  (16) 
271.16

>  <cluster>  (16) 
2

$$$$
OQAGMIVLLKVZIV-DVFUPZKENA-O
     RDKit          3D

 49 52  0  0  0  0  0  0  0  0999 V2000
  135.8455   68.4918  221.8701 H   0  0  0  0  0  0  0  0  0  0  0  0
  136.3220   68.6490  222.8490 C   0  0  0  0  0  0  0  0  0  0  0  0
  137.6430   68.4730  222.9560 C   0  0  0  0  0  0  0  0  0  0  0  0
  138.1083   67.6055  222.4651 H   0  0  0  0  0  0  0  0  0  0  0  0
  138.4950   69.4110  223.7150 C   0  0  0  0  0  0  0  0  0  0  0  0
  138.6840   69.1370  225.0320 N   0  0  0  0  0  0  0  0  0  0  0  0
  139.4430   69.9270  225.8250 C   0  0  0  0  0  0  0  0  0  0  0  0
  139.6200   69.6010  227.1750 C   0  0  0  0  0  0  0  0  0  0  0  0
  139.1373   68.7049  227.5921 H   0  0  0  0  0  0  0  0  0  0  0  0
  140.4100   70.4140  227.9930 C   0  0  0  0  0  0  0  0  0  0  0  0
  140.5482   70.1568  229.0535 H   0  0  0  0  0  0  0  0  0  0  0  0
  141.0250   71.5540  227.4650 C   0  0  0  0  0  0  0  0  0  0  0  0
  141.6466   72.1914  228.1110 H   0  0  0  0  0  0  0  0  0  0  0  0
  140.8510   71.8850  226.1170 C   0  0  0  0  0  0  0  0  0  0  0  0
  141.3362   72.7822  225.7052 H   0  0  0  0  0  0  0  0  0  0  0  0
  140.0560   71.0720  225.2860 C   0  0  0  0  0  0  0  0  0  0  0  0
  139.8390   71.3660  223.9300 C   0  0  0  0  0  0  0  0  0  0  0  0
  140.3700   72.3960  223.4260 O   0  0  0  0  0  0  0  0  0  0  0  0
  139.0480   70.5460  223.1560 N   0  0  0  0  0  0  0  0  0  0  0  0
  138.7940   70.9200  221.7480 C   0  0  0  0  0  0  0  0  0  0  0  0
  139.6357   71.5244  221.3787 H   0  0  0  0  0  0  0  0  0  0  0  0
  138.6908   70.0001  221.1538 H   0  0  0  0  0  0  0  0  0  0  0  0
  137.4900   71.7380  221.6200 C   0  0  0  0  0  0  0  0  0  0  0  0
  137.3259   71.9759  220.5586 H   0  0  0  0  0  0  0  0  0  0  0  0
  136.6717   71.1276  222.0297 H   0  0  0  0  0  0  0  0  0  0  0  0
  137.5350   73.0090  222.3920 N   0  0  0  0  0  0  0  0  0  0  0  0
  138.2590   72.9000  223.1430 H   0  0  0  0  0  0  0  0  0  0  0  0
  136.2530   73.2720  223.0830 C   0  0  0  0  0  0  0  0  0  0  0  0
  135.8991   72.3384  223.5447 H   0  0  0  0  0  0  0  0  0  0  0  0
  136.4269   74.0475  223.8435 H   0  0  0  0  0  0  0  0  0  0  0  0
  135.1780   73.7860  222.1130 C   0  0  0  0  0  0  0  0  0  0  0  0
  134.9660   73.0086  221.3642 H   0  0  0  0  0  0  0  0  0  0  0  0
  134.2691   74.0225  222.6857 H   0  0  0  0  0  0  0  0  0  0  0  0
  135.6170   74.9560  221.4550 O   0  0  0  0  0  0  0  0  0  0  0  0
  136.7600   74.6630  220.6770 C   0  0  0  0  0  0  0  0  0  0  0  0
  136.5085   73.8766  219.9502 H   0  0  0  0  0  0  0  0  0  0  0  0
  137.0756   75.5803  220.1584 H   0  0  0  0  0  0  0  0  0  0  0  0
  137.9200   74.1770  221.5630 C   0  0  0  0  0  0  0  0  0  0  0  0
  138.7641   73.8917  220.9179 H   0  0  0  0  0  0  0  0  0  0  0  0
  138.1966   74.9980  222.2408 H   0  0  0  0  0  0  0  0  0  0  0  0
  135.4780   69.0460  223.9930 C   0  0  0  0  0  0  0  0  0  0  0  0
  134.6510   68.1490  224.6000 N   0  0  0  0  0  0  0  0  0  0  0  0
  133.8740   68.5030  225.6560 C   0  0  0  0  0  0  0  0  0  0  0  0
  133.2112   67.7639  226.1298 H   0  0  0  0  0  0  0  0  0  0  0  0
  133.9240   69.8140  226.1350 C   0  0  0  0  0  0  0  0  0  0  0  0
  133.3023   70.1160  226.9907 H   0  0  0  0  0  0  0  0  0  0  0  0
  134.7470   70.7130  225.5350 N   0  0  0  0  0  0  0  0  0  0  0  0
  135.5240   70.3600  224.4770 C   0  0  0  0  0  0  0  0  0  0  0  0
  136.1847   71.1013  224.0038 H   0  0  0  0  0  0  0  0  0  0  0  0
  1  2  1  0
  2  3  2  0
  3  4  1  0
  3  5  1  0
  5  6  2  0
  6  7  1  0
  7  8  2  0
  8  9  1  0
  8 10  1  0
 10 11  1  0
 10 12  2  0
 12 13  1  0
 12 14  1  0
 14 15  1  0
 14 16  2  0
 16 17  1  0
 17 18  2  0
 17 19  1  0
 19 20  1  0
 20 21  1  0
 20 22  1  0
 20 23  1  0
 23 24  1  0
 23 25  1  0
 23 26  1  0
 26 27  1  0
 26 28  1  0
 28 29  1  0
 28 30  1  0
 28 31  1  0
 31 32  1  0
 31 33  1  0
 31 34  1  0
 34 35  1  0
 35 36  1  0
 35 37  1  0
 35 38  1  0
 38 39  1  0
 38 40  1  0
  2 41  1  0
 41 42  2  0
 42 43  1  0
 43 44  1  0
 43 45  2  0
 45 46  1  0
 45 47  1  0
 47 48  2  0
 48 49  1  0
 19  5  1  0
 38 26  1  0
 48 41  1  0
 16  7  1  0
M  CHG  1  26   1
M  END
>  <UniqueID>  (17) 
506

>  <SMILES>  (17) 
O=c1c2ccccc2nc(/C=C/c2cnccn2)n1CC[NH+]1CCOCC1

>  <Energy>  (17) 
73.88275030105541

>  <Genealogy>  (17) 
O=c1c2ccccc2nc(/C=C/c2cnccn2)n1CC[NH+]1CCOCC1 (protonated)
O=c1c2ccccc2nc(/C=C/c2cnccn2)n1CC[NH+]1CCOCC1 (cis-trans isomerization)
O=c1c2ccccc2nc(/C=C/c2cnccn2)n1CC[NH+]1CCOCC1 (3D coordinates assigned)
O=c1c2ccccc2nc(/C=C/c2cnccn2)n1CC[NH+]1CCOCC1 (nonaromatic ring conformer: 73.88275030105541 kcal/mol)

>  <smiles>  (17) 
O=c1c2ccccc2nc(/C=C/c2cnccn2)n1CCN1CCOCC1

>  <score_type>  (17) 
oracle

>  <origin>  (17) 
autodockgpu

>  <m_score__min__energy>  (17) 
-6.6699999999999999

>  <m_primary>  (17) 
energy

>  <meeko>  (17) 
{"free_energy": -6.06, "intermolecular_energy": -7.85, "internal_energy": -2.21, "cluster_size": 7, "cluster_id": 1, "rank_in_cluster": 6}

>  <energy>  (17) 
-6.32

>  <cluster_rmsd>  (17) 
0.73

>  <rmsd>  (17) 
271.15

>  <cluster>  (17) 
2

$$$$
OQAGMIVLLKVZIV-DVFUPZKENA-O
     RDKit          3D

 49 52  0  0  0  0  0  0  0  0999 V2000
  141.9907   71.8963  221.3781 H   0  0  0  0  0  0  0  0  0  0  0  0
  140.9860   72.2290  221.6780 C   0  0  0  0  0  0  0  0  0  0  0  0
  140.0770   71.3070  222.0120 C   0  0  0  0  0  0  0  0  0  0  0  0
  139.3818   70.9388  221.2432 H   0  0  0  0  0  0  0  0  0  0  0  0
  139.9800   70.7690  223.3840 C   0  0  0  0  0  0  0  0  0  0  0  0
  140.5530   71.5040  224.3710 N   0  0  0  0  0  0  0  0  0  0  0  0
  140.5270   71.1080  225.6640 C   0  0  0  0  0  0  0  0  0  0  0  0
  141.1220   71.9030  226.6520 C   0  0  0  0  0  0  0  0  0  0  0  0
  141.6149   72.8469  226.3760 H   0  0  0  0  0  0  0  0  0  0  0  0
  141.0890   71.4960  227.9890 C   0  0  0  0  0  0  0  0  0  0  0  0
  141.5567   72.1206  228.7644 H   0  0  0  0  0  0  0  0  0  0  0  0
  140.4630   70.2970  228.3430 C   0  0  0  0  0  0  0  0  0  0  0  0
  140.4379   69.9810  229.3963 H   0  0  0  0  0  0  0  0  0  0  0  0
  139.8690   69.4990  227.3610 C   0  0  0  0  0  0  0  0  0  0  0  0
  139.3779   68.5560  227.6430 H   0  0  0  0  0  0  0  0  0  0  0  0
  139.8980   69.9000  226.0110 C   0  0  0  0  0  0  0  0  0  0  0  0
  139.3270   69.1300  224.9840 C   0  0  0  0  0  0  0  0  0  0  0  0
  138.7660   68.0340  225.2700 O   0  0  0  0  0  0  0  0  0  0  0  0
  139.3850   69.5580  223.6770 N   0  0  0  0  0  0  0  0  0  0  0  0
  138.8260   68.6920  222.6160 C   0  0  0  0  0  0  0  0  0  0  0  0
  139.4135   68.8257  221.6957 H   0  0  0  0  0  0  0  0  0  0  0  0
  138.8740   67.6467  222.9550 H   0  0  0  0  0  0  0  0  0  0  0  0
  137.3500   69.0500  222.3300 C   0  0  0  0  0  0  0  0  0  0  0  0
  137.3220   69.8871  221.6170 H   0  0  0  0  0  0  0  0  0  0  0  0
  136.8622   68.1531  221.9207 H   0  0  0  0  0  0  0  0  0  0  0  0
  136.6110   69.4450  223.5580 N   0  0  0  0  0  0  0  0  0  0  0  0
  137.0440   68.9410  224.3680 H   0  0  0  0  0  0  0  0  0  0  0  0
  135.1960   69.0100  223.5050 C   0  0  0  0  0  0  0  0  0  0  0  0
  135.1540   67.9796  223.1222 H   0  0  0  0  0  0  0  0  0  0  0  0
  134.7806   69.0702  224.5218 H   0  0  0  0  0  0  0  0  0  0  0  0
  134.3570   69.9150  222.5910 C   0  0  0  0  0  0  0  0  0  0  0  0
  134.7376   69.8404  221.5617 H   0  0  0  0  0  0  0  0  0  0  0  0
  133.3081   69.5866  222.6359 H   0  0  0  0  0  0  0  0  0  0  0  0
  134.4290   71.2600  223.0150 O   0  0  0  0  0  0  0  0  0  0  0  0
  135.7640   71.7160  222.9220 C   0  0  0  0  0  0  0  0  0  0  0  0
  136.1074   71.6144  221.8819 H   0  0  0  0  0  0  0  0  0  0  0  0
  135.7978   72.7693  223.2373 H   0  0  0  0  0  0  0  0  0  0  0  0
  136.6900   70.8990  223.8400 C   0  0  0  0  0  0  0  0  0  0  0  0
  137.7266   71.2343  223.6879 H   0  0  0  0  0  0  0  0  0  0  0  0
  136.3673   71.0613  224.8790 H   0  0  0  0  0  0  0  0  0  0  0  0
  140.6940   73.6760  221.6960 C   0  0  0  0  0  0  0  0  0  0  0  0
  139.5850   74.1600  222.3230 N   0  0  0  0  0  0  0  0  0  0  0  0
  139.3100   75.4900  222.3490 C   0  0  0  0  0  0  0  0  0  0  0  0
  138.4083   75.8603  222.8587 H   0  0  0  0  0  0  0  0  0  0  0  0
  140.1820   76.3830  221.7230 C   0  0  0  0  0  0  0  0  0  0  0  0
  139.9737   77.4630  221.7366 H   0  0  0  0  0  0  0  0  0  0  0  0
  141.2900   75.9070  221.0970 N   0  0  0  0  0  0  0  0  0  0  0  0
  141.5650   74.5760  221.0690 C   0  0  0  0  0  0  0  0  0  0  0  0
  142.4663   74.2080  220.5569 H   0  0  0  0  0  0  0  0  0  0  0  0
  1  2  1  0
  2  3  2  0
  3  4  1  0
  3  5  1  0
  5  6  2  0
  6  7  1  0
  7  8  2  0
  8  9  1  0
  8 10  1  0
 10 11  1  0
 10 12  2  0
 12 13  1  0
 12 14  1  0
 14 15  1  0
 14 16  2  0
 16 17  1  0
 17 18  2  0
 17 19  1  0
 19 20  1  0
 20 21  1  0
 20 22  1  0
 20 23  1  0
 23 24  1  0
 23 25  1  0
 23 26  1  0
 26 27  1  0
 26 28  1  0
 28 29  1  0
 28 30  1  0
 28 31  1  0
 31 32  1  0
 31 33  1  0
 31 34  1  0
 34 35  1  0
 35 36  1  0
 35 37  1  0
 35 38  1  0
 38 39  1  0
 38 40  1  0
  2 41  1  0
 41 42  2  0
 42 43  1  0
 43 44  1  0
 43 45  2  0
 45 46  1  0
 45 47  1  0
 47 48  2  0
 48 49  1  0
 19  5  1  0
 38 26  1  0
 48 41  1  0
 16  7  1  0
M  CHG  1  26   1
M  END
>  <UniqueID>  (18) 
506

>  <SMILES>  (18) 
O=c1c2ccccc2nc(/C=C/c2cnccn2)n1CC[NH+]1CCOCC1

>  <Energy>  (18) 
73.88275030105541

>  <Genealogy>  (18) 
O=c1c2ccccc2nc(/C=C/c2cnccn2)n1CC[NH+]1CCOCC1 (protonated)
O=c1c2ccccc2nc(/C=C/c2cnccn2)n1CC[NH+]1CCOCC1 (cis-trans isomerization)
O=c1c2ccccc2nc(/C=C/c2cnccn2)n1CC[NH+]1CCOCC1 (3D coordinates assigned)
O=c1c2ccccc2nc(/C=C/c2cnccn2)n1CC[NH+]1CCOCC1 (nonaromatic ring conformer: 73.88275030105541 kcal/mol)

>  <smiles>  (18) 
O=c1c2ccccc2nc(/C=C/c2cnccn2)n1CCN1CCOCC1

>  <score_type>  (18) 
oracle

>  <origin>  (18) 
autodockgpu

>  <m_score__min__energy>  (18) 
-6.6699999999999999

>  <m_primary>  (18) 
energy

>  <meeko>  (18) 
{"free_energy": -6.52, "intermolecular_energy": -8.31, "internal_energy": -2.02, "cluster_size": 11, "cluster_id": 2, "rank_in_cluster": 7}

>  <energy>  (18) 
-6.3

>  <cluster_rmsd>  (18) 
0.73

>  <rmsd>  (18) 
271.15

>  <cluster>  (18) 
2

$$$$
OQAGMIVLLKVZIV-DVFUPZKENA-O
     RDKit          3D

 49 52  0  0  0  0  0  0  0  0999 V2000
  135.4379   69.7002  222.4334 H   0  0  0  0  0  0  0  0  0  0  0  0
  135.7540   68.9670  223.1900 C   0  0  0  0  0  0  0  0  0  0  0  0
  137.0140   68.5220  223.1650 C   0  0  0  0  0  0  0  0  0  0  0  0
  137.2901   67.7379  222.4446 H   0  0  0  0  0  0  0  0  0  0  0  0
  138.0460   69.0540  224.0780 C   0  0  0  0  0  0  0  0  0  0  0  0
  138.4420   68.2440  225.0940 N   0  0  0  0  0  0  0  0  0  0  0  0
  139.3790   68.6270  225.9900 C   0  0  0  0  0  0  0  0  0  0  0  0
  139.7650   67.7550  227.0160 C   0  0  0  0  0  0  0  0  0  0  0  0
  139.3028   66.7599  227.0950 H   0  0  0  0  0  0  0  0  0  0  0  0
  140.7370   68.1490  227.9390 C   0  0  0  0  0  0  0  0  0  0  0  0
  141.0388   67.4634  228.7445 H   0  0  0  0  0  0  0  0  0  0  0  0
  141.3270   69.4130  227.8410 C   0  0  0  0  0  0  0  0  0  0  0  0
  142.0929   69.7192  228.5688 H   0  0  0  0  0  0  0  0  0  0  0  0
  140.9450   70.2890  226.8190 C   0  0  0  0  0  0  0  0  0  0  0  0
  141.4114   71.2824  226.7446 H   0  0  0  0  0  0  0  0  0  0  0  0
  139.9640   69.9010  225.8850 C   0  0  0  0  0  0  0  0  0  0  0  0
  139.5360   70.7460  224.8490 C   0  0  0  0  0  0  0  0  0  0  0  0
  140.0400   71.9000  224.7410 O   0  0  0  0  0  0  0  0  0  0  0  0
  138.5690   70.3270  223.9620 N   0  0  0  0  0  0  0  0  0  0  0  0
  138.1010   71.2660  222.9200 C   0  0  0  0  0  0  0  0  0  0  0  0
  137.3443   70.7652  222.2982 H   0  0  0  0  0  0  0  0  0  0  0  0
  137.6711   72.1504  223.4130 H   0  0  0  0  0  0  0  0  0  0  0  0
  139.2710   71.7240  222.0210 C   0  0  0  0  0  0  0  0  0  0  0  0
  140.1633   71.1331  222.2753 H   0  0  0  0  0  0  0  0  0  0  0  0
  138.9682   71.5702  220.9748 H   0  0  0  0  0  0  0  0  0  0  0  0
  139.5900   73.1660  222.1910 N   0  0  0  0  0  0  0  0  0  0  0  0
  139.5890   73.3740  223.2190 H   0  0  0  0  0  0  0  0  0  0  0  0
  138.5490   74.0300  221.5900 C   0  0  0  0  0  0  0  0  0  0  0  0
  137.5585   73.6329  221.8569 H   0  0  0  0  0  0  0  0  0  0  0  0
  138.6832   75.0499  221.9797 H   0  0  0  0  0  0  0  0  0  0  0  0
  138.6680   74.0830  220.0590 C   0  0  0  0  0  0  0  0  0  0  0  0
  138.5041   73.0756  219.6488 H   0  0  0  0  0  0  0  0  0  0  0  0
  137.9124   74.7809  219.6691 H   0  0  0  0  0  0  0  0  0  0  0  0
  139.9490   74.5380  219.6740 O   0  0  0  0  0  0  0  0  0  0  0  0
  140.9310   73.6270  220.1250 C   0  0  0  0  0  0  0  0  0  0  0  0
  140.7224   72.6337  219.7010 H   0  0  0  0  0  0  0  0  0  0  0  0
  141.9185   73.9849  219.7983 H   0  0  0  0  0  0  0  0  0  0  0  0
  140.9270   73.5300  221.6610 C   0  0  0  0  0  0  0  0  0  0  0  0
  141.6525   72.7633  221.9704 H   0  0  0  0  0  0  0  0  0  0  0  0
  141.1954   74.5174  222.0647 H   0  0  0  0  0  0  0  0  0  0  0  0
  134.7700   68.5140  224.1920 C   0  0  0  0  0  0  0  0  0  0  0  0
  134.0630   67.3630  224.0110 N   0  0  0  0  0  0  0  0  0  0  0  0
  133.1590   66.9340  224.9300 C   0  0  0  0  0  0  0  0  0  0  0  0
  132.5976   66.0028  224.7635 H   0  0  0  0  0  0  0  0  0  0  0  0
  132.9490   67.6860  226.0880 C   0  0  0  0  0  0  0  0  0  0  0  0
  132.2214   67.3516  226.8422 H   0  0  0  0  0  0  0  0  0  0  0  0
  133.6510   68.8340  226.2750 N   0  0  0  0  0  0  0  0  0  0  0  0
  134.5550   69.2650  225.3550 C   0  0  0  0  0  0  0  0  0  0  0  0
  135.1139   70.1974  225.5229 H   0  0  0  0  0  0  0  0  0  0  0  0
  1  2  1  0
  2  3  2  0
  3  4  1  0
  3  5  1  0
  5  6  2  0
  6  7  1  0
  7  8  2  0
  8  9  1  0
  8 10  1  0
 10 11  1  0
 10 12  2  0
 12 13  1  0
 12 14  1  0
 14 15  1  0
 14 16  2  0
 16 17  1  0
 17 18  2  0
 17 19  1  0
 19 20  1  0
 20 21  1  0
 20 22  1  0
 20 23  1  0
 23 24  1  0
 23 25  1  0
 23 26  1  0
 26 27  1  0
 26 28  1  0
 28 29  1  0
 28 30  1  0
 28 31  1  0
 31 32  1  0
 31 33  1  0
 31 34  1  0
 34 35  1  0
 35 36  1  0
 35 37  1  0
 35 38  1  0
 38 39  1  0
 38 40  1  0
  2 41  1  0
 41 42  2  0
 42 43  1  0
 43 44  1  0
 43 45  2  0
 45 46  1  0
 45 47  1  0
 47 48  2  0
 48 49  1  0
 19  5  1  0
 38 26  1  0
 48 41  1  0
 16  7  1  0
M  CHG  1  26   1
M  END
>  <UniqueID>  (19) 
506

>  <SMILES>  (19) 
O=c1c2ccccc2nc(/C=C/c2cnccn2)n1CC[NH+]1CCOCC1

>  <Energy>  (19) 
73.88275030105541

>  <Genealogy>  (19) 
O=c1c2ccccc2nc(/C=C/c2cnccn2)n1CC[NH+]1CCOCC1 (protonated)
O=c1c2ccccc2nc(/C=C/c2cnccn2)n1CC[NH+]1CCOCC1 (cis-trans isomerization)
O=c1c2ccccc2nc(/C=C/c2cnccn2)n1CC[NH+]1CCOCC1 (3D coordinates assigned)
O=c1c2ccccc2nc(/C=C/c2cnccn2)n1CC[NH+]1CCOCC1 (nonaromatic ring conformer: 73.88275030105541 kcal/mol)

>  <smiles>  (19) 
O=c1c2ccccc2nc(/C=C/c2cnccn2)n1CCN1CCOCC1

>  <score_type>  (19) 
oracle

>  <origin>  (19) 
autodockgpu

>  <m_score__min__energy>  (19) 
-6.6699999999999999

>  <m_primary>  (19) 
energy

>  <meeko>  (19) 
{"free_energy": -6.67, "intermolecular_energy": -8.46, "internal_energy": -1.66, "cluster_size": 7, "cluster_id": 1, "rank_in_cluster": 1}

>  <energy>  (19) 
-6.38

>  <cluster_rmsd>  (19) 
0.0

>  <rmsd>  (19) 
271.83

>  <cluster>  (19) 
3

$$$$
OQAGMIVLLKVZIV-DVFUPZKENA-O
     RDKit          3D

 49 52  0  0  0  0  0  0  0  0999 V2000
  141.5176   72.4958  221.3227 H   0  0  0  0  0  0  0  0  0  0  0  0
  140.4960   72.4080  221.7210 C   0  0  0  0  0  0  0  0  0  0  0  0
  140.0190   71.1920  222.0020 C   0  0  0  0  0  0  0  0  0  0  0  0
  139.6649   70.5532  221.1795 H   0  0  0  0  0  0  0  0  0  0  0  0
  139.9540   70.6820  223.3860 C   0  0  0  0  0  0  0  0  0  0  0  0
  140.5330   71.4450  224.3480 N   0  0  0  0  0  0  0  0  0  0  0  0
  140.5350   71.0770  225.6490 C   0  0  0  0  0  0  0  0  0  0  0  0
  141.1350   71.9000  226.6100 C   0  0  0  0  0  0  0  0  0  0  0  0
  141.6090   72.8448  226.3057 H   0  0  0  0  0  0  0  0  0  0  0  0
  141.1320   71.5220  227.9550 C   0  0  0  0  0  0  0  0  0  0  0  0
  141.6032   72.1702  228.7085 H   0  0  0  0  0  0  0  0  0  0  0  0
  140.5310   70.3210  228.3450 C   0  0  0  0  0  0  0  0  0  0  0  0
  140.5304   70.0264  229.4048 H   0  0  0  0  0  0  0  0  0  0  0  0
  139.9310   69.4940  227.3910 C   0  0  0  0  0  0  0  0  0  0  0  0
  139.4588   68.5503  227.7016 H   0  0  0  0  0  0  0  0  0  0  0  0
  139.9300   69.8670  226.0320 C   0  0  0  0  0  0  0  0  0  0  0  0
  139.3540   69.0670  225.0320 C   0  0  0  0  0  0  0  0  0  0  0  0
  138.8140   67.9690  225.3500 O   0  0  0  0  0  0  0  0  0  0  0  0
  139.3820   69.4680  223.7150 N   0  0  0  0  0  0  0  0  0  0  0  0
  138.8170   68.5720  222.6830 C   0  0  0  0  0  0  0  0  0  0  0  0
  139.3937   68.6855  221.7532 H   0  0  0  0  0  0  0  0  0  0  0  0
  138.8750   67.5361  223.0485 H   0  0  0  0  0  0  0  0  0  0  0  0
  137.3370   68.9130  222.4040 C   0  0  0  0  0  0  0  0  0  0  0  0
  137.2960   69.7265  221.6648 H   0  0  0  0  0  0  0  0  0  0  0  0
  136.8492   68.0008  222.0300 H   0  0  0  0  0  0  0  0  0  0  0  0
  136.6100   69.3440  223.6280 N   0  0  0  0  0  0  0  0  0  0  0  0
  137.0630   68.8760  224.4500 H   0  0  0  0  0  0  0  0  0  0  0  0
  135.2010   68.8900  223.6140 C   0  0  0  0  0  0  0  0  0  0  0  0
  135.1665   67.8454  223.2711 H   0  0  0  0  0  0  0  0  0  0  0  0
  134.8004   68.9834  224.6342 H   0  0  0  0  0  0  0  0  0  0  0  0
  134.3360   69.7500  222.6790 C   0  0  0  0  0  0  0  0  0  0  0  0
  134.7018   69.6414  221.6473 H   0  0  0  0  0  0  0  0  0  0  0  0
  133.2921   69.4108  222.7518 H   0  0  0  0  0  0  0  0  0  0  0  0
  134.3980   71.1110  223.0520 O   0  0  0  0  0  0  0  0  0  0  0  0
  135.7250   71.5790  222.9210 C   0  0  0  0  0  0  0  0  0  0  0  0
  136.0537   71.4422  221.8802 H   0  0  0  0  0  0  0  0  0  0  0  0
  135.7501   72.6438  223.1960 H   0  0  0  0  0  0  0  0  0  0  0  0
  136.6750   70.8090  223.8540 C   0  0  0  0  0  0  0  0  0  0  0  0
  137.7047   71.1508  223.6730 H   0  0  0  0  0  0  0  0  0  0  0  0
  136.3665   71.0067  224.8912 H   0  0  0  0  0  0  0  0  0  0  0  0
  139.7060   73.6380  221.9240 C   0  0  0  0  0  0  0  0  0  0  0  0
  140.3170   74.8430  222.1030 N   0  0  0  0  0  0  0  0  0  0  0  0
  139.5990   75.9820  222.2870 C   0  0  0  0  0  0  0  0  0  0  0  0
  140.1117   76.9443  222.4322 H   0  0  0  0  0  0  0  0  0  0  0  0
  138.2040   75.9190  222.2900 C   0  0  0  0  0  0  0  0  0  0  0  0
  137.6080   76.8321  222.4353 H   0  0  0  0  0  0  0  0  0  0  0  0
  137.5890   74.7210  222.1120 N   0  0  0  0  0  0  0  0  0  0  0  0
  138.3060   73.5810  221.9300 C   0  0  0  0  0  0  0  0  0  0  0  0
  137.7906   72.6196  221.7883 H   0  0  0  0  0  0  0  0  0  0  0  0
  1  2  1  0
  2  3  2  0
  3  4  1  0
  3  5  1  0
  5  6  2  0
  6  7  1  0
  7  8  2  0
  8  9  1  0
  8 10  1  0
 10 11  1  0
 10 12  2  0
 12 13  1  0
 12 14  1  0
 14 15  1  0
 14 16  2  0
 16 17  1  0
 17 18  2  0
 17 19  1  0
 19 20  1  0
 20 21  1  0
 20 22  1  0
 20 23  1  0
 23 24  1  0
 23 25  1  0
 23 26  1  0
 26 27  1  0
 26 28  1  0
 28 29  1  0
 28 30  1  0
 28 31  1  0
 31 32  1  0
 31 33  1  0
 31 34  1  0
 34 35  1  0
 35 36  1  0
 35 37  1  0
 35 38  1  0
 38 39  1  0
 38 40  1  0
  2 41  1  0
 41 42  2  0
 42 43  1  0
 43 44  1  0
 43 45  2  0
 45 46  1  0
 45 47  1  0
 47 48  2  0
 48 49  1  0
 19  5  1  0
 38 26  1  0
 48 41  1  0
 16  7  1  0
M  CHG  1  26   1
M  END
>  <UniqueID>  (20) 
506

>  <SMILES>  (20) 
O=c1c2ccccc2nc(/C=C/c2cnccn2)n1CC[NH+]1CCOCC1

>  <Energy>  (20) 
73.88275030105541

>  <Genealogy>  (20) 
O=c1c2ccccc2nc(/C=C/c2cnccn2)n1CC[NH+]1CCOCC1 (protonated)
O=c1c2ccccc2nc(/C=C/c2cnccn2)n1CC[NH+]1CCOCC1 (cis-trans isomerization)
O=c1c2ccccc2nc(/C=C/c2cnccn2)n1CC[NH+]1CCOCC1 (3D coordinates assigned)
O=c1c2ccccc2nc(/C=C/c2cnccn2)n1CC[NH+]1CCOCC1 (nonaromatic ring conformer: 73.88275030105541 kcal/mol)

>  <smiles>  (20) 
O=c1c2ccccc2nc(/C=C/c2cnccn2)n1CCN1CCOCC1

>  <score_type>  (20) 
oracle

>  <origin>  (20) 
autodockgpu

>  <m_score__min__energy>  (20) 
-6.6699999999999999

>  <m_primary>  (20) 
energy

>  <meeko>  (20) 
{"free_energy": -6.32, "intermolecular_energy": -8.11, "internal_energy": -2.17, "cluster_size": 11, "cluster_id": 2, "rank_in_cluster": 10}

>  <energy>  (20) 
-5.63

>  <cluster_rmsd>  (20) 
0.0

>  <rmsd>  (20) 
272.25

>  <cluster>  (20) 
4

$$$$
OQAGMIVLLKVZIV-AATRIKPKNA-N
     RDKit          3D

 48 51  0  0  0  0  0  0  0  0999 V2000
  140.2178   71.4727  221.1655 H   0  0  0  0  0  0  0  0  0  0  0  0
  139.4710   71.9760  221.7970 C   0  0  0  0  0  0  0  0  0  0  0  0
  138.5920   71.2290  222.4780 C   0  0  0  0  0  0  0  0  0  0  0  0
  137.5980   71.0307  222.0506 H   0  0  0  0  0  0  0  0  0  0  0  0
  138.9450   70.6720  223.7920 C   0  0  0  0  0  0  0  0  0  0  0  0
  139.7050   71.4390  224.6190 N   0  0  0  0  0  0  0  0  0  0  0  0
  140.0940   71.0030  225.8390 C   0  0  0  0  0  0  0  0  0  0  0  0
  140.8980   71.8150  226.6510 C   0  0  0  0  0  0  0  0  0  0  0  0
  141.2116   72.8077  226.2958 H   0  0  0  0  0  0  0  0  0  0  0  0
  141.3020   71.3650  227.9120 C   0  0  0  0  0  0  0  0  0  0  0  0
  141.9337   72.0036  228.5470 H   0  0  0  0  0  0  0  0  0  0  0  0
  140.9040   70.1050  228.3660 C   0  0  0  0  0  0  0  0  0  0  0  0
  141.2121   69.7596  229.3639 H   0  0  0  0  0  0  0  0  0  0  0  0
  140.1160   69.2820  227.5570 C   0  0  0  0  0  0  0  0  0  0  0  0
  139.8181   68.2849  227.9134 H   0  0  0  0  0  0  0  0  0  0  0  0
  139.7020   69.7270  226.2850 C   0  0  0  0  0  0  0  0  0  0  0  0
  138.9320   68.9300  225.4160 C   0  0  0  0  0  0  0  0  0  0  0  0
  138.5980   67.7670  225.7740 O   0  0  0  0  0  0  0  0  0  0  0  0
  138.5540   69.4100  224.1820 N   0  0  0  0  0  0  0  0  0  0  0  0
  137.8390   68.5250  223.2330 C   0  0  0  0  0  0  0  0  0  0  0  0
  138.3515   68.5476  222.2600 H   0  0  0  0  0  0  0  0  0  0  0  0
  137.8347   67.5008  223.6343 H   0  0  0  0  0  0  0  0  0  0  0  0
  136.3820   68.9970  223.0510 C   0  0  0  0  0  0  0  0  0  0  0  0
  136.3844   70.0532  222.7438 H   0  0  0  0  0  0  0  0  0  0  0  0
  135.9088   68.3665  222.2838 H   0  0  0  0  0  0  0  0  0  0  0  0
  135.6080   68.8630  224.3020 N   0  0  0  0  0  0  0  0  0  0  0  0
  134.3090   68.2070  224.0460 C   0  0  0  0  0  0  0  0  0  0  0  0
  133.7901   68.7419  223.2370 H   0  0  0  0  0  0  0  0  0  0  0  0
  134.4968   67.1613  223.7611 H   0  0  0  0  0  0  0  0  0  0  0  0
  133.4210   68.2180  225.3070 C   0  0  0  0  0  0  0  0  0  0  0  0
  132.5717   68.8975  225.1429 H   0  0  0  0  0  0  0  0  0  0  0  0
  133.0650   67.1941  225.4938 H   0  0  0  0  0  0  0  0  0  0  0  0
  134.1500   68.6540  226.4360 O   0  0  0  0  0  0  0  0  0  0  0  0
  134.5640   69.9960  226.2430 C   0  0  0  0  0  0  0  0  0  0  0  0
  133.6719   70.6362  226.1778 H   0  0  0  0  0  0  0  0  0  0  0  0
  135.1986   70.2799  227.0954 H   0  0  0  0  0  0  0  0  0  0  0  0
  135.3950   70.1690  224.9550 C   0  0  0  0  0  0  0  0  0  0  0  0
  134.8588   70.8365  224.2644 H   0  0  0  0  0  0  0  0  0  0  0  0
  136.3722   70.6016  225.2158 H   0  0  0  0  0  0  0  0  0  0  0  0
  139.4730   73.4520  221.8640 C   0  0  0  0  0  0  0  0  0  0  0  0
  140.6450   74.1500  221.9100 N   0  0  0  0  0  0  0  0  0  0  0  0
  140.6540   75.5100  221.9630 C   0  0  0  0  0  0  0  0  0  0  0  0
  141.6079   76.0558  222.0095 H   0  0  0  0  0  0  0  0  0  0  0  0
  139.4430   76.2090  221.9580 C   0  0  0  0  0  0  0  0  0  0  0  0
  139.4374   77.3090  221.9613 H   0  0  0  0  0  0  0  0  0  0  0  0
  138.2750   75.5190  221.9490 N   0  0  0  0  0  0  0  0  0  0  0  0
  138.2630   74.1570  221.9150 C   0  0  0  0  0  0  0  0  0  0  0  0
  137.3071   73.6128  221.9275 H   0  0  0  0  0  0  0  0  0  0  0  0
  1  2  1  0
  2  3  2  0
  3  4  1  0
  3  5  1  0
  5  6  2  0
  6  7  1  0
  7  8  2  0
  8  9  1  0
  8 10  1  0
 10 11  1  0
 10 12  2  0
 12 13  1  0
 12 14  1  0
 14 15  1  0
 14 16  2  0
 16 17  1  0
 17 18  2  0
 17 19  1  0
 19 20  1  0
 20 21  1  0
 20 22  1  0
 20 23  1  0
 23 24  1  0
 23 25  1  0
 23 26  1  0
 26 27  1  0
 27 28  1  0
 27 29  1  0
 27 30  1  0
 30 31  1  0
 30 32  1  0
 30 33  1  0
 33 34  1  0
 34 35  1  0
 34 36  1  0
 34 37  1  0
 37 38  1  0
 37 39  1  0
  2 40  1  0
 40 41  2  0
 41 42  1  0
 42 43  1  0
 42 44  2  0
 44 45  1  0
 44 46  1  0
 46 47  2  0
 47 48  1  0
 19  5  1  0
 37 26  1  0
 47 40  1  0
 16  7  1  0
M  END
>  <UniqueID>  (21) 
507

>  <SMILES>  (21) 
O=c1c2ccccc2nc(/C=C/c2cnccn2)n1CCN1CCOCC1

>  <Energy>  (21) 
77.15773402139197

>  <Genealogy>  (21) 
O=c1c2ccccc2nc(/C=C/c2cnccn2)n1CCN1CCOCC1 (cis-trans isomerization)
O=c1c2ccccc2nc(/C=C/c2cnccn2)n1CCN1CCOCC1 (3D coordinates assigned)
O=c1c2ccccc2nc(/C=C/c2cnccn2)n1CCN1CCOCC1 (nonaromatic ring conformer: 77.15773402139197 kcal/mol)

>  <smiles>  (21) 
O=c1c2ccccc2nc(/C=C/c2cnccn2)n1CCN1CCOCC1

>  <score_type>  (21) 
oracle

>  <origin>  (21) 
autodockgpu

>  <m_score__min__energy>  (21) 
-7.7300000000000004

>  <m_primary>  (21) 
energy

>  <meeko>  (21) 
{"free_energy": -7.67, "intermolecular_energy": -9.46, "internal_energy": -1.25, "cluster_size": 12, "cluster_id": 1, "rank_in_cluster": 3}

>  <energy>  (21) 
-7.73

>  <cluster_rmsd>  (21) 
0.0

>  <rmsd>  (21) 
270.25

>  <cluster>  (21) 
1

$$$$
OQAGMIVLLKVZIV-AATRIKPKNA-N
     RDKit          3D

 48 51  0  0  0  0  0  0  0  0999 V2000
  137.7173   72.9043  222.1379 H   0  0  0  0  0  0  0  0  0  0  0  0
  138.7020   72.4240  222.0390 C   0  0  0  0  0  0  0  0  0  0  0  0
  138.8110   71.1150  222.3020 C   0  0  0  0  0  0  0  0  0  0  0  0
  138.6917   70.3832  221.4895 H   0  0  0  0  0  0  0  0  0  0  0  0
  139.0890   70.6490  223.6690 C   0  0  0  0  0  0  0  0  0  0  0  0
  139.8840   71.4260  224.4510 N   0  0  0  0  0  0  0  0  0  0  0  0
  140.2100   71.0680  225.7150 C   0  0  0  0  0  0  0  0  0  0  0  0
  141.0530   71.8860  226.4810 C   0  0  0  0  0  0  0  0  0  0  0  0
  141.4490   72.8192  226.0541 H   0  0  0  0  0  0  0  0  0  0  0  0
  141.3910   71.5170  227.7870 C   0  0  0  0  0  0  0  0  0  0  0  0
  142.0543   72.1589  228.3853 H   0  0  0  0  0  0  0  0  0  0  0  0
  140.8870   70.3340  228.3320 C   0  0  0  0  0  0  0  0  0  0  0  0
  141.1435   70.0536  229.3643 H   0  0  0  0  0  0  0  0  0  0  0  0
  140.0580   69.5050  227.5710 C   0  0  0  0  0  0  0  0  0  0  0  0
  139.6756   68.5674  228.0008 H   0  0  0  0  0  0  0  0  0  0  0  0
  139.7110   69.8680  226.2540 C   0  0  0  0  0  0  0  0  0  0  0  0
  138.9030   69.0580  225.4320 C   0  0  0  0  0  0  0  0  0  0  0  0
  138.4730   67.9590  225.8760 O   0  0  0  0  0  0  0  0  0  0  0  0
  138.5930   69.4570  224.1510 N   0  0  0  0  0  0  0  0  0  0  0  0
  137.8370   68.5490  223.2580 C   0  0  0  0  0  0  0  0  0  0  0  0
  138.3607   68.4697  222.2939 H   0  0  0  0  0  0  0  0  0  0  0  0
  137.7666   67.5589  223.7320 H   0  0  0  0  0  0  0  0  0  0  0  0
  136.4130   69.0930  223.0200 C   0  0  0  0  0  0  0  0  0  0  0  0
  136.4745   70.1679  222.7948 H   0  0  0  0  0  0  0  0  0  0  0  0
  135.9695   68.5402  222.1787 H   0  0  0  0  0  0  0  0  0  0  0  0
  135.5530   68.9000  224.2040 N   0  0  0  0  0  0  0  0  0  0  0  0
  134.2780   68.2540  223.8260 C   0  0  0  0  0  0  0  0  0  0  0  0
  133.8152   68.8250  223.0076 H   0  0  0  0  0  0  0  0  0  0  0  0
  134.4909   67.2229  223.5074 H   0  0  0  0  0  0  0  0  0  0  0  0
  133.3030   68.2050  225.0190 C   0  0  0  0  0  0  0  0  0  0  0  0
  132.4643   68.8901  224.8262 H   0  0  0  0  0  0  0  0  0  0  0  0
  132.9401   67.1728  225.1321 H   0  0  0  0  0  0  0  0  0  0  0  0
  133.9470   68.5890  226.2170 O   0  0  0  0  0  0  0  0  0  0  0  0
  134.3680   69.9390  226.1170 C   0  0  0  0  0  0  0  0  0  0  0  0
  133.4799   70.5808  226.0195 H   0  0  0  0  0  0  0  0  0  0  0  0
  134.9401   70.1826  227.0244 H   0  0  0  0  0  0  0  0  0  0  0  0
  135.2870   70.1740  224.9000 C   0  0  0  0  0  0  0  0  0  0  0  0
  134.7970   70.8716  224.2048 H   0  0  0  0  0  0  0  0  0  0  0  0
  136.2408   70.5965  225.2488 H   0  0  0  0  0  0  0  0  0  0  0  0
  139.8560   73.2460  221.6210 C   0  0  0  0  0  0  0  0  0  0  0  0
  139.9580   74.5540  221.9980 N   0  0  0  0  0  0  0  0  0  0  0  0
  141.0240   75.3130  221.6250 C   0  0  0  0  0  0  0  0  0  0  0  0
  141.0853   76.3683  221.9292 H   0  0  0  0  0  0  0  0  0  0  0  0
  142.0420   74.7430  220.8520 C   0  0  0  0  0  0  0  0  0  0  0  0
  142.9278   75.3348  220.5778 H   0  0  0  0  0  0  0  0  0  0  0  0
  141.9270   73.4550  220.4440 N   0  0  0  0  0  0  0  0  0  0  0  0
  140.8510   72.6970  220.8020 C   0  0  0  0  0  0  0  0  0  0  0  0
  140.7649   71.6587  220.4490 H   0  0  0  0  0  0  0  0  0  0  0  0
  1  2  1  0
  2  3  2  0
  3  4  1  0
  3  5  1  0
  5  6  2  0
  6  7  1  0
  7  8  2  0
  8  9  1  0
  8 10  1  0
 10 11  1  0
 10 12  2  0
 12 13  1  0
 12 14  1  0
 14 15  1  0
 14 16  2  0
 16 17  1  0
 17 18  2  0
 17 19  1  0
 19 20  1  0
 20 21  1  0
 20 22  1  0
 20 23  1  0
 23 24  1  0
 23 25  1  0
 23 26  1  0
 26 27  1  0
 27 28  1  0
 27 29  1  0
 27 30  1  0
 30 31  1  0
 30 32  1  0
 30 33  1  0
 33 34  1  0
 34 35  1  0
 34 36  1  0
 34 37  1  0
 37 38  1  0
 37 39  1  0
  2 40  1  0
 40 41  2  0
 41 42  1  0
 42 43  1  0
 42 44  2  0
 44 45  1  0
 44 46  1  0
 46 47  2  0
 47 48  1  0
 19  5  1  0
 37 26  1  0
 47 40  1  0
 16  7  1  0
M  END
>  <UniqueID>  (22) 
507

>  <SMILES>  (22) 
O=c1c2ccccc2nc(/C=C/c2cnccn2)n1CCN1CCOCC1

>  <Energy>  (22) 
77.15773402139197

>  <Genealogy>  (22) 
O=c1c2ccccc2nc(/C=C/c2cnccn2)n1CCN1CCOCC1 (cis-trans isomerization)
O=c1c2ccccc2nc(/C=C/c2cnccn2)n1CCN1CCOCC1 (3D coordinates assigned)
O=c1c2ccccc2nc(/C=C/c2cnccn2)n1CCN1CCOCC1 (nonaromatic ring conformer: 77.15773402139197 kcal/mol)

>  <smiles>  (22) 
O=c1c2ccccc2nc(/C=C/c2cnccn2)n1CCN1CCOCC1

>  <score_type>  (22) 
oracle

>  <origin>  (22) 
autodockgpu

>  <m_score__min__energy>  (22) 
-7.7300000000000004

>  <m_primary>  (22) 
energy

>  <meeko>  (22) 
{"free_energy": -7.69, "intermolecular_energy": -9.48, "internal_energy": -1.21, "cluster_size": 12, "cluster_id": 1, "rank_in_cluster": 2}

>  <energy>  (22) 
-7.69

>  <cluster_rmsd>  (22) 
0.93

>  <rmsd>  (22) 
270.29

>  <cluster>  (22) 
1

$$$$
OQAGMIVLLKVZIV-AATRIKPKNA-N
     RDKit          3D

 48 51  0  0  0  0  0  0  0  0999 V2000
  141.6630   71.5744  221.2468 H   0  0  0  0  0  0  0  0  0  0  0  0
  140.7410   72.0400  221.6250 C   0  0  0  0  0  0  0  0  0  0  0  0
  139.7490   71.2500  222.0560 C   0  0  0  0  0  0  0  0  0  0  0  0
  138.9147   71.0052  221.3822 H   0  0  0  0  0  0  0  0  0  0  0  0
  139.7660   70.7070  223.4230 C   0  0  0  0  0  0  0  0  0  0  0  0
  140.3160   71.4750  224.4000 N   0  0  0  0  0  0  0  0  0  0  0  0
  140.3930   71.0500  225.6820 C   0  0  0  0  0  0  0  0  0  0  0  0
  140.9900   71.8630  226.6560 C   0  0  0  0  0  0  0  0  0  0  0  0
  141.3951   72.8470  226.3773 H   0  0  0  0  0  0  0  0  0  0  0  0
  141.0710   71.4240  227.9820 C   0  0  0  0  0  0  0  0  0  0  0  0
  141.5416   72.0624  228.7443 H   0  0  0  0  0  0  0  0  0  0  0  0
  140.5550   70.1760  228.3390 C   0  0  0  0  0  0  0  0  0  0  0  0
  140.6078   69.8400  229.3851 H   0  0  0  0  0  0  0  0  0  0  0  0
  139.9720   69.3530  227.3720 C   0  0  0  0  0  0  0  0  0  0  0  0
  139.5806   68.3651  227.6564 H   0  0  0  0  0  0  0  0  0  0  0  0
  139.8840   69.7850  226.0330 C   0  0  0  0  0  0  0  0  0  0  0  0
  139.3330   68.9860  225.0130 C   0  0  0  0  0  0  0  0  0  0  0  0
  138.9040   67.8330  225.2910 O   0  0  0  0  0  0  0  0  0  0  0  0
  139.2720   69.4550  223.7190 N   0  0  0  0  0  0  0  0  0  0  0  0
  138.7930   68.5660  222.6340 C   0  0  0  0  0  0  0  0  0  0  0  0
  139.4624   68.6599  221.7662 H   0  0  0  0  0  0  0  0  0  0  0  0
  138.7899   67.5280  222.9981 H   0  0  0  0  0  0  0  0  0  0  0  0
  137.3600   68.9540  222.2150 C   0  0  0  0  0  0  0  0  0  0  0  0
  137.3286   70.0337  222.0072 H   0  0  0  0  0  0  0  0  0  0  0  0
  137.0941   68.3742  221.3188 H   0  0  0  0  0  0  0  0  0  0  0  0
  136.3810   68.6410  223.2760 N   0  0  0  0  0  0  0  0  0  0  0  0
  135.1000   68.1950  222.6890 C   0  0  0  0  0  0  0  0  0  0  0  0
  134.7624   68.9411  221.9546 H   0  0  0  0  0  0  0  0  0  0  0  0
  135.2584   67.2200  222.2050 H   0  0  0  0  0  0  0  0  0  0  0  0
  134.0170   68.0320  223.7760 C   0  0  0  0  0  0  0  0  0  0  0  0
  133.2570   68.8167  223.6468 H   0  0  0  0  0  0  0  0  0  0  0  0
  133.5639   67.0351  223.6720 H   0  0  0  0  0  0  0  0  0  0  0  0
  134.5760   68.1390  225.0690 O   0  0  0  0  0  0  0  0  0  0  0  0
  135.1100   69.4390  225.2480 C   0  0  0  0  0  0  0  0  0  0  0  0
  134.2886   70.1691  225.2003 H   0  0  0  0  0  0  0  0  0  0  0  0
  135.6130   69.4659  226.2259 H   0  0  0  0  0  0  0  0  0  0  0  0
  136.1540   69.7940  224.1680 C   0  0  0  0  0  0  0  0  0  0  0  0
  135.7875   70.6449  223.5749 H   0  0  0  0  0  0  0  0  0  0  0  0
  137.1019   70.0576  224.6599 H   0  0  0  0  0  0  0  0  0  0  0  0
  140.6420   73.5140  221.6390 C   0  0  0  0  0  0  0  0  0  0  0  0
  139.6220   74.1410  222.2940 N   0  0  0  0  0  0  0  0  0  0  0  0
  139.5310   75.4990  222.3180 C   0  0  0  0  0  0  0  0  0  0  0  0
  138.6966   75.9881  222.8419 H   0  0  0  0  0  0  0  0  0  0  0  0
  140.5040   76.2690  221.6730 C   0  0  0  0  0  0  0  0  0  0  0  0
  140.4627   77.3673  221.7187 H   0  0  0  0  0  0  0  0  0  0  0  0
  141.5000   75.6490  220.9900 N   0  0  0  0  0  0  0  0  0  0  0  0
  141.5830   74.2890  220.9490 C   0  0  0  0  0  0  0  0  0  0  0  0
  142.3859   73.8019  220.3762 H   0  0  0  0  0  0  0  0  0  0  0  0
  1  2  1  0
  2  3  2  0
  3  4  1  0
  3  5  1  0
  5  6  2  0
  6  7  1  0
  7  8  2  0
  8  9  1  0
  8 10  1  0
 10 11  1  0
 10 12  2  0
 12 13  1  0
 12 14  1  0
 14 15  1  0
 14 16  2  0
 16 17  1  0
 17 18  2  0
 17 19  1  0
 19 20  1  0
 20 21  1  0
 20 22  1  0
 20 23  1  0
 23 24  1  0
 23 25  1  0
 23 26  1  0
 26 27  1  0
 27 28  1  0
 27 29  1  0
 27 30  1  0
 30 31  1  0
 30 32  1  0
 30 33  1  0
 33 34  1  0
 34 35  1  0
 34 36  1  0
 34 37  1  0
 37 38  1  0
 37 39  1  0
  2 40  1  0
 40 41  2  0
 41 42  1  0
 42 43  1  0
 42 44  2  0
 44 45  1  0
 44 46  1  0
 46 47  2  0
 47 48  1  0
 19  5  1  0
 37 26  1  0
 47 40  1  0
 16  7  1  0
M  END
>  <UniqueID>  (23) 
507

>  <SMILES>  (23) 
O=c1c2ccccc2nc(/C=C/c2cnccn2)n1CCN1CCOCC1

>  <Energy>  (23) 
77.15773402139197

>  <Genealogy>  (23) 
O=c1c2ccccc2nc(/C=C/c2cnccn2)n1CCN1CCOCC1 (cis-trans isomerization)
O=c1c2ccccc2nc(/C=C/c2cnccn2)n1CCN1CCOCC1 (3D coordinates assigned)
O=c1c2ccccc2nc(/C=C/c2cnccn2)n1CCN1CCOCC1 (nonaromatic ring conformer: 77.15773402139197 kcal/mol)

>  <smiles>  (23) 
O=c1c2ccccc2nc(/C=C/c2cnccn2)n1CCN1CCOCC1

>  <score_type>  (23) 
oracle

>  <origin>  (23) 
autodockgpu

>  <m_score__min__energy>  (23) 
-7.7300000000000004

>  <m_primary>  (23) 
energy

>  <meeko>  (23) 
{"free_energy": -7.65, "intermolecular_energy": -9.44, "internal_energy": -1.26, "cluster_size": 12, "cluster_id": 1, "rank_in_cluster": 7}

>  <energy>  (23) 
-7.67

>  <cluster_rmsd>  (23) 
1.07

>  <rmsd>  (23) 
270.35

>  <cluster>  (23) 
1

$$$$
OQAGMIVLLKVZIV-AATRIKPKNA-N
     RDKit          3D

 48 51  0  0  0  0  0  0  0  0999 V2000
  142.3842   80.0001  219.1133 H   0  0  0  0  0  0  0  0  0  0  0  0
  141.8090   79.5360  219.9280 C   0  0  0  0  0  0  0  0  0  0  0  0
  140.9970   78.5100  219.6420 C   0  0  0  0  0  0  0  0  0  0  0  0
  140.0767   78.6867  219.0660 H   0  0  0  0  0  0  0  0  0  0  0  0
  141.3260   77.1490  220.0920 C   0  0  0  0  0  0  0  0  0  0  0  0
  142.5110   76.6200  219.6870 N   0  0  0  0  0  0  0  0  0  0  0  0
  142.8890   75.3680  220.0360 C   0  0  0  0  0  0  0  0  0  0  0  0
  144.1080   74.8500  219.5770 C   0  0  0  0  0  0  0  0  0  0  0  0
  144.7571   75.4615  218.9331 H   0  0  0  0  0  0  0  0  0  0  0  0
  144.5000   73.5560  219.9370 C   0  0  0  0  0  0  0  0  0  0  0  0
  145.4567   73.1511  219.5753 H   0  0  0  0  0  0  0  0  0  0  0  0
  143.6780   72.7780  220.7550 C   0  0  0  0  0  0  0  0  0  0  0  0
  143.9949   71.7657  221.0463 H   0  0  0  0  0  0  0  0  0  0  0  0
  142.4540   73.2810  221.2050 C   0  0  0  0  0  0  0  0  0  0  0  0
  141.8045   72.6585  221.8380 H   0  0  0  0  0  0  0  0  0  0  0  0
  142.0500   74.5830  220.8500 C   0  0  0  0  0  0  0  0  0  0  0  0
  140.8150   75.1300  221.2490 C   0  0  0  0  0  0  0  0  0  0  0  0
  140.0270   74.4360  221.9470 O   0  0  0  0  0  0  0  0  0  0  0  0
  140.4660   76.4090  220.8740 N   0  0  0  0  0  0  0  0  0  0  0  0
  139.1210   76.9340  221.2060 C   0  0  0  0  0  0  0  0  0  0  0  0
  138.9162   77.8220  220.5900 H   0  0  0  0  0  0  0  0  0  0  0  0
  138.3730   76.1533  221.0036 H   0  0  0  0  0  0  0  0  0  0  0  0
  139.0490   77.3220  222.6970 C   0  0  0  0  0  0  0  0  0  0  0  0
  138.4066   76.6005  223.2231 H   0  0  0  0  0  0  0  0  0  0  0  0
  140.0702   77.3093  223.1058 H   0  0  0  0  0  0  0  0  0  0  0  0
  138.4950   78.6790  222.8790 N   0  0  0  0  0  0  0  0  0  0  0  0
  138.3980   79.3830  221.5840 C   0  0  0  0  0  0  0  0  0  0  0  0
  139.3764   79.3482  221.0826 H   0  0  0  0  0  0  0  0  0  0  0  0
  137.6310   78.8843  220.9733 H   0  0  0  0  0  0  0  0  0  0  0  0
  137.9850   80.8560  221.7790 C   0  0  0  0  0  0  0  0  0  0  0  0
  138.8366   81.5049  221.5268 H   0  0  0  0  0  0  0  0  0  0  0  0
  137.1296   81.0704  221.1215 H   0  0  0  0  0  0  0  0  0  0  0  0
  137.5980   81.1000  223.1160 O   0  0  0  0  0  0  0  0  0  0  0  0
  138.7040   80.8910  223.9760 C   0  0  0  0  0  0  0  0  0  0  0  0
  139.4839   81.6286  223.7359 H   0  0  0  0  0  0  0  0  0  0  0  0
  138.3523   81.0035  225.0122 H   0  0  0  0  0  0  0  0  0  0  0  0
  139.2970   79.4750  223.8280 C   0  0  0  0  0  0  0  0  0  0  0  0
  140.3292   79.5513  223.4555 H   0  0  0  0  0  0  0  0  0  0  0  0
  139.2855   78.9785  224.8095 H   0  0  0  0  0  0  0  0  0  0  0  0
  141.9600   80.0670  221.2990 C   0  0  0  0  0  0  0  0  0  0  0  0
  142.4210   79.2750  222.3100 N   0  0  0  0  0  0  0  0  0  0  0  0
  142.5710   79.7610  223.5720 C   0  0  0  0  0  0  0  0  0  0  0  0
  142.9334   79.1056  224.3777 H   0  0  0  0  0  0  0  0  0  0  0  0
  142.2620   81.0980  223.8390 C   0  0  0  0  0  0  0  0  0  0  0  0
  142.4170   81.5128  224.8459 H   0  0  0  0  0  0  0  0  0  0  0  0
  141.7690   81.8800  222.8450 N   0  0  0  0  0  0  0  0  0  0  0  0
  141.6000   81.3900  221.5840 C   0  0  0  0  0  0  0  0  0  0  0  0
  141.1826   82.0312  220.7937 H   0  0  0  0  0  0  0  0  0  0  0  0
  1  2  1  0
  2  3  2  0
  3  4  1  0
  3  5  1  0
  5  6  2  0
  6  7  1  0
  7  8  2  0
  8  9  1  0
  8 10  1  0
 10 11  1  0
 10 12  2  0
 12 13  1  0
 12 14  1  0
 14 15  1  0
 14 16  2  0
 16 17  1  0
 17 18  2  0
 17 19  1  0
 19 20  1  0
 20 21  1  0
 20 22  1  0
 20 23  1  0
 23 24  1  0
 23 25  1  0
 23 26  1  0
 26 27  1  0
 27 28  1  0
 27 29  1  0
 27 30  1  0
 30 31  1  0
 30 32  1  0
 30 33  1  0
 33 34  1  0
 34 35  1  0
 34 36  1  0
 34 37  1  0
 37 38  1  0
 37 39  1  0
  2 40  1  0
 40 41  2  0
 41 42  1  0
 42 43  1  0
 42 44  2  0
 44 45  1  0
 44 46  1  0
 46 47  2  0
 47 48  1  0
 19  5  1  0
 37 26  1  0
 47 40  1  0
 16  7  1  0
M  END
>  <UniqueID>  (24) 
507

>  <SMILES>  (24) 
O=c1c2ccccc2nc(/C=C/c2cnccn2)n1CCN1CCOCC1

>  <Energy>  (24) 
77.15773402139197

>  <Genealogy>  (24) 
O=c1c2ccccc2nc(/C=C/c2cnccn2)n1CCN1CCOCC1 (cis-trans isomerization)
O=c1c2ccccc2nc(/C=C/c2cnccn2)n1CCN1CCOCC1 (3D coordinates assigned)
O=c1c2ccccc2nc(/C=C/c2cnccn2)n1CCN1CCOCC1 (nonaromatic ring conformer: 77.15773402139197 kcal/mol)

>  <smiles>  (24) 
O=c1c2ccccc2nc(/C=C/c2cnccn2)n1CCN1CCOCC1

>  <score_type>  (24) 
oracle

>  <origin>  (24) 
autodockgpu

>  <m_score__min__energy>  (24) 
-7.7300000000000004

>  <m_primary>  (24) 
energy

>  <meeko>  (24) 
{"free_energy": -5.67, "intermolecular_energy": -7.46, "internal_energy": -1.94, "cluster_size": 2, "cluster_id": 4, "rank_in_cluster": 1}

>  <energy>  (24) 
-7.67

>  <cluster_rmsd>  (24) 
0.21

>  <rmsd>  (24) 
270.21

>  <cluster>  (24) 
1

$$$$
OQAGMIVLLKVZIV-AATRIKPKNA-N
     RDKit          3D

 48 51  0  0  0  0  0  0  0  0999 V2000
  137.7342   72.1420  221.6530 H   0  0  0  0  0  0  0  0  0  0  0  0
  138.7830   72.3770  221.8870 C   0  0  0  0  0  0  0  0  0  0  0  0
  139.6320   71.3690  222.1310 C   0  0  0  0  0  0  0  0  0  0  0  0
  140.2699   70.9851  221.3212 H   0  0  0  0  0  0  0  0  0  0  0  0
  139.7180   70.7720  223.4720 C   0  0  0  0  0  0  0  0  0  0  0  0
  140.2520   71.5280  224.4660 N   0  0  0  0  0  0  0  0  0  0  0  0
  140.3880   71.0560  225.7270 C   0  0  0  0  0  0  0  0  0  0  0  0
  140.9670   71.8600  226.7190 C   0  0  0  0  0  0  0  0  0  0  0  0
  141.3092   72.8759  226.4722 H   0  0  0  0  0  0  0  0  0  0  0  0
  141.1100   71.3720  228.0220 C   0  0  0  0  0  0  0  0  0  0  0  0
  141.5661   72.0037  228.7985 H   0  0  0  0  0  0  0  0  0  0  0  0
  140.6740   70.0830  228.3380 C   0  0  0  0  0  0  0  0  0  0  0  0
  140.7753   69.7075  229.3669 H   0  0  0  0  0  0  0  0  0  0  0  0
  140.1100   69.2690  227.3530 C   0  0  0  0  0  0  0  0  0  0  0  0
  139.7821   68.2497  227.6050 H   0  0  0  0  0  0  0  0  0  0  0  0
  139.9600   69.7510  226.0360 C   0  0  0  0  0  0  0  0  0  0  0  0
  139.4260   68.9660  224.9970 C   0  0  0  0  0  0  0  0  0  0  0  0
  139.0690   67.7800  225.2370 O   0  0  0  0  0  0  0  0  0  0  0  0
  139.3020   69.4830  223.7260 N   0  0  0  0  0  0  0  0  0  0  0  0
  138.8430   68.6150  222.6170 C   0  0  0  0  0  0  0  0  0  0  0  0
  139.2436   68.9982  221.6669 H   0  0  0  0  0  0  0  0  0  0  0  0
  139.2030   67.5905  222.7926 H   0  0  0  0  0  0  0  0  0  0  0  0
  137.3020   68.6000  222.5500 C   0  0  0  0  0  0  0  0  0  0  0  0
  136.9900   68.6394  221.4959 H   0  0  0  0  0  0  0  0  0  0  0  0
  136.9454   67.6771  223.0306 H   0  0  0  0  0  0  0  0  0  0  0  0
  136.7160   69.7510  223.2670 N   0  0  0  0  0  0  0  0  0  0  0  0
  135.8240   69.2920  224.3520 C   0  0  0  0  0  0  0  0  0  0  0  0
  135.0907   68.5840  223.9384 H   0  0  0  0  0  0  0  0  0  0  0  0
  136.4375   68.8071  225.1257 H   0  0  0  0  0  0  0  0  0  0  0  0
  135.0730   70.4760  224.9950 C   0  0  0  0  0  0  0  0  0  0  0  0
  134.0062   70.4094  224.7350 H   0  0  0  0  0  0  0  0  0  0  0  0
  135.2073   70.4259  226.0856 H   0  0  0  0  0  0  0  0  0  0  0  0
  135.5850   71.7100  224.5340 O   0  0  0  0  0  0  0  0  0  0  0  0
  135.3640   71.8240  223.1390 C   0  0  0  0  0  0  0  0  0  0  0  0
  134.2801   71.8441  222.9523 H   0  0  0  0  0  0  0  0  0  0  0  0
  135.8462   72.7508  222.7949 H   0  0  0  0  0  0  0  0  0  0  0  0
  135.9820   70.6480  222.3540 C   0  0  0  0  0  0  0  0  0  0  0  0
  135.1800   70.0825  221.8570 H   0  0  0  0  0  0  0  0  0  0  0  0
  136.6823   71.0469  221.6054 H   0  0  0  0  0  0  0  0  0  0  0  0
  139.2050   73.7920  221.9210 C   0  0  0  0  0  0  0  0  0  0  0  0
  140.5270   74.1290  221.9370 N   0  0  0  0  0  0  0  0  0  0  0  0
  140.9220   75.4320  221.9590 C   0  0  0  0  0  0  0  0  0  0  0  0
  141.9921   75.6854  221.9829 H   0  0  0  0  0  0  0  0  0  0  0  0
  139.9590   76.4460  221.9510 C   0  0  0  0  0  0  0  0  0  0  0  0
  140.2654   77.5022  221.9279 H   0  0  0  0  0  0  0  0  0  0  0  0
  138.6430   76.1150  221.9720 N   0  0  0  0  0  0  0  0  0  0  0  0
  138.2450   74.8120  221.9690 C   0  0  0  0  0  0  0  0  0  0  0  0
  137.1745   74.5615  222.0041 H   0  0  0  0  0  0  0  0  0  0  0  0
  1  2  1  0
  2  3  2  0
  3  4  1  0
  3  5  1  0
  5  6  2  0
  6  7  1  0
  7  8  2  0
  8  9  1  0
  8 10  1  0
 10 11  1  0
 10 12  2  0
 12 13  1  0
 12 14  1  0
 14 15  1  0
 14 16  2  0
 16 17  1  0
 17 18  2  0
 17 19  1  0
 19 20  1  0
 20 21  1  0
 20 22  1  0
 20 23  1  0
 23 24  1  0
 23 25  1  0
 23 26  1  0
 26 27  1  0
 27 28  1  0
 27 29  1  0
 27 30  1  0
 30 31  1  0
 30 32  1  0
 30 33  1  0
 33 34  1  0
 34 35  1  0
 34 36  1  0
 34 37  1  0
 37 38  1  0
 37 39  1  0
  2 40  1  0
 40 41  2  0
 41 42  1  0
 42 43  1  0
 42 44  2  0
 44 45  1  0
 44 46  1  0
 46 47  2  0
 47 48  1  0
 19  5  1  0
 37 26  1  0
 47 40  1  0
 16  7  1  0
M  END
>  <UniqueID>  (25) 
507

>  <SMILES>  (25) 
O=c1c2ccccc2nc(/C=C/c2cnccn2)n1CCN1CCOCC1

>  <Energy>  (25) 
77.15773402139197

>  <Genealogy>  (25) 
O=c1c2ccccc2nc(/C=C/c2cnccn2)n1CCN1CCOCC1 (cis-trans isomerization)
O=c1c2ccccc2nc(/C=C/c2cnccn2)n1CCN1CCOCC1 (3D coordinates assigned)
O=c1c2ccccc2nc(/C=C/c2cnccn2)n1CCN1CCOCC1 (nonaromatic ring conformer: 77.15773402139197 kcal/mol)

>  <smiles>  (25) 
O=c1c2ccccc2nc(/C=C/c2cnccn2)n1CCN1CCOCC1

>  <score_type>  (25) 
oracle

>  <origin>  (25) 
autodockgpu

>  <m_score__min__energy>  (25) 
-7.7300000000000004

>  <m_primary>  (25) 
energy

>  <meeko>  (25) 
{"free_energy": -6.89, "intermolecular_energy": -8.68, "internal_energy": -1.71, "cluster_size": 12, "cluster_id": 1, "rank_in_cluster": 12}

>  <energy>  (25) 
-7.65

>  <cluster_rmsd>  (25) 
1.14

>  <rmsd>  (25) 
270.26

>  <cluster>  (25) 
1

$$$$
OQAGMIVLLKVZIV-AATRIKPKNA-N
     RDKit          3D

 48 51  0  0  0  0  0  0  0  0999 V2000
  142.4379   79.8823  219.2743 H   0  0  0  0  0  0  0  0  0  0  0  0
  141.8140   79.4740  220.0830 C   0  0  0  0  0  0  0  0  0  0  0  0
  140.9800   78.4620  219.8080 C   0  0  0  0  0  0  0  0  0  0  0  0
  140.0330   78.6623  219.2854 H   0  0  0  0  0  0  0  0  0  0  0  0
  141.3200   77.0860  220.1990 C   0  0  0  0  0  0  0  0  0  0  0  0
  142.4880   76.5690  219.7350 N   0  0  0  0  0  0  0  0  0  0  0  0
  142.8740   75.3060  220.0280 C   0  0  0  0  0  0  0  0  0  0  0  0
  144.0760   74.8010  219.5090 C   0  0  0  0  0  0  0  0  0  0  0  0
  144.7045   75.4332  218.8645 H   0  0  0  0  0  0  0  0  0  0  0  0
  144.4760   73.4950  219.8100 C   0  0  0  0  0  0  0  0  0  0  0  0
  145.4182   73.1008  219.4014 H   0  0  0  0  0  0  0  0  0  0  0  0
  143.6800   72.6910  220.6290 C   0  0  0  0  0  0  0  0  0  0  0  0
  144.0042   71.6689  220.8743 H   0  0  0  0  0  0  0  0  0  0  0  0
  142.4740   73.1790  221.1380 C   0  0  0  0  0  0  0  0  0  0  0  0
  141.8449   72.5359  221.7709 H   0  0  0  0  0  0  0  0  0  0  0  0
  142.0620   74.4940  220.8420 C   0  0  0  0  0  0  0  0  0  0  0  0
  140.8430   75.0300  221.3030 C   0  0  0  0  0  0  0  0  0  0  0  0
  140.0770   74.3130  222.0030 O   0  0  0  0  0  0  0  0  0  0  0  0
  140.4860   76.3210  220.9840 N   0  0  0  0  0  0  0  0  0  0  0  0
  139.1540   76.8370  221.3810 C   0  0  0  0  0  0  0  0  0  0  0  0
  138.7816   77.5173  220.6010 H   0  0  0  0  0  0  0  0  0  0  0  0
  138.4645   75.9887  221.5032 H   0  0  0  0  0  0  0  0  0  0  0  0
  139.2500   77.6000  222.7170 C   0  0  0  0  0  0  0  0  0  0  0  0
  138.4623   77.2364  223.3932 H   0  0  0  0  0  0  0  0  0  0  0  0
  140.2477   77.4215  223.1444 H   0  0  0  0  0  0  0  0  0  0  0  0
  139.0830   79.0550  222.5250 N   0  0  0  0  0  0  0  0  0  0  0  0
  138.8300   79.7280  223.8160 C   0  0  0  0  0  0  0  0  0  0  0  0
  137.9894   79.2302  224.3215 H   0  0  0  0  0  0  0  0  0  0  0  0
  139.7425   79.6642  224.4269 H   0  0  0  0  0  0  0  0  0  0  0  0
  138.4830   81.2170  223.6100 C   0  0  0  0  0  0  0  0  0  0  0  0
  137.4243   81.3778  223.8617 H   0  0  0  0  0  0  0  0  0  0  0  0
  139.1304   81.8212  224.2626 H   0  0  0  0  0  0  0  0  0  0  0  0
  138.7040   81.6080  222.2700 O   0  0  0  0  0  0  0  0  0  0  0  0
  137.8350   80.8860  221.4150 C   0  0  0  0  0  0  0  0  0  0  0  0
  136.7964   81.1593  221.6528 H   0  0  0  0  0  0  0  0  0  0  0  0
  138.0898   81.1460  220.3770 H   0  0  0  0  0  0  0  0  0  0  0  0
  137.9960   79.3600  221.5740 C   0  0  0  0  0  0  0  0  0  0  0  0
  137.0546   78.9332  221.9502 H   0  0  0  0  0  0  0  0  0  0  0  0
  138.2440   78.9229  220.5955 H   0  0  0  0  0  0  0  0  0  0  0  0
  141.9250   80.0610  221.4350 C   0  0  0  0  0  0  0  0  0  0  0  0
  142.2680   79.2910  222.5070 N   0  0  0  0  0  0  0  0  0  0  0  0
  142.3820   79.8280  223.7520 C   0  0  0  0  0  0  0  0  0  0  0  0
  142.6503   79.1903  224.6072 H   0  0  0  0  0  0  0  0  0  0  0  0
  142.1560   81.1960  223.9380 C   0  0  0  0  0  0  0  0  0  0  0  0
  142.2831   81.6493  224.9322 H   0  0  0  0  0  0  0  0  0  0  0  0
  141.7790   81.9580  222.8820 N   0  0  0  0  0  0  0  0  0  0  0  0
  141.6460   81.4190  221.6370 C   0  0  0  0  0  0  0  0  0  0  0  0
  141.3211   82.0475  220.7947 H   0  0  0  0  0  0  0  0  0  0  0  0
  1  2  1  0
  2  3  2  0
  3  4  1  0
  3  5  1  0
  5  6  2  0
  6  7  1  0
  7  8  2  0
  8  9  1  0
  8 10  1  0
 10 11  1  0
 10 12  2  0
 12 13  1  0
 12 14  1  0
 14 15  1  0
 14 16  2  0
 16 17  1  0
 17 18  2  0
 17 19  1  0
 19 20  1  0
 20 21  1  0
 20 22  1  0
 20 23  1  0
 23 24  1  0
 23 25  1  0
 23 26  1  0
 26 27  1  0
 27 28  1  0
 27 29  1  0
 27 30  1  0
 30 31  1  0
 30 32  1  0
 30 33  1  0
 33 34  1  0
 34 35  1  0
 34 36  1  0
 34 37  1  0
 37 38  1  0
 37 39  1  0
  2 40  1  0
 40 41  2  0
 41 42  1  0
 42 43  1  0
 42 44  2  0
 44 45  1  0
 44 46  1  0
 46 47  2  0
 47 48  1  0
 19  5  1  0
 37 26  1  0
 47 40  1  0
 16  7  1  0
M  END
>  <UniqueID>  (26) 
507

>  <SMILES>  (26) 
O=c1c2ccccc2nc(/C=C/c2cnccn2)n1CCN1CCOCC1

>  <Energy>  (26) 
77.15773402139197

>  <Genealogy>  (26) 
O=c1c2ccccc2nc(/C=C/c2cnccn2)n1CCN1CCOCC1 (cis-trans isomerization)
O=c1c2ccccc2nc(/C=C/c2cnccn2)n1CCN1CCOCC1 (3D coordinates assigned)
O=c1c2ccccc2nc(/C=C/c2cnccn2)n1CCN1CCOCC1 (nonaromatic ring conformer: 77.15773402139197 kcal/mol)

>  <smiles>  (26) 
O=c1c2ccccc2nc(/C=C/c2cnccn2)n1CCN1CCOCC1

>  <score_type>  (26) 
oracle

>  <origin>  (26) 
autodockgpu

>  <m_score__min__energy>  (26) 
-7.7300000000000004

>  <m_primary>  (26) 
energy

>  <meeko>  (26) 
{"free_energy": -5.65, "intermolecular_energy": -7.44, "internal_energy": -2.01, "cluster_size": 2, "cluster_id": 4, "rank_in_cluster": 2}

>  <energy>  (26) 
-7.65

>  <cluster_rmsd>  (26) 
1.07

>  <rmsd>  (26) 
270.37

>  <cluster>  (26) 
1

$$$$
OQAGMIVLLKVZIV-AATRIKPKNA-N
     RDKit          3D

 48 51  0  0  0  0  0  0  0  0999 V2000
  141.2697   72.2136  221.0620 H   0  0  0  0  0  0  0  0  0  0  0  0
  140.3120   72.0540  221.5790 C   0  0  0  0  0  0  0  0  0  0  0  0
  139.9710   70.8090  221.9380 C   0  0  0  0  0  0  0  0  0  0  0  0
  139.7423   70.0613  221.1643 H   0  0  0  0  0  0  0  0  0  0  0  0
  139.9000   70.4340  223.3590 C   0  0  0  0  0  0  0  0  0  0  0  0
  140.4610   71.2800  224.2630 N   0  0  0  0  0  0  0  0  0  0  0  0
  140.4600   71.0090  225.5880 C   0  0  0  0  0  0  0  0  0  0  0  0
  141.0710   71.8960  226.4870 C   0  0  0  0  0  0  0  0  0  0  0  0
  141.5500   72.8131  226.1136 H   0  0  0  0  0  0  0  0  0  0  0  0
  141.0720   71.6160  227.8570 C   0  0  0  0  0  0  0  0  0  0  0  0
  141.5529   72.3123  228.5598 H   0  0  0  0  0  0  0  0  0  0  0  0
  140.4630   70.4530  228.3340 C   0  0  0  0  0  0  0  0  0  0  0  0
  140.4541   70.2424  229.4136 H   0  0  0  0  0  0  0  0  0  0  0  0
  139.8650   69.5560  227.4450 C   0  0  0  0  0  0  0  0  0  0  0  0
  139.3992   68.6350  227.8255 H   0  0  0  0  0  0  0  0  0  0  0  0
  139.8570   69.8280  226.0620 C   0  0  0  0  0  0  0  0  0  0  0  0
  139.2950   68.9470  225.1190 C   0  0  0  0  0  0  0  0  0  0  0  0
  138.7810   67.8640  225.5110 O   0  0  0  0  0  0  0  0  0  0  0  0
  139.3140   69.2600  223.7770 N   0  0  0  0  0  0  0  0  0  0  0  0
  138.8210   68.2770  222.7840 C   0  0  0  0  0  0  0  0  0  0  0  0
  139.5165   68.2418  221.9325 H   0  0  0  0  0  0  0  0  0  0  0  0
  138.7582   67.2879  223.2612 H   0  0  0  0  0  0  0  0  0  0  0  0
  137.4200   68.6800  222.2800 C   0  0  0  0  0  0  0  0  0  0  0  0
  137.4407   69.7365  221.9743 H   0  0  0  0  0  0  0  0  0  0  0  0
  137.1595   68.0309  221.4310 H   0  0  0  0  0  0  0  0  0  0  0  0
  136.3940   68.5040  223.3290 N   0  0  0  0  0  0  0  0  0  0  0  0
  135.1010   68.1070  222.7340 C   0  0  0  0  0  0  0  0  0  0  0  0
  134.8345   68.8238  221.9433 H   0  0  0  0  0  0  0  0  0  0  0  0
  135.2046   67.0935  222.3192 H   0  0  0  0  0  0  0  0  0  0  0  0
  133.9820   68.0890  223.7950 C   0  0  0  0  0  0  0  0  0  0  0  0
  133.2807   68.9119  223.5922 H   0  0  0  0  0  0  0  0  0  0  0  0
  133.4645   67.1198  223.7421 H   0  0  0  0  0  0  0  0  0  0  0  0
  134.5140   68.2450  225.0950 O   0  0  0  0  0  0  0  0  0  0  0  0
  135.1310   69.5150  225.2060 C   0  0  0  0  0  0  0  0  0  0  0  0
  134.3632   70.2936  225.0865 H   0  0  0  0  0  0  0  0  0  0  0  0
  135.6092   69.5729  226.1949 H   0  0  0  0  0  0  0  0  0  0  0  0
  136.2240   69.7270  224.1380 C   0  0  0  0  0  0  0  0  0  0  0  0
  135.9324   70.5593  223.4806 H   0  0  0  0  0  0  0  0  0  0  0  0
  137.1748   69.9588  224.6402 H   0  0  0  0  0  0  0  0  0  0  0  0
  139.4470   73.2200  221.8530 C   0  0  0  0  0  0  0  0  0  0  0  0
  139.9860   74.4500  222.0990 N   0  0  0  0  0  0  0  0  0  0  0  0
  139.1940   75.5290  222.3420 C   0  0  0  0  0  0  0  0  0  0  0  0
  139.6454   76.5107  222.5485 H   0  0  0  0  0  0  0  0  0  0  0  0
  137.8030   75.3840  222.3280 C   0  0  0  0  0  0  0  0  0  0  0  0
  137.1522   76.2568  222.4850 H   0  0  0  0  0  0  0  0  0  0  0  0
  137.2640   74.1570  222.1190 N   0  0  0  0  0  0  0  0  0  0  0  0
  138.0550   73.0700  221.8930 C   0  0  0  0  0  0  0  0  0  0  0  0
  137.6018   72.0790  221.7427 H   0  0  0  0  0  0  0  0  0  0  0  0
  1  2  1  0
  2  3  2  0
  3  4  1  0
  3  5  1  0
  5  6  2  0
  6  7  1  0
  7  8  2  0
  8  9  1  0
  8 10  1  0
 10 11  1  0
 10 12  2  0
 12 13  1  0
 12 14  1  0
 14 15  1  0
 14 16  2  0
 16 17  1  0
 17 18  2  0
 17 19  1  0
 19 20  1  0
 20 21  1  0
 20 22  1  0
 20 23  1  0
 23 24  1  0
 23 25  1  0
 23 26  1  0
 26 27  1  0
 27 28  1  0
 27 29  1  0
 27 30  1  0
 30 31  1  0
 30 32  1  0
 30 33  1  0
 33 34  1  0
 34 35  1  0
 34 36  1  0
 34 37  1  0
 37 38  1  0
 37 39  1  0
  2 40  1  0
 40 41  2  0
 41 42  1  0
 42 43  1  0
 42 44  2  0
 44 45  1  0
 44 46  1  0
 46 47  2  0
 47 48  1  0
 19  5  1  0
 37 26  1  0
 47 40  1  0
 16  7  1  0
M  END
>  <UniqueID>  (27) 
507

>  <SMILES>  (27) 
O=c1c2ccccc2nc(/C=C/c2cnccn2)n1CCN1CCOCC1

>  <Energy>  (27) 
77.15773402139197

>  <Genealogy>  (27) 
O=c1c2ccccc2nc(/C=C/c2cnccn2)n1CCN1CCOCC1 (cis-trans isomerization)
O=c1c2ccccc2nc(/C=C/c2cnccn2)n1CCN1CCOCC1 (3D coordinates assigned)
O=c1c2ccccc2nc(/C=C/c2cnccn2)n1CCN1CCOCC1 (nonaromatic ring conformer: 77.15773402139197 kcal/mol)

>  <smiles>  (27) 
O=c1c2ccccc2nc(/C=C/c2cnccn2)n1CCN1CCOCC1

>  <score_type>  (27) 
oracle

>  <origin>  (27) 
autodockgpu

>  <m_score__min__energy>  (27) 
-7.7300000000000004

>  <m_primary>  (27) 
energy

>  <meeko>  (27) 
{"free_energy": -7.26, "intermolecular_energy": -9.05, "internal_energy": -1.47, "cluster_size": 12, "cluster_id": 1, "rank_in_cluster": 10}

>  <energy>  (27) 
-7.65

>  <cluster_rmsd>  (27) 
0.35

>  <rmsd>  (27) 
270.26

>  <cluster>  (27) 
1

$$$$
OQAGMIVLLKVZIV-AATRIKPKNA-N
     RDKit          3D

 48 51  0  0  0  0  0  0  0  0999 V2000
  140.1878   71.1394  220.9585 H   0  0  0  0  0  0  0  0  0  0  0  0
  139.6630   71.8150  221.6500 C   0  0  0  0  0  0  0  0  0  0  0  0
  138.6930   71.3170  222.4270 C   0  0  0  0  0  0  0  0  0  0  0  0
  137.6505   71.3341  222.0764 H   0  0  0  0  0  0  0  0  0  0  0  0
  139.0100   70.7470  223.7460 C   0  0  0  0  0  0  0  0  0  0  0  0
  139.7890   71.4850  224.5800 N   0  0  0  0  0  0  0  0  0  0  0  0
  140.1480   71.0340  225.8040 C   0  0  0  0  0  0  0  0  0  0  0  0
  140.9730   71.8150  226.6260 C   0  0  0  0  0  0  0  0  0  0  0  0
  141.3283   72.7950  226.2748 H   0  0  0  0  0  0  0  0  0  0  0  0
  141.3450   71.3500  227.8920 C   0  0  0  0  0  0  0  0  0  0  0  0
  141.9928   71.9641  228.5348 H   0  0  0  0  0  0  0  0  0  0  0  0
  140.8940   70.1060  228.3400 C   0  0  0  0  0  0  0  0  0  0  0  0
  141.1781   69.7486  229.3408 H   0  0  0  0  0  0  0  0  0  0  0  0
  140.0840   69.3140  227.5230 C   0  0  0  0  0  0  0  0  0  0  0  0
  139.7435   68.3296  227.8764 H   0  0  0  0  0  0  0  0  0  0  0  0
  139.7020   69.7740  226.2460 C   0  0  0  0  0  0  0  0  0  0  0  0
  138.9120   69.0070  225.3690 C   0  0  0  0  0  0  0  0  0  0  0  0
  138.5290   67.8580  225.7230 O   0  0  0  0  0  0  0  0  0  0  0  0
  138.5660   69.5010  224.1300 N   0  0  0  0  0  0  0  0  0  0  0  0
  137.8290   68.6440  223.1730 C   0  0  0  0  0  0  0  0  0  0  0  0
  138.3420   68.6628  222.2001 H   0  0  0  0  0  0  0  0  0  0  0  0
  137.7985   67.6164  223.5643 H   0  0  0  0  0  0  0  0  0  0  0  0
  136.3850   69.1550  222.9960 C   0  0  0  0  0  0  0  0  0  0  0  0
  136.4106   70.2375  222.8021 H   0  0  0  0  0  0  0  0  0  0  0  0
  135.9300   68.6155  222.1522 H   0  0  0  0  0  0  0  0  0  0  0  0
  135.5680   68.9030  224.2000 N   0  0  0  0  0  0  0  0  0  0  0  0
  134.3140   68.2050  223.8460 C   0  0  0  0  0  0  0  0  0  0  0  0
  133.8024   68.7674  223.0510 H   0  0  0  0  0  0  0  0  0  0  0  0
  134.5649   67.1903  223.5034 H   0  0  0  0  0  0  0  0  0  0  0  0
  133.3760   68.0910  225.0650 C   0  0  0  0  0  0  0  0  0  0  0  0
  132.5014   68.7393  224.9078 H   0  0  0  0  0  0  0  0  0  0  0  0
  133.0638   67.0415  225.1701 H   0  0  0  0  0  0  0  0  0  0  0  0
  134.0360   68.4850  226.2500 O   0  0  0  0  0  0  0  0  0  0  0  0
  134.3910   69.8540  226.1630 C   0  0  0  0  0  0  0  0  0  0  0  0
  133.4720   70.4553  226.1009 H   0  0  0  0  0  0  0  0  0  0  0  0
  134.9759   70.1093  227.0589 H   0  0  0  0  0  0  0  0  0  0  0  0
  135.2640   70.1510  224.9260 C   0  0  0  0  0  0  0  0  0  0  0  0
  134.7237   70.8371  224.2572 H   0  0  0  0  0  0  0  0  0  0  0  0
  136.2072   70.6105  225.2566 H   0  0  0  0  0  0  0  0  0  0  0  0
  140.0540   73.2400  221.6880 C   0  0  0  0  0  0  0  0  0  0  0  0
  139.2650   74.1660  222.3040 N   0  0  0  0  0  0  0  0  0  0  0  0
  139.6250   75.4780  222.3500 C   0  0  0  0  0  0  0  0  0  0  0  0
  138.9724   76.2134  222.8432 H   0  0  0  0  0  0  0  0  0  0  0  0
  140.8290   75.8860  221.7670 C   0  0  0  0  0  0  0  0  0  0  0  0
  141.1487   76.9366  221.8308 H   0  0  0  0  0  0  0  0  0  0  0  0
  141.5990   74.9740  221.1220 N   0  0  0  0  0  0  0  0  0  0  0  0
  141.2320   73.6630  221.0580 C   0  0  0  0  0  0  0  0  0  0  0  0
  141.8578   72.9401  220.5141 H   0  0  0  0  0  0  0  0  0  0  0  0
  1  2  1  0
  2  3  2  0
  3  4  1  0
  3  5  1  0
  5  6  2  0
  6  7  1  0
  7  8  2  0
  8  9  1  0
  8 10  1  0
 10 11  1  0
 10 12  2  0
 12 13  1  0
 12 14  1  0
 14 15  1  0
 14 16  2  0
 16 17  1  0
 17 18  2  0
 17 19  1  0
 19 20  1  0
 20 21  1  0
 20 22  1  0
 20 23  1  0
 23 24  1  0
 23 25  1  0
 23 26  1  0
 26 27  1  0
 27 28  1  0
 27 29  1  0
 27 30  1  0
 30 31  1  0
 30 32  1  0
 30 33  1  0
 33 34  1  0
 34 35  1  0
 34 36  1  0
 34 37  1  0
 37 38  1  0
 37 39  1  0
  2 40  1  0
 40 41  2  0
 41 42  1  0
 42 43  1  0
 42 44  2  0
 44 45  1  0
 44 46  1  0
 46 47  2  0
 47 48  1  0
 19  5  1  0
 37 26  1  0
 47 40  1  0
 16  7  1  0
M  END
>  <UniqueID>  (28) 
507

>  <SMILES>  (28) 
O=c1c2ccccc2nc(/C=C/c2cnccn2)n1CCN1CCOCC1

>  <Energy>  (28) 
77.15773402139197

>  <Genealogy>  (28) 
O=c1c2ccccc2nc(/C=C/c2cnccn2)n1CCN1CCOCC1 (cis-trans isomerization)
O=c1c2ccccc2nc(/C=C/c2cnccn2)n1CCN1CCOCC1 (3D coordinates assigned)
O=c1c2ccccc2nc(/C=C/c2cnccn2)n1CCN1CCOCC1 (nonaromatic ring conformer: 77.15773402139197 kcal/mol)

>  <smiles>  (28) 
O=c1c2ccccc2nc(/C=C/c2cnccn2)n1CCN1CCOCC1

>  <score_type>  (28) 
oracle

>  <origin>  (28) 
autodockgpu

>  <m_score__min__energy>  (28) 
-7.7300000000000004

>  <m_primary>  (28) 
energy

>  <meeko>  (28) 
{"free_energy": -7.6, "intermolecular_energy": -9.39, "internal_energy": -1.21, "cluster_size": 12, "cluster_id": 1, "rank_in_cluster": 8}

>  <energy>  (28) 
-7.6

>  <cluster_rmsd>  (28) 
0.82

>  <rmsd>  (28) 
270.36

>  <cluster>  (28) 
1

$$$$
OQAGMIVLLKVZIV-AATRIKPKNA-N
     RDKit          3D

 48 51  0  0  0  0  0  0  0  0999 V2000
  140.5094   70.3624  222.0770 H   0  0  0  0  0  0  0  0  0  0  0  0
  140.0150   71.1320  222.6880 C   0  0  0  0  0  0  0  0  0  0  0  0
  139.3180   72.0970  222.0720 C   0  0  0  0  0  0  0  0  0  0  0  0
  138.2868   71.9003  221.7433 H   0  0  0  0  0  0  0  0  0  0  0  0
  139.9210   73.4170  221.8320 C   0  0  0  0  0  0  0  0  0  0  0  0
  139.2930   74.5020  222.3560 N   0  0  0  0  0  0  0  0  0  0  0  0
  139.7640   75.7570  222.1710 C   0  0  0  0  0  0  0  0  0  0  0  0
  139.0730   76.8520  222.7080 C   0  0  0  0  0  0  0  0  0  0  0  0
  138.1475   76.6906  223.2802 H   0  0  0  0  0  0  0  0  0  0  0  0
  139.5590   78.1500  222.5170 C   0  0  0  0  0  0  0  0  0  0  0  0
  139.0150   79.0078  222.9391 H   0  0  0  0  0  0  0  0  0  0  0  0
  140.7340   78.3580  221.7910 C   0  0  0  0  0  0  0  0  0  0  0  0
  141.1199   79.3788  221.6532 H   0  0  0  0  0  0  0  0  0  0  0  0
  141.4210   77.2730  221.2390 C   0  0  0  0  0  0  0  0  0  0  0  0
  142.3382   77.4437  220.6562 H   0  0  0  0  0  0  0  0  0  0  0  0
  140.9420   75.9610  221.4270 C   0  0  0  0  0  0  0  0  0  0  0  0
  141.5760   74.8340  220.8700 C   0  0  0  0  0  0  0  0  0  0  0  0
  142.6120   74.9910  220.1660 O   0  0  0  0  0  0  0  0  0  0  0  0
  141.0660   73.5730  221.0820 N   0  0  0  0  0  0  0  0  0  0  0  0
  141.6770   72.4060  220.4020 C   0  0  0  0  0  0  0  0  0  0  0  0
  140.9476   71.5833  220.3683 H   0  0  0  0  0  0  0  0  0  0  0  0
  141.9647   72.6981  219.3812 H   0  0  0  0  0  0  0  0  0  0  0  0
  142.9350   71.9390  221.1620 C   0  0  0  0  0  0  0  0  0  0  0  0
  142.9965   72.4806  222.1175 H   0  0  0  0  0  0  0  0  0  0  0  0
  142.8532   70.8549  221.3296 H   0  0  0  0  0  0  0  0  0  0  0  0
  144.1650   72.1950  220.3860 N   0  0  0  0  0  0  0  0  0  0  0  0
  145.0410   73.1520  221.0940 C   0  0  0  0  0  0  0  0  0  0  0  0
  144.4599   74.0510  221.3472 H   0  0  0  0  0  0  0  0  0  0  0  0
  145.4221   72.6676  222.0051 H   0  0  0  0  0  0  0  0  0  0  0  0
  146.2430   73.5600  220.2180 C   0  0  0  0  0  0  0  0  0  0  0  0
  146.1309   74.6134  219.9218 H   0  0  0  0  0  0  0  0  0  0  0  0
  147.1650   73.4192  220.8012 H   0  0  0  0  0  0  0  0  0  0  0  0
  146.3190   72.7590  219.0560 O   0  0  0  0  0  0  0  0  0  0  0  0
  145.1690   72.9730  218.2570 C   0  0  0  0  0  0  0  0  0  0  0  0
  145.1632   74.0192  217.9173 H   0  0  0  0  0  0  0  0  0  0  0  0
  145.2138   72.2767  217.4067 H   0  0  0  0  0  0  0  0  0  0  0  0
  143.8630   72.6940  219.0300 C   0  0  0  0  0  0  0  0  0  0  0  0
  143.2816   73.6246  219.1072 H   0  0  0  0  0  0  0  0  0  0  0  0
  143.2841   71.9308  218.4893 H   0  0  0  0  0  0  0  0  0  0  0  0
  140.1430   71.0650  224.1580 C   0  0  0  0  0  0  0  0  0  0  0  0
  140.9690   71.9180  224.8300 N   0  0  0  0  0  0  0  0  0  0  0  0
  141.0830   71.8660  226.1850 C   0  0  0  0  0  0  0  0  0  0  0  0
  141.7610   72.5553  226.7096 H   0  0  0  0  0  0  0  0  0  0  0  0
  140.3340   70.9320  226.9070 C   0  0  0  0  0  0  0  0  0  0  0  0
  140.3890   70.9062  228.0053 H   0  0  0  0  0  0  0  0  0  0  0  0
  139.5390   70.0580  226.2410 N   0  0  0  0  0  0  0  0  0  0  0  0
  139.4360   70.0950  224.8820 C   0  0  0  0  0  0  0  0  0  0  0  0
  138.8010   69.3669  224.3561 H   0  0  0  0  0  0  0  0  0  0  0  0
  1  2  1  0
  2  3  2  0
  3  4  1  0
  3  5  1  0
  5  6  2  0
  6  7  1  0
  7  8  2  0
  8  9  1  0
  8 10  1  0
 10 11  1  0
 10 12  2  0
 12 13  1  0
 12 14  1  0
 14 15  1  0
 14 16  2  0
 16 17  1  0
 17 18  2  0
 17 19  1  0
 19 20  1  0
 20 21  1  0
 20 22  1  0
 20 23  1  0
 23 24  1  0
 23 25  1  0
 23 26  1  0
 26 27  1  0
 27 28  1  0
 27 29  1  0
 27 30  1  0
 30 31  1  0
 30 32  1  0
 30 33  1  0
 33 34  1  0
 34 35  1  0
 34 36  1  0
 34 37  1  0
 37 38  1  0
 37 39  1  0
  2 40  1  0
 40 41  2  0
 41 42  1  0
 42 43  1  0
 42 44  2  0
 44 45  1  0
 44 46  1  0
 46 47  2  0
 47 48  1  0
 19  5  1  0
 37 26  1  0
 47 40  1  0
 16  7  1  0
M  END
>  <UniqueID>  (29) 
507

>  <SMILES>  (29) 
O=c1c2ccccc2nc(/C=C/c2cnccn2)n1CCN1CCOCC1

>  <Energy>  (29) 
77.15773402139197

>  <Genealogy>  (29) 
O=c1c2ccccc2nc(/C=C/c2cnccn2)n1CCN1CCOCC1 (cis-trans isomerization)
O=c1c2ccccc2nc(/C=C/c2cnccn2)n1CCN1CCOCC1 (3D coordinates assigned)
O=c1c2ccccc2nc(/C=C/c2cnccn2)n1CCN1CCOCC1 (nonaromatic ring conformer: 77.15773402139197 kcal/mol)

>  <smiles>  (29) 
O=c1c2ccccc2nc(/C=C/c2cnccn2)n1CCN1CCOCC1

>  <score_type>  (29) 
oracle

>  <origin>  (29) 
autodockgpu

>  <m_score__min__energy>  (29) 
-7.7300000000000004

>  <m_primary>  (29) 
energy

>  <meeko>  (29) 
{"free_energy": -6.61, "intermolecular_energy": -8.4, "internal_energy": -1.21, "cluster_size": 1, "cluster_id": 3, "rank_in_cluster": 1}

>  <energy>  (29) 
-7.37

>  <cluster_rmsd>  (29) 
0.9

>  <rmsd>  (29) 
270.12

>  <cluster>  (29) 
1

$$$$
OQAGMIVLLKVZIV-AATRIKPKNA-N
     RDKit          3D

 48 51  0  0  0  0  0  0  0  0999 V2000
  141.2851   71.1641  221.0836 H   0  0  0  0  0  0  0  0  0  0  0  0
  140.5600   71.8540  221.5400 C   0  0  0  0  0  0  0  0  0  0  0  0
  139.5000   71.3450  222.1820 C   0  0  0  0  0  0  0  0  0  0  0  0
  138.5075   71.3785  221.7088 H   0  0  0  0  0  0  0  0  0  0  0  0
  139.6530   70.7420  223.5140 C   0  0  0  0  0  0  0  0  0  0  0  0
  140.1970   71.5080  224.4960 N   0  0  0  0  0  0  0  0  0  0  0  0
  140.3930   71.0320  225.7460 C   0  0  0  0  0  0  0  0  0  0  0  0
  140.9810   71.8480  226.7240 C   0  0  0  0  0  0  0  0  0  0  0  0
  141.2821   72.8759  226.4733 H   0  0  0  0  0  0  0  0  0  0  0  0
  141.1850   71.3560  228.0180 C   0  0  0  0  0  0  0  0  0  0  0  0
  141.6475   71.9970  228.7830 H   0  0  0  0  0  0  0  0  0  0  0  0
  140.8020   70.0520  228.3390 C   0  0  0  0  0  0  0  0  0  0  0  0
  140.9510   69.6732  229.3609 H   0  0  0  0  0  0  0  0  0  0  0  0
  140.2300   69.2260  227.3670 C   0  0  0  0  0  0  0  0  0  0  0  0
  139.9441   68.1949  227.6219 H   0  0  0  0  0  0  0  0  0  0  0  0
  140.0190   69.7120  226.0610 C   0  0  0  0  0  0  0  0  0  0  0  0
  139.4740   68.9170  225.0350 C   0  0  0  0  0  0  0  0  0  0  0  0
  139.1640   67.7180  225.2780 O   0  0  0  0  0  0  0  0  0  0  0  0
  139.2890   69.4390  223.7740 N   0  0  0  0  0  0  0  0  0  0  0  0
  138.8180   68.5630  222.6740 C   0  0  0  0  0  0  0  0  0  0  0  0
  139.5065   68.6509  221.8206 H   0  0  0  0  0  0  0  0  0  0  0  0
  138.7910   67.5234  223.0325 H   0  0  0  0  0  0  0  0  0  0  0  0
  137.4010   68.9750  222.2280 C   0  0  0  0  0  0  0  0  0  0  0  0
  137.3859   70.0594  222.0439 H   0  0  0  0  0  0  0  0  0  0  0  0
  137.1527   68.4177  221.3127 H   0  0  0  0  0  0  0  0  0  0  0  0
  136.3910   68.6490  223.2560 N   0  0  0  0  0  0  0  0  0  0  0  0
  135.1080   68.2710  222.6270 C   0  0  0  0  0  0  0  0  0  0  0  0
  134.8086   69.0591  221.9205 H   0  0  0  0  0  0  0  0  0  0  0  0
  135.2449   67.3133  222.1035 H   0  0  0  0  0  0  0  0  0  0  0  0
  134.0000   68.0960  223.6850 C   0  0  0  0  0  0  0  0  0  0  0  0
  133.2671   68.9090  223.5758 H   0  0  0  0  0  0  0  0  0  0  0  0
  133.5190   67.1190  223.5295 H   0  0  0  0  0  0  0  0  0  0  0  0
  134.5360   68.1300  224.9920 O   0  0  0  0  0  0  0  0  0  0  0  0
  135.1080   69.4030  225.2370 C   0  0  0  0  0  0  0  0  0  0  0  0
  134.3117   70.1612  225.2054 H   0  0  0  0  0  0  0  0  0  0  0  0
  135.5918   69.3714  226.2244 H   0  0  0  0  0  0  0  0  0  0  0  0
  136.1840   69.7690  224.1940 C   0  0  0  0  0  0  0  0  0  0  0  0
  135.8577   70.6568  223.6325 H   0  0  0  0  0  0  0  0  0  0  0  0
  137.1300   69.9786  224.7148 H   0  0  0  0  0  0  0  0  0  0  0  0
  140.7900   73.3090  221.4230 C   0  0  0  0  0  0  0  0  0  0  0  0
  139.9440   74.2020  222.0120 N   0  0  0  0  0  0  0  0  0  0  0  0
  140.1570   75.5430  221.9150 C   0  0  0  0  0  0  0  0  0  0  0  0
  139.4592   76.2495  222.3882 H   0  0  0  0  0  0  0  0  0  0  0  0
  141.2670   76.0170  221.2110 C   0  0  0  0  0  0  0  0  0  0  0  0
  141.4710   77.0967  221.1592 H   0  0  0  0  0  0  0  0  0  0  0  0
  142.0910   75.1350  220.5920 N   0  0  0  0  0  0  0  0  0  0  0  0
  141.8700   73.7920  220.6720 C   0  0  0  0  0  0  0  0  0  0  0  0
  142.5367   73.0905  220.1492 H   0  0  0  0  0  0  0  0  0  0  0  0
  1  2  1  0
  2  3  2  0
  3  4  1  0
  3  5  1  0
  5  6  2  0
  6  7  1  0
  7  8  2  0
  8  9  1  0
  8 10  1  0
 10 11  1  0
 10 12  2  0
 12 13  1  0
 12 14  1  0
 14 15  1  0
 14 16  2  0
 16 17  1  0
 17 18  2  0
 17 19  1  0
 19 20  1  0
 20 21  1  0
 20 22  1  0
 20 23  1  0
 23 24  1  0
 23 25  1  0
 23 26  1  0
 26 27  1  0
 27 28  1  0
 27 29  1  0
 27 30  1  0
 30 31  1  0
 30 32  1  0
 30 33  1  0
 33 34  1  0
 34 35  1  0
 34 36  1  0
 34 37  1  0
 37 38  1  0
 37 39  1  0
  2 40  1  0
 40 41  2  0
 41 42  1  0
 42 43  1  0
 42 44  2  0
 44 45  1  0
 44 46  1  0
 46 47  2  0
 47 48  1  0
 19  5  1  0
 37 26  1  0
 47 40  1  0
 16  7  1  0
M  END
>  <UniqueID>  (30) 
507

>  <SMILES>  (30) 
O=c1c2ccccc2nc(/C=C/c2cnccn2)n1CCN1CCOCC1

>  <Energy>  (30) 
77.15773402139197

>  <Genealogy>  (30) 
O=c1c2ccccc2nc(/C=C/c2cnccn2)n1CCN1CCOCC1 (cis-trans isomerization)
O=c1c2ccccc2nc(/C=C/c2cnccn2)n1CCN1CCOCC1 (3D coordinates assigned)
O=c1c2ccccc2nc(/C=C/c2cnccn2)n1CCN1CCOCC1 (nonaromatic ring conformer: 77.15773402139197 kcal/mol)

>  <smiles>  (30) 
O=c1c2ccccc2nc(/C=C/c2cnccn2)n1CCN1CCOCC1

>  <score_type>  (30) 
oracle

>  <origin>  (30) 
autodockgpu

>  <m_score__min__energy>  (30) 
-7.7300000000000004

>  <m_primary>  (30) 
energy

>  <meeko>  (30) 
{"free_energy": -7.73, "intermolecular_energy": -9.52, "internal_energy": -1.18, "cluster_size": 12, "cluster_id": 1, "rank_in_cluster": 1}

>  <energy>  (30) 
-7.26

>  <cluster_rmsd>  (30) 
0.99

>  <rmsd>  (30) 
270.09

>  <cluster>  (30) 
1

$$$$
OQAGMIVLLKVZIV-AATRIKPKNA-N
     RDKit          3D

 48 51  0  0  0  0  0  0  0  0999 V2000
  136.0602   68.1062  221.9085 H   0  0  0  0  0  0  0  0  0  0  0  0
  136.6120   68.5430  222.7540 C   0  0  0  0  0  0  0  0  0  0  0  0
  137.9480   68.4430  222.7740 C   0  0  0  0  0  0  0  0  0  0  0  0
  138.4711   67.9523  221.9400 H   0  0  0  0  0  0  0  0  0  0  0  0
  138.7200   68.9840  223.9020 C   0  0  0  0  0  0  0  0  0  0  0  0
  138.8850   68.1900  224.9930 N   0  0  0  0  0  0  0  0  0  0  0  0
  139.5640   68.6100  226.0850 C   0  0  0  0  0  0  0  0  0  0  0  0
  139.6910   67.7690  227.2000 C   0  0  0  0  0  0  0  0  0  0  0  0
  139.2386   66.7664  227.1859 H   0  0  0  0  0  0  0  0  0  0  0  0
  140.3920   68.2030  228.3300 C   0  0  0  0  0  0  0  0  0  0  0  0
  140.4880   67.5425  229.2044 H   0  0  0  0  0  0  0  0  0  0  0  0
  140.9700   69.4740  228.3490 C   0  0  0  0  0  0  0  0  0  0  0  0
  141.5325   69.8066  229.2339 H   0  0  0  0  0  0  0  0  0  0  0  0
  140.8370   70.3250  227.2490 C   0  0  0  0  0  0  0  0  0  0  0  0
  141.2824   71.3304  227.2760 H   0  0  0  0  0  0  0  0  0  0  0  0
  140.1330   69.8980  226.1040 C   0  0  0  0  0  0  0  0  0  0  0  0
  139.9420   70.7230  224.9790 C   0  0  0  0  0  0  0  0  0  0  0  0
  140.4070   71.8950  224.9840 O   0  0  0  0  0  0  0  0  0  0  0  0
  139.2450   70.2580  223.8860 N   0  0  0  0  0  0  0  0  0  0  0  0
  138.9550   71.1690  222.7540 C   0  0  0  0  0  0  0  0  0  0  0  0
  138.4122   70.6159  221.9733 H   0  0  0  0  0  0  0  0  0  0  0  0
  138.3426   72.0072  223.1179 H   0  0  0  0  0  0  0  0  0  0  0  0
  140.2660   71.7260  222.1640 C   0  0  0  0  0  0  0  0  0  0  0  0
  141.1155   71.3074  222.7237 H   0  0  0  0  0  0  0  0  0  0  0  0
  140.3148   71.4394  221.1031 H   0  0  0  0  0  0  0  0  0  0  0  0
  140.3170   73.2000  222.2470 N   0  0  0  0  0  0  0  0  0  0  0  0
  138.9870   73.7850  221.9760 C   0  0  0  0  0  0  0  0  0  0  0  0
  138.6087   73.3896  221.0218 H   0  0  0  0  0  0  0  0  0  0  0  0
  138.3126   73.5151  222.8021 H   0  0  0  0  0  0  0  0  0  0  0  0
  139.0620   75.3230  221.8890 C   0  0  0  0  0  0  0  0  0  0  0  0
  138.8832   75.6335  220.8490 H   0  0  0  0  0  0  0  0  0  0  0  0
  138.2977   75.7491  222.5556 H   0  0  0  0  0  0  0  0  0  0  0  0
  140.3300   75.7930  222.3000 O   0  0  0  0  0  0  0  0  0  0  0  0
  141.3250   75.3060  221.4160 C   0  0  0  0  0  0  0  0  0  0  0  0
  141.1449   75.7244  220.4148 H   0  0  0  0  0  0  0  0  0  0  0  0
  142.3054   75.6142  221.8082 H   0  0  0  0  0  0  0  0  0  0  0  0
  141.3160   73.7660  221.3200 C   0  0  0  0  0  0  0  0  0  0  0  0
  141.0657   73.4682  220.2911 H   0  0  0  0  0  0  0  0  0  0  0  0
  142.3116   73.3851  221.5914 H   0  0  0  0  0  0  0  0  0  0  0  0
  135.8530   69.2190  223.8270 C   0  0  0  0  0  0  0  0  0  0  0  0
  135.0730   68.5060  224.6900 N   0  0  0  0  0  0  0  0  0  0  0  0
  134.3800   69.1230  225.6860 C   0  0  0  0  0  0  0  0  0  0  0  0
  133.7488   68.5339  226.3676 H   0  0  0  0  0  0  0  0  0  0  0  0
  134.4750   70.5100  225.8380 C   0  0  0  0  0  0  0  0  0  0  0  0
  133.9502   71.0151  226.6623 H   0  0  0  0  0  0  0  0  0  0  0  0
  135.2200   71.2270  224.9600 N   0  0  0  0  0  0  0  0  0  0  0  0
  135.9010   70.6140  223.9500 C   0  0  0  0  0  0  0  0  0  0  0  0
  136.4853   71.2119  223.2351 H   0  0  0  0  0  0  0  0  0  0  0  0
  1  2  1  0
  2  3  2  0
  3  4  1  0
  3  5  1  0
  5  6  2  0
  6  7  1  0
  7  8  2  0
  8  9  1  0
  8 10  1  0
 10 11  1  0
 10 12  2  0
 12 13  1  0
 12 14  1  0
 14 15  1  0
 14 16  2  0
 16 17  1  0
 17 18  2  0
 17 19  1  0
 19 20  1  0
 20 21  1  0
 20 22  1  0
 20 23  1  0
 23 24  1  0
 23 25  1  0
 23 26  1  0
 26 27  1  0
 27 28  1  0
 27 29  1  0
 27 30  1  0
 30 31  1  0
 30 32  1  0
 30 33  1  0
 33 34  1  0
 34 35  1  0
 34 36  1  0
 34 37  1  0
 37 38  1  0
 37 39  1  0
  2 40  1  0
 40 41  2  0
 41 42  1  0
 42 43  1  0
 42 44  2  0
 44 45  1  0
 44 46  1  0
 46 47  2  0
 47 48  1  0
 19  5  1  0
 37 26  1  0
 47 40  1  0
 16  7  1  0
M  END
>  <UniqueID>  (31) 
507

>  <SMILES>  (31) 
O=c1c2ccccc2nc(/C=C/c2cnccn2)n1CCN1CCOCC1

>  <Energy>  (31) 
77.15773402139197

>  <Genealogy>  (31) 
O=c1c2ccccc2nc(/C=C/c2cnccn2)n1CCN1CCOCC1 (cis-trans isomerization)
O=c1c2ccccc2nc(/C=C/c2cnccn2)n1CCN1CCOCC1 (3D coordinates assigned)
O=c1c2ccccc2nc(/C=C/c2cnccn2)n1CCN1CCOCC1 (nonaromatic ring conformer: 77.15773402139197 kcal/mol)

>  <smiles>  (31) 
O=c1c2ccccc2nc(/C=C/c2cnccn2)n1CCN1CCOCC1

>  <score_type>  (31) 
oracle

>  <origin>  (31) 
autodockgpu

>  <m_score__min__energy>  (31) 
-7.7300000000000004

>  <m_primary>  (31) 
energy

>  <meeko>  (31) 
{"free_energy": -7.42, "intermolecular_energy": -9.21, "internal_energy": -1.29, "cluster_size": 5, "cluster_id": 2, "rank_in_cluster": 4}

>  <energy>  (31) 
-6.89

>  <cluster_rmsd>  (31) 
1.22

>  <rmsd>  (31) 
270.45

>  <cluster>  (31) 
1

$$$$
OQAGMIVLLKVZIV-AATRIKPKNA-N
     RDKit          3D

 48 51  0  0  0  0  0  0  0  0999 V2000
  139.3127   71.2161  221.0834 H   0  0  0  0  0  0  0  0  0  0  0  0
  138.9250   71.8570  221.8890 C   0  0  0  0  0  0  0  0  0  0  0  0
  138.1020   71.3220  222.8000 C   0  0  0  0  0  0  0  0  0  0  0  0
  137.0149   71.3454  222.6335 H   0  0  0  0  0  0  0  0  0  0  0  0
  138.6400   70.7030  224.0220 C   0  0  0  0  0  0  0  0  0  0  0  0
  139.3810   71.4850  224.8500 N   0  0  0  0  0  0  0  0  0  0  0  0
  139.9320   70.9980  225.9860 C   0  0  0  0  0  0  0  0  0  0  0  0
  140.7110   71.8310  226.8020 C   0  0  0  0  0  0  0  0  0  0  0  0
  140.8733   72.8813  226.5182 H   0  0  0  0  0  0  0  0  0  0  0  0
  141.2820   71.3290  227.9760 C   0  0  0  0  0  0  0  0  0  0  0  0
  141.8936   71.9842  228.6137 H   0  0  0  0  0  0  0  0  0  0  0  0
  141.0760   69.9960  228.3390 C   0  0  0  0  0  0  0  0  0  0  0  0
  141.5155   69.6075  229.2696 H   0  0  0  0  0  0  0  0  0  0  0  0
  140.3140   69.1540  227.5250 C   0  0  0  0  0  0  0  0  0  0  0  0
  140.1670   68.1016  227.8094 H   0  0  0  0  0  0  0  0  0  0  0  0
  139.7330   69.6500  226.3400 C   0  0  0  0  0  0  0  0  0  0  0  0
  138.9800   68.8410  225.4670 C   0  0  0  0  0  0  0  0  0  0  0  0
  138.8170   67.6200  225.7400 O   0  0  0  0  0  0  0  0  0  0  0  0
  138.4340   69.3740  224.3200 N   0  0  0  0  0  0  0  0  0  0  0  0
  137.7390   68.4910  223.3550 C   0  0  0  0  0  0  0  0  0  0  0  0
  138.2818   68.5008  222.3983 H   0  0  0  0  0  0  0  0  0  0  0  0
  137.7101   67.4694  223.7619 H   0  0  0  0  0  0  0  0  0  0  0  0
  136.2940   68.9800  223.1250 C   0  0  0  0  0  0  0  0  0  0  0  0
  136.3193   70.0343  222.8124 H   0  0  0  0  0  0  0  0  0  0  0  0
  135.8372   68.3508  222.3469 H   0  0  0  0  0  0  0  0  0  0  0  0
  135.4800   68.8630  224.3510 N   0  0  0  0  0  0  0  0  0  0  0  0
  134.1860   68.2120  224.0600 C   0  0  0  0  0  0  0  0  0  0  0  0
  133.6963   68.7421  223.2298 H   0  0  0  0  0  0  0  0  0  0  0  0
  134.3767   67.1625  223.7913 H   0  0  0  0  0  0  0  0  0  0  0  0
  133.2580   68.2400  225.2920 C   0  0  0  0  0  0  0  0  0  0  0  0
  132.4175   68.9213  225.0938 H   0  0  0  0  0  0  0  0  0  0  0  0
  132.8915   67.2196  225.4779 H   0  0  0  0  0  0  0  0  0  0  0  0
  133.9530   68.6850  226.4400 O   0  0  0  0  0  0  0  0  0  0  0  0
  134.3810   70.0220  226.2470 C   0  0  0  0  0  0  0  0  0  0  0  0
  133.4954   70.6669  226.1479 H   0  0  0  0  0  0  0  0  0  0  0  0
  134.9906   70.3108  227.1159 H   0  0  0  0  0  0  0  0  0  0  0  0
  135.2530   70.1770  224.9830 C   0  0  0  0  0  0  0  0  0  0  0  0
  134.7418   70.8393  224.2689 H   0  0  0  0  0  0  0  0  0  0  0  0
  136.2237   70.6079  225.2695 H   0  0  0  0  0  0  0  0  0  0  0  0
  139.3310   73.2770  221.9270 C   0  0  0  0  0  0  0  0  0  0  0  0
  138.3980   74.2720  221.9610 N   0  0  0  0  0  0  0  0  0  0  0  0
  138.7660   75.5810  222.0050 C   0  0  0  0  0  0  0  0  0  0  0  0
  138.0003   76.3706  222.0200 H   0  0  0  0  0  0  0  0  0  0  0  0
  140.1230   75.9170  222.0310 C   0  0  0  0  0  0  0  0  0  0  0  0
  140.4328   76.9697  222.1075 H   0  0  0  0  0  0  0  0  0  0  0  0
  141.0540   74.9330  221.9610 N   0  0  0  0  0  0  0  0  0  0  0  0
  140.6890   73.6220  221.8970 C   0  0  0  0  0  0  0  0  0  0  0  0
  141.4567   72.8378  221.8221 H   0  0  0  0  0  0  0  0  0  0  0  0
  1  2  1  0
  2  3  2  0
  3  4  1  0
  3  5  1  0
  5  6  2  0
  6  7  1  0
  7  8  2  0
  8  9  1  0
  8 10  1  0
 10 11  1  0
 10 12  2  0
 12 13  1  0
 12 14  1  0
 14 15  1  0
 14 16  2  0
 16 17  1  0
 17 18  2  0
 17 19  1  0
 19 20  1  0
 20 21  1  0
 20 22  1  0
 20 23  1  0
 23 24  1  0
 23 25  1  0
 23 26  1  0
 26 27  1  0
 27 28  1  0
 27 29  1  0
 27 30  1  0
 30 31  1  0
 30 32  1  0
 30 33  1  0
 33 34  1  0
 34 35  1  0
 34 36  1  0
 34 37  1  0
 37 38  1  0
 37 39  1  0
  2 40  1  0
 40 41  2  0
 41 42  1  0
 42 43  1  0
 42 44  2  0
 44 45  1  0
 44 46  1  0
 46 47  2  0
 47 48  1  0
 19  5  1  0
 37 26  1  0
 47 40  1  0
 16  7  1  0
M  END
>  <UniqueID>  (32) 
507

>  <SMILES>  (32) 
O=c1c2ccccc2nc(/C=C/c2cnccn2)n1CCN1CCOCC1

>  <Energy>  (32) 
77.15773402139197

>  <Genealogy>  (32) 
O=c1c2ccccc2nc(/C=C/c2cnccn2)n1CCN1CCOCC1 (cis-trans isomerization)
O=c1c2ccccc2nc(/C=C/c2cnccn2)n1CCN1CCOCC1 (3D coordinates assigned)
O=c1c2ccccc2nc(/C=C/c2cnccn2)n1CCN1CCOCC1 (nonaromatic ring conformer: 77.15773402139197 kcal/mol)

>  <smiles>  (32) 
O=c1c2ccccc2nc(/C=C/c2cnccn2)n1CCN1CCOCC1

>  <score_type>  (32) 
oracle

>  <origin>  (32) 
autodockgpu

>  <m_score__min__energy>  (32) 
-7.7300000000000004

>  <m_primary>  (32) 
energy

>  <meeko>  (32) 
{"free_energy": -7.65, "intermolecular_energy": -9.44, "internal_energy": -1.13, "cluster_size": 12, "cluster_id": 1, "rank_in_cluster": 6}

>  <energy>  (32) 
-6.89

>  <cluster_rmsd>  (32) 
1.27

>  <rmsd>  (32) 
270.34

>  <cluster>  (32) 
1

$$$$
OQAGMIVLLKVZIV-AATRIKPKNA-N
     RDKit          3D

 48 51  0  0  0  0  0  0  0  0999 V2000
  136.0016   67.9736  221.9906 H   0  0  0  0  0  0  0  0  0  0  0  0
  136.5560   68.4760  222.7970 C   0  0  0  0  0  0  0  0  0  0  0  0
  137.8950   68.4190  222.7930 C   0  0  0  0  0  0  0  0  0  0  0  0
  138.4192   67.9567  221.9436 H   0  0  0  0  0  0  0  0  0  0  0  0
  138.6690   68.9700  223.9160 C   0  0  0  0  0  0  0  0  0  0  0  0
  138.8550   68.1770  225.0030 N   0  0  0  0  0  0  0  0  0  0  0  0
  139.5370   68.6050  226.0900 C   0  0  0  0  0  0  0  0  0  0  0  0
  139.6870   67.7640  227.2020 C   0  0  0  0  0  0  0  0  0  0  0  0
  139.2501   66.7546  227.1896 H   0  0  0  0  0  0  0  0  0  0  0  0
  140.3910   68.2060  228.3270 C   0  0  0  0  0  0  0  0  0  0  0  0
  140.5054   67.5449  229.1987 H   0  0  0  0  0  0  0  0  0  0  0  0
  140.9490   69.4870  228.3440 C   0  0  0  0  0  0  0  0  0  0  0  0
  141.5131   69.8275  229.2249 H   0  0  0  0  0  0  0  0  0  0  0  0
  140.7930   70.3370  227.2460 C   0  0  0  0  0  0  0  0  0  0  0  0
  141.2234   71.3490  227.2707 H   0  0  0  0  0  0  0  0  0  0  0  0
  140.0860   69.9020  226.1070 C   0  0  0  0  0  0  0  0  0  0  0  0
  139.8720   70.7260  224.9860 C   0  0  0  0  0  0  0  0  0  0  0  0
  140.3200   71.9050  224.9890 O   0  0  0  0  0  0  0  0  0  0  0  0
  139.1730   70.2520  223.8970 N   0  0  0  0  0  0  0  0  0  0  0  0
  138.8590   71.1610  222.7700 C   0  0  0  0  0  0  0  0  0  0  0  0
  138.3659   70.5896  221.9698 H   0  0  0  0  0  0  0  0  0  0  0  0
  138.1928   71.9590  223.1297 H   0  0  0  0  0  0  0  0  0  0  0  0
  140.1510   71.7980  222.2180 C   0  0  0  0  0  0  0  0  0  0  0  0
  141.0084   71.4257  222.7979 H   0  0  0  0  0  0  0  0  0  0  0  0
  140.2441   71.5221  221.1572 H   0  0  0  0  0  0  0  0  0  0  0  0
  140.1140   73.2710  222.3100 N   0  0  0  0  0  0  0  0  0  0  0  0
  138.7680   73.7820  221.9760 C   0  0  0  0  0  0  0  0  0  0  0  0
  138.4600   73.3730  221.0024 H   0  0  0  0  0  0  0  0  0  0  0  0
  138.0697   73.4684  222.7659 H   0  0  0  0  0  0  0  0  0  0  0  0
  138.7610   75.3230  221.9000 C   0  0  0  0  0  0  0  0  0  0  0  0
  138.6178   75.6307  220.8537 H   0  0  0  0  0  0  0  0  0  0  0  0
  137.9414   75.7008  222.5289 H   0  0  0  0  0  0  0  0  0  0  0  0
  139.9780   75.8600  222.3770 O   0  0  0  0  0  0  0  0  0  0  0  0
  141.0420   75.4370  221.5420 C   0  0  0  0  0  0  0  0  0  0  0  0
  140.8892   75.8527  220.5351 H   0  0  0  0  0  0  0  0  0  0  0  0
  141.9827   75.7967  221.9845 H   0  0  0  0  0  0  0  0  0  0  0  0
  141.1240   73.9000  221.4380 C   0  0  0  0  0  0  0  0  0  0  0  0
  140.9426   73.5970  220.3962 H   0  0  0  0  0  0  0  0  0  0  0  0
  142.1246   73.5736  221.7578 H   0  0  0  0  0  0  0  0  0  0  0  0
  135.7980   69.1890  223.8450 C   0  0  0  0  0  0  0  0  0  0  0  0
  135.0120   68.5080  224.7280 N   0  0  0  0  0  0  0  0  0  0  0  0
  134.3190   69.1600  225.7010 C   0  0  0  0  0  0  0  0  0  0  0  0
  133.6827   68.5961  226.3989 H   0  0  0  0  0  0  0  0  0  0  0  0
  134.4200   70.5500  225.8090 C   0  0  0  0  0  0  0  0  0  0  0  0
  133.8951   71.0835  226.6151 H   0  0  0  0  0  0  0  0  0  0  0  0
  135.1710   71.2350  224.9110 N   0  0  0  0  0  0  0  0  0  0  0  0
  135.8520   70.5870  223.9240 C   0  0  0  0  0  0  0  0  0  0  0  0
  136.4416   71.1591  223.1925 H   0  0  0  0  0  0  0  0  0  0  0  0
  1  2  1  0
  2  3  2  0
  3  4  1  0
  3  5  1  0
  5  6  2  0
  6  7  1  0
  7  8  2  0
  8  9  1  0
  8 10  1  0
 10 11  1  0
 10 12  2  0
 12 13  1  0
 12 14  1  0
 14 15  1  0
 14 16  2  0
 16 17  1  0
 17 18  2  0
 17 19  1  0
 19 20  1  0
 20 21  1  0
 20 22  1  0
 20 23  1  0
 23 24  1  0
 23 25  1  0
 23 26  1  0
 26 27  1  0
 27 28  1  0
 27 29  1  0
 27 30  1  0
 30 31  1  0
 30 32  1  0
 30 33  1  0
 33 34  1  0
 34 35  1  0
 34 36  1  0
 34 37  1  0
 37 38  1  0
 37 39  1  0
  2 40  1  0
 40 41  2  0
 41 42  1  0
 42 43  1  0
 42 44  2  0
 44 45  1  0
 44 46  1  0
 46 47  2  0
 47 48  1  0
 19  5  1  0
 37 26  1  0
 47 40  1  0
 16  7  1  0
M  END
>  <UniqueID>  (33) 
507

>  <SMILES>  (33) 
O=c1c2ccccc2nc(/C=C/c2cnccn2)n1CCN1CCOCC1

>  <Energy>  (33) 
77.15773402139197

>  <Genealogy>  (33) 
O=c1c2ccccc2nc(/C=C/c2cnccn2)n1CCN1CCOCC1 (cis-trans isomerization)
O=c1c2ccccc2nc(/C=C/c2cnccn2)n1CCN1CCOCC1 (3D coordinates assigned)
O=c1c2ccccc2nc(/C=C/c2cnccn2)n1CCN1CCOCC1 (nonaromatic ring conformer: 77.15773402139197 kcal/mol)

>  <smiles>  (33) 
O=c1c2ccccc2nc(/C=C/c2cnccn2)n1CCN1CCOCC1

>  <score_type>  (33) 
oracle

>  <origin>  (33) 
autodockgpu

>  <m_score__min__energy>  (33) 
-7.7300000000000004

>  <m_primary>  (33) 
energy

>  <meeko>  (33) 
{"free_energy": -7.46, "intermolecular_energy": -9.25, "internal_energy": -1.25, "cluster_size": 5, "cluster_id": 2, "rank_in_cluster": 3}

>  <energy>  (33) 
-7.66

>  <cluster_rmsd>  (33) 
0.0

>  <rmsd>  (33) 
270.39

>  <cluster>  (33) 
2

$$$$
OQAGMIVLLKVZIV-AATRIKPKNA-N
     RDKit          3D

 48 51  0  0  0  0  0  0  0  0999 V2000
  140.7437   71.0224  220.9141 H   0  0  0  0  0  0  0  0  0  0  0  0
  140.1770   71.7530  221.5100 C   0  0  0  0  0  0  0  0  0  0  0  0
  139.1590   71.3200  222.2650 C   0  0  0  0  0  0  0  0  0  0  0  0
  138.1258   71.4318  221.9043 H   0  0  0  0  0  0  0  0  0  0  0  0
  139.4120   70.6960  223.5730 C   0  0  0  0  0  0  0  0  0  0  0  0
  139.9500   71.4740  224.5490 N   0  0  0  0  0  0  0  0  0  0  0  0
  140.2340   70.9820  225.7770 C   0  0  0  0  0  0  0  0  0  0  0  0
  140.8110   71.8120  226.7500 C   0  0  0  0  0  0  0  0  0  0  0  0
  141.0316   72.8636  226.5143 H   0  0  0  0  0  0  0  0  0  0  0  0
  141.1060   71.3040  228.0190 C   0  0  0  0  0  0  0  0  0  0  0  0
  141.5601   71.9561  228.7797 H   0  0  0  0  0  0  0  0  0  0  0  0
  140.8250   69.9700  228.3220 C   0  0  0  0  0  0  0  0  0  0  0  0
  141.0461   69.5776  229.3256 H   0  0  0  0  0  0  0  0  0  0  0  0
  140.2640   69.1320  227.3550 C   0  0  0  0  0  0  0  0  0  0  0  0
  140.0581   68.0785  227.5951 H   0  0  0  0  0  0  0  0  0  0  0  0
  139.9610   69.6330  226.0720 C   0  0  0  0  0  0  0  0  0  0  0  0
  139.4220   68.8280  225.0510 C   0  0  0  0  0  0  0  0  0  0  0  0
  139.2030   67.6060  225.2750 O   0  0  0  0  0  0  0  0  0  0  0  0
  139.1460   69.3660  223.8130 N   0  0  0  0  0  0  0  0  0  0  0  0
  138.6830   68.4880  222.7130 C   0  0  0  0  0  0  0  0  0  0  0  0
  139.3685   68.5857  221.8583 H   0  0  0  0  0  0  0  0  0  0  0  0
  138.6687   67.4473  223.0691 H   0  0  0  0  0  0  0  0  0  0  0  0
  137.2600   68.8850  222.2710 C   0  0  0  0  0  0  0  0  0  0  0  0
  137.2404   69.9640  222.0577 H   0  0  0  0  0  0  0  0  0  0  0  0
  137.0033   68.3026  221.3738 H   0  0  0  0  0  0  0  0  0  0  0  0
  136.2620   68.5850  223.3180 N   0  0  0  0  0  0  0  0  0  0  0  0
  134.9800   68.1660  222.7140 C   0  0  0  0  0  0  0  0  0  0  0  0
  134.6648   68.9223  221.9800 H   0  0  0  0  0  0  0  0  0  0  0  0
  135.1263   67.1907  222.2268 H   0  0  0  0  0  0  0  0  0  0  0  0
  133.8820   68.0170  223.7860 C   0  0  0  0  0  0  0  0  0  0  0  0
  133.1371   68.8150  223.6511 H   0  0  0  0  0  0  0  0  0  0  0  0
  133.4132   67.0284  223.6720 H   0  0  0  0  0  0  0  0  0  0  0  0
  134.4270   68.1090  225.0860 O   0  0  0  0  0  0  0  0  0  0  0  0
  134.9830   69.3980  225.2780 C   0  0  0  0  0  0  0  0  0  0  0  0
  134.1761   70.1436  225.2239 H   0  0  0  0  0  0  0  0  0  0  0  0
  135.4743   69.4110  226.2621 H   0  0  0  0  0  0  0  0  0  0  0  0
  136.0460   69.7380  224.2130 C   0  0  0  0  0  0  0  0  0  0  0  0
  135.7029   70.5985  223.6198 H   0  0  0  0  0  0  0  0  0  0  0  0
  136.9927   69.9813  224.7176 H   0  0  0  0  0  0  0  0  0  0  0  0
  140.5660   73.1770  221.4490 C   0  0  0  0  0  0  0  0  0  0  0  0
  139.7620   74.1470  221.9730 N   0  0  0  0  0  0  0  0  0  0  0  0
  140.1200   75.4590  221.9280 C   0  0  0  0  0  0  0  0  0  0  0  0
  139.4555   76.2286  222.3476 H   0  0  0  0  0  0  0  0  0  0  0  0
  141.3380   75.8230  221.3450 C   0  0  0  0  0  0  0  0  0  0  0  0
  141.6560   76.8760  221.3366 H   0  0  0  0  0  0  0  0  0  0  0  0
  142.1240   74.8670  220.7900 N   0  0  0  0  0  0  0  0  0  0  0  0
  141.7590   73.5540  220.8180 C   0  0  0  0  0  0  0  0  0  0  0  0
  142.3987   72.7931  220.3469 H   0  0  0  0  0  0  0  0  0  0  0  0
  1  2  1  0
  2  3  2  0
  3  4  1  0
  3  5  1  0
  5  6  2  0
  6  7  1  0
  7  8  2  0
  8  9  1  0
  8 10  1  0
 10 11  1  0
 10 12  2  0
 12 13  1  0
 12 14  1  0
 14 15  1  0
 14 16  2  0
 16 17  1  0
 17 18  2  0
 17 19  1  0
 19 20  1  0
 20 21  1  0
 20 22  1  0
 20 23  1  0
 23 24  1  0
 23 25  1  0
 23 26  1  0
 26 27  1  0
 27 28  1  0
 27 29  1  0
 27 30  1  0
 30 31  1  0
 30 32  1  0
 30 33  1  0
 33 34  1  0
 34 35  1  0
 34 36  1  0
 34 37  1  0
 37 38  1  0
 37 39  1  0
  2 40  1  0
 40 41  2  0
 41 42  1  0
 42 43  1  0
 42 44  2  0
 44 45  1  0
 44 46  1  0
 46 47  2  0
 47 48  1  0
 19  5  1  0
 37 26  1  0
 47 40  1  0
 16  7  1  0
M  END
>  <UniqueID>  (34) 
507

>  <SMILES>  (34) 
O=c1c2ccccc2nc(/C=C/c2cnccn2)n1CCN1CCOCC1

>  <Energy>  (34) 
77.15773402139197

>  <Genealogy>  (34) 
O=c1c2ccccc2nc(/C=C/c2cnccn2)n1CCN1CCOCC1 (cis-trans isomerization)
O=c1c2ccccc2nc(/C=C/c2cnccn2)n1CCN1CCOCC1 (3D coordinates assigned)
O=c1c2ccccc2nc(/C=C/c2cnccn2)n1CCN1CCOCC1 (nonaromatic ring conformer: 77.15773402139197 kcal/mol)

>  <smiles>  (34) 
O=c1c2ccccc2nc(/C=C/c2cnccn2)n1CCN1CCOCC1

>  <score_type>  (34) 
oracle

>  <origin>  (34) 
autodockgpu

>  <m_score__min__energy>  (34) 
-7.7300000000000004

>  <m_primary>  (34) 
energy

>  <meeko>  (34) 
{"free_energy": -7.67, "intermolecular_energy": -9.46, "internal_energy": -1.17, "cluster_size": 12, "cluster_id": 1, "rank_in_cluster": 4}

>  <energy>  (34) 
-7.65

>  <cluster_rmsd>  (34) 
0.08

>  <rmsd>  (34) 
270.36

>  <cluster>  (34) 
2

$$$$
OQAGMIVLLKVZIV-AATRIKPKNA-N
     RDKit          3D

 48 51  0  0  0  0  0  0  0  0999 V2000
  136.0780   68.5119  221.7226 H   0  0  0  0  0  0  0  0  0  0  0  0
  136.5620   68.6740  222.6970 C   0  0  0  0  0  0  0  0  0  0  0  0
  137.8460   68.3210  222.8470 C   0  0  0  0  0  0  0  0  0  0  0  0
  138.2954   67.5910  222.1577 H   0  0  0  0  0  0  0  0  0  0  0  0
  138.6590   68.9020  223.9260 C   0  0  0  0  0  0  0  0  0  0  0  0
  138.8670   68.1470  225.0360 N   0  0  0  0  0  0  0  0  0  0  0  0
  139.5860   68.6060  226.0860 C   0  0  0  0  0  0  0  0  0  0  0  0
  139.7560   67.8040  227.2240 C   0  0  0  0  0  0  0  0  0  0  0  0
  139.3049   66.8015  227.2621 H   0  0  0  0  0  0  0  0  0  0  0  0
  140.4990   68.2780  228.3110 C   0  0  0  0  0  0  0  0  0  0  0  0
  140.6303   67.6482  229.2033 H   0  0  0  0  0  0  0  0  0  0  0  0
  141.0740   69.5500  228.2640 C   0  0  0  0  0  0  0  0  0  0  0  0
  141.6693   69.9139  229.1144 H   0  0  0  0  0  0  0  0  0  0  0  0
  140.8960   70.3620  227.1410 C   0  0  0  0  0  0  0  0  0  0  0  0
  141.3383   71.3688  227.1162 H   0  0  0  0  0  0  0  0  0  0  0  0
  140.1510   69.8940  226.0400 C   0  0  0  0  0  0  0  0  0  0  0  0
  139.9160   70.6790  224.8950 C   0  0  0  0  0  0  0  0  0  0  0  0
  140.3780   71.8510  224.8410 O   0  0  0  0  0  0  0  0  0  0  0  0
  139.1790   70.1750  223.8450 N   0  0  0  0  0  0  0  0  0  0  0  0
  138.8440   71.0470  222.6940 C   0  0  0  0  0  0  0  0  0  0  0  0
  137.9007   70.7055  222.2427 H   0  0  0  0  0  0  0  0  0  0  0  0
  138.7392   72.0829  223.0489 H   0  0  0  0  0  0  0  0  0  0  0  0
  139.9640   70.9910  221.6350 C   0  0  0  0  0  0  0  0  0  0  0  0
  140.8440   70.4961  222.0717 H   0  0  0  0  0  0  0  0  0  0  0  0
  139.5888   70.4300  220.7664 H   0  0  0  0  0  0  0  0  0  0  0  0
  140.3500   72.3420  221.1810 N   0  0  0  0  0  0  0  0  0  0  0  0
  141.8210   72.4760  221.1290 C   0  0  0  0  0  0  0  0  0  0  0  0
  142.2431   72.1772  222.0999 H   0  0  0  0  0  0  0  0  0  0  0  0
  142.2016   71.8289  220.3250 H   0  0  0  0  0  0  0  0  0  0  0  0
  142.2380   73.9290  220.8250 C   0  0  0  0  0  0  0  0  0  0  0  0
  142.7066   74.3635  221.7203 H   0  0  0  0  0  0  0  0  0  0  0  0
  142.9470   73.9213  219.9840 H   0  0  0  0  0  0  0  0  0  0  0  0
  141.1190   74.7120  220.4630 O   0  0  0  0  0  0  0  0  0  0  0  0
  140.2200   74.7890  221.5560 C   0  0  0  0  0  0  0  0  0  0  0  0
  140.7150   75.3145  222.3860 H   0  0  0  0  0  0  0  0  0  0  0  0
  139.3232   75.3297  221.2194 H   0  0  0  0  0  0  0  0  0  0  0  0
  139.7780   73.3930  222.0440 C   0  0  0  0  0  0  0  0  0  0  0  0
  140.1258   73.2431  223.0768 H   0  0  0  0  0  0  0  0  0  0  0  0
  138.6805   73.3312  222.0022 H   0  0  0  0  0  0  0  0  0  0  0  0
  135.7730   69.2730  223.7930 C   0  0  0  0  0  0  0  0  0  0  0  0
  135.0090   68.4950  224.6130 N   0  0  0  0  0  0  0  0  0  0  0  0
  134.2870   69.0400  225.6300 C   0  0  0  0  0  0  0  0  0  0  0  0
  133.6672   68.3990  226.2741 H   0  0  0  0  0  0  0  0  0  0  0  0
  134.3380   70.4200  225.8510 C   0  0  0  0  0  0  0  0  0  0  0  0
  133.7913   70.8672  226.6943 H   0  0  0  0  0  0  0  0  0  0  0  0
  135.0670   71.2020  225.0170 N   0  0  0  0  0  0  0  0  0  0  0  0
  135.7760   70.6610  223.9850 C   0  0  0  0  0  0  0  0  0  0  0  0
  136.3476   71.3114  223.3065 H   0  0  0  0  0  0  0  0  0  0  0  0
  1  2  1  0
  2  3  2  0
  3  4  1  0
  3  5  1  0
  5  6  2  0
  6  7  1  0
  7  8  2  0
  8  9  1  0
  8 10  1  0
 10 11  1  0
 10 12  2  0
 12 13  1  0
 12 14  1  0
 14 15  1  0
 14 16  2  0
 16 17  1  0
 17 18  2  0
 17 19  1  0
 19 20  1  0
 20 21  1  0
 20 22  1  0
 20 23  1  0
 23 24  1  0
 23 25  1  0
 23 26  1  0
 26 27  1  0
 27 28  1  0
 27 29  1  0
 27 30  1  0
 30 31  1  0
 30 32  1  0
 30 33  1  0
 33 34  1  0
 34 35  1  0
 34 36  1  0
 34 37  1  0
 37 38  1  0
 37 39  1  0
  2 40  1  0
 40 41  2  0
 41 42  1  0
 42 43  1  0
 42 44  2  0
 44 45  1  0
 44 46  1  0
 46 47  2  0
 47 48  1  0
 19  5  1  0
 37 26  1  0
 47 40  1  0
 16  7  1  0
M  END
>  <UniqueID>  (35) 
507

>  <SMILES>  (35) 
O=c1c2ccccc2nc(/C=C/c2cnccn2)n1CCN1CCOCC1

>  <Energy>  (35) 
77.15773402139197

>  <Genealogy>  (35) 
O=c1c2ccccc2nc(/C=C/c2cnccn2)n1CCN1CCOCC1 (cis-trans isomerization)
O=c1c2ccccc2nc(/C=C/c2cnccn2)n1CCN1CCOCC1 (3D coordinates assigned)
O=c1c2ccccc2nc(/C=C/c2cnccn2)n1CCN1CCOCC1 (nonaromatic ring conformer: 77.15773402139197 kcal/mol)

>  <smiles>  (35) 
O=c1c2ccccc2nc(/C=C/c2cnccn2)n1CCN1CCOCC1

>  <score_type>  (35) 
oracle

>  <origin>  (35) 
autodockgpu

>  <m_score__min__energy>  (35) 
-7.7300000000000004

>  <m_primary>  (35) 
energy

>  <meeko>  (35) 
{"free_energy": -6.46, "intermolecular_energy": -8.25, "internal_energy": -1.4, "cluster_size": 5, "cluster_id": 2, "rank_in_cluster": 5}

>  <energy>  (35) 
-7.46

>  <cluster_rmsd>  (35) 
0.39

>  <rmsd>  (35) 
270.38

>  <cluster>  (35) 
2

$$$$
OQAGMIVLLKVZIV-AATRIKPKNA-N
     RDKit          3D

 48 51  0  0  0  0  0  0  0  0999 V2000
  136.0927   68.8699  221.7353 H   0  0  0  0  0  0  0  0  0  0  0  0
  136.5150   68.7800  222.7470 C   0  0  0  0  0  0  0  0  0  0  0  0
  137.7970   68.4160  222.8820 C   0  0  0  0  0  0  0  0  0  0  0  0
  138.2384   67.6999  222.1732 H   0  0  0  0  0  0  0  0  0  0  0  0
  138.6190   68.9660  223.9700 C   0  0  0  0  0  0  0  0  0  0  0  0
  138.8360   68.1790  225.0570 N   0  0  0  0  0  0  0  0  0  0  0  0
  139.5640   68.6070  226.1140 C   0  0  0  0  0  0  0  0  0  0  0  0
  139.7440   67.7720  227.2260 C   0  0  0  0  0  0  0  0  0  0  0  0
  139.2941   66.7683  227.2379 H   0  0  0  0  0  0  0  0  0  0  0  0
  140.4950   68.2140  228.3200 C   0  0  0  0  0  0  0  0  0  0  0  0
  140.6339   67.5582  229.1922 H   0  0  0  0  0  0  0  0  0  0  0  0
  141.0690   69.4880  228.3060 C   0  0  0  0  0  0  0  0  0  0  0  0
  141.6704   69.8274  229.1622 H   0  0  0  0  0  0  0  0  0  0  0  0
  140.8820   70.3320  227.2090 C   0  0  0  0  0  0  0  0  0  0  0  0
  141.3244   71.3391  227.2103 H   0  0  0  0  0  0  0  0  0  0  0  0
  140.1280   69.8970  226.1000 C   0  0  0  0  0  0  0  0  0  0  0  0
  139.8830   70.7150  224.9810 C   0  0  0  0  0  0  0  0  0  0  0  0
  140.3440   71.8890  224.9580 O   0  0  0  0  0  0  0  0  0  0  0  0
  139.1380   70.2420  223.9230 N   0  0  0  0  0  0  0  0  0  0  0  0
  138.7930   71.1460  222.8010 C   0  0  0  0  0  0  0  0  0  0  0  0
  138.2690   70.5732  222.0217 H   0  0  0  0  0  0  0  0  0  0  0  0
  138.1452   71.9514  223.1773 H   0  0  0  0  0  0  0  0  0  0  0  0
  140.0700   71.7690  222.2020 C   0  0  0  0  0  0  0  0  0  0  0  0
  140.9446   71.3819  222.7453 H   0  0  0  0  0  0  0  0  0  0  0  0
  140.1176   71.4984  221.1369 H   0  0  0  0  0  0  0  0  0  0  0  0
  140.0560   73.2430  222.3040 N   0  0  0  0  0  0  0  0  0  0  0  0
  138.7200   73.7770  221.9680 C   0  0  0  0  0  0  0  0  0  0  0  0
  138.4101   73.3798  220.9902 H   0  0  0  0  0  0  0  0  0  0  0  0
  138.0135   73.4686  222.7527 H   0  0  0  0  0  0  0  0  0  0  0  0
  138.7370   75.3180  221.9030 C   0  0  0  0  0  0  0  0  0  0  0  0
  138.6025   75.6354  220.8584 H   0  0  0  0  0  0  0  0  0  0  0  0
  137.9209   75.7041  222.5314 H   0  0  0  0  0  0  0  0  0  0  0  0
  139.9600   75.8320  222.3880 O   0  0  0  0  0  0  0  0  0  0  0  0
  141.0210   75.3990  221.5550 C   0  0  0  0  0  0  0  0  0  0  0  0
  140.8790   75.8238  220.5503 H   0  0  0  0  0  0  0  0  0  0  0  0
  141.9650   75.7416  222.0038 H   0  0  0  0  0  0  0  0  0  0  0  0
  141.0800   73.8610  221.4410 C   0  0  0  0  0  0  0  0  0  0  0  0
  140.8991   73.5676  220.3964 H   0  0  0  0  0  0  0  0  0  0  0  0
  142.0739   73.5167  221.7630 H   0  0  0  0  0  0  0  0  0  0  0  0
  135.6480   69.0650  223.9090 C   0  0  0  0  0  0  0  0  0  0  0  0
  134.7080   68.1650  224.3200 N   0  0  0  0  0  0  0  0  0  0  0  0
  133.9130   68.4180  225.3950 C   0  0  0  0  0  0  0  0  0  0  0  0
  133.1537   67.6855  225.7062 H   0  0  0  0  0  0  0  0  0  0  0  0
  134.0670   69.6150  226.1020 C   0  0  0  0  0  0  0  0  0  0  0  0
  133.4581   69.8135  226.9963 H   0  0  0  0  0  0  0  0  0  0  0  0
  134.9740   70.5290  225.6750 N   0  0  0  0  0  0  0  0  0  0  0  0
  135.7590   70.2860  224.5870 C   0  0  0  0  0  0  0  0  0  0  0  0
  136.4765   71.0455  224.2430 H   0  0  0  0  0  0  0  0  0  0  0  0
  1  2  1  0
  2  3  2  0
  3  4  1  0
  3  5  1  0
  5  6  2  0
  6  7  1  0
  7  8  2  0
  8  9  1  0
  8 10  1  0
 10 11  1  0
 10 12  2  0
 12 13  1  0
 12 14  1  0
 14 15  1  0
 14 16  2  0
 16 17  1  0
 17 18  2  0
 17 19  1  0
 19 20  1  0
 20 21  1  0
 20 22  1  0
 20 23  1  0
 23 24  1  0
 23 25  1  0
 23 26  1  0
 26 27  1  0
 27 28  1  0
 27 29  1  0
 27 30  1  0
 30 31  1  0
 30 32  1  0
 30 33  1  0
 33 34  1  0
 34 35  1  0
 34 36  1  0
 34 37  1  0
 37 38  1  0
 37 39  1  0
  2 40  1  0
 40 41  2  0
 41 42  1  0
 42 43  1  0
 42 44  2  0
 44 45  1  0
 44 46  1  0
 46 47  2  0
 47 48  1  0
 19  5  1  0
 37 26  1  0
 47 40  1  0
 16  7  1  0
M  END
>  <UniqueID>  (36) 
507

>  <SMILES>  (36) 
O=c1c2ccccc2nc(/C=C/c2cnccn2)n1CCN1CCOCC1

>  <Energy>  (36) 
77.15773402139197

>  <Genealogy>  (36) 
O=c1c2ccccc2nc(/C=C/c2cnccn2)n1CCN1CCOCC1 (cis-trans isomerization)
O=c1c2ccccc2nc(/C=C/c2cnccn2)n1CCN1CCOCC1 (3D coordinates assigned)
O=c1c2ccccc2nc(/C=C/c2cnccn2)n1CCN1CCOCC1 (nonaromatic ring conformer: 77.15773402139197 kcal/mol)

>  <smiles>  (36) 
O=c1c2ccccc2nc(/C=C/c2cnccn2)n1CCN1CCOCC1

>  <score_type>  (36) 
oracle

>  <origin>  (36) 
autodockgpu

>  <m_score__min__energy>  (36) 
-7.7300000000000004

>  <m_primary>  (36) 
energy

>  <meeko>  (36) 
{"free_energy": -7.65, "intermolecular_energy": -9.44, "internal_energy": -1.14, "cluster_size": 5, "cluster_id": 2, "rank_in_cluster": 2}

>  <energy>  (36) 
-7.42

>  <cluster_rmsd>  (36) 
0.42

>  <rmsd>  (36) 
270.41

>  <cluster>  (36) 
2

$$$$
OQAGMIVLLKVZIV-AATRIKPKNA-N
     RDKit          3D

 48 51  0  0  0  0  0  0  0  0999 V2000
  136.0921   69.0500  221.7857 H   0  0  0  0  0  0  0  0  0  0  0  0
  136.4900   68.8920  222.7990 C   0  0  0  0  0  0  0  0  0  0  0  0
  137.7590   68.4860  222.9390 C   0  0  0  0  0  0  0  0  0  0  0  0
  138.1768   67.7504  222.2359 H   0  0  0  0  0  0  0  0  0  0  0  0
  138.5980   69.0150  224.0240 C   0  0  0  0  0  0  0  0  0  0  0  0
  138.8210   68.2120  225.0980 N   0  0  0  0  0  0  0  0  0  0  0  0
  139.5640   68.6210  226.1520 C   0  0  0  0  0  0  0  0  0  0  0  0
  139.7510   67.7710  227.2510 C   0  0  0  0  0  0  0  0  0  0  0  0
  139.2938   66.7705  227.2554 H   0  0  0  0  0  0  0  0  0  0  0  0
  140.5180   68.1930  228.3420 C   0  0  0  0  0  0  0  0  0  0  0  0
  140.6614   67.5253  229.2043 H   0  0  0  0  0  0  0  0  0  0  0  0
  141.1020   69.4620  228.3370 C   0  0  0  0  0  0  0  0  0  0  0  0
  141.7164   69.7855  229.1901 H   0  0  0  0  0  0  0  0  0  0  0  0
  140.9090   70.3220  227.2530 C   0  0  0  0  0  0  0  0  0  0  0  0
  141.3597   71.3254  227.2617 H   0  0  0  0  0  0  0  0  0  0  0  0
  140.1380   69.9070  226.1480 C   0  0  0  0  0  0  0  0  0  0  0  0
  139.8870   70.7410  225.0420 C   0  0  0  0  0  0  0  0  0  0  0  0
  140.3570   71.9110  225.0280 O   0  0  0  0  0  0  0  0  0  0  0  0
  139.1260   70.2870  223.9870 N   0  0  0  0  0  0  0  0  0  0  0  0
  138.7750   71.2080  222.8800 C   0  0  0  0  0  0  0  0  0  0  0  0
  138.2223   70.6528  222.1078 H   0  0  0  0  0  0  0  0  0  0  0  0
  138.1524   72.0232  223.2773 H   0  0  0  0  0  0  0  0  0  0  0  0
  140.0510   71.8100  222.2580 C   0  0  0  0  0  0  0  0  0  0  0  0
  140.9277   71.4245  222.7990 H   0  0  0  0  0  0  0  0  0  0  0  0
  140.0852   71.5214  221.1971 H   0  0  0  0  0  0  0  0  0  0  0  0
  140.0510   73.2850  222.3350 N   0  0  0  0  0  0  0  0  0  0  0  0
  138.7260   73.8270  221.9670 C   0  0  0  0  0  0  0  0  0  0  0  0
  138.4286   73.4162  220.9909 H   0  0  0  0  0  0  0  0  0  0  0  0
  138.0032   73.5394  222.7448 H   0  0  0  0  0  0  0  0  0  0  0  0
  138.7600   75.3670  221.8760 C   0  0  0  0  0  0  0  0  0  0  0  0
  138.6454   75.6678  220.8242 H   0  0  0  0  0  0  0  0  0  0  0  0
  137.9381   75.7721  222.4846 H   0  0  0  0  0  0  0  0  0  0  0  0
  139.9810   75.8770  222.3720 O   0  0  0  0  0  0  0  0  0  0  0  0
  141.0510   75.4180  221.5640 C   0  0  0  0  0  0  0  0  0  0  0  0
  140.9303   75.8270  220.5500 H   0  0  0  0  0  0  0  0  0  0  0  0
  141.9912   75.7579  222.0227 H   0  0  0  0  0  0  0  0  0  0  0  0
  141.0950   73.8770  221.4770 C   0  0  0  0  0  0  0  0  0  0  0  0
  140.9267   73.5675  220.4349 H   0  0  0  0  0  0  0  0  0  0  0  0
  142.0801   73.5276  221.8198 H   0  0  0  0  0  0  0  0  0  0  0  0
  135.6060   69.1350  223.9580 C   0  0  0  0  0  0  0  0  0  0  0  0
  134.7350   68.1770  224.3890 N   0  0  0  0  0  0  0  0  0  0  0  0
  133.9250   68.3930  225.4610 C   0  0  0  0  0  0  0  0  0  0  0  0
  133.2215   67.6134  225.7886 H   0  0  0  0  0  0  0  0  0  0  0  0
  133.9920   69.6120  226.1440 C   0  0  0  0  0  0  0  0  0  0  0  0
  133.3707   69.7838  227.0354 H   0  0  0  0  0  0  0  0  0  0  0  0
  134.8300   70.5800  225.6970 N   0  0  0  0  0  0  0  0  0  0  0  0
  135.6290   70.3740  224.6120 C   0  0  0  0  0  0  0  0  0  0  0  0
  136.2889   71.1768  224.2515 H   0  0  0  0  0  0  0  0  0  0  0  0
  1  2  1  0
  2  3  2  0
  3  4  1  0
  3  5  1  0
  5  6  2  0
  6  7  1  0
  7  8  2  0
  8  9  1  0
  8 10  1  0
 10 11  1  0
 10 12  2  0
 12 13  1  0
 12 14  1  0
 14 15  1  0
 14 16  2  0
 16 17  1  0
 17 18  2  0
 17 19  1  0
 19 20  1  0
 20 21  1  0
 20 22  1  0
 20 23  1  0
 23 24  1  0
 23 25  1  0
 23 26  1  0
 26 27  1  0
 27 28  1  0
 27 29  1  0
 27 30  1  0
 30 31  1  0
 30 32  1  0
 30 33  1  0
 33 34  1  0
 34 35  1  0
 34 36  1  0
 34 37  1  0
 37 38  1  0
 37 39  1  0
  2 40  1  0
 40 41  2  0
 41 42  1  0
 42 43  1  0
 42 44  2  0
 44 45  1  0
 44 46  1  0
 46 47  2  0
 47 48  1  0
 19  5  1  0
 37 26  1  0
 47 40  1  0
 16  7  1  0
M  END
>  <UniqueID>  (37) 
507

>  <SMILES>  (37) 
O=c1c2ccccc2nc(/C=C/c2cnccn2)n1CCN1CCOCC1

>  <Energy>  (37) 
77.15773402139197

>  <Genealogy>  (37) 
O=c1c2ccccc2nc(/C=C/c2cnccn2)n1CCN1CCOCC1 (cis-trans isomerization)
O=c1c2ccccc2nc(/C=C/c2cnccn2)n1CCN1CCOCC1 (3D coordinates assigned)
O=c1c2ccccc2nc(/C=C/c2cnccn2)n1CCN1CCOCC1 (nonaromatic ring conformer: 77.15773402139197 kcal/mol)

>  <smiles>  (37) 
O=c1c2ccccc2nc(/C=C/c2cnccn2)n1CCN1CCOCC1

>  <score_type>  (37) 
oracle

>  <origin>  (37) 
autodockgpu

>  <m_score__min__energy>  (37) 
-7.7300000000000004

>  <m_primary>  (37) 
energy

>  <meeko>  (37) 
{"free_energy": -7.66, "intermolecular_energy": -9.45, "internal_energy": -1.14, "cluster_size": 5, "cluster_id": 2, "rank_in_cluster": 1}

>  <energy>  (37) 
-6.46

>  <cluster_rmsd>  (37) 
0.86

>  <rmsd>  (37) 
270.25

>  <cluster>  (37) 
2

$$$$
OQAGMIVLLKVZIV-AATRIKPKNA-N
     RDKit          3D

 48 51  0  0  0  0  0  0  0  0999 V2000
  140.3874   71.7557  221.1307 H   0  0  0  0  0  0  0  0  0  0  0  0
  139.5240   72.0710  221.7350 C   0  0  0  0  0  0  0  0  0  0  0  0
  138.7560   71.1320  222.3030 C   0  0  0  0  0  0  0  0  0  0  0  0
  137.9056   70.7121  221.7458 H   0  0  0  0  0  0  0  0  0  0  0  0
  139.0410   70.6580  223.6660 C   0  0  0  0  0  0  0  0  0  0  0  0
  139.8270   71.4370  224.4540 N   0  0  0  0  0  0  0  0  0  0  0  0
  140.1580   71.0720  225.7140 C   0  0  0  0  0  0  0  0  0  0  0  0
  140.9920   71.8940  226.4860 C   0  0  0  0  0  0  0  0  0  0  0  0
  141.3758   72.8359  226.0670 H   0  0  0  0  0  0  0  0  0  0  0  0
  141.3360   71.5170  227.7880 C   0  0  0  0  0  0  0  0  0  0  0  0
  141.9920   72.1619  228.3911 H   0  0  0  0  0  0  0  0  0  0  0  0
  140.8480   70.3230  228.3240 C   0  0  0  0  0  0  0  0  0  0  0  0
  141.1097   70.0365  229.3533 H   0  0  0  0  0  0  0  0  0  0  0  0
  140.0280   69.4910  227.5560 C   0  0  0  0  0  0  0  0  0  0  0  0
  139.6574   68.5451  227.9778 H   0  0  0  0  0  0  0  0  0  0  0  0
  139.6750   69.8610  226.2430 C   0  0  0  0  0  0  0  0  0  0  0  0
  138.8760   69.0490  225.4150 C   0  0  0  0  0  0  0  0  0  0  0  0
  138.4600   67.9400  225.8490 O   0  0  0  0  0  0  0  0  0  0  0  0
  138.5600   69.4560  224.1370 N   0  0  0  0  0  0  0  0  0  0  0  0
  137.8140   68.5460  223.2370 C   0  0  0  0  0  0  0  0  0  0  0  0
  138.3351   68.4847  222.2702 H   0  0  0  0  0  0  0  0  0  0  0  0
  137.7602   67.5500  223.7008 H   0  0  0  0  0  0  0  0  0  0  0  0
  136.3810   69.0710  223.0100 C   0  0  0  0  0  0  0  0  0  0  0  0
  136.4277   70.1431  222.7683 H   0  0  0  0  0  0  0  0  0  0  0  0
  135.9327   68.5011  222.1828 H   0  0  0  0  0  0  0  0  0  0  0  0
  135.5380   68.8860  224.2090 N   0  0  0  0  0  0  0  0  0  0  0  0
  134.2530   68.2510  223.8510 C   0  0  0  0  0  0  0  0  0  0  0  0
  133.7818   68.8261  223.0403 H   0  0  0  0  0  0  0  0  0  0  0  0
  134.4518   67.2185  223.5280 H   0  0  0  0  0  0  0  0  0  0  0  0
  133.2970   68.2100  225.0610 C   0  0  0  0  0  0  0  0  0  0  0  0
  132.4605   68.9015  224.8818 H   0  0  0  0  0  0  0  0  0  0  0  0
  132.9281   67.1806  225.1806 H   0  0  0  0  0  0  0  0  0  0  0  0
  133.9630   68.5890  226.2470 O   0  0  0  0  0  0  0  0  0  0  0  0
  134.3930   69.9350  226.1400 C   0  0  0  0  0  0  0  0  0  0  0  0
  133.5088   70.5839  226.0562 H   0  0  0  0  0  0  0  0  0  0  0  0
  134.9811   70.1744  227.0382 H   0  0  0  0  0  0  0  0  0  0  0  0
  135.2950   70.1620  224.9080 C   0  0  0  0  0  0  0  0  0  0  0  0
  134.8003   70.8638  224.2205 H   0  0  0  0  0  0  0  0  0  0  0  0
  136.2580   70.5764  225.2412 H   0  0  0  0  0  0  0  0  0  0  0  0
  139.2530   73.5150  221.8910 C   0  0  0  0  0  0  0  0  0  0  0  0
  140.2760   74.4120  222.0030 N   0  0  0  0  0  0  0  0  0  0  0  0
  140.0330   75.7440  222.1370 C   0  0  0  0  0  0  0  0  0  0  0  0
  140.8692   76.4518  222.2361 H   0  0  0  0  0  0  0  0  0  0  0  0
  138.7130   76.2080  222.1480 C   0  0  0  0  0  0  0  0  0  0  0  0
  138.5043   77.2858  222.2169 H   0  0  0  0  0  0  0  0  0  0  0  0
  137.6930   75.3170  222.0730 N   0  0  0  0  0  0  0  0  0  0  0  0
  137.9330   73.9810  221.9580 C   0  0  0  0  0  0  0  0  0  0  0  0
  137.0940   73.2707  221.9179 H   0  0  0  0  0  0  0  0  0  0  0  0
  1  2  1  0
  2  3  2  0
  3  4  1  0
  3  5  1  0
  5  6  2  0
  6  7  1  0
  7  8  2  0
  8  9  1  0
  8 10  1  0
 10 11  1  0
 10 12  2  0
 12 13  1  0
 12 14  1  0
 14 15  1  0
 14 16  2  0
 16 17  1  0
 17 18  2  0
 17 19  1  0
 19 20  1  0
 20 21  1  0
 20 22  1  0
 20 23  1  0
 23 24  1  0
 23 25  1  0
 23 26  1  0
 26 27  1  0
 27 28  1  0
 27 29  1  0
 27 30  1  0
 30 31  1  0
 30 32  1  0
 30 33  1  0
 33 34  1  0
 34 35  1  0
 34 36  1  0
 34 37  1  0
 37 38  1  0
 37 39  1  0
  2 40  1  0
 40 41  2  0
 41 42  1  0
 42 43  1  0
 42 44  2  0
 44 45  1  0
 44 46  1  0
 46 47  2  0
 47 48  1  0
 19  5  1  0
 37 26  1  0
 47 40  1  0
 16  7  1  0
M  END
>  <UniqueID>  (38) 
507

>  <SMILES>  (38) 
O=c1c2ccccc2nc(/C=C/c2cnccn2)n1CCN1CCOCC1

>  <Energy>  (38) 
77.15773402139197

>  <Genealogy>  (38) 
O=c1c2ccccc2nc(/C=C/c2cnccn2)n1CCN1CCOCC1 (cis-trans isomerization)
O=c1c2ccccc2nc(/C=C/c2cnccn2)n1CCN1CCOCC1 (3D coordinates assigned)
O=c1c2ccccc2nc(/C=C/c2cnccn2)n1CCN1CCOCC1 (nonaromatic ring conformer: 77.15773402139197 kcal/mol)

>  <smiles>  (38) 
O=c1c2ccccc2nc(/C=C/c2cnccn2)n1CCN1CCOCC1

>  <score_type>  (38) 
oracle

>  <origin>  (38) 
autodockgpu

>  <m_score__min__energy>  (38) 
-7.7300000000000004

>  <m_primary>  (38) 
energy

>  <meeko>  (38) 
{"free_energy": -7.65, "intermolecular_energy": -9.44, "internal_energy": -1.24, "cluster_size": 12, "cluster_id": 1, "rank_in_cluster": 5}

>  <energy>  (38) 
-6.61

>  <cluster_rmsd>  (38) 
0.0

>  <rmsd>  (38) 
270.78

>  <cluster>  (38) 
3

$$$$
OQAGMIVLLKVZIV-AATRIKPKNA-N
     RDKit          3D

 48 51  0  0  0  0  0  0  0  0999 V2000
  141.8864   71.7964  221.3393 H   0  0  0  0  0  0  0  0  0  0  0  0
  140.9050   72.1690  221.6680 C   0  0  0  0  0  0  0  0  0  0  0  0
  139.9640   71.2840  222.0210 C   0  0  0  0  0  0  0  0  0  0  0  0
  139.2308   70.9409  221.2762 H   0  0  0  0  0  0  0  0  0  0  0  0
  139.9030   70.7670  223.3970 C   0  0  0  0  0  0  0  0  0  0  0  0
  140.4660   71.5200  224.3790 N   0  0  0  0  0  0  0  0  0  0  0  0
  140.4740   71.1160  225.6700 C   0  0  0  0  0  0  0  0  0  0  0  0
  141.0870   71.9100  226.6500 C   0  0  0  0  0  0  0  0  0  0  0  0
  141.5602   72.8621  226.3679 H   0  0  0  0  0  0  0  0  0  0  0  0
  141.0980   71.4940  227.9850 C   0  0  0  0  0  0  0  0  0  0  0  0
  141.5807   72.1180  228.7516 H   0  0  0  0  0  0  0  0  0  0  0  0
  140.4960   70.2860  228.3450 C   0  0  0  0  0  0  0  0  0  0  0  0
  140.4945   69.9673  229.3978 H   0  0  0  0  0  0  0  0  0  0  0  0
  139.8960   69.4810  227.3740 C   0  0  0  0  0  0  0  0  0  0  0  0
  139.4356   68.5245  227.6623 H   0  0  0  0  0  0  0  0  0  0  0  0
  139.8790   69.8910  226.0260 C   0  0  0  0  0  0  0  0  0  0  0  0
  139.3140   69.1080  225.0010 C   0  0  0  0  0  0  0  0  0  0  0  0
  138.8070   67.9880  225.2850 O   0  0  0  0  0  0  0  0  0  0  0  0
  139.3240   69.5540  223.6980 N   0  0  0  0  0  0  0  0  0  0  0  0
  138.8280   68.6750  222.6130 C   0  0  0  0  0  0  0  0  0  0  0  0
  139.3827   68.8922  221.6883 H   0  0  0  0  0  0  0  0  0  0  0  0
  138.9790   67.6257  222.9064 H   0  0  0  0  0  0  0  0  0  0  0  0
  137.3240   68.9160  222.3720 C   0  0  0  0  0  0  0  0  0  0  0  0
  137.1658   69.1501  221.3089 H   0  0  0  0  0  0  0  0  0  0  0  0
  136.7792   68.0045  222.6588 H   0  0  0  0  0  0  0  0  0  0  0  0
  136.8150   70.0350  223.1900 N   0  0  0  0  0  0  0  0  0  0  0  0
  135.6000   69.6330  223.9280 C   0  0  0  0  0  0  0  0  0  0  0  0
  134.8719   69.2124  223.2188 H   0  0  0  0  0  0  0  0  0  0  0  0
  135.8821   68.8844  224.6830 H   0  0  0  0  0  0  0  0  0  0  0  0
  134.9620   70.8390  224.6490 C   0  0  0  0  0  0  0  0  0  0  0  0
  134.0074   71.0856  224.1613 H   0  0  0  0  0  0  0  0  0  0  0  0
  134.7987   70.5703  225.7031 H   0  0  0  0  0  0  0  0  0  0  0  0
  135.8110   71.9670  224.5990 O   0  0  0  0  0  0  0  0  0  0  0  0
  135.9850   72.3700  223.2520 C   0  0  0  0  0  0  0  0  0  0  0  0
  135.0128   72.6911  222.8497 H   0  0  0  0  0  0  0  0  0  0  0  0
  136.7154   73.1924  223.2368 H   0  0  0  0  0  0  0  0  0  0  0  0
  136.5360   71.2300  222.3700 C   0  0  0  0  0  0  0  0  0  0  0  0
  135.7928   70.9758  221.5999 H   0  0  0  0  0  0  0  0  0  0  0  0
  137.4709   71.5646  221.8967 H   0  0  0  0  0  0  0  0  0  0  0  0
  140.6730   73.6280  221.7040 C   0  0  0  0  0  0  0  0  0  0  0  0
  139.5670   74.1460  222.3120 N   0  0  0  0  0  0  0  0  0  0  0  0
  139.3530   75.4900  222.3570 C   0  0  0  0  0  0  0  0  0  0  0  0
  138.4511   75.8905  222.8430 H   0  0  0  0  0  0  0  0  0  0  0  0
  140.2860   76.3580  221.7820 C   0  0  0  0  0  0  0  0  0  0  0  0
  140.1439   77.4469  221.8459 H   0  0  0  0  0  0  0  0  0  0  0  0
  141.3690   75.8450  221.1440 N   0  0  0  0  0  0  0  0  0  0  0  0
  141.5760   74.5000  221.0820 C   0  0  0  0  0  0  0  0  0  0  0  0
  142.4490   74.1000  220.5455 H   0  0  0  0  0  0  0  0  0  0  0  0
  1  2  1  0
  2  3  2  0
  3  4  1  0
  3  5  1  0
  5  6  2  0
  6  7  1  0
  7  8  2  0
  8  9  1  0
  8 10  1  0
 10 11  1  0
 10 12  2  0
 12 13  1  0
 12 14  1  0
 14 15  1  0
 14 16  2  0
 16 17  1  0
 17 18  2  0
 17 19  1  0
 19 20  1  0
 20 21  1  0
 20 22  1  0
 20 23  1  0
 23 24  1  0
 23 25  1  0
 23 26  1  0
 26 27  1  0
 27 28  1  0
 27 29  1  0
 27 30  1  0
 30 31  1  0
 30 32  1  0
 30 33  1  0
 33 34  1  0
 34 35  1  0
 34 36  1  0
 34 37  1  0
 37 38  1  0
 37 39  1  0
  2 40  1  0
 40 41  2  0
 41 42  1  0
 42 43  1  0
 42 44  2  0
 44 45  1  0
 44 46  1  0
 46 47  2  0
 47 48  1  0
 19  5  1  0
 37 26  1  0
 47 40  1  0
 16  7  1  0
M  END
>  <UniqueID>  (39) 
507

>  <SMILES>  (39) 
O=c1c2ccccc2nc(/C=C/c2cnccn2)n1CCN1CCOCC1

>  <Energy>  (39) 
77.15773402139197

>  <Genealogy>  (39) 
O=c1c2ccccc2nc(/C=C/c2cnccn2)n1CCN1CCOCC1 (cis-trans isomerization)
O=c1c2ccccc2nc(/C=C/c2cnccn2)n1CCN1CCOCC1 (3D coordinates assigned)
O=c1c2ccccc2nc(/C=C/c2cnccn2)n1CCN1CCOCC1 (nonaromatic ring conformer: 77.15773402139197 kcal/mol)

>  <smiles>  (39) 
O=c1c2ccccc2nc(/C=C/c2cnccn2)n1CCN1CCOCC1

>  <score_type>  (39) 
oracle

>  <origin>  (39) 
autodockgpu

>  <m_score__min__energy>  (39) 
-7.7300000000000004

>  <m_primary>  (39) 
energy

>  <meeko>  (39) 
{"free_energy": -6.89, "intermolecular_energy": -8.68, "internal_energy": -1.68, "cluster_size": 12, "cluster_id": 1, "rank_in_cluster": 11}

>  <energy>  (39) 
-5.67

>  <cluster_rmsd>  (39) 
0.0

>  <rmsd>  (39) 
271.33

>  <cluster>  (39) 
4

$$$$
OQAGMIVLLKVZIV-AATRIKPKNA-N
     RDKit          3D

 48 51  0  0  0  0  0  0  0  0999 V2000
  141.3308   72.2455  221.2217 H   0  0  0  0  0  0  0  0  0  0  0  0
  140.3280   72.1790  221.6690 C   0  0  0  0  0  0  0  0  0  0  0  0
  139.8390   70.9710  221.9820 C   0  0  0  0  0  0  0  0  0  0  0  0
  139.4547   70.3154  221.1867 H   0  0  0  0  0  0  0  0  0  0  0  0
  139.8120   70.5150  223.3790 C   0  0  0  0  0  0  0  0  0  0  0  0
  140.3500   71.3340  224.3210 N   0  0  0  0  0  0  0  0  0  0  0  0
  140.3870   70.9890  225.6290 C   0  0  0  0  0  0  0  0  0  0  0  0
  140.9730   71.8530  226.5660 C   0  0  0  0  0  0  0  0  0  0  0  0
  141.4014   72.8113  226.2371 H   0  0  0  0  0  0  0  0  0  0  0  0
  141.0130   71.4970  227.9180 C   0  0  0  0  0  0  0  0  0  0  0  0
  141.4749   72.1745  228.6512 H   0  0  0  0  0  0  0  0  0  0  0  0
  140.4670   70.2820  228.3380 C   0  0  0  0  0  0  0  0  0  0  0  0
  140.4876   70.0116  229.4040 H   0  0  0  0  0  0  0  0  0  0  0  0
  139.8950   69.4090  227.4100 C   0  0  0  0  0  0  0  0  0  0  0  0
  139.4800   68.4471  227.7453 H   0  0  0  0  0  0  0  0  0  0  0  0
  139.8480   69.7570  226.0450 C   0  0  0  0  0  0  0  0  0  0  0  0
  139.3100   68.9050  225.0620 C   0  0  0  0  0  0  0  0  0  0  0  0
  138.8540   67.7780  225.4000 O   0  0  0  0  0  0  0  0  0  0  0  0
  139.2890   69.2920  223.7400 N   0  0  0  0  0  0  0  0  0  0  0  0
  138.8230   68.3450  222.7010 C   0  0  0  0  0  0  0  0  0  0  0  0
  139.5212   68.3670  221.8513 H   0  0  0  0  0  0  0  0  0  0  0  0
  138.7836   67.3337  223.1319 H   0  0  0  0  0  0  0  0  0  0  0  0
  137.4140   68.7350  222.2110 C   0  0  0  0  0  0  0  0  0  0  0  0
  137.4231   69.7905  221.9013 H   0  0  0  0  0  0  0  0  0  0  0  0
  137.1495   68.0806  221.3673 H   0  0  0  0  0  0  0  0  0  0  0  0
  136.4010   68.5550  223.2710 N   0  0  0  0  0  0  0  0  0  0  0  0
  135.0990   68.1650  222.6900 C   0  0  0  0  0  0  0  0  0  0  0  0
  134.8240   68.8876  221.9076 H   0  0  0  0  0  0  0  0  0  0  0  0
  135.1944   67.1541  222.2670 H   0  0  0  0  0  0  0  0  0  0  0  0
  133.9940   68.1430  223.7660 C   0  0  0  0  0  0  0  0  0  0  0  0
  133.2928   68.9694  223.5780 H   0  0  0  0  0  0  0  0  0  0  0  0
  133.4737   67.1753  223.7131 H   0  0  0  0  0  0  0  0  0  0  0  0
  134.5420   68.2880  225.0600 O   0  0  0  0  0  0  0  0  0  0  0  0
  135.1640   69.5560  225.1710 C   0  0  0  0  0  0  0  0  0  0  0  0
  134.3969   70.3373  225.0655 H   0  0  0  0  0  0  0  0  0  0  0  0
  135.6545   69.6064  226.1543 H   0  0  0  0  0  0  0  0  0  0  0  0
  136.2450   69.7720  224.0910 C   0  0  0  0  0  0  0  0  0  0  0  0
  135.9484   70.6102  223.4434 H   0  0  0  0  0  0  0  0  0  0  0  0
  137.2026   69.9965  224.5835 H   0  0  0  0  0  0  0  0  0  0  0  0
  139.5690   73.4240  221.9030 C   0  0  0  0  0  0  0  0  0  0  0  0
  140.2130   74.6090  222.1110 N   0  0  0  0  0  0  0  0  0  0  0  0
  139.5180   75.7610  222.3170 C   0  0  0  0  0  0  0  0  0  0  0  0
  140.0536   76.7056  222.4929 H   0  0  0  0  0  0  0  0  0  0  0  0
  138.1200   75.7380  222.3040 C   0  0  0  0  0  0  0  0  0  0  0  0
  137.5483   76.6692  222.4304 H   0  0  0  0  0  0  0  0  0  0  0  0
  137.4750   74.5560  222.1340 N   0  0  0  0  0  0  0  0  0  0  0  0
  138.1690   73.3970  221.9450 C   0  0  0  0  0  0  0  0  0  0  0  0
  137.6314   72.4447  221.8260 H   0  0  0  0  0  0  0  0  0  0  0  0
  1  2  1  0
  2  3  2  0
  3  4  1  0
  3  5  1  0
  5  6  2  0
  6  7  1  0
  7  8  2  0
  8  9  1  0
  8 10  1  0
 10 11  1  0
 10 12  2  0
 12 13  1  0
 12 14  1  0
 14 15  1  0
 14 16  2  0
 16 17  1  0
 17 18  2  0
 17 19  1  0
 19 20  1  0
 20 21  1  0
 20 22  1  0
 20 23  1  0
 23 24  1  0
 23 25  1  0
 23 26  1  0
 26 27  1  0
 27 28  1  0
 27 29  1  0
 27 30  1  0
 30 31  1  0
 30 32  1  0
 30 33  1  0
 33 34  1  0
 34 35  1  0
 34 36  1  0
 34 37  1  0
 37 38  1  0
 37 39  1  0
  2 40  1  0
 40 41  2  0
 41 42  1  0
 42 43  1  0
 42 44  2  0
 44 45  1  0
 44 46  1  0
 46 47  2  0
 47 48  1  0
 19  5  1  0
 37 26  1  0
 47 40  1  0
 16  7  1  0
M  END
>  <UniqueID>  (40) 
507

>  <SMILES>  (40) 
O=c1c2ccccc2nc(/C=C/c2cnccn2)n1CCN1CCOCC1

>  <Energy>  (40) 
77.15773402139197

>  <Genealogy>  (40) 
O=c1c2ccccc2nc(/C=C/c2cnccn2)n1CCN1CCOCC1 (cis-trans isomerization)
O=c1c2ccccc2nc(/C=C/c2cnccn2)n1CCN1CCOCC1 (3D coordinates assigned)
O=c1c2ccccc2nc(/C=C/c2cnccn2)n1CCN1CCOCC1 (nonaromatic ring conformer: 77.15773402139197 kcal/mol)

>  <smiles>  (40) 
O=c1c2ccccc2nc(/C=C/c2cnccn2)n1CCN1CCOCC1

>  <score_type>  (40) 
oracle

>  <origin>  (40) 
autodockgpu

>  <m_score__min__energy>  (40) 
-7.7300000000000004

>  <m_primary>  (40) 
energy

>  <meeko>  (40) 
{"free_energy": -7.37, "intermolecular_energy": -9.16, "internal_energy": -1.41, "cluster_size": 12, "cluster_id": 1, "rank_in_cluster": 9}

>  <energy>  (40) 
-5.65

>  <cluster_rmsd>  (40) 
0.4

>  <rmsd>  (40) 
271.32

>  <cluster>  (40) 
4

$$$$
OQAGMIVLLKVZIV-AATRIKPKNA-N
     RDKit          3D

 48 51  0  0  0  0  0  0  0  0999 V2000
  140.2178   71.4727  221.1655 H   0  0  0  0  0  0  0  0  0  0  0  0
  139.4710   71.9760  221.7970 C   0  0  0  0  0  0  0  0  0  0  0  0
  138.5920   71.2290  222.4780 C   0  0  0  0  0  0  0  0  0  0  0  0
  137.5980   71.0307  222.0506 H   0  0  0  0  0  0  0  0  0  0  0  0
  138.9450   70.6720  223.7920 C   0  0  0  0  0  0  0  0  0  0  0  0
  139.7050   71.4390  224.6190 N   0  0  0  0  0  0  0  0  0  0  0  0
  140.0940   71.0030  225.8390 C   0  0  0  0  0  0  0  0  0  0  0  0
  140.8980   71.8150  226.6510 C   0  0  0  0  0  0  0  0  0  0  0  0
  141.2116   72.8077  226.2958 H   0  0  0  0  0  0  0  0  0  0  0  0
  141.3020   71.3650  227.9120 C   0  0  0  0  0  0  0  0  0  0  0  0
  141.9337   72.0036  228.5470 H   0  0  0  0  0  0  0  0  0  0  0  0
  140.9040   70.1050  228.3660 C   0  0  0  0  0  0  0  0  0  0  0  0
  141.2121   69.7596  229.3639 H   0  0  0  0  0  0  0  0  0  0  0  0
  140.1160   69.2820  227.5570 C   0  0  0  0  0  0  0  0  0  0  0  0
  139.8181   68.2849  227.9134 H   0  0  0  0  0  0  0  0  0  0  0  0
  139.7020   69.7270  226.2850 C   0  0  0  0  0  0  0  0  0  0  0  0
  138.9320   68.9300  225.4160 C   0  0  0  0  0  0  0  0  0  0  0  0
  138.5980   67.7670  225.7740 O   0  0  0  0  0  0  0  0  0  0  0  0
  138.5540   69.4100  224.1820 N   0  0  0  0  0  0  0  0  0  0  0  0
  137.8390   68.5250  223.2330 C   0  0  0  0  0  0  0  0  0  0  0  0
  138.3515   68.5476  222.2600 H   0  0  0  0  0  0  0  0  0  0  0  0
  137.8347   67.5008  223.6343 H   0  0  0  0  0  0  0  0  0  0  0  0
  136.3820   68.9970  223.0510 C   0  0  0  0  0  0  0  0  0  0  0  0
  136.3844   70.0532  222.7438 H   0  0  0  0  0  0  0  0  0  0  0  0
  135.9088   68.3665  222.2838 H   0  0  0  0  0  0  0  0  0  0  0  0
  135.6080   68.8630  224.3020 N   0  0  0  0  0  0  0  0  0  0  0  0
  134.3090   68.2070  224.0460 C   0  0  0  0  0  0  0  0  0  0  0  0
  133.7901   68.7419  223.2370 H   0  0  0  0  0  0  0  0  0  0  0  0
  134.4968   67.1613  223.7611 H   0  0  0  0  0  0  0  0  0  0  0  0
  133.4210   68.2180  225.3070 C   0  0  0  0  0  0  0  0  0  0  0  0
  132.5717   68.8975  225.1429 H   0  0  0  0  0  0  0  0  0  0  0  0
  133.0650   67.1941  225.4938 H   0  0  0  0  0  0  0  0  0  0  0  0
  134.1500   68.6540  226.4360 O   0  0  0  0  0  0  0  0  0  0  0  0
  134.5640   69.9960  226.2430 C   0  0  0  0  0  0  0  0  0  0  0  0
  133.6719   70.6362  226.1778 H   0  0  0  0  0  0  0  0  0  0  0  0
  135.1986   70.2799  227.0954 H   0  0  0  0  0  0  0  0  0  0  0  0
  135.3950   70.1690  224.9550 C   0  0  0  0  0  0  0  0  0  0  0  0
  134.8588   70.8365  224.2644 H   0  0  0  0  0  0  0  0  0  0  0  0
  136.3722   70.6016  225.2158 H   0  0  0  0  0  0  0  0  0  0  0  0
  139.4730   73.4520  221.8640 C   0  0  0  0  0  0  0  0  0  0  0  0
  140.6450   74.1500  221.9100 N   0  0  0  0  0  0  0  0  0  0  0  0
  140.6540   75.5100  221.9630 C   0  0  0  0  0  0  0  0  0  0  0  0
  141.6079   76.0558  222.0095 H   0  0  0  0  0  0  0  0  0  0  0  0
  139.4430   76.2090  221.9580 C   0  0  0  0  0  0  0  0  0  0  0  0
  139.4374   77.3090  221.9613 H   0  0  0  0  0  0  0  0  0  0  0  0
  138.2750   75.5190  221.9490 N   0  0  0  0  0  0  0  0  0  0  0  0
  138.2630   74.1570  221.9150 C   0  0  0  0  0  0  0  0  0  0  0  0
  137.3071   73.6128  221.9275 H   0  0  0  0  0  0  0  0  0  0  0  0
  1  2  1  0
  2  3  2  0
  3  4  1  0
  3  5  1  0
  5  6  2  0
  6  7  1  0
  7  8  2  0
  8  9  1  0
  8 10  1  0
 10 11  1  0
 10 12  2  0
 12 13  1  0
 12 14  1  0
 14 15  1  0
 14 16  2  0
 16 17  1  0
 17 18  2  0
 17 19  1  0
 19 20  1  0
 20 21  1  0
 20 22  1  0
 20 23  1  0
 23 24  1  0
 23 25  1  0
 23 26  1  0
 26 27  1  0
 27 28  1  0
 27 29  1  0
 27 30  1  0
 30 31  1  0
 30 32  1  0
 30 33  1  0
 33 34  1  0
 34 35  1  0
 34 36  1  0
 34 37  1  0
 37 38  1  0
 37 39  1  0
  2 40  1  0
 40 41  2  0
 41 42  1  0
 42 43  1  0
 42 44  2  0
 44 45  1  0
 44 46  1  0
 46 47  2  0
 47 48  1  0
 19  5  1  0
 37 26  1  0
 47 40  1  0
 16  7  1  0
M  END
>  <UniqueID>  (41) 
508

>  <SMILES>  (41) 
O=c1c2ccccc2nc(/C=C/c2cnccn2)n1CCN1CCOCC1

>  <Energy>  (41) 
78.46841818005298

>  <Genealogy>  (41) 
O=c1c2ccccc2nc(/C=C/c2cnccn2)n1CCN1CCOCC1 (cis-trans isomerization)
O=c1c2ccccc2nc(/C=C/c2cnccn2)n1CCN1CCOCC1 (3D coordinates assigned)
O=c1c2ccccc2nc(/C=C/c2cnccn2)n1CCN1CCOCC1 (nonaromatic ring conformer: 78.46841818005298 kcal/mol)

>  <smiles>  (41) 
O=c1c2ccccc2nc(/C=C/c2cnccn2)n1CCN1CCOCC1

>  <score_type>  (41) 
oracle

>  <origin>  (41) 
autodockgpu

>  <m_score__min__energy>  (41) 
-7.7300000000000004

>  <m_primary>  (41) 
energy

>  <meeko>  (41) 
{"free_energy": -7.67, "intermolecular_energy": -9.46, "internal_energy": -1.25, "cluster_size": 12, "cluster_id": 1, "rank_in_cluster": 3}

>  <energy>  (41) 
-7.73

>  <cluster_rmsd>  (41) 
0.0

>  <rmsd>  (41) 
270.25

>  <cluster>  (41) 
1

$$$$
OQAGMIVLLKVZIV-AATRIKPKNA-N
     RDKit          3D

 48 51  0  0  0  0  0  0  0  0999 V2000
  137.7173   72.9043  222.1379 H   0  0  0  0  0  0  0  0  0  0  0  0
  138.7020   72.4240  222.0390 C   0  0  0  0  0  0  0  0  0  0  0  0
  138.8110   71.1150  222.3020 C   0  0  0  0  0  0  0  0  0  0  0  0
  138.6917   70.3832  221.4895 H   0  0  0  0  0  0  0  0  0  0  0  0
  139.0890   70.6490  223.6690 C   0  0  0  0  0  0  0  0  0  0  0  0
  139.8840   71.4260  224.4510 N   0  0  0  0  0  0  0  0  0  0  0  0
  140.2100   71.0680  225.7150 C   0  0  0  0  0  0  0  0  0  0  0  0
  141.0530   71.8860  226.4810 C   0  0  0  0  0  0  0  0  0  0  0  0
  141.4490   72.8192  226.0541 H   0  0  0  0  0  0  0  0  0  0  0  0
  141.3910   71.5170  227.7870 C   0  0  0  0  0  0  0  0  0  0  0  0
  142.0543   72.1589  228.3853 H   0  0  0  0  0  0  0  0  0  0  0  0
  140.8870   70.3340  228.3320 C   0  0  0  0  0  0  0  0  0  0  0  0
  141.1435   70.0536  229.3643 H   0  0  0  0  0  0  0  0  0  0  0  0
  140.0580   69.5050  227.5710 C   0  0  0  0  0  0  0  0  0  0  0  0
  139.6756   68.5674  228.0008 H   0  0  0  0  0  0  0  0  0  0  0  0
  139.7110   69.8680  226.2540 C   0  0  0  0  0  0  0  0  0  0  0  0
  138.9030   69.0580  225.4320 C   0  0  0  0  0  0  0  0  0  0  0  0
  138.4730   67.9590  225.8760 O   0  0  0  0  0  0  0  0  0  0  0  0
  138.5930   69.4570  224.1510 N   0  0  0  0  0  0  0  0  0  0  0  0
  137.8370   68.5490  223.2580 C   0  0  0  0  0  0  0  0  0  0  0  0
  138.3607   68.4697  222.2939 H   0  0  0  0  0  0  0  0  0  0  0  0
  137.7666   67.5589  223.7320 H   0  0  0  0  0  0  0  0  0  0  0  0
  136.4130   69.0930  223.0200 C   0  0  0  0  0  0  0  0  0  0  0  0
  136.4745   70.1679  222.7948 H   0  0  0  0  0  0  0  0  0  0  0  0
  135.9695   68.5402  222.1787 H   0  0  0  0  0  0  0  0  0  0  0  0
  135.5530   68.9000  224.2040 N   0  0  0  0  0  0  0  0  0  0  0  0
  134.2780   68.2540  223.8260 C   0  0  0  0  0  0  0  0  0  0  0  0
  133.8152   68.8250  223.0076 H   0  0  0  0  0  0  0  0  0  0  0  0
  134.4909   67.2229  223.5074 H   0  0  0  0  0  0  0  0  0  0  0  0
  133.3030   68.2050  225.0190 C   0  0  0  0  0  0  0  0  0  0  0  0
  132.4643   68.8901  224.8262 H   0  0  0  0  0  0  0  0  0  0  0  0
  132.9401   67.1728  225.1321 H   0  0  0  0  0  0  0  0  0  0  0  0
  133.9470   68.5890  226.2170 O   0  0  0  0  0  0  0  0  0  0  0  0
  134.3680   69.9390  226.1170 C   0  0  0  0  0  0  0  0  0  0  0  0
  133.4799   70.5808  226.0195 H   0  0  0  0  0  0  0  0  0  0  0  0
  134.9401   70.1826  227.0244 H   0  0  0  0  0  0  0  0  0  0  0  0
  135.2870   70.1740  224.9000 C   0  0  0  0  0  0  0  0  0  0  0  0
  134.7970   70.8716  224.2048 H   0  0  0  0  0  0  0  0  0  0  0  0
  136.2408   70.5965  225.2488 H   0  0  0  0  0  0  0  0  0  0  0  0
  139.8560   73.2460  221.6210 C   0  0  0  0  0  0  0  0  0  0  0  0
  139.9580   74.5540  221.9980 N   0  0  0  0  0  0  0  0  0  0  0  0
  141.0240   75.3130  221.6250 C   0  0  0  0  0  0  0  0  0  0  0  0
  141.0853   76.3683  221.9292 H   0  0  0  0  0  0  0  0  0  0  0  0
  142.0420   74.7430  220.8520 C   0  0  0  0  0  0  0  0  0  0  0  0
  142.9278   75.3348  220.5778 H   0  0  0  0  0  0  0  0  0  0  0  0
  141.9270   73.4550  220.4440 N   0  0  0  0  0  0  0  0  0  0  0  0
  140.8510   72.6970  220.8020 C   0  0  0  0  0  0  0  0  0  0  0  0
  140.7649   71.6587  220.4490 H   0  0  0  0  0  0  0  0  0  0  0  0
  1  2  1  0
  2  3  2  0
  3  4  1  0
  3  5  1  0
  5  6  2  0
  6  7  1  0
  7  8  2  0
  8  9  1  0
  8 10  1  0
 10 11  1  0
 10 12  2  0
 12 13  1  0
 12 14  1  0
 14 15  1  0
 14 16  2  0
 16 17  1  0
 17 18  2  0
 17 19  1  0
 19 20  1  0
 20 21  1  0
 20 22  1  0
 20 23  1  0
 23 24  1  0
 23 25  1  0
 23 26  1  0
 26 27  1  0
 27 28  1  0
 27 29  1  0
 27 30  1  0
 30 31  1  0
 30 32  1  0
 30 33  1  0
 33 34  1  0
 34 35  1  0
 34 36  1  0
 34 37  1  0
 37 38  1  0
 37 39  1  0
  2 40  1  0
 40 41  2  0
 41 42  1  0
 42 43  1  0
 42 44  2  0
 44 45  1  0
 44 46  1  0
 46 47  2  0
 47 48  1  0
 19  5  1  0
 37 26  1  0
 47 40  1  0
 16  7  1  0
M  END
>  <UniqueID>  (42) 
508

>  <SMILES>  (42) 
O=c1c2ccccc2nc(/C=C/c2cnccn2)n1CCN1CCOCC1

>  <Energy>  (42) 
78.46841818005298

>  <Genealogy>  (42) 
O=c1c2ccccc2nc(/C=C/c2cnccn2)n1CCN1CCOCC1 (cis-trans isomerization)
O=c1c2ccccc2nc(/C=C/c2cnccn2)n1CCN1CCOCC1 (3D coordinates assigned)
O=c1c2ccccc2nc(/C=C/c2cnccn2)n1CCN1CCOCC1 (nonaromatic ring conformer: 78.46841818005298 kcal/mol)

>  <smiles>  (42) 
O=c1c2ccccc2nc(/C=C/c2cnccn2)n1CCN1CCOCC1

>  <score_type>  (42) 
oracle

>  <origin>  (42) 
autodockgpu

>  <m_score__min__energy>  (42) 
-7.7300000000000004

>  <m_primary>  (42) 
energy

>  <meeko>  (42) 
{"free_energy": -7.69, "intermolecular_energy": -9.48, "internal_energy": -1.21, "cluster_size": 12, "cluster_id": 1, "rank_in_cluster": 2}

>  <energy>  (42) 
-7.69

>  <cluster_rmsd>  (42) 
0.93

>  <rmsd>  (42) 
270.29

>  <cluster>  (42) 
1

$$$$
OQAGMIVLLKVZIV-AATRIKPKNA-N
     RDKit          3D

 48 51  0  0  0  0  0  0  0  0999 V2000
  141.6630   71.5744  221.2468 H   0  0  0  0  0  0  0  0  0  0  0  0
  140.7410   72.0400  221.6250 C   0  0  0  0  0  0  0  0  0  0  0  0
  139.7490   71.2500  222.0560 C   0  0  0  0  0  0  0  0  0  0  0  0
  138.9147   71.0052  221.3822 H   0  0  0  0  0  0  0  0  0  0  0  0
  139.7660   70.7070  223.4230 C   0  0  0  0  0  0  0  0  0  0  0  0
  140.3160   71.4750  224.4000 N   0  0  0  0  0  0  0  0  0  0  0  0
  140.3930   71.0500  225.6820 C   0  0  0  0  0  0  0  0  0  0  0  0
  140.9900   71.8630  226.6560 C   0  0  0  0  0  0  0  0  0  0  0  0
  141.3951   72.8470  226.3773 H   0  0  0  0  0  0  0  0  0  0  0  0
  141.0710   71.4240  227.9820 C   0  0  0  0  0  0  0  0  0  0  0  0
  141.5416   72.0624  228.7443 H   0  0  0  0  0  0  0  0  0  0  0  0
  140.5550   70.1760  228.3390 C   0  0  0  0  0  0  0  0  0  0  0  0
  140.6078   69.8400  229.3851 H   0  0  0  0  0  0  0  0  0  0  0  0
  139.9720   69.3530  227.3720 C   0  0  0  0  0  0  0  0  0  0  0  0
  139.5806   68.3651  227.6564 H   0  0  0  0  0  0  0  0  0  0  0  0
  139.8840   69.7850  226.0330 C   0  0  0  0  0  0  0  0  0  0  0  0
  139.3330   68.9860  225.0130 C   0  0  0  0  0  0  0  0  0  0  0  0
  138.9040   67.8330  225.2910 O   0  0  0  0  0  0  0  0  0  0  0  0
  139.2720   69.4550  223.7190 N   0  0  0  0  0  0  0  0  0  0  0  0
  138.7930   68.5660  222.6340 C   0  0  0  0  0  0  0  0  0  0  0  0
  139.4624   68.6599  221.7662 H   0  0  0  0  0  0  0  0  0  0  0  0
  138.7899   67.5280  222.9981 H   0  0  0  0  0  0  0  0  0  0  0  0
  137.3600   68.9540  222.2150 C   0  0  0  0  0  0  0  0  0  0  0  0
  137.3286   70.0337  222.0072 H   0  0  0  0  0  0  0  0  0  0  0  0
  137.0941   68.3742  221.3188 H   0  0  0  0  0  0  0  0  0  0  0  0
  136.3810   68.6410  223.2760 N   0  0  0  0  0  0  0  0  0  0  0  0
  135.1000   68.1950  222.6890 C   0  0  0  0  0  0  0  0  0  0  0  0
  134.7624   68.9411  221.9546 H   0  0  0  0  0  0  0  0  0  0  0  0
  135.2584   67.2200  222.2050 H   0  0  0  0  0  0  0  0  0  0  0  0
  134.0170   68.0320  223.7760 C   0  0  0  0  0  0  0  0  0  0  0  0
  133.2570   68.8167  223.6468 H   0  0  0  0  0  0  0  0  0  0  0  0
  133.5639   67.0351  223.6720 H   0  0  0  0  0  0  0  0  0  0  0  0
  134.5760   68.1390  225.0690 O   0  0  0  0  0  0  0  0  0  0  0  0
  135.1100   69.4390  225.2480 C   0  0  0  0  0  0  0  0  0  0  0  0
  134.2886   70.1691  225.2003 H   0  0  0  0  0  0  0  0  0  0  0  0
  135.6130   69.4659  226.2259 H   0  0  0  0  0  0  0  0  0  0  0  0
  136.1540   69.7940  224.1680 C   0  0  0  0  0  0  0  0  0  0  0  0
  135.7875   70.6449  223.5749 H   0  0  0  0  0  0  0  0  0  0  0  0
  137.1019   70.0576  224.6599 H   0  0  0  0  0  0  0  0  0  0  0  0
  140.6420   73.5140  221.6390 C   0  0  0  0  0  0  0  0  0  0  0  0
  139.6220   74.1410  222.2940 N   0  0  0  0  0  0  0  0  0  0  0  0
  139.5310   75.4990  222.3180 C   0  0  0  0  0  0  0  0  0  0  0  0
  138.6966   75.9881  222.8419 H   0  0  0  0  0  0  0  0  0  0  0  0
  140.5040   76.2690  221.6730 C   0  0  0  0  0  0  0  0  0  0  0  0
  140.4627   77.3673  221.7187 H   0  0  0  0  0  0  0  0  0  0  0  0
  141.5000   75.6490  220.9900 N   0  0  0  0  0  0  0  0  0  0  0  0
  141.5830   74.2890  220.9490 C   0  0  0  0  0  0  0  0  0  0  0  0
  142.3859   73.8019  220.3762 H   0  0  0  0  0  0  0  0  0  0  0  0
  1  2  1  0
  2  3  2  0
  3  4  1  0
  3  5  1  0
  5  6  2  0
  6  7  1  0
  7  8  2  0
  8  9  1  0
  8 10  1  0
 10 11  1  0
 10 12  2  0
 12 13  1  0
 12 14  1  0
 14 15  1  0
 14 16  2  0
 16 17  1  0
 17 18  2  0
 17 19  1  0
 19 20  1  0
 20 21  1  0
 20 22  1  0
 20 23  1  0
 23 24  1  0
 23 25  1  0
 23 26  1  0
 26 27  1  0
 27 28  1  0
 27 29  1  0
 27 30  1  0
 30 31  1  0
 30 32  1  0
 30 33  1  0
 33 34  1  0
 34 35  1  0
 34 36  1  0
 34 37  1  0
 37 38  1  0
 37 39  1  0
  2 40  1  0
 40 41  2  0
 41 42  1  0
 42 43  1  0
 42 44  2  0
 44 45  1  0
 44 46  1  0
 46 47  2  0
 47 48  1  0
 19  5  1  0
 37 26  1  0
 47 40  1  0
 16  7  1  0
M  END
>  <UniqueID>  (43) 
508

>  <SMILES>  (43) 
O=c1c2ccccc2nc(/C=C/c2cnccn2)n1CCN1CCOCC1

>  <Energy>  (43) 
78.46841818005298

>  <Genealogy>  (43) 
O=c1c2ccccc2nc(/C=C/c2cnccn2)n1CCN1CCOCC1 (cis-trans isomerization)
O=c1c2ccccc2nc(/C=C/c2cnccn2)n1CCN1CCOCC1 (3D coordinates assigned)
O=c1c2ccccc2nc(/C=C/c2cnccn2)n1CCN1CCOCC1 (nonaromatic ring conformer: 78.46841818005298 kcal/mol)

>  <smiles>  (43) 
O=c1c2ccccc2nc(/C=C/c2cnccn2)n1CCN1CCOCC1

>  <score_type>  (43) 
oracle

>  <origin>  (43) 
autodockgpu

>  <m_score__min__energy>  (43) 
-7.7300000000000004

>  <m_primary>  (43) 
energy

>  <meeko>  (43) 
{"free_energy": -7.65, "intermolecular_energy": -9.44, "internal_energy": -1.26, "cluster_size": 12, "cluster_id": 1, "rank_in_cluster": 7}

>  <energy>  (43) 
-7.67

>  <cluster_rmsd>  (43) 
1.07

>  <rmsd>  (43) 
270.35

>  <cluster>  (43) 
1

$$$$
OQAGMIVLLKVZIV-AATRIKPKNA-N
     RDKit          3D

 48 51  0  0  0  0  0  0  0  0999 V2000
  142.3842   80.0001  219.1133 H   0  0  0  0  0  0  0  0  0  0  0  0
  141.8090   79.5360  219.9280 C   0  0  0  0  0  0  0  0  0  0  0  0
  140.9970   78.5100  219.6420 C   0  0  0  0  0  0  0  0  0  0  0  0
  140.0767   78.6867  219.0660 H   0  0  0  0  0  0  0  0  0  0  0  0
  141.3260   77.1490  220.0920 C   0  0  0  0  0  0  0  0  0  0  0  0
  142.5110   76.6200  219.6870 N   0  0  0  0  0  0  0  0  0  0  0  0
  142.8890   75.3680  220.0360 C   0  0  0  0  0  0  0  0  0  0  0  0
  144.1080   74.8500  219.5770 C   0  0  0  0  0  0  0  0  0  0  0  0
  144.7571   75.4615  218.9331 H   0  0  0  0  0  0  0  0  0  0  0  0
  144.5000   73.5560  219.9370 C   0  0  0  0  0  0  0  0  0  0  0  0
  145.4567   73.1511  219.5753 H   0  0  0  0  0  0  0  0  0  0  0  0
  143.6780   72.7780  220.7550 C   0  0  0  0  0  0  0  0  0  0  0  0
  143.9949   71.7657  221.0463 H   0  0  0  0  0  0  0  0  0  0  0  0
  142.4540   73.2810  221.2050 C   0  0  0  0  0  0  0  0  0  0  0  0
  141.8045   72.6585  221.8380 H   0  0  0  0  0  0  0  0  0  0  0  0
  142.0500   74.5830  220.8500 C   0  0  0  0  0  0  0  0  0  0  0  0
  140.8150   75.1300  221.2490 C   0  0  0  0  0  0  0  0  0  0  0  0
  140.0270   74.4360  221.9470 O   0  0  0  0  0  0  0  0  0  0  0  0
  140.4660   76.4090  220.8740 N   0  0  0  0  0  0  0  0  0  0  0  0
  139.1210   76.9340  221.2060 C   0  0  0  0  0  0  0  0  0  0  0  0
  138.9162   77.8220  220.5900 H   0  0  0  0  0  0  0  0  0  0  0  0
  138.3730   76.1533  221.0036 H   0  0  0  0  0  0  0  0  0  0  0  0
  139.0490   77.3220  222.6970 C   0  0  0  0  0  0  0  0  0  0  0  0
  138.4066   76.6005  223.2231 H   0  0  0  0  0  0  0  0  0  0  0  0
  140.0702   77.3093  223.1058 H   0  0  0  0  0  0  0  0  0  0  0  0
  138.4950   78.6790  222.8790 N   0  0  0  0  0  0  0  0  0  0  0  0
  138.3980   79.3830  221.5840 C   0  0  0  0  0  0  0  0  0  0  0  0
  139.3764   79.3482  221.0826 H   0  0  0  0  0  0  0  0  0  0  0  0
  137.6310   78.8843  220.9733 H   0  0  0  0  0  0  0  0  0  0  0  0
  137.9850   80.8560  221.7790 C   0  0  0  0  0  0  0  0  0  0  0  0
  138.8366   81.5049  221.5268 H   0  0  0  0  0  0  0  0  0  0  0  0
  137.1296   81.0704  221.1215 H   0  0  0  0  0  0  0  0  0  0  0  0
  137.5980   81.1000  223.1160 O   0  0  0  0  0  0  0  0  0  0  0  0
  138.7040   80.8910  223.9760 C   0  0  0  0  0  0  0  0  0  0  0  0
  139.4839   81.6286  223.7359 H   0  0  0  0  0  0  0  0  0  0  0  0
  138.3523   81.0035  225.0122 H   0  0  0  0  0  0  0  0  0  0  0  0
  139.2970   79.4750  223.8280 C   0  0  0  0  0  0  0  0  0  0  0  0
  140.3292   79.5513  223.4555 H   0  0  0  0  0  0  0  0  0  0  0  0
  139.2855   78.9785  224.8095 H   0  0  0  0  0  0  0  0  0  0  0  0
  141.9600   80.0670  221.2990 C   0  0  0  0  0  0  0  0  0  0  0  0
  142.4210   79.2750  222.3100 N   0  0  0  0  0  0  0  0  0  0  0  0
  142.5710   79.7610  223.5720 C   0  0  0  0  0  0  0  0  0  0  0  0
  142.9334   79.1056  224.3777 H   0  0  0  0  0  0  0  0  0  0  0  0
  142.2620   81.0980  223.8390 C   0  0  0  0  0  0  0  0  0  0  0  0
  142.4170   81.5128  224.8459 H   0  0  0  0  0  0  0  0  0  0  0  0
  141.7690   81.8800  222.8450 N   0  0  0  0  0  0  0  0  0  0  0  0
  141.6000   81.3900  221.5840 C   0  0  0  0  0  0  0  0  0  0  0  0
  141.1826   82.0312  220.7937 H   0  0  0  0  0  0  0  0  0  0  0  0
  1  2  1  0
  2  3  2  0
  3  4  1  0
  3  5  1  0
  5  6  2  0
  6  7  1  0
  7  8  2  0
  8  9  1  0
  8 10  1  0
 10 11  1  0
 10 12  2  0
 12 13  1  0
 12 14  1  0
 14 15  1  0
 14 16  2  0
 16 17  1  0
 17 18  2  0
 17 19  1  0
 19 20  1  0
 20 21  1  0
 20 22  1  0
 20 23  1  0
 23 24  1  0
 23 25  1  0
 23 26  1  0
 26 27  1  0
 27 28  1  0
 27 29  1  0
 27 30  1  0
 30 31  1  0
 30 32  1  0
 30 33  1  0
 33 34  1  0
 34 35  1  0
 34 36  1  0
 34 37  1  0
 37 38  1  0
 37 39  1  0
  2 40  1  0
 40 41  2  0
 41 42  1  0
 42 43  1  0
 42 44  2  0
 44 45  1  0
 44 46  1  0
 46 47  2  0
 47 48  1  0
 19  5  1  0
 37 26  1  0
 47 40  1  0
 16  7  1  0
M  END
>  <UniqueID>  (44) 
508

>  <SMILES>  (44) 
O=c1c2ccccc2nc(/C=C/c2cnccn2)n1CCN1CCOCC1

>  <Energy>  (44) 
78.46841818005298

>  <Genealogy>  (44) 
O=c1c2ccccc2nc(/C=C/c2cnccn2)n1CCN1CCOCC1 (cis-trans isomerization)
O=c1c2ccccc2nc(/C=C/c2cnccn2)n1CCN1CCOCC1 (3D coordinates assigned)
O=c1c2ccccc2nc(/C=C/c2cnccn2)n1CCN1CCOCC1 (nonaromatic ring conformer: 78.46841818005298 kcal/mol)

>  <smiles>  (44) 
O=c1c2ccccc2nc(/C=C/c2cnccn2)n1CCN1CCOCC1

>  <score_type>  (44) 
oracle

>  <origin>  (44) 
autodockgpu

>  <m_score__min__energy>  (44) 
-7.7300000000000004

>  <m_primary>  (44) 
energy

>  <meeko>  (44) 
{"free_energy": -5.67, "intermolecular_energy": -7.46, "internal_energy": -1.94, "cluster_size": 2, "cluster_id": 4, "rank_in_cluster": 1}

>  <energy>  (44) 
-7.67

>  <cluster_rmsd>  (44) 
0.21

>  <rmsd>  (44) 
270.21

>  <cluster>  (44) 
1

$$$$
OQAGMIVLLKVZIV-AATRIKPKNA-N
     RDKit          3D

 48 51  0  0  0  0  0  0  0  0999 V2000
  137.7342   72.1420  221.6530 H   0  0  0  0  0  0  0  0  0  0  0  0
  138.7830   72.3770  221.8870 C   0  0  0  0  0  0  0  0  0  0  0  0
  139.6320   71.3690  222.1310 C   0  0  0  0  0  0  0  0  0  0  0  0
  140.2699   70.9851  221.3212 H   0  0  0  0  0  0  0  0  0  0  0  0
  139.7180   70.7720  223.4720 C   0  0  0  0  0  0  0  0  0  0  0  0
  140.2520   71.5280  224.4660 N   0  0  0  0  0  0  0  0  0  0  0  0
  140.3880   71.0560  225.7270 C   0  0  0  0  0  0  0  0  0  0  0  0
  140.9670   71.8600  226.7190 C   0  0  0  0  0  0  0  0  0  0  0  0
  141.3092   72.8759  226.4722 H   0  0  0  0  0  0  0  0  0  0  0  0
  141.1100   71.3720  228.0220 C   0  0  0  0  0  0  0  0  0  0  0  0
  141.5661   72.0037  228.7985 H   0  0  0  0  0  0  0  0  0  0  0  0
  140.6740   70.0830  228.3380 C   0  0  0  0  0  0  0  0  0  0  0  0
  140.7753   69.7075  229.3669 H   0  0  0  0  0  0  0  0  0  0  0  0
  140.1100   69.2690  227.3530 C   0  0  0  0  0  0  0  0  0  0  0  0
  139.7821   68.2497  227.6050 H   0  0  0  0  0  0  0  0  0  0  0  0
  139.9600   69.7510  226.0360 C   0  0  0  0  0  0  0  0  0  0  0  0
  139.4260   68.9660  224.9970 C   0  0  0  0  0  0  0  0  0  0  0  0
  139.0690   67.7800  225.2370 O   0  0  0  0  0  0  0  0  0  0  0  0
  139.3020   69.4830  223.7260 N   0  0  0  0  0  0  0  0  0  0  0  0
  138.8430   68.6150  222.6170 C   0  0  0  0  0  0  0  0  0  0  0  0
  139.2436   68.9982  221.6669 H   0  0  0  0  0  0  0  0  0  0  0  0
  139.2030   67.5905  222.7926 H   0  0  0  0  0  0  0  0  0  0  0  0
  137.3020   68.6000  222.5500 C   0  0  0  0  0  0  0  0  0  0  0  0
  136.9900   68.6394  221.4959 H   0  0  0  0  0  0  0  0  0  0  0  0
  136.9454   67.6771  223.0306 H   0  0  0  0  0  0  0  0  0  0  0  0
  136.7160   69.7510  223.2670 N   0  0  0  0  0  0  0  0  0  0  0  0
  135.8240   69.2920  224.3520 C   0  0  0  0  0  0  0  0  0  0  0  0
  135.0907   68.5840  223.9384 H   0  0  0  0  0  0  0  0  0  0  0  0
  136.4375   68.8071  225.1257 H   0  0  0  0  0  0  0  0  0  0  0  0
  135.0730   70.4760  224.9950 C   0  0  0  0  0  0  0  0  0  0  0  0
  134.0062   70.4094  224.7350 H   0  0  0  0  0  0  0  0  0  0  0  0
  135.2073   70.4259  226.0856 H   0  0  0  0  0  0  0  0  0  0  0  0
  135.5850   71.7100  224.5340 O   0  0  0  0  0  0  0  0  0  0  0  0
  135.3640   71.8240  223.1390 C   0  0  0  0  0  0  0  0  0  0  0  0
  134.2801   71.8441  222.9523 H   0  0  0  0  0  0  0  0  0  0  0  0
  135.8462   72.7508  222.7949 H   0  0  0  0  0  0  0  0  0  0  0  0
  135.9820   70.6480  222.3540 C   0  0  0  0  0  0  0  0  0  0  0  0
  135.1800   70.0825  221.8570 H   0  0  0  0  0  0  0  0  0  0  0  0
  136.6823   71.0469  221.6054 H   0  0  0  0  0  0  0  0  0  0  0  0
  139.2050   73.7920  221.9210 C   0  0  0  0  0  0  0  0  0  0  0  0
  140.5270   74.1290  221.9370 N   0  0  0  0  0  0  0  0  0  0  0  0
  140.9220   75.4320  221.9590 C   0  0  0  0  0  0  0  0  0  0  0  0
  141.9921   75.6854  221.9829 H   0  0  0  0  0  0  0  0  0  0  0  0
  139.9590   76.4460  221.9510 C   0  0  0  0  0  0  0  0  0  0  0  0
  140.2654   77.5022  221.9279 H   0  0  0  0  0  0  0  0  0  0  0  0
  138.6430   76.1150  221.9720 N   0  0  0  0  0  0  0  0  0  0  0  0
  138.2450   74.8120  221.9690 C   0  0  0  0  0  0  0  0  0  0  0  0
  137.1745   74.5615  222.0041 H   0  0  0  0  0  0  0  0  0  0  0  0
  1  2  1  0
  2  3  2  0
  3  4  1  0
  3  5  1  0
  5  6  2  0
  6  7  1  0
  7  8  2  0
  8  9  1  0
  8 10  1  0
 10 11  1  0
 10 12  2  0
 12 13  1  0
 12 14  1  0
 14 15  1  0
 14 16  2  0
 16 17  1  0
 17 18  2  0
 17 19  1  0
 19 20  1  0
 20 21  1  0
 20 22  1  0
 20 23  1  0
 23 24  1  0
 23 25  1  0
 23 26  1  0
 26 27  1  0
 27 28  1  0
 27 29  1  0
 27 30  1  0
 30 31  1  0
 30 32  1  0
 30 33  1  0
 33 34  1  0
 34 35  1  0
 34 36  1  0
 34 37  1  0
 37 38  1  0
 37 39  1  0
  2 40  1  0
 40 41  2  0
 41 42  1  0
 42 43  1  0
 42 44  2  0
 44 45  1  0
 44 46  1  0
 46 47  2  0
 47 48  1  0
 19  5  1  0
 37 26  1  0
 47 40  1  0
 16  7  1  0
M  END
>  <UniqueID>  (45) 
508

>  <SMILES>  (45) 
O=c1c2ccccc2nc(/C=C/c2cnccn2)n1CCN1CCOCC1

>  <Energy>  (45) 
78.46841818005298

>  <Genealogy>  (45) 
O=c1c2ccccc2nc(/C=C/c2cnccn2)n1CCN1CCOCC1 (cis-trans isomerization)
O=c1c2ccccc2nc(/C=C/c2cnccn2)n1CCN1CCOCC1 (3D coordinates assigned)
O=c1c2ccccc2nc(/C=C/c2cnccn2)n1CCN1CCOCC1 (nonaromatic ring conformer: 78.46841818005298 kcal/mol)

>  <smiles>  (45) 
O=c1c2ccccc2nc(/C=C/c2cnccn2)n1CCN1CCOCC1

>  <score_type>  (45) 
oracle

>  <origin>  (45) 
autodockgpu

>  <m_score__min__energy>  (45) 
-7.7300000000000004

>  <m_primary>  (45) 
energy

>  <meeko>  (45) 
{"free_energy": -6.89, "intermolecular_energy": -8.68, "internal_energy": -1.71, "cluster_size": 12, "cluster_id": 1, "rank_in_cluster": 12}

>  <energy>  (45) 
-7.65

>  <cluster_rmsd>  (45) 
1.14

>  <rmsd>  (45) 
270.26

>  <cluster>  (45) 
1

$$$$
OQAGMIVLLKVZIV-AATRIKPKNA-N
     RDKit          3D

 48 51  0  0  0  0  0  0  0  0999 V2000
  142.4379   79.8823  219.2743 H   0  0  0  0  0  0  0  0  0  0  0  0
  141.8140   79.4740  220.0830 C   0  0  0  0  0  0  0  0  0  0  0  0
  140.9800   78.4620  219.8080 C   0  0  0  0  0  0  0  0  0  0  0  0
  140.0330   78.6623  219.2854 H   0  0  0  0  0  0  0  0  0  0  0  0
  141.3200   77.0860  220.1990 C   0  0  0  0  0  0  0  0  0  0  0  0
  142.4880   76.5690  219.7350 N   0  0  0  0  0  0  0  0  0  0  0  0
  142.8740   75.3060  220.0280 C   0  0  0  0  0  0  0  0  0  0  0  0
  144.0760   74.8010  219.5090 C   0  0  0  0  0  0  0  0  0  0  0  0
  144.7045   75.4332  218.8645 H   0  0  0  0  0  0  0  0  0  0  0  0
  144.4760   73.4950  219.8100 C   0  0  0  0  0  0  0  0  0  0  0  0
  145.4182   73.1008  219.4014 H   0  0  0  0  0  0  0  0  0  0  0  0
  143.6800   72.6910  220.6290 C   0  0  0  0  0  0  0  0  0  0  0  0
  144.0042   71.6689  220.8743 H   0  0  0  0  0  0  0  0  0  0  0  0
  142.4740   73.1790  221.1380 C   0  0  0  0  0  0  0  0  0  0  0  0
  141.8449   72.5359  221.7709 H   0  0  0  0  0  0  0  0  0  0  0  0
  142.0620   74.4940  220.8420 C   0  0  0  0  0  0  0  0  0  0  0  0
  140.8430   75.0300  221.3030 C   0  0  0  0  0  0  0  0  0  0  0  0
  140.0770   74.3130  222.0030 O   0  0  0  0  0  0  0  0  0  0  0  0
  140.4860   76.3210  220.9840 N   0  0  0  0  0  0  0  0  0  0  0  0
  139.1540   76.8370  221.3810 C   0  0  0  0  0  0  0  0  0  0  0  0
  138.7816   77.5173  220.6010 H   0  0  0  0  0  0  0  0  0  0  0  0
  138.4645   75.9887  221.5032 H   0  0  0  0  0  0  0  0  0  0  0  0
  139.2500   77.6000  222.7170 C   0  0  0  0  0  0  0  0  0  0  0  0
  138.4623   77.2364  223.3932 H   0  0  0  0  0  0  0  0  0  0  0  0
  140.2477   77.4215  223.1444 H   0  0  0  0  0  0  0  0  0  0  0  0
  139.0830   79.0550  222.5250 N   0  0  0  0  0  0  0  0  0  0  0  0
  138.8300   79.7280  223.8160 C   0  0  0  0  0  0  0  0  0  0  0  0
  137.9894   79.2302  224.3215 H   0  0  0  0  0  0  0  0  0  0  0  0
  139.7425   79.6642  224.4269 H   0  0  0  0  0  0  0  0  0  0  0  0
  138.4830   81.2170  223.6100 C   0  0  0  0  0  0  0  0  0  0  0  0
  137.4243   81.3778  223.8617 H   0  0  0  0  0  0  0  0  0  0  0  0
  139.1304   81.8212  224.2626 H   0  0  0  0  0  0  0  0  0  0  0  0
  138.7040   81.6080  222.2700 O   0  0  0  0  0  0  0  0  0  0  0  0
  137.8350   80.8860  221.4150 C   0  0  0  0  0  0  0  0  0  0  0  0
  136.7964   81.1593  221.6528 H   0  0  0  0  0  0  0  0  0  0  0  0
  138.0898   81.1460  220.3770 H   0  0  0  0  0  0  0  0  0  0  0  0
  137.9960   79.3600  221.5740 C   0  0  0  0  0  0  0  0  0  0  0  0
  137.0546   78.9332  221.9502 H   0  0  0  0  0  0  0  0  0  0  0  0
  138.2440   78.9229  220.5955 H   0  0  0  0  0  0  0  0  0  0  0  0
  141.9250   80.0610  221.4350 C   0  0  0  0  0  0  0  0  0  0  0  0
  142.2680   79.2910  222.5070 N   0  0  0  0  0  0  0  0  0  0  0  0
  142.3820   79.8280  223.7520 C   0  0  0  0  0  0  0  0  0  0  0  0
  142.6503   79.1903  224.6072 H   0  0  0  0  0  0  0  0  0  0  0  0
  142.1560   81.1960  223.9380 C   0  0  0  0  0  0  0  0  0  0  0  0
  142.2831   81.6493  224.9322 H   0  0  0  0  0  0  0  0  0  0  0  0
  141.7790   81.9580  222.8820 N   0  0  0  0  0  0  0  0  0  0  0  0
  141.6460   81.4190  221.6370 C   0  0  0  0  0  0  0  0  0  0  0  0
  141.3211   82.0475  220.7947 H   0  0  0  0  0  0  0  0  0  0  0  0
  1  2  1  0
  2  3  2  0
  3  4  1  0
  3  5  1  0
  5  6  2  0
  6  7  1  0
  7  8  2  0
  8  9  1  0
  8 10  1  0
 10 11  1  0
 10 12  2  0
 12 13  1  0
 12 14  1  0
 14 15  1  0
 14 16  2  0
 16 17  1  0
 17 18  2  0
 17 19  1  0
 19 20  1  0
 20 21  1  0
 20 22  1  0
 20 23  1  0
 23 24  1  0
 23 25  1  0
 23 26  1  0
 26 27  1  0
 27 28  1  0
 27 29  1  0
 27 30  1  0
 30 31  1  0
 30 32  1  0
 30 33  1  0
 33 34  1  0
 34 35  1  0
 34 36  1  0
 34 37  1  0
 37 38  1  0
 37 39  1  0
  2 40  1  0
 40 41  2  0
 41 42  1  0
 42 43  1  0
 42 44  2  0
 44 45  1  0
 44 46  1  0
 46 47  2  0
 47 48  1  0
 19  5  1  0
 37 26  1  0
 47 40  1  0
 16  7  1  0
M  END
>  <UniqueID>  (46) 
508

>  <SMILES>  (46) 
O=c1c2ccccc2nc(/C=C/c2cnccn2)n1CCN1CCOCC1

>  <Energy>  (46) 
78.46841818005298

>  <Genealogy>  (46) 
O=c1c2ccccc2nc(/C=C/c2cnccn2)n1CCN1CCOCC1 (cis-trans isomerization)
O=c1c2ccccc2nc(/C=C/c2cnccn2)n1CCN1CCOCC1 (3D coordinates assigned)
O=c1c2ccccc2nc(/C=C/c2cnccn2)n1CCN1CCOCC1 (nonaromatic ring conformer: 78.46841818005298 kcal/mol)

>  <smiles>  (46) 
O=c1c2ccccc2nc(/C=C/c2cnccn2)n1CCN1CCOCC1

>  <score_type>  (46) 
oracle

>  <origin>  (46) 
autodockgpu

>  <m_score__min__energy>  (46) 
-7.7300000000000004

>  <m_primary>  (46) 
energy

>  <meeko>  (46) 
{"free_energy": -5.65, "intermolecular_energy": -7.44, "internal_energy": -2.01, "cluster_size": 2, "cluster_id": 4, "rank_in_cluster": 2}

>  <energy>  (46) 
-7.65

>  <cluster_rmsd>  (46) 
1.07

>  <rmsd>  (46) 
270.37

>  <cluster>  (46) 
1

$$$$
OQAGMIVLLKVZIV-AATRIKPKNA-N
     RDKit          3D

 48 51  0  0  0  0  0  0  0  0999 V2000
  141.2697   72.2136  221.0620 H   0  0  0  0  0  0  0  0  0  0  0  0
  140.3120   72.0540  221.5790 C   0  0  0  0  0  0  0  0  0  0  0  0
  139.9710   70.8090  221.9380 C   0  0  0  0  0  0  0  0  0  0  0  0
  139.7423   70.0613  221.1643 H   0  0  0  0  0  0  0  0  0  0  0  0
  139.9000   70.4340  223.3590 C   0  0  0  0  0  0  0  0  0  0  0  0
  140.4610   71.2800  224.2630 N   0  0  0  0  0  0  0  0  0  0  0  0
  140.4600   71.0090  225.5880 C   0  0  0  0  0  0  0  0  0  0  0  0
  141.0710   71.8960  226.4870 C   0  0  0  0  0  0  0  0  0  0  0  0
  141.5500   72.8131  226.1136 H   0  0  0  0  0  0  0  0  0  0  0  0
  141.0720   71.6160  227.8570 C   0  0  0  0  0  0  0  0  0  0  0  0
  141.5529   72.3123  228.5598 H   0  0  0  0  0  0  0  0  0  0  0  0
  140.4630   70.4530  228.3340 C   0  0  0  0  0  0  0  0  0  0  0  0
  140.4541   70.2424  229.4136 H   0  0  0  0  0  0  0  0  0  0  0  0
  139.8650   69.5560  227.4450 C   0  0  0  0  0  0  0  0  0  0  0  0
  139.3992   68.6350  227.8255 H   0  0  0  0  0  0  0  0  0  0  0  0
  139.8570   69.8280  226.0620 C   0  0  0  0  0  0  0  0  0  0  0  0
  139.2950   68.9470  225.1190 C   0  0  0  0  0  0  0  0  0  0  0  0
  138.7810   67.8640  225.5110 O   0  0  0  0  0  0  0  0  0  0  0  0
  139.3140   69.2600  223.7770 N   0  0  0  0  0  0  0  0  0  0  0  0
  138.8210   68.2770  222.7840 C   0  0  0  0  0  0  0  0  0  0  0  0
  139.5165   68.2418  221.9325 H   0  0  0  0  0  0  0  0  0  0  0  0
  138.7582   67.2879  223.2612 H   0  0  0  0  0  0  0  0  0  0  0  0
  137.4200   68.6800  222.2800 C   0  0  0  0  0  0  0  0  0  0  0  0
  137.4407   69.7365  221.9743 H   0  0  0  0  0  0  0  0  0  0  0  0
  137.1595   68.0309  221.4310 H   0  0  0  0  0  0  0  0  0  0  0  0
  136.3940   68.5040  223.3290 N   0  0  0  0  0  0  0  0  0  0  0  0
  135.1010   68.1070  222.7340 C   0  0  0  0  0  0  0  0  0  0  0  0
  134.8345   68.8238  221.9433 H   0  0  0  0  0  0  0  0  0  0  0  0
  135.2046   67.0935  222.3192 H   0  0  0  0  0  0  0  0  0  0  0  0
  133.9820   68.0890  223.7950 C   0  0  0  0  0  0  0  0  0  0  0  0
  133.2807   68.9119  223.5922 H   0  0  0  0  0  0  0  0  0  0  0  0
  133.4645   67.1198  223.7421 H   0  0  0  0  0  0  0  0  0  0  0  0
  134.5140   68.2450  225.0950 O   0  0  0  0  0  0  0  0  0  0  0  0
  135.1310   69.5150  225.2060 C   0  0  0  0  0  0  0  0  0  0  0  0
  134.3632   70.2936  225.0865 H   0  0  0  0  0  0  0  0  0  0  0  0
  135.6092   69.5729  226.1949 H   0  0  0  0  0  0  0  0  0  0  0  0
  136.2240   69.7270  224.1380 C   0  0  0  0  0  0  0  0  0  0  0  0
  135.9324   70.5593  223.4806 H   0  0  0  0  0  0  0  0  0  0  0  0
  137.1748   69.9588  224.6402 H   0  0  0  0  0  0  0  0  0  0  0  0
  139.4470   73.2200  221.8530 C   0  0  0  0  0  0  0  0  0  0  0  0
  139.9860   74.4500  222.0990 N   0  0  0  0  0  0  0  0  0  0  0  0
  139.1940   75.5290  222.3420 C   0  0  0  0  0  0  0  0  0  0  0  0
  139.6454   76.5107  222.5485 H   0  0  0  0  0  0  0  0  0  0  0  0
  137.8030   75.3840  222.3280 C   0  0  0  0  0  0  0  0  0  0  0  0
  137.1522   76.2568  222.4850 H   0  0  0  0  0  0  0  0  0  0  0  0
  137.2640   74.1570  222.1190 N   0  0  0  0  0  0  0  0  0  0  0  0
  138.0550   73.0700  221.8930 C   0  0  0  0  0  0  0  0  0  0  0  0
  137.6018   72.0790  221.7427 H   0  0  0  0  0  0  0  0  0  0  0  0
  1  2  1  0
  2  3  2  0
  3  4  1  0
  3  5  1  0
  5  6  2  0
  6  7  1  0
  7  8  2  0
  8  9  1  0
  8 10  1  0
 10 11  1  0
 10 12  2  0
 12 13  1  0
 12 14  1  0
 14 15  1  0
 14 16  2  0
 16 17  1  0
 17 18  2  0
 17 19  1  0
 19 20  1  0
 20 21  1  0
 20 22  1  0
 20 23  1  0
 23 24  1  0
 23 25  1  0
 23 26  1  0
 26 27  1  0
 27 28  1  0
 27 29  1  0
 27 30  1  0
 30 31  1  0
 30 32  1  0
 30 33  1  0
 33 34  1  0
 34 35  1  0
 34 36  1  0
 34 37  1  0
 37 38  1  0
 37 39  1  0
  2 40  1  0
 40 41  2  0
 41 42  1  0
 42 43  1  0
 42 44  2  0
 44 45  1  0
 44 46  1  0
 46 47  2  0
 47 48  1  0
 19  5  1  0
 37 26  1  0
 47 40  1  0
 16  7  1  0
M  END
>  <UniqueID>  (47) 
508

>  <SMILES>  (47) 
O=c1c2ccccc2nc(/C=C/c2cnccn2)n1CCN1CCOCC1

>  <Energy>  (47) 
78.46841818005298

>  <Genealogy>  (47) 
O=c1c2ccccc2nc(/C=C/c2cnccn2)n1CCN1CCOCC1 (cis-trans isomerization)
O=c1c2ccccc2nc(/C=C/c2cnccn2)n1CCN1CCOCC1 (3D coordinates assigned)
O=c1c2ccccc2nc(/C=C/c2cnccn2)n1CCN1CCOCC1 (nonaromatic ring conformer: 78.46841818005298 kcal/mol)

>  <smiles>  (47) 
O=c1c2ccccc2nc(/C=C/c2cnccn2)n1CCN1CCOCC1

>  <score_type>  (47) 
oracle

>  <origin>  (47) 
autodockgpu

>  <m_score__min__energy>  (47) 
-7.7300000000000004

>  <m_primary>  (47) 
energy

>  <meeko>  (47) 
{"free_energy": -7.26, "intermolecular_energy": -9.05, "internal_energy": -1.47, "cluster_size": 12, "cluster_id": 1, "rank_in_cluster": 10}

>  <energy>  (47) 
-7.65

>  <cluster_rmsd>  (47) 
0.35

>  <rmsd>  (47) 
270.26

>  <cluster>  (47) 
1

$$$$
OQAGMIVLLKVZIV-AATRIKPKNA-N
     RDKit          3D

 48 51  0  0  0  0  0  0  0  0999 V2000
  140.1878   71.1394  220.9585 H   0  0  0  0  0  0  0  0  0  0  0  0
  139.6630   71.8150  221.6500 C   0  0  0  0  0  0  0  0  0  0  0  0
  138.6930   71.3170  222.4270 C   0  0  0  0  0  0  0  0  0  0  0  0
  137.6505   71.3341  222.0764 H   0  0  0  0  0  0  0  0  0  0  0  0
  139.0100   70.7470  223.7460 C   0  0  0  0  0  0  0  0  0  0  0  0
  139.7890   71.4850  224.5800 N   0  0  0  0  0  0  0  0  0  0  0  0
  140.1480   71.0340  225.8040 C   0  0  0  0  0  0  0  0  0  0  0  0
  140.9730   71.8150  226.6260 C   0  0  0  0  0  0  0  0  0  0  0  0
  141.3283   72.7950  226.2748 H   0  0  0  0  0  0  0  0  0  0  0  0
  141.3450   71.3500  227.8920 C   0  0  0  0  0  0  0  0  0  0  0  0
  141.9928   71.9641  228.5348 H   0  0  0  0  0  0  0  0  0  0  0  0
  140.8940   70.1060  228.3400 C   0  0  0  0  0  0  0  0  0  0  0  0
  141.1781   69.7486  229.3408 H   0  0  0  0  0  0  0  0  0  0  0  0
  140.0840   69.3140  227.5230 C   0  0  0  0  0  0  0  0  0  0  0  0
  139.7435   68.3296  227.8764 H   0  0  0  0  0  0  0  0  0  0  0  0
  139.7020   69.7740  226.2460 C   0  0  0  0  0  0  0  0  0  0  0  0
  138.9120   69.0070  225.3690 C   0  0  0  0  0  0  0  0  0  0  0  0
  138.5290   67.8580  225.7230 O   0  0  0  0  0  0  0  0  0  0  0  0
  138.5660   69.5010  224.1300 N   0  0  0  0  0  0  0  0  0  0  0  0
  137.8290   68.6440  223.1730 C   0  0  0  0  0  0  0  0  0  0  0  0
  138.3420   68.6628  222.2001 H   0  0  0  0  0  0  0  0  0  0  0  0
  137.7985   67.6164  223.5643 H   0  0  0  0  0  0  0  0  0  0  0  0
  136.3850   69.1550  222.9960 C   0  0  0  0  0  0  0  0  0  0  0  0
  136.4106   70.2375  222.8021 H   0  0  0  0  0  0  0  0  0  0  0  0
  135.9300   68.6155  222.1522 H   0  0  0  0  0  0  0  0  0  0  0  0
  135.5680   68.9030  224.2000 N   0  0  0  0  0  0  0  0  0  0  0  0
  134.3140   68.2050  223.8460 C   0  0  0  0  0  0  0  0  0  0  0  0
  133.8024   68.7674  223.0510 H   0  0  0  0  0  0  0  0  0  0  0  0
  134.5649   67.1903  223.5034 H   0  0  0  0  0  0  0  0  0  0  0  0
  133.3760   68.0910  225.0650 C   0  0  0  0  0  0  0  0  0  0  0  0
  132.5014   68.7393  224.9078 H   0  0  0  0  0  0  0  0  0  0  0  0
  133.0638   67.0415  225.1701 H   0  0  0  0  0  0  0  0  0  0  0  0
  134.0360   68.4850  226.2500 O   0  0  0  0  0  0  0  0  0  0  0  0
  134.3910   69.8540  226.1630 C   0  0  0  0  0  0  0  0  0  0  0  0
  133.4720   70.4553  226.1009 H   0  0  0  0  0  0  0  0  0  0  0  0
  134.9759   70.1093  227.0589 H   0  0  0  0  0  0  0  0  0  0  0  0
  135.2640   70.1510  224.9260 C   0  0  0  0  0  0  0  0  0  0  0  0
  134.7237   70.8371  224.2572 H   0  0  0  0  0  0  0  0  0  0  0  0
  136.2072   70.6105  225.2566 H   0  0  0  0  0  0  0  0  0  0  0  0
  140.0540   73.2400  221.6880 C   0  0  0  0  0  0  0  0  0  0  0  0
  139.2650   74.1660  222.3040 N   0  0  0  0  0  0  0  0  0  0  0  0
  139.6250   75.4780  222.3500 C   0  0  0  0  0  0  0  0  0  0  0  0
  138.9724   76.2134  222.8432 H   0  0  0  0  0  0  0  0  0  0  0  0
  140.8290   75.8860  221.7670 C   0  0  0  0  0  0  0  0  0  0  0  0
  141.1487   76.9366  221.8308 H   0  0  0  0  0  0  0  0  0  0  0  0
  141.5990   74.9740  221.1220 N   0  0  0  0  0  0  0  0  0  0  0  0
  141.2320   73.6630  221.0580 C   0  0  0  0  0  0  0  0  0  0  0  0
  141.8578   72.9401  220.5141 H   0  0  0  0  0  0  0  0  0  0  0  0
  1  2  1  0
  2  3  2  0
  3  4  1  0
  3  5  1  0
  5  6  2  0
  6  7  1  0
  7  8  2  0
  8  9  1  0
  8 10  1  0
 10 11  1  0
 10 12  2  0
 12 13  1  0
 12 14  1  0
 14 15  1  0
 14 16  2  0
 16 17  1  0
 17 18  2  0
 17 19  1  0
 19 20  1  0
 20 21  1  0
 20 22  1  0
 20 23  1  0
 23 24  1  0
 23 25  1  0
 23 26  1  0
 26 27  1  0
 27 28  1  0
 27 29  1  0
 27 30  1  0
 30 31  1  0
 30 32  1  0
 30 33  1  0
 33 34  1  0
 34 35  1  0
 34 36  1  0
 34 37  1  0
 37 38  1  0
 37 39  1  0
  2 40  1  0
 40 41  2  0
 41 42  1  0
 42 43  1  0
 42 44  2  0
 44 45  1  0
 44 46  1  0
 46 47  2  0
 47 48  1  0
 19  5  1  0
 37 26  1  0
 47 40  1  0
 16  7  1  0
M  END
>  <UniqueID>  (48) 
508

>  <SMILES>  (48) 
O=c1c2ccccc2nc(/C=C/c2cnccn2)n1CCN1CCOCC1

>  <Energy>  (48) 
78.46841818005298

>  <Genealogy>  (48) 
O=c1c2ccccc2nc(/C=C/c2cnccn2)n1CCN1CCOCC1 (cis-trans isomerization)
O=c1c2ccccc2nc(/C=C/c2cnccn2)n1CCN1CCOCC1 (3D coordinates assigned)
O=c1c2ccccc2nc(/C=C/c2cnccn2)n1CCN1CCOCC1 (nonaromatic ring conformer: 78.46841818005298 kcal/mol)

>  <smiles>  (48) 
O=c1c2ccccc2nc(/C=C/c2cnccn2)n1CCN1CCOCC1

>  <score_type>  (48) 
oracle

>  <origin>  (48) 
autodockgpu

>  <m_score__min__energy>  (48) 
-7.7300000000000004

>  <m_primary>  (48) 
energy

>  <meeko>  (48) 
{"free_energy": -7.6, "intermolecular_energy": -9.39, "internal_energy": -1.21, "cluster_size": 12, "cluster_id": 1, "rank_in_cluster": 8}

>  <energy>  (48) 
-7.6

>  <cluster_rmsd>  (48) 
0.82

>  <rmsd>  (48) 
270.36

>  <cluster>  (48) 
1

$$$$
OQAGMIVLLKVZIV-AATRIKPKNA-N
     RDKit          3D

 48 51  0  0  0  0  0  0  0  0999 V2000
  140.5094   70.3624  222.0770 H   0  0  0  0  0  0  0  0  0  0  0  0
  140.0150   71.1320  222.6880 C   0  0  0  0  0  0  0  0  0  0  0  0
  139.3180   72.0970  222.0720 C   0  0  0  0  0  0  0  0  0  0  0  0
  138.2868   71.9003  221.7433 H   0  0  0  0  0  0  0  0  0  0  0  0
  139.9210   73.4170  221.8320 C   0  0  0  0  0  0  0  0  0  0  0  0
  139.2930   74.5020  222.3560 N   0  0  0  0  0  0  0  0  0  0  0  0
  139.7640   75.7570  222.1710 C   0  0  0  0  0  0  0  0  0  0  0  0
  139.0730   76.8520  222.7080 C   0  0  0  0  0  0  0  0  0  0  0  0
  138.1475   76.6906  223.2802 H   0  0  0  0  0  0  0  0  0  0  0  0
  139.5590   78.1500  222.5170 C   0  0  0  0  0  0  0  0  0  0  0  0
  139.0150   79.0078  222.9391 H   0  0  0  0  0  0  0  0  0  0  0  0
  140.7340   78.3580  221.7910 C   0  0  0  0  0  0  0  0  0  0  0  0
  141.1199   79.3788  221.6532 H   0  0  0  0  0  0  0  0  0  0  0  0
  141.4210   77.2730  221.2390 C   0  0  0  0  0  0  0  0  0  0  0  0
  142.3382   77.4437  220.6562 H   0  0  0  0  0  0  0  0  0  0  0  0
  140.9420   75.9610  221.4270 C   0  0  0  0  0  0  0  0  0  0  0  0
  141.5760   74.8340  220.8700 C   0  0  0  0  0  0  0  0  0  0  0  0
  142.6120   74.9910  220.1660 O   0  0  0  0  0  0  0  0  0  0  0  0
  141.0660   73.5730  221.0820 N   0  0  0  0  0  0  0  0  0  0  0  0
  141.6770   72.4060  220.4020 C   0  0  0  0  0  0  0  0  0  0  0  0
  140.9476   71.5833  220.3683 H   0  0  0  0  0  0  0  0  0  0  0  0
  141.9647   72.6981  219.3812 H   0  0  0  0  0  0  0  0  0  0  0  0
  142.9350   71.9390  221.1620 C   0  0  0  0  0  0  0  0  0  0  0  0
  142.9965   72.4806  222.1175 H   0  0  0  0  0  0  0  0  0  0  0  0
  142.8532   70.8549  221.3296 H   0  0  0  0  0  0  0  0  0  0  0  0
  144.1650   72.1950  220.3860 N   0  0  0  0  0  0  0  0  0  0  0  0
  145.0410   73.1520  221.0940 C   0  0  0  0  0  0  0  0  0  0  0  0
  144.4599   74.0510  221.3472 H   0  0  0  0  0  0  0  0  0  0  0  0
  145.4221   72.6676  222.0051 H   0  0  0  0  0  0  0  0  0  0  0  0
  146.2430   73.5600  220.2180 C   0  0  0  0  0  0  0  0  0  0  0  0
  146.1309   74.6134  219.9218 H   0  0  0  0  0  0  0  0  0  0  0  0
  147.1650   73.4192  220.8012 H   0  0  0  0  0  0  0  0  0  0  0  0
  146.3190   72.7590  219.0560 O   0  0  0  0  0  0  0  0  0  0  0  0
  145.1690   72.9730  218.2570 C   0  0  0  0  0  0  0  0  0  0  0  0
  145.1632   74.0192  217.9173 H   0  0  0  0  0  0  0  0  0  0  0  0
  145.2138   72.2767  217.4067 H   0  0  0  0  0  0  0  0  0  0  0  0
  143.8630   72.6940  219.0300 C   0  0  0  0  0  0  0  0  0  0  0  0
  143.2816   73.6246  219.1072 H   0  0  0  0  0  0  0  0  0  0  0  0
  143.2841   71.9308  218.4893 H   0  0  0  0  0  0  0  0  0  0  0  0
  140.1430   71.0650  224.1580 C   0  0  0  0  0  0  0  0  0  0  0  0
  140.9690   71.9180  224.8300 N   0  0  0  0  0  0  0  0  0  0  0  0
  141.0830   71.8660  226.1850 C   0  0  0  0  0  0  0  0  0  0  0  0
  141.7610   72.5553  226.7096 H   0  0  0  0  0  0  0  0  0  0  0  0
  140.3340   70.9320  226.9070 C   0  0  0  0  0  0  0  0  0  0  0  0
  140.3890   70.9062  228.0053 H   0  0  0  0  0  0  0  0  0  0  0  0
  139.5390   70.0580  226.2410 N   0  0  0  0  0  0  0  0  0  0  0  0
  139.4360   70.0950  224.8820 C   0  0  0  0  0  0  0  0  0  0  0  0
  138.8010   69.3669  224.3561 H   0  0  0  0  0  0  0  0  0  0  0  0
  1  2  1  0
  2  3  2  0
  3  4  1  0
  3  5  1  0
  5  6  2  0
  6  7  1  0
  7  8  2  0
  8  9  1  0
  8 10  1  0
 10 11  1  0
 10 12  2  0
 12 13  1  0
 12 14  1  0
 14 15  1  0
 14 16  2  0
 16 17  1  0
 17 18  2  0
 17 19  1  0
 19 20  1  0
 20 21  1  0
 20 22  1  0
 20 23  1  0
 23 24  1  0
 23 25  1  0
 23 26  1  0
 26 27  1  0
 27 28  1  0
 27 29  1  0
 27 30  1  0
 30 31  1  0
 30 32  1  0
 30 33  1  0
 33 34  1  0
 34 35  1  0
 34 36  1  0
 34 37  1  0
 37 38  1  0
 37 39  1  0
  2 40  1  0
 40 41  2  0
 41 42  1  0
 42 43  1  0
 42 44  2  0
 44 45  1  0
 44 46  1  0
 46 47  2  0
 47 48  1  0
 19  5  1  0
 37 26  1  0
 47 40  1  0
 16  7  1  0
M  END
>  <UniqueID>  (49) 
508

>  <SMILES>  (49) 
O=c1c2ccccc2nc(/C=C/c2cnccn2)n1CCN1CCOCC1

>  <Energy>  (49) 
78.46841818005298

>  <Genealogy>  (49) 
O=c1c2ccccc2nc(/C=C/c2cnccn2)n1CCN1CCOCC1 (cis-trans isomerization)
O=c1c2ccccc2nc(/C=C/c2cnccn2)n1CCN1CCOCC1 (3D coordinates assigned)
O=c1c2ccccc2nc(/C=C/c2cnccn2)n1CCN1CCOCC1 (nonaromatic ring conformer: 78.46841818005298 kcal/mol)

>  <smiles>  (49) 
O=c1c2ccccc2nc(/C=C/c2cnccn2)n1CCN1CCOCC1

>  <score_type>  (49) 
oracle

>  <origin>  (49) 
autodockgpu

>  <m_score__min__energy>  (49) 
-7.7300000000000004

>  <m_primary>  (49) 
energy

>  <meeko>  (49) 
{"free_energy": -6.61, "intermolecular_energy": -8.4, "internal_energy": -1.21, "cluster_size": 1, "cluster_id": 3, "rank_in_cluster": 1}

>  <energy>  (49) 
-7.37

>  <cluster_rmsd>  (49) 
0.9

>  <rmsd>  (49) 
270.12

>  <cluster>  (49) 
1

$$$$
OQAGMIVLLKVZIV-AATRIKPKNA-N
     RDKit          3D

 48 51  0  0  0  0  0  0  0  0999 V2000
  141.2851   71.1641  221.0836 H   0  0  0  0  0  0  0  0  0  0  0  0
  140.5600   71.8540  221.5400 C   0  0  0  0  0  0  0  0  0  0  0  0
  139.5000   71.3450  222.1820 C   0  0  0  0  0  0  0  0  0  0  0  0
  138.5075   71.3785  221.7088 H   0  0  0  0  0  0  0  0  0  0  0  0
  139.6530   70.7420  223.5140 C   0  0  0  0  0  0  0  0  0  0  0  0
  140.1970   71.5080  224.4960 N   0  0  0  0  0  0  0  0  0  0  0  0
  140.3930   71.0320  225.7460 C   0  0  0  0  0  0  0  0  0  0  0  0
  140.9810   71.8480  226.7240 C   0  0  0  0  0  0  0  0  0  0  0  0
  141.2821   72.8759  226.4733 H   0  0  0  0  0  0  0  0  0  0  0  0
  141.1850   71.3560  228.0180 C   0  0  0  0  0  0  0  0  0  0  0  0
  141.6475   71.9970  228.7830 H   0  0  0  0  0  0  0  0  0  0  0  0
  140.8020   70.0520  228.3390 C   0  0  0  0  0  0  0  0  0  0  0  0
  140.9510   69.6732  229.3609 H   0  0  0  0  0  0  0  0  0  0  0  0
  140.2300   69.2260  227.3670 C   0  0  0  0  0  0  0  0  0  0  0  0
  139.9441   68.1949  227.6219 H   0  0  0  0  0  0  0  0  0  0  0  0
  140.0190   69.7120  226.0610 C   0  0  0  0  0  0  0  0  0  0  0  0
  139.4740   68.9170  225.0350 C   0  0  0  0  0  0  0  0  0  0  0  0
  139.1640   67.7180  225.2780 O   0  0  0  0  0  0  0  0  0  0  0  0
  139.2890   69.4390  223.7740 N   0  0  0  0  0  0  0  0  0  0  0  0
  138.8180   68.5630  222.6740 C   0  0  0  0  0  0  0  0  0  0  0  0
  139.5065   68.6509  221.8206 H   0  0  0  0  0  0  0  0  0  0  0  0
  138.7910   67.5234  223.0325 H   0  0  0  0  0  0  0  0  0  0  0  0
  137.4010   68.9750  222.2280 C   0  0  0  0  0  0  0  0  0  0  0  0
  137.3859   70.0594  222.0439 H   0  0  0  0  0  0  0  0  0  0  0  0
  137.1527   68.4177  221.3127 H   0  0  0  0  0  0  0  0  0  0  0  0
  136.3910   68.6490  223.2560 N   0  0  0  0  0  0  0  0  0  0  0  0
  135.1080   68.2710  222.6270 C   0  0  0  0  0  0  0  0  0  0  0  0
  134.8086   69.0591  221.9205 H   0  0  0  0  0  0  0  0  0  0  0  0
  135.2449   67.3133  222.1035 H   0  0  0  0  0  0  0  0  0  0  0  0
  134.0000   68.0960  223.6850 C   0  0  0  0  0  0  0  0  0  0  0  0
  133.2671   68.9090  223.5758 H   0  0  0  0  0  0  0  0  0  0  0  0
  133.5190   67.1190  223.5295 H   0  0  0  0  0  0  0  0  0  0  0  0
  134.5360   68.1300  224.9920 O   0  0  0  0  0  0  0  0  0  0  0  0
  135.1080   69.4030  225.2370 C   0  0  0  0  0  0  0  0  0  0  0  0
  134.3117   70.1612  225.2054 H   0  0  0  0  0  0  0  0  0  0  0  0
  135.5918   69.3714  226.2244 H   0  0  0  0  0  0  0  0  0  0  0  0
  136.1840   69.7690  224.1940 C   0  0  0  0  0  0  0  0  0  0  0  0
  135.8577   70.6568  223.6325 H   0  0  0  0  0  0  0  0  0  0  0  0
  137.1300   69.9786  224.7148 H   0  0  0  0  0  0  0  0  0  0  0  0
  140.7900   73.3090  221.4230 C   0  0  0  0  0  0  0  0  0  0  0  0
  139.9440   74.2020  222.0120 N   0  0  0  0  0  0  0  0  0  0  0  0
  140.1570   75.5430  221.9150 C   0  0  0  0  0  0  0  0  0  0  0  0
  139.4592   76.2495  222.3882 H   0  0  0  0  0  0  0  0  0  0  0  0
  141.2670   76.0170  221.2110 C   0  0  0  0  0  0  0  0  0  0  0  0
  141.4710   77.0967  221.1592 H   0  0  0  0  0  0  0  0  0  0  0  0
  142.0910   75.1350  220.5920 N   0  0  0  0  0  0  0  0  0  0  0  0
  141.8700   73.7920  220.6720 C   0  0  0  0  0  0  0  0  0  0  0  0
  142.5367   73.0905  220.1492 H   0  0  0  0  0  0  0  0  0  0  0  0
  1  2  1  0
  2  3  2  0
  3  4  1  0
  3  5  1  0
  5  6  2  0
  6  7  1  0
  7  8  2  0
  8  9  1  0
  8 10  1  0
 10 11  1  0
 10 12  2  0
 12 13  1  0
 12 14  1  0
 14 15  1  0
 14 16  2  0
 16 17  1  0
 17 18  2  0
 17 19  1  0
 19 20  1  0
 20 21  1  0
 20 22  1  0
 20 23  1  0
 23 24  1  0
 23 25  1  0
 23 26  1  0
 26 27  1  0
 27 28  1  0
 27 29  1  0
 27 30  1  0
 30 31  1  0
 30 32  1  0
 30 33  1  0
 33 34  1  0
 34 35  1  0
 34 36  1  0
 34 37  1  0
 37 38  1  0
 37 39  1  0
  2 40  1  0
 40 41  2  0
 41 42  1  0
 42 43  1  0
 42 44  2  0
 44 45  1  0
 44 46  1  0
 46 47  2  0
 47 48  1  0
 19  5  1  0
 37 26  1  0
 47 40  1  0
 16  7  1  0
M  END
>  <UniqueID>  (50) 
508

>  <SMILES>  (50) 
O=c1c2ccccc2nc(/C=C/c2cnccn2)n1CCN1CCOCC1

>  <Energy>  (50) 
78.46841818005298

>  <Genealogy>  (50) 
O=c1c2ccccc2nc(/C=C/c2cnccn2)n1CCN1CCOCC1 (cis-trans isomerization)
O=c1c2ccccc2nc(/C=C/c2cnccn2)n1CCN1CCOCC1 (3D coordinates assigned)
O=c1c2ccccc2nc(/C=C/c2cnccn2)n1CCN1CCOCC1 (nonaromatic ring conformer: 78.46841818005298 kcal/mol)

>  <smiles>  (50) 
O=c1c2ccccc2nc(/C=C/c2cnccn2)n1CCN1CCOCC1

>  <score_type>  (50) 
oracle

>  <origin>  (50) 
autodockgpu

>  <m_score__min__energy>  (50) 
-7.7300000000000004

>  <m_primary>  (50) 
energy

>  <meeko>  (50) 
{"free_energy": -7.73, "intermolecular_energy": -9.52, "internal_energy": -1.18, "cluster_size": 12, "cluster_id": 1, "rank_in_cluster": 1}

>  <energy>  (50) 
-7.26

>  <cluster_rmsd>  (50) 
0.99

>  <rmsd>  (50) 
270.09

>  <cluster>  (50) 
1

$$$$
OQAGMIVLLKVZIV-AATRIKPKNA-N
     RDKit          3D

 48 51  0  0  0  0  0  0  0  0999 V2000
  136.0602   68.1062  221.9085 H   0  0  0  0  0  0  0  0  0  0  0  0
  136.6120   68.5430  222.7540 C   0  0  0  0  0  0  0  0  0  0  0  0
  137.9480   68.4430  222.7740 C   0  0  0  0  0  0  0  0  0  0  0  0
  138.4711   67.9523  221.9400 H   0  0  0  0  0  0  0  0  0  0  0  0
  138.7200   68.9840  223.9020 C   0  0  0  0  0  0  0  0  0  0  0  0
  138.8850   68.1900  224.9930 N   0  0  0  0  0  0  0  0  0  0  0  0
  139.5640   68.6100  226.0850 C   0  0  0  0  0  0  0  0  0  0  0  0
  139.6910   67.7690  227.2000 C   0  0  0  0  0  0  0  0  0  0  0  0
  139.2386   66.7664  227.1859 H   0  0  0  0  0  0  0  0  0  0  0  0
  140.3920   68.2030  228.3300 C   0  0  0  0  0  0  0  0  0  0  0  0
  140.4880   67.5425  229.2044 H   0  0  0  0  0  0  0  0  0  0  0  0
  140.9700   69.4740  228.3490 C   0  0  0  0  0  0  0  0  0  0  0  0
  141.5325   69.8066  229.2339 H   0  0  0  0  0  0  0  0  0  0  0  0
  140.8370   70.3250  227.2490 C   0  0  0  0  0  0  0  0  0  0  0  0
  141.2824   71.3304  227.2760 H   0  0  0  0  0  0  0  0  0  0  0  0
  140.1330   69.8980  226.1040 C   0  0  0  0  0  0  0  0  0  0  0  0
  139.9420   70.7230  224.9790 C   0  0  0  0  0  0  0  0  0  0  0  0
  140.4070   71.8950  224.9840 O   0  0  0  0  0  0  0  0  0  0  0  0
  139.2450   70.2580  223.8860 N   0  0  0  0  0  0  0  0  0  0  0  0
  138.9550   71.1690  222.7540 C   0  0  0  0  0  0  0  0  0  0  0  0
  138.4122   70.6159  221.9733 H   0  0  0  0  0  0  0  0  0  0  0  0
  138.3426   72.0072  223.1179 H   0  0  0  0  0  0  0  0  0  0  0  0
  140.2660   71.7260  222.1640 C   0  0  0  0  0  0  0  0  0  0  0  0
  141.1155   71.3074  222.7237 H   0  0  0  0  0  0  0  0  0  0  0  0
  140.3148   71.4394  221.1031 H   0  0  0  0  0  0  0  0  0  0  0  0
  140.3170   73.2000  222.2470 N   0  0  0  0  0  0  0  0  0  0  0  0
  138.9870   73.7850  221.9760 C   0  0  0  0  0  0  0  0  0  0  0  0
  138.6087   73.3896  221.0218 H   0  0  0  0  0  0  0  0  0  0  0  0
  138.3126   73.5151  222.8021 H   0  0  0  0  0  0  0  0  0  0  0  0
  139.0620   75.3230  221.8890 C   0  0  0  0  0  0  0  0  0  0  0  0
  138.8832   75.6335  220.8490 H   0  0  0  0  0  0  0  0  0  0  0  0
  138.2977   75.7491  222.5556 H   0  0  0  0  0  0  0  0  0  0  0  0
  140.3300   75.7930  222.3000 O   0  0  0  0  0  0  0  0  0  0  0  0
  141.3250   75.3060  221.4160 C   0  0  0  0  0  0  0  0  0  0  0  0
  141.1449   75.7244  220.4148 H   0  0  0  0  0  0  0  0  0  0  0  0
  142.3054   75.6142  221.8082 H   0  0  0  0  0  0  0  0  0  0  0  0
  141.3160   73.7660  221.3200 C   0  0  0  0  0  0  0  0  0  0  0  0
  141.0657   73.4682  220.2911 H   0  0  0  0  0  0  0  0  0  0  0  0
  142.3116   73.3851  221.5914 H   0  0  0  0  0  0  0  0  0  0  0  0
  135.8530   69.2190  223.8270 C   0  0  0  0  0  0  0  0  0  0  0  0
  135.0730   68.5060  224.6900 N   0  0  0  0  0  0  0  0  0  0  0  0
  134.3800   69.1230  225.6860 C   0  0  0  0  0  0  0  0  0  0  0  0
  133.7488   68.5339  226.3676 H   0  0  0  0  0  0  0  0  0  0  0  0
  134.4750   70.5100  225.8380 C   0  0  0  0  0  0  0  0  0  0  0  0
  133.9502   71.0151  226.6623 H   0  0  0  0  0  0  0  0  0  0  0  0
  135.2200   71.2270  224.9600 N   0  0  0  0  0  0  0  0  0  0  0  0
  135.9010   70.6140  223.9500 C   0  0  0  0  0  0  0  0  0  0  0  0
  136.4853   71.2119  223.2351 H   0  0  0  0  0  0  0  0  0  0  0  0
  1  2  1  0
  2  3  2  0
  3  4  1  0
  3  5  1  0
  5  6  2  0
  6  7  1  0
  7  8  2  0
  8  9  1  0
  8 10  1  0
 10 11  1  0
 10 12  2  0
 12 13  1  0
 12 14  1  0
 14 15  1  0
 14 16  2  0
 16 17  1  0
 17 18  2  0
 17 19  1  0
 19 20  1  0
 20 21  1  0
 20 22  1  0
 20 23  1  0
 23 24  1  0
 23 25  1  0
 23 26  1  0
 26 27  1  0
 27 28  1  0
 27 29  1  0
 27 30  1  0
 30 31  1  0
 30 32  1  0
 30 33  1  0
 33 34  1  0
 34 35  1  0
 34 36  1  0
 34 37  1  0
 37 38  1  0
 37 39  1  0
  2 40  1  0
 40 41  2  0
 41 42  1  0
 42 43  1  0
 42 44  2  0
 44 45  1  0
 44 46  1  0
 46 47  2  0
 47 48  1  0
 19  5  1  0
 37 26  1  0
 47 40  1  0
 16  7  1  0
M  END
>  <UniqueID>  (51) 
508

>  <SMILES>  (51) 
O=c1c2ccccc2nc(/C=C/c2cnccn2)n1CCN1CCOCC1

>  <Energy>  (51) 
78.46841818005298

>  <Genealogy>  (51) 
O=c1c2ccccc2nc(/C=C/c2cnccn2)n1CCN1CCOCC1 (cis-trans isomerization)
O=c1c2ccccc2nc(/C=C/c2cnccn2)n1CCN1CCOCC1 (3D coordinates assigned)
O=c1c2ccccc2nc(/C=C/c2cnccn2)n1CCN1CCOCC1 (nonaromatic ring conformer: 78.46841818005298 kcal/mol)

>  <smiles>  (51) 
O=c1c2ccccc2nc(/C=C/c2cnccn2)n1CCN1CCOCC1

>  <score_type>  (51) 
oracle

>  <origin>  (51) 
autodockgpu

>  <m_score__min__energy>  (51) 
-7.7300000000000004

>  <m_primary>  (51) 
energy

>  <meeko>  (51) 
{"free_energy": -7.42, "intermolecular_energy": -9.21, "internal_energy": -1.29, "cluster_size": 5, "cluster_id": 2, "rank_in_cluster": 4}

>  <energy>  (51) 
-6.89

>  <cluster_rmsd>  (51) 
1.22

>  <rmsd>  (51) 
270.45

>  <cluster>  (51) 
1

$$$$
OQAGMIVLLKVZIV-AATRIKPKNA-N
     RDKit          3D

 48 51  0  0  0  0  0  0  0  0999 V2000
  139.3127   71.2161  221.0834 H   0  0  0  0  0  0  0  0  0  0  0  0
  138.9250   71.8570  221.8890 C   0  0  0  0  0  0  0  0  0  0  0  0
  138.1020   71.3220  222.8000 C   0  0  0  0  0  0  0  0  0  0  0  0
  137.0149   71.3454  222.6335 H   0  0  0  0  0  0  0  0  0  0  0  0
  138.6400   70.7030  224.0220 C   0  0  0  0  0  0  0  0  0  0  0  0
  139.3810   71.4850  224.8500 N   0  0  0  0  0  0  0  0  0  0  0  0
  139.9320   70.9980  225.9860 C   0  0  0  0  0  0  0  0  0  0  0  0
  140.7110   71.8310  226.8020 C   0  0  0  0  0  0  0  0  0  0  0  0
  140.8733   72.8813  226.5182 H   0  0  0  0  0  0  0  0  0  0  0  0
  141.2820   71.3290  227.9760 C   0  0  0  0  0  0  0  0  0  0  0  0
  141.8936   71.9842  228.6137 H   0  0  0  0  0  0  0  0  0  0  0  0
  141.0760   69.9960  228.3390 C   0  0  0  0  0  0  0  0  0  0  0  0
  141.5155   69.6075  229.2696 H   0  0  0  0  0  0  0  0  0  0  0  0
  140.3140   69.1540  227.5250 C   0  0  0  0  0  0  0  0  0  0  0  0
  140.1670   68.1016  227.8094 H   0  0  0  0  0  0  0  0  0  0  0  0
  139.7330   69.6500  226.3400 C   0  0  0  0  0  0  0  0  0  0  0  0
  138.9800   68.8410  225.4670 C   0  0  0  0  0  0  0  0  0  0  0  0
  138.8170   67.6200  225.7400 O   0  0  0  0  0  0  0  0  0  0  0  0
  138.4340   69.3740  224.3200 N   0  0  0  0  0  0  0  0  0  0  0  0
  137.7390   68.4910  223.3550 C   0  0  0  0  0  0  0  0  0  0  0  0
  138.2818   68.5008  222.3983 H   0  0  0  0  0  0  0  0  0  0  0  0
  137.7101   67.4694  223.7619 H   0  0  0  0  0  0  0  0  0  0  0  0
  136.2940   68.9800  223.1250 C   0  0  0  0  0  0  0  0  0  0  0  0
  136.3193   70.0343  222.8124 H   0  0  0  0  0  0  0  0  0  0  0  0
  135.8372   68.3508  222.3469 H   0  0  0  0  0  0  0  0  0  0  0  0
  135.4800   68.8630  224.3510 N   0  0  0  0  0  0  0  0  0  0  0  0
  134.1860   68.2120  224.0600 C   0  0  0  0  0  0  0  0  0  0  0  0
  133.6963   68.7421  223.2298 H   0  0  0  0  0  0  0  0  0  0  0  0
  134.3767   67.1625  223.7913 H   0  0  0  0  0  0  0  0  0  0  0  0
  133.2580   68.2400  225.2920 C   0  0  0  0  0  0  0  0  0  0  0  0
  132.4175   68.9213  225.0938 H   0  0  0  0  0  0  0  0  0  0  0  0
  132.8915   67.2196  225.4779 H   0  0  0  0  0  0  0  0  0  0  0  0
  133.9530   68.6850  226.4400 O   0  0  0  0  0  0  0  0  0  0  0  0
  134.3810   70.0220  226.2470 C   0  0  0  0  0  0  0  0  0  0  0  0
  133.4954   70.6669  226.1479 H   0  0  0  0  0  0  0  0  0  0  0  0
  134.9906   70.3108  227.1159 H   0  0  0  0  0  0  0  0  0  0  0  0
  135.2530   70.1770  224.9830 C   0  0  0  0  0  0  0  0  0  0  0  0
  134.7418   70.8393  224.2689 H   0  0  0  0  0  0  0  0  0  0  0  0
  136.2237   70.6079  225.2695 H   0  0  0  0  0  0  0  0  0  0  0  0
  139.3310   73.2770  221.9270 C   0  0  0  0  0  0  0  0  0  0  0  0
  138.3980   74.2720  221.9610 N   0  0  0  0  0  0  0  0  0  0  0  0
  138.7660   75.5810  222.0050 C   0  0  0  0  0  0  0  0  0  0  0  0
  138.0003   76.3706  222.0200 H   0  0  0  0  0  0  0  0  0  0  0  0
  140.1230   75.9170  222.0310 C   0  0  0  0  0  0  0  0  0  0  0  0
  140.4328   76.9697  222.1075 H   0  0  0  0  0  0  0  0  0  0  0  0
  141.0540   74.9330  221.9610 N   0  0  0  0  0  0  0  0  0  0  0  0
  140.6890   73.6220  221.8970 C   0  0  0  0  0  0  0  0  0  0  0  0
  141.4567   72.8378  221.8221 H   0  0  0  0  0  0  0  0  0  0  0  0
  1  2  1  0
  2  3  2  0
  3  4  1  0
  3  5  1  0
  5  6  2  0
  6  7  1  0
  7  8  2  0
  8  9  1  0
  8 10  1  0
 10 11  1  0
 10 12  2  0
 12 13  1  0
 12 14  1  0
 14 15  1  0
 14 16  2  0
 16 17  1  0
 17 18  2  0
 17 19  1  0
 19 20  1  0
 20 21  1  0
 20 22  1  0
 20 23  1  0
 23 24  1  0
 23 25  1  0
 23 26  1  0
 26 27  1  0
 27 28  1  0
 27 29  1  0
 27 30  1  0
 30 31  1  0
 30 32  1  0
 30 33  1  0
 33 34  1  0
 34 35  1  0
 34 36  1  0
 34 37  1  0
 37 38  1  0
 37 39  1  0
  2 40  1  0
 40 41  2  0
 41 42  1  0
 42 43  1  0
 42 44  2  0
 44 45  1  0
 44 46  1  0
 46 47  2  0
 47 48  1  0
 19  5  1  0
 37 26  1  0
 47 40  1  0
 16  7  1  0
M  END
>  <UniqueID>  (52) 
508

>  <SMILES>  (52) 
O=c1c2ccccc2nc(/C=C/c2cnccn2)n1CCN1CCOCC1

>  <Energy>  (52) 
78.46841818005298

>  <Genealogy>  (52) 
O=c1c2ccccc2nc(/C=C/c2cnccn2)n1CCN1CCOCC1 (cis-trans isomerization)
O=c1c2ccccc2nc(/C=C/c2cnccn2)n1CCN1CCOCC1 (3D coordinates assigned)
O=c1c2ccccc2nc(/C=C/c2cnccn2)n1CCN1CCOCC1 (nonaromatic ring conformer: 78.46841818005298 kcal/mol)

>  <smiles>  (52) 
O=c1c2ccccc2nc(/C=C/c2cnccn2)n1CCN1CCOCC1

>  <score_type>  (52) 
oracle

>  <origin>  (52) 
autodockgpu

>  <m_score__min__energy>  (52) 
-7.7300000000000004

>  <m_primary>  (52) 
energy

>  <meeko>  (52) 
{"free_energy": -7.65, "intermolecular_energy": -9.44, "internal_energy": -1.13, "cluster_size": 12, "cluster_id": 1, "rank_in_cluster": 6}

>  <energy>  (52) 
-6.89

>  <cluster_rmsd>  (52) 
1.27

>  <rmsd>  (52) 
270.34

>  <cluster>  (52) 
1

$$$$
OQAGMIVLLKVZIV-AATRIKPKNA-N
     RDKit          3D

 48 51  0  0  0  0  0  0  0  0999 V2000
  136.0016   67.9736  221.9906 H   0  0  0  0  0  0  0  0  0  0  0  0
  136.5560   68.4760  222.7970 C   0  0  0  0  0  0  0  0  0  0  0  0
  137.8950   68.4190  222.7930 C   0  0  0  0  0  0  0  0  0  0  0  0
  138.4192   67.9567  221.9436 H   0  0  0  0  0  0  0  0  0  0  0  0
  138.6690   68.9700  223.9160 C   0  0  0  0  0  0  0  0  0  0  0  0
  138.8550   68.1770  225.0030 N   0  0  0  0  0  0  0  0  0  0  0  0
  139.5370   68.6050  226.0900 C   0  0  0  0  0  0  0  0  0  0  0  0
  139.6870   67.7640  227.2020 C   0  0  0  0  0  0  0  0  0  0  0  0
  139.2501   66.7546  227.1896 H   0  0  0  0  0  0  0  0  0  0  0  0
  140.3910   68.2060  228.3270 C   0  0  0  0  0  0  0  0  0  0  0  0
  140.5054   67.5449  229.1987 H   0  0  0  0  0  0  0  0  0  0  0  0
  140.9490   69.4870  228.3440 C   0  0  0  0  0  0  0  0  0  0  0  0
  141.5131   69.8275  229.2249 H   0  0  0  0  0  0  0  0  0  0  0  0
  140.7930   70.3370  227.2460 C   0  0  0  0  0  0  0  0  0  0  0  0
  141.2234   71.3490  227.2707 H   0  0  0  0  0  0  0  0  0  0  0  0
  140.0860   69.9020  226.1070 C   0  0  0  0  0  0  0  0  0  0  0  0
  139.8720   70.7260  224.9860 C   0  0  0  0  0  0  0  0  0  0  0  0
  140.3200   71.9050  224.9890 O   0  0  0  0  0  0  0  0  0  0  0  0
  139.1730   70.2520  223.8970 N   0  0  0  0  0  0  0  0  0  0  0  0
  138.8590   71.1610  222.7700 C   0  0  0  0  0  0  0  0  0  0  0  0
  138.3659   70.5896  221.9698 H   0  0  0  0  0  0  0  0  0  0  0  0
  138.1928   71.9590  223.1297 H   0  0  0  0  0  0  0  0  0  0  0  0
  140.1510   71.7980  222.2180 C   0  0  0  0  0  0  0  0  0  0  0  0
  141.0084   71.4257  222.7979 H   0  0  0  0  0  0  0  0  0  0  0  0
  140.2441   71.5221  221.1572 H   0  0  0  0  0  0  0  0  0  0  0  0
  140.1140   73.2710  222.3100 N   0  0  0  0  0  0  0  0  0  0  0  0
  138.7680   73.7820  221.9760 C   0  0  0  0  0  0  0  0  0  0  0  0
  138.4600   73.3730  221.0024 H   0  0  0  0  0  0  0  0  0  0  0  0
  138.0697   73.4684  222.7659 H   0  0  0  0  0  0  0  0  0  0  0  0
  138.7610   75.3230  221.9000 C   0  0  0  0  0  0  0  0  0  0  0  0
  138.6178   75.6307  220.8537 H   0  0  0  0  0  0  0  0  0  0  0  0
  137.9414   75.7008  222.5289 H   0  0  0  0  0  0  0  0  0  0  0  0
  139.9780   75.8600  222.3770 O   0  0  0  0  0  0  0  0  0  0  0  0
  141.0420   75.4370  221.5420 C   0  0  0  0  0  0  0  0  0  0  0  0
  140.8892   75.8527  220.5351 H   0  0  0  0  0  0  0  0  0  0  0  0
  141.9827   75.7967  221.9845 H   0  0  0  0  0  0  0  0  0  0  0  0
  141.1240   73.9000  221.4380 C   0  0  0  0  0  0  0  0  0  0  0  0
  140.9426   73.5970  220.3962 H   0  0  0  0  0  0  0  0  0  0  0  0
  142.1246   73.5736  221.7578 H   0  0  0  0  0  0  0  0  0  0  0  0
  135.7980   69.1890  223.8450 C   0  0  0  0  0  0  0  0  0  0  0  0
  135.0120   68.5080  224.7280 N   0  0  0  0  0  0  0  0  0  0  0  0
  134.3190   69.1600  225.7010 C   0  0  0  0  0  0  0  0  0  0  0  0
  133.6827   68.5961  226.3989 H   0  0  0  0  0  0  0  0  0  0  0  0
  134.4200   70.5500  225.8090 C   0  0  0  0  0  0  0  0  0  0  0  0
  133.8951   71.0835  226.6151 H   0  0  0  0  0  0  0  0  0  0  0  0
  135.1710   71.2350  224.9110 N   0  0  0  0  0  0  0  0  0  0  0  0
  135.8520   70.5870  223.9240 C   0  0  0  0  0  0  0  0  0  0  0  0
  136.4416   71.1591  223.1925 H   0  0  0  0  0  0  0  0  0  0  0  0
  1  2  1  0
  2  3  2  0
  3  4  1  0
  3  5  1  0
  5  6  2  0
  6  7  1  0
  7  8  2  0
  8  9  1  0
  8 10  1  0
 10 11  1  0
 10 12  2  0
 12 13  1  0
 12 14  1  0
 14 15  1  0
 14 16  2  0
 16 17  1  0
 17 18  2  0
 17 19  1  0
 19 20  1  0
 20 21  1  0
 20 22  1  0
 20 23  1  0
 23 24  1  0
 23 25  1  0
 23 26  1  0
 26 27  1  0
 27 28  1  0
 27 29  1  0
 27 30  1  0
 30 31  1  0
 30 32  1  0
 30 33  1  0
 33 34  1  0
 34 35  1  0
 34 36  1  0
 34 37  1  0
 37 38  1  0
 37 39  1  0
  2 40  1  0
 40 41  2  0
 41 42  1  0
 42 43  1  0
 42 44  2  0
 44 45  1  0
 44 46  1  0
 46 47  2  0
 47 48  1  0
 19  5  1  0
 37 26  1  0
 47 40  1  0
 16  7  1  0
M  END
>  <UniqueID>  (53) 
508

>  <SMILES>  (53) 
O=c1c2ccccc2nc(/C=C/c2cnccn2)n1CCN1CCOCC1

>  <Energy>  (53) 
78.46841818005298

>  <Genealogy>  (53) 
O=c1c2ccccc2nc(/C=C/c2cnccn2)n1CCN1CCOCC1 (cis-trans isomerization)
O=c1c2ccccc2nc(/C=C/c2cnccn2)n1CCN1CCOCC1 (3D coordinates assigned)
O=c1c2ccccc2nc(/C=C/c2cnccn2)n1CCN1CCOCC1 (nonaromatic ring conformer: 78.46841818005298 kcal/mol)

>  <smiles>  (53) 
O=c1c2ccccc2nc(/C=C/c2cnccn2)n1CCN1CCOCC1

>  <score_type>  (53) 
oracle

>  <origin>  (53) 
autodockgpu

>  <m_score__min__energy>  (53) 
-7.7300000000000004

>  <m_primary>  (53) 
energy

>  <meeko>  (53) 
{"free_energy": -7.46, "intermolecular_energy": -9.25, "internal_energy": -1.25, "cluster_size": 5, "cluster_id": 2, "rank_in_cluster": 3}

>  <energy>  (53) 
-7.66

>  <cluster_rmsd>  (53) 
0.0

>  <rmsd>  (53) 
270.39

>  <cluster>  (53) 
2

$$$$
OQAGMIVLLKVZIV-AATRIKPKNA-N
     RDKit          3D

 48 51  0  0  0  0  0  0  0  0999 V2000
  140.7437   71.0224  220.9141 H   0  0  0  0  0  0  0  0  0  0  0  0
  140.1770   71.7530  221.5100 C   0  0  0  0  0  0  0  0  0  0  0  0
  139.1590   71.3200  222.2650 C   0  0  0  0  0  0  0  0  0  0  0  0
  138.1258   71.4318  221.9043 H   0  0  0  0  0  0  0  0  0  0  0  0
  139.4120   70.6960  223.5730 C   0  0  0  0  0  0  0  0  0  0  0  0
  139.9500   71.4740  224.5490 N   0  0  0  0  0  0  0  0  0  0  0  0
  140.2340   70.9820  225.7770 C   0  0  0  0  0  0  0  0  0  0  0  0
  140.8110   71.8120  226.7500 C   0  0  0  0  0  0  0  0  0  0  0  0
  141.0316   72.8636  226.5143 H   0  0  0  0  0  0  0  0  0  0  0  0
  141.1060   71.3040  228.0190 C   0  0  0  0  0  0  0  0  0  0  0  0
  141.5601   71.9561  228.7797 H   0  0  0  0  0  0  0  0  0  0  0  0
  140.8250   69.9700  228.3220 C   0  0  0  0  0  0  0  0  0  0  0  0
  141.0461   69.5776  229.3256 H   0  0  0  0  0  0  0  0  0  0  0  0
  140.2640   69.1320  227.3550 C   0  0  0  0  0  0  0  0  0  0  0  0
  140.0581   68.0785  227.5951 H   0  0  0  0  0  0  0  0  0  0  0  0
  139.9610   69.6330  226.0720 C   0  0  0  0  0  0  0  0  0  0  0  0
  139.4220   68.8280  225.0510 C   0  0  0  0  0  0  0  0  0  0  0  0
  139.2030   67.6060  225.2750 O   0  0  0  0  0  0  0  0  0  0  0  0
  139.1460   69.3660  223.8130 N   0  0  0  0  0  0  0  0  0  0  0  0
  138.6830   68.4880  222.7130 C   0  0  0  0  0  0  0  0  0  0  0  0
  139.3685   68.5857  221.8583 H   0  0  0  0  0  0  0  0  0  0  0  0
  138.6687   67.4473  223.0691 H   0  0  0  0  0  0  0  0  0  0  0  0
  137.2600   68.8850  222.2710 C   0  0  0  0  0  0  0  0  0  0  0  0
  137.2404   69.9640  222.0577 H   0  0  0  0  0  0  0  0  0  0  0  0
  137.0033   68.3026  221.3738 H   0  0  0  0  0  0  0  0  0  0  0  0
  136.2620   68.5850  223.3180 N   0  0  0  0  0  0  0  0  0  0  0  0
  134.9800   68.1660  222.7140 C   0  0  0  0  0  0  0  0  0  0  0  0
  134.6648   68.9223  221.9800 H   0  0  0  0  0  0  0  0  0  0  0  0
  135.1263   67.1907  222.2268 H   0  0  0  0  0  0  0  0  0  0  0  0
  133.8820   68.0170  223.7860 C   0  0  0  0  0  0  0  0  0  0  0  0
  133.1371   68.8150  223.6511 H   0  0  0  0  0  0  0  0  0  0  0  0
  133.4132   67.0284  223.6720 H   0  0  0  0  0  0  0  0  0  0  0  0
  134.4270   68.1090  225.0860 O   0  0  0  0  0  0  0  0  0  0  0  0
  134.9830   69.3980  225.2780 C   0  0  0  0  0  0  0  0  0  0  0  0
  134.1761   70.1436  225.2239 H   0  0  0  0  0  0  0  0  0  0  0  0
  135.4743   69.4110  226.2621 H   0  0  0  0  0  0  0  0  0  0  0  0
  136.0460   69.7380  224.2130 C   0  0  0  0  0  0  0  0  0  0  0  0
  135.7029   70.5985  223.6198 H   0  0  0  0  0  0  0  0  0  0  0  0
  136.9927   69.9813  224.7176 H   0  0  0  0  0  0  0  0  0  0  0  0
  140.5660   73.1770  221.4490 C   0  0  0  0  0  0  0  0  0  0  0  0
  139.7620   74.1470  221.9730 N   0  0  0  0  0  0  0  0  0  0  0  0
  140.1200   75.4590  221.9280 C   0  0  0  0  0  0  0  0  0  0  0  0
  139.4555   76.2286  222.3476 H   0  0  0  0  0  0  0  0  0  0  0  0
  141.3380   75.8230  221.3450 C   0  0  0  0  0  0  0  0  0  0  0  0
  141.6560   76.8760  221.3366 H   0  0  0  0  0  0  0  0  0  0  0  0
  142.1240   74.8670  220.7900 N   0  0  0  0  0  0  0  0  0  0  0  0
  141.7590   73.5540  220.8180 C   0  0  0  0  0  0  0  0  0  0  0  0
  142.3987   72.7931  220.3469 H   0  0  0  0  0  0  0  0  0  0  0  0
  1  2  1  0
  2  3  2  0
  3  4  1  0
  3  5  1  0
  5  6  2  0
  6  7  1  0
  7  8  2  0
  8  9  1  0
  8 10  1  0
 10 11  1  0
 10 12  2  0
 12 13  1  0
 12 14  1  0
 14 15  1  0
 14 16  2  0
 16 17  1  0
 17 18  2  0
 17 19  1  0
 19 20  1  0
 20 21  1  0
 20 22  1  0
 20 23  1  0
 23 24  1  0
 23 25  1  0
 23 26  1  0
 26 27  1  0
 27 28  1  0
 27 29  1  0
 27 30  1  0
 30 31  1  0
 30 32  1  0
 30 33  1  0
 33 34  1  0
 34 35  1  0
 34 36  1  0
 34 37  1  0
 37 38  1  0
 37 39  1  0
  2 40  1  0
 40 41  2  0
 41 42  1  0
 42 43  1  0
 42 44  2  0
 44 45  1  0
 44 46  1  0
 46 47  2  0
 47 48  1  0
 19  5  1  0
 37 26  1  0
 47 40  1  0
 16  7  1  0
M  END
>  <UniqueID>  (54) 
508

>  <SMILES>  (54) 
O=c1c2ccccc2nc(/C=C/c2cnccn2)n1CCN1CCOCC1

>  <Energy>  (54) 
78.46841818005298

>  <Genealogy>  (54) 
O=c1c2ccccc2nc(/C=C/c2cnccn2)n1CCN1CCOCC1 (cis-trans isomerization)
O=c1c2ccccc2nc(/C=C/c2cnccn2)n1CCN1CCOCC1 (3D coordinates assigned)
O=c1c2ccccc2nc(/C=C/c2cnccn2)n1CCN1CCOCC1 (nonaromatic ring conformer: 78.46841818005298 kcal/mol)

>  <smiles>  (54) 
O=c1c2ccccc2nc(/C=C/c2cnccn2)n1CCN1CCOCC1

>  <score_type>  (54) 
oracle

>  <origin>  (54) 
autodockgpu

>  <m_score__min__energy>  (54) 
-7.7300000000000004

>  <m_primary>  (54) 
energy

>  <meeko>  (54) 
{"free_energy": -7.67, "intermolecular_energy": -9.46, "internal_energy": -1.17, "cluster_size": 12, "cluster_id": 1, "rank_in_cluster": 4}

>  <energy>  (54) 
-7.65

>  <cluster_rmsd>  (54) 
0.08

>  <rmsd>  (54) 
270.36

>  <cluster>  (54) 
2

$$$$
OQAGMIVLLKVZIV-AATRIKPKNA-N
     RDKit          3D

 48 51  0  0  0  0  0  0  0  0999 V2000
  136.0780   68.5119  221.7226 H   0  0  0  0  0  0  0  0  0  0  0  0
  136.5620   68.6740  222.6970 C   0  0  0  0  0  0  0  0  0  0  0  0
  137.8460   68.3210  222.8470 C   0  0  0  0  0  0  0  0  0  0  0  0
  138.2954   67.5910  222.1577 H   0  0  0  0  0  0  0  0  0  0  0  0
  138.6590   68.9020  223.9260 C   0  0  0  0  0  0  0  0  0  0  0  0
  138.8670   68.1470  225.0360 N   0  0  0  0  0  0  0  0  0  0  0  0
  139.5860   68.6060  226.0860 C   0  0  0  0  0  0  0  0  0  0  0  0
  139.7560   67.8040  227.2240 C   0  0  0  0  0  0  0  0  0  0  0  0
  139.3049   66.8015  227.2621 H   0  0  0  0  0  0  0  0  0  0  0  0
  140.4990   68.2780  228.3110 C   0  0  0  0  0  0  0  0  0  0  0  0
  140.6303   67.6482  229.2033 H   0  0  0  0  0  0  0  0  0  0  0  0
  141.0740   69.5500  228.2640 C   0  0  0  0  0  0  0  0  0  0  0  0
  141.6693   69.9139  229.1144 H   0  0  0  0  0  0  0  0  0  0  0  0
  140.8960   70.3620  227.1410 C   0  0  0  0  0  0  0  0  0  0  0  0
  141.3383   71.3688  227.1162 H   0  0  0  0  0  0  0  0  0  0  0  0
  140.1510   69.8940  226.0400 C   0  0  0  0  0  0  0  0  0  0  0  0
  139.9160   70.6790  224.8950 C   0  0  0  0  0  0  0  0  0  0  0  0
  140.3780   71.8510  224.8410 O   0  0  0  0  0  0  0  0  0  0  0  0
  139.1790   70.1750  223.8450 N   0  0  0  0  0  0  0  0  0  0  0  0
  138.8440   71.0470  222.6940 C   0  0  0  0  0  0  0  0  0  0  0  0
  137.9007   70.7055  222.2427 H   0  0  0  0  0  0  0  0  0  0  0  0
  138.7392   72.0829  223.0489 H   0  0  0  0  0  0  0  0  0  0  0  0
  139.9640   70.9910  221.6350 C   0  0  0  0  0  0  0  0  0  0  0  0
  140.8440   70.4961  222.0717 H   0  0  0  0  0  0  0  0  0  0  0  0
  139.5888   70.4300  220.7664 H   0  0  0  0  0  0  0  0  0  0  0  0
  140.3500   72.3420  221.1810 N   0  0  0  0  0  0  0  0  0  0  0  0
  141.8210   72.4760  221.1290 C   0  0  0  0  0  0  0  0  0  0  0  0
  142.2431   72.1772  222.0999 H   0  0  0  0  0  0  0  0  0  0  0  0
  142.2016   71.8289  220.3250 H   0  0  0  0  0  0  0  0  0  0  0  0
  142.2380   73.9290  220.8250 C   0  0  0  0  0  0  0  0  0  0  0  0
  142.7066   74.3635  221.7203 H   0  0  0  0  0  0  0  0  0  0  0  0
  142.9470   73.9213  219.9840 H   0  0  0  0  0  0  0  0  0  0  0  0
  141.1190   74.7120  220.4630 O   0  0  0  0  0  0  0  0  0  0  0  0
  140.2200   74.7890  221.5560 C   0  0  0  0  0  0  0  0  0  0  0  0
  140.7150   75.3145  222.3860 H   0  0  0  0  0  0  0  0  0  0  0  0
  139.3232   75.3297  221.2194 H   0  0  0  0  0  0  0  0  0  0  0  0
  139.7780   73.3930  222.0440 C   0  0  0  0  0  0  0  0  0  0  0  0
  140.1258   73.2431  223.0768 H   0  0  0  0  0  0  0  0  0  0  0  0
  138.6805   73.3312  222.0022 H   0  0  0  0  0  0  0  0  0  0  0  0
  135.7730   69.2730  223.7930 C   0  0  0  0  0  0  0  0  0  0  0  0
  135.0090   68.4950  224.6130 N   0  0  0  0  0  0  0  0  0  0  0  0
  134.2870   69.0400  225.6300 C   0  0  0  0  0  0  0  0  0  0  0  0
  133.6672   68.3990  226.2741 H   0  0  0  0  0  0  0  0  0  0  0  0
  134.3380   70.4200  225.8510 C   0  0  0  0  0  0  0  0  0  0  0  0
  133.7913   70.8672  226.6943 H   0  0  0  0  0  0  0  0  0  0  0  0
  135.0670   71.2020  225.0170 N   0  0  0  0  0  0  0  0  0  0  0  0
  135.7760   70.6610  223.9850 C   0  0  0  0  0  0  0  0  0  0  0  0
  136.3476   71.3114  223.3065 H   0  0  0  0  0  0  0  0  0  0  0  0
  1  2  1  0
  2  3  2  0
  3  4  1  0
  3  5  1  0
  5  6  2  0
  6  7  1  0
  7  8  2  0
  8  9  1  0
  8 10  1  0
 10 11  1  0
 10 12  2  0
 12 13  1  0
 12 14  1  0
 14 15  1  0
 14 16  2  0
 16 17  1  0
 17 18  2  0
 17 19  1  0
 19 20  1  0
 20 21  1  0
 20 22  1  0
 20 23  1  0
 23 24  1  0
 23 25  1  0
 23 26  1  0
 26 27  1  0
 27 28  1  0
 27 29  1  0
 27 30  1  0
 30 31  1  0
 30 32  1  0
 30 33  1  0
 33 34  1  0
 34 35  1  0
 34 36  1  0
 34 37  1  0
 37 38  1  0
 37 39  1  0
  2 40  1  0
 40 41  2  0
 41 42  1  0
 42 43  1  0
 42 44  2  0
 44 45  1  0
 44 46  1  0
 46 47  2  0
 47 48  1  0
 19  5  1  0
 37 26  1  0
 47 40  1  0
 16  7  1  0
M  END
>  <UniqueID>  (55) 
508

>  <SMILES>  (55) 
O=c1c2ccccc2nc(/C=C/c2cnccn2)n1CCN1CCOCC1

>  <Energy>  (55) 
78.46841818005298

>  <Genealogy>  (55) 
O=c1c2ccccc2nc(/C=C/c2cnccn2)n1CCN1CCOCC1 (cis-trans isomerization)
O=c1c2ccccc2nc(/C=C/c2cnccn2)n1CCN1CCOCC1 (3D coordinates assigned)
O=c1c2ccccc2nc(/C=C/c2cnccn2)n1CCN1CCOCC1 (nonaromatic ring conformer: 78.46841818005298 kcal/mol)

>  <smiles>  (55) 
O=c1c2ccccc2nc(/C=C/c2cnccn2)n1CCN1CCOCC1

>  <score_type>  (55) 
oracle

>  <origin>  (55) 
autodockgpu

>  <m_score__min__energy>  (55) 
-7.7300000000000004

>  <m_primary>  (55) 
energy

>  <meeko>  (55) 
{"free_energy": -6.46, "intermolecular_energy": -8.25, "internal_energy": -1.4, "cluster_size": 5, "cluster_id": 2, "rank_in_cluster": 5}

>  <energy>  (55) 
-7.46

>  <cluster_rmsd>  (55) 
0.39

>  <rmsd>  (55) 
270.38

>  <cluster>  (55) 
2

$$$$
OQAGMIVLLKVZIV-AATRIKPKNA-N
     RDKit          3D

 48 51  0  0  0  0  0  0  0  0999 V2000
  136.0927   68.8699  221.7353 H   0  0  0  0  0  0  0  0  0  0  0  0
  136.5150   68.7800  222.7470 C   0  0  0  0  0  0  0  0  0  0  0  0
  137.7970   68.4160  222.8820 C   0  0  0  0  0  0  0  0  0  0  0  0
  138.2384   67.6999  222.1732 H   0  0  0  0  0  0  0  0  0  0  0  0
  138.6190   68.9660  223.9700 C   0  0  0  0  0  0  0  0  0  0  0  0
  138.8360   68.1790  225.0570 N   0  0  0  0  0  0  0  0  0  0  0  0
  139.5640   68.6070  226.1140 C   0  0  0  0  0  0  0  0  0  0  0  0
  139.7440   67.7720  227.2260 C   0  0  0  0  0  0  0  0  0  0  0  0
  139.2941   66.7683  227.2379 H   0  0  0  0  0  0  0  0  0  0  0  0
  140.4950   68.2140  228.3200 C   0  0  0  0  0  0  0  0  0  0  0  0
  140.6339   67.5582  229.1922 H   0  0  0  0  0  0  0  0  0  0  0  0
  141.0690   69.4880  228.3060 C   0  0  0  0  0  0  0  0  0  0  0  0
  141.6704   69.8274  229.1622 H   0  0  0  0  0  0  0  0  0  0  0  0
  140.8820   70.3320  227.2090 C   0  0  0  0  0  0  0  0  0  0  0  0
  141.3244   71.3391  227.2103 H   0  0  0  0  0  0  0  0  0  0  0  0
  140.1280   69.8970  226.1000 C   0  0  0  0  0  0  0  0  0  0  0  0
  139.8830   70.7150  224.9810 C   0  0  0  0  0  0  0  0  0  0  0  0
  140.3440   71.8890  224.9580 O   0  0  0  0  0  0  0  0  0  0  0  0
  139.1380   70.2420  223.9230 N   0  0  0  0  0  0  0  0  0  0  0  0
  138.7930   71.1460  222.8010 C   0  0  0  0  0  0  0  0  0  0  0  0
  138.2690   70.5732  222.0217 H   0  0  0  0  0  0  0  0  0  0  0  0
  138.1452   71.9514  223.1773 H   0  0  0  0  0  0  0  0  0  0  0  0
  140.0700   71.7690  222.2020 C   0  0  0  0  0  0  0  0  0  0  0  0
  140.9446   71.3819  222.7453 H   0  0  0  0  0  0  0  0  0  0  0  0
  140.1176   71.4984  221.1369 H   0  0  0  0  0  0  0  0  0  0  0  0
  140.0560   73.2430  222.3040 N   0  0  0  0  0  0  0  0  0  0  0  0
  138.7200   73.7770  221.9680 C   0  0  0  0  0  0  0  0  0  0  0  0
  138.4101   73.3798  220.9902 H   0  0  0  0  0  0  0  0  0  0  0  0
  138.0135   73.4686  222.7527 H   0  0  0  0  0  0  0  0  0  0  0  0
  138.7370   75.3180  221.9030 C   0  0  0  0  0  0  0  0  0  0  0  0
  138.6025   75.6354  220.8584 H   0  0  0  0  0  0  0  0  0  0  0  0
  137.9209   75.7041  222.5314 H   0  0  0  0  0  0  0  0  0  0  0  0
  139.9600   75.8320  222.3880 O   0  0  0  0  0  0  0  0  0  0  0  0
  141.0210   75.3990  221.5550 C   0  0  0  0  0  0  0  0  0  0  0  0
  140.8790   75.8238  220.5503 H   0  0  0  0  0  0  0  0  0  0  0  0
  141.9650   75.7416  222.0038 H   0  0  0  0  0  0  0  0  0  0  0  0
  141.0800   73.8610  221.4410 C   0  0  0  0  0  0  0  0  0  0  0  0
  140.8991   73.5676  220.3964 H   0  0  0  0  0  0  0  0  0  0  0  0
  142.0739   73.5167  221.7630 H   0  0  0  0  0  0  0  0  0  0  0  0
  135.6480   69.0650  223.9090 C   0  0  0  0  0  0  0  0  0  0  0  0
  134.7080   68.1650  224.3200 N   0  0  0  0  0  0  0  0  0  0  0  0
  133.9130   68.4180  225.3950 C   0  0  0  0  0  0  0  0  0  0  0  0
  133.1537   67.6855  225.7062 H   0  0  0  0  0  0  0  0  0  0  0  0
  134.0670   69.6150  226.1020 C   0  0  0  0  0  0  0  0  0  0  0  0
  133.4581   69.8135  226.9963 H   0  0  0  0  0  0  0  0  0  0  0  0
  134.9740   70.5290  225.6750 N   0  0  0  0  0  0  0  0  0  0  0  0
  135.7590   70.2860  224.5870 C   0  0  0  0  0  0  0  0  0  0  0  0
  136.4765   71.0455  224.2430 H   0  0  0  0  0  0  0  0  0  0  0  0
  1  2  1  0
  2  3  2  0
  3  4  1  0
  3  5  1  0
  5  6  2  0
  6  7  1  0
  7  8  2  0
  8  9  1  0
  8 10  1  0
 10 11  1  0
 10 12  2  0
 12 13  1  0
 12 14  1  0
 14 15  1  0
 14 16  2  0
 16 17  1  0
 17 18  2  0
 17 19  1  0
 19 20  1  0
 20 21  1  0
 20 22  1  0
 20 23  1  0
 23 24  1  0
 23 25  1  0
 23 26  1  0
 26 27  1  0
 27 28  1  0
 27 29  1  0
 27 30  1  0
 30 31  1  0
 30 32  1  0
 30 33  1  0
 33 34  1  0
 34 35  1  0
 34 36  1  0
 34 37  1  0
 37 38  1  0
 37 39  1  0
  2 40  1  0
 40 41  2  0
 41 42  1  0
 42 43  1  0
 42 44  2  0
 44 45  1  0
 44 46  1  0
 46 47  2  0
 47 48  1  0
 19  5  1  0
 37 26  1  0
 47 40  1  0
 16  7  1  0
M  END
>  <UniqueID>  (56) 
508

>  <SMILES>  (56) 
O=c1c2ccccc2nc(/C=C/c2cnccn2)n1CCN1CCOCC1

>  <Energy>  (56) 
78.46841818005298

>  <Genealogy>  (56) 
O=c1c2ccccc2nc(/C=C/c2cnccn2)n1CCN1CCOCC1 (cis-trans isomerization)
O=c1c2ccccc2nc(/C=C/c2cnccn2)n1CCN1CCOCC1 (3D coordinates assigned)
O=c1c2ccccc2nc(/C=C/c2cnccn2)n1CCN1CCOCC1 (nonaromatic ring conformer: 78.46841818005298 kcal/mol)

>  <smiles>  (56) 
O=c1c2ccccc2nc(/C=C/c2cnccn2)n1CCN1CCOCC1

>  <score_type>  (56) 
oracle

>  <origin>  (56) 
autodockgpu

>  <m_score__min__energy>  (56) 
-7.7300000000000004

>  <m_primary>  (56) 
energy

>  <meeko>  (56) 
{"free_energy": -7.65, "intermolecular_energy": -9.44, "internal_energy": -1.14, "cluster_size": 5, "cluster_id": 2, "rank_in_cluster": 2}

>  <energy>  (56) 
-7.42

>  <cluster_rmsd>  (56) 
0.42

>  <rmsd>  (56) 
270.41

>  <cluster>  (56) 
2

$$$$
OQAGMIVLLKVZIV-AATRIKPKNA-N
     RDKit          3D

 48 51  0  0  0  0  0  0  0  0999 V2000
  136.0921   69.0500  221.7857 H   0  0  0  0  0  0  0  0  0  0  0  0
  136.4900   68.8920  222.7990 C   0  0  0  0  0  0  0  0  0  0  0  0
  137.7590   68.4860  222.9390 C   0  0  0  0  0  0  0  0  0  0  0  0
  138.1768   67.7504  222.2359 H   0  0  0  0  0  0  0  0  0  0  0  0
  138.5980   69.0150  224.0240 C   0  0  0  0  0  0  0  0  0  0  0  0
  138.8210   68.2120  225.0980 N   0  0  0  0  0  0  0  0  0  0  0  0
  139.5640   68.6210  226.1520 C   0  0  0  0  0  0  0  0  0  0  0  0
  139.7510   67.7710  227.2510 C   0  0  0  0  0  0  0  0  0  0  0  0
  139.2938   66.7705  227.2554 H   0  0  0  0  0  0  0  0  0  0  0  0
  140.5180   68.1930  228.3420 C   0  0  0  0  0  0  0  0  0  0  0  0
  140.6614   67.5253  229.2043 H   0  0  0  0  0  0  0  0  0  0  0  0
  141.1020   69.4620  228.3370 C   0  0  0  0  0  0  0  0  0  0  0  0
  141.7164   69.7855  229.1901 H   0  0  0  0  0  0  0  0  0  0  0  0
  140.9090   70.3220  227.2530 C   0  0  0  0  0  0  0  0  0  0  0  0
  141.3597   71.3254  227.2617 H   0  0  0  0  0  0  0  0  0  0  0  0
  140.1380   69.9070  226.1480 C   0  0  0  0  0  0  0  0  0  0  0  0
  139.8870   70.7410  225.0420 C   0  0  0  0  0  0  0  0  0  0  0  0
  140.3570   71.9110  225.0280 O   0  0  0  0  0  0  0  0  0  0  0  0
  139.1260   70.2870  223.9870 N   0  0  0  0  0  0  0  0  0  0  0  0
  138.7750   71.2080  222.8800 C   0  0  0  0  0  0  0  0  0  0  0  0
  138.2223   70.6528  222.1078 H   0  0  0  0  0  0  0  0  0  0  0  0
  138.1524   72.0232  223.2773 H   0  0  0  0  0  0  0  0  0  0  0  0
  140.0510   71.8100  222.2580 C   0  0  0  0  0  0  0  0  0  0  0  0
  140.9277   71.4245  222.7990 H   0  0  0  0  0  0  0  0  0  0  0  0
  140.0852   71.5214  221.1971 H   0  0  0  0  0  0  0  0  0  0  0  0
  140.0510   73.2850  222.3350 N   0  0  0  0  0  0  0  0  0  0  0  0
  138.7260   73.8270  221.9670 C   0  0  0  0  0  0  0  0  0  0  0  0
  138.4286   73.4162  220.9909 H   0  0  0  0  0  0  0  0  0  0  0  0
  138.0032   73.5394  222.7448 H   0  0  0  0  0  0  0  0  0  0  0  0
  138.7600   75.3670  221.8760 C   0  0  0  0  0  0  0  0  0  0  0  0
  138.6454   75.6678  220.8242 H   0  0  0  0  0  0  0  0  0  0  0  0
  137.9381   75.7721  222.4846 H   0  0  0  0  0  0  0  0  0  0  0  0
  139.9810   75.8770  222.3720 O   0  0  0  0  0  0  0  0  0  0  0  0
  141.0510   75.4180  221.5640 C   0  0  0  0  0  0  0  0  0  0  0  0
  140.9303   75.8270  220.5500 H   0  0  0  0  0  0  0  0  0  0  0  0
  141.9912   75.7579  222.0227 H   0  0  0  0  0  0  0  0  0  0  0  0
  141.0950   73.8770  221.4770 C   0  0  0  0  0  0  0  0  0  0  0  0
  140.9267   73.5675  220.4349 H   0  0  0  0  0  0  0  0  0  0  0  0
  142.0801   73.5276  221.8198 H   0  0  0  0  0  0  0  0  0  0  0  0
  135.6060   69.1350  223.9580 C   0  0  0  0  0  0  0  0  0  0  0  0
  134.7350   68.1770  224.3890 N   0  0  0  0  0  0  0  0  0  0  0  0
  133.9250   68.3930  225.4610 C   0  0  0  0  0  0  0  0  0  0  0  0
  133.2215   67.6134  225.7886 H   0  0  0  0  0  0  0  0  0  0  0  0
  133.9920   69.6120  226.1440 C   0  0  0  0  0  0  0  0  0  0  0  0
  133.3707   69.7838  227.0354 H   0  0  0  0  0  0  0  0  0  0  0  0
  134.8300   70.5800  225.6970 N   0  0  0  0  0  0  0  0  0  0  0  0
  135.6290   70.3740  224.6120 C   0  0  0  0  0  0  0  0  0  0  0  0
  136.2889   71.1768  224.2515 H   0  0  0  0  0  0  0  0  0  0  0  0
  1  2  1  0
  2  3  2  0
  3  4  1  0
  3  5  1  0
  5  6  2  0
  6  7  1  0
  7  8  2  0
  8  9  1  0
  8 10  1  0
 10 11  1  0
 10 12  2  0
 12 13  1  0
 12 14  1  0
 14 15  1  0
 14 16  2  0
 16 17  1  0
 17 18  2  0
 17 19  1  0
 19 20  1  0
 20 21  1  0
 20 22  1  0
 20 23  1  0
 23 24  1  0
 23 25  1  0
 23 26  1  0
 26 27  1  0
 27 28  1  0
 27 29  1  0
 27 30  1  0
 30 31  1  0
 30 32  1  0
 30 33  1  0
 33 34  1  0
 34 35  1  0
 34 36  1  0
 34 37  1  0
 37 38  1  0
 37 39  1  0
  2 40  1  0
 40 41  2  0
 41 42  1  0
 42 43  1  0
 42 44  2  0
 44 45  1  0
 44 46  1  0
 46 47  2  0
 47 48  1  0
 19  5  1  0
 37 26  1  0
 47 40  1  0
 16  7  1  0
M  END
>  <UniqueID>  (57) 
508

>  <SMILES>  (57) 
O=c1c2ccccc2nc(/C=C/c2cnccn2)n1CCN1CCOCC1

>  <Energy>  (57) 
78.46841818005298

>  <Genealogy>  (57) 
O=c1c2ccccc2nc(/C=C/c2cnccn2)n1CCN1CCOCC1 (cis-trans isomerization)
O=c1c2ccccc2nc(/C=C/c2cnccn2)n1CCN1CCOCC1 (3D coordinates assigned)
O=c1c2ccccc2nc(/C=C/c2cnccn2)n1CCN1CCOCC1 (nonaromatic ring conformer: 78.46841818005298 kcal/mol)

>  <smiles>  (57) 
O=c1c2ccccc2nc(/C=C/c2cnccn2)n1CCN1CCOCC1

>  <score_type>  (57) 
oracle

>  <origin>  (57) 
autodockgpu

>  <m_score__min__energy>  (57) 
-7.7300000000000004

>  <m_primary>  (57) 
energy

>  <meeko>  (57) 
{"free_energy": -7.66, "intermolecular_energy": -9.45, "internal_energy": -1.14, "cluster_size": 5, "cluster_id": 2, "rank_in_cluster": 1}

>  <energy>  (57) 
-6.46

>  <cluster_rmsd>  (57) 
0.86

>  <rmsd>  (57) 
270.25

>  <cluster>  (57) 
2

$$$$
OQAGMIVLLKVZIV-AATRIKPKNA-N
     RDKit          3D

 48 51  0  0  0  0  0  0  0  0999 V2000
  140.3874   71.7557  221.1307 H   0  0  0  0  0  0  0  0  0  0  0  0
  139.5240   72.0710  221.7350 C   0  0  0  0  0  0  0  0  0  0  0  0
  138.7560   71.1320  222.3030 C   0  0  0  0  0  0  0  0  0  0  0  0
  137.9056   70.7121  221.7458 H   0  0  0  0  0  0  0  0  0  0  0  0
  139.0410   70.6580  223.6660 C   0  0  0  0  0  0  0  0  0  0  0  0
  139.8270   71.4370  224.4540 N   0  0  0  0  0  0  0  0  0  0  0  0
  140.1580   71.0720  225.7140 C   0  0  0  0  0  0  0  0  0  0  0  0
  140.9920   71.8940  226.4860 C   0  0  0  0  0  0  0  0  0  0  0  0
  141.3758   72.8359  226.0670 H   0  0  0  0  0  0  0  0  0  0  0  0
  141.3360   71.5170  227.7880 C   0  0  0  0  0  0  0  0  0  0  0  0
  141.9920   72.1619  228.3911 H   0  0  0  0  0  0  0  0  0  0  0  0
  140.8480   70.3230  228.3240 C   0  0  0  0  0  0  0  0  0  0  0  0
  141.1097   70.0365  229.3533 H   0  0  0  0  0  0  0  0  0  0  0  0
  140.0280   69.4910  227.5560 C   0  0  0  0  0  0  0  0  0  0  0  0
  139.6574   68.5451  227.9778 H   0  0  0  0  0  0  0  0  0  0  0  0
  139.6750   69.8610  226.2430 C   0  0  0  0  0  0  0  0  0  0  0  0
  138.8760   69.0490  225.4150 C   0  0  0  0  0  0  0  0  0  0  0  0
  138.4600   67.9400  225.8490 O   0  0  0  0  0  0  0  0  0  0  0  0
  138.5600   69.4560  224.1370 N   0  0  0  0  0  0  0  0  0  0  0  0
  137.8140   68.5460  223.2370 C   0  0  0  0  0  0  0  0  0  0  0  0
  138.3351   68.4847  222.2702 H   0  0  0  0  0  0  0  0  0  0  0  0
  137.7602   67.5500  223.7008 H   0  0  0  0  0  0  0  0  0  0  0  0
  136.3810   69.0710  223.0100 C   0  0  0  0  0  0  0  0  0  0  0  0
  136.4277   70.1431  222.7683 H   0  0  0  0  0  0  0  0  0  0  0  0
  135.9327   68.5011  222.1828 H   0  0  0  0  0  0  0  0  0  0  0  0
  135.5380   68.8860  224.2090 N   0  0  0  0  0  0  0  0  0  0  0  0
  134.2530   68.2510  223.8510 C   0  0  0  0  0  0  0  0  0  0  0  0
  133.7818   68.8261  223.0403 H   0  0  0  0  0  0  0  0  0  0  0  0
  134.4518   67.2185  223.5280 H   0  0  0  0  0  0  0  0  0  0  0  0
  133.2970   68.2100  225.0610 C   0  0  0  0  0  0  0  0  0  0  0  0
  132.4605   68.9015  224.8818 H   0  0  0  0  0  0  0  0  0  0  0  0
  132.9281   67.1806  225.1806 H   0  0  0  0  0  0  0  0  0  0  0  0
  133.9630   68.5890  226.2470 O   0  0  0  0  0  0  0  0  0  0  0  0
  134.3930   69.9350  226.1400 C   0  0  0  0  0  0  0  0  0  0  0  0
  133.5088   70.5839  226.0562 H   0  0  0  0  0  0  0  0  0  0  0  0
  134.9811   70.1744  227.0382 H   0  0  0  0  0  0  0  0  0  0  0  0
  135.2950   70.1620  224.9080 C   0  0  0  0  0  0  0  0  0  0  0  0
  134.8003   70.8638  224.2205 H   0  0  0  0  0  0  0  0  0  0  0  0
  136.2580   70.5764  225.2412 H   0  0  0  0  0  0  0  0  0  0  0  0
  139.2530   73.5150  221.8910 C   0  0  0  0  0  0  0  0  0  0  0  0
  140.2760   74.4120  222.0030 N   0  0  0  0  0  0  0  0  0  0  0  0
  140.0330   75.7440  222.1370 C   0  0  0  0  0  0  0  0  0  0  0  0
  140.8692   76.4518  222.2361 H   0  0  0  0  0  0  0  0  0  0  0  0
  138.7130   76.2080  222.1480 C   0  0  0  0  0  0  0  0  0  0  0  0
  138.5043   77.2858  222.2169 H   0  0  0  0  0  0  0  0  0  0  0  0
  137.6930   75.3170  222.0730 N   0  0  0  0  0  0  0  0  0  0  0  0
  137.9330   73.9810  221.9580 C   0  0  0  0  0  0  0  0  0  0  0  0
  137.0940   73.2707  221.9179 H   0  0  0  0  0  0  0  0  0  0  0  0
  1  2  1  0
  2  3  2  0
  3  4  1  0
  3  5  1  0
  5  6  2  0
  6  7  1  0
  7  8  2  0
  8  9  1  0
  8 10  1  0
 10 11  1  0
 10 12  2  0
 12 13  1  0
 12 14  1  0
 14 15  1  0
 14 16  2  0
 16 17  1  0
 17 18  2  0
 17 19  1  0
 19 20  1  0
 20 21  1  0
 20 22  1  0
 20 23  1  0
 23 24  1  0
 23 25  1  0
 23 26  1  0
 26 27  1  0
 27 28  1  0
 27 29  1  0
 27 30  1  0
 30 31  1  0
 30 32  1  0
 30 33  1  0
 33 34  1  0
 34 35  1  0
 34 36  1  0
 34 37  1  0
 37 38  1  0
 37 39  1  0
  2 40  1  0
 40 41  2  0
 41 42  1  0
 42 43  1  0
 42 44  2  0
 44 45  1  0
 44 46  1  0
 46 47  2  0
 47 48  1  0
 19  5  1  0
 37 26  1  0
 47 40  1  0
 16  7  1  0
M  END
>  <UniqueID>  (58) 
508

>  <SMILES>  (58) 
O=c1c2ccccc2nc(/C=C/c2cnccn2)n1CCN1CCOCC1

>  <Energy>  (58) 
78.46841818005298

>  <Genealogy>  (58) 
O=c1c2ccccc2nc(/C=C/c2cnccn2)n1CCN1CCOCC1 (cis-trans isomerization)
O=c1c2ccccc2nc(/C=C/c2cnccn2)n1CCN1CCOCC1 (3D coordinates assigned)
O=c1c2ccccc2nc(/C=C/c2cnccn2)n1CCN1CCOCC1 (nonaromatic ring conformer: 78.46841818005298 kcal/mol)

>  <smiles>  (58) 
O=c1c2ccccc2nc(/C=C/c2cnccn2)n1CCN1CCOCC1

>  <score_type>  (58) 
oracle

>  <origin>  (58) 
autodockgpu

>  <m_score__min__energy>  (58) 
-7.7300000000000004

>  <m_primary>  (58) 
energy

>  <meeko>  (58) 
{"free_energy": -7.65, "intermolecular_energy": -9.44, "internal_energy": -1.24, "cluster_size": 12, "cluster_id": 1, "rank_in_cluster": 5}

>  <energy>  (58) 
-6.61

>  <cluster_rmsd>  (58) 
0.0

>  <rmsd>  (58) 
270.78

>  <cluster>  (58) 
3

$$$$
OQAGMIVLLKVZIV-AATRIKPKNA-N
     RDKit          3D

 48 51  0  0  0  0  0  0  0  0999 V2000
  141.8864   71.7964  221.3393 H   0  0  0  0  0  0  0  0  0  0  0  0
  140.9050   72.1690  221.6680 C   0  0  0  0  0  0  0  0  0  0  0  0
  139.9640   71.2840  222.0210 C   0  0  0  0  0  0  0  0  0  0  0  0
  139.2308   70.9409  221.2762 H   0  0  0  0  0  0  0  0  0  0  0  0
  139.9030   70.7670  223.3970 C   0  0  0  0  0  0  0  0  0  0  0  0
  140.4660   71.5200  224.3790 N   0  0  0  0  0  0  0  0  0  0  0  0
  140.4740   71.1160  225.6700 C   0  0  0  0  0  0  0  0  0  0  0  0
  141.0870   71.9100  226.6500 C   0  0  0  0  0  0  0  0  0  0  0  0
  141.5602   72.8621  226.3679 H   0  0  0  0  0  0  0  0  0  0  0  0
  141.0980   71.4940  227.9850 C   0  0  0  0  0  0  0  0  0  0  0  0
  141.5807   72.1180  228.7516 H   0  0  0  0  0  0  0  0  0  0  0  0
  140.4960   70.2860  228.3450 C   0  0  0  0  0  0  0  0  0  0  0  0
  140.4945   69.9673  229.3978 H   0  0  0  0  0  0  0  0  0  0  0  0
  139.8960   69.4810  227.3740 C   0  0  0  0  0  0  0  0  0  0  0  0
  139.4356   68.5245  227.6623 H   0  0  0  0  0  0  0  0  0  0  0  0
  139.8790   69.8910  226.0260 C   0  0  0  0  0  0  0  0  0  0  0  0
  139.3140   69.1080  225.0010 C   0  0  0  0  0  0  0  0  0  0  0  0
  138.8070   67.9880  225.2850 O   0  0  0  0  0  0  0  0  0  0  0  0
  139.3240   69.5540  223.6980 N   0  0  0  0  0  0  0  0  0  0  0  0
  138.8280   68.6750  222.6130 C   0  0  0  0  0  0  0  0  0  0  0  0
  139.3827   68.8922  221.6883 H   0  0  0  0  0  0  0  0  0  0  0  0
  138.9790   67.6257  222.9064 H   0  0  0  0  0  0  0  0  0  0  0  0
  137.3240   68.9160  222.3720 C   0  0  0  0  0  0  0  0  0  0  0  0
  137.1658   69.1501  221.3089 H   0  0  0  0  0  0  0  0  0  0  0  0
  136.7792   68.0045  222.6588 H   0  0  0  0  0  0  0  0  0  0  0  0
  136.8150   70.0350  223.1900 N   0  0  0  0  0  0  0  0  0  0  0  0
  135.6000   69.6330  223.9280 C   0  0  0  0  0  0  0  0  0  0  0  0
  134.8719   69.2124  223.2188 H   0  0  0  0  0  0  0  0  0  0  0  0
  135.8821   68.8844  224.6830 H   0  0  0  0  0  0  0  0  0  0  0  0
  134.9620   70.8390  224.6490 C   0  0  0  0  0  0  0  0  0  0  0  0
  134.0074   71.0856  224.1613 H   0  0  0  0  0  0  0  0  0  0  0  0
  134.7987   70.5703  225.7031 H   0  0  0  0  0  0  0  0  0  0  0  0
  135.8110   71.9670  224.5990 O   0  0  0  0  0  0  0  0  0  0  0  0
  135.9850   72.3700  223.2520 C   0  0  0  0  0  0  0  0  0  0  0  0
  135.0128   72.6911  222.8497 H   0  0  0  0  0  0  0  0  0  0  0  0
  136.7154   73.1924  223.2368 H   0  0  0  0  0  0  0  0  0  0  0  0
  136.5360   71.2300  222.3700 C   0  0  0  0  0  0  0  0  0  0  0  0
  135.7928   70.9758  221.5999 H   0  0  0  0  0  0  0  0  0  0  0  0
  137.4709   71.5646  221.8967 H   0  0  0  0  0  0  0  0  0  0  0  0
  140.6730   73.6280  221.7040 C   0  0  0  0  0  0  0  0  0  0  0  0
  139.5670   74.1460  222.3120 N   0  0  0  0  0  0  0  0  0  0  0  0
  139.3530   75.4900  222.3570 C   0  0  0  0  0  0  0  0  0  0  0  0
  138.4511   75.8905  222.8430 H   0  0  0  0  0  0  0  0  0  0  0  0
  140.2860   76.3580  221.7820 C   0  0  0  0  0  0  0  0  0  0  0  0
  140.1439   77.4469  221.8459 H   0  0  0  0  0  0  0  0  0  0  0  0
  141.3690   75.8450  221.1440 N   0  0  0  0  0  0  0  0  0  0  0  0
  141.5760   74.5000  221.0820 C   0  0  0  0  0  0  0  0  0  0  0  0
  142.4490   74.1000  220.5455 H   0  0  0  0  0  0  0  0  0  0  0  0
  1  2  1  0
  2  3  2  0
  3  4  1  0
  3  5  1  0
  5  6  2  0
  6  7  1  0
  7  8  2  0
  8  9  1  0
  8 10  1  0
 10 11  1  0
 10 12  2  0
 12 13  1  0
 12 14  1  0
 14 15  1  0
 14 16  2  0
 16 17  1  0
 17 18  2  0
 17 19  1  0
 19 20  1  0
 20 21  1  0
 20 22  1  0
 20 23  1  0
 23 24  1  0
 23 25  1  0
 23 26  1  0
 26 27  1  0
 27 28  1  0
 27 29  1  0
 27 30  1  0
 30 31  1  0
 30 32  1  0
 30 33  1  0
 33 34  1  0
 34 35  1  0
 34 36  1  0
 34 37  1  0
 37 38  1  0
 37 39  1  0
  2 40  1  0
 40 41  2  0
 41 42  1  0
 42 43  1  0
 42 44  2  0
 44 45  1  0
 44 46  1  0
 46 47  2  0
 47 48  1  0
 19  5  1  0
 37 26  1  0
 47 40  1  0
 16  7  1  0
M  END
>  <UniqueID>  (59) 
508

>  <SMILES>  (59) 
O=c1c2ccccc2nc(/C=C/c2cnccn2)n1CCN1CCOCC1

>  <Energy>  (59) 
78.46841818005298

>  <Genealogy>  (59) 
O=c1c2ccccc2nc(/C=C/c2cnccn2)n1CCN1CCOCC1 (cis-trans isomerization)
O=c1c2ccccc2nc(/C=C/c2cnccn2)n1CCN1CCOCC1 (3D coordinates assigned)
O=c1c2ccccc2nc(/C=C/c2cnccn2)n1CCN1CCOCC1 (nonaromatic ring conformer: 78.46841818005298 kcal/mol)

>  <smiles>  (59) 
O=c1c2ccccc2nc(/C=C/c2cnccn2)n1CCN1CCOCC1

>  <score_type>  (59) 
oracle

>  <origin>  (59) 
autodockgpu

>  <m_score__min__energy>  (59) 
-7.7300000000000004

>  <m_primary>  (59) 
energy

>  <meeko>  (59) 
{"free_energy": -6.89, "intermolecular_energy": -8.68, "internal_energy": -1.68, "cluster_size": 12, "cluster_id": 1, "rank_in_cluster": 11}

>  <energy>  (59) 
-5.67

>  <cluster_rmsd>  (59) 
0.0

>  <rmsd>  (59) 
271.33

>  <cluster>  (59) 
4

$$$$
OQAGMIVLLKVZIV-AATRIKPKNA-N
     RDKit          3D

 48 51  0  0  0  0  0  0  0  0999 V2000
  141.3308   72.2455  221.2217 H   0  0  0  0  0  0  0  0  0  0  0  0
  140.3280   72.1790  221.6690 C   0  0  0  0  0  0  0  0  0  0  0  0
  139.8390   70.9710  221.9820 C   0  0  0  0  0  0  0  0  0  0  0  0
  139.4547   70.3154  221.1867 H   0  0  0  0  0  0  0  0  0  0  0  0
  139.8120   70.5150  223.3790 C   0  0  0  0  0  0  0  0  0  0  0  0
  140.3500   71.3340  224.3210 N   0  0  0  0  0  0  0  0  0  0  0  0
  140.3870   70.9890  225.6290 C   0  0  0  0  0  0  0  0  0  0  0  0
  140.9730   71.8530  226.5660 C   0  0  0  0  0  0  0  0  0  0  0  0
  141.4014   72.8113  226.2371 H   0  0  0  0  0  0  0  0  0  0  0  0
  141.0130   71.4970  227.9180 C   0  0  0  0  0  0  0  0  0  0  0  0
  141.4749   72.1745  228.6512 H   0  0  0  0  0  0  0  0  0  0  0  0
  140.4670   70.2820  228.3380 C   0  0  0  0  0  0  0  0  0  0  0  0
  140.4876   70.0116  229.4040 H   0  0  0  0  0  0  0  0  0  0  0  0
  139.8950   69.4090  227.4100 C   0  0  0  0  0  0  0  0  0  0  0  0
  139.4800   68.4471  227.7453 H   0  0  0  0  0  0  0  0  0  0  0  0
  139.8480   69.7570  226.0450 C   0  0  0  0  0  0  0  0  0  0  0  0
  139.3100   68.9050  225.0620 C   0  0  0  0  0  0  0  0  0  0  0  0
  138.8540   67.7780  225.4000 O   0  0  0  0  0  0  0  0  0  0  0  0
  139.2890   69.2920  223.7400 N   0  0  0  0  0  0  0  0  0  0  0  0
  138.8230   68.3450  222.7010 C   0  0  0  0  0  0  0  0  0  0  0  0
  139.5212   68.3670  221.8513 H   0  0  0  0  0  0  0  0  0  0  0  0
  138.7836   67.3337  223.1319 H   0  0  0  0  0  0  0  0  0  0  0  0
  137.4140   68.7350  222.2110 C   0  0  0  0  0  0  0  0  0  0  0  0
  137.4231   69.7905  221.9013 H   0  0  0  0  0  0  0  0  0  0  0  0
  137.1495   68.0806  221.3673 H   0  0  0  0  0  0  0  0  0  0  0  0
  136.4010   68.5550  223.2710 N   0  0  0  0  0  0  0  0  0  0  0  0
  135.0990   68.1650  222.6900 C   0  0  0  0  0  0  0  0  0  0  0  0
  134.8240   68.8876  221.9076 H   0  0  0  0  0  0  0  0  0  0  0  0
  135.1944   67.1541  222.2670 H   0  0  0  0  0  0  0  0  0  0  0  0
  133.9940   68.1430  223.7660 C   0  0  0  0  0  0  0  0  0  0  0  0
  133.2928   68.9694  223.5780 H   0  0  0  0  0  0  0  0  0  0  0  0
  133.4737   67.1753  223.7131 H   0  0  0  0  0  0  0  0  0  0  0  0
  134.5420   68.2880  225.0600 O   0  0  0  0  0  0  0  0  0  0  0  0
  135.1640   69.5560  225.1710 C   0  0  0  0  0  0  0  0  0  0  0  0
  134.3969   70.3373  225.0655 H   0  0  0  0  0  0  0  0  0  0  0  0
  135.6545   69.6064  226.1543 H   0  0  0  0  0  0  0  0  0  0  0  0
  136.2450   69.7720  224.0910 C   0  0  0  0  0  0  0  0  0  0  0  0
  135.9484   70.6102  223.4434 H   0  0  0  0  0  0  0  0  0  0  0  0
  137.2026   69.9965  224.5835 H   0  0  0  0  0  0  0  0  0  0  0  0
  139.5690   73.4240  221.9030 C   0  0  0  0  0  0  0  0  0  0  0  0
  140.2130   74.6090  222.1110 N   0  0  0  0  0  0  0  0  0  0  0  0
  139.5180   75.7610  222.3170 C   0  0  0  0  0  0  0  0  0  0  0  0
  140.0536   76.7056  222.4929 H   0  0  0  0  0  0  0  0  0  0  0  0
  138.1200   75.7380  222.3040 C   0  0  0  0  0  0  0  0  0  0  0  0
  137.5483   76.6692  222.4304 H   0  0  0  0  0  0  0  0  0  0  0  0
  137.4750   74.5560  222.1340 N   0  0  0  0  0  0  0  0  0  0  0  0
  138.1690   73.3970  221.9450 C   0  0  0  0  0  0  0  0  0  0  0  0
  137.6314   72.4447  221.8260 H   0  0  0  0  0  0  0  0  0  0  0  0
  1  2  1  0
  2  3  2  0
  3  4  1  0
  3  5  1  0
  5  6  2  0
  6  7  1  0
  7  8  2  0
  8  9  1  0
  8 10  1  0
 10 11  1  0
 10 12  2  0
 12 13  1  0
 12 14  1  0
 14 15  1  0
 14 16  2  0
 16 17  1  0
 17 18  2  0
 17 19  1  0
 19 20  1  0
 20 21  1  0
 20 22  1  0
 20 23  1  0
 23 24  1  0
 23 25  1  0
 23 26  1  0
 26 27  1  0
 27 28  1  0
 27 29  1  0
 27 30  1  0
 30 31  1  0
 30 32  1  0
 30 33  1  0
 33 34  1  0
 34 35  1  0
 34 36  1  0
 34 37  1  0
 37 38  1  0
 37 39  1  0
  2 40  1  0
 40 41  2  0
 41 42  1  0
 42 43  1  0
 42 44  2  0
 44 45  1  0
 44 46  1  0
 46 47  2  0
 47 48  1  0
 19  5  1  0
 37 26  1  0
 47 40  1  0
 16  7  1  0
M  END
>  <UniqueID>  (60) 
508

>  <SMILES>  (60) 
O=c1c2ccccc2nc(/C=C/c2cnccn2)n1CCN1CCOCC1

>  <Energy>  (60) 
78.46841818005298

>  <Genealogy>  (60) 
O=c1c2ccccc2nc(/C=C/c2cnccn2)n1CCN1CCOCC1 (cis-trans isomerization)
O=c1c2ccccc2nc(/C=C/c2cnccn2)n1CCN1CCOCC1 (3D coordinates assigned)
O=c1c2ccccc2nc(/C=C/c2cnccn2)n1CCN1CCOCC1 (nonaromatic ring conformer: 78.46841818005298 kcal/mol)

>  <smiles>  (60) 
O=c1c2ccccc2nc(/C=C/c2cnccn2)n1CCN1CCOCC1

>  <score_type>  (60) 
oracle

>  <origin>  (60) 
autodockgpu

>  <m_score__min__energy>  (60) 
-7.7300000000000004

>  <m_primary>  (60) 
energy

>  <meeko>  (60) 
{"free_energy": -7.37, "intermolecular_energy": -9.16, "internal_energy": -1.41, "cluster_size": 12, "cluster_id": 1, "rank_in_cluster": 9}

>  <energy>  (60) 
-5.65

>  <cluster_rmsd>  (60) 
0.4

>  <rmsd>  (60) 
271.32

>  <cluster>  (60) 
4

$$$$
OQAGMIVLLKVZIV-AATRIKPKNA-N
     RDKit          3D

 48 51  0  0  0  0  0  0  0  0999 V2000
  140.2178   71.4727  221.1655 H   0  0  0  0  0  0  0  0  0  0  0  0
  139.4710   71.9760  221.7970 C   0  0  0  0  0  0  0  0  0  0  0  0
  138.5920   71.2290  222.4780 C   0  0  0  0  0  0  0  0  0  0  0  0
  137.5980   71.0307  222.0506 H   0  0  0  0  0  0  0  0  0  0  0  0
  138.9450   70.6720  223.7920 C   0  0  0  0  0  0  0  0  0  0  0  0
  139.7050   71.4390  224.6190 N   0  0  0  0  0  0  0  0  0  0  0  0
  140.0940   71.0030  225.8390 C   0  0  0  0  0  0  0  0  0  0  0  0
  140.8980   71.8150  226.6510 C   0  0  0  0  0  0  0  0  0  0  0  0
  141.2116   72.8077  226.2958 H   0  0  0  0  0  0  0  0  0  0  0  0
  141.3020   71.3650  227.9120 C   0  0  0  0  0  0  0  0  0  0  0  0
  141.9337   72.0036  228.5470 H   0  0  0  0  0  0  0  0  0  0  0  0
  140.9040   70.1050  228.3660 C   0  0  0  0  0  0  0  0  0  0  0  0
  141.2121   69.7596  229.3639 H   0  0  0  0  0  0  0  0  0  0  0  0
  140.1160   69.2820  227.5570 C   0  0  0  0  0  0  0  0  0  0  0  0
  139.8181   68.2849  227.9134 H   0  0  0  0  0  0  0  0  0  0  0  0
  139.7020   69.7270  226.2850 C   0  0  0  0  0  0  0  0  0  0  0  0
  138.9320   68.9300  225.4160 C   0  0  0  0  0  0  0  0  0  0  0  0
  138.5980   67.7670  225.7740 O   0  0  0  0  0  0  0  0  0  0  0  0
  138.5540   69.4100  224.1820 N   0  0  0  0  0  0  0  0  0  0  0  0
  137.8390   68.5250  223.2330 C   0  0  0  0  0  0  0  0  0  0  0  0
  138.3515   68.5476  222.2600 H   0  0  0  0  0  0  0  0  0  0  0  0
  137.8347   67.5008  223.6343 H   0  0  0  0  0  0  0  0  0  0  0  0
  136.3820   68.9970  223.0510 C   0  0  0  0  0  0  0  0  0  0  0  0
  136.3844   70.0532  222.7438 H   0  0  0  0  0  0  0  0  0  0  0  0
  135.9088   68.3665  222.2838 H   0  0  0  0  0  0  0  0  0  0  0  0
  135.6080   68.8630  224.3020 N   0  0  0  0  0  0  0  0  0  0  0  0
  134.3090   68.2070  224.0460 C   0  0  0  0  0  0  0  0  0  0  0  0
  133.7901   68.7419  223.2370 H   0  0  0  0  0  0  0  0  0  0  0  0
  134.4968   67.1613  223.7611 H   0  0  0  0  0  0  0  0  0  0  0  0
  133.4210   68.2180  225.3070 C   0  0  0  0  0  0  0  0  0  0  0  0
  132.5717   68.8975  225.1429 H   0  0  0  0  0  0  0  0  0  0  0  0
  133.0650   67.1941  225.4938 H   0  0  0  0  0  0  0  0  0  0  0  0
  134.1500   68.6540  226.4360 O   0  0  0  0  0  0  0  0  0  0  0  0
  134.5640   69.9960  226.2430 C   0  0  0  0  0  0  0  0  0  0  0  0
  133.6719   70.6362  226.1778 H   0  0  0  0  0  0  0  0  0  0  0  0
  135.1986   70.2799  227.0954 H   0  0  0  0  0  0  0  0  0  0  0  0
  135.3950   70.1690  224.9550 C   0  0  0  0  0  0  0  0  0  0  0  0
  134.8588   70.8365  224.2644 H   0  0  0  0  0  0  0  0  0  0  0  0
  136.3722   70.6016  225.2158 H   0  0  0  0  0  0  0  0  0  0  0  0
  139.4730   73.4520  221.8640 C   0  0  0  0  0  0  0  0  0  0  0  0
  140.6450   74.1500  221.9100 N   0  0  0  0  0  0  0  0  0  0  0  0
  140.6540   75.5100  221.9630 C   0  0  0  0  0  0  0  0  0  0  0  0
  141.6079   76.0558  222.0095 H   0  0  0  0  0  0  0  0  0  0  0  0
  139.4430   76.2090  221.9580 C   0  0  0  0  0  0  0  0  0  0  0  0
  139.4374   77.3090  221.9613 H   0  0  0  0  0  0  0  0  0  0  0  0
  138.2750   75.5190  221.9490 N   0  0  0  0  0  0  0  0  0  0  0  0
  138.2630   74.1570  221.9150 C   0  0  0  0  0  0  0  0  0  0  0  0
  137.3071   73.6128  221.9275 H   0  0  0  0  0  0  0  0  0  0  0  0
  1  2  1  0
  2  3  2  0
  3  4  1  0
  3  5  1  0
  5  6  2  0
  6  7  1  0
  7  8  2  0
  8  9  1  0
  8 10  1  0
 10 11  1  0
 10 12  2  0
 12 13  1  0
 12 14  1  0
 14 15  1  0
 14 16  2  0
 16 17  1  0
 17 18  2  0
 17 19  1  0
 19 20  1  0
 20 21  1  0
 20 22  1  0
 20 23  1  0
 23 24  1  0
 23 25  1  0
 23 26  1  0
 26 27  1  0
 27 28  1  0
 27 29  1  0
 27 30  1  0
 30 31  1  0
 30 32  1  0
 30 33  1  0
 33 34  1  0
 34 35  1  0
 34 36  1  0
 34 37  1  0
 37 38  1  0
 37 39  1  0
  2 40  1  0
 40 41  2  0
 41 42  1  0
 42 43  1  0
 42 44  2  0
 44 45  1  0
 44 46  1  0
 46 47  2  0
 47 48  1  0
 19  5  1  0
 37 26  1  0
 47 40  1  0
 16  7  1  0
M  END
>  <UniqueID>  (61) 
509

>  <SMILES>  (61) 
O=c1c2ccccc2nc(/C=C/c2cnccn2)n1CCN1CCOCC1

>  <Energy>  (61) 
79.96797103957768

>  <Genealogy>  (61) 
O=c1c2ccccc2nc(/C=C/c2cnccn2)n1CCN1CCOCC1 (cis-trans isomerization)
O=c1c2ccccc2nc(/C=C/c2cnccn2)n1CCN1CCOCC1 (3D coordinates assigned)
O=c1c2ccccc2nc(/C=C/c2cnccn2)n1CCN1CCOCC1 (nonaromatic ring conformer: 79.96797103957768 kcal/mol)

>  <smiles>  (61) 
O=c1c2ccccc2nc(/C=C/c2cnccn2)n1CCN1CCOCC1

>  <score_type>  (61) 
oracle

>  <origin>  (61) 
autodockgpu

>  <m_score__min__energy>  (61) 
-7.7300000000000004

>  <m_primary>  (61) 
energy

>  <meeko>  (61) 
{"free_energy": -7.67, "intermolecular_energy": -9.46, "internal_energy": -1.25, "cluster_size": 12, "cluster_id": 1, "rank_in_cluster": 3}

>  <energy>  (61) 
-7.73

>  <cluster_rmsd>  (61) 
0.0

>  <rmsd>  (61) 
270.25

>  <cluster>  (61) 
1

$$$$
OQAGMIVLLKVZIV-AATRIKPKNA-N
     RDKit          3D

 48 51  0  0  0  0  0  0  0  0999 V2000
  137.7173   72.9043  222.1379 H   0  0  0  0  0  0  0  0  0  0  0  0
  138.7020   72.4240  222.0390 C   0  0  0  0  0  0  0  0  0  0  0  0
  138.8110   71.1150  222.3020 C   0  0  0  0  0  0  0  0  0  0  0  0
  138.6917   70.3832  221.4895 H   0  0  0  0  0  0  0  0  0  0  0  0
  139.0890   70.6490  223.6690 C   0  0  0  0  0  0  0  0  0  0  0  0
  139.8840   71.4260  224.4510 N   0  0  0  0  0  0  0  0  0  0  0  0
  140.2100   71.0680  225.7150 C   0  0  0  0  0  0  0  0  0  0  0  0
  141.0530   71.8860  226.4810 C   0  0  0  0  0  0  0  0  0  0  0  0
  141.4490   72.8192  226.0541 H   0  0  0  0  0  0  0  0  0  0  0  0
  141.3910   71.5170  227.7870 C   0  0  0  0  0  0  0  0  0  0  0  0
  142.0543   72.1589  228.3853 H   0  0  0  0  0  0  0  0  0  0  0  0
  140.8870   70.3340  228.3320 C   0  0  0  0  0  0  0  0  0  0  0  0
  141.1435   70.0536  229.3643 H   0  0  0  0  0  0  0  0  0  0  0  0
  140.0580   69.5050  227.5710 C   0  0  0  0  0  0  0  0  0  0  0  0
  139.6756   68.5674  228.0008 H   0  0  0  0  0  0  0  0  0  0  0  0
  139.7110   69.8680  226.2540 C   0  0  0  0  0  0  0  0  0  0  0  0
  138.9030   69.0580  225.4320 C   0  0  0  0  0  0  0  0  0  0  0  0
  138.4730   67.9590  225.8760 O   0  0  0  0  0  0  0  0  0  0  0  0
  138.5930   69.4570  224.1510 N   0  0  0  0  0  0  0  0  0  0  0  0
  137.8370   68.5490  223.2580 C   0  0  0  0  0  0  0  0  0  0  0  0
  138.3607   68.4697  222.2939 H   0  0  0  0  0  0  0  0  0  0  0  0
  137.7666   67.5589  223.7320 H   0  0  0  0  0  0  0  0  0  0  0  0
  136.4130   69.0930  223.0200 C   0  0  0  0  0  0  0  0  0  0  0  0
  136.4745   70.1679  222.7948 H   0  0  0  0  0  0  0  0  0  0  0  0
  135.9695   68.5402  222.1787 H   0  0  0  0  0  0  0  0  0  0  0  0
  135.5530   68.9000  224.2040 N   0  0  0  0  0  0  0  0  0  0  0  0
  134.2780   68.2540  223.8260 C   0  0  0  0  0  0  0  0  0  0  0  0
  133.8152   68.8250  223.0076 H   0  0  0  0  0  0  0  0  0  0  0  0
  134.4909   67.2229  223.5074 H   0  0  0  0  0  0  0  0  0  0  0  0
  133.3030   68.2050  225.0190 C   0  0  0  0  0  0  0  0  0  0  0  0
  132.4643   68.8901  224.8262 H   0  0  0  0  0  0  0  0  0  0  0  0
  132.9401   67.1728  225.1321 H   0  0  0  0  0  0  0  0  0  0  0  0
  133.9470   68.5890  226.2170 O   0  0  0  0  0  0  0  0  0  0  0  0
  134.3680   69.9390  226.1170 C   0  0  0  0  0  0  0  0  0  0  0  0
  133.4799   70.5808  226.0195 H   0  0  0  0  0  0  0  0  0  0  0  0
  134.9401   70.1826  227.0244 H   0  0  0  0  0  0  0  0  0  0  0  0
  135.2870   70.1740  224.9000 C   0  0  0  0  0  0  0  0  0  0  0  0
  134.7970   70.8716  224.2048 H   0  0  0  0  0  0  0  0  0  0  0  0
  136.2408   70.5965  225.2488 H   0  0  0  0  0  0  0  0  0  0  0  0
  139.8560   73.2460  221.6210 C   0  0  0  0  0  0  0  0  0  0  0  0
  139.9580   74.5540  221.9980 N   0  0  0  0  0  0  0  0  0  0  0  0
  141.0240   75.3130  221.6250 C   0  0  0  0  0  0  0  0  0  0  0  0
  141.0853   76.3683  221.9292 H   0  0  0  0  0  0  0  0  0  0  0  0
  142.0420   74.7430  220.8520 C   0  0  0  0  0  0  0  0  0  0  0  0
  142.9278   75.3348  220.5778 H   0  0  0  0  0  0  0  0  0  0  0  0
  141.9270   73.4550  220.4440 N   0  0  0  0  0  0  0  0  0  0  0  0
  140.8510   72.6970  220.8020 C   0  0  0  0  0  0  0  0  0  0  0  0
  140.7649   71.6587  220.4490 H   0  0  0  0  0  0  0  0  0  0  0  0
  1  2  1  0
  2  3  2  0
  3  4  1  0
  3  5  1  0
  5  6  2  0
  6  7  1  0
  7  8  2  0
  8  9  1  0
  8 10  1  0
 10 11  1  0
 10 12  2  0
 12 13  1  0
 12 14  1  0
 14 15  1  0
 14 16  2  0
 16 17  1  0
 17 18  2  0
 17 19  1  0
 19 20  1  0
 20 21  1  0
 20 22  1  0
 20 23  1  0
 23 24  1  0
 23 25  1  0
 23 26  1  0
 26 27  1  0
 27 28  1  0
 27 29  1  0
 27 30  1  0
 30 31  1  0
 30 32  1  0
 30 33  1  0
 33 34  1  0
 34 35  1  0
 34 36  1  0
 34 37  1  0
 37 38  1  0
 37 39  1  0
  2 40  1  0
 40 41  2  0
 41 42  1  0
 42 43  1  0
 42 44  2  0
 44 45  1  0
 44 46  1  0
 46 47  2  0
 47 48  1  0
 19  5  1  0
 37 26  1  0
 47 40  1  0
 16  7  1  0
M  END
>  <UniqueID>  (62) 
509

>  <SMILES>  (62) 
O=c1c2ccccc2nc(/C=C/c2cnccn2)n1CCN1CCOCC1

>  <Energy>  (62) 
79.96797103957768

>  <Genealogy>  (62) 
O=c1c2ccccc2nc(/C=C/c2cnccn2)n1CCN1CCOCC1 (cis-trans isomerization)
O=c1c2ccccc2nc(/C=C/c2cnccn2)n1CCN1CCOCC1 (3D coordinates assigned)
O=c1c2ccccc2nc(/C=C/c2cnccn2)n1CCN1CCOCC1 (nonaromatic ring conformer: 79.96797103957768 kcal/mol)

>  <smiles>  (62) 
O=c1c2ccccc2nc(/C=C/c2cnccn2)n1CCN1CCOCC1

>  <score_type>  (62) 
oracle

>  <origin>  (62) 
autodockgpu

>  <m_score__min__energy>  (62) 
-7.7300000000000004

>  <m_primary>  (62) 
energy

>  <meeko>  (62) 
{"free_energy": -7.69, "intermolecular_energy": -9.48, "internal_energy": -1.21, "cluster_size": 12, "cluster_id": 1, "rank_in_cluster": 2}

>  <energy>  (62) 
-7.69

>  <cluster_rmsd>  (62) 
0.93

>  <rmsd>  (62) 
270.29

>  <cluster>  (62) 
1

$$$$
OQAGMIVLLKVZIV-AATRIKPKNA-N
     RDKit          3D

 48 51  0  0  0  0  0  0  0  0999 V2000
  141.6630   71.5744  221.2468 H   0  0  0  0  0  0  0  0  0  0  0  0
  140.7410   72.0400  221.6250 C   0  0  0  0  0  0  0  0  0  0  0  0
  139.7490   71.2500  222.0560 C   0  0  0  0  0  0  0  0  0  0  0  0
  138.9147   71.0052  221.3822 H   0  0  0  0  0  0  0  0  0  0  0  0
  139.7660   70.7070  223.4230 C   0  0  0  0  0  0  0  0  0  0  0  0
  140.3160   71.4750  224.4000 N   0  0  0  0  0  0  0  0  0  0  0  0
  140.3930   71.0500  225.6820 C   0  0  0  0  0  0  0  0  0  0  0  0
  140.9900   71.8630  226.6560 C   0  0  0  0  0  0  0  0  0  0  0  0
  141.3951   72.8470  226.3773 H   0  0  0  0  0  0  0  0  0  0  0  0
  141.0710   71.4240  227.9820 C   0  0  0  0  0  0  0  0  0  0  0  0
  141.5416   72.0624  228.7443 H   0  0  0  0  0  0  0  0  0  0  0  0
  140.5550   70.1760  228.3390 C   0  0  0  0  0  0  0  0  0  0  0  0
  140.6078   69.8400  229.3851 H   0  0  0  0  0  0  0  0  0  0  0  0
  139.9720   69.3530  227.3720 C   0  0  0  0  0  0  0  0  0  0  0  0
  139.5806   68.3651  227.6564 H   0  0  0  0  0  0  0  0  0  0  0  0
  139.8840   69.7850  226.0330 C   0  0  0  0  0  0  0  0  0  0  0  0
  139.3330   68.9860  225.0130 C   0  0  0  0  0  0  0  0  0  0  0  0
  138.9040   67.8330  225.2910 O   0  0  0  0  0  0  0  0  0  0  0  0
  139.2720   69.4550  223.7190 N   0  0  0  0  0  0  0  0  0  0  0  0
  138.7930   68.5660  222.6340 C   0  0  0  0  0  0  0  0  0  0  0  0
  139.4624   68.6599  221.7662 H   0  0  0  0  0  0  0  0  0  0  0  0
  138.7899   67.5280  222.9981 H   0  0  0  0  0  0  0  0  0  0  0  0
  137.3600   68.9540  222.2150 C   0  0  0  0  0  0  0  0  0  0  0  0
  137.3286   70.0337  222.0072 H   0  0  0  0  0  0  0  0  0  0  0  0
  137.0941   68.3742  221.3188 H   0  0  0  0  0  0  0  0  0  0  0  0
  136.3810   68.6410  223.2760 N   0  0  0  0  0  0  0  0  0  0  0  0
  135.1000   68.1950  222.6890 C   0  0  0  0  0  0  0  0  0  0  0  0
  134.7624   68.9411  221.9546 H   0  0  0  0  0  0  0  0  0  0  0  0
  135.2584   67.2200  222.2050 H   0  0  0  0  0  0  0  0  0  0  0  0
  134.0170   68.0320  223.7760 C   0  0  0  0  0  0  0  0  0  0  0  0
  133.2570   68.8167  223.6468 H   0  0  0  0  0  0  0  0  0  0  0  0
  133.5639   67.0351  223.6720 H   0  0  0  0  0  0  0  0  0  0  0  0
  134.5760   68.1390  225.0690 O   0  0  0  0  0  0  0  0  0  0  0  0
  135.1100   69.4390  225.2480 C   0  0  0  0  0  0  0  0  0  0  0  0
  134.2886   70.1691  225.2003 H   0  0  0  0  0  0  0  0  0  0  0  0
  135.6130   69.4659  226.2259 H   0  0  0  0  0  0  0  0  0  0  0  0
  136.1540   69.7940  224.1680 C   0  0  0  0  0  0  0  0  0  0  0  0
  135.7875   70.6449  223.5749 H   0  0  0  0  0  0  0  0  0  0  0  0
  137.1019   70.0576  224.6599 H   0  0  0  0  0  0  0  0  0  0  0  0
  140.6420   73.5140  221.6390 C   0  0  0  0  0  0  0  0  0  0  0  0
  139.6220   74.1410  222.2940 N   0  0  0  0  0  0  0  0  0  0  0  0
  139.5310   75.4990  222.3180 C   0  0  0  0  0  0  0  0  0  0  0  0
  138.6966   75.9881  222.8419 H   0  0  0  0  0  0  0  0  0  0  0  0
  140.5040   76.2690  221.6730 C   0  0  0  0  0  0  0  0  0  0  0  0
  140.4627   77.3673  221.7187 H   0  0  0  0  0  0  0  0  0  0  0  0
  141.5000   75.6490  220.9900 N   0  0  0  0  0  0  0  0  0  0  0  0
  141.5830   74.2890  220.9490 C   0  0  0  0  0  0  0  0  0  0  0  0
  142.3859   73.8019  220.3762 H   0  0  0  0  0  0  0  0  0  0  0  0
  1  2  1  0
  2  3  2  0
  3  4  1  0
  3  5  1  0
  5  6  2  0
  6  7  1  0
  7  8  2  0
  8  9  1  0
  8 10  1  0
 10 11  1  0
 10 12  2  0
 12 13  1  0
 12 14  1  0
 14 15  1  0
 14 16  2  0
 16 17  1  0
 17 18  2  0
 17 19  1  0
 19 20  1  0
 20 21  1  0
 20 22  1  0
 20 23  1  0
 23 24  1  0
 23 25  1  0
 23 26  1  0
 26 27  1  0
 27 28  1  0
 27 29  1  0
 27 30  1  0
 30 31  1  0
 30 32  1  0
 30 33  1  0
 33 34  1  0
 34 35  1  0
 34 36  1  0
 34 37  1  0
 37 38  1  0
 37 39  1  0
  2 40  1  0
 40 41  2  0
 41 42  1  0
 42 43  1  0
 42 44  2  0
 44 45  1  0
 44 46  1  0
 46 47  2  0
 47 48  1  0
 19  5  1  0
 37 26  1  0
 47 40  1  0
 16  7  1  0
M  END
>  <UniqueID>  (63) 
509

>  <SMILES>  (63) 
O=c1c2ccccc2nc(/C=C/c2cnccn2)n1CCN1CCOCC1

>  <Energy>  (63) 
79.96797103957768

>  <Genealogy>  (63) 
O=c1c2ccccc2nc(/C=C/c2cnccn2)n1CCN1CCOCC1 (cis-trans isomerization)
O=c1c2ccccc2nc(/C=C/c2cnccn2)n1CCN1CCOCC1 (3D coordinates assigned)
O=c1c2ccccc2nc(/C=C/c2cnccn2)n1CCN1CCOCC1 (nonaromatic ring conformer: 79.96797103957768 kcal/mol)

>  <smiles>  (63) 
O=c1c2ccccc2nc(/C=C/c2cnccn2)n1CCN1CCOCC1

>  <score_type>  (63) 
oracle

>  <origin>  (63) 
autodockgpu

>  <m_score__min__energy>  (63) 
-7.7300000000000004

>  <m_primary>  (63) 
energy

>  <meeko>  (63) 
{"free_energy": -7.65, "intermolecular_energy": -9.44, "internal_energy": -1.26, "cluster_size": 12, "cluster_id": 1, "rank_in_cluster": 7}

>  <energy>  (63) 
-7.67

>  <cluster_rmsd>  (63) 
1.07

>  <rmsd>  (63) 
270.35

>  <cluster>  (63) 
1

$$$$
OQAGMIVLLKVZIV-AATRIKPKNA-N
     RDKit          3D

 48 51  0  0  0  0  0  0  0  0999 V2000
  142.3842   80.0001  219.1133 H   0  0  0  0  0  0  0  0  0  0  0  0
  141.8090   79.5360  219.9280 C   0  0  0  0  0  0  0  0  0  0  0  0
  140.9970   78.5100  219.6420 C   0  0  0  0  0  0  0  0  0  0  0  0
  140.0767   78.6867  219.0660 H   0  0  0  0  0  0  0  0  0  0  0  0
  141.3260   77.1490  220.0920 C   0  0  0  0  0  0  0  0  0  0  0  0
  142.5110   76.6200  219.6870 N   0  0  0  0  0  0  0  0  0  0  0  0
  142.8890   75.3680  220.0360 C   0  0  0  0  0  0  0  0  0  0  0  0
  144.1080   74.8500  219.5770 C   0  0  0  0  0  0  0  0  0  0  0  0
  144.7571   75.4615  218.9331 H   0  0  0  0  0  0  0  0  0  0  0  0
  144.5000   73.5560  219.9370 C   0  0  0  0  0  0  0  0  0  0  0  0
  145.4567   73.1511  219.5753 H   0  0  0  0  0  0  0  0  0  0  0  0
  143.6780   72.7780  220.7550 C   0  0  0  0  0  0  0  0  0  0  0  0
  143.9949   71.7657  221.0463 H   0  0  0  0  0  0  0  0  0  0  0  0
  142.4540   73.2810  221.2050 C   0  0  0  0  0  0  0  0  0  0  0  0
  141.8045   72.6585  221.8380 H   0  0  0  0  0  0  0  0  0  0  0  0
  142.0500   74.5830  220.8500 C   0  0  0  0  0  0  0  0  0  0  0  0
  140.8150   75.1300  221.2490 C   0  0  0  0  0  0  0  0  0  0  0  0
  140.0270   74.4360  221.9470 O   0  0  0  0  0  0  0  0  0  0  0  0
  140.4660   76.4090  220.8740 N   0  0  0  0  0  0  0  0  0  0  0  0
  139.1210   76.9340  221.2060 C   0  0  0  0  0  0  0  0  0  0  0  0
  138.9162   77.8220  220.5900 H   0  0  0  0  0  0  0  0  0  0  0  0
  138.3730   76.1533  221.0036 H   0  0  0  0  0  0  0  0  0  0  0  0
  139.0490   77.3220  222.6970 C   0  0  0  0  0  0  0  0  0  0  0  0
  138.4066   76.6005  223.2231 H   0  0  0  0  0  0  0  0  0  0  0  0
  140.0702   77.3093  223.1058 H   0  0  0  0  0  0  0  0  0  0  0  0
  138.4950   78.6790  222.8790 N   0  0  0  0  0  0  0  0  0  0  0  0
  138.3980   79.3830  221.5840 C   0  0  0  0  0  0  0  0  0  0  0  0
  139.3764   79.3482  221.0826 H   0  0  0  0  0  0  0  0  0  0  0  0
  137.6310   78.8843  220.9733 H   0  0  0  0  0  0  0  0  0  0  0  0
  137.9850   80.8560  221.7790 C   0  0  0  0  0  0  0  0  0  0  0  0
  138.8366   81.5049  221.5268 H   0  0  0  0  0  0  0  0  0  0  0  0
  137.1296   81.0704  221.1215 H   0  0  0  0  0  0  0  0  0  0  0  0
  137.5980   81.1000  223.1160 O   0  0  0  0  0  0  0  0  0  0  0  0
  138.7040   80.8910  223.9760 C   0  0  0  0  0  0  0  0  0  0  0  0
  139.4839   81.6286  223.7359 H   0  0  0  0  0  0  0  0  0  0  0  0
  138.3523   81.0035  225.0122 H   0  0  0  0  0  0  0  0  0  0  0  0
  139.2970   79.4750  223.8280 C   0  0  0  0  0  0  0  0  0  0  0  0
  140.3292   79.5513  223.4555 H   0  0  0  0  0  0  0  0  0  0  0  0
  139.2855   78.9785  224.8095 H   0  0  0  0  0  0  0  0  0  0  0  0
  141.9600   80.0670  221.2990 C   0  0  0  0  0  0  0  0  0  0  0  0
  142.4210   79.2750  222.3100 N   0  0  0  0  0  0  0  0  0  0  0  0
  142.5710   79.7610  223.5720 C   0  0  0  0  0  0  0  0  0  0  0  0
  142.9334   79.1056  224.3777 H   0  0  0  0  0  0  0  0  0  0  0  0
  142.2620   81.0980  223.8390 C   0  0  0  0  0  0  0  0  0  0  0  0
  142.4170   81.5128  224.8459 H   0  0  0  0  0  0  0  0  0  0  0  0
  141.7690   81.8800  222.8450 N   0  0  0  0  0  0  0  0  0  0  0  0
  141.6000   81.3900  221.5840 C   0  0  0  0  0  0  0  0  0  0  0  0
  141.1826   82.0312  220.7937 H   0  0  0  0  0  0  0  0  0  0  0  0
  1  2  1  0
  2  3  2  0
  3  4  1  0
  3  5  1  0
  5  6  2  0
  6  7  1  0
  7  8  2  0
  8  9  1  0
  8 10  1  0
 10 11  1  0
 10 12  2  0
 12 13  1  0
 12 14  1  0
 14 15  1  0
 14 16  2  0
 16 17  1  0
 17 18  2  0
 17 19  1  0
 19 20  1  0
 20 21  1  0
 20 22  1  0
 20 23  1  0
 23 24  1  0
 23 25  1  0
 23 26  1  0
 26 27  1  0
 27 28  1  0
 27 29  1  0
 27 30  1  0
 30 31  1  0
 30 32  1  0
 30 33  1  0
 33 34  1  0
 34 35  1  0
 34 36  1  0
 34 37  1  0
 37 38  1  0
 37 39  1  0
  2 40  1  0
 40 41  2  0
 41 42  1  0
 42 43  1  0
 42 44  2  0
 44 45  1  0
 44 46  1  0
 46 47  2  0
 47 48  1  0
 19  5  1  0
 37 26  1  0
 47 40  1  0
 16  7  1  0
M  END
>  <UniqueID>  (64) 
509

>  <SMILES>  (64) 
O=c1c2ccccc2nc(/C=C/c2cnccn2)n1CCN1CCOCC1

>  <Energy>  (64) 
79.96797103957768

>  <Genealogy>  (64) 
O=c1c2ccccc2nc(/C=C/c2cnccn2)n1CCN1CCOCC1 (cis-trans isomerization)
O=c1c2ccccc2nc(/C=C/c2cnccn2)n1CCN1CCOCC1 (3D coordinates assigned)
O=c1c2ccccc2nc(/C=C/c2cnccn2)n1CCN1CCOCC1 (nonaromatic ring conformer: 79.96797103957768 kcal/mol)

>  <smiles>  (64) 
O=c1c2ccccc2nc(/C=C/c2cnccn2)n1CCN1CCOCC1

>  <score_type>  (64) 
oracle

>  <origin>  (64) 
autodockgpu

>  <m_score__min__energy>  (64) 
-7.7300000000000004

>  <m_primary>  (64) 
energy

>  <meeko>  (64) 
{"free_energy": -5.67, "intermolecular_energy": -7.46, "internal_energy": -1.94, "cluster_size": 2, "cluster_id": 4, "rank_in_cluster": 1}

>  <energy>  (64) 
-7.67

>  <cluster_rmsd>  (64) 
0.21

>  <rmsd>  (64) 
270.21

>  <cluster>  (64) 
1

$$$$
OQAGMIVLLKVZIV-AATRIKPKNA-N
     RDKit          3D

 48 51  0  0  0  0  0  0  0  0999 V2000
  137.7342   72.1420  221.6530 H   0  0  0  0  0  0  0  0  0  0  0  0
  138.7830   72.3770  221.8870 C   0  0  0  0  0  0  0  0  0  0  0  0
  139.6320   71.3690  222.1310 C   0  0  0  0  0  0  0  0  0  0  0  0
  140.2699   70.9851  221.3212 H   0  0  0  0  0  0  0  0  0  0  0  0
  139.7180   70.7720  223.4720 C   0  0  0  0  0  0  0  0  0  0  0  0
  140.2520   71.5280  224.4660 N   0  0  0  0  0  0  0  0  0  0  0  0
  140.3880   71.0560  225.7270 C   0  0  0  0  0  0  0  0  0  0  0  0
  140.9670   71.8600  226.7190 C   0  0  0  0  0  0  0  0  0  0  0  0
  141.3092   72.8759  226.4722 H   0  0  0  0  0  0  0  0  0  0  0  0
  141.1100   71.3720  228.0220 C   0  0  0  0  0  0  0  0  0  0  0  0
  141.5661   72.0037  228.7985 H   0  0  0  0  0  0  0  0  0  0  0  0
  140.6740   70.0830  228.3380 C   0  0  0  0  0  0  0  0  0  0  0  0
  140.7753   69.7075  229.3669 H   0  0  0  0  0  0  0  0  0  0  0  0
  140.1100   69.2690  227.3530 C   0  0  0  0  0  0  0  0  0  0  0  0
  139.7821   68.2497  227.6050 H   0  0  0  0  0  0  0  0  0  0  0  0
  139.9600   69.7510  226.0360 C   0  0  0  0  0  0  0  0  0  0  0  0
  139.4260   68.9660  224.9970 C   0  0  0  0  0  0  0  0  0  0  0  0
  139.0690   67.7800  225.2370 O   0  0  0  0  0  0  0  0  0  0  0  0
  139.3020   69.4830  223.7260 N   0  0  0  0  0  0  0  0  0  0  0  0
  138.8430   68.6150  222.6170 C   0  0  0  0  0  0  0  0  0  0  0  0
  139.2436   68.9982  221.6669 H   0  0  0  0  0  0  0  0  0  0  0  0
  139.2030   67.5905  222.7926 H   0  0  0  0  0  0  0  0  0  0  0  0
  137.3020   68.6000  222.5500 C   0  0  0  0  0  0  0  0  0  0  0  0
  136.9900   68.6394  221.4959 H   0  0  0  0  0  0  0  0  0  0  0  0
  136.9454   67.6771  223.0306 H   0  0  0  0  0  0  0  0  0  0  0  0
  136.7160   69.7510  223.2670 N   0  0  0  0  0  0  0  0  0  0  0  0
  135.8240   69.2920  224.3520 C   0  0  0  0  0  0  0  0  0  0  0  0
  135.0907   68.5840  223.9384 H   0  0  0  0  0  0  0  0  0  0  0  0
  136.4375   68.8071  225.1257 H   0  0  0  0  0  0  0  0  0  0  0  0
  135.0730   70.4760  224.9950 C   0  0  0  0  0  0  0  0  0  0  0  0
  134.0062   70.4094  224.7350 H   0  0  0  0  0  0  0  0  0  0  0  0
  135.2073   70.4259  226.0856 H   0  0  0  0  0  0  0  0  0  0  0  0
  135.5850   71.7100  224.5340 O   0  0  0  0  0  0  0  0  0  0  0  0
  135.3640   71.8240  223.1390 C   0  0  0  0  0  0  0  0  0  0  0  0
  134.2801   71.8441  222.9523 H   0  0  0  0  0  0  0  0  0  0  0  0
  135.8462   72.7508  222.7949 H   0  0  0  0  0  0  0  0  0  0  0  0
  135.9820   70.6480  222.3540 C   0  0  0  0  0  0  0  0  0  0  0  0
  135.1800   70.0825  221.8570 H   0  0  0  0  0  0  0  0  0  0  0  0
  136.6823   71.0469  221.6054 H   0  0  0  0  0  0  0  0  0  0  0  0
  139.2050   73.7920  221.9210 C   0  0  0  0  0  0  0  0  0  0  0  0
  140.5270   74.1290  221.9370 N   0  0  0  0  0  0  0  0  0  0  0  0
  140.9220   75.4320  221.9590 C   0  0  0  0  0  0  0  0  0  0  0  0
  141.9921   75.6854  221.9829 H   0  0  0  0  0  0  0  0  0  0  0  0
  139.9590   76.4460  221.9510 C   0  0  0  0  0  0  0  0  0  0  0  0
  140.2654   77.5022  221.9279 H   0  0  0  0  0  0  0  0  0  0  0  0
  138.6430   76.1150  221.9720 N   0  0  0  0  0  0  0  0  0  0  0  0
  138.2450   74.8120  221.9690 C   0  0  0  0  0  0  0  0  0  0  0  0
  137.1745   74.5615  222.0041 H   0  0  0  0  0  0  0  0  0  0  0  0
  1  2  1  0
  2  3  2  0
  3  4  1  0
  3  5  1  0
  5  6  2  0
  6  7  1  0
  7  8  2  0
  8  9  1  0
  8 10  1  0
 10 11  1  0
 10 12  2  0
 12 13  1  0
 12 14  1  0
 14 15  1  0
 14 16  2  0
 16 17  1  0
 17 18  2  0
 17 19  1  0
 19 20  1  0
 20 21  1  0
 20 22  1  0
 20 23  1  0
 23 24  1  0
 23 25  1  0
 23 26  1  0
 26 27  1  0
 27 28  1  0
 27 29  1  0
 27 30  1  0
 30 31  1  0
 30 32  1  0
 30 33  1  0
 33 34  1  0
 34 35  1  0
 34 36  1  0
 34 37  1  0
 37 38  1  0
 37 39  1  0
  2 40  1  0
 40 41  2  0
 41 42  1  0
 42 43  1  0
 42 44  2  0
 44 45  1  0
 44 46  1  0
 46 47  2  0
 47 48  1  0
 19  5  1  0
 37 26  1  0
 47 40  1  0
 16  7  1  0
M  END
>  <UniqueID>  (65) 
509

>  <SMILES>  (65) 
O=c1c2ccccc2nc(/C=C/c2cnccn2)n1CCN1CCOCC1

>  <Energy>  (65) 
79.96797103957768

>  <Genealogy>  (65) 
O=c1c2ccccc2nc(/C=C/c2cnccn2)n1CCN1CCOCC1 (cis-trans isomerization)
O=c1c2ccccc2nc(/C=C/c2cnccn2)n1CCN1CCOCC1 (3D coordinates assigned)
O=c1c2ccccc2nc(/C=C/c2cnccn2)n1CCN1CCOCC1 (nonaromatic ring conformer: 79.96797103957768 kcal/mol)

>  <smiles>  (65) 
O=c1c2ccccc2nc(/C=C/c2cnccn2)n1CCN1CCOCC1

>  <score_type>  (65) 
oracle

>  <origin>  (65) 
autodockgpu

>  <m_score__min__energy>  (65) 
-7.7300000000000004

>  <m_primary>  (65) 
energy

>  <meeko>  (65) 
{"free_energy": -6.89, "intermolecular_energy": -8.68, "internal_energy": -1.71, "cluster_size": 12, "cluster_id": 1, "rank_in_cluster": 12}

>  <energy>  (65) 
-7.65

>  <cluster_rmsd>  (65) 
1.14

>  <rmsd>  (65) 
270.26

>  <cluster>  (65) 
1

$$$$
OQAGMIVLLKVZIV-AATRIKPKNA-N
     RDKit          3D

 48 51  0  0  0  0  0  0  0  0999 V2000
  142.4379   79.8823  219.2743 H   0  0  0  0  0  0  0  0  0  0  0  0
  141.8140   79.4740  220.0830 C   0  0  0  0  0  0  0  0  0  0  0  0
  140.9800   78.4620  219.8080 C   0  0  0  0  0  0  0  0  0  0  0  0
  140.0330   78.6623  219.2854 H   0  0  0  0  0  0  0  0  0  0  0  0
  141.3200   77.0860  220.1990 C   0  0  0  0  0  0  0  0  0  0  0  0
  142.4880   76.5690  219.7350 N   0  0  0  0  0  0  0  0  0  0  0  0
  142.8740   75.3060  220.0280 C   0  0  0  0  0  0  0  0  0  0  0  0
  144.0760   74.8010  219.5090 C   0  0  0  0  0  0  0  0  0  0  0  0
  144.7045   75.4332  218.8645 H   0  0  0  0  0  0  0  0  0  0  0  0
  144.4760   73.4950  219.8100 C   0  0  0  0  0  0  0  0  0  0  0  0
  145.4182   73.1008  219.4014 H   0  0  0  0  0  0  0  0  0  0  0  0
  143.6800   72.6910  220.6290 C   0  0  0  0  0  0  0  0  0  0  0  0
  144.0042   71.6689  220.8743 H   0  0  0  0  0  0  0  0  0  0  0  0
  142.4740   73.1790  221.1380 C   0  0  0  0  0  0  0  0  0  0  0  0
  141.8449   72.5359  221.7709 H   0  0  0  0  0  0  0  0  0  0  0  0
  142.0620   74.4940  220.8420 C   0  0  0  0  0  0  0  0  0  0  0  0
  140.8430   75.0300  221.3030 C   0  0  0  0  0  0  0  0  0  0  0  0
  140.0770   74.3130  222.0030 O   0  0  0  0  0  0  0  0  0  0  0  0
  140.4860   76.3210  220.9840 N   0  0  0  0  0  0  0  0  0  0  0  0
  139.1540   76.8370  221.3810 C   0  0  0  0  0  0  0  0  0  0  0  0
  138.7816   77.5173  220.6010 H   0  0  0  0  0  0  0  0  0  0  0  0
  138.4645   75.9887  221.5032 H   0  0  0  0  0  0  0  0  0  0  0  0
  139.2500   77.6000  222.7170 C   0  0  0  0  0  0  0  0  0  0  0  0
  138.4623   77.2364  223.3932 H   0  0  0  0  0  0  0  0  0  0  0  0
  140.2477   77.4215  223.1444 H   0  0  0  0  0  0  0  0  0  0  0  0
  139.0830   79.0550  222.5250 N   0  0  0  0  0  0  0  0  0  0  0  0
  138.8300   79.7280  223.8160 C   0  0  0  0  0  0  0  0  0  0  0  0
  137.9894   79.2302  224.3215 H   0  0  0  0  0  0  0  0  0  0  0  0
  139.7425   79.6642  224.4269 H   0  0  0  0  0  0  0  0  0  0  0  0
  138.4830   81.2170  223.6100 C   0  0  0  0  0  0  0  0  0  0  0  0
  137.4243   81.3778  223.8617 H   0  0  0  0  0  0  0  0  0  0  0  0
  139.1304   81.8212  224.2626 H   0  0  0  0  0  0  0  0  0  0  0  0
  138.7040   81.6080  222.2700 O   0  0  0  0  0  0  0  0  0  0  0  0
  137.8350   80.8860  221.4150 C   0  0  0  0  0  0  0  0  0  0  0  0
  136.7964   81.1593  221.6528 H   0  0  0  0  0  0  0  0  0  0  0  0
  138.0898   81.1460  220.3770 H   0  0  0  0  0  0  0  0  0  0  0  0
  137.9960   79.3600  221.5740 C   0  0  0  0  0  0  0  0  0  0  0  0
  137.0546   78.9332  221.9502 H   0  0  0  0  0  0  0  0  0  0  0  0
  138.2440   78.9229  220.5955 H   0  0  0  0  0  0  0  0  0  0  0  0
  141.9250   80.0610  221.4350 C   0  0  0  0  0  0  0  0  0  0  0  0
  142.2680   79.2910  222.5070 N   0  0  0  0  0  0  0  0  0  0  0  0
  142.3820   79.8280  223.7520 C   0  0  0  0  0  0  0  0  0  0  0  0
  142.6503   79.1903  224.6072 H   0  0  0  0  0  0  0  0  0  0  0  0
  142.1560   81.1960  223.9380 C   0  0  0  0  0  0  0  0  0  0  0  0
  142.2831   81.6493  224.9322 H   0  0  0  0  0  0  0  0  0  0  0  0
  141.7790   81.9580  222.8820 N   0  0  0  0  0  0  0  0  0  0  0  0
  141.6460   81.4190  221.6370 C   0  0  0  0  0  0  0  0  0  0  0  0
  141.3211   82.0475  220.7947 H   0  0  0  0  0  0  0  0  0  0  0  0
  1  2  1  0
  2  3  2  0
  3  4  1  0
  3  5  1  0
  5  6  2  0
  6  7  1  0
  7  8  2  0
  8  9  1  0
  8 10  1  0
 10 11  1  0
 10 12  2  0
 12 13  1  0
 12 14  1  0
 14 15  1  0
 14 16  2  0
 16 17  1  0
 17 18  2  0
 17 19  1  0
 19 20  1  0
 20 21  1  0
 20 22  1  0
 20 23  1  0
 23 24  1  0
 23 25  1  0
 23 26  1  0
 26 27  1  0
 27 28  1  0
 27 29  1  0
 27 30  1  0
 30 31  1  0
 30 32  1  0
 30 33  1  0
 33 34  1  0
 34 35  1  0
 34 36  1  0
 34 37  1  0
 37 38  1  0
 37 39  1  0
  2 40  1  0
 40 41  2  0
 41 42  1  0
 42 43  1  0
 42 44  2  0
 44 45  1  0
 44 46  1  0
 46 47  2  0
 47 48  1  0
 19  5  1  0
 37 26  1  0
 47 40  1  0
 16  7  1  0
M  END
>  <UniqueID>  (66) 
509

>  <SMILES>  (66) 
O=c1c2ccccc2nc(/C=C/c2cnccn2)n1CCN1CCOCC1

>  <Energy>  (66) 
79.96797103957768

>  <Genealogy>  (66) 
O=c1c2ccccc2nc(/C=C/c2cnccn2)n1CCN1CCOCC1 (cis-trans isomerization)
O=c1c2ccccc2nc(/C=C/c2cnccn2)n1CCN1CCOCC1 (3D coordinates assigned)
O=c1c2ccccc2nc(/C=C/c2cnccn2)n1CCN1CCOCC1 (nonaromatic ring conformer: 79.96797103957768 kcal/mol)

>  <smiles>  (66) 
O=c1c2ccccc2nc(/C=C/c2cnccn2)n1CCN1CCOCC1

>  <score_type>  (66) 
oracle

>  <origin>  (66) 
autodockgpu

>  <m_score__min__energy>  (66) 
-7.7300000000000004

>  <m_primary>  (66) 
energy

>  <meeko>  (66) 
{"free_energy": -5.65, "intermolecular_energy": -7.44, "internal_energy": -2.01, "cluster_size": 2, "cluster_id": 4, "rank_in_cluster": 2}

>  <energy>  (66) 
-7.65

>  <cluster_rmsd>  (66) 
1.07

>  <rmsd>  (66) 
270.37

>  <cluster>  (66) 
1

$$$$
OQAGMIVLLKVZIV-AATRIKPKNA-N
     RDKit          3D

 48 51  0  0  0  0  0  0  0  0999 V2000
  141.2697   72.2136  221.0620 H   0  0  0  0  0  0  0  0  0  0  0  0
  140.3120   72.0540  221.5790 C   0  0  0  0  0  0  0  0  0  0  0  0
  139.9710   70.8090  221.9380 C   0  0  0  0  0  0  0  0  0  0  0  0
  139.7423   70.0613  221.1643 H   0  0  0  0  0  0  0  0  0  0  0  0
  139.9000   70.4340  223.3590 C   0  0  0  0  0  0  0  0  0  0  0  0
  140.4610   71.2800  224.2630 N   0  0  0  0  0  0  0  0  0  0  0  0
  140.4600   71.0090  225.5880 C   0  0  0  0  0  0  0  0  0  0  0  0
  141.0710   71.8960  226.4870 C   0  0  0  0  0  0  0  0  0  0  0  0
  141.5500   72.8131  226.1136 H   0  0  0  0  0  0  0  0  0  0  0  0
  141.0720   71.6160  227.8570 C   0  0  0  0  0  0  0  0  0  0  0  0
  141.5529   72.3123  228.5598 H   0  0  0  0  0  0  0  0  0  0  0  0
  140.4630   70.4530  228.3340 C   0  0  0  0  0  0  0  0  0  0  0  0
  140.4541   70.2424  229.4136 H   0  0  0  0  0  0  0  0  0  0  0  0
  139.8650   69.5560  227.4450 C   0  0  0  0  0  0  0  0  0  0  0  0
  139.3992   68.6350  227.8255 H   0  0  0  0  0  0  0  0  0  0  0  0
  139.8570   69.8280  226.0620 C   0  0  0  0  0  0  0  0  0  0  0  0
  139.2950   68.9470  225.1190 C   0  0  0  0  0  0  0  0  0  0  0  0
  138.7810   67.8640  225.5110 O   0  0  0  0  0  0  0  0  0  0  0  0
  139.3140   69.2600  223.7770 N   0  0  0  0  0  0  0  0  0  0  0  0
  138.8210   68.2770  222.7840 C   0  0  0  0  0  0  0  0  0  0  0  0
  139.5165   68.2418  221.9325 H   0  0  0  0  0  0  0  0  0  0  0  0
  138.7582   67.2879  223.2612 H   0  0  0  0  0  0  0  0  0  0  0  0
  137.4200   68.6800  222.2800 C   0  0  0  0  0  0  0  0  0  0  0  0
  137.4407   69.7365  221.9743 H   0  0  0  0  0  0  0  0  0  0  0  0
  137.1595   68.0309  221.4310 H   0  0  0  0  0  0  0  0  0  0  0  0
  136.3940   68.5040  223.3290 N   0  0  0  0  0  0  0  0  0  0  0  0
  135.1010   68.1070  222.7340 C   0  0  0  0  0  0  0  0  0  0  0  0
  134.8345   68.8238  221.9433 H   0  0  0  0  0  0  0  0  0  0  0  0
  135.2046   67.0935  222.3192 H   0  0  0  0  0  0  0  0  0  0  0  0
  133.9820   68.0890  223.7950 C   0  0  0  0  0  0  0  0  0  0  0  0
  133.2807   68.9119  223.5922 H   0  0  0  0  0  0  0  0  0  0  0  0
  133.4645   67.1198  223.7421 H   0  0  0  0  0  0  0  0  0  0  0  0
  134.5140   68.2450  225.0950 O   0  0  0  0  0  0  0  0  0  0  0  0
  135.1310   69.5150  225.2060 C   0  0  0  0  0  0  0  0  0  0  0  0
  134.3632   70.2936  225.0865 H   0  0  0  0  0  0  0  0  0  0  0  0
  135.6092   69.5729  226.1949 H   0  0  0  0  0  0  0  0  0  0  0  0
  136.2240   69.7270  224.1380 C   0  0  0  0  0  0  0  0  0  0  0  0
  135.9324   70.5593  223.4806 H   0  0  0  0  0  0  0  0  0  0  0  0
  137.1748   69.9588  224.6402 H   0  0  0  0  0  0  0  0  0  0  0  0
  139.4470   73.2200  221.8530 C   0  0  0  0  0  0  0  0  0  0  0  0
  139.9860   74.4500  222.0990 N   0  0  0  0  0  0  0  0  0  0  0  0
  139.1940   75.5290  222.3420 C   0  0  0  0  0  0  0  0  0  0  0  0
  139.6454   76.5107  222.5485 H   0  0  0  0  0  0  0  0  0  0  0  0
  137.8030   75.3840  222.3280 C   0  0  0  0  0  0  0  0  0  0  0  0
  137.1522   76.2568  222.4850 H   0  0  0  0  0  0  0  0  0  0  0  0
  137.2640   74.1570  222.1190 N   0  0  0  0  0  0  0  0  0  0  0  0
  138.0550   73.0700  221.8930 C   0  0  0  0  0  0  0  0  0  0  0  0
  137.6018   72.0790  221.7427 H   0  0  0  0  0  0  0  0  0  0  0  0
  1  2  1  0
  2  3  2  0
  3  4  1  0
  3  5  1  0
  5  6  2  0
  6  7  1  0
  7  8  2  0
  8  9  1  0
  8 10  1  0
 10 11  1  0
 10 12  2  0
 12 13  1  0
 12 14  1  0
 14 15  1  0
 14 16  2  0
 16 17  1  0
 17 18  2  0
 17 19  1  0
 19 20  1  0
 20 21  1  0
 20 22  1  0
 20 23  1  0
 23 24  1  0
 23 25  1  0
 23 26  1  0
 26 27  1  0
 27 28  1  0
 27 29  1  0
 27 30  1  0
 30 31  1  0
 30 32  1  0
 30 33  1  0
 33 34  1  0
 34 35  1  0
 34 36  1  0
 34 37  1  0
 37 38  1  0
 37 39  1  0
  2 40  1  0
 40 41  2  0
 41 42  1  0
 42 43  1  0
 42 44  2  0
 44 45  1  0
 44 46  1  0
 46 47  2  0
 47 48  1  0
 19  5  1  0
 37 26  1  0
 47 40  1  0
 16  7  1  0
M  END
>  <UniqueID>  (67) 
509

>  <SMILES>  (67) 
O=c1c2ccccc2nc(/C=C/c2cnccn2)n1CCN1CCOCC1

>  <Energy>  (67) 
79.96797103957768

>  <Genealogy>  (67) 
O=c1c2ccccc2nc(/C=C/c2cnccn2)n1CCN1CCOCC1 (cis-trans isomerization)
O=c1c2ccccc2nc(/C=C/c2cnccn2)n1CCN1CCOCC1 (3D coordinates assigned)
O=c1c2ccccc2nc(/C=C/c2cnccn2)n1CCN1CCOCC1 (nonaromatic ring conformer: 79.96797103957768 kcal/mol)

>  <smiles>  (67) 
O=c1c2ccccc2nc(/C=C/c2cnccn2)n1CCN1CCOCC1

>  <score_type>  (67) 
oracle

>  <origin>  (67) 
autodockgpu

>  <m_score__min__energy>  (67) 
-7.7300000000000004

>  <m_primary>  (67) 
energy

>  <meeko>  (67) 
{"free_energy": -7.26, "intermolecular_energy": -9.05, "internal_energy": -1.47, "cluster_size": 12, "cluster_id": 1, "rank_in_cluster": 10}

>  <energy>  (67) 
-7.65

>  <cluster_rmsd>  (67) 
0.35

>  <rmsd>  (67) 
270.26

>  <cluster>  (67) 
1

$$$$
OQAGMIVLLKVZIV-AATRIKPKNA-N
     RDKit          3D

 48 51  0  0  0  0  0  0  0  0999 V2000
  140.1878   71.1394  220.9585 H   0  0  0  0  0  0  0  0  0  0  0  0
  139.6630   71.8150  221.6500 C   0  0  0  0  0  0  0  0  0  0  0  0
  138.6930   71.3170  222.4270 C   0  0  0  0  0  0  0  0  0  0  0  0
  137.6505   71.3341  222.0764 H   0  0  0  0  0  0  0  0  0  0  0  0
  139.0100   70.7470  223.7460 C   0  0  0  0  0  0  0  0  0  0  0  0
  139.7890   71.4850  224.5800 N   0  0  0  0  0  0  0  0  0  0  0  0
  140.1480   71.0340  225.8040 C   0  0  0  0  0  0  0  0  0  0  0  0
  140.9730   71.8150  226.6260 C   0  0  0  0  0  0  0  0  0  0  0  0
  141.3283   72.7950  226.2748 H   0  0  0  0  0  0  0  0  0  0  0  0
  141.3450   71.3500  227.8920 C   0  0  0  0  0  0  0  0  0  0  0  0
  141.9928   71.9641  228.5348 H   0  0  0  0  0  0  0  0  0  0  0  0
  140.8940   70.1060  228.3400 C   0  0  0  0  0  0  0  0  0  0  0  0
  141.1781   69.7486  229.3408 H   0  0  0  0  0  0  0  0  0  0  0  0
  140.0840   69.3140  227.5230 C   0  0  0  0  0  0  0  0  0  0  0  0
  139.7435   68.3296  227.8764 H   0  0  0  0  0  0  0  0  0  0  0  0
  139.7020   69.7740  226.2460 C   0  0  0  0  0  0  0  0  0  0  0  0
  138.9120   69.0070  225.3690 C   0  0  0  0  0  0  0  0  0  0  0  0
  138.5290   67.8580  225.7230 O   0  0  0  0  0  0  0  0  0  0  0  0
  138.5660   69.5010  224.1300 N   0  0  0  0  0  0  0  0  0  0  0  0
  137.8290   68.6440  223.1730 C   0  0  0  0  0  0  0  0  0  0  0  0
  138.3420   68.6628  222.2001 H   0  0  0  0  0  0  0  0  0  0  0  0
  137.7985   67.6164  223.5643 H   0  0  0  0  0  0  0  0  0  0  0  0
  136.3850   69.1550  222.9960 C   0  0  0  0  0  0  0  0  0  0  0  0
  136.4106   70.2375  222.8021 H   0  0  0  0  0  0  0  0  0  0  0  0
  135.9300   68.6155  222.1522 H   0  0  0  0  0  0  0  0  0  0  0  0
  135.5680   68.9030  224.2000 N   0  0  0  0  0  0  0  0  0  0  0  0
  134.3140   68.2050  223.8460 C   0  0  0  0  0  0  0  0  0  0  0  0
  133.8024   68.7674  223.0510 H   0  0  0  0  0  0  0  0  0  0  0  0
  134.5649   67.1903  223.5034 H   0  0  0  0  0  0  0  0  0  0  0  0
  133.3760   68.0910  225.0650 C   0  0  0  0  0  0  0  0  0  0  0  0
  132.5014   68.7393  224.9078 H   0  0  0  0  0  0  0  0  0  0  0  0
  133.0638   67.0415  225.1701 H   0  0  0  0  0  0  0  0  0  0  0  0
  134.0360   68.4850  226.2500 O   0  0  0  0  0  0  0  0  0  0  0  0
  134.3910   69.8540  226.1630 C   0  0  0  0  0  0  0  0  0  0  0  0
  133.4720   70.4553  226.1009 H   0  0  0  0  0  0  0  0  0  0  0  0
  134.9759   70.1093  227.0589 H   0  0  0  0  0  0  0  0  0  0  0  0
  135.2640   70.1510  224.9260 C   0  0  0  0  0  0  0  0  0  0  0  0
  134.7237   70.8371  224.2572 H   0  0  0  0  0  0  0  0  0  0  0  0
  136.2072   70.6105  225.2566 H   0  0  0  0  0  0  0  0  0  0  0  0
  140.0540   73.2400  221.6880 C   0  0  0  0  0  0  0  0  0  0  0  0
  139.2650   74.1660  222.3040 N   0  0  0  0  0  0  0  0  0  0  0  0
  139.6250   75.4780  222.3500 C   0  0  0  0  0  0  0  0  0  0  0  0
  138.9724   76.2134  222.8432 H   0  0  0  0  0  0  0  0  0  0  0  0
  140.8290   75.8860  221.7670 C   0  0  0  0  0  0  0  0  0  0  0  0
  141.1487   76.9366  221.8308 H   0  0  0  0  0  0  0  0  0  0  0  0
  141.5990   74.9740  221.1220 N   0  0  0  0  0  0  0  0  0  0  0  0
  141.2320   73.6630  221.0580 C   0  0  0  0  0  0  0  0  0  0  0  0
  141.8578   72.9401  220.5141 H   0  0  0  0  0  0  0  0  0  0  0  0
  1  2  1  0
  2  3  2  0
  3  4  1  0
  3  5  1  0
  5  6  2  0
  6  7  1  0
  7  8  2  0
  8  9  1  0
  8 10  1  0
 10 11  1  0
 10 12  2  0
 12 13  1  0
 12 14  1  0
 14 15  1  0
 14 16  2  0
 16 17  1  0
 17 18  2  0
 17 19  1  0
 19 20  1  0
 20 21  1  0
 20 22  1  0
 20 23  1  0
 23 24  1  0
 23 25  1  0
 23 26  1  0
 26 27  1  0
 27 28  1  0
 27 29  1  0
 27 30  1  0
 30 31  1  0
 30 32  1  0
 30 33  1  0
 33 34  1  0
 34 35  1  0
 34 36  1  0
 34 37  1  0
 37 38  1  0
 37 39  1  0
  2 40  1  0
 40 41  2  0
 41 42  1  0
 42 43  1  0
 42 44  2  0
 44 45  1  0
 44 46  1  0
 46 47  2  0
 47 48  1  0
 19  5  1  0
 37 26  1  0
 47 40  1  0
 16  7  1  0
M  END
>  <UniqueID>  (68) 
509

>  <SMILES>  (68) 
O=c1c2ccccc2nc(/C=C/c2cnccn2)n1CCN1CCOCC1

>  <Energy>  (68) 
79.96797103957768

>  <Genealogy>  (68) 
O=c1c2ccccc2nc(/C=C/c2cnccn2)n1CCN1CCOCC1 (cis-trans isomerization)
O=c1c2ccccc2nc(/C=C/c2cnccn2)n1CCN1CCOCC1 (3D coordinates assigned)
O=c1c2ccccc2nc(/C=C/c2cnccn2)n1CCN1CCOCC1 (nonaromatic ring conformer: 79.96797103957768 kcal/mol)

>  <smiles>  (68) 
O=c1c2ccccc2nc(/C=C/c2cnccn2)n1CCN1CCOCC1

>  <score_type>  (68) 
oracle

>  <origin>  (68) 
autodockgpu

>  <m_score__min__energy>  (68) 
-7.7300000000000004

>  <m_primary>  (68) 
energy

>  <meeko>  (68) 
{"free_energy": -7.6, "intermolecular_energy": -9.39, "internal_energy": -1.21, "cluster_size": 12, "cluster_id": 1, "rank_in_cluster": 8}

>  <energy>  (68) 
-7.6

>  <cluster_rmsd>  (68) 
0.82

>  <rmsd>  (68) 
270.36

>  <cluster>  (68) 
1

$$$$
OQAGMIVLLKVZIV-AATRIKPKNA-N
     RDKit          3D

 48 51  0  0  0  0  0  0  0  0999 V2000
  140.5094   70.3624  222.0770 H   0  0  0  0  0  0  0  0  0  0  0  0
  140.0150   71.1320  222.6880 C   0  0  0  0  0  0  0  0  0  0  0  0
  139.3180   72.0970  222.0720 C   0  0  0  0  0  0  0  0  0  0  0  0
  138.2868   71.9003  221.7433 H   0  0  0  0  0  0  0  0  0  0  0  0
  139.9210   73.4170  221.8320 C   0  0  0  0  0  0  0  0  0  0  0  0
  139.2930   74.5020  222.3560 N   0  0  0  0  0  0  0  0  0  0  0  0
  139.7640   75.7570  222.1710 C   0  0  0  0  0  0  0  0  0  0  0  0
  139.0730   76.8520  222.7080 C   0  0  0  0  0  0  0  0  0  0  0  0
  138.1475   76.6906  223.2802 H   0  0  0  0  0  0  0  0  0  0  0  0
  139.5590   78.1500  222.5170 C   0  0  0  0  0  0  0  0  0  0  0  0
  139.0150   79.0078  222.9391 H   0  0  0  0  0  0  0  0  0  0  0  0
  140.7340   78.3580  221.7910 C   0  0  0  0  0  0  0  0  0  0  0  0
  141.1199   79.3788  221.6532 H   0  0  0  0  0  0  0  0  0  0  0  0
  141.4210   77.2730  221.2390 C   0  0  0  0  0  0  0  0  0  0  0  0
  142.3382   77.4437  220.6562 H   0  0  0  0  0  0  0  0  0  0  0  0
  140.9420   75.9610  221.4270 C   0  0  0  0  0  0  0  0  0  0  0  0
  141.5760   74.8340  220.8700 C   0  0  0  0  0  0  0  0  0  0  0  0
  142.6120   74.9910  220.1660 O   0  0  0  0  0  0  0  0  0  0  0  0
  141.0660   73.5730  221.0820 N   0  0  0  0  0  0  0  0  0  0  0  0
  141.6770   72.4060  220.4020 C   0  0  0  0  0  0  0  0  0  0  0  0
  140.9476   71.5833  220.3683 H   0  0  0  0  0  0  0  0  0  0  0  0
  141.9647   72.6981  219.3812 H   0  0  0  0  0  0  0  0  0  0  0  0
  142.9350   71.9390  221.1620 C   0  0  0  0  0  0  0  0  0  0  0  0
  142.9965   72.4806  222.1175 H   0  0  0  0  0  0  0  0  0  0  0  0
  142.8532   70.8549  221.3296 H   0  0  0  0  0  0  0  0  0  0  0  0
  144.1650   72.1950  220.3860 N   0  0  0  0  0  0  0  0  0  0  0  0
  145.0410   73.1520  221.0940 C   0  0  0  0  0  0  0  0  0  0  0  0
  144.4599   74.0510  221.3472 H   0  0  0  0  0  0  0  0  0  0  0  0
  145.4221   72.6676  222.0051 H   0  0  0  0  0  0  0  0  0  0  0  0
  146.2430   73.5600  220.2180 C   0  0  0  0  0  0  0  0  0  0  0  0
  146.1309   74.6134  219.9218 H   0  0  0  0  0  0  0  0  0  0  0  0
  147.1650   73.4192  220.8012 H   0  0  0  0  0  0  0  0  0  0  0  0
  146.3190   72.7590  219.0560 O   0  0  0  0  0  0  0  0  0  0  0  0
  145.1690   72.9730  218.2570 C   0  0  0  0  0  0  0  0  0  0  0  0
  145.1632   74.0192  217.9173 H   0  0  0  0  0  0  0  0  0  0  0  0
  145.2138   72.2767  217.4067 H   0  0  0  0  0  0  0  0  0  0  0  0
  143.8630   72.6940  219.0300 C   0  0  0  0  0  0  0  0  0  0  0  0
  143.2816   73.6246  219.1072 H   0  0  0  0  0  0  0  0  0  0  0  0
  143.2841   71.9308  218.4893 H   0  0  0  0  0  0  0  0  0  0  0  0
  140.1430   71.0650  224.1580 C   0  0  0  0  0  0  0  0  0  0  0  0
  140.9690   71.9180  224.8300 N   0  0  0  0  0  0  0  0  0  0  0  0
  141.0830   71.8660  226.1850 C   0  0  0  0  0  0  0  0  0  0  0  0
  141.7610   72.5553  226.7096 H   0  0  0  0  0  0  0  0  0  0  0  0
  140.3340   70.9320  226.9070 C   0  0  0  0  0  0  0  0  0  0  0  0
  140.3890   70.9062  228.0053 H   0  0  0  0  0  0  0  0  0  0  0  0
  139.5390   70.0580  226.2410 N   0  0  0  0  0  0  0  0  0  0  0  0
  139.4360   70.0950  224.8820 C   0  0  0  0  0  0  0  0  0  0  0  0
  138.8010   69.3669  224.3561 H   0  0  0  0  0  0  0  0  0  0  0  0
  1  2  1  0
  2  3  2  0
  3  4  1  0
  3  5  1  0
  5  6  2  0
  6  7  1  0
  7  8  2  0
  8  9  1  0
  8 10  1  0
 10 11  1  0
 10 12  2  0
 12 13  1  0
 12 14  1  0
 14 15  1  0
 14 16  2  0
 16 17  1  0
 17 18  2  0
 17 19  1  0
 19 20  1  0
 20 21  1  0
 20 22  1  0
 20 23  1  0
 23 24  1  0
 23 25  1  0
 23 26  1  0
 26 27  1  0
 27 28  1  0
 27 29  1  0
 27 30  1  0
 30 31  1  0
 30 32  1  0
 30 33  1  0
 33 34  1  0
 34 35  1  0
 34 36  1  0
 34 37  1  0
 37 38  1  0
 37 39  1  0
  2 40  1  0
 40 41  2  0
 41 42  1  0
 42 43  1  0
 42 44  2  0
 44 45  1  0
 44 46  1  0
 46 47  2  0
 47 48  1  0
 19  5  1  0
 37 26  1  0
 47 40  1  0
 16  7  1  0
M  END
>  <UniqueID>  (69) 
509

>  <SMILES>  (69) 
O=c1c2ccccc2nc(/C=C/c2cnccn2)n1CCN1CCOCC1

>  <Energy>  (69) 
79.96797103957768

>  <Genealogy>  (69) 
O=c1c2ccccc2nc(/C=C/c2cnccn2)n1CCN1CCOCC1 (cis-trans isomerization)
O=c1c2ccccc2nc(/C=C/c2cnccn2)n1CCN1CCOCC1 (3D coordinates assigned)
O=c1c2ccccc2nc(/C=C/c2cnccn2)n1CCN1CCOCC1 (nonaromatic ring conformer: 79.96797103957768 kcal/mol)

>  <smiles>  (69) 
O=c1c2ccccc2nc(/C=C/c2cnccn2)n1CCN1CCOCC1

>  <score_type>  (69) 
oracle

>  <origin>  (69) 
autodockgpu

>  <m_score__min__energy>  (69) 
-7.7300000000000004

>  <m_primary>  (69) 
energy

>  <meeko>  (69) 
{"free_energy": -6.61, "intermolecular_energy": -8.4, "internal_energy": -1.21, "cluster_size": 1, "cluster_id": 3, "rank_in_cluster": 1}

>  <energy>  (69) 
-7.37

>  <cluster_rmsd>  (69) 
0.9

>  <rmsd>  (69) 
270.12

>  <cluster>  (69) 
1

$$$$
OQAGMIVLLKVZIV-AATRIKPKNA-N
     RDKit          3D

 48 51  0  0  0  0  0  0  0  0999 V2000
  141.2851   71.1641  221.0836 H   0  0  0  0  0  0  0  0  0  0  0  0
  140.5600   71.8540  221.5400 C   0  0  0  0  0  0  0  0  0  0  0  0
  139.5000   71.3450  222.1820 C   0  0  0  0  0  0  0  0  0  0  0  0
  138.5075   71.3785  221.7088 H   0  0  0  0  0  0  0  0  0  0  0  0
  139.6530   70.7420  223.5140 C   0  0  0  0  0  0  0  0  0  0  0  0
  140.1970   71.5080  224.4960 N   0  0  0  0  0  0  0  0  0  0  0  0
  140.3930   71.0320  225.7460 C   0  0  0  0  0  0  0  0  0  0  0  0
  140.9810   71.8480  226.7240 C   0  0  0  0  0  0  0  0  0  0  0  0
  141.2821   72.8759  226.4733 H   0  0  0  0  0  0  0  0  0  0  0  0
  141.1850   71.3560  228.0180 C   0  0  0  0  0  0  0  0  0  0  0  0
  141.6475   71.9970  228.7830 H   0  0  0  0  0  0  0  0  0  0  0  0
  140.8020   70.0520  228.3390 C   0  0  0  0  0  0  0  0  0  0  0  0
  140.9510   69.6732  229.3609 H   0  0  0  0  0  0  0  0  0  0  0  0
  140.2300   69.2260  227.3670 C   0  0  0  0  0  0  0  0  0  0  0  0
  139.9441   68.1949  227.6219 H   0  0  0  0  0  0  0  0  0  0  0  0
  140.0190   69.7120  226.0610 C   0  0  0  0  0  0  0  0  0  0  0  0
  139.4740   68.9170  225.0350 C   0  0  0  0  0  0  0  0  0  0  0  0
  139.1640   67.7180  225.2780 O   0  0  0  0  0  0  0  0  0  0  0  0
  139.2890   69.4390  223.7740 N   0  0  0  0  0  0  0  0  0  0  0  0
  138.8180   68.5630  222.6740 C   0  0  0  0  0  0  0  0  0  0  0  0
  139.5065   68.6509  221.8206 H   0  0  0  0  0  0  0  0  0  0  0  0
  138.7910   67.5234  223.0325 H   0  0  0  0  0  0  0  0  0  0  0  0
  137.4010   68.9750  222.2280 C   0  0  0  0  0  0  0  0  0  0  0  0
  137.3859   70.0594  222.0439 H   0  0  0  0  0  0  0  0  0  0  0  0
  137.1527   68.4177  221.3127 H   0  0  0  0  0  0  0  0  0  0  0  0
  136.3910   68.6490  223.2560 N   0  0  0  0  0  0  0  0  0  0  0  0
  135.1080   68.2710  222.6270 C   0  0  0  0  0  0  0  0  0  0  0  0
  134.8086   69.0591  221.9205 H   0  0  0  0  0  0  0  0  0  0  0  0
  135.2449   67.3133  222.1035 H   0  0  0  0  0  0  0  0  0  0  0  0
  134.0000   68.0960  223.6850 C   0  0  0  0  0  0  0  0  0  0  0  0
  133.2671   68.9090  223.5758 H   0  0  0  0  0  0  0  0  0  0  0  0
  133.5190   67.1190  223.5295 H   0  0  0  0  0  0  0  0  0  0  0  0
  134.5360   68.1300  224.9920 O   0  0  0  0  0  0  0  0  0  0  0  0
  135.1080   69.4030  225.2370 C   0  0  0  0  0  0  0  0  0  0  0  0
  134.3117   70.1612  225.2054 H   0  0  0  0  0  0  0  0  0  0  0  0
  135.5918   69.3714  226.2244 H   0  0  0  0  0  0  0  0  0  0  0  0
  136.1840   69.7690  224.1940 C   0  0  0  0  0  0  0  0  0  0  0  0
  135.8577   70.6568  223.6325 H   0  0  0  0  0  0  0  0  0  0  0  0
  137.1300   69.9786  224.7148 H   0  0  0  0  0  0  0  0  0  0  0  0
  140.7900   73.3090  221.4230 C   0  0  0  0  0  0  0  0  0  0  0  0
  139.9440   74.2020  222.0120 N   0  0  0  0  0  0  0  0  0  0  0  0
  140.1570   75.5430  221.9150 C   0  0  0  0  0  0  0  0  0  0  0  0
  139.4592   76.2495  222.3882 H   0  0  0  0  0  0  0  0  0  0  0  0
  141.2670   76.0170  221.2110 C   0  0  0  0  0  0  0  0  0  0  0  0
  141.4710   77.0967  221.1592 H   0  0  0  0  0  0  0  0  0  0  0  0
  142.0910   75.1350  220.5920 N   0  0  0  0  0  0  0  0  0  0  0  0
  141.8700   73.7920  220.6720 C   0  0  0  0  0  0  0  0  0  0  0  0
  142.5367   73.0905  220.1492 H   0  0  0  0  0  0  0  0  0  0  0  0
  1  2  1  0
  2  3  2  0
  3  4  1  0
  3  5  1  0
  5  6  2  0
  6  7  1  0
  7  8  2  0
  8  9  1  0
  8 10  1  0
 10 11  1  0
 10 12  2  0
 12 13  1  0
 12 14  1  0
 14 15  1  0
 14 16  2  0
 16 17  1  0
 17 18  2  0
 17 19  1  0
 19 20  1  0
 20 21  1  0
 20 22  1  0
 20 23  1  0
 23 24  1  0
 23 25  1  0
 23 26  1  0
 26 27  1  0
 27 28  1  0
 27 29  1  0
 27 30  1  0
 30 31  1  0
 30 32  1  0
 30 33  1  0
 33 34  1  0
 34 35  1  0
 34 36  1  0
 34 37  1  0
 37 38  1  0
 37 39  1  0
  2 40  1  0
 40 41  2  0
 41 42  1  0
 42 43  1  0
 42 44  2  0
 44 45  1  0
 44 46  1  0
 46 47  2  0
 47 48  1  0
 19  5  1  0
 37 26  1  0
 47 40  1  0
 16  7  1  0
M  END
>  <UniqueID>  (70) 
509

>  <SMILES>  (70) 
O=c1c2ccccc2nc(/C=C/c2cnccn2)n1CCN1CCOCC1

>  <Energy>  (70) 
79.96797103957768

>  <Genealogy>  (70) 
O=c1c2ccccc2nc(/C=C/c2cnccn2)n1CCN1CCOCC1 (cis-trans isomerization)
O=c1c2ccccc2nc(/C=C/c2cnccn2)n1CCN1CCOCC1 (3D coordinates assigned)
O=c1c2ccccc2nc(/C=C/c2cnccn2)n1CCN1CCOCC1 (nonaromatic ring conformer: 79.96797103957768 kcal/mol)

>  <smiles>  (70) 
O=c1c2ccccc2nc(/C=C/c2cnccn2)n1CCN1CCOCC1

>  <score_type>  (70) 
oracle

>  <origin>  (70) 
autodockgpu

>  <m_score__min__energy>  (70) 
-7.7300000000000004

>  <m_primary>  (70) 
energy

>  <meeko>  (70) 
{"free_energy": -7.73, "intermolecular_energy": -9.52, "internal_energy": -1.18, "cluster_size": 12, "cluster_id": 1, "rank_in_cluster": 1}

>  <energy>  (70) 
-7.26

>  <cluster_rmsd>  (70) 
0.99

>  <rmsd>  (70) 
270.09

>  <cluster>  (70) 
1

$$$$
OQAGMIVLLKVZIV-AATRIKPKNA-N
     RDKit          3D

 48 51  0  0  0  0  0  0  0  0999 V2000
  136.0602   68.1062  221.9085 H   0  0  0  0  0  0  0  0  0  0  0  0
  136.6120   68.5430  222.7540 C   0  0  0  0  0  0  0  0  0  0  0  0
  137.9480   68.4430  222.7740 C   0  0  0  0  0  0  0  0  0  0  0  0
  138.4711   67.9523  221.9400 H   0  0  0  0  0  0  0  0  0  0  0  0
  138.7200   68.9840  223.9020 C   0  0  0  0  0  0  0  0  0  0  0  0
  138.8850   68.1900  224.9930 N   0  0  0  0  0  0  0  0  0  0  0  0
  139.5640   68.6100  226.0850 C   0  0  0  0  0  0  0  0  0  0  0  0
  139.6910   67.7690  227.2000 C   0  0  0  0  0  0  0  0  0  0  0  0
  139.2386   66.7664  227.1859 H   0  0  0  0  0  0  0  0  0  0  0  0
  140.3920   68.2030  228.3300 C   0  0  0  0  0  0  0  0  0  0  0  0
  140.4880   67.5425  229.2044 H   0  0  0  0  0  0  0  0  0  0  0  0
  140.9700   69.4740  228.3490 C   0  0  0  0  0  0  0  0  0  0  0  0
  141.5325   69.8066  229.2339 H   0  0  0  0  0  0  0  0  0  0  0  0
  140.8370   70.3250  227.2490 C   0  0  0  0  0  0  0  0  0  0  0  0
  141.2824   71.3304  227.2760 H   0  0  0  0  0  0  0  0  0  0  0  0
  140.1330   69.8980  226.1040 C   0  0  0  0  0  0  0  0  0  0  0  0
  139.9420   70.7230  224.9790 C   0  0  0  0  0  0  0  0  0  0  0  0
  140.4070   71.8950  224.9840 O   0  0  0  0  0  0  0  0  0  0  0  0
  139.2450   70.2580  223.8860 N   0  0  0  0  0  0  0  0  0  0  0  0
  138.9550   71.1690  222.7540 C   0  0  0  0  0  0  0  0  0  0  0  0
  138.4122   70.6159  221.9733 H   0  0  0  0  0  0  0  0  0  0  0  0
  138.3426   72.0072  223.1179 H   0  0  0  0  0  0  0  0  0  0  0  0
  140.2660   71.7260  222.1640 C   0  0  0  0  0  0  0  0  0  0  0  0
  141.1155   71.3074  222.7237 H   0  0  0  0  0  0  0  0  0  0  0  0
  140.3148   71.4394  221.1031 H   0  0  0  0  0  0  0  0  0  0  0  0
  140.3170   73.2000  222.2470 N   0  0  0  0  0  0  0  0  0  0  0  0
  138.9870   73.7850  221.9760 C   0  0  0  0  0  0  0  0  0  0  0  0
  138.6087   73.3896  221.0218 H   0  0  0  0  0  0  0  0  0  0  0  0
  138.3126   73.5151  222.8021 H   0  0  0  0  0  0  0  0  0  0  0  0
  139.0620   75.3230  221.8890 C   0  0  0  0  0  0  0  0  0  0  0  0
  138.8832   75.6335  220.8490 H   0  0  0  0  0  0  0  0  0  0  0  0
  138.2977   75.7491  222.5556 H   0  0  0  0  0  0  0  0  0  0  0  0
  140.3300   75.7930  222.3000 O   0  0  0  0  0  0  0  0  0  0  0  0
  141.3250   75.3060  221.4160 C   0  0  0  0  0  0  0  0  0  0  0  0
  141.1449   75.7244  220.4148 H   0  0  0  0  0  0  0  0  0  0  0  0
  142.3054   75.6142  221.8082 H   0  0  0  0  0  0  0  0  0  0  0  0
  141.3160   73.7660  221.3200 C   0  0  0  0  0  0  0  0  0  0  0  0
  141.0657   73.4682  220.2911 H   0  0  0  0  0  0  0  0  0  0  0  0
  142.3116   73.3851  221.5914 H   0  0  0  0  0  0  0  0  0  0  0  0
  135.8530   69.2190  223.8270 C   0  0  0  0  0  0  0  0  0  0  0  0
  135.0730   68.5060  224.6900 N   0  0  0  0  0  0  0  0  0  0  0  0
  134.3800   69.1230  225.6860 C   0  0  0  0  0  0  0  0  0  0  0  0
  133.7488   68.5339  226.3676 H   0  0  0  0  0  0  0  0  0  0  0  0
  134.4750   70.5100  225.8380 C   0  0  0  0  0  0  0  0  0  0  0  0
  133.9502   71.0151  226.6623 H   0  0  0  0  0  0  0  0  0  0  0  0
  135.2200   71.2270  224.9600 N   0  0  0  0  0  0  0  0  0  0  0  0
  135.9010   70.6140  223.9500 C   0  0  0  0  0  0  0  0  0  0  0  0
  136.4853   71.2119  223.2351 H   0  0  0  0  0  0  0  0  0  0  0  0
  1  2  1  0
  2  3  2  0
  3  4  1  0
  3  5  1  0
  5  6  2  0
  6  7  1  0
  7  8  2  0
  8  9  1  0
  8 10  1  0
 10 11  1  0
 10 12  2  0
 12 13  1  0
 12 14  1  0
 14 15  1  0
 14 16  2  0
 16 17  1  0
 17 18  2  0
 17 19  1  0
 19 20  1  0
 20 21  1  0
 20 22  1  0
 20 23  1  0
 23 24  1  0
 23 25  1  0
 23 26  1  0
 26 27  1  0
 27 28  1  0
 27 29  1  0
 27 30  1  0
 30 31  1  0
 30 32  1  0
 30 33  1  0
 33 34  1  0
 34 35  1  0
 34 36  1  0
 34 37  1  0
 37 38  1  0
 37 39  1  0
  2 40  1  0
 40 41  2  0
 41 42  1  0
 42 43  1  0
 42 44  2  0
 44 45  1  0
 44 46  1  0
 46 47  2  0
 47 48  1  0
 19  5  1  0
 37 26  1  0
 47 40  1  0
 16  7  1  0
M  END
>  <UniqueID>  (71) 
509

>  <SMILES>  (71) 
O=c1c2ccccc2nc(/C=C/c2cnccn2)n1CCN1CCOCC1

>  <Energy>  (71) 
79.96797103957768

>  <Genealogy>  (71) 
O=c1c2ccccc2nc(/C=C/c2cnccn2)n1CCN1CCOCC1 (cis-trans isomerization)
O=c1c2ccccc2nc(/C=C/c2cnccn2)n1CCN1CCOCC1 (3D coordinates assigned)
O=c1c2ccccc2nc(/C=C/c2cnccn2)n1CCN1CCOCC1 (nonaromatic ring conformer: 79.96797103957768 kcal/mol)

>  <smiles>  (71) 
O=c1c2ccccc2nc(/C=C/c2cnccn2)n1CCN1CCOCC1

>  <score_type>  (71) 
oracle

>  <origin>  (71) 
autodockgpu

>  <m_score__min__energy>  (71) 
-7.7300000000000004

>  <m_primary>  (71) 
energy

>  <meeko>  (71) 
{"free_energy": -7.42, "intermolecular_energy": -9.21, "internal_energy": -1.29, "cluster_size": 5, "cluster_id": 2, "rank_in_cluster": 4}

>  <energy>  (71) 
-6.89

>  <cluster_rmsd>  (71) 
1.22

>  <rmsd>  (71) 
270.45

>  <cluster>  (71) 
1

$$$$
OQAGMIVLLKVZIV-AATRIKPKNA-N
     RDKit          3D

 48 51  0  0  0  0  0  0  0  0999 V2000
  139.3127   71.2161  221.0834 H   0  0  0  0  0  0  0  0  0  0  0  0
  138.9250   71.8570  221.8890 C   0  0  0  0  0  0  0  0  0  0  0  0
  138.1020   71.3220  222.8000 C   0  0  0  0  0  0  0  0  0  0  0  0
  137.0149   71.3454  222.6335 H   0  0  0  0  0  0  0  0  0  0  0  0
  138.6400   70.7030  224.0220 C   0  0  0  0  0  0  0  0  0  0  0  0
  139.3810   71.4850  224.8500 N   0  0  0  0  0  0  0  0  0  0  0  0
  139.9320   70.9980  225.9860 C   0  0  0  0  0  0  0  0  0  0  0  0
  140.7110   71.8310  226.8020 C   0  0  0  0  0  0  0  0  0  0  0  0
  140.8733   72.8813  226.5182 H   0  0  0  0  0  0  0  0  0  0  0  0
  141.2820   71.3290  227.9760 C   0  0  0  0  0  0  0  0  0  0  0  0
  141.8936   71.9842  228.6137 H   0  0  0  0  0  0  0  0  0  0  0  0
  141.0760   69.9960  228.3390 C   0  0  0  0  0  0  0  0  0  0  0  0
  141.5155   69.6075  229.2696 H   0  0  0  0  0  0  0  0  0  0  0  0
  140.3140   69.1540  227.5250 C   0  0  0  0  0  0  0  0  0  0  0  0
  140.1670   68.1016  227.8094 H   0  0  0  0  0  0  0  0  0  0  0  0
  139.7330   69.6500  226.3400 C   0  0  0  0  0  0  0  0  0  0  0  0
  138.9800   68.8410  225.4670 C   0  0  0  0  0  0  0  0  0  0  0  0
  138.8170   67.6200  225.7400 O   0  0  0  0  0  0  0  0  0  0  0  0
  138.4340   69.3740  224.3200 N   0  0  0  0  0  0  0  0  0  0  0  0
  137.7390   68.4910  223.3550 C   0  0  0  0  0  0  0  0  0  0  0  0
  138.2818   68.5008  222.3983 H   0  0  0  0  0  0  0  0  0  0  0  0
  137.7101   67.4694  223.7619 H   0  0  0  0  0  0  0  0  0  0  0  0
  136.2940   68.9800  223.1250 C   0  0  0  0  0  0  0  0  0  0  0  0
  136.3193   70.0343  222.8124 H   0  0  0  0  0  0  0  0  0  0  0  0
  135.8372   68.3508  222.3469 H   0  0  0  0  0  0  0  0  0  0  0  0
  135.4800   68.8630  224.3510 N   0  0  0  0  0  0  0  0  0  0  0  0
  134.1860   68.2120  224.0600 C   0  0  0  0  0  0  0  0  0  0  0  0
  133.6963   68.7421  223.2298 H   0  0  0  0  0  0  0  0  0  0  0  0
  134.3767   67.1625  223.7913 H   0  0  0  0  0  0  0  0  0  0  0  0
  133.2580   68.2400  225.2920 C   0  0  0  0  0  0  0  0  0  0  0  0
  132.4175   68.9213  225.0938 H   0  0  0  0  0  0  0  0  0  0  0  0
  132.8915   67.2196  225.4779 H   0  0  0  0  0  0  0  0  0  0  0  0
  133.9530   68.6850  226.4400 O   0  0  0  0  0  0  0  0  0  0  0  0
  134.3810   70.0220  226.2470 C   0  0  0  0  0  0  0  0  0  0  0  0
  133.4954   70.6669  226.1479 H   0  0  0  0  0  0  0  0  0  0  0  0
  134.9906   70.3108  227.1159 H   0  0  0  0  0  0  0  0  0  0  0  0
  135.2530   70.1770  224.9830 C   0  0  0  0  0  0  0  0  0  0  0  0
  134.7418   70.8393  224.2689 H   0  0  0  0  0  0  0  0  0  0  0  0
  136.2237   70.6079  225.2695 H   0  0  0  0  0  0  0  0  0  0  0  0
  139.3310   73.2770  221.9270 C   0  0  0  0  0  0  0  0  0  0  0  0
  138.3980   74.2720  221.9610 N   0  0  0  0  0  0  0  0  0  0  0  0
  138.7660   75.5810  222.0050 C   0  0  0  0  0  0  0  0  0  0  0  0
  138.0003   76.3706  222.0200 H   0  0  0  0  0  0  0  0  0  0  0  0
  140.1230   75.9170  222.0310 C   0  0  0  0  0  0  0  0  0  0  0  0
  140.4328   76.9697  222.1075 H   0  0  0  0  0  0  0  0  0  0  0  0
  141.0540   74.9330  221.9610 N   0  0  0  0  0  0  0  0  0  0  0  0
  140.6890   73.6220  221.8970 C   0  0  0  0  0  0  0  0  0  0  0  0
  141.4567   72.8378  221.8221 H   0  0  0  0  0  0  0  0  0  0  0  0
  1  2  1  0
  2  3  2  0
  3  4  1  0
  3  5  1  0
  5  6  2  0
  6  7  1  0
  7  8  2  0
  8  9  1  0
  8 10  1  0
 10 11  1  0
 10 12  2  0
 12 13  1  0
 12 14  1  0
 14 15  1  0
 14 16  2  0
 16 17  1  0
 17 18  2  0
 17 19  1  0
 19 20  1  0
 20 21  1  0
 20 22  1  0
 20 23  1  0
 23 24  1  0
 23 25  1  0
 23 26  1  0
 26 27  1  0
 27 28  1  0
 27 29  1  0
 27 30  1  0
 30 31  1  0
 30 32  1  0
 30 33  1  0
 33 34  1  0
 34 35  1  0
 34 36  1  0
 34 37  1  0
 37 38  1  0
 37 39  1  0
  2 40  1  0
 40 41  2  0
 41 42  1  0
 42 43  1  0
 42 44  2  0
 44 45  1  0
 44 46  1  0
 46 47  2  0
 47 48  1  0
 19  5  1  0
 37 26  1  0
 47 40  1  0
 16  7  1  0
M  END
>  <UniqueID>  (72) 
509

>  <SMILES>  (72) 
O=c1c2ccccc2nc(/C=C/c2cnccn2)n1CCN1CCOCC1

>  <Energy>  (72) 
79.96797103957768

>  <Genealogy>  (72) 
O=c1c2ccccc2nc(/C=C/c2cnccn2)n1CCN1CCOCC1 (cis-trans isomerization)
O=c1c2ccccc2nc(/C=C/c2cnccn2)n1CCN1CCOCC1 (3D coordinates assigned)
O=c1c2ccccc2nc(/C=C/c2cnccn2)n1CCN1CCOCC1 (nonaromatic ring conformer: 79.96797103957768 kcal/mol)

>  <smiles>  (72) 
O=c1c2ccccc2nc(/C=C/c2cnccn2)n1CCN1CCOCC1

>  <score_type>  (72) 
oracle

>  <origin>  (72) 
autodockgpu

>  <m_score__min__energy>  (72) 
-7.7300000000000004

>  <m_primary>  (72) 
energy

>  <meeko>  (72) 
{"free_energy": -7.65, "intermolecular_energy": -9.44, "internal_energy": -1.13, "cluster_size": 12, "cluster_id": 1, "rank_in_cluster": 6}

>  <energy>  (72) 
-6.89

>  <cluster_rmsd>  (72) 
1.27

>  <rmsd>  (72) 
270.34

>  <cluster>  (72) 
1

$$$$
OQAGMIVLLKVZIV-AATRIKPKNA-N
     RDKit          3D

 48 51  0  0  0  0  0  0  0  0999 V2000
  136.0016   67.9736  221.9906 H   0  0  0  0  0  0  0  0  0  0  0  0
  136.5560   68.4760  222.7970 C   0  0  0  0  0  0  0  0  0  0  0  0
  137.8950   68.4190  222.7930 C   0  0  0  0  0  0  0  0  0  0  0  0
  138.4192   67.9567  221.9436 H   0  0  0  0  0  0  0  0  0  0  0  0
  138.6690   68.9700  223.9160 C   0  0  0  0  0  0  0  0  0  0  0  0
  138.8550   68.1770  225.0030 N   0  0  0  0  0  0  0  0  0  0  0  0
  139.5370   68.6050  226.0900 C   0  0  0  0  0  0  0  0  0  0  0  0
  139.6870   67.7640  227.2020 C   0  0  0  0  0  0  0  0  0  0  0  0
  139.2501   66.7546  227.1896 H   0  0  0  0  0  0  0  0  0  0  0  0
  140.3910   68.2060  228.3270 C   0  0  0  0  0  0  0  0  0  0  0  0
  140.5054   67.5449  229.1987 H   0  0  0  0  0  0  0  0  0  0  0  0
  140.9490   69.4870  228.3440 C   0  0  0  0  0  0  0  0  0  0  0  0
  141.5131   69.8275  229.2249 H   0  0  0  0  0  0  0  0  0  0  0  0
  140.7930   70.3370  227.2460 C   0  0  0  0  0  0  0  0  0  0  0  0
  141.2234   71.3490  227.2707 H   0  0  0  0  0  0  0  0  0  0  0  0
  140.0860   69.9020  226.1070 C   0  0  0  0  0  0  0  0  0  0  0  0
  139.8720   70.7260  224.9860 C   0  0  0  0  0  0  0  0  0  0  0  0
  140.3200   71.9050  224.9890 O   0  0  0  0  0  0  0  0  0  0  0  0
  139.1730   70.2520  223.8970 N   0  0  0  0  0  0  0  0  0  0  0  0
  138.8590   71.1610  222.7700 C   0  0  0  0  0  0  0  0  0  0  0  0
  138.3659   70.5896  221.9698 H   0  0  0  0  0  0  0  0  0  0  0  0
  138.1928   71.9590  223.1297 H   0  0  0  0  0  0  0  0  0  0  0  0
  140.1510   71.7980  222.2180 C   0  0  0  0  0  0  0  0  0  0  0  0
  141.0084   71.4257  222.7979 H   0  0  0  0  0  0  0  0  0  0  0  0
  140.2441   71.5221  221.1572 H   0  0  0  0  0  0  0  0  0  0  0  0
  140.1140   73.2710  222.3100 N   0  0  0  0  0  0  0  0  0  0  0  0
  138.7680   73.7820  221.9760 C   0  0  0  0  0  0  0  0  0  0  0  0
  138.4600   73.3730  221.0024 H   0  0  0  0  0  0  0  0  0  0  0  0
  138.0697   73.4684  222.7659 H   0  0  0  0  0  0  0  0  0  0  0  0
  138.7610   75.3230  221.9000 C   0  0  0  0  0  0  0  0  0  0  0  0
  138.6178   75.6307  220.8537 H   0  0  0  0  0  0  0  0  0  0  0  0
  137.9414   75.7008  222.5289 H   0  0  0  0  0  0  0  0  0  0  0  0
  139.9780   75.8600  222.3770 O   0  0  0  0  0  0  0  0  0  0  0  0
  141.0420   75.4370  221.5420 C   0  0  0  0  0  0  0  0  0  0  0  0
  140.8892   75.8527  220.5351 H   0  0  0  0  0  0  0  0  0  0  0  0
  141.9827   75.7967  221.9845 H   0  0  0  0  0  0  0  0  0  0  0  0
  141.1240   73.9000  221.4380 C   0  0  0  0  0  0  0  0  0  0  0  0
  140.9426   73.5970  220.3962 H   0  0  0  0  0  0  0  0  0  0  0  0
  142.1246   73.5736  221.7578 H   0  0  0  0  0  0  0  0  0  0  0  0
  135.7980   69.1890  223.8450 C   0  0  0  0  0  0  0  0  0  0  0  0
  135.0120   68.5080  224.7280 N   0  0  0  0  0  0  0  0  0  0  0  0
  134.3190   69.1600  225.7010 C   0  0  0  0  0  0  0  0  0  0  0  0
  133.6827   68.5961  226.3989 H   0  0  0  0  0  0  0  0  0  0  0  0
  134.4200   70.5500  225.8090 C   0  0  0  0  0  0  0  0  0  0  0  0
  133.8951   71.0835  226.6151 H   0  0  0  0  0  0  0  0  0  0  0  0
  135.1710   71.2350  224.9110 N   0  0  0  0  0  0  0  0  0  0  0  0
  135.8520   70.5870  223.9240 C   0  0  0  0  0  0  0  0  0  0  0  0
  136.4416   71.1591  223.1925 H   0  0  0  0  0  0  0  0  0  0  0  0
  1  2  1  0
  2  3  2  0
  3  4  1  0
  3  5  1  0
  5  6  2  0
  6  7  1  0
  7  8  2  0
  8  9  1  0
  8 10  1  0
 10 11  1  0
 10 12  2  0
 12 13  1  0
 12 14  1  0
 14 15  1  0
 14 16  2  0
 16 17  1  0
 17 18  2  0
 17 19  1  0
 19 20  1  0
 20 21  1  0
 20 22  1  0
 20 23  1  0
 23 24  1  0
 23 25  1  0
 23 26  1  0
 26 27  1  0
 27 28  1  0
 27 29  1  0
 27 30  1  0
 30 31  1  0
 30 32  1  0
 30 33  1  0
 33 34  1  0
 34 35  1  0
 34 36  1  0
 34 37  1  0
 37 38  1  0
 37 39  1  0
  2 40  1  0
 40 41  2  0
 41 42  1  0
 42 43  1  0
 42 44  2  0
 44 45  1  0
 44 46  1  0
 46 47  2  0
 47 48  1  0
 19  5  1  0
 37 26  1  0
 47 40  1  0
 16  7  1  0
M  END
>  <UniqueID>  (73) 
509

>  <SMILES>  (73) 
O=c1c2ccccc2nc(/C=C/c2cnccn2)n1CCN1CCOCC1

>  <Energy>  (73) 
79.96797103957768

>  <Genealogy>  (73) 
O=c1c2ccccc2nc(/C=C/c2cnccn2)n1CCN1CCOCC1 (cis-trans isomerization)
O=c1c2ccccc2nc(/C=C/c2cnccn2)n1CCN1CCOCC1 (3D coordinates assigned)
O=c1c2ccccc2nc(/C=C/c2cnccn2)n1CCN1CCOCC1 (nonaromatic ring conformer: 79.96797103957768 kcal/mol)

>  <smiles>  (73) 
O=c1c2ccccc2nc(/C=C/c2cnccn2)n1CCN1CCOCC1

>  <score_type>  (73) 
oracle

>  <origin>  (73) 
autodockgpu

>  <m_score__min__energy>  (73) 
-7.7300000000000004

>  <m_primary>  (73) 
energy

>  <meeko>  (73) 
{"free_energy": -7.46, "intermolecular_energy": -9.25, "internal_energy": -1.25, "cluster_size": 5, "cluster_id": 2, "rank_in_cluster": 3}

>  <energy>  (73) 
-7.66

>  <cluster_rmsd>  (73) 
0.0

>  <rmsd>  (73) 
270.39

>  <cluster>  (73) 
2

$$$$
OQAGMIVLLKVZIV-AATRIKPKNA-N
     RDKit          3D

 48 51  0  0  0  0  0  0  0  0999 V2000
  140.7437   71.0224  220.9141 H   0  0  0  0  0  0  0  0  0  0  0  0
  140.1770   71.7530  221.5100 C   0  0  0  0  0  0  0  0  0  0  0  0
  139.1590   71.3200  222.2650 C   0  0  0  0  0  0  0  0  0  0  0  0
  138.1258   71.4318  221.9043 H   0  0  0  0  0  0  0  0  0  0  0  0
  139.4120   70.6960  223.5730 C   0  0  0  0  0  0  0  0  0  0  0  0
  139.9500   71.4740  224.5490 N   0  0  0  0  0  0  0  0  0  0  0  0
  140.2340   70.9820  225.7770 C   0  0  0  0  0  0  0  0  0  0  0  0
  140.8110   71.8120  226.7500 C   0  0  0  0  0  0  0  0  0  0  0  0
  141.0316   72.8636  226.5143 H   0  0  0  0  0  0  0  0  0  0  0  0
  141.1060   71.3040  228.0190 C   0  0  0  0  0  0  0  0  0  0  0  0
  141.5601   71.9561  228.7797 H   0  0  0  0  0  0  0  0  0  0  0  0
  140.8250   69.9700  228.3220 C   0  0  0  0  0  0  0  0  0  0  0  0
  141.0461   69.5776  229.3256 H   0  0  0  0  0  0  0  0  0  0  0  0
  140.2640   69.1320  227.3550 C   0  0  0  0  0  0  0  0  0  0  0  0
  140.0581   68.0785  227.5951 H   0  0  0  0  0  0  0  0  0  0  0  0
  139.9610   69.6330  226.0720 C   0  0  0  0  0  0  0  0  0  0  0  0
  139.4220   68.8280  225.0510 C   0  0  0  0  0  0  0  0  0  0  0  0
  139.2030   67.6060  225.2750 O   0  0  0  0  0  0  0  0  0  0  0  0
  139.1460   69.3660  223.8130 N   0  0  0  0  0  0  0  0  0  0  0  0
  138.6830   68.4880  222.7130 C   0  0  0  0  0  0  0  0  0  0  0  0
  139.3685   68.5857  221.8583 H   0  0  0  0  0  0  0  0  0  0  0  0
  138.6687   67.4473  223.0691 H   0  0  0  0  0  0  0  0  0  0  0  0
  137.2600   68.8850  222.2710 C   0  0  0  0  0  0  0  0  0  0  0  0
  137.2404   69.9640  222.0577 H   0  0  0  0  0  0  0  0  0  0  0  0
  137.0033   68.3026  221.3738 H   0  0  0  0  0  0  0  0  0  0  0  0
  136.2620   68.5850  223.3180 N   0  0  0  0  0  0  0  0  0  0  0  0
  134.9800   68.1660  222.7140 C   0  0  0  0  0  0  0  0  0  0  0  0
  134.6648   68.9223  221.9800 H   0  0  0  0  0  0  0  0  0  0  0  0
  135.1263   67.1907  222.2268 H   0  0  0  0  0  0  0  0  0  0  0  0
  133.8820   68.0170  223.7860 C   0  0  0  0  0  0  0  0  0  0  0  0
  133.1371   68.8150  223.6511 H   0  0  0  0  0  0  0  0  0  0  0  0
  133.4132   67.0284  223.6720 H   0  0  0  0  0  0  0  0  0  0  0  0
  134.4270   68.1090  225.0860 O   0  0  0  0  0  0  0  0  0  0  0  0
  134.9830   69.3980  225.2780 C   0  0  0  0  0  0  0  0  0  0  0  0
  134.1761   70.1436  225.2239 H   0  0  0  0  0  0  0  0  0  0  0  0
  135.4743   69.4110  226.2621 H   0  0  0  0  0  0  0  0  0  0  0  0
  136.0460   69.7380  224.2130 C   0  0  0  0  0  0  0  0  0  0  0  0
  135.7029   70.5985  223.6198 H   0  0  0  0  0  0  0  0  0  0  0  0
  136.9927   69.9813  224.7176 H   0  0  0  0  0  0  0  0  0  0  0  0
  140.5660   73.1770  221.4490 C   0  0  0  0  0  0  0  0  0  0  0  0
  139.7620   74.1470  221.9730 N   0  0  0  0  0  0  0  0  0  0  0  0
  140.1200   75.4590  221.9280 C   0  0  0  0  0  0  0  0  0  0  0  0
  139.4555   76.2286  222.3476 H   0  0  0  0  0  0  0  0  0  0  0  0
  141.3380   75.8230  221.3450 C   0  0  0  0  0  0  0  0  0  0  0  0
  141.6560   76.8760  221.3366 H   0  0  0  0  0  0  0  0  0  0  0  0
  142.1240   74.8670  220.7900 N   0  0  0  0  0  0  0  0  0  0  0  0
  141.7590   73.5540  220.8180 C   0  0  0  0  0  0  0  0  0  0  0  0
  142.3987   72.7931  220.3469 H   0  0  0  0  0  0  0  0  0  0  0  0
  1  2  1  0
  2  3  2  0
  3  4  1  0
  3  5  1  0
  5  6  2  0
  6  7  1  0
  7  8  2  0
  8  9  1  0
  8 10  1  0
 10 11  1  0
 10 12  2  0
 12 13  1  0
 12 14  1  0
 14 15  1  0
 14 16  2  0
 16 17  1  0
 17 18  2  0
 17 19  1  0
 19 20  1  0
 20 21  1  0
 20 22  1  0
 20 23  1  0
 23 24  1  0
 23 25  1  0
 23 26  1  0
 26 27  1  0
 27 28  1  0
 27 29  1  0
 27 30  1  0
 30 31  1  0
 30 32  1  0
 30 33  1  0
 33 34  1  0
 34 35  1  0
 34 36  1  0
 34 37  1  0
 37 38  1  0
 37 39  1  0
  2 40  1  0
 40 41  2  0
 41 42  1  0
 42 43  1  0
 42 44  2  0
 44 45  1  0
 44 46  1  0
 46 47  2  0
 47 48  1  0
 19  5  1  0
 37 26  1  0
 47 40  1  0
 16  7  1  0
M  END
>  <UniqueID>  (74) 
509

>  <SMILES>  (74) 
O=c1c2ccccc2nc(/C=C/c2cnccn2)n1CCN1CCOCC1

>  <Energy>  (74) 
79.96797103957768

>  <Genealogy>  (74) 
O=c1c2ccccc2nc(/C=C/c2cnccn2)n1CCN1CCOCC1 (cis-trans isomerization)
O=c1c2ccccc2nc(/C=C/c2cnccn2)n1CCN1CCOCC1 (3D coordinates assigned)
O=c1c2ccccc2nc(/C=C/c2cnccn2)n1CCN1CCOCC1 (nonaromatic ring conformer: 79.96797103957768 kcal/mol)

>  <smiles>  (74) 
O=c1c2ccccc2nc(/C=C/c2cnccn2)n1CCN1CCOCC1

>  <score_type>  (74) 
oracle

>  <origin>  (74) 
autodockgpu

>  <m_score__min__energy>  (74) 
-7.7300000000000004

>  <m_primary>  (74) 
energy

>  <meeko>  (74) 
{"free_energy": -7.67, "intermolecular_energy": -9.46, "internal_energy": -1.17, "cluster_size": 12, "cluster_id": 1, "rank_in_cluster": 4}

>  <energy>  (74) 
-7.65

>  <cluster_rmsd>  (74) 
0.08

>  <rmsd>  (74) 
270.36

>  <cluster>  (74) 
2

$$$$
OQAGMIVLLKVZIV-AATRIKPKNA-N
     RDKit          3D

 48 51  0  0  0  0  0  0  0  0999 V2000
  136.0780   68.5119  221.7226 H   0  0  0  0  0  0  0  0  0  0  0  0
  136.5620   68.6740  222.6970 C   0  0  0  0  0  0  0  0  0  0  0  0
  137.8460   68.3210  222.8470 C   0  0  0  0  0  0  0  0  0  0  0  0
  138.2954   67.5910  222.1577 H   0  0  0  0  0  0  0  0  0  0  0  0
  138.6590   68.9020  223.9260 C   0  0  0  0  0  0  0  0  0  0  0  0
  138.8670   68.1470  225.0360 N   0  0  0  0  0  0  0  0  0  0  0  0
  139.5860   68.6060  226.0860 C   0  0  0  0  0  0  0  0  0  0  0  0
  139.7560   67.8040  227.2240 C   0  0  0  0  0  0  0  0  0  0  0  0
  139.3049   66.8015  227.2621 H   0  0  0  0  0  0  0  0  0  0  0  0
  140.4990   68.2780  228.3110 C   0  0  0  0  0  0  0  0  0  0  0  0
  140.6303   67.6482  229.2033 H   0  0  0  0  0  0  0  0  0  0  0  0
  141.0740   69.5500  228.2640 C   0  0  0  0  0  0  0  0  0  0  0  0
  141.6693   69.9139  229.1144 H   0  0  0  0  0  0  0  0  0  0  0  0
  140.8960   70.3620  227.1410 C   0  0  0  0  0  0  0  0  0  0  0  0
  141.3383   71.3688  227.1162 H   0  0  0  0  0  0  0  0  0  0  0  0
  140.1510   69.8940  226.0400 C   0  0  0  0  0  0  0  0  0  0  0  0
  139.9160   70.6790  224.8950 C   0  0  0  0  0  0  0  0  0  0  0  0
  140.3780   71.8510  224.8410 O   0  0  0  0  0  0  0  0  0  0  0  0
  139.1790   70.1750  223.8450 N   0  0  0  0  0  0  0  0  0  0  0  0
  138.8440   71.0470  222.6940 C   0  0  0  0  0  0  0  0  0  0  0  0
  137.9007   70.7055  222.2427 H   0  0  0  0  0  0  0  0  0  0  0  0
  138.7392   72.0829  223.0489 H   0  0  0  0  0  0  0  0  0  0  0  0
  139.9640   70.9910  221.6350 C   0  0  0  0  0  0  0  0  0  0  0  0
  140.8440   70.4961  222.0717 H   0  0  0  0  0  0  0  0  0  0  0  0
  139.5888   70.4300  220.7664 H   0  0  0  0  0  0  0  0  0  0  0  0
  140.3500   72.3420  221.1810 N   0  0  0  0  0  0  0  0  0  0  0  0
  141.8210   72.4760  221.1290 C   0  0  0  0  0  0  0  0  0  0  0  0
  142.2431   72.1772  222.0999 H   0  0  0  0  0  0  0  0  0  0  0  0
  142.2016   71.8289  220.3250 H   0  0  0  0  0  0  0  0  0  0  0  0
  142.2380   73.9290  220.8250 C   0  0  0  0  0  0  0  0  0  0  0  0
  142.7066   74.3635  221.7203 H   0  0  0  0  0  0  0  0  0  0  0  0
  142.9470   73.9213  219.9840 H   0  0  0  0  0  0  0  0  0  0  0  0
  141.1190   74.7120  220.4630 O   0  0  0  0  0  0  0  0  0  0  0  0
  140.2200   74.7890  221.5560 C   0  0  0  0  0  0  0  0  0  0  0  0
  140.7150   75.3145  222.3860 H   0  0  0  0  0  0  0  0  0  0  0  0
  139.3232   75.3297  221.2194 H   0  0  0  0  0  0  0  0  0  0  0  0
  139.7780   73.3930  222.0440 C   0  0  0  0  0  0  0  0  0  0  0  0
  140.1258   73.2431  223.0768 H   0  0  0  0  0  0  0  0  0  0  0  0
  138.6805   73.3312  222.0022 H   0  0  0  0  0  0  0  0  0  0  0  0
  135.7730   69.2730  223.7930 C   0  0  0  0  0  0  0  0  0  0  0  0
  135.0090   68.4950  224.6130 N   0  0  0  0  0  0  0  0  0  0  0  0
  134.2870   69.0400  225.6300 C   0  0  0  0  0  0  0  0  0  0  0  0
  133.6672   68.3990  226.2741 H   0  0  0  0  0  0  0  0  0  0  0  0
  134.3380   70.4200  225.8510 C   0  0  0  0  0  0  0  0  0  0  0  0
  133.7913   70.8672  226.6943 H   0  0  0  0  0  0  0  0  0  0  0  0
  135.0670   71.2020  225.0170 N   0  0  0  0  0  0  0  0  0  0  0  0
  135.7760   70.6610  223.9850 C   0  0  0  0  0  0  0  0  0  0  0  0
  136.3476   71.3114  223.3065 H   0  0  0  0  0  0  0  0  0  0  0  0
  1  2  1  0
  2  3  2  0
  3  4  1  0
  3  5  1  0
  5  6  2  0
  6  7  1  0
  7  8  2  0
  8  9  1  0
  8 10  1  0
 10 11  1  0
 10 12  2  0
 12 13  1  0
 12 14  1  0
 14 15  1  0
 14 16  2  0
 16 17  1  0
 17 18  2  0
 17 19  1  0
 19 20  1  0
 20 21  1  0
 20 22  1  0
 20 23  1  0
 23 24  1  0
 23 25  1  0
 23 26  1  0
 26 27  1  0
 27 28  1  0
 27 29  1  0
 27 30  1  0
 30 31  1  0
 30 32  1  0
 30 33  1  0
 33 34  1  0
 34 35  1  0
 34 36  1  0
 34 37  1  0
 37 38  1  0
 37 39  1  0
  2 40  1  0
 40 41  2  0
 41 42  1  0
 42 43  1  0
 42 44  2  0
 44 45  1  0
 44 46  1  0
 46 47  2  0
 47 48  1  0
 19  5  1  0
 37 26  1  0
 47 40  1  0
 16  7  1  0
M  END
>  <UniqueID>  (75) 
509

>  <SMILES>  (75) 
O=c1c2ccccc2nc(/C=C/c2cnccn2)n1CCN1CCOCC1

>  <Energy>  (75) 
79.96797103957768

>  <Genealogy>  (75) 
O=c1c2ccccc2nc(/C=C/c2cnccn2)n1CCN1CCOCC1 (cis-trans isomerization)
O=c1c2ccccc2nc(/C=C/c2cnccn2)n1CCN1CCOCC1 (3D coordinates assigned)
O=c1c2ccccc2nc(/C=C/c2cnccn2)n1CCN1CCOCC1 (nonaromatic ring conformer: 79.96797103957768 kcal/mol)

>  <smiles>  (75) 
O=c1c2ccccc2nc(/C=C/c2cnccn2)n1CCN1CCOCC1

>  <score_type>  (75) 
oracle

>  <origin>  (75) 
autodockgpu

>  <m_score__min__energy>  (75) 
-7.7300000000000004

>  <m_primary>  (75) 
energy

>  <meeko>  (75) 
{"free_energy": -6.46, "intermolecular_energy": -8.25, "internal_energy": -1.4, "cluster_size": 5, "cluster_id": 2, "rank_in_cluster": 5}

>  <energy>  (75) 
-7.46

>  <cluster_rmsd>  (75) 
0.39

>  <rmsd>  (75) 
270.38

>  <cluster>  (75) 
2

$$$$
OQAGMIVLLKVZIV-AATRIKPKNA-N
     RDKit          3D

 48 51  0  0  0  0  0  0  0  0999 V2000
  136.0927   68.8699  221.7353 H   0  0  0  0  0  0  0  0  0  0  0  0
  136.5150   68.7800  222.7470 C   0  0  0  0  0  0  0  0  0  0  0  0
  137.7970   68.4160  222.8820 C   0  0  0  0  0  0  0  0  0  0  0  0
  138.2384   67.6999  222.1732 H   0  0  0  0  0  0  0  0  0  0  0  0
  138.6190   68.9660  223.9700 C   0  0  0  0  0  0  0  0  0  0  0  0
  138.8360   68.1790  225.0570 N   0  0  0  0  0  0  0  0  0  0  0  0
  139.5640   68.6070  226.1140 C   0  0  0  0  0  0  0  0  0  0  0  0
  139.7440   67.7720  227.2260 C   0  0  0  0  0  0  0  0  0  0  0  0
  139.2941   66.7683  227.2379 H   0  0  0  0  0  0  0  0  0  0  0  0
  140.4950   68.2140  228.3200 C   0  0  0  0  0  0  0  0  0  0  0  0
  140.6339   67.5582  229.1922 H   0  0  0  0  0  0  0  0  0  0  0  0
  141.0690   69.4880  228.3060 C   0  0  0  0  0  0  0  0  0  0  0  0
  141.6704   69.8274  229.1622 H   0  0  0  0  0  0  0  0  0  0  0  0
  140.8820   70.3320  227.2090 C   0  0  0  0  0  0  0  0  0  0  0  0
  141.3244   71.3391  227.2103 H   0  0  0  0  0  0  0  0  0  0  0  0
  140.1280   69.8970  226.1000 C   0  0  0  0  0  0  0  0  0  0  0  0
  139.8830   70.7150  224.9810 C   0  0  0  0  0  0  0  0  0  0  0  0
  140.3440   71.8890  224.9580 O   0  0  0  0  0  0  0  0  0  0  0  0
  139.1380   70.2420  223.9230 N   0  0  0  0  0  0  0  0  0  0  0  0
  138.7930   71.1460  222.8010 C   0  0  0  0  0  0  0  0  0  0  0  0
  138.2690   70.5732  222.0217 H   0  0  0  0  0  0  0  0  0  0  0  0
  138.1452   71.9514  223.1773 H   0  0  0  0  0  0  0  0  0  0  0  0
  140.0700   71.7690  222.2020 C   0  0  0  0  0  0  0  0  0  0  0  0
  140.9446   71.3819  222.7453 H   0  0  0  0  0  0  0  0  0  0  0  0
  140.1176   71.4984  221.1369 H   0  0  0  0  0  0  0  0  0  0  0  0
  140.0560   73.2430  222.3040 N   0  0  0  0  0  0  0  0  0  0  0  0
  138.7200   73.7770  221.9680 C   0  0  0  0  0  0  0  0  0  0  0  0
  138.4101   73.3798  220.9902 H   0  0  0  0  0  0  0  0  0  0  0  0
  138.0135   73.4686  222.7527 H   0  0  0  0  0  0  0  0  0  0  0  0
  138.7370   75.3180  221.9030 C   0  0  0  0  0  0  0  0  0  0  0  0
  138.6025   75.6354  220.8584 H   0  0  0  0  0  0  0  0  0  0  0  0
  137.9209   75.7041  222.5314 H   0  0  0  0  0  0  0  0  0  0  0  0
  139.9600   75.8320  222.3880 O   0  0  0  0  0  0  0  0  0  0  0  0
  141.0210   75.3990  221.5550 C   0  0  0  0  0  0  0  0  0  0  0  0
  140.8790   75.8238  220.5503 H   0  0  0  0  0  0  0  0  0  0  0  0
  141.9650   75.7416  222.0038 H   0  0  0  0  0  0  0  0  0  0  0  0
  141.0800   73.8610  221.4410 C   0  0  0  0  0  0  0  0  0  0  0  0
  140.8991   73.5676  220.3964 H   0  0  0  0  0  0  0  0  0  0  0  0
  142.0739   73.5167  221.7630 H   0  0  0  0  0  0  0  0  0  0  0  0
  135.6480   69.0650  223.9090 C   0  0  0  0  0  0  0  0  0  0  0  0
  134.7080   68.1650  224.3200 N   0  0  0  0  0  0  0  0  0  0  0  0
  133.9130   68.4180  225.3950 C   0  0  0  0  0  0  0  0  0  0  0  0
  133.1537   67.6855  225.7062 H   0  0  0  0  0  0  0  0  0  0  0  0
  134.0670   69.6150  226.1020 C   0  0  0  0  0  0  0  0  0  0  0  0
  133.4581   69.8135  226.9963 H   0  0  0  0  0  0  0  0  0  0  0  0
  134.9740   70.5290  225.6750 N   0  0  0  0  0  0  0  0  0  0  0  0
  135.7590   70.2860  224.5870 C   0  0  0  0  0  0  0  0  0  0  0  0
  136.4765   71.0455  224.2430 H   0  0  0  0  0  0  0  0  0  0  0  0
  1  2  1  0
  2  3  2  0
  3  4  1  0
  3  5  1  0
  5  6  2  0
  6  7  1  0
  7  8  2  0
  8  9  1  0
  8 10  1  0
 10 11  1  0
 10 12  2  0
 12 13  1  0
 12 14  1  0
 14 15  1  0
 14 16  2  0
 16 17  1  0
 17 18  2  0
 17 19  1  0
 19 20  1  0
 20 21  1  0
 20 22  1  0
 20 23  1  0
 23 24  1  0
 23 25  1  0
 23 26  1  0
 26 27  1  0
 27 28  1  0
 27 29  1  0
 27 30  1  0
 30 31  1  0
 30 32  1  0
 30 33  1  0
 33 34  1  0
 34 35  1  0
 34 36  1  0
 34 37  1  0
 37 38  1  0
 37 39  1  0
  2 40  1  0
 40 41  2  0
 41 42  1  0
 42 43  1  0
 42 44  2  0
 44 45  1  0
 44 46  1  0
 46 47  2  0
 47 48  1  0
 19  5  1  0
 37 26  1  0
 47 40  1  0
 16  7  1  0
M  END
>  <UniqueID>  (76) 
509

>  <SMILES>  (76) 
O=c1c2ccccc2nc(/C=C/c2cnccn2)n1CCN1CCOCC1

>  <Energy>  (76) 
79.96797103957768

>  <Genealogy>  (76) 
O=c1c2ccccc2nc(/C=C/c2cnccn2)n1CCN1CCOCC1 (cis-trans isomerization)
O=c1c2ccccc2nc(/C=C/c2cnccn2)n1CCN1CCOCC1 (3D coordinates assigned)
O=c1c2ccccc2nc(/C=C/c2cnccn2)n1CCN1CCOCC1 (nonaromatic ring conformer: 79.96797103957768 kcal/mol)

>  <smiles>  (76) 
O=c1c2ccccc2nc(/C=C/c2cnccn2)n1CCN1CCOCC1

>  <score_type>  (76) 
oracle

>  <origin>  (76) 
autodockgpu

>  <m_score__min__energy>  (76) 
-7.7300000000000004

>  <m_primary>  (76) 
energy

>  <meeko>  (76) 
{"free_energy": -7.65, "intermolecular_energy": -9.44, "internal_energy": -1.14, "cluster_size": 5, "cluster_id": 2, "rank_in_cluster": 2}

>  <energy>  (76) 
-7.42

>  <cluster_rmsd>  (76) 
0.42

>  <rmsd>  (76) 
270.41

>  <cluster>  (76) 
2

$$$$
OQAGMIVLLKVZIV-AATRIKPKNA-N
     RDKit          3D

 48 51  0  0  0  0  0  0  0  0999 V2000
  136.0921   69.0500  221.7857 H   0  0  0  0  0  0  0  0  0  0  0  0
  136.4900   68.8920  222.7990 C   0  0  0  0  0  0  0  0  0  0  0  0
  137.7590   68.4860  222.9390 C   0  0  0  0  0  0  0  0  0  0  0  0
  138.1768   67.7504  222.2359 H   0  0  0  0  0  0  0  0  0  0  0  0
  138.5980   69.0150  224.0240 C   0  0  0  0  0  0  0  0  0  0  0  0
  138.8210   68.2120  225.0980 N   0  0  0  0  0  0  0  0  0  0  0  0
  139.5640   68.6210  226.1520 C   0  0  0  0  0  0  0  0  0  0  0  0
  139.7510   67.7710  227.2510 C   0  0  0  0  0  0  0  0  0  0  0  0
  139.2938   66.7705  227.2554 H   0  0  0  0  0  0  0  0  0  0  0  0
  140.5180   68.1930  228.3420 C   0  0  0  0  0  0  0  0  0  0  0  0
  140.6614   67.5253  229.2043 H   0  0  0  0  0  0  0  0  0  0  0  0
  141.1020   69.4620  228.3370 C   0  0  0  0  0  0  0  0  0  0  0  0
  141.7164   69.7855  229.1901 H   0  0  0  0  0  0  0  0  0  0  0  0
  140.9090   70.3220  227.2530 C   0  0  0  0  0  0  0  0  0  0  0  0
  141.3597   71.3254  227.2617 H   0  0  0  0  0  0  0  0  0  0  0  0
  140.1380   69.9070  226.1480 C   0  0  0  0  0  0  0  0  0  0  0  0
  139.8870   70.7410  225.0420 C   0  0  0  0  0  0  0  0  0  0  0  0
  140.3570   71.9110  225.0280 O   0  0  0  0  0  0  0  0  0  0  0  0
  139.1260   70.2870  223.9870 N   0  0  0  0  0  0  0  0  0  0  0  0
  138.7750   71.2080  222.8800 C   0  0  0  0  0  0  0  0  0  0  0  0
  138.2223   70.6528  222.1078 H   0  0  0  0  0  0  0  0  0  0  0  0
  138.1524   72.0232  223.2773 H   0  0  0  0  0  0  0  0  0  0  0  0
  140.0510   71.8100  222.2580 C   0  0  0  0  0  0  0  0  0  0  0  0
  140.9277   71.4245  222.7990 H   0  0  0  0  0  0  0  0  0  0  0  0
  140.0852   71.5214  221.1971 H   0  0  0  0  0  0  0  0  0  0  0  0
  140.0510   73.2850  222.3350 N   0  0  0  0  0  0  0  0  0  0  0  0
  138.7260   73.8270  221.9670 C   0  0  0  0  0  0  0  0  0  0  0  0
  138.4286   73.4162  220.9909 H   0  0  0  0  0  0  0  0  0  0  0  0
  138.0032   73.5394  222.7448 H   0  0  0  0  0  0  0  0  0  0  0  0
  138.7600   75.3670  221.8760 C   0  0  0  0  0  0  0  0  0  0  0  0
  138.6454   75.6678  220.8242 H   0  0  0  0  0  0  0  0  0  0  0  0
  137.9381   75.7721  222.4846 H   0  0  0  0  0  0  0  0  0  0  0  0
  139.9810   75.8770  222.3720 O   0  0  0  0  0  0  0  0  0  0  0  0
  141.0510   75.4180  221.5640 C   0  0  0  0  0  0  0  0  0  0  0  0
  140.9303   75.8270  220.5500 H   0  0  0  0  0  0  0  0  0  0  0  0
  141.9912   75.7579  222.0227 H   0  0  0  0  0  0  0  0  0  0  0  0
  141.0950   73.8770  221.4770 C   0  0  0  0  0  0  0  0  0  0  0  0
  140.9267   73.5675  220.4349 H   0  0  0  0  0  0  0  0  0  0  0  0
  142.0801   73.5276  221.8198 H   0  0  0  0  0  0  0  0  0  0  0  0
  135.6060   69.1350  223.9580 C   0  0  0  0  0  0  0  0  0  0  0  0
  134.7350   68.1770  224.3890 N   0  0  0  0  0  0  0  0  0  0  0  0
  133.9250   68.3930  225.4610 C   0  0  0  0  0  0  0  0  0  0  0  0
  133.2215   67.6134  225.7886 H   0  0  0  0  0  0  0  0  0  0  0  0
  133.9920   69.6120  226.1440 C   0  0  0  0  0  0  0  0  0  0  0  0
  133.3707   69.7838  227.0354 H   0  0  0  0  0  0  0  0  0  0  0  0
  134.8300   70.5800  225.6970 N   0  0  0  0  0  0  0  0  0  0  0  0
  135.6290   70.3740  224.6120 C   0  0  0  0  0  0  0  0  0  0  0  0
  136.2889   71.1768  224.2515 H   0  0  0  0  0  0  0  0  0  0  0  0
  1  2  1  0
  2  3  2  0
  3  4  1  0
  3  5  1  0
  5  6  2  0
  6  7  1  0
  7  8  2  0
  8  9  1  0
  8 10  1  0
 10 11  1  0
 10 12  2  0
 12 13  1  0
 12 14  1  0
 14 15  1  0
 14 16  2  0
 16 17  1  0
 17 18  2  0
 17 19  1  0
 19 20  1  0
 20 21  1  0
 20 22  1  0
 20 23  1  0
 23 24  1  0
 23 25  1  0
 23 26  1  0
 26 27  1  0
 27 28  1  0
 27 29  1  0
 27 30  1  0
 30 31  1  0
 30 32  1  0
 30 33  1  0
 33 34  1  0
 34 35  1  0
 34 36  1  0
 34 37  1  0
 37 38  1  0
 37 39  1  0
  2 40  1  0
 40 41  2  0
 41 42  1  0
 42 43  1  0
 42 44  2  0
 44 45  1  0
 44 46  1  0
 46 47  2  0
 47 48  1  0
 19  5  1  0
 37 26  1  0
 47 40  1  0
 16  7  1  0
M  END
>  <UniqueID>  (77) 
509

>  <SMILES>  (77) 
O=c1c2ccccc2nc(/C=C/c2cnccn2)n1CCN1CCOCC1

>  <Energy>  (77) 
79.96797103957768

>  <Genealogy>  (77) 
O=c1c2ccccc2nc(/C=C/c2cnccn2)n1CCN1CCOCC1 (cis-trans isomerization)
O=c1c2ccccc2nc(/C=C/c2cnccn2)n1CCN1CCOCC1 (3D coordinates assigned)
O=c1c2ccccc2nc(/C=C/c2cnccn2)n1CCN1CCOCC1 (nonaromatic ring conformer: 79.96797103957768 kcal/mol)

>  <smiles>  (77) 
O=c1c2ccccc2nc(/C=C/c2cnccn2)n1CCN1CCOCC1

>  <score_type>  (77) 
oracle

>  <origin>  (77) 
autodockgpu

>  <m_score__min__energy>  (77) 
-7.7300000000000004

>  <m_primary>  (77) 
energy

>  <meeko>  (77) 
{"free_energy": -7.66, "intermolecular_energy": -9.45, "internal_energy": -1.14, "cluster_size": 5, "cluster_id": 2, "rank_in_cluster": 1}

>  <energy>  (77) 
-6.46

>  <cluster_rmsd>  (77) 
0.86

>  <rmsd>  (77) 
270.25

>  <cluster>  (77) 
2

$$$$
OQAGMIVLLKVZIV-AATRIKPKNA-N
     RDKit          3D

 48 51  0  0  0  0  0  0  0  0999 V2000
  140.3874   71.7557  221.1307 H   0  0  0  0  0  0  0  0  0  0  0  0
  139.5240   72.0710  221.7350 C   0  0  0  0  0  0  0  0  0  0  0  0
  138.7560   71.1320  222.3030 C   0  0  0  0  0  0  0  0  0  0  0  0
  137.9056   70.7121  221.7458 H   0  0  0  0  0  0  0  0  0  0  0  0
  139.0410   70.6580  223.6660 C   0  0  0  0  0  0  0  0  0  0  0  0
  139.8270   71.4370  224.4540 N   0  0  0  0  0  0  0  0  0  0  0  0
  140.1580   71.0720  225.7140 C   0  0  0  0  0  0  0  0  0  0  0  0
  140.9920   71.8940  226.4860 C   0  0  0  0  0  0  0  0  0  0  0  0
  141.3758   72.8359  226.0670 H   0  0  0  0  0  0  0  0  0  0  0  0
  141.3360   71.5170  227.7880 C   0  0  0  0  0  0  0  0  0  0  0  0
  141.9920   72.1619  228.3911 H   0  0  0  0  0  0  0  0  0  0  0  0
  140.8480   70.3230  228.3240 C   0  0  0  0  0  0  0  0  0  0  0  0
  141.1097   70.0365  229.3533 H   0  0  0  0  0  0  0  0  0  0  0  0
  140.0280   69.4910  227.5560 C   0  0  0  0  0  0  0  0  0  0  0  0
  139.6574   68.5451  227.9778 H   0  0  0  0  0  0  0  0  0  0  0  0
  139.6750   69.8610  226.2430 C   0  0  0  0  0  0  0  0  0  0  0  0
  138.8760   69.0490  225.4150 C   0  0  0  0  0  0  0  0  0  0  0  0
  138.4600   67.9400  225.8490 O   0  0  0  0  0  0  0  0  0  0  0  0
  138.5600   69.4560  224.1370 N   0  0  0  0  0  0  0  0  0  0  0  0
  137.8140   68.5460  223.2370 C   0  0  0  0  0  0  0  0  0  0  0  0
  138.3351   68.4847  222.2702 H   0  0  0  0  0  0  0  0  0  0  0  0
  137.7602   67.5500  223.7008 H   0  0  0  0  0  0  0  0  0  0  0  0
  136.3810   69.0710  223.0100 C   0  0  0  0  0  0  0  0  0  0  0  0
  136.4277   70.1431  222.7683 H   0  0  0  0  0  0  0  0  0  0  0  0
  135.9327   68.5011  222.1828 H   0  0  0  0  0  0  0  0  0  0  0  0
  135.5380   68.8860  224.2090 N   0  0  0  0  0  0  0  0  0  0  0  0
  134.2530   68.2510  223.8510 C   0  0  0  0  0  0  0  0  0  0  0  0
  133.7818   68.8261  223.0403 H   0  0  0  0  0  0  0  0  0  0  0  0
  134.4518   67.2185  223.5280 H   0  0  0  0  0  0  0  0  0  0  0  0
  133.2970   68.2100  225.0610 C   0  0  0  0  0  0  0  0  0  0  0  0
  132.4605   68.9015  224.8818 H   0  0  0  0  0  0  0  0  0  0  0  0
  132.9281   67.1806  225.1806 H   0  0  0  0  0  0  0  0  0  0  0  0
  133.9630   68.5890  226.2470 O   0  0  0  0  0  0  0  0  0  0  0  0
  134.3930   69.9350  226.1400 C   0  0  0  0  0  0  0  0  0  0  0  0
  133.5088   70.5839  226.0562 H   0  0  0  0  0  0  0  0  0  0  0  0
  134.9811   70.1744  227.0382 H   0  0  0  0  0  0  0  0  0  0  0  0
  135.2950   70.1620  224.9080 C   0  0  0  0  0  0  0  0  0  0  0  0
  134.8003   70.8638  224.2205 H   0  0  0  0  0  0  0  0  0  0  0  0
  136.2580   70.5764  225.2412 H   0  0  0  0  0  0  0  0  0  0  0  0
  139.2530   73.5150  221.8910 C   0  0  0  0  0  0  0  0  0  0  0  0
  140.2760   74.4120  222.0030 N   0  0  0  0  0  0  0  0  0  0  0  0
  140.0330   75.7440  222.1370 C   0  0  0  0  0  0  0  0  0  0  0  0
  140.8692   76.4518  222.2361 H   0  0  0  0  0  0  0  0  0  0  0  0
  138.7130   76.2080  222.1480 C   0  0  0  0  0  0  0  0  0  0  0  0
  138.5043   77.2858  222.2169 H   0  0  0  0  0  0  0  0  0  0  0  0
  137.6930   75.3170  222.0730 N   0  0  0  0  0  0  0  0  0  0  0  0
  137.9330   73.9810  221.9580 C   0  0  0  0  0  0  0  0  0  0  0  0
  137.0940   73.2707  221.9179 H   0  0  0  0  0  0  0  0  0  0  0  0
  1  2  1  0
  2  3  2  0
  3  4  1  0
  3  5  1  0
  5  6  2  0
  6  7  1  0
  7  8  2  0
  8  9  1  0
  8 10  1  0
 10 11  1  0
 10 12  2  0
 12 13  1  0
 12 14  1  0
 14 15  1  0
 14 16  2  0
 16 17  1  0
 17 18  2  0
 17 19  1  0
 19 20  1  0
 20 21  1  0
 20 22  1  0
 20 23  1  0
 23 24  1  0
 23 25  1  0
 23 26  1  0
 26 27  1  0
 27 28  1  0
 27 29  1  0
 27 30  1  0
 30 31  1  0
 30 32  1  0
 30 33  1  0
 33 34  1  0
 34 35  1  0
 34 36  1  0
 34 37  1  0
 37 38  1  0
 37 39  1  0
  2 40  1  0
 40 41  2  0
 41 42  1  0
 42 43  1  0
 42 44  2  0
 44 45  1  0
 44 46  1  0
 46 47  2  0
 47 48  1  0
 19  5  1  0
 37 26  1  0
 47 40  1  0
 16  7  1  0
M  END
>  <UniqueID>  (78) 
509

>  <SMILES>  (78) 
O=c1c2ccccc2nc(/C=C/c2cnccn2)n1CCN1CCOCC1

>  <Energy>  (78) 
79.96797103957768

>  <Genealogy>  (78) 
O=c1c2ccccc2nc(/C=C/c2cnccn2)n1CCN1CCOCC1 (cis-trans isomerization)
O=c1c2ccccc2nc(/C=C/c2cnccn2)n1CCN1CCOCC1 (3D coordinates assigned)
O=c1c2ccccc2nc(/C=C/c2cnccn2)n1CCN1CCOCC1 (nonaromatic ring conformer: 79.96797103957768 kcal/mol)

>  <smiles>  (78) 
O=c1c2ccccc2nc(/C=C/c2cnccn2)n1CCN1CCOCC1

>  <score_type>  (78) 
oracle

>  <origin>  (78) 
autodockgpu

>  <m_score__min__energy>  (78) 
-7.7300000000000004

>  <m_primary>  (78) 
energy

>  <meeko>  (78) 
{"free_energy": -7.65, "intermolecular_energy": -9.44, "internal_energy": -1.24, "cluster_size": 12, "cluster_id": 1, "rank_in_cluster": 5}

>  <energy>  (78) 
-6.61

>  <cluster_rmsd>  (78) 
0.0

>  <rmsd>  (78) 
270.78

>  <cluster>  (78) 
3

$$$$
OQAGMIVLLKVZIV-AATRIKPKNA-N
     RDKit          3D

 48 51  0  0  0  0  0  0  0  0999 V2000
  141.8864   71.7964  221.3393 H   0  0  0  0  0  0  0  0  0  0  0  0
  140.9050   72.1690  221.6680 C   0  0  0  0  0  0  0  0  0  0  0  0
  139.9640   71.2840  222.0210 C   0  0  0  0  0  0  0  0  0  0  0  0
  139.2308   70.9409  221.2762 H   0  0  0  0  0  0  0  0  0  0  0  0
  139.9030   70.7670  223.3970 C   0  0  0  0  0  0  0  0  0  0  0  0
  140.4660   71.5200  224.3790 N   0  0  0  0  0  0  0  0  0  0  0  0
  140.4740   71.1160  225.6700 C   0  0  0  0  0  0  0  0  0  0  0  0
  141.0870   71.9100  226.6500 C   0  0  0  0  0  0  0  0  0  0  0  0
  141.5602   72.8621  226.3679 H   0  0  0  0  0  0  0  0  0  0  0  0
  141.0980   71.4940  227.9850 C   0  0  0  0  0  0  0  0  0  0  0  0
  141.5807   72.1180  228.7516 H   0  0  0  0  0  0  0  0  0  0  0  0
  140.4960   70.2860  228.3450 C   0  0  0  0  0  0  0  0  0  0  0  0
  140.4945   69.9673  229.3978 H   0  0  0  0  0  0  0  0  0  0  0  0
  139.8960   69.4810  227.3740 C   0  0  0  0  0  0  0  0  0  0  0  0
  139.4356   68.5245  227.6623 H   0  0  0  0  0  0  0  0  0  0  0  0
  139.8790   69.8910  226.0260 C   0  0  0  0  0  0  0  0  0  0  0  0
  139.3140   69.1080  225.0010 C   0  0  0  0  0  0  0  0  0  0  0  0
  138.8070   67.9880  225.2850 O   0  0  0  0  0  0  0  0  0  0  0  0
  139.3240   69.5540  223.6980 N   0  0  0  0  0  0  0  0  0  0  0  0
  138.8280   68.6750  222.6130 C   0  0  0  0  0  0  0  0  0  0  0  0
  139.3827   68.8922  221.6883 H   0  0  0  0  0  0  0  0  0  0  0  0
  138.9790   67.6257  222.9064 H   0  0  0  0  0  0  0  0  0  0  0  0
  137.3240   68.9160  222.3720 C   0  0  0  0  0  0  0  0  0  0  0  0
  137.1658   69.1501  221.3089 H   0  0  0  0  0  0  0  0  0  0  0  0
  136.7792   68.0045  222.6588 H   0  0  0  0  0  0  0  0  0  0  0  0
  136.8150   70.0350  223.1900 N   0  0  0  0  0  0  0  0  0  0  0  0
  135.6000   69.6330  223.9280 C   0  0  0  0  0  0  0  0  0  0  0  0
  134.8719   69.2124  223.2188 H   0  0  0  0  0  0  0  0  0  0  0  0
  135.8821   68.8844  224.6830 H   0  0  0  0  0  0  0  0  0  0  0  0
  134.9620   70.8390  224.6490 C   0  0  0  0  0  0  0  0  0  0  0  0
  134.0074   71.0856  224.1613 H   0  0  0  0  0  0  0  0  0  0  0  0
  134.7987   70.5703  225.7031 H   0  0  0  0  0  0  0  0  0  0  0  0
  135.8110   71.9670  224.5990 O   0  0  0  0  0  0  0  0  0  0  0  0
  135.9850   72.3700  223.2520 C   0  0  0  0  0  0  0  0  0  0  0  0
  135.0128   72.6911  222.8497 H   0  0  0  0  0  0  0  0  0  0  0  0
  136.7154   73.1924  223.2368 H   0  0  0  0  0  0  0  0  0  0  0  0
  136.5360   71.2300  222.3700 C   0  0  0  0  0  0  0  0  0  0  0  0
  135.7928   70.9758  221.5999 H   0  0  0  0  0  0  0  0  0  0  0  0
  137.4709   71.5646  221.8967 H   0  0  0  0  0  0  0  0  0  0  0  0
  140.6730   73.6280  221.7040 C   0  0  0  0  0  0  0  0  0  0  0  0
  139.5670   74.1460  222.3120 N   0  0  0  0  0  0  0  0  0  0  0  0
  139.3530   75.4900  222.3570 C   0  0  0  0  0  0  0  0  0  0  0  0
  138.4511   75.8905  222.8430 H   0  0  0  0  0  0  0  0  0  0  0  0
  140.2860   76.3580  221.7820 C   0  0  0  0  0  0  0  0  0  0  0  0
  140.1439   77.4469  221.8459 H   0  0  0  0  0  0  0  0  0  0  0  0
  141.3690   75.8450  221.1440 N   0  0  0  0  0  0  0  0  0  0  0  0
  141.5760   74.5000  221.0820 C   0  0  0  0  0  0  0  0  0  0  0  0
  142.4490   74.1000  220.5455 H   0  0  0  0  0  0  0  0  0  0  0  0
  1  2  1  0
  2  3  2  0
  3  4  1  0
  3  5  1  0
  5  6  2  0
  6  7  1  0
  7  8  2  0
  8  9  1  0
  8 10  1  0
 10 11  1  0
 10 12  2  0
 12 13  1  0
 12 14  1  0
 14 15  1  0
 14 16  2  0
 16 17  1  0
 17 18  2  0
 17 19  1  0
 19 20  1  0
 20 21  1  0
 20 22  1  0
 20 23  1  0
 23 24  1  0
 23 25  1  0
 23 26  1  0
 26 27  1  0
 27 28  1  0
 27 29  1  0
 27 30  1  0
 30 31  1  0
 30 32  1  0
 30 33  1  0
 33 34  1  0
 34 35  1  0
 34 36  1  0
 34 37  1  0
 37 38  1  0
 37 39  1  0
  2 40  1  0
 40 41  2  0
 41 42  1  0
 42 43  1  0
 42 44  2  0
 44 45  1  0
 44 46  1  0
 46 47  2  0
 47 48  1  0
 19  5  1  0
 37 26  1  0
 47 40  1  0
 16  7  1  0
M  END
>  <UniqueID>  (79) 
509

>  <SMILES>  (79) 
O=c1c2ccccc2nc(/C=C/c2cnccn2)n1CCN1CCOCC1

>  <Energy>  (79) 
79.96797103957768

>  <Genealogy>  (79) 
O=c1c2ccccc2nc(/C=C/c2cnccn2)n1CCN1CCOCC1 (cis-trans isomerization)
O=c1c2ccccc2nc(/C=C/c2cnccn2)n1CCN1CCOCC1 (3D coordinates assigned)
O=c1c2ccccc2nc(/C=C/c2cnccn2)n1CCN1CCOCC1 (nonaromatic ring conformer: 79.96797103957768 kcal/mol)

>  <smiles>  (79) 
O=c1c2ccccc2nc(/C=C/c2cnccn2)n1CCN1CCOCC1

>  <score_type>  (79) 
oracle

>  <origin>  (79) 
autodockgpu

>  <m_score__min__energy>  (79) 
-7.7300000000000004

>  <m_primary>  (79) 
energy

>  <meeko>  (79) 
{"free_energy": -6.89, "intermolecular_energy": -8.68, "internal_energy": -1.68, "cluster_size": 12, "cluster_id": 1, "rank_in_cluster": 11}

>  <energy>  (79) 
-5.67

>  <cluster_rmsd>  (79) 
0.0

>  <rmsd>  (79) 
271.33

>  <cluster>  (79) 
4

$$$$
OQAGMIVLLKVZIV-AATRIKPKNA-N
     RDKit          3D

 48 51  0  0  0  0  0  0  0  0999 V2000
  141.3308   72.2455  221.2217 H   0  0  0  0  0  0  0  0  0  0  0  0
  140.3280   72.1790  221.6690 C   0  0  0  0  0  0  0  0  0  0  0  0
  139.8390   70.9710  221.9820 C   0  0  0  0  0  0  0  0  0  0  0  0
  139.4547   70.3154  221.1867 H   0  0  0  0  0  0  0  0  0  0  0  0
  139.8120   70.5150  223.3790 C   0  0  0  0  0  0  0  0  0  0  0  0
  140.3500   71.3340  224.3210 N   0  0  0  0  0  0  0  0  0  0  0  0
  140.3870   70.9890  225.6290 C   0  0  0  0  0  0  0  0  0  0  0  0
  140.9730   71.8530  226.5660 C   0  0  0  0  0  0  0  0  0  0  0  0
  141.4014   72.8113  226.2371 H   0  0  0  0  0  0  0  0  0  0  0  0
  141.0130   71.4970  227.9180 C   0  0  0  0  0  0  0  0  0  0  0  0
  141.4749   72.1745  228.6512 H   0  0  0  0  0  0  0  0  0  0  0  0
  140.4670   70.2820  228.3380 C   0  0  0  0  0  0  0  0  0  0  0  0
  140.4876   70.0116  229.4040 H   0  0  0  0  0  0  0  0  0  0  0  0
  139.8950   69.4090  227.4100 C   0  0  0  0  0  0  0  0  0  0  0  0
  139.4800   68.4471  227.7453 H   0  0  0  0  0  0  0  0  0  0  0  0
  139.8480   69.7570  226.0450 C   0  0  0  0  0  0  0  0  0  0  0  0
  139.3100   68.9050  225.0620 C   0  0  0  0  0  0  0  0  0  0  0  0
  138.8540   67.7780  225.4000 O   0  0  0  0  0  0  0  0  0  0  0  0
  139.2890   69.2920  223.7400 N   0  0  0  0  0  0  0  0  0  0  0  0
  138.8230   68.3450  222.7010 C   0  0  0  0  0  0  0  0  0  0  0  0
  139.5212   68.3670  221.8513 H   0  0  0  0  0  0  0  0  0  0  0  0
  138.7836   67.3337  223.1319 H   0  0  0  0  0  0  0  0  0  0  0  0
  137.4140   68.7350  222.2110 C   0  0  0  0  0  0  0  0  0  0  0  0
  137.4231   69.7905  221.9013 H   0  0  0  0  0  0  0  0  0  0  0  0
  137.1495   68.0806  221.3673 H   0  0  0  0  0  0  0  0  0  0  0  0
  136.4010   68.5550  223.2710 N   0  0  0  0  0  0  0  0  0  0  0  0
  135.0990   68.1650  222.6900 C   0  0  0  0  0  0  0  0  0  0  0  0
  134.8240   68.8876  221.9076 H   0  0  0  0  0  0  0  0  0  0  0  0
  135.1944   67.1541  222.2670 H   0  0  0  0  0  0  0  0  0  0  0  0
  133.9940   68.1430  223.7660 C   0  0  0  0  0  0  0  0  0  0  0  0
  133.2928   68.9694  223.5780 H   0  0  0  0  0  0  0  0  0  0  0  0
  133.4737   67.1753  223.7131 H   0  0  0  0  0  0  0  0  0  0  0  0
  134.5420   68.2880  225.0600 O   0  0  0  0  0  0  0  0  0  0  0  0
  135.1640   69.5560  225.1710 C   0  0  0  0  0  0  0  0  0  0  0  0
  134.3969   70.3373  225.0655 H   0  0  0  0  0  0  0  0  0  0  0  0
  135.6545   69.6064  226.1543 H   0  0  0  0  0  0  0  0  0  0  0  0
  136.2450   69.7720  224.0910 C   0  0  0  0  0  0  0  0  0  0  0  0
  135.9484   70.6102  223.4434 H   0  0  0  0  0  0  0  0  0  0  0  0
  137.2026   69.9965  224.5835 H   0  0  0  0  0  0  0  0  0  0  0  0
  139.5690   73.4240  221.9030 C   0  0  0  0  0  0  0  0  0  0  0  0
  140.2130   74.6090  222.1110 N   0  0  0  0  0  0  0  0  0  0  0  0
  139.5180   75.7610  222.3170 C   0  0  0  0  0  0  0  0  0  0  0  0
  140.0536   76.7056  222.4929 H   0  0  0  0  0  0  0  0  0  0  0  0
  138.1200   75.7380  222.3040 C   0  0  0  0  0  0  0  0  0  0  0  0
  137.5483   76.6692  222.4304 H   0  0  0  0  0  0  0  0  0  0  0  0
  137.4750   74.5560  222.1340 N   0  0  0  0  0  0  0  0  0  0  0  0
  138.1690   73.3970  221.9450 C   0  0  0  0  0  0  0  0  0  0  0  0
  137.6314   72.4447  221.8260 H   0  0  0  0  0  0  0  0  0  0  0  0
  1  2  1  0
  2  3  2  0
  3  4  1  0
  3  5  1  0
  5  6  2  0
  6  7  1  0
  7  8  2  0
  8  9  1  0
  8 10  1  0
 10 11  1  0
 10 12  2  0
 12 13  1  0
 12 14  1  0
 14 15  1  0
 14 16  2  0
 16 17  1  0
 17 18  2  0
 17 19  1  0
 19 20  1  0
 20 21  1  0
 20 22  1  0
 20 23  1  0
 23 24  1  0
 23 25  1  0
 23 26  1  0
 26 27  1  0
 27 28  1  0
 27 29  1  0
 27 30  1  0
 30 31  1  0
 30 32  1  0
 30 33  1  0
 33 34  1  0
 34 35  1  0
 34 36  1  0
 34 37  1  0
 37 38  1  0
 37 39  1  0
  2 40  1  0
 40 41  2  0
 41 42  1  0
 42 43  1  0
 42 44  2  0
 44 45  1  0
 44 46  1  0
 46 47  2  0
 47 48  1  0
 19  5  1  0
 37 26  1  0
 47 40  1  0
 16  7  1  0
M  END
>  <UniqueID>  (80) 
509

>  <SMILES>  (80) 
O=c1c2ccccc2nc(/C=C/c2cnccn2)n1CCN1CCOCC1

>  <Energy>  (80) 
79.96797103957768

>  <Genealogy>  (80) 
O=c1c2ccccc2nc(/C=C/c2cnccn2)n1CCN1CCOCC1 (cis-trans isomerization)
O=c1c2ccccc2nc(/C=C/c2cnccn2)n1CCN1CCOCC1 (3D coordinates assigned)
O=c1c2ccccc2nc(/C=C/c2cnccn2)n1CCN1CCOCC1 (nonaromatic ring conformer: 79.96797103957768 kcal/mol)

>  <smiles>  (80) 
O=c1c2ccccc2nc(/C=C/c2cnccn2)n1CCN1CCOCC1

>  <score_type>  (80) 
oracle

>  <origin>  (80) 
autodockgpu

>  <m_score__min__energy>  (80) 
-7.7300000000000004

>  <m_primary>  (80) 
energy

>  <meeko>  (80) 
{"free_energy": -7.37, "intermolecular_energy": -9.16, "internal_energy": -1.41, "cluster_size": 12, "cluster_id": 1, "rank_in_cluster": 9}

>  <energy>  (80) 
-5.65

>  <cluster_rmsd>  (80) 
0.4

>  <rmsd>  (80) 
271.32

>  <cluster>  (80) 
4

$$$$
