CAKHBICIDRAWDR-CCEZHUSRNA-N
     RDKit          3D

 48 51  0  0  0  0  0  0  0  0999 V2000
  136.2089   71.1092  222.2849 H   0  0  0  0  0  0  0  0  0  0  0  0
  136.8120   71.8090  222.8820 C   0  0  0  0  0  0  0  0  0  0  0  0
  138.1260   71.5830  222.9880 C   0  0  0  0  0  0  0  0  0  0  0  0
  138.8061   71.9698  222.2148 H   0  0  0  0  0  0  0  0  0  0  0  0
  138.6760   70.8250  224.1230 C   0  0  0  0  0  0  0  0  0  0  0  0
  139.4070   71.5160  225.0350 N   0  0  0  0  0  0  0  0  0  0  0  0
  139.9540   70.9130  226.1160 C   0  0  0  0  0  0  0  0  0  0  0  0
  140.7050   71.6610  227.0310 C   0  0  0  0  0  0  0  0  0  0  0  0
  140.8449   72.7408  226.8744 H   0  0  0  0  0  0  0  0  0  0  0  0
  141.2770   71.0370  228.1430 C   0  0  0  0  0  0  0  0  0  0  0  0
  141.8663   71.6263  228.8610 H   0  0  0  0  0  0  0  0  0  0  0  0
  141.1010   69.6640  228.3440 C   0  0  0  0  0  0  0  0  0  0  0  0
  141.5533   69.1751  229.2195 H   0  0  0  0  0  0  0  0  0  0  0  0
  140.3510   68.9110  227.4340 C   0  0  0  0  0  0  0  0  0  0  0  0
  140.2147   67.8315  227.5955 H   0  0  0  0  0  0  0  0  0  0  0  0
  139.7700   69.5330  226.3110 C   0  0  0  0  0  0  0  0  0  0  0  0
  139.0010   68.8230  225.3700 C   0  0  0  0  0  0  0  0  0  0  0  0
  138.8260   67.5810  225.5220 O   0  0  0  0  0  0  0  0  0  0  0  0
  138.4470   69.4760  224.2910 N   0  0  0  0  0  0  0  0  0  0  0  0
  137.5960   68.7300  223.3360 C   0  0  0  0  0  0  0  0  0  0  0  0
  137.7713   69.1234  222.3238 H   0  0  0  0  0  0  0  0  0  0  0  0
  137.8653   67.6657  223.4054 H   0  0  0  0  0  0  0  0  0  0  0  0
  136.1240   68.8570  223.6590 C   0  0  0  0  0  0  0  0  0  0  0  0
  135.1330   68.5550  222.7030 C   0  0  0  0  0  0  0  0  0  0  0  0
  135.4254   68.2234  221.6958 H   0  0  0  0  0  0  0  0  0  0  0  0
  133.7780   68.6760  223.0320 C   0  0  0  0  0  0  0  0  0  0  0  0
  133.0089   68.4650  222.2744 H   0  0  0  0  0  0  0  0  0  0  0  0
  133.3990   69.0640  224.3200 C   0  0  0  0  0  0  0  0  0  0  0  0
  132.3330   69.1489  224.5776 H   0  0  0  0  0  0  0  0  0  0  0  0
  134.3740   69.3440  225.2800 C   0  0  0  0  0  0  0  0  0  0  0  0
  134.0746   69.6416  226.2958 H   0  0  0  0  0  0  0  0  0  0  0  0
  135.7280   69.2470  224.9530 C   0  0  0  0  0  0  0  0  0  0  0  0
  136.4908   69.4768  225.7115 H   0  0  0  0  0  0  0  0  0  0  0  0
  136.1280   72.9510  223.5260 C   0  0  0  0  0  0  0  0  0  0  0  0
  136.1940   74.2540  222.9930 C   0  0  0  0  0  0  0  0  0  0  0  0
  136.7920   74.4475  222.0902 H   0  0  0  0  0  0  0  0  0  0  0  0
  135.5020   75.3010  223.6080 C   0  0  0  0  0  0  0  0  0  0  0  0
  135.5576   76.3157  223.1870 H   0  0  0  0  0  0  0  0  0  0  0  0
  134.7400   75.0650  224.7550 C   0  0  0  0  0  0  0  0  0  0  0  0
  134.1984   75.8943  225.2335 H   0  0  0  0  0  0  0  0  0  0  0  0
  134.6630   73.7680  225.3010 C   0  0  0  0  0  0  0  0  0  0  0  0
  133.9150   73.4780  226.4560 O   0  0  0  0  0  0  0  0  0  0  0  0
  133.4790   72.1700  226.8260 C   0  0  0  0  0  0  0  0  0  0  0  0
  133.4520   72.0891  227.9227 H   0  0  0  0  0  0  0  0  0  0  0  0
  132.4725   71.9905  226.4202 H   0  0  0  0  0  0  0  0  0  0  0  0
  134.1766   71.4225  226.4202 H   0  0  0  0  0  0  0  0  0  0  0  0
  135.3520   72.7200  224.6740 C   0  0  0  0  0  0  0  0  0  0  0  0
  135.2839   71.7027  225.0868 H   0  0  0  0  0  0  0  0  0  0  0  0
  1  2  1  0
  2  3  2  0
  3  4  1  0
  3  5  1  0
  5  6  2  0
  6  7  1  0
  7  8  2  0
  8  9  1  0
  8 10  1  0
 10 11  1  0
 10 12  2  0
 12 13  1  0
 12 14  1  0
 14 15  1  0
 14 16  2  0
 16 17  1  0
 17 18  2  0
 17 19  1  0
 19 20  1  0
 20 21  1  0
 20 22  1  0
 20 23  1  0
 23 24  2  0
 24 25  1  0
 24 26  1  0
 26 27  1  0
 26 28  2  0
 28 29  1  0
 28 30  1  0
 30 31  1  0
 30 32  2  0
 32 33  1  0
  2 34  1  0
 34 35  2  0
 35 36  1  0
 35 37  1  0
 37 38  1  0
 37 39  2  0
 39 40  1  0
 39 41  1  0
 41 42  1  0
 42 43  1  0
 43 44  1  0
 43 45  1  0
 43 46  1  0
 41 47  2  0
 47 48  1  0
 19  5  1  0
 32 23  1  0
 47 34  1  0
 16  7  1  0
M  END
>  <UniqueID>  (1) 
75

>  <SMILES>  (1) 
COc1cccc(/C=C/c2nc3ccccc3c(=O)n2Cc2ccccc2)c1

>  <Energy>  (1) 
68.68811401484191

>  <Genealogy>  (1) 
COc1cccc(/C=C/c2nc3ccccc3c(=O)n2Cc2ccccc2)c1 (cis-trans isomerization)
COc1cccc(/C=C/c2nc3ccccc3c(=O)n2Cc2ccccc2)c1 (3D coordinates assigned)
COc1cccc(/C=C/c2nc3ccccc3c(=O)n2Cc2ccccc2)c1 (optimized conformer: 68.68811401484191 kcal/mol)

>  <smiles>  (1) 
COc1cccc(/C=C/c2nc3ccccc3c(=O)n2Cc2ccccc2)c1

>  <score_type>  (1) 
oracle

>  <origin>  (1) 
autodockgpu

>  <m_score__min__energy>  (1) 
-7.6600000000000001

>  <m_primary>  (1) 
energy

>  <meeko>  (1) 
{"free_energy": -7.11, "intermolecular_energy": -8.9, "internal_energy": -1.78, "cluster_size": 5, "cluster_id": 3, "rank_in_cluster": 3}

>  <energy>  (1) 
-7.66

>  <cluster_rmsd>  (1) 
0.0

>  <rmsd>  (1) 
271.33

>  <cluster>  (1) 
1

$$$$
CAKHBICIDRAWDR-CCEZHUSRNA-N
     RDKit          3D

 48 51  0  0  0  0  0  0  0  0999 V2000
  141.7887   72.5848  222.1476 H   0  0  0  0  0  0  0  0  0  0  0  0
  140.7170   72.6250  222.3920 C   0  0  0  0  0  0  0  0  0  0  0  0
  139.9640   73.5550  221.7940 C   0  0  0  0  0  0  0  0  0  0  0  0
  138.9315   73.3106  221.5039 H   0  0  0  0  0  0  0  0  0  0  0  0
  140.4940   74.8990  221.5180 C   0  0  0  0  0  0  0  0  0  0  0  0
  140.1130   75.9010  222.3510 N   0  0  0  0  0  0  0  0  0  0  0  0
  140.5470   77.1720  222.1860 C   0  0  0  0  0  0  0  0  0  0  0  0
  140.1260   78.1770  223.0650 C   0  0  0  0  0  0  0  0  0  0  0  0
  139.4469   77.9316  223.8948 H   0  0  0  0  0  0  0  0  0  0  0  0
  140.5670   79.4910  222.8900 C   0  0  0  0  0  0  0  0  0  0  0  0
  140.2358   80.2790  223.5824 H   0  0  0  0  0  0  0  0  0  0  0  0
  141.4300   79.8050  221.8340 C   0  0  0  0  0  0  0  0  0  0  0  0
  141.7749   80.8404  221.6964 H   0  0  0  0  0  0  0  0  0  0  0  0
  141.8550   78.8050  220.9530 C   0  0  0  0  0  0  0  0  0  0  0  0
  142.5338   79.0559  220.1246 H   0  0  0  0  0  0  0  0  0  0  0  0
  141.4160   77.4780  221.1240 C   0  0  0  0  0  0  0  0  0  0  0  0
  141.8180   76.4340  220.2700 C   0  0  0  0  0  0  0  0  0  0  0  0
  142.5950   76.6870  219.3060 O   0  0  0  0  0  0  0  0  0  0  0  0
  141.3670   75.1500  220.4810 N   0  0  0  0  0  0  0  0  0  0  0  0
  141.8400   74.0500  219.6090 C   0  0  0  0  0  0  0  0  0  0  0  0
  141.1717   73.1856  219.7365 H   0  0  0  0  0  0  0  0  0  0  0  0
  141.8311   74.4161  218.5717 H   0  0  0  0  0  0  0  0  0  0  0  0
  143.2530   73.6240  219.9360 C   0  0  0  0  0  0  0  0  0  0  0  0
  144.1890   74.5310  220.4730 C   0  0  0  0  0  0  0  0  0  0  0  0
  143.8971   75.5752  220.6583 H   0  0  0  0  0  0  0  0  0  0  0  0
  145.4890   74.1060  220.7710 C   0  0  0  0  0  0  0  0  0  0  0  0
  146.2235   74.8239  221.1648 H   0  0  0  0  0  0  0  0  0  0  0  0
  145.8570   72.7730  220.5700 C   0  0  0  0  0  0  0  0  0  0  0  0
  146.8769   72.4410  220.8140 H   0  0  0  0  0  0  0  0  0  0  0  0
  144.9290   71.8620  220.0590 C   0  0  0  0  0  0  0  0  0  0  0  0
  145.2169   70.8109  219.9093 H   0  0  0  0  0  0  0  0  0  0  0  0
  143.6370   72.2830  219.7380 C   0  0  0  0  0  0  0  0  0  0  0  0
  142.9139   71.5627  219.3277 H   0  0  0  0  0  0  0  0  0  0  0  0
  140.1820   71.6480  223.3650 C   0  0  0  0  0  0  0  0  0  0  0  0
  139.1910   70.7110  223.0100 C   0  0  0  0  0  0  0  0  0  0  0  0
  138.7720   70.7152  221.9929 H   0  0  0  0  0  0  0  0  0  0  0  0
  138.7390   69.7770  223.9450 C   0  0  0  0  0  0  0  0  0  0  0  0
  137.9647   69.0490  223.6612 H   0  0  0  0  0  0  0  0  0  0  0  0
  139.2660   69.7630  225.2400 C   0  0  0  0  0  0  0  0  0  0  0  0
  138.9051   69.0246  225.9711 H   0  0  0  0  0  0  0  0  0  0  0  0
  140.2580   70.6920  225.6110 C   0  0  0  0  0  0  0  0  0  0  0  0
  140.8180   70.7240  226.9010 O   0  0  0  0  0  0  0  0  0  0  0  0
  140.7590   71.8500  227.7770 C   0  0  0  0  0  0  0  0  0  0  0  0
  140.7771   71.5038  228.8209 H   0  0  0  0  0  0  0  0  0  0  0  0
  141.6241   72.5038  227.5925 H   0  0  0  0  0  0  0  0  0  0  0  0
  139.8303   72.4099  227.5925 H   0  0  0  0  0  0  0  0  0  0  0  0
  140.7140   71.6200  224.6660 C   0  0  0  0  0  0  0  0  0  0  0  0
  141.4997   72.3372  224.9459 H   0  0  0  0  0  0  0  0  0  0  0  0
  1  2  1  0
  2  3  2  0
  3  4  1  0
  3  5  1  0
  5  6  2  0
  6  7  1  0
  7  8  2  0
  8  9  1  0
  8 10  1  0
 10 11  1  0
 10 12  2  0
 12 13  1  0
 12 14  1  0
 14 15  1  0
 14 16  2  0
 16 17  1  0
 17 18  2  0
 17 19  1  0
 19 20  1  0
 20 21  1  0
 20 22  1  0
 20 23  1  0
 23 24  2  0
 24 25  1  0
 24 26  1  0
 26 27  1  0
 26 28  2  0
 28 29  1  0
 28 30  1  0
 30 31  1  0
 30 32  2  0
 32 33  1  0
  2 34  1  0
 34 35  2  0
 35 36  1  0
 35 37  1  0
 37 38  1  0
 37 39  2  0
 39 40  1  0
 39 41  1  0
 41 42  1  0
 42 43  1  0
 43 44  1  0
 43 45  1  0
 43 46  1  0
 41 47  2  0
 47 48  1  0
 19  5  1  0
 32 23  1  0
 47 34  1  0
 16  7  1  0
M  END
>  <UniqueID>  (2) 
75

>  <SMILES>  (2) 
COc1cccc(/C=C/c2nc3ccccc3c(=O)n2Cc2ccccc2)c1

>  <Energy>  (2) 
68.68811401484191

>  <Genealogy>  (2) 
COc1cccc(/C=C/c2nc3ccccc3c(=O)n2Cc2ccccc2)c1 (cis-trans isomerization)
COc1cccc(/C=C/c2nc3ccccc3c(=O)n2Cc2ccccc2)c1 (3D coordinates assigned)
COc1cccc(/C=C/c2nc3ccccc3c(=O)n2Cc2ccccc2)c1 (optimized conformer: 68.68811401484191 kcal/mol)

>  <smiles>  (2) 
COc1cccc(/C=C/c2nc3ccccc3c(=O)n2Cc2ccccc2)c1

>  <score_type>  (2) 
oracle

>  <origin>  (2) 
autodockgpu

>  <m_score__min__energy>  (2) 
-7.6600000000000001

>  <m_primary>  (2) 
energy

>  <meeko>  (2) 
{"free_energy": -7.6, "intermolecular_energy": -9.39, "internal_energy": -1.12, "cluster_size": 4, "cluster_id": 2, "rank_in_cluster": 2}

>  <energy>  (2) 
-7.63

>  <cluster_rmsd>  (2) 
0.09

>  <rmsd>  (2) 
271.34

>  <cluster>  (2) 
1

$$$$
CAKHBICIDRAWDR-CCEZHUSRNA-N
     RDKit          3D

 48 51  0  0  0  0  0  0  0  0999 V2000
  141.0819   70.8407  221.0504 H   0  0  0  0  0  0  0  0  0  0  0  0
  140.9190   71.8660  221.4140 C   0  0  0  0  0  0  0  0  0  0  0  0
  139.9190   72.0820  222.2750 C   0  0  0  0  0  0  0  0  0  0  0  0
  139.1488   72.8292  222.0331 H   0  0  0  0  0  0  0  0  0  0  0  0
  139.8320   71.3370  223.5400 C   0  0  0  0  0  0  0  0  0  0  0  0
  140.4810   71.8570  224.6140 N   0  0  0  0  0  0  0  0  0  0  0  0
  140.4610   71.2500  225.8230 C   0  0  0  0  0  0  0  0  0  0  0  0
  141.1470   71.8170  226.9040 C   0  0  0  0  0  0  0  0  0  0  0  0
  141.6969   72.7604  226.7716 H   0  0  0  0  0  0  0  0  0  0  0  0
  141.1340   71.1860  228.1510 C   0  0  0  0  0  0  0  0  0  0  0  0
  141.6743   71.6323  228.9989 H   0  0  0  0  0  0  0  0  0  0  0  0
  140.4340   69.9870  228.3210 C   0  0  0  0  0  0  0  0  0  0  0  0
  140.4256   69.4917  229.3031 H   0  0  0  0  0  0  0  0  0  0  0  0
  139.7450   69.4160  227.2470 C   0  0  0  0  0  0  0  0  0  0  0  0
  139.1955   68.4733  227.3862 H   0  0  0  0  0  0  0  0  0  0  0  0
  139.7530   70.0460  225.9860 C   0  0  0  0  0  0  0  0  0  0  0  0
  139.0710   69.5180  224.8750 C   0  0  0  0  0  0  0  0  0  0  0  0
  138.4330   68.4350  224.9970 O   0  0  0  0  0  0  0  0  0  0  0  0
  139.1030   70.1730  223.6640 N   0  0  0  0  0  0  0  0  0  0  0  0
  138.3380   69.6360  222.5150 C   0  0  0  0  0  0  0  0  0  0  0  0
  137.3296   69.3622  222.8588 H   0  0  0  0  0  0  0  0  0  0  0  0
  138.3014   70.4172  221.7415 H   0  0  0  0  0  0  0  0  0  0  0  0
  138.9920   68.4160  221.9080 C   0  0  0  0  0  0  0  0  0  0  0  0
  139.9040   68.5250  220.8390 C   0  0  0  0  0  0  0  0  0  0  0  0
  140.1488   69.5146  220.4256 H   0  0  0  0  0  0  0  0  0  0  0  0
  140.4990   67.3780  220.3020 C   0  0  0  0  0  0  0  0  0  0  0  0
  141.1899   67.4667  219.4506 H   0  0  0  0  0  0  0  0  0  0  0  0
  140.2190   66.1200  220.8430 C   0  0  0  0  0  0  0  0  0  0  0  0
  140.6956   65.2217  220.4237 H   0  0  0  0  0  0  0  0  0  0  0  0
  139.3330   66.0050  221.9170 C   0  0  0  0  0  0  0  0  0  0  0  0
  139.1196   65.0159  222.3484 H   0  0  0  0  0  0  0  0  0  0  0  0
  138.7170   67.1430  222.4450 C   0  0  0  0  0  0  0  0  0  0  0  0
  138.0134   67.0441  223.2847 H   0  0  0  0  0  0  0  0  0  0  0  0
  141.8180   72.9350  220.9250 C   0  0  0  0  0  0  0  0  0  0  0  0
  141.3350   74.2130  220.5810 C   0  0  0  0  0  0  0  0  0  0  0  0
  140.2577   74.4265  220.6426 H   0  0  0  0  0  0  0  0  0  0  0  0
  142.2190   75.2100  220.1620 C   0  0  0  0  0  0  0  0  0  0  0  0
  141.8349   76.2057  219.8954 H   0  0  0  0  0  0  0  0  0  0  0  0
  143.5900   74.9480  220.0800 C   0  0  0  0  0  0  0  0  0  0  0  0
  144.2807   75.7374  219.7485 H   0  0  0  0  0  0  0  0  0  0  0  0
  144.0890   73.6750  220.4210 C   0  0  0  0  0  0  0  0  0  0  0  0
  145.4580   73.3580  220.3510 O   0  0  0  0  0  0  0  0  0  0  0  0
  146.3450   73.3670  221.4690 C   0  0  0  0  0  0  0  0  0  0  0  0
  145.7605   73.3611  222.4008 H   0  0  0  0  0  0  0  0  0  0  0  0
  146.9882   72.4753  221.4339 H   0  0  0  0  0  0  0  0  0  0  0  0
  146.9700   74.2715  221.4339 H   0  0  0  0  0  0  0  0  0  0  0  0
  143.1980   72.6820  220.8500 C   0  0  0  0  0  0  0  0  0  0  0  0
  143.5842   71.6913  221.1318 H   0  0  0  0  0  0  0  0  0  0  0  0
  1  2  1  0
  2  3  2  0
  3  4  1  0
  3  5  1  0
  5  6  2  0
  6  7  1  0
  7  8  2  0
  8  9  1  0
  8 10  1  0
 10 11  1  0
 10 12  2  0
 12 13  1  0
 12 14  1  0
 14 15  1  0
 14 16  2  0
 16 17  1  0
 17 18  2  0
 17 19  1  0
 19 20  1  0
 20 21  1  0
 20 22  1  0
 20 23  1  0
 23 24  2  0
 24 25  1  0
 24 26  1  0
 26 27  1  0
 26 28  2  0
 28 29  1  0
 28 30  1  0
 30 31  1  0
 30 32  2  0
 32 33  1  0
  2 34  1  0
 34 35  2  0
 35 36  1  0
 35 37  1  0
 37 38  1  0
 37 39  2  0
 39 40  1  0
 39 41  1  0
 41 42  1  0
 42 43  1  0
 43 44  1  0
 43 45  1  0
 43 46  1  0
 41 47  2  0
 47 48  1  0
 19  5  1  0
 32 23  1  0
 47 34  1  0
 16  7  1  0
M  END
>  <UniqueID>  (3) 
75

>  <SMILES>  (3) 
COc1cccc(/C=C/c2nc3ccccc3c(=O)n2Cc2ccccc2)c1

>  <Energy>  (3) 
68.68811401484191

>  <Genealogy>  (3) 
COc1cccc(/C=C/c2nc3ccccc3c(=O)n2Cc2ccccc2)c1 (cis-trans isomerization)
COc1cccc(/C=C/c2nc3ccccc3c(=O)n2Cc2ccccc2)c1 (3D coordinates assigned)
COc1cccc(/C=C/c2nc3ccccc3c(=O)n2Cc2ccccc2)c1 (optimized conformer: 68.68811401484191 kcal/mol)

>  <smiles>  (3) 
COc1cccc(/C=C/c2nc3ccccc3c(=O)n2Cc2ccccc2)c1

>  <score_type>  (3) 
oracle

>  <origin>  (3) 
autodockgpu

>  <m_score__min__energy>  (3) 
-7.6600000000000001

>  <m_primary>  (3) 
energy

>  <meeko>  (3) 
{"free_energy": -7.63, "intermolecular_energy": -9.42, "internal_energy": -1.18, "cluster_size": 5, "cluster_id": 1, "rank_in_cluster": 2}

>  <energy>  (3) 
-7.46

>  <cluster_rmsd>  (3) 
1.61

>  <rmsd>  (3) 
271.24

>  <cluster>  (3) 
1

$$$$
CAKHBICIDRAWDR-CCEZHUSRNA-N
     RDKit          3D

 48 51  0  0  0  0  0  0  0  0999 V2000
  137.7456   72.6325  222.1169 H   0  0  0  0  0  0  0  0  0  0  0  0
  138.8420   72.5450  222.1010 C   0  0  0  0  0  0  0  0  0  0  0  0
  139.3840   71.3280  222.2320 C   0  0  0  0  0  0  0  0  0  0  0  0
  139.6611   70.7594  221.3320 H   0  0  0  0  0  0  0  0  0  0  0  0
  139.6150   70.7390  223.5590 C   0  0  0  0  0  0  0  0  0  0  0  0
  140.1900   71.5310  224.5000 N   0  0  0  0  0  0  0  0  0  0  0  0
  140.4420   71.0860  225.7520 C   0  0  0  0  0  0  0  0  0  0  0  0
  141.0410   71.9350  226.6920 C   0  0  0  0  0  0  0  0  0  0  0  0
  141.3006   72.9670  226.4135 H   0  0  0  0  0  0  0  0  0  0  0  0
  141.3090   71.4720  227.9830 C   0  0  0  0  0  0  0  0  0  0  0  0
  141.7797   72.1396  228.7197 H   0  0  0  0  0  0  0  0  0  0  0  0
  140.9790   70.1600  228.3390 C   0  0  0  0  0  0  0  0  0  0  0  0
  141.1916   69.7978  229.3557 H   0  0  0  0  0  0  0  0  0  0  0  0
  140.3800   69.3080  227.4070 C   0  0  0  0  0  0  0  0  0  0  0  0
  140.1227   68.2771  227.6917 H   0  0  0  0  0  0  0  0  0  0  0  0
  140.1050   69.7670  226.1030 C   0  0  0  0  0  0  0  0  0  0  0  0
  139.4980   68.9530  225.1290 C   0  0  0  0  0  0  0  0  0  0  0  0
  139.1910   67.7620  225.4200 O   0  0  0  0  0  0  0  0  0  0  0  0
  139.2430   69.4480  223.8690 N   0  0  0  0  0  0  0  0  0  0  0  0
  138.5550   68.5990  222.8700 C   0  0  0  0  0  0  0  0  0  0  0  0
  138.7652   68.9944  221.8653 H   0  0  0  0  0  0  0  0  0  0  0  0
  138.9319   67.5721  222.9854 H   0  0  0  0  0  0  0  0  0  0  0  0
  137.0570   68.5670  223.0760 C   0  0  0  0  0  0  0  0  0  0  0  0
  136.2220   67.7570  222.2800 C   0  0  0  0  0  0  0  0  0  0  0  0
  136.6577   67.1339  221.4851 H   0  0  0  0  0  0  0  0  0  0  0  0
  134.8400   67.7440  222.4990 C   0  0  0  0  0  0  0  0  0  0  0  0
  134.1896   67.1300  221.8587 H   0  0  0  0  0  0  0  0  0  0  0  0
  134.2830   68.5080  223.5280 C   0  0  0  0  0  0  0  0  0  0  0  0
  133.1970   68.4880  223.7017 H   0  0  0  0  0  0  0  0  0  0  0  0
  135.1050   69.2970  224.3360 C   0  0  0  0  0  0  0  0  0  0  0  0
  134.6665   69.8909  225.1515 H   0  0  0  0  0  0  0  0  0  0  0  0
  136.4830   69.3330  224.1100 C   0  0  0  0  0  0  0  0  0  0  0  0
  137.1243   69.9635  224.7434 H   0  0  0  0  0  0  0  0  0  0  0  0
  139.6420   73.7780  221.9360 C   0  0  0  0  0  0  0  0  0  0  0  0
  140.9300   73.7580  221.3650 C   0  0  0  0  0  0  0  0  0  0  0  0
  141.3782   72.8017  221.0574 H   0  0  0  0  0  0  0  0  0  0  0  0
  141.6400   74.9480  221.1880 C   0  0  0  0  0  0  0  0  0  0  0  0
  142.6450   74.9248  220.7413 H   0  0  0  0  0  0  0  0  0  0  0  0
  141.0790   76.1680  221.5760 C   0  0  0  0  0  0  0  0  0  0  0  0
  141.6440   77.1011  221.4344 H   0  0  0  0  0  0  0  0  0  0  0  0
  139.7920   76.2060  222.1480 C   0  0  0  0  0  0  0  0  0  0  0  0
  139.1840   77.4060  222.5600 O   0  0  0  0  0  0  0  0  0  0  0  0
  139.8790   78.6380  222.7500 C   0  0  0  0  0  0  0  0  0  0  0  0
  139.9897   78.8343  223.8267 H   0  0  0  0  0  0  0  0  0  0  0  0
  140.8737   78.5734  222.2849 H   0  0  0  0  0  0  0  0  0  0  0  0
  139.3092   79.4559  222.2849 H   0  0  0  0  0  0  0  0  0  0  0  0
  139.0810   75.0090  222.3140 C   0  0  0  0  0  0  0  0  0  0  0  0
  138.0698   75.0343  222.7462 H   0  0  0  0  0  0  0  0  0  0  0  0
  1  2  1  0
  2  3  2  0
  3  4  1  0
  3  5  1  0
  5  6  2  0
  6  7  1  0
  7  8  2  0
  8  9  1  0
  8 10  1  0
 10 11  1  0
 10 12  2  0
 12 13  1  0
 12 14  1  0
 14 15  1  0
 14 16  2  0
 16 17  1  0
 17 18  2  0
 17 19  1  0
 19 20  1  0
 20 21  1  0
 20 22  1  0
 20 23  1  0
 23 24  2  0
 24 25  1  0
 24 26  1  0
 26 27  1  0
 26 28  2  0
 28 29  1  0
 28 30  1  0
 30 31  1  0
 30 32  2  0
 32 33  1  0
  2 34  1  0
 34 35  2  0
 35 36  1  0
 35 37  1  0
 37 38  1  0
 37 39  2  0
 39 40  1  0
 39 41  1  0
 41 42  1  0
 42 43  1  0
 43 44  1  0
 43 45  1  0
 43 46  1  0
 41 47  2  0
 47 48  1  0
 19  5  1  0
 32 23  1  0
 47 34  1  0
 16  7  1  0
M  END
>  <UniqueID>  (4) 
75

>  <SMILES>  (4) 
COc1cccc(/C=C/c2nc3ccccc3c(=O)n2Cc2ccccc2)c1

>  <Energy>  (4) 
68.68811401484191

>  <Genealogy>  (4) 
COc1cccc(/C=C/c2nc3ccccc3c(=O)n2Cc2ccccc2)c1 (cis-trans isomerization)
COc1cccc(/C=C/c2nc3ccccc3c(=O)n2Cc2ccccc2)c1 (3D coordinates assigned)
COc1cccc(/C=C/c2nc3ccccc3c(=O)n2Cc2ccccc2)c1 (optimized conformer: 68.68811401484191 kcal/mol)

>  <smiles>  (4) 
COc1cccc(/C=C/c2nc3ccccc3c(=O)n2Cc2ccccc2)c1

>  <score_type>  (4) 
oracle

>  <origin>  (4) 
autodockgpu

>  <m_score__min__energy>  (4) 
-7.6600000000000001

>  <m_primary>  (4) 
energy

>  <meeko>  (4) 
{"free_energy": -7.29, "intermolecular_energy": -9.08, "internal_energy": -1.26, "cluster_size": 2, "cluster_id": 4, "rank_in_cluster": 1}

>  <energy>  (4) 
-7.17

>  <cluster_rmsd>  (4) 
1.21

>  <rmsd>  (4) 
271.16

>  <cluster>  (4) 
1

$$$$
CAKHBICIDRAWDR-CCEZHUSRNA-N
     RDKit          3D

 48 51  0  0  0  0  0  0  0  0999 V2000
  134.5046   71.0036  222.6714 H   0  0  0  0  0  0  0  0  0  0  0  0
  135.1140   70.6380  223.5110 C   0  0  0  0  0  0  0  0  0  0  0  0
  136.2030   69.9110  223.2360 C   0  0  0  0  0  0  0  0  0  0  0  0
  136.1264   69.0656  222.5364 H   0  0  0  0  0  0  0  0  0  0  0  0
  137.5000   70.2230  223.8530 C   0  0  0  0  0  0  0  0  0  0  0  0
  137.8320   69.5420  224.9800 N   0  0  0  0  0  0  0  0  0  0  0  0
  139.0040   69.7520  225.6230 C   0  0  0  0  0  0  0  0  0  0  0  0
  139.3060   69.0310  226.7840 C   0  0  0  0  0  0  0  0  0  0  0  0
  138.5928   68.2880  227.1704 H   0  0  0  0  0  0  0  0  0  0  0  0
  140.5130   69.2540  227.4530 C   0  0  0  0  0  0  0  0  0  0  0  0
  140.7490   68.6858  228.3649 H   0  0  0  0  0  0  0  0  0  0  0  0
  141.4210   70.1990  226.9640 C   0  0  0  0  0  0  0  0  0  0  0  0
  142.3692   70.3741  227.4934 H   0  0  0  0  0  0  0  0  0  0  0  0
  141.1260   70.9220  225.8030 C   0  0  0  0  0  0  0  0  0  0  0  0
  141.8431   71.6636  225.4211 H   0  0  0  0  0  0  0  0  0  0  0  0
  139.9120   70.7020  225.1220 C   0  0  0  0  0  0  0  0  0  0  0  0
  139.5700   71.3970  223.9480 C   0  0  0  0  0  0  0  0  0  0  0  0
  140.3680   72.2590  223.4820 O   0  0  0  0  0  0  0  0  0  0  0  0
  138.3740   71.1430  223.3130 N   0  0  0  0  0  0  0  0  0  0  0  0
  138.0480   71.8410  222.0480 C   0  0  0  0  0  0  0  0  0  0  0  0
  138.9219   71.7922  221.3818 H   0  0  0  0  0  0  0  0  0  0  0  0
  137.1751   71.3409  221.6031 H   0  0  0  0  0  0  0  0  0  0  0  0
  137.6860   73.2930  222.2700 C   0  0  0  0  0  0  0  0  0  0  0  0
  138.5900   74.3310  221.9650 C   0  0  0  0  0  0  0  0  0  0  0  0
  139.5846   74.0913  221.5609 H   0  0  0  0  0  0  0  0  0  0  0  0
  138.2250   75.6650  222.1750 C   0  0  0  0  0  0  0  0  0  0  0  0
  138.9435   76.4699  221.9607 H   0  0  0  0  0  0  0  0  0  0  0  0
  136.9510   75.9790  222.6560 C   0  0  0  0  0  0  0  0  0  0  0  0
  136.6651   77.0297  222.8116 H   0  0  0  0  0  0  0  0  0  0  0  0
  136.0410   74.9580  222.9390 C   0  0  0  0  0  0  0  0  0  0  0  0
  135.0351   75.2065  223.3085 H   0  0  0  0  0  0  0  0  0  0  0  0
  136.4050   73.6220  222.7540 C   0  0  0  0  0  0  0  0  0  0  0  0
  135.6868   72.8223  222.9877 H   0  0  0  0  0  0  0  0  0  0  0  0
  134.6880   70.9750  224.8870 C   0  0  0  0  0  0  0  0  0  0  0  0
  134.6850   70.0180  225.9210 C   0  0  0  0  0  0  0  0  0  0  0  0
  134.9753   68.9789  225.7064 H   0  0  0  0  0  0  0  0  0  0  0  0
  134.3150   70.3830  227.2170 C   0  0  0  0  0  0  0  0  0  0  0  0
  134.3154   69.6301  228.0190 H   0  0  0  0  0  0  0  0  0  0  0  0
  133.9440   71.7010  227.5000 C   0  0  0  0  0  0  0  0  0  0  0  0
  133.6528   71.9811  228.5231 H   0  0  0  0  0  0  0  0  0  0  0  0
  133.9420   72.6710  226.4790 C   0  0  0  0  0  0  0  0  0  0  0  0
  133.5730   74.0090  226.7080 O   0  0  0  0  0  0  0  0  0  0  0  0
  134.1660   75.1320  226.0560 C   0  0  0  0  0  0  0  0  0  0  0  0
  134.5395   75.8393  226.8111 H   0  0  0  0  0  0  0  0  0  0  0  0
  135.0019   74.7916  225.4272 H   0  0  0  0  0  0  0  0  0  0  0  0
  133.4135   75.6304  225.4272 H   0  0  0  0  0  0  0  0  0  0  0  0
  134.3240   72.3010  225.1820 C   0  0  0  0  0  0  0  0  0  0  0  0
  134.3393   73.0581  224.3842 H   0  0  0  0  0  0  0  0  0  0  0  0
  1  2  1  0
  2  3  2  0
  3  4  1  0
  3  5  1  0
  5  6  2  0
  6  7  1  0
  7  8  2  0
  8  9  1  0
  8 10  1  0
 10 11  1  0
 10 12  2  0
 12 13  1  0
 12 14  1  0
 14 15  1  0
 14 16  2  0
 16 17  1  0
 17 18  2  0
 17 19  1  0
 19 20  1  0
 20 21  1  0
 20 22  1  0
 20 23  1  0
 23 24  2  0
 24 25  1  0
 24 26  1  0
 26 27  1  0
 26 28  2  0
 28 29  1  0
 28 30  1  0
 30 31  1  0
 30 32  2  0
 32 33  1  0
  2 34  1  0
 34 35  2  0
 35 36  1  0
 35 37  1  0
 37 38  1  0
 37 39  2  0
 39 40  1  0
 39 41  1  0
 41 42  1  0
 42 43  1  0
 43 44  1  0
 43 45  1  0
 43 46  1  0
 41 47  2  0
 47 48  1  0
 19  5  1  0
 32 23  1  0
 47 34  1  0
 16  7  1  0
M  END
>  <UniqueID>  (5) 
75

>  <SMILES>  (5) 
COc1cccc(/C=C/c2nc3ccccc3c(=O)n2Cc2ccccc2)c1

>  <Energy>  (5) 
68.68811401484191

>  <Genealogy>  (5) 
COc1cccc(/C=C/c2nc3ccccc3c(=O)n2Cc2ccccc2)c1 (cis-trans isomerization)
COc1cccc(/C=C/c2nc3ccccc3c(=O)n2Cc2ccccc2)c1 (3D coordinates assigned)
COc1cccc(/C=C/c2nc3ccccc3c(=O)n2Cc2ccccc2)c1 (optimized conformer: 68.68811401484191 kcal/mol)

>  <smiles>  (5) 
COc1cccc(/C=C/c2nc3ccccc3c(=O)n2Cc2ccccc2)c1

>  <score_type>  (5) 
oracle

>  <origin>  (5) 
autodockgpu

>  <m_score__min__energy>  (5) 
-7.6600000000000001

>  <m_primary>  (5) 
energy

>  <meeko>  (5) 
{"free_energy": -6.78, "intermolecular_energy": -8.57, "internal_energy": -1.85, "cluster_size": 3, "cluster_id": 5, "rank_in_cluster": 2}

>  <energy>  (5) 
-6.9

>  <cluster_rmsd>  (5) 
1.2

>  <rmsd>  (5) 
271.06

>  <cluster>  (5) 
1

$$$$
CAKHBICIDRAWDR-CCEZHUSRNA-N
     RDKit          3D

 48 51  0  0  0  0  0  0  0  0999 V2000
  140.1660   70.7177  220.7959 H   0  0  0  0  0  0  0  0  0  0  0  0
  139.9730   71.5660  221.4690 C   0  0  0  0  0  0  0  0  0  0  0  0
  139.0520   71.4180  222.4280 C   0  0  0  0  0  0  0  0  0  0  0  0
  138.0314   71.7925  222.2605 H   0  0  0  0  0  0  0  0  0  0  0  0
  139.3820   70.7630  223.7020 C   0  0  0  0  0  0  0  0  0  0  0  0
  139.9890   71.5200  224.6520 N   0  0  0  0  0  0  0  0  0  0  0  0
  140.3310   71.0130  225.8590 C   0  0  0  0  0  0  0  0  0  0  0  0
  140.9600   71.8270  226.8090 C   0  0  0  0  0  0  0  0  0  0  0  0
  141.1710   72.8811  226.5758 H   0  0  0  0  0  0  0  0  0  0  0  0
  141.3200   71.3020  228.0530 C   0  0  0  0  0  0  0  0  0  0  0  0
  141.8128   71.9434  228.7985 H   0  0  0  0  0  0  0  0  0  0  0  0
  141.0540   69.9610  228.3510 C   0  0  0  0  0  0  0  0  0  0  0  0
  141.3403   69.5492  229.3300 H   0  0  0  0  0  0  0  0  0  0  0  0
  140.4250   69.1430  227.4070 C   0  0  0  0  0  0  0  0  0  0  0  0
  140.2170   68.0895  227.6456 H   0  0  0  0  0  0  0  0  0  0  0  0
  140.0570   69.6650  226.1510 C   0  0  0  0  0  0  0  0  0  0  0  0
  139.4170   68.8870  225.1690 C   0  0  0  0  0  0  0  0  0  0  0  0
  139.1660   67.6720  225.4070 O   0  0  0  0  0  0  0  0  0  0  0  0
  139.0700   69.4440  223.9580 N   0  0  0  0  0  0  0  0  0  0  0  0
  138.3490   68.6310  222.9520 C   0  0  0  0  0  0  0  0  0  0  0  0
  138.5728   69.0273  221.9506 H   0  0  0  0  0  0  0  0  0  0  0  0
  138.6867   67.5893  223.0565 H   0  0  0  0  0  0  0  0  0  0  0  0
  136.8510   68.6550  223.1610 C   0  0  0  0  0  0  0  0  0  0  0  0
  135.9740   68.0070  222.2680 C   0  0  0  0  0  0  0  0  0  0  0  0
  136.3763   67.4732  221.3944 H   0  0  0  0  0  0  0  0  0  0  0  0
  134.5920   68.0410  222.4900 C   0  0  0  0  0  0  0  0  0  0  0  0
  133.9097   67.5563  221.7762 H   0  0  0  0  0  0  0  0  0  0  0  0
  134.0770   68.6890  223.6160 C   0  0  0  0  0  0  0  0  0  0  0  0
  132.9913   68.7060  223.7919 H   0  0  0  0  0  0  0  0  0  0  0  0
  134.9400   69.3150  224.5180 C   0  0  0  0  0  0  0  0  0  0  0  0
  134.5337   69.8168  225.4086 H   0  0  0  0  0  0  0  0  0  0  0  0
  136.3190   69.3050  224.2910 C   0  0  0  0  0  0  0  0  0  0  0  0
  136.9931   69.8082  224.9998 H   0  0  0  0  0  0  0  0  0  0  0  0
  140.7450   72.8110  221.2670 C   0  0  0  0  0  0  0  0  0  0  0  0
  141.9770   72.8210  220.5830 C   0  0  0  0  0  0  0  0  0  0  0  0
  142.4039   71.8787  220.2091 H   0  0  0  0  0  0  0  0  0  0  0  0
  142.6580   74.0230  220.3780 C   0  0  0  0  0  0  0  0  0  0  0  0
  143.6196   74.0229  219.8439 H   0  0  0  0  0  0  0  0  0  0  0  0
  142.1240   75.2260  220.8480 C   0  0  0  0  0  0  0  0  0  0  0  0
  142.6662   76.1686  220.6820 H   0  0  0  0  0  0  0  0  0  0  0  0
  140.8930   75.2350  221.5340 C   0  0  0  0  0  0  0  0  0  0  0  0
  140.3140   76.4160  222.0320 O   0  0  0  0  0  0  0  0  0  0  0  0
  141.0380   77.6170  222.3000 C   0  0  0  0  0  0  0  0  0  0  0  0
  141.1234   77.7587  223.3875 H   0  0  0  0  0  0  0  0  0  0  0  0
  142.0434   77.5451  221.8595 H   0  0  0  0  0  0  0  0  0  0  0  0
  140.5050   78.4725  221.8595 H   0  0  0  0  0  0  0  0  0  0  0  0
  140.2100   74.0260  221.7290 C   0  0  0  0  0  0  0  0  0  0  0  0
  139.2417   74.0284  222.2510 H   0  0  0  0  0  0  0  0  0  0  0  0
  1  2  1  0
  2  3  2  0
  3  4  1  0
  3  5  1  0
  5  6  2  0
  6  7  1  0
  7  8  2  0
  8  9  1  0
  8 10  1  0
 10 11  1  0
 10 12  2  0
 12 13  1  0
 12 14  1  0
 14 15  1  0
 14 16  2  0
 16 17  1  0
 17 18  2  0
 17 19  1  0
 19 20  1  0
 20 21  1  0
 20 22  1  0
 20 23  1  0
 23 24  2  0
 24 25  1  0
 24 26  1  0
 26 27  1  0
 26 28  2  0
 28 29  1  0
 28 30  1  0
 30 31  1  0
 30 32  2  0
 32 33  1  0
  2 34  1  0
 34 35  2  0
 35 36  1  0
 35 37  1  0
 37 38  1  0
 37 39  2  0
 39 40  1  0
 39 41  1  0
 41 42  1  0
 42 43  1  0
 43 44  1  0
 43 45  1  0
 43 46  1  0
 41 47  2  0
 47 48  1  0
 19  5  1  0
 32 23  1  0
 47 34  1  0
 16  7  1  0
M  END
>  <UniqueID>  (6) 
75

>  <SMILES>  (6) 
COc1cccc(/C=C/c2nc3ccccc3c(=O)n2Cc2ccccc2)c1

>  <Energy>  (6) 
68.68811401484191

>  <Genealogy>  (6) 
COc1cccc(/C=C/c2nc3ccccc3c(=O)n2Cc2ccccc2)c1 (cis-trans isomerization)
COc1cccc(/C=C/c2nc3ccccc3c(=O)n2Cc2ccccc2)c1 (3D coordinates assigned)
COc1cccc(/C=C/c2nc3ccccc3c(=O)n2Cc2ccccc2)c1 (optimized conformer: 68.68811401484191 kcal/mol)

>  <smiles>  (6) 
COc1cccc(/C=C/c2nc3ccccc3c(=O)n2Cc2ccccc2)c1

>  <score_type>  (6) 
oracle

>  <origin>  (6) 
autodockgpu

>  <m_score__min__energy>  (6) 
-7.6600000000000001

>  <m_primary>  (6) 
energy

>  <meeko>  (6) 
{"free_energy": -7.24, "intermolecular_energy": -9.03, "internal_energy": -1.21, "cluster_size": 2, "cluster_id": 4, "rank_in_cluster": 2}

>  <energy>  (6) 
-7.6

>  <cluster_rmsd>  (6) 
0.0

>  <rmsd>  (6) 
271.83

>  <cluster>  (6) 
2

$$$$
CAKHBICIDRAWDR-CCEZHUSRNA-N
     RDKit          3D

 48 51  0  0  0  0  0  0  0  0999 V2000
  136.2223   68.8240  221.7218 H   0  0  0  0  0  0  0  0  0  0  0  0
  136.6580   68.9720  222.7210 C   0  0  0  0  0  0  0  0  0  0  0  0
  137.9060   68.5420  222.9390 C   0  0  0  0  0  0  0  0  0  0  0  0
  138.3368   67.7739  222.2798 H   0  0  0  0  0  0  0  0  0  0  0  0
  138.7110   69.0800  224.0460 C   0  0  0  0  0  0  0  0  0  0  0  0
  138.9790   68.2440  225.0830 N   0  0  0  0  0  0  0  0  0  0  0  0
  139.7130   68.6410  226.1480 C   0  0  0  0  0  0  0  0  0  0  0  0
  139.9630   67.7490  227.1990 C   0  0  0  0  0  0  0  0  0  0  0  0
  139.5672   66.7236  227.1554 H   0  0  0  0  0  0  0  0  0  0  0  0
  140.7150   68.1610  228.3030 C   0  0  0  0  0  0  0  0  0  0  0  0
  140.9113   67.4595  229.1272 H   0  0  0  0  0  0  0  0  0  0  0  0
  141.2180   69.4650  228.3600 C   0  0  0  0  0  0  0  0  0  0  0  0
  141.8074   69.7877  229.2309 H   0  0  0  0  0  0  0  0  0  0  0  0
  140.9740   70.3590  227.3140 C   0  0  0  0  0  0  0  0  0  0  0  0
  141.3729   71.3829  227.3632 H   0  0  0  0  0  0  0  0  0  0  0  0
  140.2180   69.9520  226.1960 C   0  0  0  0  0  0  0  0  0  0  0  0
  139.9490   70.8100  225.1140 C   0  0  0  0  0  0  0  0  0  0  0  0
  140.3880   71.9950  225.1380 O   0  0  0  0  0  0  0  0  0  0  0  0
  139.2100   70.3650  224.0400 N   0  0  0  0  0  0  0  0  0  0  0  0
  138.9790   71.2590  222.8830 C   0  0  0  0  0  0  0  0  0  0  0  0
  138.1039   70.8954  222.3245 H   0  0  0  0  0  0  0  0  0  0  0  0
  138.8150   72.2751  223.2711 H   0  0  0  0  0  0  0  0  0  0  0  0
  140.1660   71.3080  221.9480 C   0  0  0  0  0  0  0  0  0  0  0  0
  140.3630   70.3230  220.9590 C   0  0  0  0  0  0  0  0  0  0  0  0
  139.6470   69.4938  220.8597 H   0  0  0  0  0  0  0  0  0  0  0  0
  141.4680   70.3980  220.1030 C   0  0  0  0  0  0  0  0  0  0  0  0
  141.6325   69.6128  219.3505 H   0  0  0  0  0  0  0  0  0  0  0  0
  142.3630   71.4670  220.2010 C   0  0  0  0  0  0  0  0  0  0  0  0
  143.2246   71.5276  219.5198 H   0  0  0  0  0  0  0  0  0  0  0  0
  142.1630   72.4580  221.1640 C   0  0  0  0  0  0  0  0  0  0  0  0
  142.8641   73.3026  221.2356 H   0  0  0  0  0  0  0  0  0  0  0  0
  141.0750   72.3800  222.0370 C   0  0  0  0  0  0  0  0  0  0  0  0
  140.9275   73.1603  222.7982 H   0  0  0  0  0  0  0  0  0  0  0  0
  135.8340   69.6360  223.7540 C   0  0  0  0  0  0  0  0  0  0  0  0
  135.7660   71.0390  223.8630 C   0  0  0  0  0  0  0  0  0  0  0  0
  136.3611   71.6705  223.1870 H   0  0  0  0  0  0  0  0  0  0  0  0
  134.9460   71.6310  224.8260 C   0  0  0  0  0  0  0  0  0  0  0  0
  134.8989   72.7271  224.9056 H   0  0  0  0  0  0  0  0  0  0  0  0
  134.1850   70.8380  225.6890 C   0  0  0  0  0  0  0  0  0  0  0  0
  133.5415   71.3115  226.4451 H   0  0  0  0  0  0  0  0  0  0  0  0
  134.2400   69.4330  225.5930 C   0  0  0  0  0  0  0  0  0  0  0  0
  133.5000   68.5890  226.4400 O   0  0  0  0  0  0  0  0  0  0  0  0
  133.1450   67.2420  226.1260 C   0  0  0  0  0  0  0  0  0  0  0  0
  132.9957   66.6756  227.0571 H   0  0  0  0  0  0  0  0  0  0  0  0
  132.2144   67.2353  225.5395 H   0  0  0  0  0  0  0  0  0  0  0  0
  133.9514   66.7775  225.5395 H   0  0  0  0  0  0  0  0  0  0  0  0
  135.0580   68.8450  224.6190 C   0  0  0  0  0  0  0  0  0  0  0  0
  135.0934   67.7492  224.5300 H   0  0  0  0  0  0  0  0  0  0  0  0
  1  2  1  0
  2  3  2  0
  3  4  1  0
  3  5  1  0
  5  6  2  0
  6  7  1  0
  7  8  2  0
  8  9  1  0
  8 10  1  0
 10 11  1  0
 10 12  2  0
 12 13  1  0
 12 14  1  0
 14 15  1  0
 14 16  2  0
 16 17  1  0
 17 18  2  0
 17 19  1  0
 19 20  1  0
 20 21  1  0
 20 22  1  0
 20 23  1  0
 23 24  2  0
 24 25  1  0
 24 26  1  0
 26 27  1  0
 26 28  2  0
 28 29  1  0
 28 30  1  0
 30 31  1  0
 30 32  2  0
 32 33  1  0
  2 34  1  0
 34 35  2  0
 35 36  1  0
 35 37  1  0
 37 38  1  0
 37 39  2  0
 39 40  1  0
 39 41  1  0
 41 42  1  0
 42 43  1  0
 43 44  1  0
 43 45  1  0
 43 46  1  0
 41 47  2  0
 47 48  1  0
 19  5  1  0
 32 23  1  0
 47 34  1  0
 16  7  1  0
M  END
>  <UniqueID>  (7) 
75

>  <SMILES>  (7) 
COc1cccc(/C=C/c2nc3ccccc3c(=O)n2Cc2ccccc2)c1

>  <Energy>  (7) 
68.68811401484191

>  <Genealogy>  (7) 
COc1cccc(/C=C/c2nc3ccccc3c(=O)n2Cc2ccccc2)c1 (cis-trans isomerization)
COc1cccc(/C=C/c2nc3ccccc3c(=O)n2Cc2ccccc2)c1 (3D coordinates assigned)
COc1cccc(/C=C/c2nc3ccccc3c(=O)n2Cc2ccccc2)c1 (optimized conformer: 68.68811401484191 kcal/mol)

>  <smiles>  (7) 
COc1cccc(/C=C/c2nc3ccccc3c(=O)n2Cc2ccccc2)c1

>  <score_type>  (7) 
oracle

>  <origin>  (7) 
autodockgpu

>  <m_score__min__energy>  (7) 
-7.6600000000000001

>  <m_primary>  (7) 
energy

>  <meeko>  (7) 
{"free_energy": -7.08, "intermolecular_energy": -8.87, "internal_energy": -1.6, "cluster_size": 1, "cluster_id": 6, "rank_in_cluster": 1}

>  <energy>  (7) 
-7.6

>  <cluster_rmsd>  (7) 
0.66

>  <rmsd>  (7) 
271.96

>  <cluster>  (7) 
2

$$$$
CAKHBICIDRAWDR-CCEZHUSRNA-N
     RDKit          3D

 48 51  0  0  0  0  0  0  0  0999 V2000
  139.7357   73.9319  222.3675 H   0  0  0  0  0  0  0  0  0  0  0  0
  140.1280   72.9630  222.0250 C   0  0  0  0  0  0  0  0  0  0  0  0
  139.4120   71.8620  222.2810 C   0  0  0  0  0  0  0  0  0  0  0  0
  138.6925   71.4980  221.5328 H   0  0  0  0  0  0  0  0  0  0  0  0
  139.5720   71.1310  223.5470 C   0  0  0  0  0  0  0  0  0  0  0  0
  140.2350   71.7630  224.5500 N   0  0  0  0  0  0  0  0  0  0  0  0
  140.4330   71.1780  225.7550 C   0  0  0  0  0  0  0  0  0  0  0  0
  141.1250   71.8630  226.7610 C   0  0  0  0  0  0  0  0  0  0  0  0
  141.5020   72.8794  226.5746 H   0  0  0  0  0  0  0  0  0  0  0  0
  141.3370   71.2560  228.0020 C   0  0  0  0  0  0  0  0  0  0  0  0
  141.8812   71.7950  228.7915 H   0  0  0  0  0  0  0  0  0  0  0  0
  140.8580   69.9640  228.2410 C   0  0  0  0  0  0  0  0  0  0  0  0
  141.0276   69.4879  229.2180 H   0  0  0  0  0  0  0  0  0  0  0  0
  140.1640   69.2760  227.2410 C   0  0  0  0  0  0  0  0  0  0  0  0
  139.7880   68.2604  227.4338 H   0  0  0  0  0  0  0  0  0  0  0  0
  139.9450   69.8800  225.9870 C   0  0  0  0  0  0  0  0  0  0  0  0
  139.2490   69.2340  224.9490 C   0  0  0  0  0  0  0  0  0  0  0  0
  138.8060   68.0650  225.1340 O   0  0  0  0  0  0  0  0  0  0  0  0
  139.0540   69.8690  223.7420 N   0  0  0  0  0  0  0  0  0  0  0  0
  138.2730   69.2000  222.6760 C   0  0  0  0  0  0  0  0  0  0  0  0
  137.4824   68.5949  223.1438 H   0  0  0  0  0  0  0  0  0  0  0  0
  137.8509   69.9821  222.0277 H   0  0  0  0  0  0  0  0  0  0  0  0
  139.1290   68.2990  221.8150 C   0  0  0  0  0  0  0  0  0  0  0  0
  139.0910   66.8970  221.9520 C   0  0  0  0  0  0  0  0  0  0  0  0
  138.4314   66.4368  222.7024 H   0  0  0  0  0  0  0  0  0  0  0  0
  139.8900   66.0890  221.1360 C   0  0  0  0  0  0  0  0  0  0  0  0
  139.8759   64.9966  221.2647 H   0  0  0  0  0  0  0  0  0  0  0  0
  140.7060   66.6640  220.1580 C   0  0  0  0  0  0  0  0  0  0  0  0
  141.3257   66.0243  219.5124 H   0  0  0  0  0  0  0  0  0  0  0  0
  140.7340   68.0510  220.0010 C   0  0  0  0  0  0  0  0  0  0  0  0
  141.3703   68.5025  219.2256 H   0  0  0  0  0  0  0  0  0  0  0  0
  139.9560   68.8670  220.8260 C   0  0  0  0  0  0  0  0  0  0  0  0
  139.9894   69.9595  220.7026 H   0  0  0  0  0  0  0  0  0  0  0  0
  141.4200   72.9440  221.3050 C   0  0  0  0  0  0  0  0  0  0  0  0
  142.0430   74.1270  220.8630 C   0  0  0  0  0  0  0  0  0  0  0  0
  141.5514   75.0978  221.0238 H   0  0  0  0  0  0  0  0  0  0  0  0
  143.2830   74.0730  220.2210 C   0  0  0  0  0  0  0  0  0  0  0  0
  143.7628   75.0012  219.8772 H   0  0  0  0  0  0  0  0  0  0  0  0
  143.9160   72.8440  220.0140 C   0  0  0  0  0  0  0  0  0  0  0  0
  144.8926   72.8084  219.5091 H   0  0  0  0  0  0  0  0  0  0  0  0
  143.3070   71.6510  220.4500 C   0  0  0  0  0  0  0  0  0  0  0  0
  143.8980   70.3880  220.2620 O   0  0  0  0  0  0  0  0  0  0  0  0
  143.7340   69.5880  219.0910 C   0  0  0  0  0  0  0  0  0  0  0  0
  143.5210   68.5492  219.3835 H   0  0  0  0  0  0  0  0  0  0  0  0
  142.8974   69.9796  218.4936 H   0  0  0  0  0  0  0  0  0  0  0  0
  144.6571   69.6188  218.4936 H   0  0  0  0  0  0  0  0  0  0  0  0
  142.0680   71.7130  221.1020 C   0  0  0  0  0  0  0  0  0  0  0  0
  141.5961   70.7860  221.4598 H   0  0  0  0  0  0  0  0  0  0  0  0
  1  2  1  0
  2  3  2  0
  3  4  1  0
  3  5  1  0
  5  6  2  0
  6  7  1  0
  7  8  2  0
  8  9  1  0
  8 10  1  0
 10 11  1  0
 10 12  2  0
 12 13  1  0
 12 14  1  0
 14 15  1  0
 14 16  2  0
 16 17  1  0
 17 18  2  0
 17 19  1  0
 19 20  1  0
 20 21  1  0
 20 22  1  0
 20 23  1  0
 23 24  2  0
 24 25  1  0
 24 26  1  0
 26 27  1  0
 26 28  2  0
 28 29  1  0
 28 30  1  0
 30 31  1  0
 30 32  2  0
 32 33  1  0
  2 34  1  0
 34 35  2  0
 35 36  1  0
 35 37  1  0
 37 38  1  0
 37 39  2  0
 39 40  1  0
 39 41  1  0
 41 42  1  0
 42 43  1  0
 43 44  1  0
 43 45  1  0
 43 46  1  0
 41 47  2  0
 47 48  1  0
 19  5  1  0
 32 23  1  0
 47 34  1  0
 16  7  1  0
M  END
>  <UniqueID>  (8) 
75

>  <SMILES>  (8) 
COc1cccc(/C=C/c2nc3ccccc3c(=O)n2Cc2ccccc2)c1

>  <Energy>  (8) 
68.68811401484191

>  <Genealogy>  (8) 
COc1cccc(/C=C/c2nc3ccccc3c(=O)n2Cc2ccccc2)c1 (cis-trans isomerization)
COc1cccc(/C=C/c2nc3ccccc3c(=O)n2Cc2ccccc2)c1 (3D coordinates assigned)
COc1cccc(/C=C/c2nc3ccccc3c(=O)n2Cc2ccccc2)c1 (optimized conformer: 68.68811401484191 kcal/mol)

>  <smiles>  (8) 
COc1cccc(/C=C/c2nc3ccccc3c(=O)n2Cc2ccccc2)c1

>  <score_type>  (8) 
oracle

>  <origin>  (8) 
autodockgpu

>  <m_score__min__energy>  (8) 
-7.6600000000000001

>  <m_primary>  (8) 
energy

>  <meeko>  (8) 
{"free_energy": -6.9, "intermolecular_energy": -8.69, "internal_energy": -1.61, "cluster_size": 5, "cluster_id": 1, "rank_in_cluster": 5}

>  <energy>  (8) 
-7.56

>  <cluster_rmsd>  (8) 
0.67

>  <rmsd>  (8) 
271.97

>  <cluster>  (8) 
2

$$$$
CAKHBICIDRAWDR-CCEZHUSRNA-N
     RDKit          3D

 48 51  0  0  0  0  0  0  0  0999 V2000
  135.0482   69.6299  223.5983 H   0  0  0  0  0  0  0  0  0  0  0  0
  135.5380   70.2090  224.3950 C   0  0  0  0  0  0  0  0  0  0  0  0
  136.8740   70.1930  224.4620 C   0  0  0  0  0  0  0  0  0  0  0  0
  137.3749   69.4526  225.1030 H   0  0  0  0  0  0  0  0  0  0  0  0
  137.6840   71.1500  223.6920 C   0  0  0  0  0  0  0  0  0  0  0  0
  137.0210   72.1280  223.0230 N   0  0  0  0  0  0  0  0  0  0  0  0
  137.6730   73.0590  222.2880 C   0  0  0  0  0  0  0  0  0  0  0  0
  136.9510   74.0490  221.6090 C   0  0  0  0  0  0  0  0  0  0  0  0
  135.8535   74.0735  221.6784 H   0  0  0  0  0  0  0  0  0  0  0  0
  137.6230   75.0050  220.8440 C   0  0  0  0  0  0  0  0  0  0  0  0
  137.0543   75.7813  220.3111 H   0  0  0  0  0  0  0  0  0  0  0  0
  139.0190   74.9760  220.7550 C   0  0  0  0  0  0  0  0  0  0  0  0
  139.5461   75.7295  220.1513 H   0  0  0  0  0  0  0  0  0  0  0  0
  139.7460   73.9910  221.4320 C   0  0  0  0  0  0  0  0  0  0  0  0
  140.8434   73.9718  221.3596 H   0  0  0  0  0  0  0  0  0  0  0  0
  139.0760   73.0240  222.2060 C   0  0  0  0  0  0  0  0  0  0  0  0
  139.7600   72.0170  222.9120 C   0  0  0  0  0  0  0  0  0  0  0  0
  141.0200   71.9620  222.8490 O   0  0  0  0  0  0  0  0  0  0  0  0
  139.0610   71.0960  223.6610 N   0  0  0  0  0  0  0  0  0  0  0  0
  139.7940   70.0740  224.4430 C   0  0  0  0  0  0  0  0  0  0  0  0
  139.1402   69.2006  224.5835 H   0  0  0  0  0  0  0  0  0  0  0  0
  140.7030   69.8108  223.8823 H   0  0  0  0  0  0  0  0  0  0  0  0
  140.2210   70.5840  225.8000 C   0  0  0  0  0  0  0  0  0  0  0  0
  140.9790   71.7650  225.9370 C   0  0  0  0  0  0  0  0  0  0  0  0
  141.2758   72.3328  225.0429 H   0  0  0  0  0  0  0  0  0  0  0  0
  141.3550   72.2170  227.2070 C   0  0  0  0  0  0  0  0  0  0  0  0
  141.9688   73.1244  227.3066 H   0  0  0  0  0  0  0  0  0  0  0  0
  140.9530   71.5190  228.3490 C   0  0  0  0  0  0  0  0  0  0  0  0
  141.2422   71.8824  229.3461 H   0  0  0  0  0  0  0  0  0  0  0  0
  140.1840   70.3600  228.2240 C   0  0  0  0  0  0  0  0  0  0  0  0
  139.8611   69.8160  229.1239 H   0  0  0  0  0  0  0  0  0  0  0  0
  139.8240   69.8900  226.9590 C   0  0  0  0  0  0  0  0  0  0  0  0
  139.2261   68.9712  226.8675 H   0  0  0  0  0  0  0  0  0  0  0  0
  134.6860   70.9660  225.3380 C   0  0  0  0  0  0  0  0  0  0  0  0
  133.8930   70.3200  226.3070 C   0  0  0  0  0  0  0  0  0  0  0  0
  133.8733   69.2212  226.3548 H   0  0  0  0  0  0  0  0  0  0  0  0
  133.1320   71.0690  227.2070 C   0  0  0  0  0  0  0  0  0  0  0  0
  132.5162   70.5574  227.9613 H   0  0  0  0  0  0  0  0  0  0  0  0
  133.1490   72.4660  227.1540 C   0  0  0  0  0  0  0  0  0  0  0  0
  132.5462   73.0497  227.8653 H   0  0  0  0  0  0  0  0  0  0  0  0
  133.9370   73.1280  226.1910 C   0  0  0  0  0  0  0  0  0  0  0  0
  133.9860   74.5310  226.0910 O   0  0  0  0  0  0  0  0  0  0  0  0
  134.8830   75.2460  225.2430 C   0  0  0  0  0  0  0  0  0  0  0  0
  135.5956   75.8141  225.8590 H   0  0  0  0  0  0  0  0  0  0  0  0
  135.4323   74.5353  224.6081 H   0  0  0  0  0  0  0  0  0  0  0  0
  134.3127   75.9400  224.6081 H   0  0  0  0  0  0  0  0  0  0  0  0
  134.7060   72.3710  225.2970 C   0  0  0  0  0  0  0  0  0  0  0  0
  135.3338   72.8832  224.5530 H   0  0  0  0  0  0  0  0  0  0  0  0
  1  2  1  0
  2  3  2  0
  3  4  1  0
  3  5  1  0
  5  6  2  0
  6  7  1  0
  7  8  2  0
  8  9  1  0
  8 10  1  0
 10 11  1  0
 10 12  2  0
 12 13  1  0
 12 14  1  0
 14 15  1  0
 14 16  2  0
 16 17  1  0
 17 18  2  0
 17 19  1  0
 19 20  1  0
 20 21  1  0
 20 22  1  0
 20 23  1  0
 23 24  2  0
 24 25  1  0
 24 26  1  0
 26 27  1  0
 26 28  2  0
 28 29  1  0
 28 30  1  0
 30 31  1  0
 30 32  2  0
 32 33  1  0
  2 34  1  0
 34 35  2  0
 35 36  1  0
 35 37  1  0
 37 38  1  0
 37 39  2  0
 39 40  1  0
 39 41  1  0
 41 42  1  0
 42 43  1  0
 43 44  1  0
 43 45  1  0
 43 46  1  0
 41 47  2  0
 47 48  1  0
 19  5  1  0
 32 23  1  0
 47 34  1  0
 16  7  1  0
M  END
>  <UniqueID>  (9) 
75

>  <SMILES>  (9) 
COc1cccc(/C=C/c2nc3ccccc3c(=O)n2Cc2ccccc2)c1

>  <Energy>  (9) 
68.68811401484191

>  <Genealogy>  (9) 
COc1cccc(/C=C/c2nc3ccccc3c(=O)n2Cc2ccccc2)c1 (cis-trans isomerization)
COc1cccc(/C=C/c2nc3ccccc3c(=O)n2Cc2ccccc2)c1 (3D coordinates assigned)
COc1cccc(/C=C/c2nc3ccccc3c(=O)n2Cc2ccccc2)c1 (optimized conformer: 68.68811401484191 kcal/mol)

>  <smiles>  (9) 
COc1cccc(/C=C/c2nc3ccccc3c(=O)n2Cc2ccccc2)c1

>  <score_type>  (9) 
oracle

>  <origin>  (9) 
autodockgpu

>  <m_score__min__energy>  (9) 
-7.6600000000000001

>  <m_primary>  (9) 
energy

>  <meeko>  (9) 
{"free_energy": -7.19, "intermolecular_energy": -8.98, "internal_energy": -1.43, "cluster_size": 3, "cluster_id": 5, "rank_in_cluster": 1}

>  <energy>  (9) 
-7.53

>  <cluster_rmsd>  (9) 
0.42

>  <rmsd>  (9) 
271.89

>  <cluster>  (9) 
2

$$$$
CAKHBICIDRAWDR-CCEZHUSRNA-N
     RDKit          3D

 48 51  0  0  0  0  0  0  0  0999 V2000
  136.2206   71.1019  222.1794 H   0  0  0  0  0  0  0  0  0  0  0  0
  136.5770   71.3000  223.2010 C   0  0  0  0  0  0  0  0  0  0  0  0
  137.8950   71.4100  223.4030 C   0  0  0  0  0  0  0  0  0  0  0  0
  138.4666   72.1670  222.8459 H   0  0  0  0  0  0  0  0  0  0  0  0
  138.5920   70.5350  224.3580 C   0  0  0  0  0  0  0  0  0  0  0  0
  139.2710   71.1350  225.3700 N   0  0  0  0  0  0  0  0  0  0  0  0
  139.9420   70.4190  226.3020 C   0  0  0  0  0  0  0  0  0  0  0  0
  140.6330   71.0770  227.3270 C   0  0  0  0  0  0  0  0  0  0  0  0
  140.6247   72.1758  227.3780 H   0  0  0  0  0  0  0  0  0  0  0  0
  141.3330   70.3390  228.2850 C   0  0  0  0  0  0  0  0  0  0  0  0
  141.8746   70.8576  229.0898 H   0  0  0  0  0  0  0  0  0  0  0  0
  141.3460   68.9420  228.2220 C   0  0  0  0  0  0  0  0  0  0  0  0
  141.8990   68.3635  228.9767 H   0  0  0  0  0  0  0  0  0  0  0  0
  140.6570   68.2790  227.2010 C   0  0  0  0  0  0  0  0  0  0  0  0
  140.6696   67.1801  227.1546 H   0  0  0  0  0  0  0  0  0  0  0  0
  139.9470   69.0150  226.2320 C   0  0  0  0  0  0  0  0  0  0  0  0
  139.2320   68.3980  225.1890 C   0  0  0  0  0  0  0  0  0  0  0  0
  139.2270   67.1370  225.1030 O   0  0  0  0  0  0  0  0  0  0  0  0
  138.5480   69.1600  224.2680 N   0  0  0  0  0  0  0  0  0  0  0  0
  137.7550   68.4970  223.2070 C   0  0  0  0  0  0  0  0  0  0  0  0
  137.1490   67.7007  223.6638 H   0  0  0  0  0  0  0  0  0  0  0  0
  137.1224   69.2617  222.7326 H   0  0  0  0  0  0  0  0  0  0  0  0
  138.6280   67.8880  222.1330 C   0  0  0  0  0  0  0  0  0  0  0  0
  139.5180   68.6740  221.3740 C   0  0  0  0  0  0  0  0  0  0  0  0
  139.5840   69.7570  221.5549 H   0  0  0  0  0  0  0  0  0  0  0  0
  140.3180   68.0810  220.3910 C   0  0  0  0  0  0  0  0  0  0  0  0
  140.9914   68.7032  219.7832 H   0  0  0  0  0  0  0  0  0  0  0  0
  140.2640   66.7000  220.1790 C   0  0  0  0  0  0  0  0  0  0  0  0
  140.9018   66.2358  219.4124 H   0  0  0  0  0  0  0  0  0  0  0  0
  139.4000   65.9100  220.9410 C   0  0  0  0  0  0  0  0  0  0  0  0
  139.3636   64.8227  220.7786 H   0  0  0  0  0  0  0  0  0  0  0  0
  138.5820   66.4980  221.9090 C   0  0  0  0  0  0  0  0  0  0  0  0
  137.8977   65.8716  222.5000 H   0  0  0  0  0  0  0  0  0  0  0  0
  135.5750   71.4310  224.2800 C   0  0  0  0  0  0  0  0  0  0  0  0
  135.0450   70.3070  224.9440 C   0  0  0  0  0  0  0  0  0  0  0  0
  135.3530   69.2955  224.6407 H   0  0  0  0  0  0  0  0  0  0  0  0
  134.1290   70.4730  225.9870 C   0  0  0  0  0  0  0  0  0  0  0  0
  133.7188   69.5911  226.5008 H   0  0  0  0  0  0  0  0  0  0  0  0
  133.7320   71.7540  226.3800 C   0  0  0  0  0  0  0  0  0  0  0  0
  133.0107   71.8767  227.2014 H   0  0  0  0  0  0  0  0  0  0  0  0
  134.2530   72.8890  225.7270 C   0  0  0  0  0  0  0  0  0  0  0  0
  133.8820   74.2000  226.0790 O   0  0  0  0  0  0  0  0  0  0  0  0
  134.6780   75.3570  225.8250 C   0  0  0  0  0  0  0  0  0  0  0  0
  134.9871   75.8063  226.7803 H   0  0  0  0  0  0  0  0  0  0  0  0
  135.5701   75.0692  225.2495 H   0  0  0  0  0  0  0  0  0  0  0  0
  134.0902   76.0873  225.2495 H   0  0  0  0  0  0  0  0  0  0  0  0
  135.1780   72.7170  224.6880 C   0  0  0  0  0  0  0  0  0  0  0  0
  135.5991   73.5999  224.1849 H   0  0  0  0  0  0  0  0  0  0  0  0
  1  2  1  0
  2  3  2  0
  3  4  1  0
  3  5  1  0
  5  6  2  0
  6  7  1  0
  7  8  2  0
  8  9  1  0
  8 10  1  0
 10 11  1  0
 10 12  2  0
 12 13  1  0
 12 14  1  0
 14 15  1  0
 14 16  2  0
 16 17  1  0
 17 18  2  0
 17 19  1  0
 19 20  1  0
 20 21  1  0
 20 22  1  0
 20 23  1  0
 23 24  2  0
 24 25  1  0
 24 26  1  0
 26 27  1  0
 26 28  2  0
 28 29  1  0
 28 30  1  0
 30 31  1  0
 30 32  2  0
 32 33  1  0
  2 34  1  0
 34 35  2  0
 35 36  1  0
 35 37  1  0
 37 38  1  0
 37 39  2  0
 39 40  1  0
 39 41  1  0
 41 42  1  0
 42 43  1  0
 43 44  1  0
 43 45  1  0
 43 46  1  0
 41 47  2  0
 47 48  1  0
 19  5  1  0
 32 23  1  0
 47 34  1  0
 16  7  1  0
M  END
>  <UniqueID>  (10) 
75

>  <SMILES>  (10) 
COc1cccc(/C=C/c2nc3ccccc3c(=O)n2Cc2ccccc2)c1

>  <Energy>  (10) 
68.68811401484191

>  <Genealogy>  (10) 
COc1cccc(/C=C/c2nc3ccccc3c(=O)n2Cc2ccccc2)c1 (cis-trans isomerization)
COc1cccc(/C=C/c2nc3ccccc3c(=O)n2Cc2ccccc2)c1 (3D coordinates assigned)
COc1cccc(/C=C/c2nc3ccccc3c(=O)n2Cc2ccccc2)c1 (optimized conformer: 68.68811401484191 kcal/mol)

>  <smiles>  (10) 
COc1cccc(/C=C/c2nc3ccccc3c(=O)n2Cc2ccccc2)c1

>  <score_type>  (10) 
oracle

>  <origin>  (10) 
autodockgpu

>  <m_score__min__energy>  (10) 
-7.6600000000000001

>  <m_primary>  (10) 
energy

>  <meeko>  (10) 
{"free_energy": -7.19, "intermolecular_energy": -8.98, "internal_energy": -1.37, "cluster_size": 5, "cluster_id": 3, "rank_in_cluster": 2}

>  <energy>  (10) 
-7.35

>  <cluster_rmsd>  (10) 
0.0

>  <rmsd>  (10) 
271.01

>  <cluster>  (10) 
3

$$$$
CAKHBICIDRAWDR-CCEZHUSRNA-N
     RDKit          3D

 48 51  0  0  0  0  0  0  0  0999 V2000
  136.3153   71.7152  221.9181 H   0  0  0  0  0  0  0  0  0  0  0  0
  136.7510   71.5660  222.9170 C   0  0  0  0  0  0  0  0  0  0  0  0
  138.0800   71.4490  223.0190 C   0  0  0  0  0  0  0  0  0  0  0  0
  138.7245   71.9221  222.2635 H   0  0  0  0  0  0  0  0  0  0  0  0
  138.6930   70.6980  224.1250 C   0  0  0  0  0  0  0  0  0  0  0  0
  139.3120   71.4170  225.0970 N   0  0  0  0  0  0  0  0  0  0  0  0
  139.9050   70.8220  226.1580 C   0  0  0  0  0  0  0  0  0  0  0  0
  140.5370   71.5990  227.1360 C   0  0  0  0  0  0  0  0  0  0  0  0
  140.5461   72.6952  227.0450 H   0  0  0  0  0  0  0  0  0  0  0  0
  141.1560   70.9850  228.2270 C   0  0  0  0  0  0  0  0  0  0  0  0
  141.6524   71.5977  228.9939 H   0  0  0  0  0  0  0  0  0  0  0  0
  141.1450   69.5910  228.3450 C   0  0  0  0  0  0  0  0  0  0  0  0
  141.6340   69.1095  229.2047 H   0  0  0  0  0  0  0  0  0  0  0  0
  140.5140   68.8080  227.3730 C   0  0  0  0  0  0  0  0  0  0  0  0
  140.5073   67.7123  227.4700 H   0  0  0  0  0  0  0  0  0  0  0  0
  139.8870   69.4200  226.2700 C   0  0  0  0  0  0  0  0  0  0  0  0
  139.2330   68.6800  225.2670 C   0  0  0  0  0  0  0  0  0  0  0  0
  139.2090   67.4190  225.3450 O   0  0  0  0  0  0  0  0  0  0  0  0
  138.6280   69.3230  224.2100 N   0  0  0  0  0  0  0  0  0  0  0  0
  137.8970   68.5370  223.1910 C   0  0  0  0  0  0  0  0  0  0  0  0
  137.3667   67.7142  223.6927 H   0  0  0  0  0  0  0  0  0  0  0  0
  137.1969   69.2157  222.6818 H   0  0  0  0  0  0  0  0  0  0  0  0
  138.8190   67.9540  222.1440 C   0  0  0  0  0  0  0  0  0  0  0  0
  139.5490   68.7800  221.2650 C   0  0  0  0  0  0  0  0  0  0  0  0
  139.4497   69.8736  221.3297 H   0  0  0  0  0  0  0  0  0  0  0  0
  140.4000   68.2110  220.3100 C   0  0  0  0  0  0  0  0  0  0  0  0
  140.9478   68.8581  219.6091 H   0  0  0  0  0  0  0  0  0  0  0  0
  140.5560   66.8240  220.2440 C   0  0  0  0  0  0  0  0  0  0  0  0
  141.2327   66.3817  219.4980 H   0  0  0  0  0  0  0  0  0  0  0  0
  139.8530   65.9990  221.1250 C   0  0  0  0  0  0  0  0  0  0  0  0
  139.9830   64.9077  221.0778 H   0  0  0  0  0  0  0  0  0  0  0  0
  138.9850   66.5580  222.0660 C   0  0  0  0  0  0  0  0  0  0  0  0
  138.4271   65.9027  222.7511 H   0  0  0  0  0  0  0  0  0  0  0  0
  135.8380   71.5050  224.0790 C   0  0  0  0  0  0  0  0  0  0  0  0
  135.5010   70.2840  224.6970 C   0  0  0  0  0  0  0  0  0  0  0  0
  135.8967   69.3391  224.2963 H   0  0  0  0  0  0  0  0  0  0  0  0
  134.6660   70.2700  225.8170 C   0  0  0  0  0  0  0  0  0  0  0  0
  134.4064   69.3135  226.2942 H   0  0  0  0  0  0  0  0  0  0  0  0
  134.1590   71.4650  226.3340 C   0  0  0  0  0  0  0  0  0  0  0  0
  133.5024   71.4456  227.2163 H   0  0  0  0  0  0  0  0  0  0  0  0
  134.4860   72.6950  225.7290 C   0  0  0  0  0  0  0  0  0  0  0  0
  133.9990   73.9250  226.2050 O   0  0  0  0  0  0  0  0  0  0  0  0
  134.4400   75.2010  225.7420 C   0  0  0  0  0  0  0  0  0  0  0  0
  134.6632   75.8468  226.6041 H   0  0  0  0  0  0  0  0  0  0  0  0
  135.3472   75.0764  225.1326 H   0  0  0  0  0  0  0  0  0  0  0  0
  133.6495   75.6632  225.1326 H   0  0  0  0  0  0  0  0  0  0  0  0
  135.3310   72.7030  224.6110 C   0  0  0  0  0  0  0  0  0  0  0  0
  135.6014   73.6610  224.1429 H   0  0  0  0  0  0  0  0  0  0  0  0
  1  2  1  0
  2  3  2  0
  3  4  1  0
  3  5  1  0
  5  6  2  0
  6  7  1  0
  7  8  2  0
  8  9  1  0
  8 10  1  0
 10 11  1  0
 10 12  2  0
 12 13  1  0
 12 14  1  0
 14 15  1  0
 14 16  2  0
 16 17  1  0
 17 18  2  0
 17 19  1  0
 19 20  1  0
 20 21  1  0
 20 22  1  0
 20 23  1  0
 23 24  2  0
 24 25  1  0
 24 26  1  0
 26 27  1  0
 26 28  2  0
 28 29  1  0
 28 30  1  0
 30 31  1  0
 30 32  2  0
 32 33  1  0
  2 34  1  0
 34 35  2  0
 35 36  1  0
 35 37  1  0
 37 38  1  0
 37 39  2  0
 39 40  1  0
 39 41  1  0
 41 42  1  0
 42 43  1  0
 43 44  1  0
 43 45  1  0
 43 46  1  0
 41 47  2  0
 47 48  1  0
 19  5  1  0
 32 23  1  0
 47 34  1  0
 16  7  1  0
M  END
>  <UniqueID>  (11) 
75

>  <SMILES>  (11) 
COc1cccc(/C=C/c2nc3ccccc3c(=O)n2Cc2ccccc2)c1

>  <Energy>  (11) 
68.68811401484191

>  <Genealogy>  (11) 
COc1cccc(/C=C/c2nc3ccccc3c(=O)n2Cc2ccccc2)c1 (cis-trans isomerization)
COc1cccc(/C=C/c2nc3ccccc3c(=O)n2Cc2ccccc2)c1 (3D coordinates assigned)
COc1cccc(/C=C/c2nc3ccccc3c(=O)n2Cc2ccccc2)c1 (optimized conformer: 68.68811401484191 kcal/mol)

>  <smiles>  (11) 
COc1cccc(/C=C/c2nc3ccccc3c(=O)n2Cc2ccccc2)c1

>  <score_type>  (11) 
oracle

>  <origin>  (11) 
autodockgpu

>  <m_score__min__energy>  (11) 
-7.6600000000000001

>  <m_primary>  (11) 
energy

>  <meeko>  (11) 
{"free_energy": -7.35, "intermolecular_energy": -9.14, "internal_energy": -1.57, "cluster_size": 5, "cluster_id": 3, "rank_in_cluster": 1}

>  <energy>  (11) 
-7.19

>  <cluster_rmsd>  (11) 
0.41

>  <rmsd>  (11) 
270.96

>  <cluster>  (11) 
3

$$$$
CAKHBICIDRAWDR-CCEZHUSRNA-N
     RDKit          3D

 48 51  0  0  0  0  0  0  0  0999 V2000
  142.1447   72.1174  222.2415 H   0  0  0  0  0  0  0  0  0  0  0  0
  141.0510   72.1960  222.3290 C   0  0  0  0  0  0  0  0  0  0  0  0
  140.3970   72.9610  221.4470 C   0  0  0  0  0  0  0  0  0  0  0  0
  139.5335   72.5457  220.9067 H   0  0  0  0  0  0  0  0  0  0  0  0
  140.8130   74.3470  221.1880 C   0  0  0  0  0  0  0  0  0  0  0  0
  140.3040   75.3110  221.9980 N   0  0  0  0  0  0  0  0  0  0  0  0
  140.6260   76.6160  221.8460 C   0  0  0  0  0  0  0  0  0  0  0  0
  140.0740   77.5790  222.7000 C   0  0  0  0  0  0  0  0  0  0  0  0
  139.3825   77.2733  223.4989 H   0  0  0  0  0  0  0  0  0  0  0  0
  140.4010   78.9280  222.5380 C   0  0  0  0  0  0  0  0  0  0  0  0
  139.9683   79.6830  223.2109 H   0  0  0  0  0  0  0  0  0  0  0  0
  141.2780   79.3190  221.5210 C   0  0  0  0  0  0  0  0  0  0  0  0
  141.5316   80.3817  221.3936 H   0  0  0  0  0  0  0  0  0  0  0  0
  141.8330   78.3620  220.6660 C   0  0  0  0  0  0  0  0  0  0  0  0
  142.5232   78.6739  219.8683 H   0  0  0  0  0  0  0  0  0  0  0  0
  141.5110   77.0000  220.8230 C   0  0  0  0  0  0  0  0  0  0  0  0
  142.0460   75.9970  219.9940 C   0  0  0  0  0  0  0  0  0  0  0  0
  142.8400   76.3190  219.0650 O   0  0  0  0  0  0  0  0  0  0  0  0
  141.7060   74.6770  220.1910 N   0  0  0  0  0  0  0  0  0  0  0  0
  142.3180   73.6250  219.3470 C   0  0  0  0  0  0  0  0  0  0  0  0
  141.6858   72.7258  219.3893 H   0  0  0  0  0  0  0  0  0  0  0  0
  142.3918   74.0176  218.3221 H   0  0  0  0  0  0  0  0  0  0  0  0
  143.7130   73.2600  219.8030 C   0  0  0  0  0  0  0  0  0  0  0  0
  144.4020   72.1610  219.2530 C   0  0  0  0  0  0  0  0  0  0  0  0
  143.9229   71.5447  218.4780 H   0  0  0  0  0  0  0  0  0  0  0  0
  145.6950   71.8520  219.6910 C   0  0  0  0  0  0  0  0  0  0  0  0
  146.2187   70.9771  219.2783 H   0  0  0  0  0  0  0  0  0  0  0  0
  146.3230   72.6500  220.6500 C   0  0  0  0  0  0  0  0  0  0  0  0
  147.3426   72.4083  220.9846 H   0  0  0  0  0  0  0  0  0  0  0  0
  145.6560   73.7550  221.1840 C   0  0  0  0  0  0  0  0  0  0  0  0
  146.1547   74.3885  221.9323 H   0  0  0  0  0  0  0  0  0  0  0  0
  144.3560   74.0570  220.7690 C   0  0  0  0  0  0  0  0  0  0  0  0
  143.8320   74.9229  221.1999 H   0  0  0  0  0  0  0  0  0  0  0  0
  140.3790   71.4510  223.4150 C   0  0  0  0  0  0  0  0  0  0  0  0
  139.2150   70.6900  223.1860 C   0  0  0  0  0  0  0  0  0  0  0  0
  138.7648   70.6653  222.1826 H   0  0  0  0  0  0  0  0  0  0  0  0
  138.6310   69.9670  224.2290 C   0  0  0  0  0  0  0  0  0  0  0  0
  137.7223   69.3757  224.0431 H   0  0  0  0  0  0  0  0  0  0  0  0
  139.1950   69.9910  225.5070 C   0  0  0  0  0  0  0  0  0  0  0  0
  138.7291   69.4189  226.3228 H   0  0  0  0  0  0  0  0  0  0  0  0
  140.3590   70.7460  225.7540 C   0  0  0  0  0  0  0  0  0  0  0  0
  140.9640   70.8090  227.0220 O   0  0  0  0  0  0  0  0  0  0  0  0
  140.7450   71.8560  227.9680 C   0  0  0  0  0  0  0  0  0  0  0  0
  140.8294   71.4523  228.9878 H   0  0  0  0  0  0  0  0  0  0  0  0
  141.4975   72.6450  227.8225 H   0  0  0  0  0  0  0  0  0  0  0  0
  139.7393   72.2772  227.8225 H   0  0  0  0  0  0  0  0  0  0  0  0
  140.9460   71.4620  224.7010 C   0  0  0  0  0  0  0  0  0  0  0  0
  141.8634   72.0406  224.8840 H   0  0  0  0  0  0  0  0  0  0  0  0
  1  2  1  0
  2  3  2  0
  3  4  1  0
  3  5  1  0
  5  6  2  0
  6  7  1  0
  7  8  2  0
  8  9  1  0
  8 10  1  0
 10 11  1  0
 10 12  2  0
 12 13  1  0
 12 14  1  0
 14 15  1  0
 14 16  2  0
 16 17  1  0
 17 18  2  0
 17 19  1  0
 19 20  1  0
 20 21  1  0
 20 22  1  0
 20 23  1  0
 23 24  2  0
 24 25  1  0
 24 26  1  0
 26 27  1  0
 26 28  2  0
 28 29  1  0
 28 30  1  0
 30 31  1  0
 30 32  2  0
 32 33  1  0
  2 34  1  0
 34 35  2  0
 35 36  1  0
 35 37  1  0
 37 38  1  0
 37 39  2  0
 39 40  1  0
 39 41  1  0
 41 42  1  0
 42 43  1  0
 43 44  1  0
 43 45  1  0
 43 46  1  0
 41 47  2  0
 47 48  1  0
 19  5  1  0
 32 23  1  0
 47 34  1  0
 16  7  1  0
M  END
>  <UniqueID>  (12) 
75

>  <SMILES>  (12) 
COc1cccc(/C=C/c2nc3ccccc3c(=O)n2Cc2ccccc2)c1

>  <Energy>  (12) 
68.68811401484191

>  <Genealogy>  (12) 
COc1cccc(/C=C/c2nc3ccccc3c(=O)n2Cc2ccccc2)c1 (cis-trans isomerization)
COc1cccc(/C=C/c2nc3ccccc3c(=O)n2Cc2ccccc2)c1 (3D coordinates assigned)
COc1cccc(/C=C/c2nc3ccccc3c(=O)n2Cc2ccccc2)c1 (optimized conformer: 68.68811401484191 kcal/mol)

>  <smiles>  (12) 
COc1cccc(/C=C/c2nc3ccccc3c(=O)n2Cc2ccccc2)c1

>  <score_type>  (12) 
oracle

>  <origin>  (12) 
autodockgpu

>  <m_score__min__energy>  (12) 
-7.6600000000000001

>  <m_primary>  (12) 
energy

>  <meeko>  (12) 
{"free_energy": -7.53, "intermolecular_energy": -9.32, "internal_energy": -1.19, "cluster_size": 4, "cluster_id": 2, "rank_in_cluster": 4}

>  <energy>  (12) 
-7.11

>  <cluster_rmsd>  (12) 
1.48

>  <rmsd>  (12) 
271.08

>  <cluster>  (12) 
3

$$$$
CAKHBICIDRAWDR-CCEZHUSRNA-N
     RDKit          3D

 48 51  0  0  0  0  0  0  0  0999 V2000
  141.8878   72.6230  222.1712 H   0  0  0  0  0  0  0  0  0  0  0  0
  140.8010   72.6540  222.3380 C   0  0  0  0  0  0  0  0  0  0  0  0
  140.0790   73.5500  221.6550 C   0  0  0  0  0  0  0  0  0  0  0  0
  139.0987   73.2592  221.2494 H   0  0  0  0  0  0  0  0  0  0  0  0
  140.5750   74.9170  221.4380 C   0  0  0  0  0  0  0  0  0  0  0  0
  140.1530   75.8760  222.3030 N   0  0  0  0  0  0  0  0  0  0  0  0
  140.5520   77.1640  222.1920 C   0  0  0  0  0  0  0  0  0  0  0  0
  140.0900   78.1220  223.1020 C   0  0  0  0  0  0  0  0  0  0  0  0
  139.4067   77.8262  223.9116 H   0  0  0  0  0  0  0  0  0  0  0  0
  140.4960   79.4540  222.9830 C   0  0  0  0  0  0  0  0  0  0  0  0
  140.1316   80.2056  223.6987 H   0  0  0  0  0  0  0  0  0  0  0  0
  141.3650   79.8320  221.9550 C   0  0  0  0  0  0  0  0  0  0  0  0
  141.6824   80.8812  221.8629 H   0  0  0  0  0  0  0  0  0  0  0  0
  141.8320   78.8790  221.0430 C   0  0  0  0  0  0  0  0  0  0  0  0
  142.5152   79.1807  220.2354 H   0  0  0  0  0  0  0  0  0  0  0  0
  141.4290   77.5340  221.1570 C   0  0  0  0  0  0  0  0  0  0  0  0
  141.8730   76.5360  220.2710 C   0  0  0  0  0  0  0  0  0  0  0  0
  142.6570   76.8460  219.3300 O   0  0  0  0  0  0  0  0  0  0  0  0
  141.4560   75.2320  220.4260 N   0  0  0  0  0  0  0  0  0  0  0  0
  141.9730   74.1800  219.5210 C   0  0  0  0  0  0  0  0  0  0  0  0
  141.2969   73.3133  219.5637 H   0  0  0  0  0  0  0  0  0  0  0  0
  142.0211   74.6031  218.5068 H   0  0  0  0  0  0  0  0  0  0  0  0
  143.3660   73.7290  219.9000 C   0  0  0  0  0  0  0  0  0  0  0  0
  144.3030   74.6240  220.4540 C   0  0  0  0  0  0  0  0  0  0  0  0
  144.0279   75.6770  220.6141 H   0  0  0  0  0  0  0  0  0  0  0  0
  145.5830   74.1760  220.8010 C   0  0  0  0  0  0  0  0  0  0  0  0
  146.3197   74.8838  221.2087 H   0  0  0  0  0  0  0  0  0  0  0  0
  145.9280   72.8320  220.6310 C   0  0  0  0  0  0  0  0  0  0  0  0
  146.9319   72.4819  220.9131 H   0  0  0  0  0  0  0  0  0  0  0  0
  144.9980   71.9340  220.1030 C   0  0  0  0  0  0  0  0  0  0  0  0
  145.2675   70.8749  219.9781 H   0  0  0  0  0  0  0  0  0  0  0  0
  143.7260   72.3780  219.7330 C   0  0  0  0  0  0  0  0  0  0  0  0
  143.0012   71.6677  219.3086 H   0  0  0  0  0  0  0  0  0  0  0  0
  140.2120   71.7030  223.3060 C   0  0  0  0  0  0  0  0  0  0  0  0
  139.1750   70.8200  222.9440 C   0  0  0  0  0  0  0  0  0  0  0  0
  138.7610   70.8492  221.9253 H   0  0  0  0  0  0  0  0  0  0  0  0
  138.6710   69.9080  223.8740 C   0  0  0  0  0  0  0  0  0  0  0  0
  137.8609   69.2223  223.5851 H   0  0  0  0  0  0  0  0  0  0  0  0
  139.1920   69.8630  225.1710 C   0  0  0  0  0  0  0  0  0  0  0  0
  138.7907   69.1419  225.8983 H   0  0  0  0  0  0  0  0  0  0  0  0
  140.2290   70.7380  225.5490 C   0  0  0  0  0  0  0  0  0  0  0  0
  140.7840   70.7380  226.8420 O   0  0  0  0  0  0  0  0  0  0  0  0
  140.9710   71.9070  227.6380 C   0  0  0  0  0  0  0  0  0  0  0  0
  140.9277   71.6360  228.7032 H   0  0  0  0  0  0  0  0  0  0  0  0
  141.9516   72.3513  227.4123 H   0  0  0  0  0  0  0  0  0  0  0  0
  140.1779   72.6350  227.4123 H   0  0  0  0  0  0  0  0  0  0  0  0
  140.7370   71.6440  224.6080 C   0  0  0  0  0  0  0  0  0  0  0  0
  141.5581   72.3183  224.8927 H   0  0  0  0  0  0  0  0  0  0  0  0
  1  2  1  0
  2  3  2  0
  3  4  1  0
  3  5  1  0
  5  6  2  0
  6  7  1  0
  7  8  2  0
  8  9  1  0
  8 10  1  0
 10 11  1  0
 10 12  2  0
 12 13  1  0
 12 14  1  0
 14 15  1  0
 14 16  2  0
 16 17  1  0
 17 18  2  0
 17 19  1  0
 19 20  1  0
 20 21  1  0
 20 22  1  0
 20 23  1  0
 23 24  2  0
 24 25  1  0
 24 26  1  0
 26 27  1  0
 26 28  2  0
 28 29  1  0
 28 30  1  0
 30 31  1  0
 30 32  2  0
 32 33  1  0
  2 34  1  0
 34 35  2  0
 35 36  1  0
 35 37  1  0
 37 38  1  0
 37 39  2  0
 39 40  1  0
 39 41  1  0
 41 42  1  0
 42 43  1  0
 43 44  1  0
 43 45  1  0
 43 46  1  0
 41 47  2  0
 47 48  1  0
 19  5  1  0
 32 23  1  0
 47 34  1  0
 16  7  1  0
M  END
>  <UniqueID>  (13) 
75

>  <SMILES>  (13) 
COc1cccc(/C=C/c2nc3ccccc3c(=O)n2Cc2ccccc2)c1

>  <Energy>  (13) 
68.68811401484191

>  <Genealogy>  (13) 
COc1cccc(/C=C/c2nc3ccccc3c(=O)n2Cc2ccccc2)c1 (cis-trans isomerization)
COc1cccc(/C=C/c2nc3ccccc3c(=O)n2Cc2ccccc2)c1 (3D coordinates assigned)
COc1cccc(/C=C/c2nc3ccccc3c(=O)n2Cc2ccccc2)c1 (optimized conformer: 68.68811401484191 kcal/mol)

>  <smiles>  (13) 
COc1cccc(/C=C/c2nc3ccccc3c(=O)n2Cc2ccccc2)c1

>  <score_type>  (13) 
oracle

>  <origin>  (13) 
autodockgpu

>  <m_score__min__energy>  (13) 
-7.6600000000000001

>  <m_primary>  (13) 
energy

>  <meeko>  (13) 
{"free_energy": -7.56, "intermolecular_energy": -9.35, "internal_energy": -1.17, "cluster_size": 4, "cluster_id": 2, "rank_in_cluster": 3}

>  <energy>  (13) 
-7.1

>  <cluster_rmsd>  (13) 
1.47

>  <rmsd>  (13) 
271.11

>  <cluster>  (13) 
3

$$$$
CAKHBICIDRAWDR-CCEZHUSRNA-N
     RDKit          3D

 48 51  0  0  0  0  0  0  0  0999 V2000
  136.2555   71.0839  222.2058 H   0  0  0  0  0  0  0  0  0  0  0  0
  136.8530   71.7590  222.8360 C   0  0  0  0  0  0  0  0  0  0  0  0
  138.1690   71.5360  222.9350 C   0  0  0  0  0  0  0  0  0  0  0  0
  138.8436   71.9254  222.1583 H   0  0  0  0  0  0  0  0  0  0  0  0
  138.7280   70.7790  224.0650 C   0  0  0  0  0  0  0  0  0  0  0  0
  139.4470   71.4740  224.9840 N   0  0  0  0  0  0  0  0  0  0  0  0
  140.0010   70.8720  226.0610 C   0  0  0  0  0  0  0  0  0  0  0  0
  140.7390   71.6240  226.9830 C   0  0  0  0  0  0  0  0  0  0  0  0
  140.8633   72.7068  226.8343 H   0  0  0  0  0  0  0  0  0  0  0  0
  141.3180   71.0010  228.0920 C   0  0  0  0  0  0  0  0  0  0  0  0
  141.8966   71.5938  228.8157 H   0  0  0  0  0  0  0  0  0  0  0  0
  141.1620   69.6240  228.2820 C   0  0  0  0  0  0  0  0  0  0  0  0
  141.6204   69.1353  229.1544 H   0  0  0  0  0  0  0  0  0  0  0  0
  140.4250   68.8670  227.3660 C   0  0  0  0  0  0  0  0  0  0  0  0
  140.3046   67.7845  227.5198 H   0  0  0  0  0  0  0  0  0  0  0  0
  139.8360   69.4880  226.2460 C   0  0  0  0  0  0  0  0  0  0  0  0
  139.0810   68.7740  225.2980 C   0  0  0  0  0  0  0  0  0  0  0  0
  138.9240   67.5280  225.4420 O   0  0  0  0  0  0  0  0  0  0  0  0
  138.5190   69.4250  224.2230 N   0  0  0  0  0  0  0  0  0  0  0  0
  137.6810   68.6730  223.2610 C   0  0  0  0  0  0  0  0  0  0  0  0
  137.8079   69.1139  222.2613 H   0  0  0  0  0  0  0  0  0  0  0  0
  138.0062   67.6224  223.2811 H   0  0  0  0  0  0  0  0  0  0  0  0
  136.2140   68.7100  223.6260 C   0  0  0  0  0  0  0  0  0  0  0  0
  135.7800   69.1710  224.8860 C   0  0  0  0  0  0  0  0  0  0  0  0
  136.5165   69.5095  225.6296 H   0  0  0  0  0  0  0  0  0  0  0  0
  134.4150   69.1990  225.1930 C   0  0  0  0  0  0  0  0  0  0  0  0
  134.0833   69.5355  226.1864 H   0  0  0  0  0  0  0  0  0  0  0  0
  133.4720   68.8010  224.2420 C   0  0  0  0  0  0  0  0  0  0  0  0
  132.3995   68.8327  224.4842 H   0  0  0  0  0  0  0  0  0  0  0  0
  133.8910   68.3630  222.9840 C   0  0  0  0  0  0  0  0  0  0  0  0
  133.1471   68.0583  222.2331 H   0  0  0  0  0  0  0  0  0  0  0  0
  135.2530   68.3110  222.6770 C   0  0  0  0  0  0  0  0  0  0  0  0
  135.5769   67.9561  221.6875 H   0  0  0  0  0  0  0  0  0  0  0  0
  136.1610   72.8660  223.5300 C   0  0  0  0  0  0  0  0  0  0  0  0
  136.2100   74.1900  223.0510 C   0  0  0  0  0  0  0  0  0  0  0  0
  136.8014   74.4267  222.1542 H   0  0  0  0  0  0  0  0  0  0  0  0
  135.5100   75.2040  223.7110 C   0  0  0  0  0  0  0  0  0  0  0  0
  135.5519   76.2354  223.3308 H   0  0  0  0  0  0  0  0  0  0  0  0
  134.7570   74.9130  224.8520 C   0  0  0  0  0  0  0  0  0  0  0  0
  134.2097   75.7160  225.3674 H   0  0  0  0  0  0  0  0  0  0  0  0
  134.6970   73.5940  225.3440 C   0  0  0  0  0  0  0  0  0  0  0  0
  133.9590   73.2490  226.4910 O   0  0  0  0  0  0  0  0  0  0  0  0
  133.1160   72.1020  226.5910 C   0  0  0  0  0  0  0  0  0  0  0  0
  132.9424   71.8658  227.6512 H   0  0  0  0  0  0  0  0  0  0  0  0
  132.1542   72.3099  226.0994 H   0  0  0  0  0  0  0  0  0  0  0  0
  133.6016   71.2461  226.0994 H   0  0  0  0  0  0  0  0  0  0  0  0
  135.3930   72.5800  224.6720 C   0  0  0  0  0  0  0  0  0  0  0  0
  135.3375   71.5461  225.0434 H   0  0  0  0  0  0  0  0  0  0  0  0
  1  2  1  0
  2  3  2  0
  3  4  1  0
  3  5  1  0
  5  6  2  0
  6  7  1  0
  7  8  2  0
  8  9  1  0
  8 10  1  0
 10 11  1  0
 10 12  2  0
 12 13  1  0
 12 14  1  0
 14 15  1  0
 14 16  2  0
 16 17  1  0
 17 18  2  0
 17 19  1  0
 19 20  1  0
 20 21  1  0
 20 22  1  0
 20 23  1  0
 23 24  2  0
 24 25  1  0
 24 26  1  0
 26 27  1  0
 26 28  2  0
 28 29  1  0
 28 30  1  0
 30 31  1  0
 30 32  2  0
 32 33  1  0
  2 34  1  0
 34 35  2  0
 35 36  1  0
 35 37  1  0
 37 38  1  0
 37 39  2  0
 39 40  1  0
 39 41  1  0
 41 42  1  0
 42 43  1  0
 43 44  1  0
 43 45  1  0
 43 46  1  0
 41 47  2  0
 47 48  1  0
 19  5  1  0
 32 23  1  0
 47 34  1  0
 16  7  1  0
M  END
>  <UniqueID>  (14) 
75

>  <SMILES>  (14) 
COc1cccc(/C=C/c2nc3ccccc3c(=O)n2Cc2ccccc2)c1

>  <Energy>  (14) 
68.68811401484191

>  <Genealogy>  (14) 
COc1cccc(/C=C/c2nc3ccccc3c(=O)n2Cc2ccccc2)c1 (cis-trans isomerization)
COc1cccc(/C=C/c2nc3ccccc3c(=O)n2Cc2ccccc2)c1 (3D coordinates assigned)
COc1cccc(/C=C/c2nc3ccccc3c(=O)n2Cc2ccccc2)c1 (optimized conformer: 68.68811401484191 kcal/mol)

>  <smiles>  (14) 
COc1cccc(/C=C/c2nc3ccccc3c(=O)n2Cc2ccccc2)c1

>  <score_type>  (14) 
oracle

>  <origin>  (14) 
autodockgpu

>  <m_score__min__energy>  (14) 
-7.6600000000000001

>  <m_primary>  (14) 
energy

>  <meeko>  (14) 
{"free_energy": -6.98, "intermolecular_energy": -8.77, "internal_energy": -1.8, "cluster_size": 5, "cluster_id": 3, "rank_in_cluster": 5}

>  <energy>  (14) 
-6.98

>  <cluster_rmsd>  (14) 
1.51

>  <rmsd>  (14) 
271.04

>  <cluster>  (14) 
3

$$$$
CAKHBICIDRAWDR-CCEZHUSRNA-N
     RDKit          3D

 48 51  0  0  0  0  0  0  0  0999 V2000
  136.1815   71.0698  222.4175 H   0  0  0  0  0  0  0  0  0  0  0  0
  136.7940   71.8020  222.9640 C   0  0  0  0  0  0  0  0  0  0  0  0
  138.1120   71.5870  223.0530 C   0  0  0  0  0  0  0  0  0  0  0  0
  138.7794   71.9885  222.2762 H   0  0  0  0  0  0  0  0  0  0  0  0
  138.6820   70.8230  224.1720 C   0  0  0  0  0  0  0  0  0  0  0  0
  139.4220   71.5090  225.0810 N   0  0  0  0  0  0  0  0  0  0  0  0
  139.9870   70.9000  226.1480 C   0  0  0  0  0  0  0  0  0  0  0  0
  140.7470   71.6440  227.0600 C   0  0  0  0  0  0  0  0  0  0  0  0
  140.8786   72.7259  226.9113 H   0  0  0  0  0  0  0  0  0  0  0  0
  141.3380   71.0140  228.1580 C   0  0  0  0  0  0  0  0  0  0  0  0
  141.9342   71.6002  228.8728 H   0  0  0  0  0  0  0  0  0  0  0  0
  141.1720   69.6380  228.3490 C   0  0  0  0  0  0  0  0  0  0  0  0
  141.6388   69.1439  229.2139 H   0  0  0  0  0  0  0  0  0  0  0  0
  140.4140   68.8890  227.4430 C   0  0  0  0  0  0  0  0  0  0  0  0
  140.2868   67.8072  227.5966 H   0  0  0  0  0  0  0  0  0  0  0  0
  139.8130   69.5170  226.3340 C   0  0  0  0  0  0  0  0  0  0  0  0
  139.0360   68.8120  225.3970 C   0  0  0  0  0  0  0  0  0  0  0  0
  138.8700   67.5680  225.5410 O   0  0  0  0  0  0  0  0  0  0  0  0
  138.4630   69.4710  224.3320 N   0  0  0  0  0  0  0  0  0  0  0  0
  137.6030   68.7280  223.3820 C   0  0  0  0  0  0  0  0  0  0  0  0
  137.7762   69.1185  222.3683 H   0  0  0  0  0  0  0  0  0  0  0  0
  137.8663   67.6623  223.4526 H   0  0  0  0  0  0  0  0  0  0  0  0
  136.1330   68.8640  223.7110 C   0  0  0  0  0  0  0  0  0  0  0  0
  135.1350   68.5350  222.7720 C   0  0  0  0  0  0  0  0  0  0  0  0
  135.4200   68.1748  221.7725 H   0  0  0  0  0  0  0  0  0  0  0  0
  133.7830   68.6650  223.1070 C   0  0  0  0  0  0  0  0  0  0  0  0
  133.0086   68.4320  222.3613 H   0  0  0  0  0  0  0  0  0  0  0  0
  133.4130   69.0900  224.3860 C   0  0  0  0  0  0  0  0  0  0  0  0
  132.3488   69.1818  224.6487 H   0  0  0  0  0  0  0  0  0  0  0  0
  134.3940   69.3980  225.3300 C   0  0  0  0  0  0  0  0  0  0  0  0
  134.1016   69.7248  226.3388 H   0  0  0  0  0  0  0  0  0  0  0  0
  135.7470   69.2920  224.9960 C   0  0  0  0  0  0  0  0  0  0  0  0
  136.5153   69.5445  225.7416 H   0  0  0  0  0  0  0  0  0  0  0  0
  136.1190   72.9740  223.5630 C   0  0  0  0  0  0  0  0  0  0  0  0
  136.1980   74.2550  222.9830 C   0  0  0  0  0  0  0  0  0  0  0  0
  136.8004   74.4096  222.0757 H   0  0  0  0  0  0  0  0  0  0  0  0
  135.5140   75.3300  223.5560 C   0  0  0  0  0  0  0  0  0  0  0  0
  135.5805   76.3278  223.0978 H   0  0  0  0  0  0  0  0  0  0  0  0
  134.7460   75.1440  224.7080 C   0  0  0  0  0  0  0  0  0  0  0  0
  134.2107   75.9954  225.1535 H   0  0  0  0  0  0  0  0  0  0  0  0
  134.6550   73.8690  225.3010 C   0  0  0  0  0  0  0  0  0  0  0  0
  133.9010   73.6280  226.4640 O   0  0  0  0  0  0  0  0  0  0  0  0
  133.3260   72.3670  226.8040 C   0  0  0  0  0  0  0  0  0  0  0  0
  133.2808   72.2678  227.8986 H   0  0  0  0  0  0  0  0  0  0  0  0
  132.3098   72.3032  226.3878 H   0  0  0  0  0  0  0  0  0  0  0  0
  133.9442   71.5579  226.3878 H   0  0  0  0  0  0  0  0  0  0  0  0
  135.3360   72.7920  224.7160 C   0  0  0  0  0  0  0  0  0  0  0  0
  135.2564   71.7912  225.1654 H   0  0  0  0  0  0  0  0  0  0  0  0
  1  2  1  0
  2  3  2  0
  3  4  1  0
  3  5  1  0
  5  6  2  0
  6  7  1  0
  7  8  2  0
  8  9  1  0
  8 10  1  0
 10 11  1  0
 10 12  2  0
 12 13  1  0
 12 14  1  0
 14 15  1  0
 14 16  2  0
 16 17  1  0
 17 18  2  0
 17 19  1  0
 19 20  1  0
 20 21  1  0
 20 22  1  0
 20 23  1  0
 23 24  2  0
 24 25  1  0
 24 26  1  0
 26 27  1  0
 26 28  2  0
 28 29  1  0
 28 30  1  0
 30 31  1  0
 30 32  2  0
 32 33  1  0
  2 34  1  0
 34 35  2  0
 35 36  1  0
 35 37  1  0
 37 38  1  0
 37 39  2  0
 39 40  1  0
 39 41  1  0
 41 42  1  0
 42 43  1  0
 43 44  1  0
 43 45  1  0
 43 46  1  0
 41 47  2  0
 47 48  1  0
 19  5  1  0
 32 23  1  0
 47 34  1  0
 16  7  1  0
M  END
>  <UniqueID>  (15) 
75

>  <SMILES>  (15) 
COc1cccc(/C=C/c2nc3ccccc3c(=O)n2Cc2ccccc2)c1

>  <Energy>  (15) 
68.68811401484191

>  <Genealogy>  (15) 
COc1cccc(/C=C/c2nc3ccccc3c(=O)n2Cc2ccccc2)c1 (cis-trans isomerization)
COc1cccc(/C=C/c2nc3ccccc3c(=O)n2Cc2ccccc2)c1 (3D coordinates assigned)
COc1cccc(/C=C/c2nc3ccccc3c(=O)n2Cc2ccccc2)c1 (optimized conformer: 68.68811401484191 kcal/mol)

>  <smiles>  (15) 
COc1cccc(/C=C/c2nc3ccccc3c(=O)n2Cc2ccccc2)c1

>  <score_type>  (15) 
oracle

>  <origin>  (15) 
autodockgpu

>  <m_score__min__energy>  (15) 
-7.6600000000000001

>  <m_primary>  (15) 
energy

>  <meeko>  (15) 
{"free_energy": -7.1, "intermolecular_energy": -8.89, "internal_energy": -1.74, "cluster_size": 5, "cluster_id": 3, "rank_in_cluster": 4}

>  <energy>  (15) 
-7.29

>  <cluster_rmsd>  (15) 
0.0

>  <rmsd>  (15) 
271.31

>  <cluster>  (15) 
4

$$$$
CAKHBICIDRAWDR-CCEZHUSRNA-N
     RDKit          3D

 48 51  0  0  0  0  0  0  0  0999 V2000
  140.4265   70.8040  220.5657 H   0  0  0  0  0  0  0  0  0  0  0  0
  140.6880   71.6510  221.2170 C   0  0  0  0  0  0  0  0  0  0  0  0
  139.8270   72.0010  222.1790 C   0  0  0  0  0  0  0  0  0  0  0  0
  139.1531   72.8552  222.0176 H   0  0  0  0  0  0  0  0  0  0  0  0
  139.7670   71.2620  223.4490 C   0  0  0  0  0  0  0  0  0  0  0  0
  140.4050   71.8080  224.5160 N   0  0  0  0  0  0  0  0  0  0  0  0
  140.4070   71.2090  225.7300 C   0  0  0  0  0  0  0  0  0  0  0  0
  141.0820   71.8030  226.8040 C   0  0  0  0  0  0  0  0  0  0  0  0
  141.6055   72.7600  226.6624 H   0  0  0  0  0  0  0  0  0  0  0  0
  141.0910   71.1810  228.0550 C   0  0  0  0  0  0  0  0  0  0  0  0
  141.6210   71.6491  228.8976 H   0  0  0  0  0  0  0  0  0  0  0  0
  140.4270   69.9640  228.2370 C   0  0  0  0  0  0  0  0  0  0  0  0
  140.4365   69.4759  229.2227 H   0  0  0  0  0  0  0  0  0  0  0  0
  139.7510   69.3660  227.1690 C   0  0  0  0  0  0  0  0  0  0  0  0
  139.2305   68.4082  227.3164 H   0  0  0  0  0  0  0  0  0  0  0  0
  139.7350   69.9870  225.9050 C   0  0  0  0  0  0  0  0  0  0  0  0
  139.0650   69.4310  224.7990 C   0  0  0  0  0  0  0  0  0  0  0  0
  138.4580   68.3310  224.9320 O   0  0  0  0  0  0  0  0  0  0  0  0
  139.0720   70.0790  223.5840 N   0  0  0  0  0  0  0  0  0  0  0  0
  138.3180   69.5120  222.4420 C   0  0  0  0  0  0  0  0  0  0  0  0
  137.3175   69.2163  222.7908 H   0  0  0  0  0  0  0  0  0  0  0  0
  138.2598   70.2845  221.6611 H   0  0  0  0  0  0  0  0  0  0  0  0
  139.0020   68.3020  221.8450 C   0  0  0  0  0  0  0  0  0  0  0  0
  139.9250   68.4270  220.7880 C   0  0  0  0  0  0  0  0  0  0  0  0
  140.1573   69.4205  220.3768 H   0  0  0  0  0  0  0  0  0  0  0  0
  140.5470   67.2900  220.2600 C   0  0  0  0  0  0  0  0  0  0  0  0
  141.2472   67.3899  219.4175 H   0  0  0  0  0  0  0  0  0  0  0  0
  140.2820   66.0280  220.7990 C   0  0  0  0  0  0  0  0  0  0  0  0
  140.7802   65.1379  220.3872 H   0  0  0  0  0  0  0  0  0  0  0  0
  139.3840   65.8980  221.8610 C   0  0  0  0  0  0  0  0  0  0  0  0
  139.1820   64.9056  222.2904 H   0  0  0  0  0  0  0  0  0  0  0  0
  138.7420   67.0250  222.3790 C   0  0  0  0  0  0  0  0  0  0  0  0
  138.0289   66.9145  223.2092 H   0  0  0  0  0  0  0  0  0  0  0  0
  141.9730   72.3440  220.9840 C   0  0  0  0  0  0  0  0  0  0  0  0
  143.2060   71.6640  221.0360 C   0  0  0  0  0  0  0  0  0  0  0  0
  143.2307   70.5932  221.2863 H   0  0  0  0  0  0  0  0  0  0  0  0
  144.3970   72.3440  220.7710 C   0  0  0  0  0  0  0  0  0  0  0  0
  145.3557   71.8063  220.8135 H   0  0  0  0  0  0  0  0  0  0  0  0
  144.3760   73.7050  220.4520 C   0  0  0  0  0  0  0  0  0  0  0  0
  145.3178   74.2342  220.2448 H   0  0  0  0  0  0  0  0  0  0  0  0
  143.1520   74.4010  220.3950 C   0  0  0  0  0  0  0  0  0  0  0  0
  143.0760   75.7710  220.0850 O   0  0  0  0  0  0  0  0  0  0  0  0
  143.2750   76.3130  218.7800 C   0  0  0  0  0  0  0  0  0  0  0  0
  143.6530   77.3426  218.8643 H   0  0  0  0  0  0  0  0  0  0  0  0
  144.0058   75.6976  218.2349 H   0  0  0  0  0  0  0  0  0  0  0  0
  142.3196   76.3167  218.2349 H   0  0  0  0  0  0  0  0  0  0  0  0
  141.9600   73.7100  220.6530 C   0  0  0  0  0  0  0  0  0  0  0  0
  141.0004   74.2446  220.5956 H   0  0  0  0  0  0  0  0  0  0  0  0
  1  2  1  0
  2  3  2  0
  3  4  1  0
  3  5  1  0
  5  6  2  0
  6  7  1  0
  7  8  2  0
  8  9  1  0
  8 10  1  0
 10 11  1  0
 10 12  2  0
 12 13  1  0
 12 14  1  0
 14 15  1  0
 14 16  2  0
 16 17  1  0
 17 18  2  0
 17 19  1  0
 19 20  1  0
 20 21  1  0
 20 22  1  0
 20 23  1  0
 23 24  2  0
 24 25  1  0
 24 26  1  0
 26 27  1  0
 26 28  2  0
 28 29  1  0
 28 30  1  0
 30 31  1  0
 30 32  2  0
 32 33  1  0
  2 34  1  0
 34 35  2  0
 35 36  1  0
 35 37  1  0
 37 38  1  0
 37 39  2  0
 39 40  1  0
 39 41  1  0
 41 42  1  0
 42 43  1  0
 43 44  1  0
 43 45  1  0
 43 46  1  0
 41 47  2  0
 47 48  1  0
 19  5  1  0
 32 23  1  0
 47 34  1  0
 16  7  1  0
M  END
>  <UniqueID>  (16) 
75

>  <SMILES>  (16) 
COc1cccc(/C=C/c2nc3ccccc3c(=O)n2Cc2ccccc2)c1

>  <Energy>  (16) 
68.68811401484191

>  <Genealogy>  (16) 
COc1cccc(/C=C/c2nc3ccccc3c(=O)n2Cc2ccccc2)c1 (cis-trans isomerization)
COc1cccc(/C=C/c2nc3ccccc3c(=O)n2Cc2ccccc2)c1 (3D coordinates assigned)
COc1cccc(/C=C/c2nc3ccccc3c(=O)n2Cc2ccccc2)c1 (optimized conformer: 68.68811401484191 kcal/mol)

>  <smiles>  (16) 
COc1cccc(/C=C/c2nc3ccccc3c(=O)n2Cc2ccccc2)c1

>  <score_type>  (16) 
oracle

>  <origin>  (16) 
autodockgpu

>  <m_score__min__energy>  (16) 
-7.6600000000000001

>  <m_primary>  (16) 
energy

>  <meeko>  (16) 
{"free_energy": -7.17, "intermolecular_energy": -8.96, "internal_energy": -1.29, "cluster_size": 5, "cluster_id": 1, "rank_in_cluster": 4}

>  <energy>  (16) 
-7.24

>  <cluster_rmsd>  (16) 
0.73

>  <rmsd>  (16) 
271.23

>  <cluster>  (16) 
4

$$$$
CAKHBICIDRAWDR-CCEZHUSRNA-N
     RDKit          3D

 48 51  0  0  0  0  0  0  0  0999 V2000
  141.2361   70.7969  221.1255 H   0  0  0  0  0  0  0  0  0  0  0  0
  141.0100   71.8240  221.4480 C   0  0  0  0  0  0  0  0  0  0  0  0
  139.9790   72.0160  222.2790 C   0  0  0  0  0  0  0  0  0  0  0  0
  139.1980   72.7436  222.0132 H   0  0  0  0  0  0  0  0  0  0  0  0
  139.8730   71.2700  223.5420 C   0  0  0  0  0  0  0  0  0  0  0  0
  140.4980   71.7950  224.6280 N   0  0  0  0  0  0  0  0  0  0  0  0
  140.4580   71.1890  225.8370 C   0  0  0  0  0  0  0  0  0  0  0  0
  141.1200   71.7620  226.9300 C   0  0  0  0  0  0  0  0  0  0  0  0
  141.6664   72.7087  226.8069 H   0  0  0  0  0  0  0  0  0  0  0  0
  141.0870   71.1320  228.1770 C   0  0  0  0  0  0  0  0  0  0  0  0
  141.6077   71.5829  229.0347 H   0  0  0  0  0  0  0  0  0  0  0  0
  140.3920   69.9280  228.3350 C   0  0  0  0  0  0  0  0  0  0  0  0
  140.3680   69.4333  229.3172 H   0  0  0  0  0  0  0  0  0  0  0  0
  139.7280   69.3520  227.2480 C   0  0  0  0  0  0  0  0  0  0  0  0
  139.1831   68.4052  227.3770 H   0  0  0  0  0  0  0  0  0  0  0  0
  139.7550   69.9810  225.9880 C   0  0  0  0  0  0  0  0  0  0  0  0
  139.0990   69.4470  224.8640 C   0  0  0  0  0  0  0  0  0  0  0  0
  138.4650   68.3600  224.9740 O   0  0  0  0  0  0  0  0  0  0  0  0
  139.1490   70.1020  223.6530 N   0  0  0  0  0  0  0  0  0  0  0  0
  138.4100   69.5590  222.4900 C   0  0  0  0  0  0  0  0  0  0  0  0
  137.3938   69.2878  222.8122 H   0  0  0  0  0  0  0  0  0  0  0  0
  138.3915   70.3358  221.7114 H   0  0  0  0  0  0  0  0  0  0  0  0
  139.0770   68.3350  221.9050 C   0  0  0  0  0  0  0  0  0  0  0  0
  138.8160   67.0440  222.4090 C   0  0  0  0  0  0  0  0  0  0  0  0
  138.1174   66.9133  223.2486 H   0  0  0  0  0  0  0  0  0  0  0  0
  139.4440   65.9290  221.8430 C   0  0  0  0  0  0  0  0  0  0  0  0
  139.2578   64.9269  222.2567 H   0  0  0  0  0  0  0  0  0  0  0  0
  140.3070   66.0830  220.7540 C   0  0  0  0  0  0  0  0  0  0  0  0
  140.7916   65.2027  220.3065 H   0  0  0  0  0  0  0  0  0  0  0  0
  140.5530   67.3560  220.2350 C   0  0  0  0  0  0  0  0  0  0  0  0
  141.2251   67.4762  219.3725 H   0  0  0  0  0  0  0  0  0  0  0  0
  139.9480   68.4770  220.8080 C   0  0  0  0  0  0  0  0  0  0  0  0
  140.1534   69.4774  220.3994 H   0  0  0  0  0  0  0  0  0  0  0  0
  141.8610   72.9220  220.9410 C   0  0  0  0  0  0  0  0  0  0  0  0
  141.3240   74.1750  220.5860 C   0  0  0  0  0  0  0  0  0  0  0  0
  140.2394   74.3455  220.6539 H   0  0  0  0  0  0  0  0  0  0  0  0
  142.1640   75.2020  220.1480 C   0  0  0  0  0  0  0  0  0  0  0  0
  141.7378   76.1778  219.8719 H   0  0  0  0  0  0  0  0  0  0  0  0
  143.5440   74.9950  220.0590 C   0  0  0  0  0  0  0  0  0  0  0  0
  144.1995   75.8082  219.7140 H   0  0  0  0  0  0  0  0  0  0  0  0
  144.0970   73.7480  220.4100 C   0  0  0  0  0  0  0  0  0  0  0  0
  145.4770   73.4860  220.3340 O   0  0  0  0  0  0  0  0  0  0  0  0
  146.3400   73.3760  221.4650 C   0  0  0  0  0  0  0  0  0  0  0  0
  145.7463   73.4517  222.3879 H   0  0  0  0  0  0  0  0  0  0  0  0
  146.8559   72.4048  221.4395 H   0  0  0  0  0  0  0  0  0  0  0  0
  147.0830   74.1867  221.4395 H   0  0  0  0  0  0  0  0  0  0  0  0
  143.2500   72.7250  220.8580 C   0  0  0  0  0  0  0  0  0  0  0  0
  143.6784   71.7545  221.1487 H   0  0  0  0  0  0  0  0  0  0  0  0
  1  2  1  0
  2  3  2  0
  3  4  1  0
  3  5  1  0
  5  6  2  0
  6  7  1  0
  7  8  2  0
  8  9  1  0
  8 10  1  0
 10 11  1  0
 10 12  2  0
 12 13  1  0
 12 14  1  0
 14 15  1  0
 14 16  2  0
 16 17  1  0
 17 18  2  0
 17 19  1  0
 19 20  1  0
 20 21  1  0
 20 22  1  0
 20 23  1  0
 23 24  2  0
 24 25  1  0
 24 26  1  0
 26 27  1  0
 26 28  2  0
 28 29  1  0
 28 30  1  0
 30 31  1  0
 30 32  2  0
 32 33  1  0
  2 34  1  0
 34 35  2  0
 35 36  1  0
 35 37  1  0
 37 38  1  0
 37 39  2  0
 39 40  1  0
 39 41  1  0
 41 42  1  0
 42 43  1  0
 43 44  1  0
 43 45  1  0
 43 46  1  0
 41 47  2  0
 47 48  1  0
 19  5  1  0
 32 23  1  0
 47 34  1  0
 16  7  1  0
M  END
>  <UniqueID>  (17) 
75

>  <SMILES>  (17) 
COc1cccc(/C=C/c2nc3ccccc3c(=O)n2Cc2ccccc2)c1

>  <Energy>  (17) 
68.68811401484191

>  <Genealogy>  (17) 
COc1cccc(/C=C/c2nc3ccccc3c(=O)n2Cc2ccccc2)c1 (cis-trans isomerization)
COc1cccc(/C=C/c2nc3ccccc3c(=O)n2Cc2ccccc2)c1 (3D coordinates assigned)
COc1cccc(/C=C/c2nc3ccccc3c(=O)n2Cc2ccccc2)c1 (optimized conformer: 68.68811401484191 kcal/mol)

>  <smiles>  (17) 
COc1cccc(/C=C/c2nc3ccccc3c(=O)n2Cc2ccccc2)c1

>  <score_type>  (17) 
oracle

>  <origin>  (17) 
autodockgpu

>  <m_score__min__energy>  (17) 
-7.6600000000000001

>  <m_primary>  (17) 
energy

>  <meeko>  (17) 
{"free_energy": -7.66, "intermolecular_energy": -9.45, "internal_energy": -1.17, "cluster_size": 5, "cluster_id": 1, "rank_in_cluster": 1}

>  <energy>  (17) 
-7.19

>  <cluster_rmsd>  (17) 
0.0

>  <rmsd>  (17) 
271.39

>  <cluster>  (17) 
5

$$$$
CAKHBICIDRAWDR-CCEZHUSRNA-N
     RDKit          3D

 48 51  0  0  0  0  0  0  0  0999 V2000
  138.5273   73.1290  222.1903 H   0  0  0  0  0  0  0  0  0  0  0  0
  139.4880   72.6090  222.3190 C   0  0  0  0  0  0  0  0  0  0  0  0
  140.4940   72.9200  221.4930 C   0  0  0  0  0  0  0  0  0  0  0  0
  141.0741   72.1145  221.0191 H   0  0  0  0  0  0  0  0  0  0  0  0
  140.8360   74.3220  221.2090 C   0  0  0  0  0  0  0  0  0  0  0  0
  140.3010   75.2690  222.0220 N   0  0  0  0  0  0  0  0  0  0  0  0
  140.5560   76.5870  221.8470 C   0  0  0  0  0  0  0  0  0  0  0  0
  139.9810   77.5320  222.7050 C   0  0  0  0  0  0  0  0  0  0  0  0
  139.3272   77.2029  223.5261 H   0  0  0  0  0  0  0  0  0  0  0  0
  140.2370   78.8930  222.5190 C   0  0  0  0  0  0  0  0  0  0  0  0
  139.7843   79.6343  223.1939 H   0  0  0  0  0  0  0  0  0  0  0  0
  141.0680   79.3140  221.4760 C   0  0  0  0  0  0  0  0  0  0  0  0
  141.2665   80.3862  221.3311 H   0  0  0  0  0  0  0  0  0  0  0  0
  141.6470   78.3750  220.6170 C   0  0  0  0  0  0  0  0  0  0  0  0
  142.3010   78.7103  219.7985 H   0  0  0  0  0  0  0  0  0  0  0  0
  141.3950   77.0000  220.7970 C   0  0  0  0  0  0  0  0  0  0  0  0
  141.9570   76.0150  219.9650 C   0  0  0  0  0  0  0  0  0  0  0  0
  142.7100   76.3640  219.0130 O   0  0  0  0  0  0  0  0  0  0  0  0
  141.6870   74.6820  220.1850 N   0  0  0  0  0  0  0  0  0  0  0  0
  142.3270   73.6510  219.3370 C   0  0  0  0  0  0  0  0  0  0  0  0
  141.7187   72.7353  219.3742 H   0  0  0  0  0  0  0  0  0  0  0  0
  142.3915   74.0501  218.3140 H   0  0  0  0  0  0  0  0  0  0  0  0
  143.7300   73.3210  219.7930 C   0  0  0  0  0  0  0  0  0  0  0  0
  144.3950   74.1080  220.7550 C   0  0  0  0  0  0  0  0  0  0  0  0
  143.8931   74.9863  221.1870 H   0  0  0  0  0  0  0  0  0  0  0  0
  145.6920   73.7750  221.1620 C   0  0  0  0  0  0  0  0  0  0  0  0
  146.2172   74.4081  221.8923 H   0  0  0  0  0  0  0  0  0  0  0  0
  146.3220   72.6400  220.6430 C   0  0  0  0  0  0  0  0  0  0  0  0
  147.3374   72.3756  220.9731 H   0  0  0  0  0  0  0  0  0  0  0  0
  145.6630   71.8420  219.7060 C   0  0  0  0  0  0  0  0  0  0  0  0
  146.1570   70.9451  219.3041 H   0  0  0  0  0  0  0  0  0  0  0  0
  144.3770   72.1810  219.2780 C   0  0  0  0  0  0  0  0  0  0  0  0
  143.8661   71.5529  218.5333 H   0  0  0  0  0  0  0  0  0  0  0  0
  139.6020   71.6020  223.3960 C   0  0  0  0  0  0  0  0  0  0  0  0
  138.9500   70.3550  223.3210 C   0  0  0  0  0  0  0  0  0  0  0  0
  138.3103   70.1223  222.4569 H   0  0  0  0  0  0  0  0  0  0  0  0
  139.1130   69.4130  224.3400 C   0  0  0  0  0  0  0  0  0  0  0  0
  138.5992   68.4425  224.2756 H   0  0  0  0  0  0  0  0  0  0  0  0
  139.9260   69.6980  225.4410 C   0  0  0  0  0  0  0  0  0  0  0  0
  140.0508   68.9511  226.2389 H   0  0  0  0  0  0  0  0  0  0  0  0
  140.5860   70.9400  225.5310 C   0  0  0  0  0  0  0  0  0  0  0  0
  141.4110   71.2790  226.6190 O   0  0  0  0  0  0  0  0  0  0  0  0
  140.9430   71.8760  227.8290 C   0  0  0  0  0  0  0  0  0  0  0  0
  141.3649   71.3377  228.6905 H   0  0  0  0  0  0  0  0  0  0  0  0
  141.2586   72.9292  227.8642 H   0  0  0  0  0  0  0  0  0  0  0  0
  139.8449   71.8209  227.8642 H   0  0  0  0  0  0  0  0  0  0  0  0
  140.4260   71.8770  224.5010 C   0  0  0  0  0  0  0  0  0  0  0  0
  140.9526   72.8410  224.5582 H   0  0  0  0  0  0  0  0  0  0  0  0
  1  2  1  0
  2  3  2  0
  3  4  1  0
  3  5  1  0
  5  6  2  0
  6  7  1  0
  7  8  2  0
  8  9  1  0
  8 10  1  0
 10 11  1  0
 10 12  2  0
 12 13  1  0
 12 14  1  0
 14 15  1  0
 14 16  2  0
 16 17  1  0
 17 18  2  0
 17 19  1  0
 19 20  1  0
 20 21  1  0
 20 22  1  0
 20 23  1  0
 23 24  2  0
 24 25  1  0
 24 26  1  0
 26 27  1  0
 26 28  2  0
 28 29  1  0
 28 30  1  0
 30 31  1  0
 30 32  2  0
 32 33  1  0
  2 34  1  0
 34 35  2  0
 35 36  1  0
 35 37  1  0
 37 38  1  0
 37 39  2  0
 39 40  1  0
 39 41  1  0
 41 42  1  0
 42 43  1  0
 43 44  1  0
 43 45  1  0
 43 46  1  0
 41 47  2  0
 47 48  1  0
 19  5  1  0
 32 23  1  0
 47 34  1  0
 16  7  1  0
M  END
>  <UniqueID>  (18) 
75

>  <SMILES>  (18) 
COc1cccc(/C=C/c2nc3ccccc3c(=O)n2Cc2ccccc2)c1

>  <Energy>  (18) 
68.68811401484191

>  <Genealogy>  (18) 
COc1cccc(/C=C/c2nc3ccccc3c(=O)n2Cc2ccccc2)c1 (cis-trans isomerization)
COc1cccc(/C=C/c2nc3ccccc3c(=O)n2Cc2ccccc2)c1 (3D coordinates assigned)
COc1cccc(/C=C/c2nc3ccccc3c(=O)n2Cc2ccccc2)c1 (optimized conformer: 68.68811401484191 kcal/mol)

>  <smiles>  (18) 
COc1cccc(/C=C/c2nc3ccccc3c(=O)n2Cc2ccccc2)c1

>  <score_type>  (18) 
oracle

>  <origin>  (18) 
autodockgpu

>  <m_score__min__energy>  (18) 
-7.6600000000000001

>  <m_primary>  (18) 
energy

>  <meeko>  (18) 
{"free_energy": -7.6, "intermolecular_energy": -9.39, "internal_energy": -1.14, "cluster_size": 4, "cluster_id": 2, "rank_in_cluster": 1}

>  <energy>  (18) 
-6.78

>  <cluster_rmsd>  (18) 
1.42

>  <rmsd>  (18) 
271.14

>  <cluster>  (18) 
5

$$$$
CAKHBICIDRAWDR-CCEZHUSRNA-N
     RDKit          3D

 48 51  0  0  0  0  0  0  0  0999 V2000
  134.4974   70.6967  222.6503 H   0  0  0  0  0  0  0  0  0  0  0  0
  135.1430   70.4430  223.5040 C   0  0  0  0  0  0  0  0  0  0  0  0
  136.2740   69.7680  223.2660 C   0  0  0  0  0  0  0  0  0  0  0  0
  136.2559   68.9057  222.5833 H   0  0  0  0  0  0  0  0  0  0  0  0
  137.5400   70.1600  223.9020 C   0  0  0  0  0  0  0  0  0  0  0  0
  137.8720   69.5370  225.0630 N   0  0  0  0  0  0  0  0  0  0  0  0
  139.0160   69.8230  225.7260 C   0  0  0  0  0  0  0  0  0  0  0  0
  139.3180   69.1610  226.9220 C   0  0  0  0  0  0  0  0  0  0  0  0
  138.6272   68.4030  227.3199 H   0  0  0  0  0  0  0  0  0  0  0  0
  140.4960   69.4620  227.6110 C   0  0  0  0  0  0  0  0  0  0  0  0
  140.7320   68.9404  228.5503 H   0  0  0  0  0  0  0  0  0  0  0  0
  141.3750   70.4260  227.1070 C   0  0  0  0  0  0  0  0  0  0  0  0
  142.3008   70.6626  227.6519 H   0  0  0  0  0  0  0  0  0  0  0  0
  141.0800   71.0900  225.9120 C   0  0  0  0  0  0  0  0  0  0  0  0
  141.7744   71.8473  225.5191 H   0  0  0  0  0  0  0  0  0  0  0  0
  139.8950   70.7910  225.2100 C   0  0  0  0  0  0  0  0  0  0  0  0
  139.5550   71.4250  224.0010 C   0  0  0  0  0  0  0  0  0  0  0  0
  140.3270   72.3020  223.5220 O   0  0  0  0  0  0  0  0  0  0  0  0
  138.3880   71.0950  223.3480 N   0  0  0  0  0  0  0  0  0  0  0  0
  138.0660   71.7300  222.0490 C   0  0  0  0  0  0  0  0  0  0  0  0
  138.9461   71.6588  221.3930 H   0  0  0  0  0  0  0  0  0  0  0  0
  137.2014   71.2008  221.6219 H   0  0  0  0  0  0  0  0  0  0  0  0
  137.6880   73.1860  222.1980 C   0  0  0  0  0  0  0  0  0  0  0  0
  136.4320   73.5720  222.7080 C   0  0  0  0  0  0  0  0  0  0  0  0
  135.7001   72.8053  223.0021 H   0  0  0  0  0  0  0  0  0  0  0  0
  136.1140   74.9280  222.8410 C   0  0  0  0  0  0  0  0  0  0  0  0
  135.1230   75.2239  223.2156 H   0  0  0  0  0  0  0  0  0  0  0  0
  137.0500   75.9080  222.5000 C   0  0  0  0  0  0  0  0  0  0  0  0
  136.7984   76.9727  222.6143 H   0  0  0  0  0  0  0  0  0  0  0  0
  138.3050   75.5350  222.0140 C   0  0  0  0  0  0  0  0  0  0  0  0
  139.0445   76.3066  221.7536 H   0  0  0  0  0  0  0  0  0  0  0  0
  138.6230   74.1830  221.8580 C   0  0  0  0  0  0  0  0  0  0  0  0
  139.6102   73.8956  221.4670 H   0  0  0  0  0  0  0  0  0  0  0  0
  134.7170   70.8650  224.8550 C   0  0  0  0  0  0  0  0  0  0  0  0
  134.6900   69.9670  225.9410 C   0  0  0  0  0  0  0  0  0  0  0  0
  134.9614   68.9123  225.7865 H   0  0  0  0  0  0  0  0  0  0  0  0
  134.3200   70.4110  227.2130 C   0  0  0  0  0  0  0  0  0  0  0  0
  134.3008   69.7043  228.0558 H   0  0  0  0  0  0  0  0  0  0  0  0
  133.9740   71.7500  227.4190 C   0  0  0  0  0  0  0  0  0  0  0  0
  133.6830   72.0930  228.4228 H   0  0  0  0  0  0  0  0  0  0  0  0
  133.9970   72.6610  226.3450 C   0  0  0  0  0  0  0  0  0  0  0  0
  133.6540   74.0170  226.4970 O   0  0  0  0  0  0  0  0  0  0  0  0
  134.2800   75.0910  225.7950 C   0  0  0  0  0  0  0  0  0  0  0  0
  134.6976   75.8074  226.5178 H   0  0  0  0  0  0  0  0  0  0  0  0
  135.0883   74.6943  225.1632 H   0  0  0  0  0  0  0  0  0  0  0  0
  133.5364   75.5988  225.1632 H   0  0  0  0  0  0  0  0  0  0  0  0
  134.3780   72.2110  225.0740 C   0  0  0  0  0  0  0  0  0  0  0  0
  134.4123   72.9218  224.2352 H   0  0  0  0  0  0  0  0  0  0  0  0
  1  2  1  0
  2  3  2  0
  3  4  1  0
  3  5  1  0
  5  6  2  0
  6  7  1  0
  7  8  2  0
  8  9  1  0
  8 10  1  0
 10 11  1  0
 10 12  2  0
 12 13  1  0
 12 14  1  0
 14 15  1  0
 14 16  2  0
 16 17  1  0
 17 18  2  0
 17 19  1  0
 19 20  1  0
 20 21  1  0
 20 22  1  0
 20 23  1  0
 23 24  2  0
 24 25  1  0
 24 26  1  0
 26 27  1  0
 26 28  2  0
 28 29  1  0
 28 30  1  0
 30 31  1  0
 30 32  2  0
 32 33  1  0
  2 34  1  0
 34 35  2  0
 35 36  1  0
 35 37  1  0
 37 38  1  0
 37 39  2  0
 39 40  1  0
 39 41  1  0
 41 42  1  0
 42 43  1  0
 43 44  1  0
 43 45  1  0
 43 46  1  0
 41 47  2  0
 47 48  1  0
 19  5  1  0
 32 23  1  0
 47 34  1  0
 16  7  1  0
M  END
>  <UniqueID>  (19) 
75

>  <SMILES>  (19) 
COc1cccc(/C=C/c2nc3ccccc3c(=O)n2Cc2ccccc2)c1

>  <Energy>  (19) 
68.68811401484191

>  <Genealogy>  (19) 
COc1cccc(/C=C/c2nc3ccccc3c(=O)n2Cc2ccccc2)c1 (cis-trans isomerization)
COc1cccc(/C=C/c2nc3ccccc3c(=O)n2Cc2ccccc2)c1 (3D coordinates assigned)
COc1cccc(/C=C/c2nc3ccccc3c(=O)n2Cc2ccccc2)c1 (optimized conformer: 68.68811401484191 kcal/mol)

>  <smiles>  (19) 
COc1cccc(/C=C/c2nc3ccccc3c(=O)n2Cc2ccccc2)c1

>  <score_type>  (19) 
oracle

>  <origin>  (19) 
autodockgpu

>  <m_score__min__energy>  (19) 
-7.6600000000000001

>  <m_primary>  (19) 
energy

>  <meeko>  (19) 
{"free_energy": -6.74, "intermolecular_energy": -8.53, "internal_energy": -1.88, "cluster_size": 3, "cluster_id": 5, "rank_in_cluster": 3}

>  <energy>  (19) 
-6.74

>  <cluster_rmsd>  (19) 
1.38

>  <rmsd>  (19) 
271.14

>  <cluster>  (19) 
5

$$$$
CAKHBICIDRAWDR-CCEZHUSRNA-N
     RDKit          3D

 48 51  0  0  0  0  0  0  0  0999 V2000
  139.1196   73.4223  222.6411 H   0  0  0  0  0  0  0  0  0  0  0  0
  139.9290   72.8720  222.1390 C   0  0  0  0  0  0  0  0  0  0  0  0
  139.9250   71.5360  222.2070 C   0  0  0  0  0  0  0  0  0  0  0  0
  139.8958   70.9470  221.2784 H   0  0  0  0  0  0  0  0  0  0  0  0
  139.9590   70.8420  223.5030 C   0  0  0  0  0  0  0  0  0  0  0  0
  140.4390   71.5350  224.5670 N   0  0  0  0  0  0  0  0  0  0  0  0
  140.5100   70.9890  225.8030 C   0  0  0  0  0  0  0  0  0  0  0  0
  141.0160   71.7370  226.8730 C   0  0  0  0  0  0  0  0  0  0  0  0
  141.3510   72.7720  226.7100 H   0  0  0  0  0  0  0  0  0  0  0  0
  141.0960   71.1700  228.1480 C   0  0  0  0  0  0  0  0  0  0  0  0
  141.4934   71.7591  228.9876 H   0  0  0  0  0  0  0  0  0  0  0  0
  140.6710   69.8540  228.3570 C   0  0  0  0  0  0  0  0  0  0  0  0
  140.7365   69.4093  229.3610 H   0  0  0  0  0  0  0  0  0  0  0  0
  140.1630   69.1020  227.2930 C   0  0  0  0  0  0  0  0  0  0  0  0
  139.8297   68.0675  227.4623 H   0  0  0  0  0  0  0  0  0  0  0  0
  140.0770   69.6660  226.0050 C   0  0  0  0  0  0  0  0  0  0  0  0
  139.5690   68.9550  224.9030 C   0  0  0  0  0  0  0  0  0  0  0  0
  139.1790   67.7640  225.0600 O   0  0  0  0  0  0  0  0  0  0  0  0
  139.4990   69.5520  223.6630 N   0  0  0  0  0  0  0  0  0  0  0  0
  138.9110   68.8130  222.5220 C   0  0  0  0  0  0  0  0  0  0  0  0
  139.0882   69.3868  221.6004 H   0  0  0  0  0  0  0  0  0  0  0  0
  139.3910   67.8241  222.4795 H   0  0  0  0  0  0  0  0  0  0  0  0
  137.4230   68.5970  222.6810 C   0  0  0  0  0  0  0  0  0  0  0  0
  136.7460   67.5880  221.9670 C   0  0  0  0  0  0  0  0  0  0  0  0
  137.3011   66.9406  221.2722 H   0  0  0  0  0  0  0  0  0  0  0  0
  135.3690   67.4080  222.1400 C   0  0  0  0  0  0  0  0  0  0  0  0
  134.8402   66.6366  221.5610 H   0  0  0  0  0  0  0  0  0  0  0  0
  134.6630   68.2050  223.0460 C   0  0  0  0  0  0  0  0  0  0  0  0
  133.5824   68.0541  223.1855 H   0  0  0  0  0  0  0  0  0  0  0  0
  135.3300   69.1930  223.7740 C   0  0  0  0  0  0  0  0  0  0  0  0
  134.7753   69.8140  224.4928 H   0  0  0  0  0  0  0  0  0  0  0  0
  136.7000   69.3940  223.5910 C   0  0  0  0  0  0  0  0  0  0  0  0
  137.2180   70.1795  224.1609 H   0  0  0  0  0  0  0  0  0  0  0  0
  140.9650   73.6470  221.4240 C   0  0  0  0  0  0  0  0  0  0  0  0
  140.7710   74.9960  221.0650 C   0  0  0  0  0  0  0  0  0  0  0  0
  139.8148   75.4909  221.2905 H   0  0  0  0  0  0  0  0  0  0  0  0
  141.7880   75.7070  220.4240 C   0  0  0  0  0  0  0  0  0  0  0  0
  141.6284   76.7590  220.1452 H   0  0  0  0  0  0  0  0  0  0  0  0
  143.0080   75.0880  220.1350 C   0  0  0  0  0  0  0  0  0  0  0  0
  143.8048   75.6544  219.6308 H   0  0  0  0  0  0  0  0  0  0  0  0
  143.2190   73.7410  220.4880 C   0  0  0  0  0  0  0  0  0  0  0  0
  144.4250   73.0690  220.2150 O   0  0  0  0  0  0  0  0  0  0  0  0
  145.6720   73.3650  220.8430 C   0  0  0  0  0  0  0  0  0  0  0  0
  145.5484   73.3356  221.9356 H   0  0  0  0  0  0  0  0  0  0  0  0
  146.4218   72.6199  220.5387 H   0  0  0  0  0  0  0  0  0  0  0  0
  146.0069   74.3676  220.5387 H   0  0  0  0  0  0  0  0  0  0  0  0
  142.1980   73.0350  221.1380 C   0  0  0  0  0  0  0  0  0  0  0  0
  142.3635   71.9871  221.4286 H   0  0  0  0  0  0  0  0  0  0  0  0
  1  2  1  0
  2  3  2  0
  3  4  1  0
  3  5  1  0
  5  6  2  0
  6  7  1  0
  7  8  2  0
  8  9  1  0
  8 10  1  0
 10 11  1  0
 10 12  2  0
 12 13  1  0
 12 14  1  0
 14 15  1  0
 14 16  2  0
 16 17  1  0
 17 18  2  0
 17 19  1  0
 19 20  1  0
 20 21  1  0
 20 22  1  0
 20 23  1  0
 23 24  2  0
 24 25  1  0
 24 26  1  0
 26 27  1  0
 26 28  2  0
 28 29  1  0
 28 30  1  0
 30 31  1  0
 30 32  2  0
 32 33  1  0
  2 34  1  0
 34 35  2  0
 35 36  1  0
 35 37  1  0
 37 38  1  0
 37 39  2  0
 39 40  1  0
 39 41  1  0
 41 42  1  0
 42 43  1  0
 43 44  1  0
 43 45  1  0
 43 46  1  0
 41 47  2  0
 47 48  1  0
 19  5  1  0
 32 23  1  0
 47 34  1  0
 16  7  1  0
M  END
>  <UniqueID>  (20) 
75

>  <SMILES>  (20) 
COc1cccc(/C=C/c2nc3ccccc3c(=O)n2Cc2ccccc2)c1

>  <Energy>  (20) 
68.68811401484191

>  <Genealogy>  (20) 
COc1cccc(/C=C/c2nc3ccccc3c(=O)n2Cc2ccccc2)c1 (cis-trans isomerization)
COc1cccc(/C=C/c2nc3ccccc3c(=O)n2Cc2ccccc2)c1 (3D coordinates assigned)
COc1cccc(/C=C/c2nc3ccccc3c(=O)n2Cc2ccccc2)c1 (optimized conformer: 68.68811401484191 kcal/mol)

>  <smiles>  (20) 
COc1cccc(/C=C/c2nc3ccccc3c(=O)n2Cc2ccccc2)c1

>  <score_type>  (20) 
oracle

>  <origin>  (20) 
autodockgpu

>  <m_score__min__energy>  (20) 
-7.6600000000000001

>  <m_primary>  (20) 
energy

>  <meeko>  (20) 
{"free_energy": -7.46, "intermolecular_energy": -9.25, "internal_energy": -1.12, "cluster_size": 5, "cluster_id": 1, "rank_in_cluster": 3}

>  <energy>  (20) 
-7.08

>  <cluster_rmsd>  (20) 
0.0

>  <rmsd>  (20) 
271.05

>  <cluster>  (20) 
6

$$$$
