YLRGTGGRSQXFLM-ZHACJKMWNA-N
     RDKit          3D

 43 46  0  0  0  0  0  0  0  0999 V2000
  141.2578   70.7322  220.8518 H   0  0  0  0  0  0  0  0  0  0  0  0
  140.5260   71.3410  221.4030 C   0  0  0  0  0  0  0  0  0  0  0  0
  139.5280   70.7180  222.0420 C   0  0  0  0  0  0  0  0  0  0  0  0
  138.5844   70.5132  221.5151 H   0  0  0  0  0  0  0  0  0  0  0  0
  139.6870   70.3060  223.4450 C   0  0  0  0  0  0  0  0  0  0  0  0
  140.2170   71.2130  224.3130 N   0  0  0  0  0  0  0  0  0  0  0  0
  140.3930   70.9240  225.6220 C   0  0  0  0  0  0  0  0  0  0  0  0
  140.9290   71.8920  226.4880 C   0  0  0  0  0  0  0  0  0  0  0  0
  141.2083   72.8829  226.1005 H   0  0  0  0  0  0  0  0  0  0  0  0
  141.1070   71.5950  227.8420 C   0  0  0  0  0  0  0  0  0  0  0  0
  141.5262   72.3525  228.5205 H   0  0  0  0  0  0  0  0  0  0  0  0
  140.7520   70.3340  228.3350 C   0  0  0  0  0  0  0  0  0  0  0  0
  140.8946   70.1039  229.4012 H   0  0  0  0  0  0  0  0  0  0  0  0
  140.2150   69.3610  227.4770 C   0  0  0  0  0  0  0  0  0  0  0  0
  139.9374   68.3723  227.8712 H   0  0  0  0  0  0  0  0  0  0  0  0
  140.0320   69.6520  226.1110 C   0  0  0  0  0  0  0  0  0  0  0  0
  139.5040   68.7120  225.2040 C   0  0  0  0  0  0  0  0  0  0  0  0
  139.1970   67.5570  225.6180 O   0  0  0  0  0  0  0  0  0  0  0  0
  139.3330   69.0450  223.8780 N   0  0  0  0  0  0  0  0  0  0  0  0
  138.8240   68.0410  222.9150 C   0  0  0  0  0  0  0  0  0  0  0  0
  139.2909   68.2148  221.9343 H   0  0  0  0  0  0  0  0  0  0  0  0
  139.0752   67.0380  223.2902 H   0  0  0  0  0  0  0  0  0  0  0  0
  137.3210   68.1380  222.7710 C   0  0  0  0  0  0  0  0  0  0  0  0
  136.5870   69.0340  223.5740 C   0  0  0  0  0  0  0  0  0  0  0  0
  137.1100   69.6769  224.2973 H   0  0  0  0  0  0  0  0  0  0  0  0
  135.1970   69.1080  223.4540 C   0  0  0  0  0  0  0  0  0  0  0  0
  134.6268   69.8036  224.0873 H   0  0  0  0  0  0  0  0  0  0  0  0
  134.5300   68.2980  222.5290 C   0  0  0  0  0  0  0  0  0  0  0  0
  133.4354   68.3567  222.4379 H   0  0  0  0  0  0  0  0  0  0  0  0
  135.2510   67.4130  221.7190 C   0  0  0  0  0  0  0  0  0  0  0  0
  134.5990   66.5880  220.8660 F   0  0  0  0  0  0  0  0  0  0  0  0
  136.6400   67.3300  221.8410 C   0  0  0  0  0  0  0  0  0  0  0  0
  137.2043   66.6300  221.2074 H   0  0  0  0  0  0  0  0  0  0  0  0
  140.6880   72.8050  221.4050 C   0  0  0  0  0  0  0  0  0  0  0  0
  139.7460   73.6610  222.0160 C   0  0  0  0  0  0  0  0  0  0  0  0
  138.8321   73.2424  222.4627 H   0  0  0  0  0  0  0  0  0  0  0  0
  139.9670   75.0020  222.0530 N   0  0  0  0  0  0  0  0  0  0  0  0
  141.0700   75.5610  221.4900 C   0  0  0  0  0  0  0  0  0  0  0  0
  141.2202   76.6495  221.5414 H   0  0  0  0  0  0  0  0  0  0  0  0
  142.0140   74.7570  220.8460 C   0  0  0  0  0  0  0  0  0  0  0  0
  142.8903   75.2107  220.3599 H   0  0  0  0  0  0  0  0  0  0  0  0
  141.8350   73.3730  220.8250 C   0  0  0  0  0  0  0  0  0  0  0  0
  142.5913   72.7273  220.3548 H   0  0  0  0  0  0  0  0  0  0  0  0
  1  2  1  0
  2  3  2  0
  3  4  1  0
  3  5  1  0
  5  6  2  0
  6  7  1  0
  7  8  2  0
  8  9  1  0
  8 10  1  0
 10 11  1  0
 10 12  2  0
 12 13  1  0
 12 14  1  0
 14 15  1  0
 14 16  2  0
 16 17  1  0
 17 18  2  0
 17 19  1  0
 19 20  1  0
 20 21  1  0
 20 22  1  0
 20 23  1  0
 23 24  2  0
 24 25  1  0
 24 26  1  0
 26 27  1  0
 26 28  2  0
 28 29  1  0
 28 30  1  0
 30 31  1  0
 30 32  2  0
 32 33  1  0
  2 34  1  0
 34 35  2  0
 35 36  1  0
 35 37  1  0
 37 38  2  0
 38 39  1  0
 38 40  1  0
 40 41  1  0
 40 42  2  0
 42 43  1  0
 19  5  1  0
 32 23  1  0
 42 34  1  0
 16  7  1  0
M  END
>  <UniqueID>  (1) 
272

>  <SMILES>  (1) 
O=c1c2ccccc2nc(/C=C/c2cccnc2)n1Cc1cccc(F)c1

>  <Energy>  (1) 
64.14431952501938

>  <Genealogy>  (1) 
O=c1c2ccccc2nc(/C=C/c2cccnc2)n1Cc1cccc(F)c1 (cis-trans isomerization)
O=c1c2ccccc2nc(/C=C/c2cccnc2)n1Cc1cccc(F)c1 (3D coordinates assigned)
O=c1c2ccccc2nc(/C=C/c2cccnc2)n1Cc1cccc(F)c1 (optimized conformer: 64.14431952501938 kcal/mol)

>  <smiles>  (1) 
O=c1c2ccccc2nc(/C=C/c2cccnc2)n1Cc1cccc(F)c1

>  <score_type>  (1) 
oracle

>  <origin>  (1) 
autodockgpu

>  <m_score__min__energy>  (1) 
-7.3499999999999996

>  <m_primary>  (1) 
energy

>  <meeko>  (1) 
{"free_energy": -7.31, "intermolecular_energy": -8.8, "internal_energy": -1.18, "cluster_size": 6, "cluster_id": 1, "rank_in_cluster": 2}

>  <energy>  (1) 
-7.35

>  <cluster_rmsd>  (1) 
0.0

>  <rmsd>  (1) 
269.59

>  <cluster>  (1) 
1

$$$$
YLRGTGGRSQXFLM-ZHACJKMWNA-N
     RDKit          3D

 43 46  0  0  0  0  0  0  0  0999 V2000
  136.1167   71.3866  221.9786 H   0  0  0  0  0  0  0  0  0  0  0  0
  136.5780   71.4030  222.9770 C   0  0  0  0  0  0  0  0  0  0  0  0
  137.9120   71.3330  223.0660 C   0  0  0  0  0  0  0  0  0  0  0  0
  138.5380   71.8077  222.2960 H   0  0  0  0  0  0  0  0  0  0  0  0
  138.5440   70.6240  224.1890 C   0  0  0  0  0  0  0  0  0  0  0  0
  139.2950   71.3600  225.0570 N   0  0  0  0  0  0  0  0  0  0  0  0
  139.9080   70.7940  226.1210 C   0  0  0  0  0  0  0  0  0  0  0  0
  140.6600   71.5900  227.0010 C   0  0  0  0  0  0  0  0  0  0  0  0
  140.7527   72.6715  226.8228 H   0  0  0  0  0  0  0  0  0  0  0  0
  141.2900   71.0060  228.1030 C   0  0  0  0  0  0  0  0  0  0  0  0
  141.8808   71.6280  228.7915 H   0  0  0  0  0  0  0  0  0  0  0  0
  141.1700   69.6290  228.3320 C   0  0  0  0  0  0  0  0  0  0  0  0
  141.6669   69.1734  229.2012 H   0  0  0  0  0  0  0  0  0  0  0  0
  140.4190   68.8280  227.4580 C   0  0  0  0  0  0  0  0  0  0  0  0
  140.3286   67.7474  227.6428 H   0  0  0  0  0  0  0  0  0  0  0  0
  139.7810   69.4080  226.3440 C   0  0  0  0  0  0  0  0  0  0  0  0
  139.0200   68.6500  225.4320 C   0  0  0  0  0  0  0  0  0  0  0  0
  138.9150   67.4010  225.6000 O   0  0  0  0  0  0  0  0  0  0  0  0
  138.4060   69.2630  224.3620 N   0  0  0  0  0  0  0  0  0  0  0  0
  137.6460   68.4590  223.3750 C   0  0  0  0  0  0  0  0  0  0  0  0
  137.1177   67.6501  223.9010 H   0  0  0  0  0  0  0  0  0  0  0  0
  136.9304   69.1194  222.8633 H   0  0  0  0  0  0  0  0  0  0  0  0
  138.5680   67.8550  222.3390 C   0  0  0  0  0  0  0  0  0  0  0  0
  138.6770   66.4560  222.2150 C   0  0  0  0  0  0  0  0  0  0  0  0
  138.0775   65.7995  222.8627 H   0  0  0  0  0  0  0  0  0  0  0  0
  139.5450   65.9000  221.2710 C   0  0  0  0  0  0  0  0  0  0  0  0
  139.6322   64.8071  221.1814 H   0  0  0  0  0  0  0  0  0  0  0  0
  140.3030   66.7320  220.4400 C   0  0  0  0  0  0  0  0  0  0  0  0
  140.9869   66.2919  219.6993 H   0  0  0  0  0  0  0  0  0  0  0  0
  140.1930   68.1230  220.5490 C   0  0  0  0  0  0  0  0  0  0  0  0
  140.9700   68.9280  219.7860 F   0  0  0  0  0  0  0  0  0  0  0  0
  139.3330   68.6830  221.4970 C   0  0  0  0  0  0  0  0  0  0  0  0
  139.2536   69.7765  221.5856 H   0  0  0  0  0  0  0  0  0  0  0  0
  135.7000   71.5010  224.1560 C   0  0  0  0  0  0  0  0  0  0  0  0
  135.1820   72.7360  224.6020 C   0  0  0  0  0  0  0  0  0  0  0  0
  135.4744   73.6685  224.0971 H   0  0  0  0  0  0  0  0  0  0  0  0
  134.3220   72.7750  225.6550 N   0  0  0  0  0  0  0  0  0  0  0  0
  133.9550   71.6490  226.3200 C   0  0  0  0  0  0  0  0  0  0  0  0
  133.2532   71.7152  227.1644 H   0  0  0  0  0  0  0  0  0  0  0  0
  134.4660   70.4070  225.9350 C   0  0  0  0  0  0  0  0  0  0  0  0
  134.1968   69.4985  226.4936 H   0  0  0  0  0  0  0  0  0  0  0  0
  135.3220   70.3300  224.8340 C   0  0  0  0  0  0  0  0  0  0  0  0
  135.7000   69.3531  224.4980 H   0  0  0  0  0  0  0  0  0  0  0  0
  1  2  1  0
  2  3  2  0
  3  4  1  0
  3  5  1  0
  5  6  2  0
  6  7  1  0
  7  8  2  0
  8  9  1  0
  8 10  1  0
 10 11  1  0
 10 12  2  0
 12 13  1  0
 12 14  1  0
 14 15  1  0
 14 16  2  0
 16 17  1  0
 17 18  2  0
 17 19  1  0
 19 20  1  0
 20 21  1  0
 20 22  1  0
 20 23  1  0
 23 24  2  0
 24 25  1  0
 24 26  1  0
 26 27  1  0
 26 28  2  0
 28 29  1  0
 28 30  1  0
 30 31  1  0
 30 32  2  0
 32 33  1  0
  2 34  1  0
 34 35  2  0
 35 36  1  0
 35 37  1  0
 37 38  2  0
 38 39  1  0
 38 40  1  0
 40 41  1  0
 40 42  2  0
 42 43  1  0
 19  5  1  0
 32 23  1  0
 42 34  1  0
 16  7  1  0
M  END
>  <UniqueID>  (2) 
272

>  <SMILES>  (2) 
O=c1c2ccccc2nc(/C=C/c2cccnc2)n1Cc1cccc(F)c1

>  <Energy>  (2) 
64.14431952501938

>  <Genealogy>  (2) 
O=c1c2ccccc2nc(/C=C/c2cccnc2)n1Cc1cccc(F)c1 (cis-trans isomerization)
O=c1c2ccccc2nc(/C=C/c2cccnc2)n1Cc1cccc(F)c1 (3D coordinates assigned)
O=c1c2ccccc2nc(/C=C/c2cccnc2)n1Cc1cccc(F)c1 (optimized conformer: 64.14431952501938 kcal/mol)

>  <smiles>  (2) 
O=c1c2ccccc2nc(/C=C/c2cccnc2)n1Cc1cccc(F)c1

>  <score_type>  (2) 
oracle

>  <origin>  (2) 
autodockgpu

>  <m_score__min__energy>  (2) 
-7.3499999999999996

>  <m_primary>  (2) 
energy

>  <meeko>  (2) 
{"free_energy": -6.71, "intermolecular_energy": -8.2, "internal_energy": -1.39, "cluster_size": 1, "cluster_id": 5, "rank_in_cluster": 1}

>  <energy>  (2) 
-7.31

>  <cluster_rmsd>  (2) 
0.17

>  <rmsd>  (2) 
269.62

>  <cluster>  (2) 
1

$$$$
YLRGTGGRSQXFLM-ZHACJKMWNA-N
     RDKit          3D

 43 46  0  0  0  0  0  0  0  0999 V2000
  143.5065   75.9307  218.1549 H   0  0  0  0  0  0  0  0  0  0  0  0
  143.5220   75.5700  219.1940 C   0  0  0  0  0  0  0  0  0  0  0  0
  142.6990   76.1420  220.0810 C   0  0  0  0  0  0  0  0  0  0  0  0
  142.8534   77.1908  220.3744 H   0  0  0  0  0  0  0  0  0  0  0  0
  141.5890   75.3740  220.6650 C   0  0  0  0  0  0  0  0  0  0  0  0
  141.7850   74.0440  220.8800 N   0  0  0  0  0  0  0  0  0  0  0  0
  140.8230   73.2610  221.4200 C   0  0  0  0  0  0  0  0  0  0  0  0
  141.0710   71.8960  221.6390 C   0  0  0  0  0  0  0  0  0  0  0  0
  142.0455   71.4630  221.3693 H   0  0  0  0  0  0  0  0  0  0  0  0
  140.0780   71.0890  222.2000 C   0  0  0  0  0  0  0  0  0  0  0  0
  140.2710   70.0198  222.3717 H   0  0  0  0  0  0  0  0  0  0  0  0
  138.8370   71.6400  222.5440 C   0  0  0  0  0  0  0  0  0  0  0  0
  138.0578   71.0010  222.9849 H   0  0  0  0  0  0  0  0  0  0  0  0
  138.5830   73.0030  222.3290 C   0  0  0  0  0  0  0  0  0  0  0  0
  137.6066   73.4300  222.6016 H   0  0  0  0  0  0  0  0  0  0  0  0
  139.5780   73.8250  221.7640 C   0  0  0  0  0  0  0  0  0  0  0  0
  139.3740   75.1970  221.5210 C   0  0  0  0  0  0  0  0  0  0  0  0
  138.2550   75.7170  221.8000 O   0  0  0  0  0  0  0  0  0  0  0  0
  140.3800   75.9640  220.9750 N   0  0  0  0  0  0  0  0  0  0  0  0
  140.1500   77.3960  220.6740 C   0  0  0  0  0  0  0  0  0  0  0  0
  140.5198   77.6141  219.6612 H   0  0  0  0  0  0  0  0  0  0  0  0
  139.0711   77.5986  220.7438 H   0  0  0  0  0  0  0  0  0  0  0  0
  140.8700   78.2830  221.6640 C   0  0  0  0  0  0  0  0  0  0  0  0
  141.1670   77.8090  222.9580 C   0  0  0  0  0  0  0  0  0  0  0  0
  140.8878   76.7842  223.2442 H   0  0  0  0  0  0  0  0  0  0  0  0
  141.8150   78.6370  223.8780 C   0  0  0  0  0  0  0  0  0  0  0  0
  142.0392   78.2655  224.8888 H   0  0  0  0  0  0  0  0  0  0  0  0
  142.1790   79.9380  223.5150 C   0  0  0  0  0  0  0  0  0  0  0  0
  142.6873   80.5886  224.2419 H   0  0  0  0  0  0  0  0  0  0  0  0
  141.8980   80.4140  222.2290 C   0  0  0  0  0  0  0  0  0  0  0  0
  142.1980   81.6930  221.8970 F   0  0  0  0  0  0  0  0  0  0  0  0
  141.2430   79.5930  221.3080 C   0  0  0  0  0  0  0  0  0  0  0  0
  141.0177   79.9717  220.3001 H   0  0  0  0  0  0  0  0  0  0  0  0
  144.4480   74.4790  219.5460 C   0  0  0  0  0  0  0  0  0  0  0  0
  144.8370   73.4970  218.6100 C   0  0  0  0  0  0  0  0  0  0  0  0
  144.4051   73.5009  217.5983 H   0  0  0  0  0  0  0  0  0  0  0  0
  145.7450   72.5460  218.9570 N   0  0  0  0  0  0  0  0  0  0  0  0
  146.2830   72.4910  220.2030 C   0  0  0  0  0  0  0  0  0  0  0  0
  147.0187   71.7111  220.4491 H   0  0  0  0  0  0  0  0  0  0  0  0
  145.9040   73.4230  221.1730 C   0  0  0  0  0  0  0  0  0  0  0  0
  146.3118   73.3599  222.1927 H   0  0  0  0  0  0  0  0  0  0  0  0
  145.0030   74.4350  220.8360 C   0  0  0  0  0  0  0  0  0  0  0  0
  144.7279   75.1972  221.5799 H   0  0  0  0  0  0  0  0  0  0  0  0
  1  2  1  0
  2  3  2  0
  3  4  1  0
  3  5  1  0
  5  6  2  0
  6  7  1  0
  7  8  2  0
  8  9  1  0
  8 10  1  0
 10 11  1  0
 10 12  2  0
 12 13  1  0
 12 14  1  0
 14 15  1  0
 14 16  2  0
 16 17  1  0
 17 18  2  0
 17 19  1  0
 19 20  1  0
 20 21  1  0
 20 22  1  0
 20 23  1  0
 23 24  2  0
 24 25  1  0
 24 26  1  0
 26 27  1  0
 26 28  2  0
 28 29  1  0
 28 30  1  0
 30 31  1  0
 30 32  2  0
 32 33  1  0
  2 34  1  0
 34 35  2  0
 35 36  1  0
 35 37  1  0
 37 38  2  0
 38 39  1  0
 38 40  1  0
 40 41  1  0
 40 42  2  0
 42 43  1  0
 19  5  1  0
 32 23  1  0
 42 34  1  0
 16  7  1  0
M  END
>  <UniqueID>  (3) 
272

>  <SMILES>  (3) 
O=c1c2ccccc2nc(/C=C/c2cccnc2)n1Cc1cccc(F)c1

>  <Energy>  (3) 
64.14431952501938

>  <Genealogy>  (3) 
O=c1c2ccccc2nc(/C=C/c2cccnc2)n1Cc1cccc(F)c1 (cis-trans isomerization)
O=c1c2ccccc2nc(/C=C/c2cccnc2)n1Cc1cccc(F)c1 (3D coordinates assigned)
O=c1c2ccccc2nc(/C=C/c2cccnc2)n1Cc1cccc(F)c1 (optimized conformer: 64.14431952501938 kcal/mol)

>  <smiles>  (3) 
O=c1c2ccccc2nc(/C=C/c2cccnc2)n1Cc1cccc(F)c1

>  <score_type>  (3) 
oracle

>  <origin>  (3) 
autodockgpu

>  <m_score__min__energy>  (3) 
-7.3499999999999996

>  <m_primary>  (3) 
energy

>  <meeko>  (3) 
{"free_energy": -7.06, "intermolecular_energy": -8.55, "internal_energy": -1.29, "cluster_size": 3, "cluster_id": 3, "rank_in_cluster": 1}

>  <energy>  (3) 
-7.31

>  <cluster_rmsd>  (3) 
0.94

>  <rmsd>  (3) 
269.76

>  <cluster>  (3) 
1

$$$$
YLRGTGGRSQXFLM-ZHACJKMWNA-N
     RDKit          3D

 43 46  0  0  0  0  0  0  0  0999 V2000
  141.1012   70.7728  220.8978 H   0  0  0  0  0  0  0  0  0  0  0  0
  140.3960   71.4190  221.4410 C   0  0  0  0  0  0  0  0  0  0  0  0
  139.3820   70.8460  222.1020 C   0  0  0  0  0  0  0  0  0  0  0  0
  138.3982   70.7511  221.6192 H   0  0  0  0  0  0  0  0  0  0  0  0
  139.5770   70.3430  223.4700 C   0  0  0  0  0  0  0  0  0  0  0  0
  140.1070   71.2000  224.3880 N   0  0  0  0  0  0  0  0  0  0  0  0
  140.3150   70.8260  225.6700 C   0  0  0  0  0  0  0  0  0  0  0  0
  140.8490   71.7440  226.5900 C   0  0  0  0  0  0  0  0  0  0  0  0
  141.1008   72.7647  226.2662 H   0  0  0  0  0  0  0  0  0  0  0  0
  141.0600   71.3590  227.9170 C   0  0  0  0  0  0  0  0  0  0  0  0
  141.4792   72.0767  228.6375 H   0  0  0  0  0  0  0  0  0  0  0  0
  140.7380   70.0600  228.3300 C   0  0  0  0  0  0  0  0  0  0  0  0
  140.9053   69.7609  229.3752 H   0  0  0  0  0  0  0  0  0  0  0  0
  140.2030   69.1380  227.4170 C   0  0  0  0  0  0  0  0  0  0  0  0
  139.9524   68.1192  227.7474 H   0  0  0  0  0  0  0  0  0  0  0  0
  139.9870   69.5170  226.0780 C   0  0  0  0  0  0  0  0  0  0  0  0
  139.4580   68.6310  225.1190 C   0  0  0  0  0  0  0  0  0  0  0  0
  139.1810   67.4440  225.4580 O   0  0  0  0  0  0  0  0  0  0  0  0
  139.2550   69.0490  223.8230 N   0  0  0  0  0  0  0  0  0  0  0  0
  138.7450   68.1030  222.8020 C   0  0  0  0  0  0  0  0  0  0  0  0
  139.1446   68.3871  221.8173 H   0  0  0  0  0  0  0  0  0  0  0  0
  139.0703   67.0876  223.0726 H   0  0  0  0  0  0  0  0  0  0  0  0
  137.2340   68.1250  222.7470 C   0  0  0  0  0  0  0  0  0  0  0  0
  136.5080   69.0390  223.5370 C   0  0  0  0  0  0  0  0  0  0  0  0
  137.0420   69.7498  224.1848 H   0  0  0  0  0  0  0  0  0  0  0  0
  135.1110   69.0440  223.4990 C   0  0  0  0  0  0  0  0  0  0  0  0
  134.5470   69.7541  224.1217 H   0  0  0  0  0  0  0  0  0  0  0  0
  134.4290   68.1470  222.6700 C   0  0  0  0  0  0  0  0  0  0  0  0
  133.3293   68.1514  222.6444 H   0  0  0  0  0  0  0  0  0  0  0  0
  135.1420   67.2440  221.8730 C   0  0  0  0  0  0  0  0  0  0  0  0
  134.4800   66.3370  221.1160 F   0  0  0  0  0  0  0  0  0  0  0  0
  136.5380   67.2290  221.9140 C   0  0  0  0  0  0  0  0  0  0  0  0
  137.0962   66.5135  221.2923 H   0  0  0  0  0  0  0  0  0  0  0  0
  140.6090   72.8770  221.4090 C   0  0  0  0  0  0  0  0  0  0  0  0
  139.6890   73.7800  221.9830 C   0  0  0  0  0  0  0  0  0  0  0  0
  138.7547   73.4048  222.4262 H   0  0  0  0  0  0  0  0  0  0  0  0
  139.9560   75.1140  221.9890 N   0  0  0  0  0  0  0  0  0  0  0  0
  141.0870   75.6200  221.4310 C   0  0  0  0  0  0  0  0  0  0  0  0
  141.2746   76.7036  221.4573 H   0  0  0  0  0  0  0  0  0  0  0  0
  142.0120   74.7670  220.8240 C   0  0  0  0  0  0  0  0  0  0  0  0
  142.9117   75.1773  220.3422 H   0  0  0  0  0  0  0  0  0  0  0  0
  141.7850   73.3890  220.8340 C   0  0  0  0  0  0  0  0  0  0  0  0
  142.5253   72.7055  220.3926 H   0  0  0  0  0  0  0  0  0  0  0  0
  1  2  1  0
  2  3  2  0
  3  4  1  0
  3  5  1  0
  5  6  2  0
  6  7  1  0
  7  8  2  0
  8  9  1  0
  8 10  1  0
 10 11  1  0
 10 12  2  0
 12 13  1  0
 12 14  1  0
 14 15  1  0
 14 16  2  0
 16 17  1  0
 17 18  2  0
 17 19  1  0
 19 20  1  0
 20 21  1  0
 20 22  1  0
 20 23  1  0
 23 24  2  0
 24 25  1  0
 24 26  1  0
 26 27  1  0
 26 28  2  0
 28 29  1  0
 28 30  1  0
 30 31  1  0
 30 32  2  0
 32 33  1  0
  2 34  1  0
 34 35  2  0
 35 36  1  0
 35 37  1  0
 37 38  2  0
 38 39  1  0
 38 40  1  0
 40 41  1  0
 40 42  2  0
 42 43  1  0
 19  5  1  0
 32 23  1  0
 42 34  1  0
 16  7  1  0
M  END
>  <UniqueID>  (4) 
272

>  <SMILES>  (4) 
O=c1c2ccccc2nc(/C=C/c2cccnc2)n1Cc1cccc(F)c1

>  <Energy>  (4) 
64.14431952501938

>  <Genealogy>  (4) 
O=c1c2ccccc2nc(/C=C/c2cccnc2)n1Cc1cccc(F)c1 (cis-trans isomerization)
O=c1c2ccccc2nc(/C=C/c2cccnc2)n1Cc1cccc(F)c1 (3D coordinates assigned)
O=c1c2ccccc2nc(/C=C/c2cccnc2)n1Cc1cccc(F)c1 (optimized conformer: 64.14431952501938 kcal/mol)

>  <smiles>  (4) 
O=c1c2ccccc2nc(/C=C/c2cccnc2)n1Cc1cccc(F)c1

>  <score_type>  (4) 
oracle

>  <origin>  (4) 
autodockgpu

>  <m_score__min__energy>  (4) 
-7.3499999999999996

>  <m_primary>  (4) 
energy

>  <meeko>  (4) 
{"free_energy": -7.35, "intermolecular_energy": -8.84, "internal_energy": -1.15, "cluster_size": 6, "cluster_id": 1, "rank_in_cluster": 1}

>  <energy>  (4) 
-7.31

>  <cluster_rmsd>  (4) 
0.17

>  <rmsd>  (4) 
269.63

>  <cluster>  (4) 
1

$$$$
YLRGTGGRSQXFLM-ZHACJKMWNA-N
     RDKit          3D

 43 46  0  0  0  0  0  0  0  0999 V2000
  140.8925   70.7755  220.9197 H   0  0  0  0  0  0  0  0  0  0  0  0
  140.2990   71.4990  221.4980 C   0  0  0  0  0  0  0  0  0  0  0  0
  139.2740   71.0450  222.2300 C   0  0  0  0  0  0  0  0  0  0  0  0
  138.2496   71.1031  221.8334 H   0  0  0  0  0  0  0  0  0  0  0  0
  139.5120   70.4690  223.5620 C   0  0  0  0  0  0  0  0  0  0  0  0
  140.0420   71.2830  224.5170 N   0  0  0  0  0  0  0  0  0  0  0  0
  140.2880   70.8400  225.7710 C   0  0  0  0  0  0  0  0  0  0  0  0
  140.8220   71.7160  226.7310 C   0  0  0  0  0  0  0  0  0  0  0  0
  141.0437   72.7593  226.4619 H   0  0  0  0  0  0  0  0  0  0  0  0
  141.0710   71.2600  228.0280 C   0  0  0  0  0  0  0  0  0  0  0  0
  141.4888   71.9449  228.7805 H   0  0  0  0  0  0  0  0  0  0  0  0
  140.7890   69.9310  228.3710 C   0  0  0  0  0  0  0  0  0  0  0  0
  140.9878   69.5755  229.3928 H   0  0  0  0  0  0  0  0  0  0  0  0
  140.2540   69.0510  227.4170 C   0  0  0  0  0  0  0  0  0  0  0  0
  140.0340   68.0090  227.6923 H   0  0  0  0  0  0  0  0  0  0  0  0
  139.9990   69.5020  226.1080 C   0  0  0  0  0  0  0  0  0  0  0  0
  139.4690   68.6600  225.1100 C   0  0  0  0  0  0  0  0  0  0  0  0
  139.2270   67.4500  225.3850 O   0  0  0  0  0  0  0  0  0  0  0  0
  139.2280   69.1480  223.8450 N   0  0  0  0  0  0  0  0  0  0  0  0
  138.7160   68.2510  222.7820 C   0  0  0  0  0  0  0  0  0  0  0  0
  139.0652   68.6162  221.8049 H   0  0  0  0  0  0  0  0  0  0  0  0
  139.0915   67.2347  222.9720 H   0  0  0  0  0  0  0  0  0  0  0  0
  137.2040   68.2120  222.7830 C   0  0  0  0  0  0  0  0  0  0  0  0
  136.5150   67.3510  221.9060 C   0  0  0  0  0  0  0  0  0  0  0  0
  137.0784   66.6920  221.2290 H   0  0  0  0  0  0  0  0  0  0  0  0
  135.1180   67.3320  221.8940 C   0  0  0  0  0  0  0  0  0  0  0  0
  134.5836   66.6636  221.2028 H   0  0  0  0  0  0  0  0  0  0  0  0
  134.3980   68.1620  222.7600 C   0  0  0  0  0  0  0  0  0  0  0  0
  133.2982   68.1469  222.7465 H   0  0  0  0  0  0  0  0  0  0  0  0
  135.0740   69.0120  223.6440 C   0  0  0  0  0  0  0  0  0  0  0  0
  134.3770   69.8570  224.4400 F   0  0  0  0  0  0  0  0  0  0  0  0
  136.4710   69.0410  223.6520 C   0  0  0  0  0  0  0  0  0  0  0  0
  137.0004   69.7154  224.3412 H   0  0  0  0  0  0  0  0  0  0  0  0
  140.6680   72.9240  221.4320 C   0  0  0  0  0  0  0  0  0  0  0  0
  139.8530   73.9340  221.9860 C   0  0  0  0  0  0  0  0  0  0  0  0
  138.8848   73.6718  222.4374 H   0  0  0  0  0  0  0  0  0  0  0  0
  140.2620   75.2310  221.9630 N   0  0  0  0  0  0  0  0  0  0  0  0
  141.4390   75.5990  221.3920 C   0  0  0  0  0  0  0  0  0  0  0  0
  141.7424   76.6563  221.3935 H   0  0  0  0  0  0  0  0  0  0  0  0
  142.2650   74.6380  220.8030 C   0  0  0  0  0  0  0  0  0  0  0  0
  143.2020   74.9378  220.3108 H   0  0  0  0  0  0  0  0  0  0  0  0
  141.8900   73.2940  220.8450 C   0  0  0  0  0  0  0  0  0  0  0  0
  142.5508   72.5248  220.4188 H   0  0  0  0  0  0  0  0  0  0  0  0
  1  2  1  0
  2  3  2  0
  3  4  1  0
  3  5  1  0
  5  6  2  0
  6  7  1  0
  7  8  2  0
  8  9  1  0
  8 10  1  0
 10 11  1  0
 10 12  2  0
 12 13  1  0
 12 14  1  0
 14 15  1  0
 14 16  2  0
 16 17  1  0
 17 18  2  0
 17 19  1  0
 19 20  1  0
 20 21  1  0
 20 22  1  0
 20 23  1  0
 23 24  2  0
 24 25  1  0
 24 26  1  0
 26 27  1  0
 26 28  2  0
 28 29  1  0
 28 30  1  0
 30 31  1  0
 30 32  2  0
 32 33  1  0
  2 34  1  0
 34 35  2  0
 35 36  1  0
 35 37  1  0
 37 38  2  0
 38 39  1  0
 38 40  1  0
 40 41  1  0
 40 42  2  0
 42 43  1  0
 19  5  1  0
 32 23  1  0
 42 34  1  0
 16  7  1  0
M  END
>  <UniqueID>  (5) 
272

>  <SMILES>  (5) 
O=c1c2ccccc2nc(/C=C/c2cccnc2)n1Cc1cccc(F)c1

>  <Energy>  (5) 
64.14431952501938

>  <Genealogy>  (5) 
O=c1c2ccccc2nc(/C=C/c2cccnc2)n1Cc1cccc(F)c1 (cis-trans isomerization)
O=c1c2ccccc2nc(/C=C/c2cccnc2)n1Cc1cccc(F)c1 (3D coordinates assigned)
O=c1c2ccccc2nc(/C=C/c2cccnc2)n1Cc1cccc(F)c1 (optimized conformer: 64.14431952501938 kcal/mol)

>  <smiles>  (5) 
O=c1c2ccccc2nc(/C=C/c2cccnc2)n1Cc1cccc(F)c1

>  <score_type>  (5) 
oracle

>  <origin>  (5) 
autodockgpu

>  <m_score__min__energy>  (5) 
-7.3499999999999996

>  <m_primary>  (5) 
energy

>  <meeko>  (5) 
{"free_energy": -7.3, "intermolecular_energy": -8.79, "internal_energy": -1.12, "cluster_size": 6, "cluster_id": 1, "rank_in_cluster": 5}

>  <energy>  (5) 
-7.3

>  <cluster_rmsd>  (5) 
0.95

>  <rmsd>  (5) 
269.77

>  <cluster>  (5) 
1

$$$$
YLRGTGGRSQXFLM-ZHACJKMWNA-N
     RDKit          3D

 43 46  0  0  0  0  0  0  0  0999 V2000
  141.1098   70.7563  220.8667 H   0  0  0  0  0  0  0  0  0  0  0  0
  140.4100   71.3910  221.4300 C   0  0  0  0  0  0  0  0  0  0  0  0
  139.4090   70.8040  222.0970 C   0  0  0  0  0  0  0  0  0  0  0  0
  138.4367   70.6553  221.6046 H   0  0  0  0  0  0  0  0  0  0  0  0
  139.6020   70.3570  223.4840 C   0  0  0  0  0  0  0  0  0  0  0  0
  140.1390   71.2460  224.3660 N   0  0  0  0  0  0  0  0  0  0  0  0
  140.3460   70.9250  225.6620 C   0  0  0  0  0  0  0  0  0  0  0  0
  140.8880   71.8760  226.5430 C   0  0  0  0  0  0  0  0  0  0  0  0
  141.1460   72.8809  226.1775 H   0  0  0  0  0  0  0  0  0  0  0  0
  141.0990   71.5440  227.8840 C   0  0  0  0  0  0  0  0  0  0  0  0
  141.5249   72.2877  228.5735 H   0  0  0  0  0  0  0  0  0  0  0  0
  140.7690   70.2660  228.3510 C   0  0  0  0  0  0  0  0  0  0  0  0
  140.9358   70.0094  229.4076 H   0  0  0  0  0  0  0  0  0  0  0  0
  140.2260   69.3100  227.4770 C   0  0  0  0  0  0  0  0  0  0  0  0
  139.9688   68.3073  227.8491 H   0  0  0  0  0  0  0  0  0  0  0  0
  140.0110   69.6360  226.1240 C   0  0  0  0  0  0  0  0  0  0  0  0
  139.4740   68.7140  225.2030 C   0  0  0  0  0  0  0  0  0  0  0  0
  139.1900   67.5440  225.5910 O   0  0  0  0  0  0  0  0  0  0  0  0
  139.2720   69.0800  223.8910 N   0  0  0  0  0  0  0  0  0  0  0  0
  138.7540   68.0960  222.9110 C   0  0  0  0  0  0  0  0  0  0  0  0
  139.1826   68.3144  221.9217 H   0  0  0  0  0  0  0  0  0  0  0  0
  139.0418   67.0875  223.2428 H   0  0  0  0  0  0  0  0  0  0  0  0
  137.2460   68.1600  222.8210 C   0  0  0  0  0  0  0  0  0  0  0  0
  136.5550   67.3500  221.8980 C   0  0  0  0  0  0  0  0  0  0  0  0
  137.1129   66.6568  221.2513 H   0  0  0  0  0  0  0  0  0  0  0  0
  135.1630   67.4250  221.8020 C   0  0  0  0  0  0  0  0  0  0  0  0
  134.6274   66.7958  221.0759 H   0  0  0  0  0  0  0  0  0  0  0  0
  134.4500   68.3000  222.6290 C   0  0  0  0  0  0  0  0  0  0  0  0
  133.3546   68.3600  222.5486 H   0  0  0  0  0  0  0  0  0  0  0  0
  135.1260   69.0990  223.5580 C   0  0  0  0  0  0  0  0  0  0  0  0
  134.4410   69.9870  224.3160 F   0  0  0  0  0  0  0  0  0  0  0  0
  136.5190   69.0340  223.6510 C   0  0  0  0  0  0  0  0  0  0  0  0
  137.0496   69.6687  224.3760 H   0  0  0  0  0  0  0  0  0  0  0  0
  140.6160   72.8510  221.4170 C   0  0  0  0  0  0  0  0  0  0  0  0
  139.6930   73.7420  222.0040 C   0  0  0  0  0  0  0  0  0  0  0  0
  138.7611   73.3564  222.4431 H   0  0  0  0  0  0  0  0  0  0  0  0
  139.9530   75.0760  222.0280 N   0  0  0  0  0  0  0  0  0  0  0  0
  141.0810   75.5950  221.4750 C   0  0  0  0  0  0  0  0  0  0  0  0
  141.2631   76.6791  221.5156 H   0  0  0  0  0  0  0  0  0  0  0  0
  142.0100   74.7550  220.8550 C   0  0  0  0  0  0  0  0  0  0  0  0
  142.9068   75.1760  220.3770 H   0  0  0  0  0  0  0  0  0  0  0  0
  141.7890   73.3760  220.8480 C   0  0  0  0  0  0  0  0  0  0  0  0
  142.5322   72.7015  220.3977 H   0  0  0  0  0  0  0  0  0  0  0  0
  1  2  1  0
  2  3  2  0
  3  4  1  0
  3  5  1  0
  5  6  2  0
  6  7  1  0
  7  8  2  0
  8  9  1  0
  8 10  1  0
 10 11  1  0
 10 12  2  0
 12 13  1  0
 12 14  1  0
 14 15  1  0
 14 16  2  0
 16 17  1  0
 17 18  2  0
 17 19  1  0
 19 20  1  0
 20 21  1  0
 20 22  1  0
 20 23  1  0
 23 24  2  0
 24 25  1  0
 24 26  1  0
 26 27  1  0
 26 28  2  0
 28 29  1  0
 28 30  1  0
 30 31  1  0
 30 32  2  0
 32 33  1  0
  2 34  1  0
 34 35  2  0
 35 36  1  0
 35 37  1  0
 37 38  2  0
 38 39  1  0
 38 40  1  0
 40 41  1  0
 40 42  2  0
 42 43  1  0
 19  5  1  0
 32 23  1  0
 42 34  1  0
 16  7  1  0
M  END
>  <UniqueID>  (6) 
272

>  <SMILES>  (6) 
O=c1c2ccccc2nc(/C=C/c2cccnc2)n1Cc1cccc(F)c1

>  <Energy>  (6) 
64.14431952501938

>  <Genealogy>  (6) 
O=c1c2ccccc2nc(/C=C/c2cccnc2)n1Cc1cccc(F)c1 (cis-trans isomerization)
O=c1c2ccccc2nc(/C=C/c2cccnc2)n1Cc1cccc(F)c1 (3D coordinates assigned)
O=c1c2ccccc2nc(/C=C/c2cccnc2)n1Cc1cccc(F)c1 (optimized conformer: 64.14431952501938 kcal/mol)

>  <smiles>  (6) 
O=c1c2ccccc2nc(/C=C/c2cccnc2)n1Cc1cccc(F)c1

>  <score_type>  (6) 
oracle

>  <origin>  (6) 
autodockgpu

>  <m_score__min__energy>  (6) 
-7.3499999999999996

>  <m_primary>  (6) 
energy

>  <meeko>  (6) 
{"free_energy": -7.31, "intermolecular_energy": -8.8, "internal_energy": -1.17, "cluster_size": 6, "cluster_id": 1, "rank_in_cluster": 3}

>  <energy>  (6) 
-7.29

>  <cluster_rmsd>  (6) 
0.19

>  <rmsd>  (6) 
269.62

>  <cluster>  (6) 
1

$$$$
YLRGTGGRSQXFLM-ZHACJKMWNA-N
     RDKit          3D

 43 46  0  0  0  0  0  0  0  0999 V2000
  139.2664   76.7122  223.4798 H   0  0  0  0  0  0  0  0  0  0  0  0
  139.0840   77.3180  222.5800 C   0  0  0  0  0  0  0  0  0  0  0  0
  139.1910   76.7310  221.3820 C   0  0  0  0  0  0  0  0  0  0  0  0
  138.3053   76.6409  220.7359 H   0  0  0  0  0  0  0  0  0  0  0  0
  140.4860   76.2060  220.9250 C   0  0  0  0  0  0  0  0  0  0  0  0
  140.7970   74.9200  221.2520 N   0  0  0  0  0  0  0  0  0  0  0  0
  141.9620   74.3520  220.8690 C   0  0  0  0  0  0  0  0  0  0  0  0
  142.2390   73.0180  221.2140 C   0  0  0  0  0  0  0  0  0  0  0  0
  141.5097   72.4378  221.7984 H   0  0  0  0  0  0  0  0  0  0  0  0
  143.4420   72.4290  220.8140 C   0  0  0  0  0  0  0  0  0  0  0  0
  143.6595   71.3851  221.0840 H   0  0  0  0  0  0  0  0  0  0  0  0
  144.3700   73.1670  220.0700 C   0  0  0  0  0  0  0  0  0  0  0  0
  145.3157   72.6999  219.7577 H   0  0  0  0  0  0  0  0  0  0  0  0
  144.1010   74.5000  219.7200 C   0  0  0  0  0  0  0  0  0  0  0  0
  144.8343   75.0743  219.1349 H   0  0  0  0  0  0  0  0  0  0  0  0
  142.8910   75.1010  220.1190 C   0  0  0  0  0  0  0  0  0  0  0  0
  142.5720   76.4360  219.8010 C   0  0  0  0  0  0  0  0  0  0  0  0
  143.4020   77.1340  219.1500 O   0  0  0  0  0  0  0  0  0  0  0  0
  141.3720   76.9790  220.2040 N   0  0  0  0  0  0  0  0  0  0  0  0
  141.0570   78.3980  219.9120 C   0  0  0  0  0  0  0  0  0  0  0  0
  141.5668   78.6958  218.9839 H   0  0  0  0  0  0  0  0  0  0  0  0
  139.9671   78.4992  219.8033 H   0  0  0  0  0  0  0  0  0  0  0  0
  141.5140   79.2990  221.0380 C   0  0  0  0  0  0  0  0  0  0  0  0
  142.1540   78.7540  222.1690 C   0  0  0  0  0  0  0  0  0  0  0  0
  142.3369   77.6709  222.2274 H   0  0  0  0  0  0  0  0  0  0  0  0
  142.5570   79.5870  223.2170 C   0  0  0  0  0  0  0  0  0  0  0  0
  143.0498   79.1578  224.1019 H   0  0  0  0  0  0  0  0  0  0  0  0
  142.3340   80.9660  223.1410 C   0  0  0  0  0  0  0  0  0  0  0  0
  142.6504   81.6187  223.9680 H   0  0  0  0  0  0  0  0  0  0  0  0
  141.7100   81.5180  222.0170 C   0  0  0  0  0  0  0  0  0  0  0  0
  141.4420   82.8440  221.9710 F   0  0  0  0  0  0  0  0  0  0  0  0
  141.2980   80.6880  220.9710 C   0  0  0  0  0  0  0  0  0  0  0  0
  140.8022   81.1227  220.0905 H   0  0  0  0  0  0  0  0  0  0  0  0
  138.7330   78.7390  222.7480 C   0  0  0  0  0  0  0  0  0  0  0  0
  137.8970   79.4160  221.8340 C   0  0  0  0  0  0  0  0  0  0  0  0
  137.5311   78.8964  220.9362 H   0  0  0  0  0  0  0  0  0  0  0  0
  137.5430   80.7090  222.0610 N   0  0  0  0  0  0  0  0  0  0  0  0
  137.9940   81.3940  223.1450 C   0  0  0  0  0  0  0  0  0  0  0  0
  137.6849   82.4380  223.3015 H   0  0  0  0  0  0  0  0  0  0  0  0
  138.8490   80.7760  224.0610 C   0  0  0  0  0  0  0  0  0  0  0  0
  139.2420   81.3387  224.9206 H   0  0  0  0  0  0  0  0  0  0  0  0
  139.2000   79.4370  223.8750 C   0  0  0  0  0  0  0  0  0  0  0  0
  139.8415   78.9290  224.6101 H   0  0  0  0  0  0  0  0  0  0  0  0
  1  2  1  0
  2  3  2  0
  3  4  1  0
  3  5  1  0
  5  6  2  0
  6  7  1  0
  7  8  2  0
  8  9  1  0
  8 10  1  0
 10 11  1  0
 10 12  2  0
 12 13  1  0
 12 14  1  0
 14 15  1  0
 14 16  2  0
 16 17  1  0
 17 18  2  0
 17 19  1  0
 19 20  1  0
 20 21  1  0
 20 22  1  0
 20 23  1  0
 23 24  2  0
 24 25  1  0
 24 26  1  0
 26 27  1  0
 26 28  2  0
 28 29  1  0
 28 30  1  0
 30 31  1  0
 30 32  2  0
 32 33  1  0
  2 34  1  0
 34 35  2  0
 35 36  1  0
 35 37  1  0
 37 38  2  0
 38 39  1  0
 38 40  1  0
 40 41  1  0
 40 42  2  0
 42 43  1  0
 19  5  1  0
 32 23  1  0
 42 34  1  0
 16  7  1  0
M  END
>  <UniqueID>  (7) 
272

>  <SMILES>  (7) 
O=c1c2ccccc2nc(/C=C/c2cccnc2)n1Cc1cccc(F)c1

>  <Energy>  (7) 
64.14431952501938

>  <Genealogy>  (7) 
O=c1c2ccccc2nc(/C=C/c2cccnc2)n1Cc1cccc(F)c1 (cis-trans isomerization)
O=c1c2ccccc2nc(/C=C/c2cccnc2)n1Cc1cccc(F)c1 (3D coordinates assigned)
O=c1c2ccccc2nc(/C=C/c2cccnc2)n1Cc1cccc(F)c1 (optimized conformer: 64.14431952501938 kcal/mol)

>  <smiles>  (7) 
O=c1c2ccccc2nc(/C=C/c2cccnc2)n1Cc1cccc(F)c1

>  <score_type>  (7) 
oracle

>  <origin>  (7) 
autodockgpu

>  <m_score__min__energy>  (7) 
-7.3499999999999996

>  <m_primary>  (7) 
energy

>  <meeko>  (7) 
{"free_energy": -6.23, "intermolecular_energy": -7.72, "internal_energy": -1.92, "cluster_size": 4, "cluster_id": 7, "rank_in_cluster": 4}

>  <energy>  (7) 
-7.24

>  <cluster_rmsd>  (7) 
0.0

>  <rmsd>  (7) 
270.7

>  <cluster>  (7) 
2

$$$$
YLRGTGGRSQXFLM-ZHACJKMWNA-N
     RDKit          3D

 43 46  0  0  0  0  0  0  0  0999 V2000
  135.3546   69.3860  222.2662 H   0  0  0  0  0  0  0  0  0  0  0  0
  135.8620   69.3070  223.2390 C   0  0  0  0  0  0  0  0  0  0  0  0
  137.1300   68.8780  223.2660 C   0  0  0  0  0  0  0  0  0  0  0  0
  137.4230   67.9997  222.6720 H   0  0  0  0  0  0  0  0  0  0  0  0
  138.1330   69.5740  224.0850 C   0  0  0  0  0  0  0  0  0  0  0  0
  138.3140   69.1420  225.3640 N   0  0  0  0  0  0  0  0  0  0  0  0
  139.2180   69.7180  226.1880 C   0  0  0  0  0  0  0  0  0  0  0  0
  139.3850   69.2320  227.4960 C   0  0  0  0  0  0  0  0  0  0  0  0
  138.7781   68.3860  227.8509 H   0  0  0  0  0  0  0  0  0  0  0  0
  140.3230   69.8250  228.3450 C   0  0  0  0  0  0  0  0  0  0  0  0
  140.4544   69.4453  229.3690 H   0  0  0  0  0  0  0  0  0  0  0  0
  141.0960   70.9020  227.8940 C   0  0  0  0  0  0  0  0  0  0  0  0
  141.8323   71.3665  228.5663 H   0  0  0  0  0  0  0  0  0  0  0  0
  140.9360   71.3920  226.5880 C   0  0  0  0  0  0  0  0  0  0  0  0
  141.5467   72.2377  226.2389 H   0  0  0  0  0  0  0  0  0  0  0  0
  139.9930   70.8000  225.7250 C   0  0  0  0  0  0  0  0  0  0  0  0
  139.7870   71.2560  224.4080 C   0  0  0  0  0  0  0  0  0  0  0  0
  140.4550   72.2420  223.9810 O   0  0  0  0  0  0  0  0  0  0  0  0
  138.8600   70.6400  223.5960 N   0  0  0  0  0  0  0  0  0  0  0  0
  138.6080   71.1490  222.2280 C   0  0  0  0  0  0  0  0  0  0  0  0
  139.5560   71.1650  221.6703 H   0  0  0  0  0  0  0  0  0  0  0  0
  137.8816   70.4852  221.7364 H   0  0  0  0  0  0  0  0  0  0  0  0
  138.0330   72.5470  222.2650 C   0  0  0  0  0  0  0  0  0  0  0  0
  138.8250   73.6520  221.8910 C   0  0  0  0  0  0  0  0  0  0  0  0
  139.8608   73.4961  221.5552 H   0  0  0  0  0  0  0  0  0  0  0  0
  138.2970   74.9450  221.9460 C   0  0  0  0  0  0  0  0  0  0  0  0
  138.9202   75.8055  221.6610 H   0  0  0  0  0  0  0  0  0  0  0  0
  136.9770   75.1460  222.3630 C   0  0  0  0  0  0  0  0  0  0  0  0
  136.5648   76.1649  222.4067 H   0  0  0  0  0  0  0  0  0  0  0  0
  136.1790   74.0540  222.7250 C   0  0  0  0  0  0  0  0  0  0  0  0
  134.9220   74.2550  223.1850 F   0  0  0  0  0  0  0  0  0  0  0  0
  136.7050   72.7610  222.6810 C   0  0  0  0  0  0  0  0  0  0  0  0
  136.0785   71.9053  222.9729 H   0  0  0  0  0  0  0  0  0  0  0  0
  135.1160   69.6780  224.4540 C   0  0  0  0  0  0  0  0  0  0  0  0
  134.5740   68.7070  225.3240 C   0  0  0  0  0  0  0  0  0  0  0  0
  134.6574   67.6387  225.0753 H   0  0  0  0  0  0  0  0  0  0  0  0
  133.9490   69.0910  226.4690 N   0  0  0  0  0  0  0  0  0  0  0  0
  133.8030   70.4010  226.8000 C   0  0  0  0  0  0  0  0  0  0  0  0
  133.2955   70.6772  227.7361 H   0  0  0  0  0  0  0  0  0  0  0  0
  134.2960   71.3980  225.9540 C   0  0  0  0  0  0  0  0  0  0  0  0
  134.1496   72.4594  226.2030 H   0  0  0  0  0  0  0  0  0  0  0  0
  134.9760   71.0350  224.7900 C   0  0  0  0  0  0  0  0  0  0  0  0
  135.4018   71.8107  224.1365 H   0  0  0  0  0  0  0  0  0  0  0  0
  1  2  1  0
  2  3  2  0
  3  4  1  0
  3  5  1  0
  5  6  2  0
  6  7  1  0
  7  8  2  0
  8  9  1  0
  8 10  1  0
 10 11  1  0
 10 12  2  0
 12 13  1  0
 12 14  1  0
 14 15  1  0
 14 16  2  0
 16 17  1  0
 17 18  2  0
 17 19  1  0
 19 20  1  0
 20 21  1  0
 20 22  1  0
 20 23  1  0
 23 24  2  0
 24 25  1  0
 24 26  1  0
 26 27  1  0
 26 28  2  0
 28 29  1  0
 28 30  1  0
 30 31  1  0
 30 32  2  0
 32 33  1  0
  2 34  1  0
 34 35  2  0
 35 36  1  0
 35 37  1  0
 37 38  2  0
 38 39  1  0
 38 40  1  0
 40 41  1  0
 40 42  2  0
 42 43  1  0
 19  5  1  0
 32 23  1  0
 42 34  1  0
 16  7  1  0
M  END
>  <UniqueID>  (8) 
272

>  <SMILES>  (8) 
O=c1c2ccccc2nc(/C=C/c2cccnc2)n1Cc1cccc(F)c1

>  <Energy>  (8) 
64.14431952501938

>  <Genealogy>  (8) 
O=c1c2ccccc2nc(/C=C/c2cccnc2)n1Cc1cccc(F)c1 (cis-trans isomerization)
O=c1c2ccccc2nc(/C=C/c2cccnc2)n1Cc1cccc(F)c1 (3D coordinates assigned)
O=c1c2ccccc2nc(/C=C/c2cccnc2)n1Cc1cccc(F)c1 (optimized conformer: 64.14431952501938 kcal/mol)

>  <smiles>  (8) 
O=c1c2ccccc2nc(/C=C/c2cccnc2)n1Cc1cccc(F)c1

>  <score_type>  (8) 
oracle

>  <origin>  (8) 
autodockgpu

>  <m_score__min__energy>  (8) 
-7.3499999999999996

>  <m_primary>  (8) 
energy

>  <meeko>  (8) 
{"free_energy": -6.61, "intermolecular_energy": -8.1, "internal_energy": -1.69, "cluster_size": 3, "cluster_id": 4, "rank_in_cluster": 3}

>  <energy>  (8) 
-7.06

>  <cluster_rmsd>  (8) 
0.0

>  <rmsd>  (8) 
270.55

>  <cluster>  (8) 
3

$$$$
YLRGTGGRSQXFLM-ZHACJKMWNA-N
     RDKit          3D

 43 46  0  0  0  0  0  0  0  0999 V2000
  138.7120   73.4704  222.1270 H   0  0  0  0  0  0  0  0  0  0  0  0
  138.3280   72.4500  222.2730 C   0  0  0  0  0  0  0  0  0  0  0  0
  139.2050   71.4420  222.3510 C   0  0  0  0  0  0  0  0  0  0  0  0
  139.7105   71.0847  221.4417 H   0  0  0  0  0  0  0  0  0  0  0  0
  139.4960   70.8100  223.6460 C   0  0  0  0  0  0  0  0  0  0  0  0
  140.1220   71.5650  224.5920 N   0  0  0  0  0  0  0  0  0  0  0  0
  140.4230   71.0690  225.8130 C   0  0  0  0  0  0  0  0  0  0  0  0
  141.0560   71.8850  226.7650 C   0  0  0  0  0  0  0  0  0  0  0  0
  141.3100   72.9259  226.5158 H   0  0  0  0  0  0  0  0  0  0  0  0
  141.3630   71.3740  228.0290 C   0  0  0  0  0  0  0  0  0  0  0  0
  141.8591   72.0125  228.7748 H   0  0  0  0  0  0  0  0  0  0  0  0
  141.0390   70.0490  228.3460 C   0  0  0  0  0  0  0  0  0  0  0  0
  141.2818   69.6499  229.3419 H   0  0  0  0  0  0  0  0  0  0  0  0
  140.4060   69.2270  227.4000 C   0  0  0  0  0  0  0  0  0  0  0  0
  140.1547   68.1869  227.6551 H   0  0  0  0  0  0  0  0  0  0  0  0
  140.0930   69.7350  226.1240 C   0  0  0  0  0  0  0  0  0  0  0  0
  139.4630   68.9530  225.1360 C   0  0  0  0  0  0  0  0  0  0  0  0
  139.1810   67.7450  225.3870 O   0  0  0  0  0  0  0  0  0  0  0  0
  139.1680   69.4950  223.9040 N   0  0  0  0  0  0  0  0  0  0  0  0
  138.5500   68.6590  222.8480 C   0  0  0  0  0  0  0  0  0  0  0  0
  138.7363   69.1225  221.8680 H   0  0  0  0  0  0  0  0  0  0  0  0
  138.9963   67.6546  222.8920 H   0  0  0  0  0  0  0  0  0  0  0  0
  137.0580   68.5310  223.0580 C   0  0  0  0  0  0  0  0  0  0  0  0
  136.2680   67.8230  222.1290 C   0  0  0  0  0  0  0  0  0  0  0  0
  136.7403   67.3476  221.2567 H   0  0  0  0  0  0  0  0  0  0  0  0
  134.8870   67.7240  222.3140 C   0  0  0  0  0  0  0  0  0  0  0  0
  134.2726   67.1777  221.5832 H   0  0  0  0  0  0  0  0  0  0  0  0
  134.2840   68.3190  223.4280 C   0  0  0  0  0  0  0  0  0  0  0  0
  133.1960   68.2411  223.5699 H   0  0  0  0  0  0  0  0  0  0  0  0
  135.0620   69.0130  224.3620 C   0  0  0  0  0  0  0  0  0  0  0  0
  134.4710   69.6390  225.4070 F   0  0  0  0  0  0  0  0  0  0  0  0
  136.4420   69.1230  224.1760 C   0  0  0  0  0  0  0  0  0  0  0  0
  137.0504   69.6753  224.9073 H   0  0  0  0  0  0  0  0  0  0  0  0
  136.8700   72.2540  222.3740 C   0  0  0  0  0  0  0  0  0  0  0  0
  136.1250   71.6470  221.3400 C   0  0  0  0  0  0  0  0  0  0  0  0
  136.6224   71.3533  220.4039 H   0  0  0  0  0  0  0  0  0  0  0  0
  134.7930   71.4250  221.5000 N   0  0  0  0  0  0  0  0  0  0  0  0
  134.1370   71.7940  222.6310 C   0  0  0  0  0  0  0  0  0  0  0  0
  133.0597   71.5948  222.7300 H   0  0  0  0  0  0  0  0  0  0  0  0
  134.8270   72.4260  223.6690 C   0  0  0  0  0  0  0  0  0  0  0  0
  134.2915   72.7565  224.5712 H   0  0  0  0  0  0  0  0  0  0  0  0
  136.2030   72.6340  223.5500 C   0  0  0  0  0  0  0  0  0  0  0  0
  136.7637   73.0950  224.3765 H   0  0  0  0  0  0  0  0  0  0  0  0
  1  2  1  0
  2  3  2  0
  3  4  1  0
  3  5  1  0
  5  6  2  0
  6  7  1  0
  7  8  2  0
  8  9  1  0
  8 10  1  0
 10 11  1  0
 10 12  2  0
 12 13  1  0
 12 14  1  0
 14 15  1  0
 14 16  2  0
 16 17  1  0
 17 18  2  0
 17 19  1  0
 19 20  1  0
 20 21  1  0
 20 22  1  0
 20 23  1  0
 23 24  2  0
 24 25  1  0
 24 26  1  0
 26 27  1  0
 26 28  2  0
 28 29  1  0
 28 30  1  0
 30 31  1  0
 30 32  2  0
 32 33  1  0
  2 34  1  0
 34 35  2  0
 35 36  1  0
 35 37  1  0
 37 38  2  0
 38 39  1  0
 38 40  1  0
 40 41  1  0
 40 42  2  0
 42 43  1  0
 19  5  1  0
 32 23  1  0
 42 34  1  0
 16  7  1  0
M  END
>  <UniqueID>  (9) 
272

>  <SMILES>  (9) 
O=c1c2ccccc2nc(/C=C/c2cccnc2)n1Cc1cccc(F)c1

>  <Energy>  (9) 
64.14431952501938

>  <Genealogy>  (9) 
O=c1c2ccccc2nc(/C=C/c2cccnc2)n1Cc1cccc(F)c1 (cis-trans isomerization)
O=c1c2ccccc2nc(/C=C/c2cccnc2)n1Cc1cccc(F)c1 (3D coordinates assigned)
O=c1c2ccccc2nc(/C=C/c2cccnc2)n1Cc1cccc(F)c1 (optimized conformer: 64.14431952501938 kcal/mol)

>  <smiles>  (9) 
O=c1c2ccccc2nc(/C=C/c2cccnc2)n1Cc1cccc(F)c1

>  <score_type>  (9) 
oracle

>  <origin>  (9) 
autodockgpu

>  <m_score__min__energy>  (9) 
-7.3499999999999996

>  <m_primary>  (9) 
energy

>  <meeko>  (9) 
{"free_energy": -5.96, "intermolecular_energy": -7.45, "internal_energy": -2.09, "cluster_size": 1, "cluster_id": 8, "rank_in_cluster": 1}

>  <energy>  (9) 
-6.99

>  <cluster_rmsd>  (9) 
0.89

>  <rmsd>  (9) 
270.53

>  <cluster>  (9) 
3

$$$$
YLRGTGGRSQXFLM-ZHACJKMWNA-N
     RDKit          3D

 43 46  0  0  0  0  0  0  0  0999 V2000
  139.1566   76.6440  223.5761 H   0  0  0  0  0  0  0  0  0  0  0  0
  138.9980   77.2160  222.6500 C   0  0  0  0  0  0  0  0  0  0  0  0
  139.0970   76.5760  221.4790 C   0  0  0  0  0  0  0  0  0  0  0  0
  138.1974   76.4097  220.8682 H   0  0  0  0  0  0  0  0  0  0  0  0
  140.4030   76.0940  221.0050 C   0  0  0  0  0  0  0  0  0  0  0  0
  140.7490   74.8100  221.3040 N   0  0  0  0  0  0  0  0  0  0  0  0
  141.9260   74.2800  220.9030 C   0  0  0  0  0  0  0  0  0  0  0  0
  142.2390   72.9470  221.2190 C   0  0  0  0  0  0  0  0  0  0  0  0
  141.5282   72.3359  221.7947 H   0  0  0  0  0  0  0  0  0  0  0  0
  143.4540   72.3990  220.8010 C   0  0  0  0  0  0  0  0  0  0  0  0
  143.7003   71.3559  221.0486 H   0  0  0  0  0  0  0  0  0  0  0  0
  144.3590   73.1760  220.0670 C   0  0  0  0  0  0  0  0  0  0  0  0
  145.3145   72.7402  219.7396 H   0  0  0  0  0  0  0  0  0  0  0  0
  144.0530   74.5080  219.7470 C   0  0  0  0  0  0  0  0  0  0  0  0
  144.7679   75.1134  219.1705 H   0  0  0  0  0  0  0  0  0  0  0  0
  142.8310   75.0690  220.1640 C   0  0  0  0  0  0  0  0  0  0  0  0
  142.4760   76.4020  219.8750 C   0  0  0  0  0  0  0  0  0  0  0  0
  143.2840   77.1340  219.2350 O   0  0  0  0  0  0  0  0  0  0  0  0
  141.2650   76.9050  220.2960 N   0  0  0  0  0  0  0  0  0  0  0  0
  140.9120   78.3200  220.0350 C   0  0  0  0  0  0  0  0  0  0  0  0
  141.3461   78.6269  219.0720 H   0  0  0  0  0  0  0  0  0  0  0  0
  139.8158   78.4080  220.0102 H   0  0  0  0  0  0  0  0  0  0  0  0
  141.4420   79.2230  221.1260 C   0  0  0  0  0  0  0  0  0  0  0  0
  142.0730   78.6730  222.2600 C   0  0  0  0  0  0  0  0  0  0  0  0
  142.1958   77.5832  222.3446 H   0  0  0  0  0  0  0  0  0  0  0  0
  142.5430   79.5080  223.2770 C   0  0  0  0  0  0  0  0  0  0  0  0
  143.0275   79.0742  224.1642 H   0  0  0  0  0  0  0  0  0  0  0  0
  142.3980   80.8950  223.1680 C   0  0  0  0  0  0  0  0  0  0  0  0
  142.7675   81.5499  223.9709 H   0  0  0  0  0  0  0  0  0  0  0  0
  141.7840   81.4520  222.0400 C   0  0  0  0  0  0  0  0  0  0  0  0
  141.5910   82.7900  221.9630 F   0  0  0  0  0  0  0  0  0  0  0  0
  141.3040   80.6200  221.0250 C   0  0  0  0  0  0  0  0  0  0  0  0
  140.8158   81.0592  220.1425 H   0  0  0  0  0  0  0  0  0  0  0  0
  138.6860   78.6530  222.7550 C   0  0  0  0  0  0  0  0  0  0  0  0
  137.8600   79.3080  221.8160 C   0  0  0  0  0  0  0  0  0  0  0  0
  137.4725   78.7571  220.9463 H   0  0  0  0  0  0  0  0  0  0  0  0
  137.5430   80.6200  221.9860 N   0  0  0  0  0  0  0  0  0  0  0  0
  138.0220   81.3420  223.0320 C   0  0  0  0  0  0  0  0  0  0  0  0
  137.7432   82.4005  223.1411 H   0  0  0  0  0  0  0  0  0  0  0  0
  138.8680   80.7440  223.9700 C   0  0  0  0  0  0  0  0  0  0  0  0
  139.2835   81.3351  224.7995 H   0  0  0  0  0  0  0  0  0  0  0  0
  139.1810   79.3880  223.8440 C   0  0  0  0  0  0  0  0  0  0  0  0
  139.8146   78.8969  224.5973 H   0  0  0  0  0  0  0  0  0  0  0  0
  1  2  1  0
  2  3  2  0
  3  4  1  0
  3  5  1  0
  5  6  2  0
  6  7  1  0
  7  8  2  0
  8  9  1  0
  8 10  1  0
 10 11  1  0
 10 12  2  0
 12 13  1  0
 12 14  1  0
 14 15  1  0
 14 16  2  0
 16 17  1  0
 17 18  2  0
 17 19  1  0
 19 20  1  0
 20 21  1  0
 20 22  1  0
 20 23  1  0
 23 24  2  0
 24 25  1  0
 24 26  1  0
 26 27  1  0
 26 28  2  0
 28 29  1  0
 28 30  1  0
 30 31  1  0
 30 32  2  0
 32 33  1  0
  2 34  1  0
 34 35  2  0
 35 36  1  0
 35 37  1  0
 37 38  2  0
 38 39  1  0
 38 40  1  0
 40 41  1  0
 40 42  2  0
 42 43  1  0
 19  5  1  0
 32 23  1  0
 42 34  1  0
 16  7  1  0
M  END
>  <UniqueID>  (10) 
272

>  <SMILES>  (10) 
O=c1c2ccccc2nc(/C=C/c2cccnc2)n1Cc1cccc(F)c1

>  <Energy>  (10) 
64.14431952501938

>  <Genealogy>  (10) 
O=c1c2ccccc2nc(/C=C/c2cccnc2)n1Cc1cccc(F)c1 (cis-trans isomerization)
O=c1c2ccccc2nc(/C=C/c2cccnc2)n1Cc1cccc(F)c1 (3D coordinates assigned)
O=c1c2ccccc2nc(/C=C/c2cccnc2)n1Cc1cccc(F)c1 (optimized conformer: 64.14431952501938 kcal/mol)

>  <smiles>  (10) 
O=c1c2ccccc2nc(/C=C/c2cccnc2)n1Cc1cccc(F)c1

>  <score_type>  (10) 
oracle

>  <origin>  (10) 
autodockgpu

>  <m_score__min__energy>  (10) 
-7.3499999999999996

>  <m_primary>  (10) 
energy

>  <meeko>  (10) 
{"free_energy": -6.25, "intermolecular_energy": -7.74, "internal_energy": -1.9, "cluster_size": 4, "cluster_id": 7, "rank_in_cluster": 1}

>  <energy>  (10) 
-6.98

>  <cluster_rmsd>  (10) 
0.87

>  <rmsd>  (10) 
270.56

>  <cluster>  (10) 
3

$$$$
YLRGTGGRSQXFLM-ZHACJKMWNA-N
     RDKit          3D

 43 46  0  0  0  0  0  0  0  0999 V2000
  141.3014   70.7069  220.8656 H   0  0  0  0  0  0  0  0  0  0  0  0
  140.5610   71.3220  221.3980 C   0  0  0  0  0  0  0  0  0  0  0  0
  139.5570   70.7060  222.0340 C   0  0  0  0  0  0  0  0  0  0  0  0
  138.6164   70.5002  221.5022 H   0  0  0  0  0  0  0  0  0  0  0  0
  139.7060   70.3030  223.4410 C   0  0  0  0  0  0  0  0  0  0  0  0
  140.2410   71.2110  224.3040 N   0  0  0  0  0  0  0  0  0  0  0  0
  140.4090   70.9310  225.6160 C   0  0  0  0  0  0  0  0  0  0  0  0
  140.9510   71.9000  226.4760 C   0  0  0  0  0  0  0  0  0  0  0  0
  141.2421   72.8850  226.0822 H   0  0  0  0  0  0  0  0  0  0  0  0
  141.1200   71.6110  227.8330 C   0  0  0  0  0  0  0  0  0  0  0  0
  141.5448   72.3691  228.5074 H   0  0  0  0  0  0  0  0  0  0  0  0
  140.7490   70.3570  228.3350 C   0  0  0  0  0  0  0  0  0  0  0  0
  140.8840   70.1338  229.4036 H   0  0  0  0  0  0  0  0  0  0  0  0
  140.2060   69.3840  227.4820 C   0  0  0  0  0  0  0  0  0  0  0  0
  139.9164   68.4011  227.8820 H   0  0  0  0  0  0  0  0  0  0  0  0
  140.0320   69.6670  226.1130 C   0  0  0  0  0  0  0  0  0  0  0  0
  139.4970   68.7250  225.2110 C   0  0  0  0  0  0  0  0  0  0  0  0
  139.1760   67.5770  225.6320 O   0  0  0  0  0  0  0  0  0  0  0  0
  139.3360   69.0490  223.8820 N   0  0  0  0  0  0  0  0  0  0  0  0
  138.8200   68.0430  222.9240 C   0  0  0  0  0  0  0  0  0  0  0  0
  139.2733   68.2203  221.9375 H   0  0  0  0  0  0  0  0  0  0  0  0
  139.0814   67.0407  223.2942 H   0  0  0  0  0  0  0  0  0  0  0  0
  137.3150   68.1330  222.8000 C   0  0  0  0  0  0  0  0  0  0  0  0
  136.6000   69.1130  223.5160 C   0  0  0  0  0  0  0  0  0  0  0  0
  137.1390   69.8267  224.1564 H   0  0  0  0  0  0  0  0  0  0  0  0
  135.2080   69.1810  223.4150 C   0  0  0  0  0  0  0  0  0  0  0  0
  134.6527   69.9440  223.9802 H   0  0  0  0  0  0  0  0  0  0  0  0
  134.5200   68.2800  222.5960 C   0  0  0  0  0  0  0  0  0  0  0  0
  133.4239   68.3335  222.5212 H   0  0  0  0  0  0  0  0  0  0  0  0
  135.2230   67.3100  221.8710 C   0  0  0  0  0  0  0  0  0  0  0  0
  134.5520   66.4010  221.1240 F   0  0  0  0  0  0  0  0  0  0  0  0
  136.6140   67.2330  221.9760 C   0  0  0  0  0  0  0  0  0  0  0  0
  137.1639   66.4652  221.4119 H   0  0  0  0  0  0  0  0  0  0  0  0
  140.7190   72.7870  221.3790 C   0  0  0  0  0  0  0  0  0  0  0  0
  139.7620   73.6490  221.9570 C   0  0  0  0  0  0  0  0  0  0  0  0
  138.8406   73.2342  222.3917 H   0  0  0  0  0  0  0  0  0  0  0  0
  139.9780   74.9920  221.9770 N   0  0  0  0  0  0  0  0  0  0  0  0
  141.0910   75.5450  221.4290 C   0  0  0  0  0  0  0  0  0  0  0  0
  141.2374   76.6346  221.4669 H   0  0  0  0  0  0  0  0  0  0  0  0
  142.0510   74.7340  220.8170 C   0  0  0  0  0  0  0  0  0  0  0  0
  142.9357   75.1827  220.3416 H   0  0  0  0  0  0  0  0  0  0  0  0
  141.8760   73.3490  220.8150 C   0  0  0  0  0  0  0  0  0  0  0  0
  142.6440   72.6980  220.3719 H   0  0  0  0  0  0  0  0  0  0  0  0
  1  2  1  0
  2  3  2  0
  3  4  1  0
  3  5  1  0
  5  6  2  0
  6  7  1  0
  7  8  2  0
  8  9  1  0
  8 10  1  0
 10 11  1  0
 10 12  2  0
 12 13  1  0
 12 14  1  0
 14 15  1  0
 14 16  2  0
 16 17  1  0
 17 18  2  0
 17 19  1  0
 19 20  1  0
 20 21  1  0
 20 22  1  0
 20 23  1  0
 23 24  2  0
 24 25  1  0
 24 26  1  0
 26 27  1  0
 26 28  2  0
 28 29  1  0
 28 30  1  0
 30 31  1  0
 30 32  2  0
 32 33  1  0
  2 34  1  0
 34 35  2  0
 35 36  1  0
 35 37  1  0
 37 38  2  0
 38 39  1  0
 38 40  1  0
 40 41  1  0
 40 42  2  0
 42 43  1  0
 19  5  1  0
 32 23  1  0
 42 34  1  0
 16  7  1  0
M  END
>  <UniqueID>  (11) 
272

>  <SMILES>  (11) 
O=c1c2ccccc2nc(/C=C/c2cccnc2)n1Cc1cccc(F)c1

>  <Energy>  (11) 
64.14431952501938

>  <Genealogy>  (11) 
O=c1c2ccccc2nc(/C=C/c2cccnc2)n1Cc1cccc(F)c1 (cis-trans isomerization)
O=c1c2ccccc2nc(/C=C/c2cccnc2)n1Cc1cccc(F)c1 (3D coordinates assigned)
O=c1c2ccccc2nc(/C=C/c2cccnc2)n1Cc1cccc(F)c1 (optimized conformer: 64.14431952501938 kcal/mol)

>  <smiles>  (11) 
O=c1c2ccccc2nc(/C=C/c2cccnc2)n1Cc1cccc(F)c1

>  <score_type>  (11) 
oracle

>  <origin>  (11) 
autodockgpu

>  <m_score__min__energy>  (11) 
-7.3499999999999996

>  <m_primary>  (11) 
energy

>  <meeko>  (11) 
{"free_energy": -7.31, "intermolecular_energy": -8.8, "internal_energy": -1.18, "cluster_size": 6, "cluster_id": 1, "rank_in_cluster": 4}

>  <energy>  (11) 
-7.02

>  <cluster_rmsd>  (11) 
0.0

>  <rmsd>  (11) 
270.14

>  <cluster>  (11) 
4

$$$$
YLRGTGGRSQXFLM-ZHACJKMWNA-N
     RDKit          3D

 43 46  0  0  0  0  0  0  0  0999 V2000
  143.6403   75.9404  218.1616 H   0  0  0  0  0  0  0  0  0  0  0  0
  143.5940   75.5500  219.1890 C   0  0  0  0  0  0  0  0  0  0  0  0
  142.7600   76.1350  220.0590 C   0  0  0  0  0  0  0  0  0  0  0  0
  142.9065   77.1902  220.3331 H   0  0  0  0  0  0  0  0  0  0  0  0
  141.6500   75.3730  220.6490 C   0  0  0  0  0  0  0  0  0  0  0  0
  141.8660   74.0580  220.9330 N   0  0  0  0  0  0  0  0  0  0  0  0
  140.9050   73.2820  221.4830 C   0  0  0  0  0  0  0  0  0  0  0  0
  141.1730   71.9350  221.7740 C   0  0  0  0  0  0  0  0  0  0  0  0
  142.1629   71.5102  221.5513 H   0  0  0  0  0  0  0  0  0  0  0  0
  140.1810   71.1340  222.3470 C   0  0  0  0  0  0  0  0  0  0  0  0
  140.3902   70.0784  222.5749 H   0  0  0  0  0  0  0  0  0  0  0  0
  138.9210   71.6750  222.6310 C   0  0  0  0  0  0  0  0  0  0  0  0
  138.1426   71.0416  223.0814 H   0  0  0  0  0  0  0  0  0  0  0  0
  138.6460   73.0210  222.3440 C   0  0  0  0  0  0  0  0  0  0  0  0
  137.6543   73.4401  222.5697 H   0  0  0  0  0  0  0  0  0  0  0  0
  139.6400   73.8350  221.7670 C   0  0  0  0  0  0  0  0  0  0  0  0
  139.4160   75.1900  221.4520 C   0  0  0  0  0  0  0  0  0  0  0  0
  138.2790   75.6990  221.6760 O   0  0  0  0  0  0  0  0  0  0  0  0
  140.4210   75.9510  220.8970 N   0  0  0  0  0  0  0  0  0  0  0  0
  140.1710   77.3620  220.5220 C   0  0  0  0  0  0  0  0  0  0  0  0
  140.5161   77.5261  219.4905 H   0  0  0  0  0  0  0  0  0  0  0  0
  139.0921   77.5596  220.6048 H   0  0  0  0  0  0  0  0  0  0  0  0
  140.9050   78.3090  221.4450 C   0  0  0  0  0  0  0  0  0  0  0  0
  141.5090   79.4750  220.9320 C   0  0  0  0  0  0  0  0  0  0  0  0
  141.4338   79.7058  219.8591 H   0  0  0  0  0  0  0  0  0  0  0  0
  142.2030   80.3380  221.7840 C   0  0  0  0  0  0  0  0  0  0  0  0
  142.6785   81.2438  221.3797 H   0  0  0  0  0  0  0  0  0  0  0  0
  142.2940   80.0520  223.1500 C   0  0  0  0  0  0  0  0  0  0  0  0
  142.8435   80.7322  223.8174 H   0  0  0  0  0  0  0  0  0  0  0  0
  141.6880   78.9030  223.6700 C   0  0  0  0  0  0  0  0  0  0  0  0
  141.8260   78.5960  224.9820 F   0  0  0  0  0  0  0  0  0  0  0  0
  141.0000   78.0320  222.8210 C   0  0  0  0  0  0  0  0  0  0  0  0
  140.5305   77.1255  223.2306 H   0  0  0  0  0  0  0  0  0  0  0  0
  144.4520   74.4070  219.5470 C   0  0  0  0  0  0  0  0  0  0  0  0
  144.7480   73.3790  218.6260 C   0  0  0  0  0  0  0  0  0  0  0  0
  144.2909   73.3896  217.6255 H   0  0  0  0  0  0  0  0  0  0  0  0
  145.5980   72.3750  218.9740 N   0  0  0  0  0  0  0  0  0  0  0  0
  146.1640   72.3140  220.2080 C   0  0  0  0  0  0  0  0  0  0  0  0
  146.8513   71.4917  220.4557 H   0  0  0  0  0  0  0  0  0  0  0  0
  145.8760   73.2920  221.1630 C   0  0  0  0  0  0  0  0  0  0  0  0
  146.3059   73.2249  222.1733 H   0  0  0  0  0  0  0  0  0  0  0  0
  145.0370   74.3560  220.8230 C   0  0  0  0  0  0  0  0  0  0  0  0
  144.8347   75.1530  221.5537 H   0  0  0  0  0  0  0  0  0  0  0  0
  1  2  1  0
  2  3  2  0
  3  4  1  0
  3  5  1  0
  5  6  2  0
  6  7  1  0
  7  8  2  0
  8  9  1  0
  8 10  1  0
 10 11  1  0
 10 12  2  0
 12 13  1  0
 12 14  1  0
 14 15  1  0
 14 16  2  0
 16 17  1  0
 17 18  2  0
 17 19  1  0
 19 20  1  0
 20 21  1  0
 20 22  1  0
 20 23  1  0
 23 24  2  0
 24 25  1  0
 24 26  1  0
 26 27  1  0
 26 28  2  0
 28 29  1  0
 28 30  1  0
 30 31  1  0
 30 32  2  0
 32 33  1  0
  2 34  1  0
 34 35  2  0
 35 36  1  0
 35 37  1  0
 37 38  2  0
 38 39  1  0
 38 40  1  0
 40 41  1  0
 40 42  2  0
 42 43  1  0
 19  5  1  0
 32 23  1  0
 42 34  1  0
 16  7  1  0
M  END
>  <UniqueID>  (12) 
272

>  <SMILES>  (12) 
O=c1c2ccccc2nc(/C=C/c2cccnc2)n1Cc1cccc(F)c1

>  <Energy>  (12) 
64.14431952501938

>  <Genealogy>  (12) 
O=c1c2ccccc2nc(/C=C/c2cccnc2)n1Cc1cccc(F)c1 (cis-trans isomerization)
O=c1c2ccccc2nc(/C=C/c2cccnc2)n1Cc1cccc(F)c1 (3D coordinates assigned)
O=c1c2ccccc2nc(/C=C/c2cccnc2)n1Cc1cccc(F)c1 (optimized conformer: 64.14431952501938 kcal/mol)

>  <smiles>  (12) 
O=c1c2ccccc2nc(/C=C/c2cccnc2)n1Cc1cccc(F)c1

>  <score_type>  (12) 
oracle

>  <origin>  (12) 
autodockgpu

>  <m_score__min__energy>  (12) 
-7.3499999999999996

>  <m_primary>  (12) 
energy

>  <meeko>  (12) 
{"free_energy": -6.98, "intermolecular_energy": -8.47, "internal_energy": -1.29, "cluster_size": 3, "cluster_id": 3, "rank_in_cluster": 3}

>  <energy>  (12) 
-6.86

>  <cluster_rmsd>  (12) 
0.4

>  <rmsd>  (12) 
270.04

>  <cluster>  (12) 
4

$$$$
YLRGTGGRSQXFLM-ZHACJKMWNA-N
     RDKit          3D

 43 46  0  0  0  0  0  0  0  0999 V2000
  135.4440   67.8619  222.7628 H   0  0  0  0  0  0  0  0  0  0  0  0
  135.9450   68.6700  223.3160 C   0  0  0  0  0  0  0  0  0  0  0  0
  137.1820   69.0250  222.9470 C   0  0  0  0  0  0  0  0  0  0  0  0
  137.4585   69.0198  221.8823 H   0  0  0  0  0  0  0  0  0  0  0  0
  138.1730   69.4220  223.9590 C   0  0  0  0  0  0  0  0  0  0  0  0
  138.4370   68.5400  224.9630 N   0  0  0  0  0  0  0  0  0  0  0  0
  139.3380   68.8170  225.9330 C   0  0  0  0  0  0  0  0  0  0  0  0
  139.5920   67.8750  226.9430 C   0  0  0  0  0  0  0  0  0  0  0  0
  139.0566   66.9141  226.9471 H   0  0  0  0  0  0  0  0  0  0  0  0
  140.5260   68.1600  227.9430 C   0  0  0  0  0  0  0  0  0  0  0  0
  140.7249   67.4233  228.7353 H   0  0  0  0  0  0  0  0  0  0  0  0
  141.2090   69.3830  227.9370 C   0  0  0  0  0  0  0  0  0  0  0  0
  141.9436   69.6032  228.7256 H   0  0  0  0  0  0  0  0  0  0  0  0
  140.9610   70.3290  226.9300 C   0  0  0  0  0  0  0  0  0  0  0  0
  141.5005   71.2876  226.9305 H   0  0  0  0  0  0  0  0  0  0  0  0
  140.0210   70.0500  225.9190 C   0  0  0  0  0  0  0  0  0  0  0  0
  139.7290   70.9650  224.8880 C   0  0  0  0  0  0  0  0  0  0  0  0
  140.3130   72.0870  224.8710 O   0  0  0  0  0  0  0  0  0  0  0  0
  138.8090   70.6460  223.9150 N   0  0  0  0  0  0  0  0  0  0  0  0
  138.4650   71.6270  222.8590 C   0  0  0  0  0  0  0  0  0  0  0  0
  137.7953   71.1490  222.1289 H   0  0  0  0  0  0  0  0  0  0  0  0
  137.9705   72.4891  223.3305 H   0  0  0  0  0  0  0  0  0  0  0  0
  139.7060   72.1160  222.1450 C   0  0  0  0  0  0  0  0  0  0  0  0
  140.6410   71.1940  221.6340 C   0  0  0  0  0  0  0  0  0  0  0  0
  140.4603   70.1141  221.7392 H   0  0  0  0  0  0  0  0  0  0  0  0
  141.7970   71.6480  220.9940 C   0  0  0  0  0  0  0  0  0  0  0  0
  142.5281   70.9252  220.6028 H   0  0  0  0  0  0  0  0  0  0  0  0
  142.0260   73.0210  220.8500 C   0  0  0  0  0  0  0  0  0  0  0  0
  142.9377   73.3757  220.3469 H   0  0  0  0  0  0  0  0  0  0  0  0
  141.0970   73.9440  221.3450 C   0  0  0  0  0  0  0  0  0  0  0  0
  141.3480   75.2720  221.2580 F   0  0  0  0  0  0  0  0  0  0  0  0
  139.9440   73.4940  221.9940 C   0  0  0  0  0  0  0  0  0  0  0  0
  139.2190   74.2211  222.3887 H   0  0  0  0  0  0  0  0  0  0  0  0
  135.2240   69.3120  224.4290 C   0  0  0  0  0  0  0  0  0  0  0  0
  134.5480   68.5600  225.4140 C   0  0  0  0  0  0  0  0  0  0  0  0
  134.5038   67.4638  225.3343 H   0  0  0  0  0  0  0  0  0  0  0  0
  133.9510   69.1900  226.4620 N   0  0  0  0  0  0  0  0  0  0  0  0
  133.9610   70.5430  226.5830 C   0  0  0  0  0  0  0  0  0  0  0  0
  133.4720   71.0204  227.4450 H   0  0  0  0  0  0  0  0  0  0  0  0
  134.5910   71.3300  225.6150 C   0  0  0  0  0  0  0  0  0  0  0  0
  134.5710   72.4270  225.6931 H   0  0  0  0  0  0  0  0  0  0  0  0
  135.2460   70.7120  224.5480 C   0  0  0  0  0  0  0  0  0  0  0  0
  135.7784   71.3200  223.8018 H   0  0  0  0  0  0  0  0  0  0  0  0
  1  2  1  0
  2  3  2  0
  3  4  1  0
  3  5  1  0
  5  6  2  0
  6  7  1  0
  7  8  2  0
  8  9  1  0
  8 10  1  0
 10 11  1  0
 10 12  2  0
 12 13  1  0
 12 14  1  0
 14 15  1  0
 14 16  2  0
 16 17  1  0
 17 18  2  0
 17 19  1  0
 19 20  1  0
 20 21  1  0
 20 22  1  0
 20 23  1  0
 23 24  2  0
 24 25  1  0
 24 26  1  0
 26 27  1  0
 26 28  2  0
 28 29  1  0
 28 30  1  0
 30 31  1  0
 30 32  2  0
 32 33  1  0
  2 34  1  0
 34 35  2  0
 35 36  1  0
 35 37  1  0
 37 38  2  0
 38 39  1  0
 38 40  1  0
 40 41  1  0
 40 42  2  0
 42 43  1  0
 19  5  1  0
 32 23  1  0
 42 34  1  0
 16  7  1  0
M  END
>  <UniqueID>  (13) 
272

>  <SMILES>  (13) 
O=c1c2ccccc2nc(/C=C/c2cccnc2)n1Cc1cccc(F)c1

>  <Energy>  (13) 
64.14431952501938

>  <Genealogy>  (13) 
O=c1c2ccccc2nc(/C=C/c2cccnc2)n1Cc1cccc(F)c1 (cis-trans isomerization)
O=c1c2ccccc2nc(/C=C/c2cccnc2)n1Cc1cccc(F)c1 (3D coordinates assigned)
O=c1c2ccccc2nc(/C=C/c2cccnc2)n1Cc1cccc(F)c1 (optimized conformer: 64.14431952501938 kcal/mol)

>  <smiles>  (13) 
O=c1c2ccccc2nc(/C=C/c2cccnc2)n1Cc1cccc(F)c1

>  <score_type>  (13) 
oracle

>  <origin>  (13) 
autodockgpu

>  <m_score__min__energy>  (13) 
-7.3499999999999996

>  <m_primary>  (13) 
energy

>  <meeko>  (13) 
{"free_energy": -6.86, "intermolecular_energy": -8.35, "internal_energy": -1.35, "cluster_size": 3, "cluster_id": 4, "rank_in_cluster": 2}

>  <energy>  (13) 
-6.61

>  <cluster_rmsd>  (13) 
1.96

>  <rmsd>  (13) 
269.86

>  <cluster>  (13) 
4

$$$$
YLRGTGGRSQXFLM-ZHACJKMWNA-N
     RDKit          3D

 43 46  0  0  0  0  0  0  0  0999 V2000
  143.7790   76.6078  218.3646 H   0  0  0  0  0  0  0  0  0  0  0  0
  143.3140   75.7650  218.8970 C   0  0  0  0  0  0  0  0  0  0  0  0
  141.9980   75.8090  219.1380 C   0  0  0  0  0  0  0  0  0  0  0  0
  141.3029   75.2633  218.4830 H   0  0  0  0  0  0  0  0  0  0  0  0
  141.4770   76.5840  220.2750 C   0  0  0  0  0  0  0  0  0  0  0  0
  142.1960   77.6670  220.6830 N   0  0  0  0  0  0  0  0  0  0  0  0
  141.7910   78.4420  221.7140 C   0  0  0  0  0  0  0  0  0  0  0  0
  142.5530   79.5590  222.0940 C   0  0  0  0  0  0  0  0  0  0  0  0
  143.4805   79.8022  221.5550 H   0  0  0  0  0  0  0  0  0  0  0  0
  142.1310   80.3610  223.1580 C   0  0  0  0  0  0  0  0  0  0  0  0
  142.7278   81.2353  223.4572 H   0  0  0  0  0  0  0  0  0  0  0  0
  140.9490   80.0530  223.8440 C   0  0  0  0  0  0  0  0  0  0  0  0
  140.6205   80.6873  224.6805 H   0  0  0  0  0  0  0  0  0  0  0  0
  140.1820   78.9390  223.4690 C   0  0  0  0  0  0  0  0  0  0  0  0
  139.2551   78.7017  224.0117 H   0  0  0  0  0  0  0  0  0  0  0  0
  140.5990   78.1250  222.3980 C   0  0  0  0  0  0  0  0  0  0  0  0
  139.8710   76.9920  221.9840 C   0  0  0  0  0  0  0  0  0  0  0  0
  138.8130   76.6760  222.6010 O   0  0  0  0  0  0  0  0  0  0  0  0
  140.3130   76.2300  220.9250 N   0  0  0  0  0  0  0  0  0  0  0  0
  139.5740   75.0110  220.5210 C   0  0  0  0  0  0  0  0  0  0  0  0
  138.5071   75.1441  220.7533 H   0  0  0  0  0  0  0  0  0  0  0  0
  139.7182   74.8566  219.4415 H   0  0  0  0  0  0  0  0  0  0  0  0
  140.0910   73.7930  221.2540 C   0  0  0  0  0  0  0  0  0  0  0  0
  139.3770   73.2670  222.3490 C   0  0  0  0  0  0  0  0  0  0  0  0
  138.4314   73.7336  222.6624 H   0  0  0  0  0  0  0  0  0  0  0  0
  139.8670   72.1540  223.0380 C   0  0  0  0  0  0  0  0  0  0  0  0
  139.3106   71.7503  223.8967 H   0  0  0  0  0  0  0  0  0  0  0  0
  141.0650   71.5530  222.6360 C   0  0  0  0  0  0  0  0  0  0  0  0
  141.4499   70.6790  223.1819 H   0  0  0  0  0  0  0  0  0  0  0  0
  141.7750   72.0600  221.5420 C   0  0  0  0  0  0  0  0  0  0  0  0
  142.9630   71.5140  221.1900 F   0  0  0  0  0  0  0  0  0  0  0  0
  141.2930   73.1780  220.8560 C   0  0  0  0  0  0  0  0  0  0  0  0
  141.8559   73.5796  220.0005 H   0  0  0  0  0  0  0  0  0  0  0  0
  144.1680   74.6380  219.3130 C   0  0  0  0  0  0  0  0  0  0  0  0
  144.7440   73.7520  218.3780 C   0  0  0  0  0  0  0  0  0  0  0  0
  144.5175   73.8604  217.3070 H   0  0  0  0  0  0  0  0  0  0  0  0
  145.5790   72.7640  218.7990 N   0  0  0  0  0  0  0  0  0  0  0  0
  145.8660   72.5830  220.1150 C   0  0  0  0  0  0  0  0  0  0  0  0
  146.5506   71.7784  220.4214 H   0  0  0  0  0  0  0  0  0  0  0  0
  145.2940   73.4160  221.0800 C   0  0  0  0  0  0  0  0  0  0  0  0
  145.4965   73.2486  222.1482 H   0  0  0  0  0  0  0  0  0  0  0  0
  144.4630   74.4630  220.6760 C   0  0  0  0  0  0  0  0  0  0  0  0
  144.0398   75.1500  221.4236 H   0  0  0  0  0  0  0  0  0  0  0  0
  1  2  1  0
  2  3  2  0
  3  4  1  0
  3  5  1  0
  5  6  2  0
  6  7  1  0
  7  8  2  0
  8  9  1  0
  8 10  1  0
 10 11  1  0
 10 12  2  0
 12 13  1  0
 12 14  1  0
 14 15  1  0
 14 16  2  0
 16 17  1  0
 17 18  2  0
 17 19  1  0
 19 20  1  0
 20 21  1  0
 20 22  1  0
 20 23  1  0
 23 24  2  0
 24 25  1  0
 24 26  1  0
 26 27  1  0
 26 28  2  0
 28 29  1  0
 28 30  1  0
 30 31  1  0
 30 32  2  0
 32 33  1  0
  2 34  1  0
 34 35  2  0
 35 36  1  0
 35 37  1  0
 37 38  2  0
 38 39  1  0
 38 40  1  0
 40 41  1  0
 40 42  2  0
 42 43  1  0
 19  5  1  0
 32 23  1  0
 42 34  1  0
 16  7  1  0
M  END
>  <UniqueID>  (14) 
272

>  <SMILES>  (14) 
O=c1c2ccccc2nc(/C=C/c2cccnc2)n1Cc1cccc(F)c1

>  <Energy>  (14) 
64.14431952501938

>  <Genealogy>  (14) 
O=c1c2ccccc2nc(/C=C/c2cccnc2)n1Cc1cccc(F)c1 (cis-trans isomerization)
O=c1c2ccccc2nc(/C=C/c2cccnc2)n1Cc1cccc(F)c1 (3D coordinates assigned)
O=c1c2ccccc2nc(/C=C/c2cccnc2)n1Cc1cccc(F)c1 (optimized conformer: 64.14431952501938 kcal/mol)

>  <smiles>  (14) 
O=c1c2ccccc2nc(/C=C/c2cccnc2)n1Cc1cccc(F)c1

>  <score_type>  (14) 
oracle

>  <origin>  (14) 
autodockgpu

>  <m_score__min__energy>  (14) 
-7.3499999999999996

>  <m_primary>  (14) 
energy

>  <meeko>  (14) 
{"free_energy": -6.63, "intermolecular_energy": -8.12, "internal_energy": -1.62, "cluster_size": 1, "cluster_id": 6, "rank_in_cluster": 1}

>  <energy>  (14) 
-6.71

>  <cluster_rmsd>  (14) 
0.0

>  <rmsd>  (14) 
269.7

>  <cluster>  (14) 
5

$$$$
YLRGTGGRSQXFLM-ZHACJKMWNA-N
     RDKit          3D

 43 46  0  0  0  0  0  0  0  0999 V2000
  138.5622   71.9154  222.9750 H   0  0  0  0  0  0  0  0  0  0  0  0
  139.6270   71.6800  223.1190 C   0  0  0  0  0  0  0  0  0  0  0  0
  140.4830   71.9610  222.1300 C   0  0  0  0  0  0  0  0  0  0  0  0
  141.0158   71.1456  221.6189 H   0  0  0  0  0  0  0  0  0  0  0  0
  140.7150   73.3550  221.7230 C   0  0  0  0  0  0  0  0  0  0  0  0
  139.9730   74.3220  222.3310 N   0  0  0  0  0  0  0  0  0  0  0  0
  140.1230   75.6310  222.0260 C   0  0  0  0  0  0  0  0  0  0  0  0
  139.3490   76.5990  222.6860 C   0  0  0  0  0  0  0  0  0  0  0  0
  138.6185   76.2926  223.4492 H   0  0  0  0  0  0  0  0  0  0  0  0
  139.5070   77.9520  222.3730 C   0  0  0  0  0  0  0  0  0  0  0  0
  138.9002   78.7105  222.8892 H   0  0  0  0  0  0  0  0  0  0  0  0
  140.4380   78.3420  221.4020 C   0  0  0  0  0  0  0  0  0  0  0  0
  140.5599   79.4076  221.1579 H   0  0  0  0  0  0  0  0  0  0  0  0
  141.2160   77.3810  220.7390 C   0  0  0  0  0  0  0  0  0  0  0  0
  141.9456   77.6942  219.9777 H   0  0  0  0  0  0  0  0  0  0  0  0
  141.0630   76.0150  221.0480 C   0  0  0  0  0  0  0  0  0  0  0  0
  141.8130   75.0090  220.4080 C   0  0  0  0  0  0  0  0  0  0  0  0
  142.6440   75.3300  219.5100 O   0  0  0  0  0  0  0  0  0  0  0  0
  141.6360   73.6860  220.7500 N   0  0  0  0  0  0  0  0  0  0  0  0
  142.3890   72.6230  220.0440 C   0  0  0  0  0  0  0  0  0  0  0  0
  142.2292   71.6654  220.5613 H   0  0  0  0  0  0  0  0  0  0  0  0
  142.0261   72.5674  219.0071 H   0  0  0  0  0  0  0  0  0  0  0  0
  143.8700   72.9300  220.0190 C   0  0  0  0  0  0  0  0  0  0  0  0
  144.5450   73.0750  218.7910 C   0  0  0  0  0  0  0  0  0  0  0  0
  143.9902   72.9809  217.8458 H   0  0  0  0  0  0  0  0  0  0  0  0
  145.9170   73.3380  218.7700 C   0  0  0  0  0  0  0  0  0  0  0  0
  146.4418   73.4437  217.8091 H   0  0  0  0  0  0  0  0  0  0  0  0
  146.6240   73.4670  219.9710 C   0  0  0  0  0  0  0  0  0  0  0  0
  147.7046   73.6719  219.9520 H   0  0  0  0  0  0  0  0  0  0  0  0
  145.9600   73.3360  221.1960 C   0  0  0  0  0  0  0  0  0  0  0  0
  146.6550   73.4030  222.3560 F   0  0  0  0  0  0  0  0  0  0  0  0
  144.5890   73.0640  221.2210 C   0  0  0  0  0  0  0  0  0  0  0  0
  144.0700   72.9543  222.1846 H   0  0  0  0  0  0  0  0  0  0  0  0
  140.0470   71.0690  224.3930 C   0  0  0  0  0  0  0  0  0  0  0  0
  140.7280   71.8050  225.3860 C   0  0  0  0  0  0  0  0  0  0  0  0
  141.0078   72.8521  225.1982 H   0  0  0  0  0  0  0  0  0  0  0  0
  141.0390   71.2220  226.5750 N   0  0  0  0  0  0  0  0  0  0  0  0
  140.7330   69.9240  226.8360 C   0  0  0  0  0  0  0  0  0  0  0  0
  140.9946   69.4838  227.8096 H   0  0  0  0  0  0  0  0  0  0  0  0
  140.0870   69.1470  225.8710 C   0  0  0  0  0  0  0  0  0  0  0  0
  139.8695   68.0867  226.0670 H   0  0  0  0  0  0  0  0  0  0  0  0
  139.7200   69.7280  224.6560 C   0  0  0  0  0  0  0  0  0  0  0  0
  139.1754   69.1367  223.9052 H   0  0  0  0  0  0  0  0  0  0  0  0
  1  2  1  0
  2  3  2  0
  3  4  1  0
  3  5  1  0
  5  6  2  0
  6  7  1  0
  7  8  2  0
  8  9  1  0
  8 10  1  0
 10 11  1  0
 10 12  2  0
 12 13  1  0
 12 14  1  0
 14 15  1  0
 14 16  2  0
 16 17  1  0
 17 18  2  0
 17 19  1  0
 19 20  1  0
 20 21  1  0
 20 22  1  0
 20 23  1  0
 23 24  2  0
 24 25  1  0
 24 26  1  0
 26 27  1  0
 26 28  2  0
 28 29  1  0
 28 30  1  0
 30 31  1  0
 30 32  2  0
 32 33  1  0
  2 34  1  0
 34 35  2  0
 35 36  1  0
 35 37  1  0
 37 38  2  0
 38 39  1  0
 38 40  1  0
 40 41  1  0
 40 42  2  0
 42 43  1  0
 19  5  1  0
 32 23  1  0
 42 34  1  0
 16  7  1  0
M  END
>  <UniqueID>  (15) 
272

>  <SMILES>  (15) 
O=c1c2ccccc2nc(/C=C/c2cccnc2)n1Cc1cccc(F)c1

>  <Energy>  (15) 
64.14431952501938

>  <Genealogy>  (15) 
O=c1c2ccccc2nc(/C=C/c2cccnc2)n1Cc1cccc(F)c1 (cis-trans isomerization)
O=c1c2ccccc2nc(/C=C/c2cccnc2)n1Cc1cccc(F)c1 (3D coordinates assigned)
O=c1c2ccccc2nc(/C=C/c2cccnc2)n1Cc1cccc(F)c1 (optimized conformer: 64.14431952501938 kcal/mol)

>  <smiles>  (15) 
O=c1c2ccccc2nc(/C=C/c2cccnc2)n1Cc1cccc(F)c1

>  <score_type>  (15) 
oracle

>  <origin>  (15) 
autodockgpu

>  <m_score__min__energy>  (15) 
-7.3499999999999996

>  <m_primary>  (15) 
energy

>  <meeko>  (15) 
{"free_energy": -7.24, "intermolecular_energy": -8.73, "internal_energy": -0.95, "cluster_size": 1, "cluster_id": 2, "rank_in_cluster": 1}

>  <energy>  (15) 
-6.63

>  <cluster_rmsd>  (15) 
0.0

>  <rmsd>  (15) 
270.51

>  <cluster>  (15) 
6

$$$$
YLRGTGGRSQXFLM-ZHACJKMWNA-N
     RDKit          3D

 43 46  0  0  0  0  0  0  0  0999 V2000
  143.5058   75.7725  218.1460 H   0  0  0  0  0  0  0  0  0  0  0  0
  143.5420   75.4130  219.1850 C   0  0  0  0  0  0  0  0  0  0  0  0
  142.7640   76.0110  220.0950 C   0  0  0  0  0  0  0  0  0  0  0  0
  142.9842   77.0413  220.4114 H   0  0  0  0  0  0  0  0  0  0  0  0
  141.6160   75.2970  220.6740 C   0  0  0  0  0  0  0  0  0  0  0  0
  141.7820   73.9820  220.9860 N   0  0  0  0  0  0  0  0  0  0  0  0
  140.7840   73.2480  221.5280 C   0  0  0  0  0  0  0  0  0  0  0  0
  141.0010   71.8980  221.8500 C   0  0  0  0  0  0  0  0  0  0  0  0
  141.9811   71.4367  221.6585 H   0  0  0  0  0  0  0  0  0  0  0  0
  139.9700   71.1420  222.4140 C   0  0  0  0  0  0  0  0  0  0  0  0
  140.1384   70.0843  222.6650 H   0  0  0  0  0  0  0  0  0  0  0  0
  138.7230   71.7290  222.6600 C   0  0  0  0  0  0  0  0  0  0  0  0
  137.9144   71.1299  223.1041 H   0  0  0  0  0  0  0  0  0  0  0  0
  138.4990   73.0780  222.3430 C   0  0  0  0  0  0  0  0  0  0  0  0
  137.5171   73.5335  222.5389 H   0  0  0  0  0  0  0  0  0  0  0  0
  139.5320   73.8480  221.7740 C   0  0  0  0  0  0  0  0  0  0  0  0
  139.3600   75.2030  221.4300 C   0  0  0  0  0  0  0  0  0  0  0  0
  138.2370   75.7530  221.6190 O   0  0  0  0  0  0  0  0  0  0  0  0
  140.4030   75.9200  220.8840 N   0  0  0  0  0  0  0  0  0  0  0  0
  140.2080   77.3310  220.4780 C   0  0  0  0  0  0  0  0  0  0  0  0
  140.5982   77.4688  219.4588 H   0  0  0  0  0  0  0  0  0  0  0  0
  139.1326   77.5596  220.5145 H   0  0  0  0  0  0  0  0  0  0  0  0
  140.9310   78.2720  221.4150 C   0  0  0  0  0  0  0  0  0  0  0  0
  141.5260   79.4500  220.9200 C   0  0  0  0  0  0  0  0  0  0  0  0
  141.4511   79.6947  219.8502 H   0  0  0  0  0  0  0  0  0  0  0  0
  142.2110   80.3080  221.7850 C   0  0  0  0  0  0  0  0  0  0  0  0
  142.6798   81.2231  221.3940 H   0  0  0  0  0  0  0  0  0  0  0  0
  142.3010   80.0040  223.1480 C   0  0  0  0  0  0  0  0  0  0  0  0
  142.8433   80.6795  223.8259 H   0  0  0  0  0  0  0  0  0  0  0  0
  141.7030   78.8430  223.6510 C   0  0  0  0  0  0  0  0  0  0  0  0
  141.8410   78.5190  224.9580 F   0  0  0  0  0  0  0  0  0  0  0  0
  141.0250   77.9780  222.7880 C   0  0  0  0  0  0  0  0  0  0  0  0
  140.5621   77.0621  223.1841 H   0  0  0  0  0  0  0  0  0  0  0  0
  144.4450   74.2950  219.5110 C   0  0  0  0  0  0  0  0  0  0  0  0
  144.8560   73.3580  218.5390 C   0  0  0  0  0  0  0  0  0  0  0  0
  144.4587   73.4185  217.5150 H   0  0  0  0  0  0  0  0  0  0  0  0
  145.7430   72.3800  218.8670 N   0  0  0  0  0  0  0  0  0  0  0  0
  146.2370   72.2550  220.1270 C   0  0  0  0  0  0  0  0  0  0  0  0
  146.9551   71.4543  220.3578 H   0  0  0  0  0  0  0  0  0  0  0  0
  145.8350   73.1410  221.1300 C   0  0  0  0  0  0  0  0  0  0  0  0
  146.2081   73.0221  222.1580 H   0  0  0  0  0  0  0  0  0  0  0  0
  144.9550   74.1790  220.8150 C   0  0  0  0  0  0  0  0  0  0  0  0
  144.6615   74.9051  221.5874 H   0  0  0  0  0  0  0  0  0  0  0  0
  1  2  1  0
  2  3  2  0
  3  4  1  0
  3  5  1  0
  5  6  2  0
  6  7  1  0
  7  8  2  0
  8  9  1  0
  8 10  1  0
 10 11  1  0
 10 12  2  0
 12 13  1  0
 12 14  1  0
 14 15  1  0
 14 16  2  0
 16 17  1  0
 17 18  2  0
 17 19  1  0
 19 20  1  0
 20 21  1  0
 20 22  1  0
 20 23  1  0
 23 24  2  0
 24 25  1  0
 24 26  1  0
 26 27  1  0
 26 28  2  0
 28 29  1  0
 28 30  1  0
 30 31  1  0
 30 32  2  0
 32 33  1  0
  2 34  1  0
 34 35  2  0
 35 36  1  0
 35 37  1  0
 37 38  2  0
 38 39  1  0
 38 40  1  0
 40 41  1  0
 40 42  2  0
 42 43  1  0
 19  5  1  0
 32 23  1  0
 42 34  1  0
 16  7  1  0
M  END
>  <UniqueID>  (16) 
272

>  <SMILES>  (16) 
O=c1c2ccccc2nc(/C=C/c2cccnc2)n1Cc1cccc(F)c1

>  <Energy>  (16) 
64.14431952501938

>  <Genealogy>  (16) 
O=c1c2ccccc2nc(/C=C/c2cccnc2)n1Cc1cccc(F)c1 (cis-trans isomerization)
O=c1c2ccccc2nc(/C=C/c2cccnc2)n1Cc1cccc(F)c1 (3D coordinates assigned)
O=c1c2ccccc2nc(/C=C/c2cccnc2)n1Cc1cccc(F)c1 (optimized conformer: 64.14431952501938 kcal/mol)

>  <smiles>  (16) 
O=c1c2ccccc2nc(/C=C/c2cccnc2)n1Cc1cccc(F)c1

>  <score_type>  (16) 
oracle

>  <origin>  (16) 
autodockgpu

>  <m_score__min__energy>  (16) 
-7.3499999999999996

>  <m_primary>  (16) 
energy

>  <meeko>  (16) 
{"free_energy": -6.99, "intermolecular_energy": -8.48, "internal_energy": -1.28, "cluster_size": 3, "cluster_id": 3, "rank_in_cluster": 2}

>  <energy>  (16) 
-6.25

>  <cluster_rmsd>  (16) 
0.0

>  <rmsd>  (16) 
270.97

>  <cluster>  (16) 
7

$$$$
YLRGTGGRSQXFLM-ZHACJKMWNA-N
     RDKit          3D

 43 46  0  0  0  0  0  0  0  0999 V2000
  135.4975   69.4727  222.2774 H   0  0  0  0  0  0  0  0  0  0  0  0
  135.9330   69.2700  223.2670 C   0  0  0  0  0  0  0  0  0  0  0  0
  137.1340   68.6820  223.3290 C   0  0  0  0  0  0  0  0  0  0  0  0
  137.3698   67.8467  222.6532 H   0  0  0  0  0  0  0  0  0  0  0  0
  138.1400   69.1470  224.2960 C   0  0  0  0  0  0  0  0  0  0  0  0
  138.4500   68.3180  225.3320 N   0  0  0  0  0  0  0  0  0  0  0  0
  139.3670   68.6590  226.2640 C   0  0  0  0  0  0  0  0  0  0  0  0
  139.6700   67.7700  227.3090 C   0  0  0  0  0  0  0  0  0  0  0  0
  139.1585   66.7981  227.3703 H   0  0  0  0  0  0  0  0  0  0  0  0
  140.6210   68.1210  228.2700 C   0  0  0  0  0  0  0  0  0  0  0  0
  140.8581   67.4250  229.0882 H   0  0  0  0  0  0  0  0  0  0  0  0
  141.2730   69.3580  228.1930 C   0  0  0  0  0  0  0  0  0  0  0  0
  142.0207   69.6309  228.9522 H   0  0  0  0  0  0  0  0  0  0  0  0
  140.9770   70.2510  227.1520 C   0  0  0  0  0  0  0  0  0  0  0  0
  141.4927   71.2211  227.0966 H   0  0  0  0  0  0  0  0  0  0  0  0
  140.0200   69.9060  226.1780 C   0  0  0  0  0  0  0  0  0  0  0  0
  139.6800   70.7670  225.1160 C   0  0  0  0  0  0  0  0  0  0  0  0
  140.2350   71.9000  225.0350 O   0  0  0  0  0  0  0  0  0  0  0  0
  138.7440   70.3820  224.1820 N   0  0  0  0  0  0  0  0  0  0  0  0
  138.3500   71.3070  223.0920 C   0  0  0  0  0  0  0  0  0  0  0  0
  137.6577   70.7880  222.4128 H   0  0  0  0  0  0  0  0  0  0  0  0
  137.8652   72.1876  223.5386 H   0  0  0  0  0  0  0  0  0  0  0  0
  139.5580   71.7690  222.3080 C   0  0  0  0  0  0  0  0  0  0  0  0
  140.3360   70.8400  221.5890 C   0  0  0  0  0  0  0  0  0  0  0  0
  140.0549   69.7765  221.5841 H   0  0  0  0  0  0  0  0  0  0  0  0
  141.4640   71.2660  220.8820 C   0  0  0  0  0  0  0  0  0  0  0  0
  142.0736   70.5367  220.3284 H   0  0  0  0  0  0  0  0  0  0  0  0
  141.8180   72.6190  220.8780 C   0  0  0  0  0  0  0  0  0  0  0  0
  142.7070   72.9515  220.3220 H   0  0  0  0  0  0  0  0  0  0  0  0
  141.0450   73.5510  221.5790 C   0  0  0  0  0  0  0  0  0  0  0  0
  141.4220   74.8510  221.6230 F   0  0  0  0  0  0  0  0  0  0  0  0
  139.9220   73.1290  222.2950 C   0  0  0  0  0  0  0  0  0  0  0  0
  139.3196   73.8625  222.8510 H   0  0  0  0  0  0  0  0  0  0  0  0
  135.1680   69.6580  224.4660 C   0  0  0  0  0  0  0  0  0  0  0  0
  134.6150   68.6990  225.3420 C   0  0  0  0  0  0  0  0  0  0  0  0
  134.7035   67.6273  225.1103 H   0  0  0  0  0  0  0  0  0  0  0  0
  133.9730   69.0990  226.4720 N   0  0  0  0  0  0  0  0  0  0  0  0
  133.8200   70.4130  226.7820 C   0  0  0  0  0  0  0  0  0  0  0  0
  133.2992   70.7016  227.7069 H   0  0  0  0  0  0  0  0  0  0  0  0
  134.3230   71.3990  225.9280 C   0  0  0  0  0  0  0  0  0  0  0  0
  134.1705   72.4636  226.1588 H   0  0  0  0  0  0  0  0  0  0  0  0
  135.0210   71.0200  224.7790 C   0  0  0  0  0  0  0  0  0  0  0  0
  135.4550   71.7865  224.1202 H   0  0  0  0  0  0  0  0  0  0  0  0
  1  2  1  0
  2  3  2  0
  3  4  1  0
  3  5  1  0
  5  6  2  0
  6  7  1  0
  7  8  2  0
  8  9  1  0
  8 10  1  0
 10 11  1  0
 10 12  2  0
 12 13  1  0
 12 14  1  0
 14 15  1  0
 14 16  2  0
 16 17  1  0
 17 18  2  0
 17 19  1  0
 19 20  1  0
 20 21  1  0
 20 22  1  0
 20 23  1  0
 23 24  2  0
 24 25  1  0
 24 26  1  0
 26 27  1  0
 26 28  2  0
 28 29  1  0
 28 30  1  0
 30 31  1  0
 30 32  2  0
 32 33  1  0
  2 34  1  0
 34 35  2  0
 35 36  1  0
 35 37  1  0
 37 38  2  0
 38 39  1  0
 38 40  1  0
 40 41  1  0
 40 42  2  0
 42 43  1  0
 19  5  1  0
 32 23  1  0
 42 34  1  0
 16  7  1  0
M  END
>  <UniqueID>  (17) 
272

>  <SMILES>  (17) 
O=c1c2ccccc2nc(/C=C/c2cccnc2)n1Cc1cccc(F)c1

>  <Energy>  (17) 
64.14431952501938

>  <Genealogy>  (17) 
O=c1c2ccccc2nc(/C=C/c2cccnc2)n1Cc1cccc(F)c1 (cis-trans isomerization)
O=c1c2ccccc2nc(/C=C/c2cccnc2)n1Cc1cccc(F)c1 (3D coordinates assigned)
O=c1c2ccccc2nc(/C=C/c2cccnc2)n1Cc1cccc(F)c1 (optimized conformer: 64.14431952501938 kcal/mol)

>  <smiles>  (17) 
O=c1c2ccccc2nc(/C=C/c2cccnc2)n1Cc1cccc(F)c1

>  <score_type>  (17) 
oracle

>  <origin>  (17) 
autodockgpu

>  <m_score__min__energy>  (17) 
-7.3499999999999996

>  <m_primary>  (17) 
energy

>  <meeko>  (17) 
{"free_energy": -7.02, "intermolecular_energy": -8.51, "internal_energy": -1.32, "cluster_size": 3, "cluster_id": 4, "rank_in_cluster": 1}

>  <energy>  (17) 
-6.24

>  <cluster_rmsd>  (17) 
0.04

>  <rmsd>  (17) 
270.99

>  <cluster>  (17) 
7

$$$$
YLRGTGGRSQXFLM-ZHACJKMWNA-N
     RDKit          3D

 43 46  0  0  0  0  0  0  0  0999 V2000
  141.2521   70.6659  220.8284 H   0  0  0  0  0  0  0  0  0  0  0  0
  140.5260   71.2720  221.3900 C   0  0  0  0  0  0  0  0  0  0  0  0
  139.5340   70.6460  222.0340 C   0  0  0  0  0  0  0  0  0  0  0  0
  138.5938   70.4243  221.5078 H   0  0  0  0  0  0  0  0  0  0  0  0
  139.6950   70.2530  223.4420 C   0  0  0  0  0  0  0  0  0  0  0  0
  140.2330   71.1690  224.2960 N   0  0  0  0  0  0  0  0  0  0  0  0
  140.4120   70.8970  225.6090 C   0  0  0  0  0  0  0  0  0  0  0  0
  140.9550   71.8740  226.4590 C   0  0  0  0  0  0  0  0  0  0  0  0
  141.2376   72.8581  226.0568 H   0  0  0  0  0  0  0  0  0  0  0  0
  141.1360   71.5950  227.8160 C   0  0  0  0  0  0  0  0  0  0  0  0
  141.5625   72.3595  228.4820 H   0  0  0  0  0  0  0  0  0  0  0  0
  140.7750   70.3430  228.3290 C   0  0  0  0  0  0  0  0  0  0  0  0
  140.9190   70.1271  229.3979 H   0  0  0  0  0  0  0  0  0  0  0  0
  140.2300   69.3620  227.4850 C   0  0  0  0  0  0  0  0  0  0  0  0
  139.9483   68.3802  227.8932 H   0  0  0  0  0  0  0  0  0  0  0  0
  140.0440   69.6350  226.1160 C   0  0  0  0  0  0  0  0  0  0  0  0
  139.5080   68.6850  225.2240 C   0  0  0  0  0  0  0  0  0  0  0  0
  139.1950   67.5380  225.6550 O   0  0  0  0  0  0  0  0  0  0  0  0
  139.3350   69.0000  223.8940 N   0  0  0  0  0  0  0  0  0  0  0  0
  138.8160   67.9860  222.9460 C   0  0  0  0  0  0  0  0  0  0  0  0
  139.3020   68.1254  221.9691 H   0  0  0  0  0  0  0  0  0  0  0  0
  139.0366   66.9862  223.3482 H   0  0  0  0  0  0  0  0  0  0  0  0
  137.3190   68.1160  222.7760 C   0  0  0  0  0  0  0  0  0  0  0  0
  136.6030   69.0860  223.5050 C   0  0  0  0  0  0  0  0  0  0  0  0
  137.1363   69.7623  224.1892 H   0  0  0  0  0  0  0  0  0  0  0  0
  135.2170   69.1910  223.3610 C   0  0  0  0  0  0  0  0  0  0  0  0
  134.6603   69.9456  223.9360 H   0  0  0  0  0  0  0  0  0  0  0  0
  134.5370   68.3370  222.4860 C   0  0  0  0  0  0  0  0  0  0  0  0
  133.4454   68.4189  222.3778 H   0  0  0  0  0  0  0  0  0  0  0  0
  135.2410   67.3790  221.7480 C   0  0  0  0  0  0  0  0  0  0  0  0
  134.5750   66.5150  220.9460 F   0  0  0  0  0  0  0  0  0  0  0  0
  136.6260   67.2650  221.8960 C   0  0  0  0  0  0  0  0  0  0  0  0
  137.1771   66.5059  221.3214 H   0  0  0  0  0  0  0  0  0  0  0  0
  140.6900   72.7370  221.3990 C   0  0  0  0  0  0  0  0  0  0  0  0
  139.7480   73.5900  222.0130 C   0  0  0  0  0  0  0  0  0  0  0  0
  138.8333   73.1697  222.4564 H   0  0  0  0  0  0  0  0  0  0  0  0
  139.9700   74.9310  222.0570 N   0  0  0  0  0  0  0  0  0  0  0  0
  141.0740   75.4920  221.4980 C   0  0  0  0  0  0  0  0  0  0  0  0
  141.2247   76.5801  221.5546 H   0  0  0  0  0  0  0  0  0  0  0  0
  142.0190   74.6900  220.8510 C   0  0  0  0  0  0  0  0  0  0  0  0
  142.8966   75.1451  220.3687 H   0  0  0  0  0  0  0  0  0  0  0  0
  141.8380   73.3060  220.8230 C   0  0  0  0  0  0  0  0  0  0  0  0
  142.5938   72.6615  220.3503 H   0  0  0  0  0  0  0  0  0  0  0  0
  1  2  1  0
  2  3  2  0
  3  4  1  0
  3  5  1  0
  5  6  2  0
  6  7  1  0
  7  8  2  0
  8  9  1  0
  8 10  1  0
 10 11  1  0
 10 12  2  0
 12 13  1  0
 12 14  1  0
 14 15  1  0
 14 16  2  0
 16 17  1  0
 17 18  2  0
 17 19  1  0
 19 20  1  0
 20 21  1  0
 20 22  1  0
 20 23  1  0
 23 24  2  0
 24 25  1  0
 24 26  1  0
 26 27  1  0
 26 28  2  0
 28 29  1  0
 28 30  1  0
 30 31  1  0
 30 32  2  0
 32 33  1  0
  2 34  1  0
 34 35  2  0
 35 36  1  0
 35 37  1  0
 37 38  2  0
 38 39  1  0
 38 40  1  0
 40 41  1  0
 40 42  2  0
 42 43  1  0
 19  5  1  0
 32 23  1  0
 42 34  1  0
 16  7  1  0
M  END
>  <UniqueID>  (18) 
272

>  <SMILES>  (18) 
O=c1c2ccccc2nc(/C=C/c2cccnc2)n1Cc1cccc(F)c1

>  <Energy>  (18) 
64.14431952501938

>  <Genealogy>  (18) 
O=c1c2ccccc2nc(/C=C/c2cccnc2)n1Cc1cccc(F)c1 (cis-trans isomerization)
O=c1c2ccccc2nc(/C=C/c2cccnc2)n1Cc1cccc(F)c1 (3D coordinates assigned)
O=c1c2ccccc2nc(/C=C/c2cccnc2)n1Cc1cccc(F)c1 (optimized conformer: 64.14431952501938 kcal/mol)

>  <smiles>  (18) 
O=c1c2ccccc2nc(/C=C/c2cccnc2)n1Cc1cccc(F)c1

>  <score_type>  (18) 
oracle

>  <origin>  (18) 
autodockgpu

>  <m_score__min__energy>  (18) 
-7.3499999999999996

>  <m_primary>  (18) 
energy

>  <meeko>  (18) 
{"free_energy": -7.29, "intermolecular_energy": -8.79, "internal_energy": -1.19, "cluster_size": 6, "cluster_id": 1, "rank_in_cluster": 6}

>  <energy>  (18) 
-6.24

>  <cluster_rmsd>  (18) 
0.11

>  <rmsd>  (18) 
270.99

>  <cluster>  (18) 
7

$$$$
YLRGTGGRSQXFLM-ZHACJKMWNA-N
     RDKit          3D

 43 46  0  0  0  0  0  0  0  0999 V2000
  139.2699   76.6566  223.5217 H   0  0  0  0  0  0  0  0  0  0  0  0
  139.0670   77.2650  222.6280 C   0  0  0  0  0  0  0  0  0  0  0  0
  139.1720   76.6880  221.4240 C   0  0  0  0  0  0  0  0  0  0  0  0
  138.2844   76.6004  220.7802 H   0  0  0  0  0  0  0  0  0  0  0  0
  140.4670   76.1710  220.9580 C   0  0  0  0  0  0  0  0  0  0  0  0
  140.7840   74.8840  221.2740 N   0  0  0  0  0  0  0  0  0  0  0  0
  141.9510   74.3230  220.8820 C   0  0  0  0  0  0  0  0  0  0  0  0
  142.2330   72.9880  221.2160 C   0  0  0  0  0  0  0  0  0  0  0  0
  141.5078   72.4004  221.7981 H   0  0  0  0  0  0  0  0  0  0  0  0
  143.4370   72.4080  220.8070 C   0  0  0  0  0  0  0  0  0  0  0  0
  143.6598   71.3630  221.0684 H   0  0  0  0  0  0  0  0  0  0  0  0
  144.3600   73.1550  220.0650 C   0  0  0  0  0  0  0  0  0  0  0  0
  145.3062   72.6940  219.7454 H   0  0  0  0  0  0  0  0  0  0  0  0
  144.0840   74.4890  219.7270 C   0  0  0  0  0  0  0  0  0  0  0  0
  144.8129   75.0708  219.1437 H   0  0  0  0  0  0  0  0  0  0  0  0
  142.8730   75.0830  220.1350 C   0  0  0  0  0  0  0  0  0  0  0  0
  142.5480   76.4190  219.8280 C   0  0  0  0  0  0  0  0  0  0  0  0
  143.3740   77.1250  219.1800 O   0  0  0  0  0  0  0  0  0  0  0  0
  141.3480   76.9540  220.2400 N   0  0  0  0  0  0  0  0  0  0  0  0
  141.0260   78.3740  219.9610 C   0  0  0  0  0  0  0  0  0  0  0  0
  141.5191   78.6772  219.0257 H   0  0  0  0  0  0  0  0  0  0  0  0
  139.9342   78.4740  219.8721 H   0  0  0  0  0  0  0  0  0  0  0  0
  141.5010   79.2700  221.0830 C   0  0  0  0  0  0  0  0  0  0  0  0
  142.1500   78.7190  222.2060 C   0  0  0  0  0  0  0  0  0  0  0  0
  142.3272   77.6347  222.2602 H   0  0  0  0  0  0  0  0  0  0  0  0
  142.5690   79.5470  223.2510 C   0  0  0  0  0  0  0  0  0  0  0  0
  143.0691   79.1129  224.1293 H   0  0  0  0  0  0  0  0  0  0  0  0
  142.3530   80.9270  223.1810 C   0  0  0  0  0  0  0  0  0  0  0  0
  142.6825   81.5760  224.0058 H   0  0  0  0  0  0  0  0  0  0  0  0
  141.7190   81.4850  222.0650 C   0  0  0  0  0  0  0  0  0  0  0  0
  141.4580   82.8130  222.0250 F   0  0  0  0  0  0  0  0  0  0  0  0
  141.2910   80.6600  221.0220 C   0  0  0  0  0  0  0  0  0  0  0  0
  140.7872   81.0994  220.1484 H   0  0  0  0  0  0  0  0  0  0  0  0
  138.6920   78.6780  222.8090 C   0  0  0  0  0  0  0  0  0  0  0  0
  137.7750   79.3240  221.9520 C   0  0  0  0  0  0  0  0  0  0  0  0
  137.3591   78.7864  221.0871 H   0  0  0  0  0  0  0  0  0  0  0  0
  137.4050   80.6100  222.1940 N   0  0  0  0  0  0  0  0  0  0  0  0
  137.9150   81.3170  223.2370 C   0  0  0  0  0  0  0  0  0  0  0  0
  137.5912   82.3545  223.4067 H   0  0  0  0  0  0  0  0  0  0  0  0
  138.8490   80.7300  224.0940 C   0  0  0  0  0  0  0  0  0  0  0  0
  139.2882   81.3110  224.9184 H   0  0  0  0  0  0  0  0  0  0  0  0
  139.2200   79.3980  223.8940 C   0  0  0  0  0  0  0  0  0  0  0  0
  139.9249   78.9132  224.5854 H   0  0  0  0  0  0  0  0  0  0  0  0
  1  2  1  0
  2  3  2  0
  3  4  1  0
  3  5  1  0
  5  6  2  0
  6  7  1  0
  7  8  2  0
  8  9  1  0
  8 10  1  0
 10 11  1  0
 10 12  2  0
 12 13  1  0
 12 14  1  0
 14 15  1  0
 14 16  2  0
 16 17  1  0
 17 18  2  0
 17 19  1  0
 19 20  1  0
 20 21  1  0
 20 22  1  0
 20 23  1  0
 23 24  2  0
 24 25  1  0
 24 26  1  0
 26 27  1  0
 26 28  2  0
 28 29  1  0
 28 30  1  0
 30 31  1  0
 30 32  2  0
 32 33  1  0
  2 34  1  0
 34 35  2  0
 35 36  1  0
 35 37  1  0
 37 38  2  0
 38 39  1  0
 38 40  1  0
 40 41  1  0
 40 42  2  0
 42 43  1  0
 19  5  1  0
 32 23  1  0
 42 34  1  0
 16  7  1  0
M  END
>  <UniqueID>  (19) 
272

>  <SMILES>  (19) 
O=c1c2ccccc2nc(/C=C/c2cccnc2)n1Cc1cccc(F)c1

>  <Energy>  (19) 
64.14431952501938

>  <Genealogy>  (19) 
O=c1c2ccccc2nc(/C=C/c2cccnc2)n1Cc1cccc(F)c1 (cis-trans isomerization)
O=c1c2ccccc2nc(/C=C/c2cccnc2)n1Cc1cccc(F)c1 (3D coordinates assigned)
O=c1c2ccccc2nc(/C=C/c2cccnc2)n1Cc1cccc(F)c1 (optimized conformer: 64.14431952501938 kcal/mol)

>  <smiles>  (19) 
O=c1c2ccccc2nc(/C=C/c2cccnc2)n1Cc1cccc(F)c1

>  <score_type>  (19) 
oracle

>  <origin>  (19) 
autodockgpu

>  <m_score__min__energy>  (19) 
-7.3499999999999996

>  <m_primary>  (19) 
energy

>  <meeko>  (19) 
{"free_energy": -6.24, "intermolecular_energy": -7.73, "internal_energy": -1.91, "cluster_size": 4, "cluster_id": 7, "rank_in_cluster": 3}

>  <energy>  (19) 
-6.23

>  <cluster_rmsd>  (19) 
0.12

>  <rmsd>  (19) 
270.98

>  <cluster>  (19) 
7

$$$$
YLRGTGGRSQXFLM-ZHACJKMWNA-N
     RDKit          3D

 43 46  0  0  0  0  0  0  0  0999 V2000
  139.1844   76.6473  223.5717 H   0  0  0  0  0  0  0  0  0  0  0  0
  139.0250   77.2340  222.6550 C   0  0  0  0  0  0  0  0  0  0  0  0
  139.1250   76.6130  221.4730 C   0  0  0  0  0  0  0  0  0  0  0  0
  138.2280   76.4694  220.8527 H   0  0  0  0  0  0  0  0  0  0  0  0
  140.4280   76.1220  221.0000 C   0  0  0  0  0  0  0  0  0  0  0  0
  140.7640   74.8360  221.2990 N   0  0  0  0  0  0  0  0  0  0  0  0
  141.9380   74.2970  220.9000 C   0  0  0  0  0  0  0  0  0  0  0  0
  142.2410   72.9630  221.2170 C   0  0  0  0  0  0  0  0  0  0  0  0
  141.5254   72.3577  221.7928 H   0  0  0  0  0  0  0  0  0  0  0  0
  143.4530   72.4050  220.8000 C   0  0  0  0  0  0  0  0  0  0  0  0
  143.6911   71.3601  221.0480 H   0  0  0  0  0  0  0  0  0  0  0  0
  144.3640   73.1750  220.0670 C   0  0  0  0  0  0  0  0  0  0  0  0
  145.3170   72.7323  219.7416 H   0  0  0  0  0  0  0  0  0  0  0  0
  144.0680   74.5090  219.7450 C   0  0  0  0  0  0  0  0  0  0  0  0
  144.7875   75.1087  219.1682 H   0  0  0  0  0  0  0  0  0  0  0  0
  142.8490   75.0790  220.1610 C   0  0  0  0  0  0  0  0  0  0  0  0
  142.5030   76.4140  219.8720 C   0  0  0  0  0  0  0  0  0  0  0  0
  143.3180   77.1400  219.2310 O   0  0  0  0  0  0  0  0  0  0  0  0
  141.2960   76.9260  220.2910 N   0  0  0  0  0  0  0  0  0  0  0  0
  140.9530   78.3440  220.0290 C   0  0  0  0  0  0  0  0  0  0  0  0
  141.4005   78.6511  219.0722 H   0  0  0  0  0  0  0  0  0  0  0  0
  139.8576   78.4374  219.9909 H   0  0  0  0  0  0  0  0  0  0  0  0
  141.4740   79.2420  221.1290 C   0  0  0  0  0  0  0  0  0  0  0  0
  142.1190   78.6870  222.2530 C   0  0  0  0  0  0  0  0  0  0  0  0
  142.2589   77.5982  222.3234 H   0  0  0  0  0  0  0  0  0  0  0  0
  142.5810   79.5170  223.2780 C   0  0  0  0  0  0  0  0  0  0  0  0
  143.0772   79.0802  224.1572 H   0  0  0  0  0  0  0  0  0  0  0  0
  142.4130   80.9030  223.1870 C   0  0  0  0  0  0  0  0  0  0  0  0
  142.7755   81.5537  223.9964 H   0  0  0  0  0  0  0  0  0  0  0  0
  141.7850   81.4640  222.0690 C   0  0  0  0  0  0  0  0  0  0  0  0
  141.5710   82.8000  222.0090 F   0  0  0  0  0  0  0  0  0  0  0  0
  141.3130   80.6380  221.0460 C   0  0  0  0  0  0  0  0  0  0  0  0
  140.8133   81.0805  220.1717 H   0  0  0  0  0  0  0  0  0  0  0  0
  138.7110   78.6680  222.7830 C   0  0  0  0  0  0  0  0  0  0  0  0
  137.8760   79.3350  221.8610 C   0  0  0  0  0  0  0  0  0  0  0  0
  137.4827   78.7962  220.9863 H   0  0  0  0  0  0  0  0  0  0  0  0
  137.5570   80.6440  222.0530 N   0  0  0  0  0  0  0  0  0  0  0  0
  138.0420   81.3510  223.1070 C   0  0  0  0  0  0  0  0  0  0  0  0
  137.7612   82.4068  223.2352 H   0  0  0  0  0  0  0  0  0  0  0  0
  138.8970   80.7400  224.0290 C   0  0  0  0  0  0  0  0  0  0  0  0
  139.3177   81.3191  224.8642 H   0  0  0  0  0  0  0  0  0  0  0  0
  139.2120   79.3880  223.8800 C   0  0  0  0  0  0  0  0  0  0  0  0
  139.8521   78.8871  224.6212 H   0  0  0  0  0  0  0  0  0  0  0  0
  1  2  1  0
  2  3  2  0
  3  4  1  0
  3  5  1  0
  5  6  2  0
  6  7  1  0
  7  8  2  0
  8  9  1  0
  8 10  1  0
 10 11  1  0
 10 12  2  0
 12 13  1  0
 12 14  1  0
 14 15  1  0
 14 16  2  0
 16 17  1  0
 17 18  2  0
 17 19  1  0
 19 20  1  0
 20 21  1  0
 20 22  1  0
 20 23  1  0
 23 24  2  0
 24 25  1  0
 24 26  1  0
 26 27  1  0
 26 28  2  0
 28 29  1  0
 28 30  1  0
 30 31  1  0
 30 32  2  0
 32 33  1  0
  2 34  1  0
 34 35  2  0
 35 36  1  0
 35 37  1  0
 37 38  2  0
 38 39  1  0
 38 40  1  0
 40 41  1  0
 40 42  2  0
 42 43  1  0
 19  5  1  0
 32 23  1  0
 42 34  1  0
 16  7  1  0
M  END
>  <UniqueID>  (20) 
272

>  <SMILES>  (20) 
O=c1c2ccccc2nc(/C=C/c2cccnc2)n1Cc1cccc(F)c1

>  <Energy>  (20) 
64.14431952501938

>  <Genealogy>  (20) 
O=c1c2ccccc2nc(/C=C/c2cccnc2)n1Cc1cccc(F)c1 (cis-trans isomerization)
O=c1c2ccccc2nc(/C=C/c2cccnc2)n1Cc1cccc(F)c1 (3D coordinates assigned)
O=c1c2ccccc2nc(/C=C/c2cccnc2)n1Cc1cccc(F)c1 (optimized conformer: 64.14431952501938 kcal/mol)

>  <smiles>  (20) 
O=c1c2ccccc2nc(/C=C/c2cccnc2)n1Cc1cccc(F)c1

>  <score_type>  (20) 
oracle

>  <origin>  (20) 
autodockgpu

>  <m_score__min__energy>  (20) 
-7.3499999999999996

>  <m_primary>  (20) 
energy

>  <meeko>  (20) 
{"free_energy": -6.24, "intermolecular_energy": -7.73, "internal_energy": -1.92, "cluster_size": 4, "cluster_id": 7, "rank_in_cluster": 2}

>  <energy>  (20) 
-5.96

>  <cluster_rmsd>  (20) 
0.0

>  <rmsd>  (20) 
269.38

>  <cluster>  (20) 
8

$$$$
