QWCMPUPUGDWNGO-UHFFFAOYNA-N
     RDKit          3D

 70 76  0  0  0  0  0  0  0  0999 V2000
  141.8160   81.8440  223.2470 C   0  0  0  0  0  0  0  0  0  0  0  0
  142.4530   80.7020  223.7360 C   0  0  0  0  0  0  0  0  0  0  0  0
  142.1290   79.4470  223.2190 C   0  0  0  0  0  0  0  0  0  0  0  0
  141.1700   79.3470  222.1960 C   0  0  0  0  0  0  0  0  0  0  0  0
  140.8010   78.0700  221.6360 N   0  0  0  0  0  0  0  0  0  0  0  0
  141.3230   77.6170  220.3410 C   0  0  0  0  0  0  0  0  0  0  0  0
  141.8230   76.1780  220.4710 C   0  0  0  0  0  0  0  0  0  0  0  0
  140.8380   75.3240  221.1540 N   0  0  0  0  0  0  0  0  0  0  0  0
  141.1060   73.9120  221.2820 C   0  0  0  0  0  0  0  0  0  0  0  0
  140.6300   73.2240  222.3540 N   0  0  0  0  0  0  0  0  0  0  0  0
  140.8540   71.8890  222.4790 C   0  0  0  0  0  0  0  0  0  0  0  0
  140.3480   71.1610  223.6190 N   0  0  0  0  0  0  0  0  0  0  0  0
  139.1090   70.3750  223.5100 C   0  0  0  0  0  0  0  0  0  0  0  0
  139.2250   69.0930  224.3230 C   0  0  0  0  0  0  0  0  0  0  0  0
  139.6090   69.4030  225.7410 C   0  0  0  0  0  0  0  0  0  0  0  0
  139.1990   68.5490  226.7790 C   0  0  0  0  0  0  0  0  0  0  0  0
  139.5870   68.8070  228.0960 C   0  0  0  0  0  0  0  0  0  0  0  0
  140.3990   69.9040  228.3850 C   0  0  0  0  0  0  0  0  0  0  0  0
  140.8270   70.7470  227.3570 C   0  0  0  0  0  0  0  0  0  0  0  0
  140.4370   70.5070  226.0310 C   0  0  0  0  0  0  0  0  0  0  0  0
  140.9310   71.4360  224.9450 C   0  0  0  0  0  0  0  0  0  0  0  0
  141.5620   71.2450  221.5150 N   0  0  0  0  0  0  0  0  0  0  0  0
  142.0530   71.9180  220.4420 C   0  0  0  0  0  0  0  0  0  0  0  0
  142.8130   71.2220  219.4310 N   0  0  0  0  0  0  0  0  0  0  0  0
  143.9160   71.8720  218.7150 C   0  0  0  0  0  0  0  0  0  0  0  0
  145.2230   71.1540  219.0500 C   0  0  0  0  0  0  0  0  0  0  0  0
  145.0850   69.6490  218.9700 C   0  0  0  0  0  0  0  0  0  0  0  0
  146.2450   68.8600  218.9130 C   0  0  0  0  0  0  0  0  0  0  0  0
  146.1540   67.4650  218.8980 C   0  0  0  0  0  0  0  0  0  0  0  0
  144.9040   66.8450  218.9440 C   0  0  0  0  0  0  0  0  0  0  0  0
  143.7410   67.6150  219.0170 C   0  0  0  0  0  0  0  0  0  0  0  0
  143.8180   69.0170  219.0500 C   0  0  0  0  0  0  0  0  0  0  0  0
  142.5400   69.8200  219.0950 C   0  0  0  0  0  0  0  0  0  0  0  0
  141.8210   73.2520  220.3340 N   0  0  0  0  0  0  0  0  0  0  0  0
  139.5690   75.9030  221.6270 C   0  0  0  0  0  0  0  0  0  0  0  0
  139.8240   77.2340  222.3510 C   0  0  0  0  0  0  0  0  0  0  0  0
  140.5500   80.4790  221.7550 N   0  0  0  0  0  0  0  0  0  0  0  0
  140.8530   81.7100  222.2470 C   0  0  0  0  0  0  0  0  0  0  0  0
  142.0704   82.8372  223.6455 H   0  0  0  0  0  0  0  0  0  0  0  0
  143.2103   80.7915  224.5288 H   0  0  0  0  0  0  0  0  0  0  0  0
  142.6201   78.5432  223.6088 H   0  0  0  0  0  0  0  0  0  0  0  0
  140.5232   77.6610  219.5871 H   0  0  0  0  0  0  0  0  0  0  0  0
  142.1536   78.2683  220.0312 H   0  0  0  0  0  0  0  0  0  0  0  0
  142.0112   75.7729  219.4658 H   0  0  0  0  0  0  0  0  0  0  0  0
  142.7461   76.1862  221.0692 H   0  0  0  0  0  0  0  0  0  0  0  0
  138.2662   70.9710  223.8901 H   0  0  0  0  0  0  0  0  0  0  0  0
  138.9406   70.1159  222.4543 H   0  0  0  0  0  0  0  0  0  0  0  0
  138.2568   68.5709  224.3159 H   0  0  0  0  0  0  0  0  0  0  0  0
  140.0021   68.4564  223.8748 H   0  0  0  0  0  0  0  0  0  0  0  0
  138.5706   67.6747  226.5538 H   0  0  0  0  0  0  0  0  0  0  0  0
  139.2515   68.1437  228.9069 H   0  0  0  0  0  0  0  0  0  0  0  0
  140.7023   70.1051  229.4230 H   0  0  0  0  0  0  0  0  0  0  0  0
  141.4746   71.6054  227.5888 H   0  0  0  0  0  0  0  0  0  0  0  0
  140.6770   72.4680  225.2288 H   0  0  0  0  0  0  0  0  0  0  0  0
  142.0163   71.2797  224.8576 H   0  0  0  0  0  0  0  0  0  0  0  0
  143.7338   71.8185  217.6315 H   0  0  0  0  0  0  0  0  0  0  0  0
  143.9845   72.9268  219.0196 H   0  0  0  0  0  0  0  0  0  0  0  0
  145.9972   71.4771  218.3385 H   0  0  0  0  0  0  0  0  0  0  0  0
  145.4958   71.4137  220.0835 H   0  0  0  0  0  0  0  0  0  0  0  0
  147.2327   69.3430  218.8799 H   0  0  0  0  0  0  0  0  0  0  0  0
  147.0683   66.8553  218.8499 H   0  0  0  0  0  0  0  0  0  0  0  0
  144.8349   65.7474  218.9227 H   0  0  0  0  0  0  0  0  0  0  0  0
  142.7590   67.1205  219.0488 H   0  0  0  0  0  0  0  0  0  0  0  0
  142.0513   69.7743  218.1106 H   0  0  0  0  0  0  0  0  0  0  0  0
  141.8851   69.3945  219.8697 H   0  0  0  0  0  0  0  0  0  0  0  0
  138.9081   76.0798  220.7657 H   0  0  0  0  0  0  0  0  0  0  0  0
  139.0960   75.2002  222.3287 H   0  0  0  0  0  0  0  0  0  0  0  0
  138.8746   77.7841  222.4284 H   0  0  0  0  0  0  0  0  0  0  0  0
  140.2337   77.0072  223.3463 H   0  0  0  0  0  0  0  0  0  0  0  0
  140.3385   82.6003  221.8562 H   0  0  0  0  0  0  0  0  0  0  0  0
  1  2  2  0
  2  3  1  0
  3  4  2  0
  4  5  1  0
  5  6  1  0
  6  7  1  0
  7  8  1  0
  8  9  1  0
  9 10  2  0
 10 11  1  0
 11 12  1  0
 12 13  1  0
 13 14  1  0
 14 15  1  0
 15 16  2  0
 16 17  1  0
 17 18  2  0
 18 19  1  0
 19 20  2  0
 20 21  1  0
 11 22  2  0
 22 23  1  0
 23 24  1  0
 24 25  1  0
 25 26  1  0
 26 27  1  0
 27 28  2  0
 28 29  1  0
 29 30  2  0
 30 31  1  0
 31 32  2  0
 32 33  1  0
 23 34  2  0
  8 35  1  0
 35 36  1  0
  4 37  1  0
 37 38  2  0
 38  1  1  0
 36  5  1  0
 34  9  1  0
 21 12  1  0
 33 24  1  0
 20 15  1  0
 32 27  1  0
  1 39  1  0
  2 40  1  0
  3 41  1  0
  6 42  1  0
  6 43  1  0
  7 44  1  0
  7 45  1  0
 13 46  1  0
 13 47  1  0
 14 48  1  0
 14 49  1  0
 16 50  1  0
 17 51  1  0
 18 52  1  0
 19 53  1  0
 21 54  1  0
 21 55  1  0
 25 56  1  0
 25 57  1  0
 26 58  1  0
 26 59  1  0
 28 60  1  0
 29 61  1  0
 30 62  1  0
 31 63  1  0
 33 64  1  0
 33 65  1  0
 35 66  1  0
 35 67  1  0
 36 68  1  0
 36 69  1  0
 38 70  1  0
M  END
>  <UniqueID>  (1) 
47

>  <SMILES>  (1) 
c1ccc(N2CCN(c3nc(N4CCc5ccccc5C4)nc(N4CCc5ccccc5C4)n3)CC2)nc1

>  <Energy>  (1) 
86.52349933335694

>  <Genealogy>  (1) 
c1ccc(N2CCN(c3nc(N4CCc5ccccc5C4)nc(N4CCc5ccccc5C4)n3)CC2)nc1 (3D coordinates assigned)
c1ccc(N2CCN(c3nc(N4CCc5ccccc5C4)nc(N4CCc5ccccc5C4)n3)CC2)nc1 (nonaromatic ring conformer: 86.52349933335694 kcal/mol)

>  <smiles>  (1) 
c1ccc(N2CCN(c3nc(N4CCc5ccccc5C4)nc(N4CCc5ccccc5C4)n3)CC2)nc1

>  <score_type>  (1) 
oracle

>  <origin>  (1) 
autodockgpu

>  <m_score__min__energy>  (1) 
-10.69

>  <m_primary>  (1) 
energy

>  <meeko>  (1) 
{"free_energy": -10.69, "intermolecular_energy": -11.88, "internal_energy": -1.05, "cluster_size": 20, "cluster_id": 1, "rank_in_cluster": 2}

>  <energy>  (1) 
-10.69

>  <cluster_rmsd>  (1) 
0.0

>  <rmsd>  (1) 
269.49

>  <cluster>  (1) 
1

$$$$
QWCMPUPUGDWNGO-UHFFFAOYNA-N
     RDKit          3D

 70 76  0  0  0  0  0  0  0  0999 V2000
  141.8610   81.7670  223.2820 C   0  0  0  0  0  0  0  0  0  0  0  0
  142.6190   80.6450  223.6230 C   0  0  0  0  0  0  0  0  0  0  0  0
  142.2950   79.3960  223.0920 C   0  0  0  0  0  0  0  0  0  0  0  0
  141.2110   79.2830  222.2040 C   0  0  0  0  0  0  0  0  0  0  0  0
  140.8370   78.0110  221.6350 N   0  0  0  0  0  0  0  0  0  0  0  0
  141.3650   77.5620  220.3400 C   0  0  0  0  0  0  0  0  0  0  0  0
  141.8550   76.1180  220.4660 C   0  0  0  0  0  0  0  0  0  0  0  0
  140.8600   75.2670  221.1390 N   0  0  0  0  0  0  0  0  0  0  0  0
  141.1180   73.8530  221.2620 C   0  0  0  0  0  0  0  0  0  0  0  0
  140.6430   73.1660  222.3330 N   0  0  0  0  0  0  0  0  0  0  0  0
  140.8570   71.8290  222.4540 C   0  0  0  0  0  0  0  0  0  0  0  0
  140.3510   71.1010  223.5940 N   0  0  0  0  0  0  0  0  0  0  0  0
  139.1070   70.3240  223.4890 C   0  0  0  0  0  0  0  0  0  0  0  0
  139.2180   69.0380  224.2980 C   0  0  0  0  0  0  0  0  0  0  0  0
  139.6100   69.3410  225.7150 C   0  0  0  0  0  0  0  0  0  0  0  0
  139.1990   68.4880  226.7520 C   0  0  0  0  0  0  0  0  0  0  0  0
  139.5950   68.7390  228.0680 C   0  0  0  0  0  0  0  0  0  0  0  0
  140.4160   69.8290  228.3560 C   0  0  0  0  0  0  0  0  0  0  0  0
  140.8460   70.6730  227.3290 C   0  0  0  0  0  0  0  0  0  0  0  0
  140.4470   70.4390  226.0030 C   0  0  0  0  0  0  0  0  0  0  0  0
  140.9430   71.3680  224.9180 C   0  0  0  0  0  0  0  0  0  0  0  0
  141.5560   71.1820  221.4850 N   0  0  0  0  0  0  0  0  0  0  0  0
  142.0460   71.8550  220.4110 C   0  0  0  0  0  0  0  0  0  0  0  0
  142.7970   71.1570  219.3940 N   0  0  0  0  0  0  0  0  0  0  0  0
  143.8740   71.8130  218.6460 C   0  0  0  0  0  0  0  0  0  0  0  0
  145.1990   71.1200  218.9640 C   0  0  0  0  0  0  0  0  0  0  0  0
  145.0830   69.6120  218.9080 C   0  0  0  0  0  0  0  0  0  0  0  0
  146.2540   68.8410  218.8380 C   0  0  0  0  0  0  0  0  0  0  0  0
  146.1850   67.4440  218.8440 C   0  0  0  0  0  0  0  0  0  0  0  0
  144.9460   66.8060  218.9250 C   0  0  0  0  0  0  0  0  0  0  0  0
  143.7720   67.5590  219.0120 C   0  0  0  0  0  0  0  0  0  0  0  0
  143.8280   68.9610  219.0230 C   0  0  0  0  0  0  0  0  0  0  0  0
  142.5390   69.7450  219.0830 C   0  0  0  0  0  0  0  0  0  0  0  0
  141.8230   73.1900  220.3080 N   0  0  0  0  0  0  0  0  0  0  0  0
  139.5910   75.8520  221.6070 C   0  0  0  0  0  0  0  0  0  0  0  0
  139.8510   77.1780  222.3390 C   0  0  0  0  0  0  0  0  0  0  0  0
  140.4780   80.3940  221.9070 N   0  0  0  0  0  0  0  0  0  0  0  0
  140.7800   81.6190  222.4140 C   0  0  0  0  0  0  0  0  0  0  0  0
  142.1136   82.7555  223.6931 H   0  0  0  0  0  0  0  0  0  0  0  0
  143.4718   80.7458  224.3104 H   0  0  0  0  0  0  0  0  0  0  0  0
  142.8827   78.5074  223.3658 H   0  0  0  0  0  0  0  0  0  0  0  0
  140.5706   77.6154  219.5810 H   0  0  0  0  0  0  0  0  0  0  0  0
  142.2016   78.2097  220.0389 H   0  0  0  0  0  0  0  0  0  0  0  0
  142.0466   75.7166  219.4599 H   0  0  0  0  0  0  0  0  0  0  0  0
  142.7745   76.1172  221.0698 H   0  0  0  0  0  0  0  0  0  0  0  0
  138.2702   70.9246  223.8750 H   0  0  0  0  0  0  0  0  0  0  0  0
  138.9319   70.0691  222.4334 H   0  0  0  0  0  0  0  0  0  0  0  0
  138.2463   68.5224  224.2935 H   0  0  0  0  0  0  0  0  0  0  0  0
  139.9890   68.3977  223.8446 H   0  0  0  0  0  0  0  0  0  0  0  0
  138.5630   67.6191  226.5273 H   0  0  0  0  0  0  0  0  0  0  0  0
  139.2587   68.0757  228.8785 H   0  0  0  0  0  0  0  0  0  0  0  0
  140.7255   70.0245  229.3933 H   0  0  0  0  0  0  0  0  0  0  0  0
  141.5010   71.5259  227.5604 H   0  0  0  0  0  0  0  0  0  0  0  0
  140.6981   72.4009  225.2062 H   0  0  0  0  0  0  0  0  0  0  0  0
  142.0268   71.2046  224.8249 H   0  0  0  0  0  0  0  0  0  0  0  0
  143.6702   71.7407  217.5675 H   0  0  0  0  0  0  0  0  0  0  0  0
  143.9322   72.8731  218.9337 H   0  0  0  0  0  0  0  0  0  0  0  0
  145.9533   71.4447  218.2321 H   0  0  0  0  0  0  0  0  0  0  0  0
  145.4888   71.3987  219.9879 H   0  0  0  0  0  0  0  0  0  0  0  0
  147.2329   69.3391  218.7780 H   0  0  0  0  0  0  0  0  0  0  0  0
  147.1075   66.8478  218.7848 H   0  0  0  0  0  0  0  0  0  0  0  0
  144.8936   65.7073  218.9203 H   0  0  0  0  0  0  0  0  0  0  0  0
  142.7988   67.0499  219.0722 H   0  0  0  0  0  0  0  0  0  0  0  0
  142.0312   69.6778  218.1095 H   0  0  0  0  0  0  0  0  0  0  0  0
  141.9068   69.3207  219.8769 H   0  0  0  0  0  0  0  0  0  0  0  0
  138.9366   76.0373  220.7425 H   0  0  0  0  0  0  0  0  0  0  0  0
  139.1085   75.1490  222.3020 H   0  0  0  0  0  0  0  0  0  0  0  0
  138.9048   77.7340  222.4136 H   0  0  0  0  0  0  0  0  0  0  0  0
  140.2538   76.9431  223.3353 H   0  0  0  0  0  0  0  0  0  0  0  0
  140.1715   82.4932  222.1393 H   0  0  0  0  0  0  0  0  0  0  0  0
  1  2  2  0
  2  3  1  0
  3  4  2  0
  4  5  1  0
  5  6  1  0
  6  7  1  0
  7  8  1  0
  8  9  1  0
  9 10  2  0
 10 11  1  0
 11 12  1  0
 12 13  1  0
 13 14  1  0
 14 15  1  0
 15 16  2  0
 16 17  1  0
 17 18  2  0
 18 19  1  0
 19 20  2  0
 20 21  1  0
 11 22  2  0
 22 23  1  0
 23 24  1  0
 24 25  1  0
 25 26  1  0
 26 27  1  0
 27 28  2  0
 28 29  1  0
 29 30  2  0
 30 31  1  0
 31 32  2  0
 32 33  1  0
 23 34  2  0
  8 35  1  0
 35 36  1  0
  4 37  1  0
 37 38  2  0
 38  1  1  0
 36  5  1  0
 34  9  1  0
 21 12  1  0
 33 24  1  0
 20 15  1  0
 32 27  1  0
  1 39  1  0
  2 40  1  0
  3 41  1  0
  6 42  1  0
  6 43  1  0
  7 44  1  0
  7 45  1  0
 13 46  1  0
 13 47  1  0
 14 48  1  0
 14 49  1  0
 16 50  1  0
 17 51  1  0
 18 52  1  0
 19 53  1  0
 21 54  1  0
 21 55  1  0
 25 56  1  0
 25 57  1  0
 26 58  1  0
 26 59  1  0
 28 60  1  0
 29 61  1  0
 30 62  1  0
 31 63  1  0
 33 64  1  0
 33 65  1  0
 35 66  1  0
 35 67  1  0
 36 68  1  0
 36 69  1  0
 38 70  1  0
M  END
>  <UniqueID>  (2) 
47

>  <SMILES>  (2) 
c1ccc(N2CCN(c3nc(N4CCc5ccccc5C4)nc(N4CCc5ccccc5C4)n3)CC2)nc1

>  <Energy>  (2) 
86.52349933335694

>  <Genealogy>  (2) 
c1ccc(N2CCN(c3nc(N4CCc5ccccc5C4)nc(N4CCc5ccccc5C4)n3)CC2)nc1 (3D coordinates assigned)
c1ccc(N2CCN(c3nc(N4CCc5ccccc5C4)nc(N4CCc5ccccc5C4)n3)CC2)nc1 (nonaromatic ring conformer: 86.52349933335694 kcal/mol)

>  <smiles>  (2) 
c1ccc(N2CCN(c3nc(N4CCc5ccccc5C4)nc(N4CCc5ccccc5C4)n3)CC2)nc1

>  <score_type>  (2) 
oracle

>  <origin>  (2) 
autodockgpu

>  <m_score__min__energy>  (2) 
-10.69

>  <m_primary>  (2) 
energy

>  <meeko>  (2) 
{"free_energy": -10.69, "intermolecular_energy": -11.88, "internal_energy": -1.04, "cluster_size": 20, "cluster_id": 1, "rank_in_cluster": 3}

>  <energy>  (2) 
-10.69

>  <cluster_rmsd>  (2) 
0.06

>  <rmsd>  (2) 
269.48

>  <cluster>  (2) 
1

$$$$
QWCMPUPUGDWNGO-UHFFFAOYNA-N
     RDKit          3D

 70 76  0  0  0  0  0  0  0  0999 V2000
  141.8560   81.8160  223.3200 C   0  0  0  0  0  0  0  0  0  0  0  0
  142.4610   80.6640  223.8250 C   0  0  0  0  0  0  0  0  0  0  0  0
  142.1410   79.4160  223.2900 C   0  0  0  0  0  0  0  0  0  0  0  0
  141.2160   79.3330  222.2340 C   0  0  0  0  0  0  0  0  0  0  0  0
  140.8520   78.0640  221.6540 N   0  0  0  0  0  0  0  0  0  0  0  0
  141.4030   77.6170  220.3680 C   0  0  0  0  0  0  0  0  0  0  0  0
  141.8880   76.1730  220.4990 C   0  0  0  0  0  0  0  0  0  0  0  0
  140.8800   75.3210  221.1500 N   0  0  0  0  0  0  0  0  0  0  0  0
  141.1330   73.9060  221.2730 C   0  0  0  0  0  0  0  0  0  0  0  0
  140.6560   73.2210  222.3450 N   0  0  0  0  0  0  0  0  0  0  0  0
  140.8660   71.8830  222.4660 C   0  0  0  0  0  0  0  0  0  0  0  0
  140.3580   71.1570  223.6060 N   0  0  0  0  0  0  0  0  0  0  0  0
  139.1450   70.3350  223.4850 C   0  0  0  0  0  0  0  0  0  0  0  0
  139.2800   69.0680  224.3190 C   0  0  0  0  0  0  0  0  0  0  0  0
  139.6270   69.4090  225.7390 C   0  0  0  0  0  0  0  0  0  0  0  0
  139.2210   68.5590  226.7810 C   0  0  0  0  0  0  0  0  0  0  0  0
  139.5750   68.8460  228.1020 C   0  0  0  0  0  0  0  0  0  0  0  0
  140.3500   69.9690  228.3900 C   0  0  0  0  0  0  0  0  0  0  0  0
  140.7750   70.8100  227.3590 C   0  0  0  0  0  0  0  0  0  0  0  0
  140.4180   70.5400  226.0280 C   0  0  0  0  0  0  0  0  0  0  0  0
  140.9070   71.4670  224.9390 C   0  0  0  0  0  0  0  0  0  0  0  0
  141.5630   71.2340  221.4970 N   0  0  0  0  0  0  0  0  0  0  0  0
  142.0550   71.9050  220.4230 C   0  0  0  0  0  0  0  0  0  0  0  0
  142.8030   71.2040  219.4060 N   0  0  0  0  0  0  0  0  0  0  0  0
  143.8760   71.8590  218.6510 C   0  0  0  0  0  0  0  0  0  0  0  0
  145.2040   71.1720  218.9660 C   0  0  0  0  0  0  0  0  0  0  0  0
  145.0910   69.6630  218.9170 C   0  0  0  0  0  0  0  0  0  0  0  0
  146.2640   68.8940  218.8460 C   0  0  0  0  0  0  0  0  0  0  0  0
  146.1980   67.4980  218.8590 C   0  0  0  0  0  0  0  0  0  0  0  0
  144.9610   66.8560  218.9480 C   0  0  0  0  0  0  0  0  0  0  0  0
  143.7860   67.6070  219.0360 C   0  0  0  0  0  0  0  0  0  0  0  0
  143.8390   69.0100  219.0410 C   0  0  0  0  0  0  0  0  0  0  0  0
  142.5480   69.7900  219.1020 C   0  0  0  0  0  0  0  0  0  0  0  0
  141.8370   73.2410  220.3200 N   0  0  0  0  0  0  0  0  0  0  0  0
  139.6030   75.9060  221.5960 C   0  0  0  0  0  0  0  0  0  0  0  0
  139.8510   77.2300  222.3370 C   0  0  0  0  0  0  0  0  0  0  0  0
  140.6260   80.4750  221.7780 N   0  0  0  0  0  0  0  0  0  0  0  0
  140.9270   81.7000  222.2860 C   0  0  0  0  0  0  0  0  0  0  0  0
  142.1089   82.8038  223.7326 H   0  0  0  0  0  0  0  0  0  0  0  0
  143.1903   80.7402  224.6450 H   0  0  0  0  0  0  0  0  0  0  0  0
  142.6083   78.5044  223.6908 H   0  0  0  0  0  0  0  0  0  0  0  0
  140.6228   77.6736  219.5947 H   0  0  0  0  0  0  0  0  0  0  0  0
  142.2461   78.2640  220.0842 H   0  0  0  0  0  0  0  0  0  0  0  0
  142.0983   75.7744  219.4955 H   0  0  0  0  0  0  0  0  0  0  0  0
  142.7955   76.1694  221.1206 H   0  0  0  0  0  0  0  0  0  0  0  0
  138.2785   70.9124  223.8397 H   0  0  0  0  0  0  0  0  0  0  0  0
  139.0055   70.0560  222.4302 H   0  0  0  0  0  0  0  0  0  0  0  0
  138.3269   68.5192  224.3009 H   0  0  0  0  0  0  0  0  0  0  0  0
  140.0829   68.4467  223.8955 H   0  0  0  0  0  0  0  0  0  0  0  0
  138.6221   67.6641  226.5563 H   0  0  0  0  0  0  0  0  0  0  0  0
  139.2419   68.1852  228.9158 H   0  0  0  0  0  0  0  0  0  0  0  0
  140.6271   70.1928  229.4307 H   0  0  0  0  0  0  0  0  0  0  0  0
  141.3934   71.6896  227.5912 H   0  0  0  0  0  0  0  0  0  0  0  0
  140.6187   72.4952  225.2028 H   0  0  0  0  0  0  0  0  0  0  0  0
  141.9978   71.3404  224.8748 H   0  0  0  0  0  0  0  0  0  0  0  0
  143.6681   71.7813  217.5736 H   0  0  0  0  0  0  0  0  0  0  0  0
  143.9327   72.9203  218.9346 H   0  0  0  0  0  0  0  0  0  0  0  0
  145.9541   71.4955  218.2293 H   0  0  0  0  0  0  0  0  0  0  0  0
  145.4984   71.4564  219.9870 H   0  0  0  0  0  0  0  0  0  0  0  0
  147.2416   69.3939  218.7797 H   0  0  0  0  0  0  0  0  0  0  0  0
  147.1219   66.9040  218.7990 H   0  0  0  0  0  0  0  0  0  0  0  0
  144.9116   65.7571  218.9488 H   0  0  0  0  0  0  0  0  0  0  0  0
  142.8140   67.0962  219.1017 H   0  0  0  0  0  0  0  0  0  0  0  0
  142.0371   69.7171  218.1306 H   0  0  0  0  0  0  0  0  0  0  0  0
  141.9197   69.3671  219.8997 H   0  0  0  0  0  0  0  0  0  0  0  0
  138.9650   76.0947  220.7200 H   0  0  0  0  0  0  0  0  0  0  0  0
  139.1068   75.2015  222.2797 H   0  0  0  0  0  0  0  0  0  0  0  0
  138.9044   77.7872  222.3952 H   0  0  0  0  0  0  0  0  0  0  0  0
  140.2344   76.9916  223.3401 H   0  0  0  0  0  0  0  0  0  0  0  0
  140.4382   82.5987  221.8818 H   0  0  0  0  0  0  0  0  0  0  0  0
  1  2  2  0
  2  3  1  0
  3  4  2  0
  4  5  1  0
  5  6  1  0
  6  7  1  0
  7  8  1  0
  8  9  1  0
  9 10  2  0
 10 11  1  0
 11 12  1  0
 12 13  1  0
 13 14  1  0
 14 15  1  0
 15 16  2  0
 16 17  1  0
 17 18  2  0
 18 19  1  0
 19 20  2  0
 20 21  1  0
 11 22  2  0
 22 23  1  0
 23 24  1  0
 24 25  1  0
 25 26  1  0
 26 27  1  0
 27 28  2  0
 28 29  1  0
 29 30  2  0
 30 31  1  0
 31 32  2  0
 32 33  1  0
 23 34  2  0
  8 35  1  0
 35 36  1  0
  4 37  1  0
 37 38  2  0
 38  1  1  0
 36  5  1  0
 34  9  1  0
 21 12  1  0
 33 24  1  0
 20 15  1  0
 32 27  1  0
  1 39  1  0
  2 40  1  0
  3 41  1  0
  6 42  1  0
  6 43  1  0
  7 44  1  0
  7 45  1  0
 13 46  1  0
 13 47  1  0
 14 48  1  0
 14 49  1  0
 16 50  1  0
 17 51  1  0
 18 52  1  0
 19 53  1  0
 21 54  1  0
 21 55  1  0
 25 56  1  0
 25 57  1  0
 26 58  1  0
 26 59  1  0
 28 60  1  0
 29 61  1  0
 30 62  1  0
 31 63  1  0
 33 64  1  0
 33 65  1  0
 35 66  1  0
 35 67  1  0
 36 68  1  0
 36 69  1  0
 38 70  1  0
M  END
>  <UniqueID>  (3) 
47

>  <SMILES>  (3) 
c1ccc(N2CCN(c3nc(N4CCc5ccccc5C4)nc(N4CCc5ccccc5C4)n3)CC2)nc1

>  <Energy>  (3) 
86.52349933335694

>  <Genealogy>  (3) 
c1ccc(N2CCN(c3nc(N4CCc5ccccc5C4)nc(N4CCc5ccccc5C4)n3)CC2)nc1 (3D coordinates assigned)
c1ccc(N2CCN(c3nc(N4CCc5ccccc5C4)nc(N4CCc5ccccc5C4)n3)CC2)nc1 (nonaromatic ring conformer: 86.52349933335694 kcal/mol)

>  <smiles>  (3) 
c1ccc(N2CCN(c3nc(N4CCc5ccccc5C4)nc(N4CCc5ccccc5C4)n3)CC2)nc1

>  <score_type>  (3) 
oracle

>  <origin>  (3) 
autodockgpu

>  <m_score__min__energy>  (3) 
-10.69

>  <m_primary>  (3) 
energy

>  <meeko>  (3) 
{"free_energy": -10.67, "intermolecular_energy": -11.87, "internal_energy": -1.05, "cluster_size": 20, "cluster_id": 1, "rank_in_cluster": 6}

>  <energy>  (3) 
-10.69

>  <cluster_rmsd>  (3) 
0.11

>  <rmsd>  (3) 
269.45

>  <cluster>  (3) 
1

$$$$
QWCMPUPUGDWNGO-UHFFFAOYNA-N
     RDKit          3D

 70 76  0  0  0  0  0  0  0  0999 V2000
  141.8900   81.7480  223.3340 C   0  0  0  0  0  0  0  0  0  0  0  0
  142.5360   80.5960  223.7860 C   0  0  0  0  0  0  0  0  0  0  0  0
  142.2010   79.3520  223.2490 C   0  0  0  0  0  0  0  0  0  0  0  0
  141.2210   79.2750  222.2430 C   0  0  0  0  0  0  0  0  0  0  0  0
  140.8400   78.0100  221.6630 N   0  0  0  0  0  0  0  0  0  0  0  0
  141.3720   77.5650  220.3690 C   0  0  0  0  0  0  0  0  0  0  0  0
  141.8490   76.1160  220.4880 C   0  0  0  0  0  0  0  0  0  0  0  0
  140.8420   75.2690  221.1490 N   0  0  0  0  0  0  0  0  0  0  0  0
  141.0870   73.8520  221.2640 C   0  0  0  0  0  0  0  0  0  0  0  0
  140.6250   73.1670  222.3430 N   0  0  0  0  0  0  0  0  0  0  0  0
  140.8270   71.8280  222.4560 C   0  0  0  0  0  0  0  0  0  0  0  0
  140.3340   71.1030  223.6040 N   0  0  0  0  0  0  0  0  0  0  0  0
  139.0740   70.3490  223.5240 C   0  0  0  0  0  0  0  0  0  0  0  0
  139.1800   69.0570  224.3230 C   0  0  0  0  0  0  0  0  0  0  0  0
  139.6110   69.3450  225.7320 C   0  0  0  0  0  0  0  0  0  0  0  0
  139.2090   68.4940  226.7740 C   0  0  0  0  0  0  0  0  0  0  0  0
  139.6400   68.7300  228.0820 C   0  0  0  0  0  0  0  0  0  0  0  0
  140.4870   69.8030  228.3570 C   0  0  0  0  0  0  0  0  0  0  0  0
  140.9080   70.6450  227.3240 C   0  0  0  0  0  0  0  0  0  0  0  0
  140.4740   70.4260  226.0070 C   0  0  0  0  0  0  0  0  0  0  0  0
  140.9610   71.3520  224.9150 C   0  0  0  0  0  0  0  0  0  0  0  0
  141.5000   71.1760  221.4730 N   0  0  0  0  0  0  0  0  0  0  0  0
  141.9770   71.8460  220.3920 C   0  0  0  0  0  0  0  0  0  0  0  0
  142.7010   71.1420  219.3590 N   0  0  0  0  0  0  0  0  0  0  0  0
  143.7100   71.8130  218.5330 C   0  0  0  0  0  0  0  0  0  0  0  0
  145.0770   71.1830  218.8020 C   0  0  0  0  0  0  0  0  0  0  0  0
  145.0190   69.6700  218.8020 C   0  0  0  0  0  0  0  0  0  0  0  0
  146.2150   68.9420  218.6940 C   0  0  0  0  0  0  0  0  0  0  0  0
  146.2020   67.5450  218.7500 C   0  0  0  0  0  0  0  0  0  0  0  0
  144.9950   66.8630  218.9180 C   0  0  0  0  0  0  0  0  0  0  0  0
  143.7990   67.5730  219.0430 C   0  0  0  0  0  0  0  0  0  0  0  0
  143.7990   68.9760  219.0050 C   0  0  0  0  0  0  0  0  0  0  0  0
  142.4840   69.7120  219.1090 C   0  0  0  0  0  0  0  0  0  0  0  0
  141.7670   73.1840  220.2960 N   0  0  0  0  0  0  0  0  0  0  0  0
  139.5760   75.8620  221.6130 C   0  0  0  0  0  0  0  0  0  0  0  0
  139.8420   77.1810  222.3560 C   0  0  0  0  0  0  0  0  0  0  0  0
  140.5940   80.4160  221.8380 N   0  0  0  0  0  0  0  0  0  0  0  0
  140.9080   81.6370  222.3500 C   0  0  0  0  0  0  0  0  0  0  0  0
  142.1526   82.7322  223.7493 H   0  0  0  0  0  0  0  0  0  0  0  0
  143.3089   80.6686  224.5653 H   0  0  0  0  0  0  0  0  0  0  0  0
  142.6991   78.4398  223.6094 H   0  0  0  0  0  0  0  0  0  0  0  0
  140.5828   77.6302  219.6055 H   0  0  0  0  0  0  0  0  0  0  0  0
  142.2161   78.2074  220.0777 H   0  0  0  0  0  0  0  0  0  0  0  0
  142.0436   75.7198  219.4804 H   0  0  0  0  0  0  0  0  0  0  0  0
  142.7647   76.1030  221.0974 H   0  0  0  0  0  0  0  0  0  0  0  0
  138.2574   70.9624  223.9325 H   0  0  0  0  0  0  0  0  0  0  0  0
  138.8702   70.1032  222.4714 H   0  0  0  0  0  0  0  0  0  0  0  0
  138.1991   68.5595  224.3389 H   0  0  0  0  0  0  0  0  0  0  0  0
  139.9278   68.4049  223.8481 H   0  0  0  0  0  0  0  0  0  0  0  0
  138.5521   67.6381  226.5597 H   0  0  0  0  0  0  0  0  0  0  0  0
  139.3105   68.0680  228.8964 H   0  0  0  0  0  0  0  0  0  0  0  0
  140.8241   69.9869  229.3878 H   0  0  0  0  0  0  0  0  0  0  0  0
  141.5837   71.4846  227.5443 H   0  0  0  0  0  0  0  0  0  0  0  0
  140.7413   72.3875  225.2140 H   0  0  0  0  0  0  0  0  0  0  0  0
  142.0392   71.1696  224.7957 H   0  0  0  0  0  0  0  0  0  0  0  0
  143.4531   71.6955  217.4699 H   0  0  0  0  0  0  0  0  0  0  0  0
  143.7402   72.8840  218.7823 H   0  0  0  0  0  0  0  0  0  0  0  0
  145.7782   71.5107  218.0203 H   0  0  0  0  0  0  0  0  0  0  0  0
  145.4087   71.5084  219.7991 H   0  0  0  0  0  0  0  0  0  0  0  0
  147.1687   69.4745  218.5644 H   0  0  0  0  0  0  0  0  0  0  0  0
  147.1433   66.9827  218.6617 H   0  0  0  0  0  0  0  0  0  0  0  0
  144.9863   65.7636  218.9520 H   0  0  0  0  0  0  0  0  0  0  0  0
  142.8514   67.0295  219.1720 H   0  0  0  0  0  0  0  0  0  0  0  0
  141.9287   69.5915  218.1671 H   0  0  0  0  0  0  0  0  0  0  0  0
  141.9121   69.2917  219.9494 H   0  0  0  0  0  0  0  0  0  0  0  0
  138.9288   76.0589  220.7457 H   0  0  0  0  0  0  0  0  0  0  0  0
  139.0836   75.1585  222.3005 H   0  0  0  0  0  0  0  0  0  0  0  0
  138.9001   77.7445  222.4282 H   0  0  0  0  0  0  0  0  0  0  0  0
  140.2357   76.9366  223.3536 H   0  0  0  0  0  0  0  0  0  0  0  0
  140.3876   82.5360  221.9880 H   0  0  0  0  0  0  0  0  0  0  0  0
  1  2  2  0
  2  3  1  0
  3  4  2  0
  4  5  1  0
  5  6  1  0
  6  7  1  0
  7  8  1  0
  8  9  1  0
  9 10  2  0
 10 11  1  0
 11 12  1  0
 12 13  1  0
 13 14  1  0
 14 15  1  0
 15 16  2  0
 16 17  1  0
 17 18  2  0
 18 19  1  0
 19 20  2  0
 20 21  1  0
 11 22  2  0
 22 23  1  0
 23 24  1  0
 24 25  1  0
 25 26  1  0
 26 27  1  0
 27 28  2  0
 28 29  1  0
 29 30  2  0
 30 31  1  0
 31 32  2  0
 32 33  1  0
 23 34  2  0
  8 35  1  0
 35 36  1  0
  4 37  1  0
 37 38  2  0
 38  1  1  0
 36  5  1  0
 34  9  1  0
 21 12  1  0
 33 24  1  0
 20 15  1  0
 32 27  1  0
  1 39  1  0
  2 40  1  0
  3 41  1  0
  6 42  1  0
  6 43  1  0
  7 44  1  0
  7 45  1  0
 13 46  1  0
 13 47  1  0
 14 48  1  0
 14 49  1  0
 16 50  1  0
 17 51  1  0
 18 52  1  0
 19 53  1  0
 21 54  1  0
 21 55  1  0
 25 56  1  0
 25 57  1  0
 26 58  1  0
 26 59  1  0
 28 60  1  0
 29 61  1  0
 30 62  1  0
 31 63  1  0
 33 64  1  0
 33 65  1  0
 35 66  1  0
 35 67  1  0
 36 68  1  0
 36 69  1  0
 38 70  1  0
M  END
>  <UniqueID>  (4) 
47

>  <SMILES>  (4) 
c1ccc(N2CCN(c3nc(N4CCc5ccccc5C4)nc(N4CCc5ccccc5C4)n3)CC2)nc1

>  <Energy>  (4) 
86.52349933335694

>  <Genealogy>  (4) 
c1ccc(N2CCN(c3nc(N4CCc5ccccc5C4)nc(N4CCc5ccccc5C4)n3)CC2)nc1 (3D coordinates assigned)
c1ccc(N2CCN(c3nc(N4CCc5ccccc5C4)nc(N4CCc5ccccc5C4)n3)CC2)nc1 (nonaromatic ring conformer: 86.52349933335694 kcal/mol)

>  <smiles>  (4) 
c1ccc(N2CCN(c3nc(N4CCc5ccccc5C4)nc(N4CCc5ccccc5C4)n3)CC2)nc1

>  <score_type>  (4) 
oracle

>  <origin>  (4) 
autodockgpu

>  <m_score__min__energy>  (4) 
-10.69

>  <m_primary>  (4) 
energy

>  <meeko>  (4) 
{"free_energy": -10.66, "intermolecular_energy": -11.86, "internal_energy": -1.04, "cluster_size": 20, "cluster_id": 1, "rank_in_cluster": 8}

>  <energy>  (4) 
-10.68

>  <cluster_rmsd>  (4) 
0.07

>  <rmsd>  (4) 
269.47

>  <cluster>  (4) 
1

$$$$
QWCMPUPUGDWNGO-UHFFFAOYNA-N
     RDKit          3D

 70 76  0  0  0  0  0  0  0  0999 V2000
  141.8280   82.0130  223.1150 C   0  0  0  0  0  0  0  0  0  0  0  0
  142.4370   80.8750  223.6480 C   0  0  0  0  0  0  0  0  0  0  0  0
  142.0990   79.6110  223.1630 C   0  0  0  0  0  0  0  0  0  0  0  0
  141.1540   79.4980  222.1290 C   0  0  0  0  0  0  0  0  0  0  0  0
  140.7710   78.2110  221.6010 N   0  0  0  0  0  0  0  0  0  0  0  0
  141.3540   77.6820  220.3610 C   0  0  0  0  0  0  0  0  0  0  0  0
  141.7890   76.2330  220.5830 C   0  0  0  0  0  0  0  0  0  0  0  0
  140.7320   75.4460  221.2390 N   0  0  0  0  0  0  0  0  0  0  0  0
  140.9360   74.0330  221.4430 C   0  0  0  0  0  0  0  0  0  0  0  0
  141.8510   73.3630  220.6940 N   0  0  0  0  0  0  0  0  0  0  0  0
  142.0730   72.0360  220.8880 C   0  0  0  0  0  0  0  0  0  0  0  0
  143.0460   71.3270  220.0910 N   0  0  0  0  0  0  0  0  0  0  0  0
  144.0610   72.0660  219.3230 C   0  0  0  0  0  0  0  0  0  0  0  0
  145.3880   71.3180  219.3470 C   0  0  0  0  0  0  0  0  0  0  0  0
  145.2020   69.9040  218.8790 C   0  0  0  0  0  0  0  0  0  0  0  0
  146.2600   69.2340  218.2440 C   0  0  0  0  0  0  0  0  0  0  0  0
  146.1110   67.9030  217.8420 C   0  0  0  0  0  0  0  0  0  0  0  0
  144.9140   67.2290  218.0860 C   0  0  0  0  0  0  0  0  0  0  0  0
  143.8630   67.8820  218.7340 C   0  0  0  0  0  0  0  0  0  0  0  0
  143.9950   69.2210  219.1340 C   0  0  0  0  0  0  0  0  0  0  0  0
  142.8380   69.8890  219.8420 C   0  0  0  0  0  0  0  0  0  0  0  0
  141.3660   71.3820  221.8460 N   0  0  0  0  0  0  0  0  0  0  0  0
  140.4410   72.0330  222.5980 C   0  0  0  0  0  0  0  0  0  0  0  0
  139.6890   71.3220  223.6040 N   0  0  0  0  0  0  0  0  0  0  0  0
  138.6520   70.3490  223.2460 C   0  0  0  0  0  0  0  0  0  0  0  0
  139.0760   68.9630  223.7320 C   0  0  0  0  0  0  0  0  0  0  0  0
  139.5940   68.9900  225.1540 C   0  0  0  0  0  0  0  0  0  0  0  0
  139.7030   67.7820  225.8620 C   0  0  0  0  0  0  0  0  0  0  0  0
  140.2330   67.7650  227.1560 C   0  0  0  0  0  0  0  0  0  0  0  0
  140.6620   68.9520  227.7520 C   0  0  0  0  0  0  0  0  0  0  0  0
  140.5750   70.1590  227.0550 C   0  0  0  0  0  0  0  0  0  0  0  0
  140.0610   70.1890  225.7490 C   0  0  0  0  0  0  0  0  0  0  0  0
  139.9490   71.5160  225.0370 C   0  0  0  0  0  0  0  0  0  0  0  0
  140.2320   73.3580  222.3890 N   0  0  0  0  0  0  0  0  0  0  0  0
  139.4590   76.0910  221.6060 C   0  0  0  0  0  0  0  0  0  0  0  0
  139.7210   77.4430  222.2870 C   0  0  0  0  0  0  0  0  0  0  0  0
  140.5610   80.6270  221.6440 N   0  0  0  0  0  0  0  0  0  0  0  0
  140.8790   81.8660  222.1040 C   0  0  0  0  0  0  0  0  0  0  0  0
  142.0937   83.0131  223.4881 H   0  0  0  0  0  0  0  0  0  0  0  0
  143.1831   80.9750  224.4501 H   0  0  0  0  0  0  0  0  0  0  0  0
  142.5682   78.7107  223.5864 H   0  0  0  0  0  0  0  0  0  0  0  0
  140.6044   77.7212  219.5569 H   0  0  0  0  0  0  0  0  0  0  0  0
  142.2266   78.2885  220.0769 H   0  0  0  0  0  0  0  0  0  0  0  0
  142.0221   75.7768  219.6096 H   0  0  0  0  0  0  0  0  0  0  0  0
  142.6735   76.2349  221.2369 H   0  0  0  0  0  0  0  0  0  0  0  0
  143.7226   72.1720  218.2817 H   0  0  0  0  0  0  0  0  0  0  0  0
  144.2008   73.0587  219.7758 H   0  0  0  0  0  0  0  0  0  0  0  0
  146.1030   71.8277  218.6845 H   0  0  0  0  0  0  0  0  0  0  0  0
  145.7705   71.3044  220.3783 H   0  0  0  0  0  0  0  0  0  0  0  0
  147.2098   69.7582  218.0621 H   0  0  0  0  0  0  0  0  0  0  0  0
  146.9383   67.3869  217.3329 H   0  0  0  0  0  0  0  0  0  0  0  0
  144.7979   66.1825  217.7678 H   0  0  0  0  0  0  0  0  0  0  0  0
  142.9249   67.3430  218.9323 H   0  0  0  0  0  0  0  0  0  0  0  0
  141.9368   69.7707  219.2225 H   0  0  0  0  0  0  0  0  0  0  0  0
  142.7389   69.4038  220.8242 H   0  0  0  0  0  0  0  0  0  0  0  0
  137.7017   70.6315  223.7227 H   0  0  0  0  0  0  0  0  0  0  0  0
  138.5196   70.3339  222.1541 H   0  0  0  0  0  0  0  0  0  0  0  0
  138.2075   68.2896  223.6840 H   0  0  0  0  0  0  0  0  0  0  0  0
  139.8910   68.6117  223.0821 H   0  0  0  0  0  0  0  0  0  0  0  0
  139.3694   66.8432  225.3957 H   0  0  0  0  0  0  0  0  0  0  0  0
  140.3119   66.8150  227.7049 H   0  0  0  0  0  0  0  0  0  0  0  0
  141.0697   68.9367  228.7735 H   0  0  0  0  0  0  0  0  0  0  0  0
  140.9111   71.0915  227.5320 H   0  0  0  0  0  0  0  0  0  0  0  0
  139.1227   72.0927  225.4781 H   0  0  0  0  0  0  0  0  0  0  0  0
  140.8996   72.0575  225.1515 H   0  0  0  0  0  0  0  0  0  0  0  0
  138.8595   76.2526  220.6980 H   0  0  0  0  0  0  0  0  0  0  0  0
  138.9166   75.4380  222.3056 H   0  0  0  0  0  0  0  0  0  0  0  0
  138.7906   78.0298  222.2812 H   0  0  0  0  0  0  0  0  0  0  0  0
  140.0606   77.2458  223.3145 H   0  0  0  0  0  0  0  0  0  0  0  0
  140.3874   82.7532  221.6784 H   0  0  0  0  0  0  0  0  0  0  0  0
  1  2  2  0
  2  3  1  0
  3  4  2  0
  4  5  1  0
  5  6  1  0
  6  7  1  0
  7  8  1  0
  8  9  1  0
  9 10  2  0
 10 11  1  0
 11 12  1  0
 12 13  1  0
 13 14  1  0
 14 15  1  0
 15 16  2  0
 16 17  1  0
 17 18  2  0
 18 19  1  0
 19 20  2  0
 20 21  1  0
 11 22  2  0
 22 23  1  0
 23 24  1  0
 24 25  1  0
 25 26  1  0
 26 27  1  0
 27 28  2  0
 28 29  1  0
 29 30  2  0
 30 31  1  0
 31 32  2  0
 32 33  1  0
 23 34  2  0
  8 35  1  0
 35 36  1  0
  4 37  1  0
 37 38  2  0
 38  1  1  0
 36  5  1  0
 34  9  1  0
 21 12  1  0
 33 24  1  0
 20 15  1  0
 32 27  1  0
  1 39  1  0
  2 40  1  0
  3 41  1  0
  6 42  1  0
  6 43  1  0
  7 44  1  0
  7 45  1  0
 13 46  1  0
 13 47  1  0
 14 48  1  0
 14 49  1  0
 16 50  1  0
 17 51  1  0
 18 52  1  0
 19 53  1  0
 21 54  1  0
 21 55  1  0
 25 56  1  0
 25 57  1  0
 26 58  1  0
 26 59  1  0
 28 60  1  0
 29 61  1  0
 30 62  1  0
 31 63  1  0
 33 64  1  0
 33 65  1  0
 35 66  1  0
 35 67  1  0
 36 68  1  0
 36 69  1  0
 38 70  1  0
M  END
>  <UniqueID>  (5) 
47

>  <SMILES>  (5) 
c1ccc(N2CCN(c3nc(N4CCc5ccccc5C4)nc(N4CCc5ccccc5C4)n3)CC2)nc1

>  <Energy>  (5) 
86.52349933335694

>  <Genealogy>  (5) 
c1ccc(N2CCN(c3nc(N4CCc5ccccc5C4)nc(N4CCc5ccccc5C4)n3)CC2)nc1 (3D coordinates assigned)
c1ccc(N2CCN(c3nc(N4CCc5ccccc5C4)nc(N4CCc5ccccc5C4)n3)CC2)nc1 (nonaromatic ring conformer: 86.52349933335694 kcal/mol)

>  <smiles>  (5) 
c1ccc(N2CCN(c3nc(N4CCc5ccccc5C4)nc(N4CCc5ccccc5C4)n3)CC2)nc1

>  <score_type>  (5) 
oracle

>  <origin>  (5) 
autodockgpu

>  <m_score__min__energy>  (5) 
-10.69

>  <m_primary>  (5) 
energy

>  <meeko>  (5) 
{"free_energy": -10.41, "intermolecular_energy": -11.6, "internal_energy": -1.06, "cluster_size": 20, "cluster_id": 1, "rank_in_cluster": 15}

>  <energy>  (5) 
-10.68

>  <cluster_rmsd>  (5) 
0.07

>  <rmsd>  (5) 
269.47

>  <cluster>  (5) 
1

$$$$
QWCMPUPUGDWNGO-UHFFFAOYNA-N
     RDKit          3D

 70 76  0  0  0  0  0  0  0  0999 V2000
  141.8310   81.8020  223.3070 C   0  0  0  0  0  0  0  0  0  0  0  0
  142.4820   80.6580  223.7730 C   0  0  0  0  0  0  0  0  0  0  0  0
  142.1650   79.4090  223.2370 C   0  0  0  0  0  0  0  0  0  0  0  0
  141.1980   79.3180  222.2200 C   0  0  0  0  0  0  0  0  0  0  0  0
  140.8360   78.0470  221.6420 N   0  0  0  0  0  0  0  0  0  0  0  0
  141.3910   77.5990  220.3580 C   0  0  0  0  0  0  0  0  0  0  0  0
  141.8760   76.1540  220.4930 C   0  0  0  0  0  0  0  0  0  0  0  0
  140.8670   75.3030  221.1430 N   0  0  0  0  0  0  0  0  0  0  0  0
  141.1210   73.8890  221.2690 C   0  0  0  0  0  0  0  0  0  0  0  0
  140.6440   73.2060  222.3430 N   0  0  0  0  0  0  0  0  0  0  0  0
  140.8550   71.8690  222.4670 C   0  0  0  0  0  0  0  0  0  0  0  0
  140.3470   71.1450  223.6090 N   0  0  0  0  0  0  0  0  0  0  0  0
  139.1100   70.3560  223.5000 C   0  0  0  0  0  0  0  0  0  0  0  0
  139.2270   69.0780  224.3210 C   0  0  0  0  0  0  0  0  0  0  0  0
  139.6060   69.3960  225.7380 C   0  0  0  0  0  0  0  0  0  0  0  0
  139.1950   68.5470  226.7790 C   0  0  0  0  0  0  0  0  0  0  0  0
  139.5790   68.8120  228.0960 C   0  0  0  0  0  0  0  0  0  0  0  0
  140.3880   69.9120  228.3820 C   0  0  0  0  0  0  0  0  0  0  0  0
  140.8170   70.7510  227.3500 C   0  0  0  0  0  0  0  0  0  0  0  0
  140.4310   70.5030  226.0240 C   0  0  0  0  0  0  0  0  0  0  0  0
  140.9260   71.4280  224.9350 C   0  0  0  0  0  0  0  0  0  0  0  0
  141.5510   71.2180  221.4990 N   0  0  0  0  0  0  0  0  0  0  0  0
  142.0430   71.8860  220.4240 C   0  0  0  0  0  0  0  0  0  0  0  0
  142.7920   71.1830  219.4090 N   0  0  0  0  0  0  0  0  0  0  0  0
  143.8690   71.8350  218.6570 C   0  0  0  0  0  0  0  0  0  0  0  0
  145.1930   71.1410  218.9760 C   0  0  0  0  0  0  0  0  0  0  0  0
  145.0750   69.6330  218.9250 C   0  0  0  0  0  0  0  0  0  0  0  0
  146.2450   68.8600  218.8570 C   0  0  0  0  0  0  0  0  0  0  0  0
  146.1730   67.4640  218.8680 C   0  0  0  0  0  0  0  0  0  0  0  0
  144.9330   66.8270  218.9530 C   0  0  0  0  0  0  0  0  0  0  0  0
  143.7610   67.5820  219.0380 C   0  0  0  0  0  0  0  0  0  0  0  0
  143.8190   68.9850  219.0440 C   0  0  0  0  0  0  0  0  0  0  0  0
  142.5310   69.7710  219.1030 C   0  0  0  0  0  0  0  0  0  0  0  0
  141.8240   73.2220  220.3180 N   0  0  0  0  0  0  0  0  0  0  0  0
  139.5890   75.8890  221.5850 C   0  0  0  0  0  0  0  0  0  0  0  0
  139.8340   77.2140  222.3240 C   0  0  0  0  0  0  0  0  0  0  0  0
  140.5650   80.4520  221.8030 N   0  0  0  0  0  0  0  0  0  0  0  0
  140.8630   81.6770  222.3120 C   0  0  0  0  0  0  0  0  0  0  0  0
  142.0793   82.7906  223.7205 H   0  0  0  0  0  0  0  0  0  0  0  0
  143.2441   80.7411  224.5619 H   0  0  0  0  0  0  0  0  0  0  0  0
  142.6674   78.5031  223.6070 H   0  0  0  0  0  0  0  0  0  0  0  0
  140.6132   77.6545  219.5821 H   0  0  0  0  0  0  0  0  0  0  0  0
  142.2347   78.2459  220.0756 H   0  0  0  0  0  0  0  0  0  0  0  0
  142.0887   75.7536  219.4908 H   0  0  0  0  0  0  0  0  0  0  0  0
  142.7819   76.1518  221.1170 H   0  0  0  0  0  0  0  0  0  0  0  0
  138.2647   70.9521  223.8742 H   0  0  0  0  0  0  0  0  0  0  0  0
  138.9450   70.0911  222.4452 H   0  0  0  0  0  0  0  0  0  0  0  0
  138.2601   68.5535  224.3140 H   0  0  0  0  0  0  0  0  0  0  0  0
  140.0073   68.4413  223.8785 H   0  0  0  0  0  0  0  0  0  0  0  0
  138.5687   67.6705  226.5565 H   0  0  0  0  0  0  0  0  0  0  0  0
  139.2427   68.1519  228.9091 H   0  0  0  0  0  0  0  0  0  0  0  0
  140.6882   70.1189  229.4198 H   0  0  0  0  0  0  0  0  0  0  0  0
  141.4620   71.6121  227.5789 H   0  0  0  0  0  0  0  0  0  0  0  0
  140.6689   72.4608  225.2130 H   0  0  0  0  0  0  0  0  0  0  0  0
  142.0119   71.2741  224.8513 H   0  0  0  0  0  0  0  0  0  0  0  0
  143.6637   71.7591  217.5790 H   0  0  0  0  0  0  0  0  0  0  0  0
  143.9291   72.8961  218.9405 H   0  0  0  0  0  0  0  0  0  0  0  0
  145.9471   71.4623  218.2424 H   0  0  0  0  0  0  0  0  0  0  0  0
  145.4839   71.4225  219.9988 H   0  0  0  0  0  0  0  0  0  0  0  0
  147.2248   69.3561  218.7946 H   0  0  0  0  0  0  0  0  0  0  0  0
  147.0945   66.8662  218.8096 H   0  0  0  0  0  0  0  0  0  0  0  0
  144.8793   65.7283  218.9530 H   0  0  0  0  0  0  0  0  0  0  0  0
  142.7870   67.0747  219.1006 H   0  0  0  0  0  0  0  0  0  0  0  0
  142.0219   69.7015  218.1304 H   0  0  0  0  0  0  0  0  0  0  0  0
  141.8988   69.3502  219.8988 H   0  0  0  0  0  0  0  0  0  0  0  0
  138.9532   76.0759  220.7071 H   0  0  0  0  0  0  0  0  0  0  0  0
  139.0918   75.1857  222.2692 H   0  0  0  0  0  0  0  0  0  0  0  0
  138.8869   77.7707  222.3787 H   0  0  0  0  0  0  0  0  0  0  0  0
  140.2148   76.9779  223.3286 H   0  0  0  0  0  0  0  0  0  0  0  0
  140.3400   82.5697  221.9384 H   0  0  0  0  0  0  0  0  0  0  0  0
  1  2  2  0
  2  3  1  0
  3  4  2  0
  4  5  1  0
  5  6  1  0
  6  7  1  0
  7  8  1  0
  8  9  1  0
  9 10  2  0
 10 11  1  0
 11 12  1  0
 12 13  1  0
 13 14  1  0
 14 15  1  0
 15 16  2  0
 16 17  1  0
 17 18  2  0
 18 19  1  0
 19 20  2  0
 20 21  1  0
 11 22  2  0
 22 23  1  0
 23 24  1  0
 24 25  1  0
 25 26  1  0
 26 27  1  0
 27 28  2  0
 28 29  1  0
 29 30  2  0
 30 31  1  0
 31 32  2  0
 32 33  1  0
 23 34  2  0
  8 35  1  0
 35 36  1  0
  4 37  1  0
 37 38  2  0
 38  1  1  0
 36  5  1  0
 34  9  1  0
 21 12  1  0
 33 24  1  0
 20 15  1  0
 32 27  1  0
  1 39  1  0
  2 40  1  0
  3 41  1  0
  6 42  1  0
  6 43  1  0
  7 44  1  0
  7 45  1  0
 13 46  1  0
 13 47  1  0
 14 48  1  0
 14 49  1  0
 16 50  1  0
 17 51  1  0
 18 52  1  0
 19 53  1  0
 21 54  1  0
 21 55  1  0
 25 56  1  0
 25 57  1  0
 26 58  1  0
 26 59  1  0
 28 60  1  0
 29 61  1  0
 30 62  1  0
 31 63  1  0
 33 64  1  0
 33 65  1  0
 35 66  1  0
 35 67  1  0
 36 68  1  0
 36 69  1  0
 38 70  1  0
M  END
>  <UniqueID>  (6) 
47

>  <SMILES>  (6) 
c1ccc(N2CCN(c3nc(N4CCc5ccccc5C4)nc(N4CCc5ccccc5C4)n3)CC2)nc1

>  <Energy>  (6) 
86.52349933335694

>  <Genealogy>  (6) 
c1ccc(N2CCN(c3nc(N4CCc5ccccc5C4)nc(N4CCc5ccccc5C4)n3)CC2)nc1 (3D coordinates assigned)
c1ccc(N2CCN(c3nc(N4CCc5ccccc5C4)nc(N4CCc5ccccc5C4)n3)CC2)nc1 (nonaromatic ring conformer: 86.52349933335694 kcal/mol)

>  <smiles>  (6) 
c1ccc(N2CCN(c3nc(N4CCc5ccccc5C4)nc(N4CCc5ccccc5C4)n3)CC2)nc1

>  <score_type>  (6) 
oracle

>  <origin>  (6) 
autodockgpu

>  <m_score__min__energy>  (6) 
-10.69

>  <m_primary>  (6) 
energy

>  <meeko>  (6) 
{"free_energy": -10.68, "intermolecular_energy": -11.88, "internal_energy": -1.05, "cluster_size": 20, "cluster_id": 1, "rank_in_cluster": 4}

>  <energy>  (6) 
-10.67

>  <cluster_rmsd>  (6) 
0.06

>  <rmsd>  (6) 
269.49

>  <cluster>  (6) 
1

$$$$
QWCMPUPUGDWNGO-UHFFFAOYNA-N
     RDKit          3D

 70 76  0  0  0  0  0  0  0  0999 V2000
  141.8210   81.9420  223.1330 C   0  0  0  0  0  0  0  0  0  0  0  0
  142.4500   80.8040  223.6420 C   0  0  0  0  0  0  0  0  0  0  0  0
  142.1130   79.5430  223.1490 C   0  0  0  0  0  0  0  0  0  0  0  0
  141.1490   79.4320  222.1320 C   0  0  0  0  0  0  0  0  0  0  0  0
  140.7670   78.1480  221.5970 N   0  0  0  0  0  0  0  0  0  0  0  0
  141.2390   77.6900  220.2840 C   0  0  0  0  0  0  0  0  0  0  0  0
  141.7540   76.2540  220.4040 C   0  0  0  0  0  0  0  0  0  0  0  0
  140.8050   75.3990  221.1340 N   0  0  0  0  0  0  0  0  0  0  0  0
  141.0880   73.9900  221.2610 C   0  0  0  0  0  0  0  0  0  0  0  0
  140.6110   73.2940  222.3260 N   0  0  0  0  0  0  0  0  0  0  0  0
  140.8490   71.9620  222.4510 C   0  0  0  0  0  0  0  0  0  0  0  0
  140.3410   71.2250  223.5840 N   0  0  0  0  0  0  0  0  0  0  0  0
  139.0990   70.4450  223.4690 C   0  0  0  0  0  0  0  0  0  0  0  0
  139.2110   69.1540  224.2700 C   0  0  0  0  0  0  0  0  0  0  0  0
  139.5970   69.4490  225.6900 C   0  0  0  0  0  0  0  0  0  0  0  0
  139.1840   68.5880  226.7200 C   0  0  0  0  0  0  0  0  0  0  0  0
  139.5730   68.8310  228.0400 C   0  0  0  0  0  0  0  0  0  0  0  0
  140.3900   69.9220  228.3380 C   0  0  0  0  0  0  0  0  0  0  0  0
  140.8220   70.7730  227.3180 C   0  0  0  0  0  0  0  0  0  0  0  0
  140.4290   70.5470  225.9890 C   0  0  0  0  0  0  0  0  0  0  0  0
  140.9260   71.4850  224.9120 C   0  0  0  0  0  0  0  0  0  0  0  0
  141.5740   71.3280  221.4930 N   0  0  0  0  0  0  0  0  0  0  0  0
  142.0670   72.0100  220.4260 C   0  0  0  0  0  0  0  0  0  0  0  0
  142.8450   71.3260  219.4200 N   0  0  0  0  0  0  0  0  0  0  0  0
  143.9660   71.9800  218.7370 C   0  0  0  0  0  0  0  0  0  0  0  0
  145.2620   71.2500  219.0890 C   0  0  0  0  0  0  0  0  0  0  0  0
  145.1180   69.7470  218.9830 C   0  0  0  0  0  0  0  0  0  0  0  0
  146.2760   68.9530  218.9380 C   0  0  0  0  0  0  0  0  0  0  0  0
  146.1780   67.5590  218.9000 C   0  0  0  0  0  0  0  0  0  0  0  0
  144.9240   66.9450  218.9100 C   0  0  0  0  0  0  0  0  0  0  0  0
  143.7630   67.7200  218.9710 C   0  0  0  0  0  0  0  0  0  0  0  0
  143.8470   69.1200  219.0270 C   0  0  0  0  0  0  0  0  0  0  0  0
  142.5720   69.9290  219.0560 C   0  0  0  0  0  0  0  0  0  0  0  0
  141.8200   73.3410  220.3190 N   0  0  0  0  0  0  0  0  0  0  0  0
  139.5520   75.9720  221.6550 C   0  0  0  0  0  0  0  0  0  0  0  0
  139.8270   77.3110  222.3570 C   0  0  0  0  0  0  0  0  0  0  0  0
  140.5380   80.5620  221.6710 N   0  0  0  0  0  0  0  0  0  0  0  0
  140.8550   81.7990  222.1390 C   0  0  0  0  0  0  0  0  0  0  0  0
  142.0851   82.9401  223.5124 H   0  0  0  0  0  0  0  0  0  0  0  0
  143.2104   80.9016  224.4308 H   0  0  0  0  0  0  0  0  0  0  0  0
  142.5981   78.6423  223.5532 H   0  0  0  0  0  0  0  0  0  0  0  0
  140.4089   77.7236  219.5630 H   0  0  0  0  0  0  0  0  0  0  0  0
  142.0514   78.3448  219.9357 H   0  0  0  0  0  0  0  0  0  0  0  0
  141.9025   75.8422  219.3949 H   0  0  0  0  0  0  0  0  0  0  0  0
  142.7012   76.2731  220.9630 H   0  0  0  0  0  0  0  0  0  0  0  0
  138.2590   71.0406  223.8558 H   0  0  0  0  0  0  0  0  0  0  0  0
  138.9284   70.1967  222.4111 H   0  0  0  0  0  0  0  0  0  0  0  0
  138.2409   68.6355  224.2587 H   0  0  0  0  0  0  0  0  0  0  0  0
  139.9854   68.5189  223.8152 H   0  0  0  0  0  0  0  0  0  0  0  0
  138.5517   67.7187  226.4866 H   0  0  0  0  0  0  0  0  0  0  0  0
  139.2348   68.1616  228.8447 H   0  0  0  0  0  0  0  0  0  0  0  0
  140.6944   70.1123  229.3778 H   0  0  0  0  0  0  0  0  0  0  0  0
  141.4743   71.6257  227.5574 H   0  0  0  0  0  0  0  0  0  0  0  0
  140.6760   72.5151  225.2061 H   0  0  0  0  0  0  0  0  0  0  0  0
  142.0107   71.3259  224.8224 H   0  0  0  0  0  0  0  0  0  0  0  0
  143.8064   71.9431  217.6493 H   0  0  0  0  0  0  0  0  0  0  0  0
  144.0335   73.0299  219.0583 H   0  0  0  0  0  0  0  0  0  0  0  0
  146.0529   71.5797  218.3993 H   0  0  0  0  0  0  0  0  0  0  0  0
  145.5139   71.4926  220.1319 H   0  0  0  0  0  0  0  0  0  0  0  0
  147.2665   69.4314  218.9326 H   0  0  0  0  0  0  0  0  0  0  0  0
  147.0899   66.9450  218.8622 H   0  0  0  0  0  0  0  0  0  0  0  0
  144.8499   65.8482  218.8698 H   0  0  0  0  0  0  0  0  0  0  0  0
  142.7780   67.2304  218.9751 H   0  0  0  0  0  0  0  0  0  0  0  0
  142.1051   69.9010  218.0604 H   0  0  0  0  0  0  0  0  0  0  0  0
  141.8978   69.4951  219.8092 H   0  0  0  0  0  0  0  0  0  0  0  0
  138.8542   76.1366  220.8207 H   0  0  0  0  0  0  0  0  0  0  0  0
  139.1140   75.2715  222.3812 H   0  0  0  0  0  0  0  0  0  0  0  0
  138.8775   77.8550  222.4689 H   0  0  0  0  0  0  0  0  0  0  0  0
  140.2793   77.0949  223.3361 H   0  0  0  0  0  0  0  0  0  0  0  0
  140.3486   82.6870  221.7327 H   0  0  0  0  0  0  0  0  0  0  0  0
  1  2  2  0
  2  3  1  0
  3  4  2  0
  4  5  1  0
  5  6  1  0
  6  7  1  0
  7  8  1  0
  8  9  1  0
  9 10  2  0
 10 11  1  0
 11 12  1  0
 12 13  1  0
 13 14  1  0
 14 15  1  0
 15 16  2  0
 16 17  1  0
 17 18  2  0
 18 19  1  0
 19 20  2  0
 20 21  1  0
 11 22  2  0
 22 23  1  0
 23 24  1  0
 24 25  1  0
 25 26  1  0
 26 27  1  0
 27 28  2  0
 28 29  1  0
 29 30  2  0
 30 31  1  0
 31 32  2  0
 32 33  1  0
 23 34  2  0
  8 35  1  0
 35 36  1  0
  4 37  1  0
 37 38  2  0
 38  1  1  0
 36  5  1  0
 34  9  1  0
 21 12  1  0
 33 24  1  0
 20 15  1  0
 32 27  1  0
  1 39  1  0
  2 40  1  0
  3 41  1  0
  6 42  1  0
  6 43  1  0
  7 44  1  0
  7 45  1  0
 13 46  1  0
 13 47  1  0
 14 48  1  0
 14 49  1  0
 16 50  1  0
 17 51  1  0
 18 52  1  0
 19 53  1  0
 21 54  1  0
 21 55  1  0
 25 56  1  0
 25 57  1  0
 26 58  1  0
 26 59  1  0
 28 60  1  0
 29 61  1  0
 30 62  1  0
 31 63  1  0
 33 64  1  0
 33 65  1  0
 35 66  1  0
 35 67  1  0
 36 68  1  0
 36 69  1  0
 38 70  1  0
M  END
>  <UniqueID>  (7) 
47

>  <SMILES>  (7) 
c1ccc(N2CCN(c3nc(N4CCc5ccccc5C4)nc(N4CCc5ccccc5C4)n3)CC2)nc1

>  <Energy>  (7) 
86.52349933335694

>  <Genealogy>  (7) 
c1ccc(N2CCN(c3nc(N4CCc5ccccc5C4)nc(N4CCc5ccccc5C4)n3)CC2)nc1 (3D coordinates assigned)
c1ccc(N2CCN(c3nc(N4CCc5ccccc5C4)nc(N4CCc5ccccc5C4)n3)CC2)nc1 (nonaromatic ring conformer: 86.52349933335694 kcal/mol)

>  <smiles>  (7) 
c1ccc(N2CCN(c3nc(N4CCc5ccccc5C4)nc(N4CCc5ccccc5C4)n3)CC2)nc1

>  <score_type>  (7) 
oracle

>  <origin>  (7) 
autodockgpu

>  <m_score__min__energy>  (7) 
-10.69

>  <m_primary>  (7) 
energy

>  <meeko>  (7) 
{"free_energy": -10.67, "intermolecular_energy": -11.86, "internal_energy": -1.05, "cluster_size": 20, "cluster_id": 1, "rank_in_cluster": 7}

>  <energy>  (7) 
-10.67

>  <cluster_rmsd>  (7) 
0.09

>  <rmsd>  (7) 
269.47

>  <cluster>  (7) 
1

$$$$
QWCMPUPUGDWNGO-UHFFFAOYNA-N
     RDKit          3D

 70 76  0  0  0  0  0  0  0  0999 V2000
  142.1970   81.4610  223.6520 C   0  0  0  0  0  0  0  0  0  0  0  0
  140.8250   81.2460  223.5150 C   0  0  0  0  0  0  0  0  0  0  0  0
  140.3580   80.0690  222.9290 C   0  0  0  0  0  0  0  0  0  0  0  0
  141.2800   79.1010  222.4930 C   0  0  0  0  0  0  0  0  0  0  0  0
  140.8420   77.8720  221.8770 N   0  0  0  0  0  0  0  0  0  0  0  0
  141.4950   77.3380  220.6750 C   0  0  0  0  0  0  0  0  0  0  0  0
  141.7820   75.8490  220.8740 C   0  0  0  0  0  0  0  0  0  0  0  0
  140.6040   75.1360  221.3940 N   0  0  0  0  0  0  0  0  0  0  0  0
  140.6680   73.7040  221.5560 C   0  0  0  0  0  0  0  0  0  0  0  0
  141.3110   72.9440  220.6320 N   0  0  0  0  0  0  0  0  0  0  0  0
  141.4010   71.5950  220.7800 C   0  0  0  0  0  0  0  0  0  0  0  0
  142.0850   70.7900  219.7960 N   0  0  0  0  0  0  0  0  0  0  0  0
  141.3490   70.2240  218.6550 C   0  0  0  0  0  0  0  0  0  0  0  0
  142.2160   70.2520  217.4020 C   0  0  0  0  0  0  0  0  0  0  0  0
  143.5300   69.5730  217.6570 C   0  0  0  0  0  0  0  0  0  0  0  0
  144.2060   68.9400  216.6010 C   0  0  0  0  0  0  0  0  0  0  0  0
  145.4500   68.3420  216.8200 C   0  0  0  0  0  0  0  0  0  0  0  0
  146.0340   68.3850  218.0860 C   0  0  0  0  0  0  0  0  0  0  0  0
  145.3780   69.0290  219.1380 C   0  0  0  0  0  0  0  0  0  0  0  0
  144.1240   69.6250  218.9350 C   0  0  0  0  0  0  0  0  0  0  0  0
  143.4510   70.3220  220.0960 C   0  0  0  0  0  0  0  0  0  0  0  0
  140.8360   71.0120  221.8690 N   0  0  0  0  0  0  0  0  0  0  0  0
  140.1810   71.7550  222.7980 C   0  0  0  0  0  0  0  0  0  0  0  0
  139.5760   71.1200  223.9450 N   0  0  0  0  0  0  0  0  0  0  0  0
  138.5980   70.0370  223.7980 C   0  0  0  0  0  0  0  0  0  0  0  0
  139.1760   68.7560  224.4000 C   0  0  0  0  0  0  0  0  0  0  0  0
  139.8040   68.9950  225.7560 C   0  0  0  0  0  0  0  0  0  0  0  0
  140.0720   67.8950  226.5870 C   0  0  0  0  0  0  0  0  0  0  0  0
  140.7060   68.0750  227.8200 C   0  0  0  0  0  0  0  0  0  0  0  0
  141.0820   69.3550  228.2330 C   0  0  0  0  0  0  0  0  0  0  0  0
  140.8370   70.4580  227.4110 C   0  0  0  0  0  0  0  0  0  0  0  0
  140.2170   70.2890  226.1630 C   0  0  0  0  0  0  0  0  0  0  0  0
  139.9360   71.5070  225.3150 C   0  0  0  0  0  0  0  0  0  0  0  0
  140.1010   73.1010  222.6330 N   0  0  0  0  0  0  0  0  0  0  0  0
  139.3610   75.8770  221.6690 C   0  0  0  0  0  0  0  0  0  0  0  0
  139.6690   77.1770  222.4290 C   0  0  0  0  0  0  0  0  0  0  0  0
  142.6150   79.3510  222.6210 N   0  0  0  0  0  0  0  0  0  0  0  0
  143.0870   80.4910  223.1910 C   0  0  0  0  0  0  0  0  0  0  0  0
  142.5720   82.3842  224.1179 H   0  0  0  0  0  0  0  0  0  0  0  0
  140.1115   82.0046  223.8691 H   0  0  0  0  0  0  0  0  0  0  0  0
  139.2777   79.8998  222.8091 H   0  0  0  0  0  0  0  0  0  0  0  0
  140.8326   77.4716  219.8070 H   0  0  0  0  0  0  0  0  0  0  0  0
  142.4390   77.8747  220.4996 H   0  0  0  0  0  0  0  0  0  0  0  0
  142.0685   75.4082  219.9078 H   0  0  0  0  0  0  0  0  0  0  0  0
  142.5960   75.7500  221.6072 H   0  0  0  0  0  0  0  0  0  0  0  0
  141.0717   69.1839  218.8816 H   0  0  0  0  0  0  0  0  0  0  0  0
  140.4444   70.8244  218.4785 H   0  0  0  0  0  0  0  0  0  0  0  0
  141.6916   69.7314  216.5872 H   0  0  0  0  0  0  0  0  0  0  0  0
  142.4048   71.2992  217.1232 H   0  0  0  0  0  0  0  0  0  0  0  0
  143.7547   68.9149  215.5981 H   0  0  0  0  0  0  0  0  0  0  0  0
  145.9695   67.8365  215.9926 H   0  0  0  0  0  0  0  0  0  0  0  0
  147.0121   67.9113  218.2562 H   0  0  0  0  0  0  0  0  0  0  0  0
  145.8476   69.0691  220.1319 H   0  0  0  0  0  0  0  0  0  0  0  0
  143.3995   69.6189  220.9404 H   0  0  0  0  0  0  0  0  0  0  0  0
  144.0523   71.2134  220.3278 H   0  0  0  0  0  0  0  0  0  0  0  0
  137.6698   70.3050  224.3239 H   0  0  0  0  0  0  0  0  0  0  0  0
  138.3775   69.8789  222.7320 H   0  0  0  0  0  0  0  0  0  0  0  0
  138.3665   68.0192  224.5093 H   0  0  0  0  0  0  0  0  0  0  0  0
  139.9620   68.3894  223.7234 H   0  0  0  0  0  0  0  0  0  0  0  0
  139.7809   66.8842  226.2653 H   0  0  0  0  0  0  0  0  0  0  0  0
  140.9088   67.2076  228.4654 H   0  0  0  0  0  0  0  0  0  0  0  0
  141.5722   69.4952  229.2077 H   0  0  0  0  0  0  0  0  0  0  0  0
  141.1316   71.4643  227.7436 H   0  0  0  0  0  0  0  0  0  0  0  0
  139.1036   72.0716  225.7603 H   0  0  0  0  0  0  0  0  0  0  0  0
  140.8442   72.1266  225.2780 H   0  0  0  0  0  0  0  0  0  0  0  0
  138.8670   76.1220  220.7172 H   0  0  0  0  0  0  0  0  0  0  0  0
  138.7013   75.2502  222.2870 H   0  0  0  0  0  0  0  0  0  0  0  0
  138.7966   77.8435  222.3611 H   0  0  0  0  0  0  0  0  0  0  0  0
  139.8891   76.9159  223.4746 H   0  0  0  0  0  0  0  0  0  0  0  0
  144.1712   80.6487  223.2888 H   0  0  0  0  0  0  0  0  0  0  0  0
  1  2  2  0
  2  3  1  0
  3  4  2  0
  4  5  1  0
  5  6  1  0
  6  7  1  0
  7  8  1  0
  8  9  1  0
  9 10  2  0
 10 11  1  0
 11 12  1  0
 12 13  1  0
 13 14  1  0
 14 15  1  0
 15 16  2  0
 16 17  1  0
 17 18  2  0
 18 19  1  0
 19 20  2  0
 20 21  1  0
 11 22  2  0
 22 23  1  0
 23 24  1  0
 24 25  1  0
 25 26  1  0
 26 27  1  0
 27 28  2  0
 28 29  1  0
 29 30  2  0
 30 31  1  0
 31 32  2  0
 32 33  1  0
 23 34  2  0
  8 35  1  0
 35 36  1  0
  4 37  1  0
 37 38  2  0
 38  1  1  0
 36  5  1  0
 34  9  1  0
 21 12  1  0
 33 24  1  0
 20 15  1  0
 32 27  1  0
  1 39  1  0
  2 40  1  0
  3 41  1  0
  6 42  1  0
  6 43  1  0
  7 44  1  0
  7 45  1  0
 13 46  1  0
 13 47  1  0
 14 48  1  0
 14 49  1  0
 16 50  1  0
 17 51  1  0
 18 52  1  0
 19 53  1  0
 21 54  1  0
 21 55  1  0
 25 56  1  0
 25 57  1  0
 26 58  1  0
 26 59  1  0
 28 60  1  0
 29 61  1  0
 30 62  1  0
 31 63  1  0
 33 64  1  0
 33 65  1  0
 35 66  1  0
 35 67  1  0
 36 68  1  0
 36 69  1  0
 38 70  1  0
M  END
>  <UniqueID>  (8) 
47

>  <SMILES>  (8) 
c1ccc(N2CCN(c3nc(N4CCc5ccccc5C4)nc(N4CCc5ccccc5C4)n3)CC2)nc1

>  <Energy>  (8) 
86.52349933335694

>  <Genealogy>  (8) 
c1ccc(N2CCN(c3nc(N4CCc5ccccc5C4)nc(N4CCc5ccccc5C4)n3)CC2)nc1 (3D coordinates assigned)
c1ccc(N2CCN(c3nc(N4CCc5ccccc5C4)nc(N4CCc5ccccc5C4)n3)CC2)nc1 (nonaromatic ring conformer: 86.52349933335694 kcal/mol)

>  <smiles>  (8) 
c1ccc(N2CCN(c3nc(N4CCc5ccccc5C4)nc(N4CCc5ccccc5C4)n3)CC2)nc1

>  <score_type>  (8) 
oracle

>  <origin>  (8) 
autodockgpu

>  <m_score__min__energy>  (8) 
-10.69

>  <m_primary>  (8) 
energy

>  <meeko>  (8) 
{"free_energy": -9.92, "intermolecular_energy": -11.12, "internal_energy": -1.02, "cluster_size": 20, "cluster_id": 1, "rank_in_cluster": 20}

>  <energy>  (8) 
-10.66

>  <cluster_rmsd>  (8) 
0.13

>  <rmsd>  (8) 
269.44

>  <cluster>  (8) 
1

$$$$
QWCMPUPUGDWNGO-UHFFFAOYNA-N
     RDKit          3D

 70 76  0  0  0  0  0  0  0  0999 V2000
  141.8550   81.7540  223.3920 C   0  0  0  0  0  0  0  0  0  0  0  0
  142.5000   80.6040  223.8480 C   0  0  0  0  0  0  0  0  0  0  0  0
  142.1860   79.3610  223.2970 C   0  0  0  0  0  0  0  0  0  0  0  0
  141.2260   79.2830  222.2720 C   0  0  0  0  0  0  0  0  0  0  0  0
  140.8660   78.0200  221.6760 N   0  0  0  0  0  0  0  0  0  0  0  0
  141.4450   77.5760  220.4020 C   0  0  0  0  0  0  0  0  0  0  0  0
  141.9160   76.1270  220.5360 C   0  0  0  0  0  0  0  0  0  0  0  0
  140.8860   75.2800  221.1580 N   0  0  0  0  0  0  0  0  0  0  0  0
  141.1260   73.8620  221.2790 C   0  0  0  0  0  0  0  0  0  0  0  0
  140.6520   73.1820  222.3560 N   0  0  0  0  0  0  0  0  0  0  0  0
  140.8490   71.8430  222.4750 C   0  0  0  0  0  0  0  0  0  0  0  0
  140.3450   71.1220  223.6210 N   0  0  0  0  0  0  0  0  0  0  0  0
  139.0930   70.3570  223.5270 C   0  0  0  0  0  0  0  0  0  0  0  0
  139.1980   69.0720  224.3380 C   0  0  0  0  0  0  0  0  0  0  0  0
  139.6040   69.3750  225.7520 C   0  0  0  0  0  0  0  0  0  0  0  0
  139.1920   68.5290  226.7940 C   0  0  0  0  0  0  0  0  0  0  0  0
  139.6000   68.7790  228.1070 C   0  0  0  0  0  0  0  0  0  0  0  0
  140.4330   69.8630  228.3860 C   0  0  0  0  0  0  0  0  0  0  0  0
  140.8630   70.7000  227.3530 C   0  0  0  0  0  0  0  0  0  0  0  0
  140.4530   70.4660  226.0310 C   0  0  0  0  0  0  0  0  0  0  0  0
  140.9490   71.3880  224.9400 C   0  0  0  0  0  0  0  0  0  0  0  0
  141.5290   71.1860  221.4990 N   0  0  0  0  0  0  0  0  0  0  0  0
  142.0180   71.8510  220.4200 C   0  0  0  0  0  0  0  0  0  0  0  0
  142.7480   71.1420  219.3960 N   0  0  0  0  0  0  0  0  0  0  0  0
  143.8230   71.7850  218.6330 C   0  0  0  0  0  0  0  0  0  0  0  0
  145.1450   71.0800  218.9360 C   0  0  0  0  0  0  0  0  0  0  0  0
  145.0120   69.5730  218.8860 C   0  0  0  0  0  0  0  0  0  0  0  0
  146.1750   68.7890  218.8040 C   0  0  0  0  0  0  0  0  0  0  0  0
  146.0910   67.3930  218.8160 C   0  0  0  0  0  0  0  0  0  0  0  0
  144.8460   66.7680  218.9140 C   0  0  0  0  0  0  0  0  0  0  0  0
  143.6820   67.5330  219.0130 C   0  0  0  0  0  0  0  0  0  0  0  0
  143.7530   68.9350  219.0200 C   0  0  0  0  0  0  0  0  0  0  0  0
  142.4720   69.7320  219.0930 C   0  0  0  0  0  0  0  0  0  0  0  0
  141.8120   73.1900  220.3190 N   0  0  0  0  0  0  0  0  0  0  0  0
  139.6030   75.8720  221.5760 C   0  0  0  0  0  0  0  0  0  0  0  0
  139.8430   77.1900  222.3300 C   0  0  0  0  0  0  0  0  0  0  0  0
  140.5970   80.4230  221.8630 N   0  0  0  0  0  0  0  0  0  0  0  0
  140.8920   81.6420  222.3890 C   0  0  0  0  0  0  0  0  0  0  0  0
  142.1029   82.7373  223.8183 H   0  0  0  0  0  0  0  0  0  0  0  0
  143.2569   80.6772  224.6428 H   0  0  0  0  0  0  0  0  0  0  0  0
  142.6847   78.4506  223.6609 H   0  0  0  0  0  0  0  0  0  0  0  0
  140.6845   77.6430  219.6100 H   0  0  0  0  0  0  0  0  0  0  0  0
  142.3000   78.2180  220.1432 H   0  0  0  0  0  0  0  0  0  0  0  0
  142.1469   75.7323  219.5355 H   0  0  0  0  0  0  0  0  0  0  0  0
  142.8087   76.1125  221.1785 H   0  0  0  0  0  0  0  0  0  0  0  0
  138.2649   70.9664  223.9179 H   0  0  0  0  0  0  0  0  0  0  0  0
  138.9074   70.1016  222.4733 H   0  0  0  0  0  0  0  0  0  0  0  0
  138.2215   68.5656  224.3422 H   0  0  0  0  0  0  0  0  0  0  0  0
  139.9592   68.4232  223.8802 H   0  0  0  0  0  0  0  0  0  0  0  0
  138.5456   67.6661  226.5760 H   0  0  0  0  0  0  0  0  0  0  0  0
  139.2641   68.1204  228.9215 H   0  0  0  0  0  0  0  0  0  0  0  0
  140.7516   70.0590  229.4205 H   0  0  0  0  0  0  0  0  0  0  0  0
  141.5271   71.5478  227.5772 H   0  0  0  0  0  0  0  0  0  0  0  0
  140.7147   72.4237  225.2271 H   0  0  0  0  0  0  0  0  0  0  0  0
  142.0308   71.2156  224.8396 H   0  0  0  0  0  0  0  0  0  0  0  0
  143.6052   71.7120  217.5572 H   0  0  0  0  0  0  0  0  0  0  0  0
  143.8955   72.8450  218.9178 H   0  0  0  0  0  0  0  0  0  0  0  0
  145.8930   71.3948  218.1934 H   0  0  0  0  0  0  0  0  0  0  0  0
  145.4516   71.3591  219.9549 H   0  0  0  0  0  0  0  0  0  0  0  0
  147.1583   69.2765  218.7299 H   0  0  0  0  0  0  0  0  0  0  0  0
  147.0064   66.7868  218.7482 H   0  0  0  0  0  0  0  0  0  0  0  0
  144.7821   65.6699  218.9132 H   0  0  0  0  0  0  0  0  0  0  0  0
  142.7042   67.0344  219.0859 H   0  0  0  0  0  0  0  0  0  0  0  0
  141.9517   69.6667  218.1260 H   0  0  0  0  0  0  0  0  0  0  0  0
  141.8451   69.3165  219.8957 H   0  0  0  0  0  0  0  0  0  0  0  0
  138.9879   76.0702  220.6859 H   0  0  0  0  0  0  0  0  0  0  0  0
  139.0849   75.1676  222.2434 H   0  0  0  0  0  0  0  0  0  0  0  0
  138.8994   77.7540  222.3687 H   0  0  0  0  0  0  0  0  0  0  0  0
  140.2005   76.9433  223.3406 H   0  0  0  0  0  0  0  0  0  0  0  0
  140.3713   82.5394  222.0236 H   0  0  0  0  0  0  0  0  0  0  0  0
  1  2  2  0
  2  3  1  0
  3  4  2  0
  4  5  1  0
  5  6  1  0
  6  7  1  0
  7  8  1  0
  8  9  1  0
  9 10  2  0
 10 11  1  0
 11 12  1  0
 12 13  1  0
 13 14  1  0
 14 15  1  0
 15 16  2  0
 16 17  1  0
 17 18  2  0
 18 19  1  0
 19 20  2  0
 20 21  1  0
 11 22  2  0
 22 23  1  0
 23 24  1  0
 24 25  1  0
 25 26  1  0
 26 27  1  0
 27 28  2  0
 28 29  1  0
 29 30  2  0
 30 31  1  0
 31 32  2  0
 32 33  1  0
 23 34  2  0
  8 35  1  0
 35 36  1  0
  4 37  1  0
 37 38  2  0
 38  1  1  0
 36  5  1  0
 34  9  1  0
 21 12  1  0
 33 24  1  0
 20 15  1  0
 32 27  1  0
  1 39  1  0
  2 40  1  0
  3 41  1  0
  6 42  1  0
  6 43  1  0
  7 44  1  0
  7 45  1  0
 13 46  1  0
 13 47  1  0
 14 48  1  0
 14 49  1  0
 16 50  1  0
 17 51  1  0
 18 52  1  0
 19 53  1  0
 21 54  1  0
 21 55  1  0
 25 56  1  0
 25 57  1  0
 26 58  1  0
 26 59  1  0
 28 60  1  0
 29 61  1  0
 30 62  1  0
 31 63  1  0
 33 64  1  0
 33 65  1  0
 35 66  1  0
 35 67  1  0
 36 68  1  0
 36 69  1  0
 38 70  1  0
M  END
>  <UniqueID>  (9) 
47

>  <SMILES>  (9) 
c1ccc(N2CCN(c3nc(N4CCc5ccccc5C4)nc(N4CCc5ccccc5C4)n3)CC2)nc1

>  <Energy>  (9) 
86.52349933335694

>  <Genealogy>  (9) 
c1ccc(N2CCN(c3nc(N4CCc5ccccc5C4)nc(N4CCc5ccccc5C4)n3)CC2)nc1 (3D coordinates assigned)
c1ccc(N2CCN(c3nc(N4CCc5ccccc5C4)nc(N4CCc5ccccc5C4)n3)CC2)nc1 (nonaromatic ring conformer: 86.52349933335694 kcal/mol)

>  <smiles>  (9) 
c1ccc(N2CCN(c3nc(N4CCc5ccccc5C4)nc(N4CCc5ccccc5C4)n3)CC2)nc1

>  <score_type>  (9) 
oracle

>  <origin>  (9) 
autodockgpu

>  <m_score__min__energy>  (9) 
-10.69

>  <m_primary>  (9) 
energy

>  <meeko>  (9) 
{"free_energy": -10.64, "intermolecular_energy": -11.84, "internal_energy": -1.05, "cluster_size": 20, "cluster_id": 1, "rank_in_cluster": 9}

>  <energy>  (9) 
-10.64

>  <cluster_rmsd>  (9) 
0.13

>  <rmsd>  (9) 
269.47

>  <cluster>  (9) 
1

$$$$
QWCMPUPUGDWNGO-UHFFFAOYNA-N
     RDKit          3D

 70 76  0  0  0  0  0  0  0  0999 V2000
  141.8530   81.8100  223.2500 C   0  0  0  0  0  0  0  0  0  0  0  0
  142.4880   80.6660  223.7350 C   0  0  0  0  0  0  0  0  0  0  0  0
  142.1550   79.4120  223.2220 C   0  0  0  0  0  0  0  0  0  0  0  0
  141.1870   79.3160  222.2060 C   0  0  0  0  0  0  0  0  0  0  0  0
  140.8070   78.0400  221.6500 N   0  0  0  0  0  0  0  0  0  0  0  0
  141.3100   77.5890  220.3460 C   0  0  0  0  0  0  0  0  0  0  0  0
  141.8090   76.1480  220.4670 C   0  0  0  0  0  0  0  0  0  0  0  0
  140.8330   75.2940  221.1640 N   0  0  0  0  0  0  0  0  0  0  0  0
  141.1000   73.8820  221.2860 C   0  0  0  0  0  0  0  0  0  0  0  0
  140.6270   73.1900  222.3550 N   0  0  0  0  0  0  0  0  0  0  0  0
  140.8500   71.8550  222.4750 C   0  0  0  0  0  0  0  0  0  0  0  0
  140.3450   71.1230  223.6130 N   0  0  0  0  0  0  0  0  0  0  0  0
  139.1140   70.3270  223.4990 C   0  0  0  0  0  0  0  0  0  0  0  0
  139.2370   69.0450  224.3130 C   0  0  0  0  0  0  0  0  0  0  0  0
  139.6130   69.3570  225.7320 C   0  0  0  0  0  0  0  0  0  0  0  0
  139.2060   68.5010  226.7680 C   0  0  0  0  0  0  0  0  0  0  0  0
  139.5870   68.7610  228.0870 C   0  0  0  0  0  0  0  0  0  0  0  0
  140.3890   69.8650  228.3790 C   0  0  0  0  0  0  0  0  0  0  0  0
  140.8150   70.7120  227.3530 C   0  0  0  0  0  0  0  0  0  0  0  0
  140.4310   70.4680  226.0250 C   0  0  0  0  0  0  0  0  0  0  0  0
  140.9220   71.4020  224.9410 C   0  0  0  0  0  0  0  0  0  0  0  0
  141.5560   71.2140  221.5070 N   0  0  0  0  0  0  0  0  0  0  0  0
  142.0450   71.8910  220.4360 C   0  0  0  0  0  0  0  0  0  0  0  0
  142.8030   71.1990  219.4210 N   0  0  0  0  0  0  0  0  0  0  0  0
  143.9010   71.8530  218.7010 C   0  0  0  0  0  0  0  0  0  0  0  0
  145.2120   71.1380  219.0300 C   0  0  0  0  0  0  0  0  0  0  0  0
  145.0770   69.6320  218.9480 C   0  0  0  0  0  0  0  0  0  0  0  0
  146.2390   68.8470  218.8850 C   0  0  0  0  0  0  0  0  0  0  0  0
  146.1520   67.4510  218.8680 C   0  0  0  0  0  0  0  0  0  0  0  0
  144.9030   66.8280  218.9180 C   0  0  0  0  0  0  0  0  0  0  0  0
  143.7380   67.5950  218.9970 C   0  0  0  0  0  0  0  0  0  0  0  0
  143.8120   68.9970  219.0320 C   0  0  0  0  0  0  0  0  0  0  0  0
  142.5320   69.7960  219.0830 C   0  0  0  0  0  0  0  0  0  0  0  0
  141.8130   73.2250  220.3340 N   0  0  0  0  0  0  0  0  0  0  0  0
  139.5720   75.8750  221.6560 C   0  0  0  0  0  0  0  0  0  0  0  0
  139.8400   77.2050  222.3780 C   0  0  0  0  0  0  0  0  0  0  0  0
  140.5690   80.4510  221.7690 N   0  0  0  0  0  0  0  0  0  0  0  0
  140.8830   81.6810  222.2580 C   0  0  0  0  0  0  0  0  0  0  0  0
  142.1151   82.8021  223.6462 H   0  0  0  0  0  0  0  0  0  0  0  0
  143.2515   80.7529  224.5221 H   0  0  0  0  0  0  0  0  0  0  0  0
  142.6452   78.5063  223.6087 H   0  0  0  0  0  0  0  0  0  0  0  0
  140.4998   77.6361  219.6034 H   0  0  0  0  0  0  0  0  0  0  0  0
  142.1370   78.2395  220.0252 H   0  0  0  0  0  0  0  0  0  0  0  0
  141.9812   75.7438  219.4585 H   0  0  0  0  0  0  0  0  0  0  0  0
  142.7407   76.1541  221.0517 H   0  0  0  0  0  0  0  0  0  0  0  0
  138.2647   70.9160  223.8755 H   0  0  0  0  0  0  0  0  0  0  0  0
  138.9525   70.0664  222.4426 H   0  0  0  0  0  0  0  0  0  0  0  0
  138.2729   68.5155  224.3021 H   0  0  0  0  0  0  0  0  0  0  0  0
  140.0210   68.4149  223.8677 H   0  0  0  0  0  0  0  0  0  0  0  0
  138.5847   67.6222  226.5403 H   0  0  0  0  0  0  0  0  0  0  0  0
  139.2543   68.0945  228.8963 H   0  0  0  0  0  0  0  0  0  0  0  0
  140.6861   70.0686  229.4184 H   0  0  0  0  0  0  0  0  0  0  0  0
  141.4552   71.5753  227.5871 H   0  0  0  0  0  0  0  0  0  0  0  0
  140.6593   72.4319  225.2245 H   0  0  0  0  0  0  0  0  0  0  0  0
  142.0088   71.2544  224.8571 H   0  0  0  0  0  0  0  0  0  0  0  0
  143.7144   71.8001  217.6182 H   0  0  0  0  0  0  0  0  0  0  0  0
  143.9677   72.9077  219.0063 H   0  0  0  0  0  0  0  0  0  0  0  0
  145.9825   71.4642  218.3160 H   0  0  0  0  0  0  0  0  0  0  0  0
  145.4886   71.3970  220.0627 H   0  0  0  0  0  0  0  0  0  0  0  0
  147.2251   69.3331  218.8487 H   0  0  0  0  0  0  0  0  0  0  0  0
  147.0676   66.8437  218.8152 H   0  0  0  0  0  0  0  0  0  0  0  0
  144.8364   65.7303  218.8951 H   0  0  0  0  0  0  0  0  0  0  0  0
  142.7573   67.0980  219.0320 H   0  0  0  0  0  0  0  0  0  0  0  0
  142.0400   69.7509  218.1002 H   0  0  0  0  0  0  0  0  0  0  0  0
  141.8808   69.3671  219.8589 H   0  0  0  0  0  0  0  0  0  0  0  0
  138.8991   76.0541  220.8045 H   0  0  0  0  0  0  0  0  0  0  0  0
  139.1078   75.1723  222.3637 H   0  0  0  0  0  0  0  0  0  0  0  0
  138.8927   77.7565  222.4703 H   0  0  0  0  0  0  0  0  0  0  0  0
  140.2642   76.9762  223.3668 H   0  0  0  0  0  0  0  0  0  0  0  0
  140.3710   82.5740  221.8702 H   0  0  0  0  0  0  0  0  0  0  0  0
  1  2  2  0
  2  3  1  0
  3  4  2  0
  4  5  1  0
  5  6  1  0
  6  7  1  0
  7  8  1  0
  8  9  1  0
  9 10  2  0
 10 11  1  0
 11 12  1  0
 12 13  1  0
 13 14  1  0
 14 15  1  0
 15 16  2  0
 16 17  1  0
 17 18  2  0
 18 19  1  0
 19 20  2  0
 20 21  1  0
 11 22  2  0
 22 23  1  0
 23 24  1  0
 24 25  1  0
 25 26  1  0
 26 27  1  0
 27 28  2  0
 28 29  1  0
 29 30  2  0
 30 31  1  0
 31 32  2  0
 32 33  1  0
 23 34  2  0
  8 35  1  0
 35 36  1  0
  4 37  1  0
 37 38  2  0
 38  1  1  0
 36  5  1  0
 34  9  1  0
 21 12  1  0
 33 24  1  0
 20 15  1  0
 32 27  1  0
  1 39  1  0
  2 40  1  0
  3 41  1  0
  6 42  1  0
  6 43  1  0
  7 44  1  0
  7 45  1  0
 13 46  1  0
 13 47  1  0
 14 48  1  0
 14 49  1  0
 16 50  1  0
 17 51  1  0
 18 52  1  0
 19 53  1  0
 21 54  1  0
 21 55  1  0
 25 56  1  0
 25 57  1  0
 26 58  1  0
 26 59  1  0
 28 60  1  0
 29 61  1  0
 30 62  1  0
 31 63  1  0
 33 64  1  0
 33 65  1  0
 35 66  1  0
 35 67  1  0
 36 68  1  0
 36 69  1  0
 38 70  1  0
M  END
>  <UniqueID>  (10) 
47

>  <SMILES>  (10) 
c1ccc(N2CCN(c3nc(N4CCc5ccccc5C4)nc(N4CCc5ccccc5C4)n3)CC2)nc1

>  <Energy>  (10) 
86.52349933335694

>  <Genealogy>  (10) 
c1ccc(N2CCN(c3nc(N4CCc5ccccc5C4)nc(N4CCc5ccccc5C4)n3)CC2)nc1 (3D coordinates assigned)
c1ccc(N2CCN(c3nc(N4CCc5ccccc5C4)nc(N4CCc5ccccc5C4)n3)CC2)nc1 (nonaromatic ring conformer: 86.52349933335694 kcal/mol)

>  <smiles>  (10) 
c1ccc(N2CCN(c3nc(N4CCc5ccccc5C4)nc(N4CCc5ccccc5C4)n3)CC2)nc1

>  <score_type>  (10) 
oracle

>  <origin>  (10) 
autodockgpu

>  <m_score__min__energy>  (10) 
-10.69

>  <m_primary>  (10) 
energy

>  <meeko>  (10) 
{"free_energy": -10.68, "intermolecular_energy": -11.87, "internal_energy": -1.05, "cluster_size": 20, "cluster_id": 1, "rank_in_cluster": 5}

>  <energy>  (10) 
-10.6

>  <cluster_rmsd>  (10) 
0.47

>  <rmsd>  (10) 
269.46

>  <cluster>  (10) 
1

$$$$
QWCMPUPUGDWNGO-UHFFFAOYNA-N
     RDKit          3D

 70 76  0  0  0  0  0  0  0  0999 V2000
  137.0750   80.8730  224.5820 C   0  0  0  0  0  0  0  0  0  0  0  0
  138.4700   80.8420  224.5690 C   0  0  0  0  0  0  0  0  0  0  0  0
  139.1400   79.8860  223.8030 C   0  0  0  0  0  0  0  0  0  0  0  0
  138.3970   78.9690  223.0400 C   0  0  0  0  0  0  0  0  0  0  0  0
  139.0470   77.9610  222.2380 N   0  0  0  0  0  0  0  0  0  0  0  0
  140.4980   77.9710  222.0160 C   0  0  0  0  0  0  0  0  0  0  0  0
  141.0590   76.5690  222.2600 C   0  0  0  0  0  0  0  0  0  0  0  0
  140.2620   75.5410  221.5710 N   0  0  0  0  0  0  0  0  0  0  0  0
  140.7020   74.1680  221.6180 C   0  0  0  0  0  0  0  0  0  0  0  0
  140.3120   73.3640  222.6420 N   0  0  0  0  0  0  0  0  0  0  0  0
  140.6980   72.0610  222.6900 C   0  0  0  0  0  0  0  0  0  0  0  0
  140.2820   71.2090  223.7800 N   0  0  0  0  0  0  0  0  0  0  0  0
  139.0270   70.4470  223.6910 C   0  0  0  0  0  0  0  0  0  0  0  0
  139.1950   69.0790  224.3400 C   0  0  0  0  0  0  0  0  0  0  0  0
  139.7050   69.2220  225.7440 C   0  0  0  0  0  0  0  0  0  0  0  0
  139.3740   68.2570  226.7100 C   0  0  0  0  0  0  0  0  0  0  0  0
  139.8790   68.3590  228.0090 C   0  0  0  0  0  0  0  0  0  0  0  0
  140.7290   69.4120  228.3480 C   0  0  0  0  0  0  0  0  0  0  0  0
  141.0790   70.3660  227.3890 C   0  0  0  0  0  0  0  0  0  0  0  0
  140.5710   70.2810  226.0840 C   0  0  0  0  0  0  0  0  0  0  0  0
  140.9830   71.3270  225.0720 C   0  0  0  0  0  0  0  0  0  0  0  0
  141.4830   71.5680  221.6970 N   0  0  0  0  0  0  0  0  0  0  0  0
  141.8890   72.3600  220.6710 C   0  0  0  0  0  0  0  0  0  0  0  0
  142.7330   71.8250  219.6280 N   0  0  0  0  0  0  0  0  0  0  0  0
  143.8280   72.6080  219.0460 C   0  0  0  0  0  0  0  0  0  0  0  0
  145.1580   71.9250  219.3650 C   0  0  0  0  0  0  0  0  0  0  0  0
  145.1090   70.4330  219.1100 C   0  0  0  0  0  0  0  0  0  0  0  0
  146.3140   69.7180  219.0240 C   0  0  0  0  0  0  0  0  0  0  0  0
  146.3030   68.3310  218.8480 C   0  0  0  0  0  0  0  0  0  0  0  0
  145.0890   67.6460  218.7600 C   0  0  0  0  0  0  0  0  0  0  0  0
  143.8820   68.3410  218.8600 C   0  0  0  0  0  0  0  0  0  0  0  0
  143.8780   69.7320  219.0540 C   0  0  0  0  0  0  0  0  0  0  0  0
  142.5550   70.4570  219.1230 C   0  0  0  0  0  0  0  0  0  0  0  0
  141.4950   73.6580  220.6400 N   0  0  0  0  0  0  0  0  0  0  0  0
  139.0790   75.9340  220.7860 C   0  0  0  0  0  0  0  0  0  0  0  0
  138.2240   76.9390  221.5740 C   0  0  0  0  0  0  0  0  0  0  0  0
  137.0350   79.0120  223.0920 N   0  0  0  0  0  0  0  0  0  0  0  0
  136.3660   79.9370  223.8310 C   0  0  0  0  0  0  0  0  0  0  0  0
  136.5409   81.6276  225.1782 H   0  0  0  0  0  0  0  0  0  0  0  0
  139.0419   81.5707  225.1622 H   0  0  0  0  0  0  0  0  0  0  0  0
  140.2394   79.8509  223.7968 H   0  0  0  0  0  0  0  0  0  0  0  0
  140.7087   78.2755  220.9802 H   0  0  0  0  0  0  0  0  0  0  0  0
  140.9709   78.6818  222.7096 H   0  0  0  0  0  0  0  0  0  0  0  0
  142.0933   76.5282  221.8878 H   0  0  0  0  0  0  0  0  0  0  0  0
  141.0231   76.3664  223.3406 H   0  0  0  0  0  0  0  0  0  0  0  0
  138.2290   70.9993  224.2089 H   0  0  0  0  0  0  0  0  0  0  0  0
  138.7635   70.3118  222.6316 H   0  0  0  0  0  0  0  0  0  0  0  0
  138.2224   68.5654  224.3588 H   0  0  0  0  0  0  0  0  0  0  0  0
  139.9213   68.4950  223.7556 H   0  0  0  0  0  0  0  0  0  0  0  0
  138.7148   67.4179  226.4428 H   0  0  0  0  0  0  0  0  0  0  0  0
  139.6060   67.6081  228.7651 H   0  0  0  0  0  0  0  0  0  0  0  0
  141.1242   69.4913  229.3715 H   0  0  0  0  0  0  0  0  0  0  0  0
  141.7572   71.1889  227.6589 H   0  0  0  0  0  0  0  0  0  0  0  0
  140.7704   72.3207  225.4932 H   0  0  0  0  0  0  0  0  0  0  0  0
  142.0542   71.1770  224.8719 H   0  0  0  0  0  0  0  0  0  0  0  0
  143.6978   72.6689  217.9554 H   0  0  0  0  0  0  0  0  0  0  0  0
  143.8226   73.6232  219.4694 H   0  0  0  0  0  0  0  0  0  0  0  0
  145.9436   72.3668  218.7344 H   0  0  0  0  0  0  0  0  0  0  0  0
  145.3696   72.0788  220.4335 H   0  0  0  0  0  0  0  0  0  0  0  0
  147.2729   70.2523  219.0955 H   0  0  0  0  0  0  0  0  0  0  0  0
  147.2517   67.7786  218.7788 H   0  0  0  0  0  0  0  0  0  0  0  0
  145.0837   66.5561  218.6115 H   0  0  0  0  0  0  0  0  0  0  0  0
  142.9293   67.7961  218.7864 H   0  0  0  0  0  0  0  0  0  0  0  0
  142.1144   70.4993  218.1160 H   0  0  0  0  0  0  0  0  0  0  0  0
  141.8909   69.9122  219.8101 H   0  0  0  0  0  0  0  0  0  0  0  0
  139.4067   76.3971  219.8436 H   0  0  0  0  0  0  0  0  0  0  0  0
  138.4755   75.0384  220.5767 H   0  0  0  0  0  0  0  0  0  0  0  0
  137.5311   77.4370  220.8798 H   0  0  0  0  0  0  0  0  0  0  0  0
  137.6781   76.3845  222.3515 H   0  0  0  0  0  0  0  0  0  0  0  0
  135.2661   79.9465  223.8361 H   0  0  0  0  0  0  0  0  0  0  0  0
  1  2  2  0
  2  3  1  0
  3  4  2  0
  4  5  1  0
  5  6  1  0
  6  7  1  0
  7  8  1  0
  8  9  1  0
  9 10  2  0
 10 11  1  0
 11 12  1  0
 12 13  1  0
 13 14  1  0
 14 15  1  0
 15 16  2  0
 16 17  1  0
 17 18  2  0
 18 19  1  0
 19 20  2  0
 20 21  1  0
 11 22  2  0
 22 23  1  0
 23 24  1  0
 24 25  1  0
 25 26  1  0
 26 27  1  0
 27 28  2  0
 28 29  1  0
 29 30  2  0
 30 31  1  0
 31 32  2  0
 32 33  1  0
 23 34  2  0
  8 35  1  0
 35 36  1  0
  4 37  1  0
 37 38  2  0
 38  1  1  0
 36  5  1  0
 34  9  1  0
 21 12  1  0
 33 24  1  0
 20 15  1  0
 32 27  1  0
  1 39  1  0
  2 40  1  0
  3 41  1  0
  6 42  1  0
  6 43  1  0
  7 44  1  0
  7 45  1  0
 13 46  1  0
 13 47  1  0
 14 48  1  0
 14 49  1  0
 16 50  1  0
 17 51  1  0
 18 52  1  0
 19 53  1  0
 21 54  1  0
 21 55  1  0
 25 56  1  0
 25 57  1  0
 26 58  1  0
 26 59  1  0
 28 60  1  0
 29 61  1  0
 30 62  1  0
 31 63  1  0
 33 64  1  0
 33 65  1  0
 35 66  1  0
 35 67  1  0
 36 68  1  0
 36 69  1  0
 38 70  1  0
M  END
>  <UniqueID>  (11) 
47

>  <SMILES>  (11) 
c1ccc(N2CCN(c3nc(N4CCc5ccccc5C4)nc(N4CCc5ccccc5C4)n3)CC2)nc1

>  <Energy>  (11) 
86.52349933335694

>  <Genealogy>  (11) 
c1ccc(N2CCN(c3nc(N4CCc5ccccc5C4)nc(N4CCc5ccccc5C4)n3)CC2)nc1 (3D coordinates assigned)
c1ccc(N2CCN(c3nc(N4CCc5ccccc5C4)nc(N4CCc5ccccc5C4)n3)CC2)nc1 (nonaromatic ring conformer: 86.52349933335694 kcal/mol)

>  <smiles>  (11) 
c1ccc(N2CCN(c3nc(N4CCc5ccccc5C4)nc(N4CCc5ccccc5C4)n3)CC2)nc1

>  <score_type>  (11) 
oracle

>  <origin>  (11) 
autodockgpu

>  <m_score__min__energy>  (11) 
-10.69

>  <m_primary>  (11) 
energy

>  <meeko>  (11) 
{"free_energy": -9.97, "intermolecular_energy": -11.17, "internal_energy": -1.02, "cluster_size": 20, "cluster_id": 1, "rank_in_cluster": 19}

>  <energy>  (11) 
-10.58

>  <cluster_rmsd>  (11) 
0.51

>  <rmsd>  (11) 
269.46

>  <cluster>  (11) 
1

$$$$
QWCMPUPUGDWNGO-UHFFFAOYNA-N
     RDKit          3D

 70 76  0  0  0  0  0  0  0  0999 V2000
  141.8420   81.8540  223.2780 C   0  0  0  0  0  0  0  0  0  0  0  0
  142.4720   80.7090  223.7680 C   0  0  0  0  0  0  0  0  0  0  0  0
  142.1450   79.4560  223.2480 C   0  0  0  0  0  0  0  0  0  0  0  0
  141.1880   79.3620  222.2220 C   0  0  0  0  0  0  0  0  0  0  0  0
  140.8150   78.0870  221.6590 N   0  0  0  0  0  0  0  0  0  0  0  0
  141.3270   77.6400  220.3570 C   0  0  0  0  0  0  0  0  0  0  0  0
  141.8290   76.2000  220.4770 C   0  0  0  0  0  0  0  0  0  0  0  0
  140.8510   75.3430  221.1650 N   0  0  0  0  0  0  0  0  0  0  0  0
  141.1200   73.9310  221.2840 C   0  0  0  0  0  0  0  0  0  0  0  0
  140.6430   73.2350  222.3490 N   0  0  0  0  0  0  0  0  0  0  0  0
  140.8680   71.9000  222.4670 C   0  0  0  0  0  0  0  0  0  0  0  0
  140.3600   71.1630  223.6000 N   0  0  0  0  0  0  0  0  0  0  0  0
  139.1380   70.3540  223.4740 C   0  0  0  0  0  0  0  0  0  0  0  0
  139.2670   69.0740  224.2910 C   0  0  0  0  0  0  0  0  0  0  0  0
  139.6250   69.3930  225.7140 C   0  0  0  0  0  0  0  0  0  0  0  0
  139.2160   68.5330  226.7460 C   0  0  0  0  0  0  0  0  0  0  0  0
  139.5800   68.7980  228.0690 C   0  0  0  0  0  0  0  0  0  0  0  0
  140.3670   69.9110  228.3680 C   0  0  0  0  0  0  0  0  0  0  0  0
  140.7940   70.7610  227.3450 C   0  0  0  0  0  0  0  0  0  0  0  0
  140.4270   70.5120  226.0130 C   0  0  0  0  0  0  0  0  0  0  0  0
  140.9190   71.4500  224.9340 C   0  0  0  0  0  0  0  0  0  0  0  0
  141.5810   71.2630  221.5010 N   0  0  0  0  0  0  0  0  0  0  0  0
  142.0730   71.9440  220.4340 C   0  0  0  0  0  0  0  0  0  0  0  0
  142.8390   71.2570  219.4210 N   0  0  0  0  0  0  0  0  0  0  0  0
  143.9210   71.9230  218.6890 C   0  0  0  0  0  0  0  0  0  0  0  0
  145.2460   71.2340  219.0170 C   0  0  0  0  0  0  0  0  0  0  0  0
  145.1370   69.7260  218.9490 C   0  0  0  0  0  0  0  0  0  0  0  0
  146.3130   68.9600  218.8860 C   0  0  0  0  0  0  0  0  0  0  0  0
  146.2500   67.5640  218.8820 C   0  0  0  0  0  0  0  0  0  0  0  0
  145.0130   66.9190  218.9450 C   0  0  0  0  0  0  0  0  0  0  0  0
  143.8350   67.6660  219.0240 C   0  0  0  0  0  0  0  0  0  0  0  0
  143.8840   69.0690  219.0460 C   0  0  0  0  0  0  0  0  0  0  0  0
  142.5910   69.8460  219.0970 C   0  0  0  0  0  0  0  0  0  0  0  0
  141.8390   73.2780  220.3340 N   0  0  0  0  0  0  0  0  0  0  0  0
  139.5850   75.9180  221.6510 C   0  0  0  0  0  0  0  0  0  0  0  0
  139.8450   77.2470  222.3780 C   0  0  0  0  0  0  0  0  0  0  0  0
  140.5740   80.4970  221.7800 N   0  0  0  0  0  0  0  0  0  0  0  0
  140.8820   81.7260  222.2740 C   0  0  0  0  0  0  0  0  0  0  0  0
  142.0994   82.8455  223.6787 H   0  0  0  0  0  0  0  0  0  0  0  0
  143.2263   80.7943  224.5641 H   0  0  0  0  0  0  0  0  0  0  0  0
  142.6317   78.5496  223.6374 H   0  0  0  0  0  0  0  0  0  0  0  0
  140.5211   77.6869  219.6098 H   0  0  0  0  0  0  0  0  0  0  0  0
  142.1545   78.2932  220.0431 H   0  0  0  0  0  0  0  0  0  0  0  0
  142.0085   75.7990  219.4686 H   0  0  0  0  0  0  0  0  0  0  0  0
  142.7572   76.2064  221.0672 H   0  0  0  0  0  0  0  0  0  0  0  0
  138.2787   70.9343  223.8412 H   0  0  0  0  0  0  0  0  0  0  0  0
  138.9894   70.0910  222.4163 H   0  0  0  0  0  0  0  0  0  0  0  0
  138.3091   68.5336  224.2710 H   0  0  0  0  0  0  0  0  0  0  0  0
  140.0623   68.4517  223.8547 H   0  0  0  0  0  0  0  0  0  0  0  0
  138.6068   67.6474  226.5122 H   0  0  0  0  0  0  0  0  0  0  0  0
  139.2459   68.1287  228.8754 H   0  0  0  0  0  0  0  0  0  0  0  0
  140.6513   70.1191  229.4100 H   0  0  0  0  0  0  0  0  0  0  0  0
  141.4222   71.6315  227.5848 H   0  0  0  0  0  0  0  0  0  0  0  0
  140.6414   72.4771  225.2134 H   0  0  0  0  0  0  0  0  0  0  0  0
  142.0083   71.3149  224.8623 H   0  0  0  0  0  0  0  0  0  0  0  0
  143.7293   71.8568  217.6078 H   0  0  0  0  0  0  0  0  0  0  0  0
  143.9710   72.9815  218.9842 H   0  0  0  0  0  0  0  0  0  0  0  0
  146.0069   71.5673  218.2959 H   0  0  0  0  0  0  0  0  0  0  0  0
  145.5236   71.5070  220.0458 H   0  0  0  0  0  0  0  0  0  0  0  0
  147.2903   69.4627  218.8395 H   0  0  0  0  0  0  0  0  0  0  0  0
  147.1759   66.9725  218.8292 H   0  0  0  0  0  0  0  0  0  0  0  0
  144.9660   65.8201  218.9324 H   0  0  0  0  0  0  0  0  0  0  0  0
  142.8635   67.1520  219.0692 H   0  0  0  0  0  0  0  0  0  0  0  0
  142.0945   69.7834  218.1174 H   0  0  0  0  0  0  0  0  0  0  0  0
  141.9518   69.4129  219.8805 H   0  0  0  0  0  0  0  0  0  0  0  0
  138.9164   76.0972  220.7961 H   0  0  0  0  0  0  0  0  0  0  0  0
  139.1186   75.2119  222.3538 H   0  0  0  0  0  0  0  0  0  0  0  0
  138.8957   77.7958  222.4653 H   0  0  0  0  0  0  0  0  0  0  0  0
  140.2634   77.0164  223.3688 H   0  0  0  0  0  0  0  0  0  0  0  0
  140.3740   82.6194  221.8818 H   0  0  0  0  0  0  0  0  0  0  0  0
  1  2  2  0
  2  3  1  0
  3  4  2  0
  4  5  1  0
  5  6  1  0
  6  7  1  0
  7  8  1  0
  8  9  1  0
  9 10  2  0
 10 11  1  0
 11 12  1  0
 12 13  1  0
 13 14  1  0
 14 15  1  0
 15 16  2  0
 16 17  1  0
 17 18  2  0
 18 19  1  0
 19 20  2  0
 20 21  1  0
 11 22  2  0
 22 23  1  0
 23 24  1  0
 24 25  1  0
 25 26  1  0
 26 27  1  0
 27 28  2  0
 28 29  1  0
 29 30  2  0
 30 31  1  0
 31 32  2  0
 32 33  1  0
 23 34  2  0
  8 35  1  0
 35 36  1  0
  4 37  1  0
 37 38  2  0
 38  1  1  0
 36  5  1  0
 34  9  1  0
 21 12  1  0
 33 24  1  0
 20 15  1  0
 32 27  1  0
  1 39  1  0
  2 40  1  0
  3 41  1  0
  6 42  1  0
  6 43  1  0
  7 44  1  0
  7 45  1  0
 13 46  1  0
 13 47  1  0
 14 48  1  0
 14 49  1  0
 16 50  1  0
 17 51  1  0
 18 52  1  0
 19 53  1  0
 21 54  1  0
 21 55  1  0
 25 56  1  0
 25 57  1  0
 26 58  1  0
 26 59  1  0
 28 60  1  0
 29 61  1  0
 30 62  1  0
 31 63  1  0
 33 64  1  0
 33 65  1  0
 35 66  1  0
 35 67  1  0
 36 68  1  0
 36 69  1  0
 38 70  1  0
M  END
>  <UniqueID>  (12) 
47

>  <SMILES>  (12) 
c1ccc(N2CCN(c3nc(N4CCc5ccccc5C4)nc(N4CCc5ccccc5C4)n3)CC2)nc1

>  <Energy>  (12) 
86.52349933335694

>  <Genealogy>  (12) 
c1ccc(N2CCN(c3nc(N4CCc5ccccc5C4)nc(N4CCc5ccccc5C4)n3)CC2)nc1 (3D coordinates assigned)
c1ccc(N2CCN(c3nc(N4CCc5ccccc5C4)nc(N4CCc5ccccc5C4)n3)CC2)nc1 (nonaromatic ring conformer: 86.52349933335694 kcal/mol)

>  <smiles>  (12) 
c1ccc(N2CCN(c3nc(N4CCc5ccccc5C4)nc(N4CCc5ccccc5C4)n3)CC2)nc1

>  <score_type>  (12) 
oracle

>  <origin>  (12) 
autodockgpu

>  <m_score__min__energy>  (12) 
-10.69

>  <m_primary>  (12) 
energy

>  <meeko>  (12) 
{"free_energy": -10.69, "intermolecular_energy": -11.88, "internal_energy": -1.05, "cluster_size": 20, "cluster_id": 1, "rank_in_cluster": 1}

>  <energy>  (12) 
-10.54

>  <cluster_rmsd>  (12) 
0.25

>  <rmsd>  (12) 
269.35

>  <cluster>  (12) 
1

$$$$
QWCMPUPUGDWNGO-UHFFFAOYNA-N
     RDKit          3D

 70 76  0  0  0  0  0  0  0  0999 V2000
  141.8360   82.0090  223.1160 C   0  0  0  0  0  0  0  0  0  0  0  0
  142.4700   80.8750  223.6260 C   0  0  0  0  0  0  0  0  0  0  0  0
  142.1330   79.6100  223.1420 C   0  0  0  0  0  0  0  0  0  0  0  0
  141.1630   79.4930  222.1310 C   0  0  0  0  0  0  0  0  0  0  0  0
  140.7800   78.2050  221.6050 N   0  0  0  0  0  0  0  0  0  0  0  0
  141.3560   77.6800  220.3610 C   0  0  0  0  0  0  0  0  0  0  0  0
  141.7960   76.2310  220.5790 C   0  0  0  0  0  0  0  0  0  0  0  0
  140.7460   75.4410  221.2410 N   0  0  0  0  0  0  0  0  0  0  0  0
  140.9560   74.0280  221.4430 C   0  0  0  0  0  0  0  0  0  0  0  0
  141.8740   73.3630  220.6930 N   0  0  0  0  0  0  0  0  0  0  0  0
  142.1010   72.0370  220.8850 C   0  0  0  0  0  0  0  0  0  0  0  0
  143.0770   71.3330  220.0860 N   0  0  0  0  0  0  0  0  0  0  0  0
  144.0940   72.0770  219.3270 C   0  0  0  0  0  0  0  0  0  0  0  0
  145.4210   71.3290  219.3500 C   0  0  0  0  0  0  0  0  0  0  0  0
  145.2370   69.9180  218.8730 C   0  0  0  0  0  0  0  0  0  0  0  0
  146.2980   69.2520  218.2370 C   0  0  0  0  0  0  0  0  0  0  0  0
  146.1500   67.9240  217.8260 C   0  0  0  0  0  0  0  0  0  0  0  0
  144.9530   67.2480  218.0620 C   0  0  0  0  0  0  0  0  0  0  0  0
  143.8990   67.8970  218.7110 C   0  0  0  0  0  0  0  0  0  0  0  0
  144.0300   69.2330  219.1190 C   0  0  0  0  0  0  0  0  0  0  0  0
  142.8700   69.8960  219.8280 C   0  0  0  0  0  0  0  0  0  0  0  0
  141.3960   71.3780  221.8410 N   0  0  0  0  0  0  0  0  0  0  0  0
  140.4690   72.0240  222.5940 C   0  0  0  0  0  0  0  0  0  0  0  0
  139.7190   71.3090  223.6000 N   0  0  0  0  0  0  0  0  0  0  0  0
  138.6950   70.3230  223.2390 C   0  0  0  0  0  0  0  0  0  0  0  0
  139.1320   68.9430  223.7320 C   0  0  0  0  0  0  0  0  0  0  0  0
  139.6420   68.9810  225.1570 C   0  0  0  0  0  0  0  0  0  0  0  0
  139.7610   67.7770  225.8690 C   0  0  0  0  0  0  0  0  0  0  0  0
  140.2840   67.7700  227.1660 C   0  0  0  0  0  0  0  0  0  0  0  0
  140.6980   68.9630  227.7600 C   0  0  0  0  0  0  0  0  0  0  0  0
  140.6010   70.1670  227.0580 C   0  0  0  0  0  0  0  0  0  0  0  0
  140.0930   70.1870  225.7500 C   0  0  0  0  0  0  0  0  0  0  0  0
  139.9700   71.5100  225.0320 C   0  0  0  0  0  0  0  0  0  0  0  0
  140.2540   73.3490  222.3870 N   0  0  0  0  0  0  0  0  0  0  0  0
  139.4740   76.0810  221.6180 C   0  0  0  0  0  0  0  0  0  0  0  0
  139.7370   77.4340  222.2980 C   0  0  0  0  0  0  0  0  0  0  0  0
  140.5460   80.6190  221.6700 N   0  0  0  0  0  0  0  0  0  0  0  0
  140.8630   81.8590  222.1290 C   0  0  0  0  0  0  0  0  0  0  0  0
  142.1010   83.0095  223.4885 H   0  0  0  0  0  0  0  0  0  0  0  0
  143.2353   80.9782  224.4094 H   0  0  0  0  0  0  0  0  0  0  0  0
  142.6221   78.7123  223.5480 H   0  0  0  0  0  0  0  0  0  0  0  0
  140.6012   77.7184  219.5618 H   0  0  0  0  0  0  0  0  0  0  0  0
  142.2250   78.2892  220.0717 H   0  0  0  0  0  0  0  0  0  0  0  0
  142.0237   75.7763  219.6036 H   0  0  0  0  0  0  0  0  0  0  0  0
  142.6847   76.2346  221.2272 H   0  0  0  0  0  0  0  0  0  0  0  0
  143.7590   72.1903  218.2854 H   0  0  0  0  0  0  0  0  0  0  0  0
  144.2322   73.0664  219.7874 H   0  0  0  0  0  0  0  0  0  0  0  0
  146.1377   71.8429  218.6926 H   0  0  0  0  0  0  0  0  0  0  0  0
  145.8005   71.3091  220.3823 H   0  0  0  0  0  0  0  0  0  0  0  0
  147.2485   69.7773  218.0618 H   0  0  0  0  0  0  0  0  0  0  0  0
  146.9788   67.4114  217.3157 H   0  0  0  0  0  0  0  0  0  0  0  0
  144.8385   66.2033  217.7371 H   0  0  0  0  0  0  0  0  0  0  0  0
  142.9603   67.3567  218.9032 H   0  0  0  0  0  0  0  0  0  0  0  0
  141.9706   69.7809  219.2053 H   0  0  0  0  0  0  0  0  0  0  0  0
  142.7680   69.4048  220.8069 H   0  0  0  0  0  0  0  0  0  0  0  0
  137.7388   70.5962  223.7092 H   0  0  0  0  0  0  0  0  0  0  0  0
  138.5692   70.3030  222.1464 H   0  0  0  0  0  0  0  0  0  0  0  0
  138.2714   68.2597  223.6816 H   0  0  0  0  0  0  0  0  0  0  0  0
  139.9543   68.5985  223.0876 H   0  0  0  0  0  0  0  0  0  0  0  0
  139.4408   66.8330  225.4038 H   0  0  0  0  0  0  0  0  0  0  0  0
  140.3692   66.8228  227.7187 H   0  0  0  0  0  0  0  0  0  0  0  0
  141.1016   68.9554  228.7832 H   0  0  0  0  0  0  0  0  0  0  0  0
  140.9247   71.1047  227.5333 H   0  0  0  0  0  0  0  0  0  0  0  0
  139.1355   72.0794  225.4672 H   0  0  0  0  0  0  0  0  0  0  0  0
  140.9146   72.0616  225.1486 H   0  0  0  0  0  0  0  0  0  0  0  0
  138.8669   76.2410  220.7148 H   0  0  0  0  0  0  0  0  0  0  0  0
  138.9391   75.4258  222.3212 H   0  0  0  0  0  0  0  0  0  0  0  0
  138.8050   78.0182  222.2989 H   0  0  0  0  0  0  0  0  0  0  0  0
  140.0842   77.2374  223.3231 H   0  0  0  0  0  0  0  0  0  0  0  0
  140.3518   82.7437  221.7216 H   0  0  0  0  0  0  0  0  0  0  0  0
  1  2  2  0
  2  3  1  0
  3  4  2  0
  4  5  1  0
  5  6  1  0
  6  7  1  0
  7  8  1  0
  8  9  1  0
  9 10  2  0
 10 11  1  0
 11 12  1  0
 12 13  1  0
 13 14  1  0
 14 15  1  0
 15 16  2  0
 16 17  1  0
 17 18  2  0
 18 19  1  0
 19 20  2  0
 20 21  1  0
 11 22  2  0
 22 23  1  0
 23 24  1  0
 24 25  1  0
 25 26  1  0
 26 27  1  0
 27 28  2  0
 28 29  1  0
 29 30  2  0
 30 31  1  0
 31 32  2  0
 32 33  1  0
 23 34  2  0
  8 35  1  0
 35 36  1  0
  4 37  1  0
 37 38  2  0
 38  1  1  0
 36  5  1  0
 34  9  1  0
 21 12  1  0
 33 24  1  0
 20 15  1  0
 32 27  1  0
  1 39  1  0
  2 40  1  0
  3 41  1  0
  6 42  1  0
  6 43  1  0
  7 44  1  0
  7 45  1  0
 13 46  1  0
 13 47  1  0
 14 48  1  0
 14 49  1  0
 16 50  1  0
 17 51  1  0
 18 52  1  0
 19 53  1  0
 21 54  1  0
 21 55  1  0
 25 56  1  0
 25 57  1  0
 26 58  1  0
 26 59  1  0
 28 60  1  0
 29 61  1  0
 30 62  1  0
 31 63  1  0
 33 64  1  0
 33 65  1  0
 35 66  1  0
 35 67  1  0
 36 68  1  0
 36 69  1  0
 38 70  1  0
M  END
>  <UniqueID>  (13) 
47

>  <SMILES>  (13) 
c1ccc(N2CCN(c3nc(N4CCc5ccccc5C4)nc(N4CCc5ccccc5C4)n3)CC2)nc1

>  <Energy>  (13) 
86.52349933335694

>  <Genealogy>  (13) 
c1ccc(N2CCN(c3nc(N4CCc5ccccc5C4)nc(N4CCc5ccccc5C4)n3)CC2)nc1 (3D coordinates assigned)
c1ccc(N2CCN(c3nc(N4CCc5ccccc5C4)nc(N4CCc5ccccc5C4)n3)CC2)nc1 (nonaromatic ring conformer: 86.52349933335694 kcal/mol)

>  <smiles>  (13) 
c1ccc(N2CCN(c3nc(N4CCc5ccccc5C4)nc(N4CCc5ccccc5C4)n3)CC2)nc1

>  <score_type>  (13) 
oracle

>  <origin>  (13) 
autodockgpu

>  <m_score__min__energy>  (13) 
-10.69

>  <m_primary>  (13) 
energy

>  <meeko>  (13) 
{"free_energy": -10.42, "intermolecular_energy": -11.61, "internal_energy": -1.06, "cluster_size": 20, "cluster_id": 1, "rank_in_cluster": 14}

>  <energy>  (13) 
-10.52

>  <cluster_rmsd>  (13) 
0.27

>  <rmsd>  (13) 
269.37

>  <cluster>  (13) 
1

$$$$
QWCMPUPUGDWNGO-UHFFFAOYNA-N
     RDKit          3D

 70 76  0  0  0  0  0  0  0  0999 V2000
  142.1520   81.6740  223.4980 C   0  0  0  0  0  0  0  0  0  0  0  0
  140.9950   81.6470  222.7180 C   0  0  0  0  0  0  0  0  0  0  0  0
  140.5890   80.4570  222.1120 C   0  0  0  0  0  0  0  0  0  0  0  0
  141.3480   79.2890  222.3070 C   0  0  0  0  0  0  0  0  0  0  0  0
  140.9690   78.0380  221.6950 N   0  0  0  0  0  0  0  0  0  0  0  0
  141.5490   77.5970  220.4210 C   0  0  0  0  0  0  0  0  0  0  0  0
  141.9920   76.1380  220.5440 C   0  0  0  0  0  0  0  0  0  0  0  0
  140.9420   75.3040  221.1490 N   0  0  0  0  0  0  0  0  0  0  0  0
  141.1540   73.8810  221.2580 C   0  0  0  0  0  0  0  0  0  0  0  0
  140.6790   73.2030  222.3350 N   0  0  0  0  0  0  0  0  0  0  0  0
  140.8510   71.8590  222.4430 C   0  0  0  0  0  0  0  0  0  0  0  0
  140.3450   71.1410  223.5890 N   0  0  0  0  0  0  0  0  0  0  0  0
  139.1140   70.3430  223.4840 C   0  0  0  0  0  0  0  0  0  0  0  0
  139.2360   69.0720  224.3140 C   0  0  0  0  0  0  0  0  0  0  0  0
  139.6100   69.4030  225.7300 C   0  0  0  0  0  0  0  0  0  0  0  0
  139.2020   68.5590  226.7760 C   0  0  0  0  0  0  0  0  0  0  0  0
  139.5810   68.8360  228.0920 C   0  0  0  0  0  0  0  0  0  0  0  0
  140.3830   69.9430  228.3710 C   0  0  0  0  0  0  0  0  0  0  0  0
  140.8100   70.7770  227.3350 C   0  0  0  0  0  0  0  0  0  0  0  0
  140.4280   70.5170  226.0100 C   0  0  0  0  0  0  0  0  0  0  0  0
  140.9200   71.4370  224.9150 C   0  0  0  0  0  0  0  0  0  0  0  0
  141.5060   71.1960  221.4550 N   0  0  0  0  0  0  0  0  0  0  0  0
  141.9960   71.8590  220.3760 C   0  0  0  0  0  0  0  0  0  0  0  0
  142.7010   71.1420  219.3380 N   0  0  0  0  0  0  0  0  0  0  0  0
  143.7530   71.7810  218.5410 C   0  0  0  0  0  0  0  0  0  0  0  0
  145.0840   71.0810  218.8150 C   0  0  0  0  0  0  0  0  0  0  0  0
  144.9540   69.5730  218.7820 C   0  0  0  0  0  0  0  0  0  0  0  0
  146.1150   68.7910  218.6750 C   0  0  0  0  0  0  0  0  0  0  0  0
  146.0350   67.3960  218.7010 C   0  0  0  0  0  0  0  0  0  0  0  0
  144.7950   66.7680  218.8380 C   0  0  0  0  0  0  0  0  0  0  0  0
  143.6320   67.5320  218.9610 C   0  0  0  0  0  0  0  0  0  0  0  0
  143.7000   68.9340  218.9540 C   0  0  0  0  0  0  0  0  0  0  0  0
  142.4200   69.7290  219.0550 C   0  0  0  0  0  0  0  0  0  0  0  0
  141.8160   73.2020  220.2860 N   0  0  0  0  0  0  0  0  0  0  0  0
  139.6670   75.9160  221.5640 C   0  0  0  0  0  0  0  0  0  0  0  0
  139.9250   77.2210  222.3330 C   0  0  0  0  0  0  0  0  0  0  0  0
  142.4850   79.3530  223.0570 N   0  0  0  0  0  0  0  0  0  0  0  0
  142.8940   80.5040  223.6550 C   0  0  0  0  0  0  0  0  0  0  0  0
  142.4746   82.6071  223.9831 H   0  0  0  0  0  0  0  0  0  0  0  0
  140.4029   82.5638  222.5808 H   0  0  0  0  0  0  0  0  0  0  0  0
  139.6837   80.4328  221.4876 H   0  0  0  0  0  0  0  0  0  0  0  0
  140.7959   77.6862  219.6242 H   0  0  0  0  0  0  0  0  0  0  0  0
  142.4173   78.2258  220.1747 H   0  0  0  0  0  0  0  0  0  0  0  0
  142.2237   75.7492  219.5414 H   0  0  0  0  0  0  0  0  0  0  0  0
  142.8789   76.1006  221.1936 H   0  0  0  0  0  0  0  0  0  0  0  0
  138.2642   70.9366  223.8520 H   0  0  0  0  0  0  0  0  0  0  0  0
  138.9540   70.0688  222.4308 H   0  0  0  0  0  0  0  0  0  0  0  0
  138.2721   68.5421  224.3085 H   0  0  0  0  0  0  0  0  0  0  0  0
  140.0205   68.4361  223.8780 H   0  0  0  0  0  0  0  0  0  0  0  0
  138.5819   67.6769  226.5583 H   0  0  0  0  0  0  0  0  0  0  0  0
  139.2465   68.1802  228.9094 H   0  0  0  0  0  0  0  0  0  0  0  0
  140.6794   70.1593  229.4080 H   0  0  0  0  0  0  0  0  0  0  0  0
  141.4499   71.6432  227.5593 H   0  0  0  0  0  0  0  0  0  0  0  0
  140.6565   72.4703  225.1850 H   0  0  0  0  0  0  0  0  0  0  0  0
  142.0070   71.2885  224.8345 H   0  0  0  0  0  0  0  0  0  0  0  0
  143.5067   71.6983  217.4721 H   0  0  0  0  0  0  0  0  0  0  0  0
  143.8305   72.8437  218.8141 H   0  0  0  0  0  0  0  0  0  0  0  0
  145.8113   71.3908  218.0501 H   0  0  0  0  0  0  0  0  0  0  0  0
  145.4162   71.3695  219.8232 H   0  0  0  0  0  0  0  0  0  0  0  0
  147.0948   69.2798  218.5699 H   0  0  0  0  0  0  0  0  0  0  0  0
  146.9500   66.7917  218.6134 H   0  0  0  0  0  0  0  0  0  0  0  0
  144.7341   65.6697  218.8491 H   0  0  0  0  0  0  0  0  0  0  0  0
  142.6575   67.0322  219.0639 H   0  0  0  0  0  0  0  0  0  0  0  0
  141.8737   69.6542  218.1032 H   0  0  0  0  0  0  0  0  0  0  0  0
  141.8162   69.3193  219.8782 H   0  0  0  0  0  0  0  0  0  0  0  0
  139.0624   76.1346  220.6715 H   0  0  0  0  0  0  0  0  0  0  0  0
  139.1314   75.2146  222.2206 H   0  0  0  0  0  0  0  0  0  0  0  0
  138.9918   77.8022  222.3698 H   0  0  0  0  0  0  0  0  0  0  0  0
  140.2692   76.9579  223.3441 H   0  0  0  0  0  0  0  0  0  0  0  0
  143.8107   80.5119  224.2629 H   0  0  0  0  0  0  0  0  0  0  0  0
  1  2  2  0
  2  3  1  0
  3  4  2  0
  4  5  1  0
  5  6  1  0
  6  7  1  0
  7  8  1  0
  8  9  1  0
  9 10  2  0
 10 11  1  0
 11 12  1  0
 12 13  1  0
 13 14  1  0
 14 15  1  0
 15 16  2  0
 16 17  1  0
 17 18  2  0
 18 19  1  0
 19 20  2  0
 20 21  1  0
 11 22  2  0
 22 23  1  0
 23 24  1  0
 24 25  1  0
 25 26  1  0
 26 27  1  0
 27 28  2  0
 28 29  1  0
 29 30  2  0
 30 31  1  0
 31 32  2  0
 32 33  1  0
 23 34  2  0
  8 35  1  0
 35 36  1  0
  4 37  1  0
 37 38  2  0
 38  1  1  0
 36  5  1  0
 34  9  1  0
 21 12  1  0
 33 24  1  0
 20 15  1  0
 32 27  1  0
  1 39  1  0
  2 40  1  0
  3 41  1  0
  6 42  1  0
  6 43  1  0
  7 44  1  0
  7 45  1  0
 13 46  1  0
 13 47  1  0
 14 48  1  0
 14 49  1  0
 16 50  1  0
 17 51  1  0
 18 52  1  0
 19 53  1  0
 21 54  1  0
 21 55  1  0
 25 56  1  0
 25 57  1  0
 26 58  1  0
 26 59  1  0
 28 60  1  0
 29 61  1  0
 30 62  1  0
 31 63  1  0
 33 64  1  0
 33 65  1  0
 35 66  1  0
 35 67  1  0
 36 68  1  0
 36 69  1  0
 38 70  1  0
M  END
>  <UniqueID>  (14) 
47

>  <SMILES>  (14) 
c1ccc(N2CCN(c3nc(N4CCc5ccccc5C4)nc(N4CCc5ccccc5C4)n3)CC2)nc1

>  <Energy>  (14) 
86.52349933335694

>  <Genealogy>  (14) 
c1ccc(N2CCN(c3nc(N4CCc5ccccc5C4)nc(N4CCc5ccccc5C4)n3)CC2)nc1 (3D coordinates assigned)
c1ccc(N2CCN(c3nc(N4CCc5ccccc5C4)nc(N4CCc5ccccc5C4)n3)CC2)nc1 (nonaromatic ring conformer: 86.52349933335694 kcal/mol)

>  <smiles>  (14) 
c1ccc(N2CCN(c3nc(N4CCc5ccccc5C4)nc(N4CCc5ccccc5C4)n3)CC2)nc1

>  <score_type>  (14) 
oracle

>  <origin>  (14) 
autodockgpu

>  <m_score__min__energy>  (14) 
-10.69

>  <m_primary>  (14) 
energy

>  <meeko>  (14) 
{"free_energy": -10.58, "intermolecular_energy": -11.77, "internal_energy": -1.04, "cluster_size": 20, "cluster_id": 1, "rank_in_cluster": 11}

>  <energy>  (14) 
-10.42

>  <cluster_rmsd>  (14) 
0.61

>  <rmsd>  (14) 
269.39

>  <cluster>  (14) 
1

$$$$
QWCMPUPUGDWNGO-UHFFFAOYNA-N
     RDKit          3D

 70 76  0  0  0  0  0  0  0  0999 V2000
  141.8160   81.6600  223.3990 C   0  0  0  0  0  0  0  0  0  0  0  0
  142.6900   80.5860  223.5720 C   0  0  0  0  0  0  0  0  0  0  0  0
  142.4090   79.3550  222.9770 C   0  0  0  0  0  0  0  0  0  0  0  0
  141.2500   79.2150  222.1930 C   0  0  0  0  0  0  0  0  0  0  0  0
  140.9180   77.9600  221.5640 N   0  0  0  0  0  0  0  0  0  0  0  0
  141.5860   77.5150  220.3340 C   0  0  0  0  0  0  0  0  0  0  0  0
  142.0240   76.0580  220.4940 C   0  0  0  0  0  0  0  0  0  0  0  0
  140.9360   75.2230  221.0300 N   0  0  0  0  0  0  0  0  0  0  0  0
  141.1450   73.8020  221.1600 C   0  0  0  0  0  0  0  0  0  0  0  0
  140.6730   73.1420  222.2500 N   0  0  0  0  0  0  0  0  0  0  0  0
  140.8400   71.7990  222.3780 C   0  0  0  0  0  0  0  0  0  0  0  0
  140.3370   71.1000  223.5370 N   0  0  0  0  0  0  0  0  0  0  0  0
  139.1200   70.2810  223.4420 C   0  0  0  0  0  0  0  0  0  0  0  0
  139.2570   69.0320  224.3030 C   0  0  0  0  0  0  0  0  0  0  0  0
  139.6140   69.4020  225.7130 C   0  0  0  0  0  0  0  0  0  0  0  0
  139.2110   68.5780  226.7760 C   0  0  0  0  0  0  0  0  0  0  0  0
  139.5750   68.8920  228.0880 C   0  0  0  0  0  0  0  0  0  0  0  0
  140.3570   70.0190  228.3470 C   0  0  0  0  0  0  0  0  0  0  0  0
  140.7780   70.8350  227.2940 C   0  0  0  0  0  0  0  0  0  0  0  0
  140.4110   70.5360  225.9720 C   0  0  0  0  0  0  0  0  0  0  0  0
  140.8960   71.4380  224.8590 C   0  0  0  0  0  0  0  0  0  0  0  0
  141.4900   71.1190  221.3980 N   0  0  0  0  0  0  0  0  0  0  0  0
  141.9770   71.7630  220.3050 C   0  0  0  0  0  0  0  0  0  0  0  0
  142.6750   71.0290  219.2770 N   0  0  0  0  0  0  0  0  0  0  0  0
  143.7110   71.6570  218.4510 C   0  0  0  0  0  0  0  0  0  0  0  0
  145.0520   70.9750  218.7250 C   0  0  0  0  0  0  0  0  0  0  0  0
  144.9350   69.4660  218.7280 C   0  0  0  0  0  0  0  0  0  0  0  0
  146.1020   68.6930  218.6250 C   0  0  0  0  0  0  0  0  0  0  0  0
  146.0350   67.2970  218.6850 C   0  0  0  0  0  0  0  0  0  0  0  0
  144.8030   66.6630  218.8530 C   0  0  0  0  0  0  0  0  0  0  0  0
  143.6340   67.4190  218.9730 C   0  0  0  0  0  0  0  0  0  0  0  0
  143.6890   68.8210  218.9320 C   0  0  0  0  0  0  0  0  0  0  0  0
  142.4030   69.6070  219.0300 C   0  0  0  0  0  0  0  0  0  0  0  0
  141.8010   73.1050  220.1950 N   0  0  0  0  0  0  0  0  0  0  0  0
  139.6350   75.8330  221.3530 C   0  0  0  0  0  0  0  0  0  0  0  0
  139.8350   77.1430  222.1320 C   0  0  0  0  0  0  0  0  0  0  0  0
  140.4060   80.2780  222.0620 N   0  0  0  0  0  0  0  0  0  0  0  0
  140.6640   81.4840  222.6340 C   0  0  0  0  0  0  0  0  0  0  0  0
  142.0336   82.6343  223.8610 H   0  0  0  0  0  0  0  0  0  0  0  0
  143.6002   80.7095  224.1772 H   0  0  0  0  0  0  0  0  0  0  0  0
  143.0883   78.5017  223.1201 H   0  0  0  0  0  0  0  0  0  0  0  0
  140.8891   77.5981  219.4869 H   0  0  0  0  0  0  0  0  0  0  0  0
  142.4673   78.1456  220.1450 H   0  0  0  0  0  0  0  0  0  0  0  0
  142.3251   75.6654  219.5116 H   0  0  0  0  0  0  0  0  0  0  0  0
  142.8646   76.0262  221.2028 H   0  0  0  0  0  0  0  0  0  0  0  0
  138.2582   70.8693  223.7901 H   0  0  0  0  0  0  0  0  0  0  0  0
  138.9712   69.9799  222.3945 H   0  0  0  0  0  0  0  0  0  0  0  0
  138.3023   68.4857  224.3028 H   0  0  0  0  0  0  0  0  0  0  0  0
  140.0558   68.3998  223.8880 H   0  0  0  0  0  0  0  0  0  0  0  0
  138.6062   67.6815  226.5751 H   0  0  0  0  0  0  0  0  0  0  0  0
  139.2448   68.2501  228.9181 H   0  0  0  0  0  0  0  0  0  0  0  0
  140.6419   70.2647  229.3807 H   0  0  0  0  0  0  0  0  0  0  0  0
  141.4010   71.7174  227.5019 H   0  0  0  0  0  0  0  0  0  0  0  0
  140.6125   72.4727  225.1019 H   0  0  0  0  0  0  0  0  0  0  0  0
  141.9860   71.3070  224.7905 H   0  0  0  0  0  0  0  0  0  0  0  0
  143.4518   71.5459  217.3878 H   0  0  0  0  0  0  0  0  0  0  0  0
  143.7826   72.7268  218.6968 H   0  0  0  0  0  0  0  0  0  0  0  0
  145.7674   71.2734  217.9445 H   0  0  0  0  0  0  0  0  0  0  0  0
  145.3937   71.2895  219.7221 H   0  0  0  0  0  0  0  0  0  0  0  0
  147.0758   69.1882  218.4962 H   0  0  0  0  0  0  0  0  0  0  0  0
  146.9540   66.6985  218.5997 H   0  0  0  0  0  0  0  0  0  0  0  0
  144.7521   65.5648  218.8910 H   0  0  0  0  0  0  0  0  0  0  0  0
  142.6657   66.9129  219.1003 H   0  0  0  0  0  0  0  0  0  0  0  0
  141.8462   69.5054  218.0868 H   0  0  0  0  0  0  0  0  0  0  0  0
  141.8125   69.2113  219.8695 H   0  0  0  0  0  0  0  0  0  0  0  0
  139.0929   76.0456  220.4198 H   0  0  0  0  0  0  0  0  0  0  0  0
  139.0577   75.1330  221.9749 H   0  0  0  0  0  0  0  0  0  0  0  0
  138.8998   77.7213  222.1010 H   0  0  0  0  0  0  0  0  0  0  0  0
  140.1088   76.8859  223.1659 H   0  0  0  0  0  0  0  0  0  0  0  0
  139.9639   82.3207  222.4932 H   0  0  0  0  0  0  0  0  0  0  0  0
  1  2  2  0
  2  3  1  0
  3  4  2  0
  4  5  1  0
  5  6  1  0
  6  7  1  0
  7  8  1  0
  8  9  1  0
  9 10  2  0
 10 11  1  0
 11 12  1  0
 12 13  1  0
 13 14  1  0
 14 15  1  0
 15 16  2  0
 16 17  1  0
 17 18  2  0
 18 19  1  0
 19 20  2  0
 20 21  1  0
 11 22  2  0
 22 23  1  0
 23 24  1  0
 24 25  1  0
 25 26  1  0
 26 27  1  0
 27 28  2  0
 28 29  1  0
 29 30  2  0
 30 31  1  0
 31 32  2  0
 32 33  1  0
 23 34  2  0
  8 35  1  0
 35 36  1  0
  4 37  1  0
 37 38  2  0
 38  1  1  0
 36  5  1  0
 34  9  1  0
 21 12  1  0
 33 24  1  0
 20 15  1  0
 32 27  1  0
  1 39  1  0
  2 40  1  0
  3 41  1  0
  6 42  1  0
  6 43  1  0
  7 44  1  0
  7 45  1  0
 13 46  1  0
 13 47  1  0
 14 48  1  0
 14 49  1  0
 16 50  1  0
 17 51  1  0
 18 52  1  0
 19 53  1  0
 21 54  1  0
 21 55  1  0
 25 56  1  0
 25 57  1  0
 26 58  1  0
 26 59  1  0
 28 60  1  0
 29 61  1  0
 30 62  1  0
 31 63  1  0
 33 64  1  0
 33 65  1  0
 35 66  1  0
 35 67  1  0
 36 68  1  0
 36 69  1  0
 38 70  1  0
M  END
>  <UniqueID>  (15) 
47

>  <SMILES>  (15) 
c1ccc(N2CCN(c3nc(N4CCc5ccccc5C4)nc(N4CCc5ccccc5C4)n3)CC2)nc1

>  <Energy>  (15) 
86.52349933335694

>  <Genealogy>  (15) 
c1ccc(N2CCN(c3nc(N4CCc5ccccc5C4)nc(N4CCc5ccccc5C4)n3)CC2)nc1 (3D coordinates assigned)
c1ccc(N2CCN(c3nc(N4CCc5ccccc5C4)nc(N4CCc5ccccc5C4)n3)CC2)nc1 (nonaromatic ring conformer: 86.52349933335694 kcal/mol)

>  <smiles>  (15) 
c1ccc(N2CCN(c3nc(N4CCc5ccccc5C4)nc(N4CCc5ccccc5C4)n3)CC2)nc1

>  <score_type>  (15) 
oracle

>  <origin>  (15) 
autodockgpu

>  <m_score__min__energy>  (15) 
-10.69

>  <m_primary>  (15) 
energy

>  <meeko>  (15) 
{"free_energy": -10.52, "intermolecular_energy": -11.71, "internal_energy": -1.04, "cluster_size": 20, "cluster_id": 1, "rank_in_cluster": 13}

>  <energy>  (15) 
-10.41

>  <cluster_rmsd>  (15) 
0.61

>  <rmsd>  (15) 
269.37

>  <cluster>  (15) 
1

$$$$
QWCMPUPUGDWNGO-UHFFFAOYNA-N
     RDKit          3D

 70 76  0  0  0  0  0  0  0  0999 V2000
  146.6830   66.7440  218.2140 C   0  0  0  0  0  0  0  0  0  0  0  0
  146.2870   67.4900  217.1030 C   0  0  0  0  0  0  0  0  0  0  0  0
  145.5300   68.6500  217.2760 C   0  0  0  0  0  0  0  0  0  0  0  0
  145.1860   69.0630  218.5740 C   0  0  0  0  0  0  0  0  0  0  0  0
  144.4010   70.2530  218.7990 N   0  0  0  0  0  0  0  0  0  0  0  0
  143.1320   70.4820  218.0980 C   0  0  0  0  0  0  0  0  0  0  0  0
  142.0670   70.9180  219.1060 C   0  0  0  0  0  0  0  0  0  0  0  0
  142.5670   71.9810  219.9930 N   0  0  0  0  0  0  0  0  0  0  0  0
  141.6640   72.5770  220.9480 C   0  0  0  0  0  0  0  0  0  0  0  0
  141.4110   73.9110  220.9020 N   0  0  0  0  0  0  0  0  0  0  0  0
  140.5460   74.4860  221.7790 C   0  0  0  0  0  0  0  0  0  0  0  0
  140.2780   75.9040  221.7280 N   0  0  0  0  0  0  0  0  0  0  0  0
  138.9100   76.4110  221.9140 C   0  0  0  0  0  0  0  0  0  0  0  0
  138.9320   77.7140  222.7020 C   0  0  0  0  0  0  0  0  0  0  0  0
  139.8500   78.7070  222.0490 C   0  0  0  0  0  0  0  0  0  0  0  0
  139.5980   80.0830  222.1800 C   0  0  0  0  0  0  0  0  0  0  0  0
  140.4690   81.0150  221.6110 C   0  0  0  0  0  0  0  0  0  0  0  0
  141.6040   80.5840  220.9240 C   0  0  0  0  0  0  0  0  0  0  0  0
  141.8730   79.2180  220.8050 C   0  0  0  0  0  0  0  0  0  0  0  0
  141.0010   78.2700  221.3620 C   0  0  0  0  0  0  0  0  0  0  0  0
  141.3330   76.8010  221.2210 C   0  0  0  0  0  0  0  0  0  0  0  0
  139.9330   73.7070  222.7080 N   0  0  0  0  0  0  0  0  0  0  0  0
  140.1820   72.3740  222.7740 C   0  0  0  0  0  0  0  0  0  0  0  0
  139.5310   71.5600  223.7750 N   0  0  0  0  0  0  0  0  0  0  0  0
  138.3730   70.7210  223.4500 C   0  0  0  0  0  0  0  0  0  0  0  0
  138.7450   69.2530  223.6530 C   0  0  0  0  0  0  0  0  0  0  0  0
  139.4720   69.0220  224.9600 C   0  0  0  0  0  0  0  0  0  0  0  0
  139.5830   67.7140  225.4570 C   0  0  0  0  0  0  0  0  0  0  0  0
  140.2980   67.4590  226.6310 C   0  0  0  0  0  0  0  0  0  0  0  0
  140.9120   68.5080  227.3170 C   0  0  0  0  0  0  0  0  0  0  0  0
  140.8250   69.8140  226.8280 C   0  0  0  0  0  0  0  0  0  0  0  0
  140.1240   70.0810  225.6410 C   0  0  0  0  0  0  0  0  0  0  0  0
  140.0200   71.5090  225.1580 C   0  0  0  0  0  0  0  0  0  0  0  0
  141.0490   71.8170  221.8910 N   0  0  0  0  0  0  0  0  0  0  0  0
  143.9490   72.4700  219.8450 C   0  0  0  0  0  0  0  0  0  0  0  0
  144.9220   71.2900  219.7030 C   0  0  0  0  0  0  0  0  0  0  0  0
  145.5710   68.3000  219.6380 N   0  0  0  0  0  0  0  0  0  0  0  0
  146.3090   67.1680  219.4880 C   0  0  0  0  0  0  0  0  0  0  0  0
  147.2837   65.8315  218.0857 H   0  0  0  0  0  0  0  0  0  0  0  0
  146.5712   67.1641  216.0916 H   0  0  0  0  0  0  0  0  0  0  0  0
  145.2055   69.2358  216.4033 H   0  0  0  0  0  0  0  0  0  0  0  0
  143.2669   71.2701  217.3425 H   0  0  0  0  0  0  0  0  0  0  0  0
  142.8120   69.5528  217.6038 H   0  0  0  0  0  0  0  0  0  0  0  0
  141.1891   71.2923  218.5591 H   0  0  0  0  0  0  0  0  0  0  0  0
  141.8011   70.0485  219.7251 H   0  0  0  0  0  0  0  0  0  0  0  0
  138.4523   76.5898  220.9299 H   0  0  0  0  0  0  0  0  0  0  0  0
  138.3247   75.6652  222.4719 H   0  0  0  0  0  0  0  0  0  0  0  0
  137.9150   78.1315  222.7400 H   0  0  0  0  0  0  0  0  0  0  0  0
  139.2954   77.5087  223.7197 H   0  0  0  0  0  0  0  0  0  0  0  0
  138.7115   80.4276  222.7327 H   0  0  0  0  0  0  0  0  0  0  0  0
  140.2595   82.0908  221.7048 H   0  0  0  0  0  0  0  0  0  0  0  0
  142.2877   81.3199  220.4757 H   0  0  0  0  0  0  0  0  0  0  0  0
  142.7746   78.8834  220.2710 H   0  0  0  0  0  0  0  0  0  0  0  0
  141.4927   76.5817  220.1550 H   0  0  0  0  0  0  0  0  0  0  0  0
  142.2321   76.6148  221.8268 H   0  0  0  0  0  0  0  0  0  0  0  0
  137.5323   70.9824  224.1095 H   0  0  0  0  0  0  0  0  0  0  0  0
  138.0780   70.8867  222.4033 H   0  0  0  0  0  0  0  0  0  0  0  0
  137.8246   68.6506  223.6485 H   0  0  0  0  0  0  0  0  0  0  0  0
  139.4199   68.9599  222.8353 H   0  0  0  0  0  0  0  0  0  0  0  0
  139.1037   66.8831  224.9186 H   0  0  0  0  0  0  0  0  0  0  0  0
  140.3767   66.4310  227.0143 H   0  0  0  0  0  0  0  0  0  0  0  0
  141.4661   68.3060  228.2455 H   0  0  0  0  0  0  0  0  0  0  0  0
  141.3079   70.6368  227.3755 H   0  0  0  0  0  0  0  0  0  0  0  0
  139.3226   72.0588  225.8071 H   0  0  0  0  0  0  0  0  0  0  0  0
  141.0200   71.9659  225.1942 H   0  0  0  0  0  0  0  0  0  0  0  0
  144.0151   73.1042  218.9486 H   0  0  0  0  0  0  0  0  0  0  0  0
  144.2199   73.0503  220.7393 H   0  0  0  0  0  0  0  0  0  0  0  0
  145.8766   71.6628  219.3034 H   0  0  0  0  0  0  0  0  0  0  0  0
  145.0565   70.8385  220.6970 H   0  0  0  0  0  0  0  0  0  0  0  0
  146.6109   66.5869  220.3719 H   0  0  0  0  0  0  0  0  0  0  0  0
  1  2  2  0
  2  3  1  0
  3  4  2  0
  4  5  1  0
  5  6  1  0
  6  7  1  0
  7  8  1  0
  8  9  1  0
  9 10  2  0
 10 11  1  0
 11 12  1  0
 12 13  1  0
 13 14  1  0
 14 15  1  0
 15 16  2  0
 16 17  1  0
 17 18  2  0
 18 19  1  0
 19 20  2  0
 20 21  1  0
 11 22  2  0
 22 23  1  0
 23 24  1  0
 24 25  1  0
 25 26  1  0
 26 27  1  0
 27 28  2  0
 28 29  1  0
 29 30  2  0
 30 31  1  0
 31 32  2  0
 32 33  1  0
 23 34  2  0
  8 35  1  0
 35 36  1  0
  4 37  1  0
 37 38  2  0
 38  1  1  0
 36  5  1  0
 34  9  1  0
 21 12  1  0
 33 24  1  0
 20 15  1  0
 32 27  1  0
  1 39  1  0
  2 40  1  0
  3 41  1  0
  6 42  1  0
  6 43  1  0
  7 44  1  0
  7 45  1  0
 13 46  1  0
 13 47  1  0
 14 48  1  0
 14 49  1  0
 16 50  1  0
 17 51  1  0
 18 52  1  0
 19 53  1  0
 21 54  1  0
 21 55  1  0
 25 56  1  0
 25 57  1  0
 26 58  1  0
 26 59  1  0
 28 60  1  0
 29 61  1  0
 30 62  1  0
 31 63  1  0
 33 64  1  0
 33 65  1  0
 35 66  1  0
 35 67  1  0
 36 68  1  0
 36 69  1  0
 38 70  1  0
M  END
>  <UniqueID>  (16) 
47

>  <SMILES>  (16) 
c1ccc(N2CCN(c3nc(N4CCc5ccccc5C4)nc(N4CCc5ccccc5C4)n3)CC2)nc1

>  <Energy>  (16) 
86.52349933335694

>  <Genealogy>  (16) 
c1ccc(N2CCN(c3nc(N4CCc5ccccc5C4)nc(N4CCc5ccccc5C4)n3)CC2)nc1 (3D coordinates assigned)
c1ccc(N2CCN(c3nc(N4CCc5ccccc5C4)nc(N4CCc5ccccc5C4)n3)CC2)nc1 (nonaromatic ring conformer: 86.52349933335694 kcal/mol)

>  <smiles>  (16) 
c1ccc(N2CCN(c3nc(N4CCc5ccccc5C4)nc(N4CCc5ccccc5C4)n3)CC2)nc1

>  <score_type>  (16) 
oracle

>  <origin>  (16) 
autodockgpu

>  <m_score__min__energy>  (16) 
-10.69

>  <m_primary>  (16) 
energy

>  <meeko>  (16) 
{"free_energy": -10.14, "intermolecular_energy": -11.33, "internal_energy": -1.02, "cluster_size": 20, "cluster_id": 1, "rank_in_cluster": 18}

>  <energy>  (16) 
-10.33

>  <cluster_rmsd>  (16) 
1.48

>  <rmsd>  (16) 
269.16

>  <cluster>  (16) 
1

$$$$
QWCMPUPUGDWNGO-UHFFFAOYNA-N
     RDKit          3D

 70 76  0  0  0  0  0  0  0  0999 V2000
  141.8260   81.7320  223.2030 C   0  0  0  0  0  0  0  0  0  0  0  0
  142.4330   80.5790  223.7040 C   0  0  0  0  0  0  0  0  0  0  0  0
  142.1360   79.3350  223.1470 C   0  0  0  0  0  0  0  0  0  0  0  0
  141.2330   79.2570  222.0720 C   0  0  0  0  0  0  0  0  0  0  0  0
  140.8930   77.9920  221.4680 N   0  0  0  0  0  0  0  0  0  0  0  0
  141.5370   77.5300  220.2330 C   0  0  0  0  0  0  0  0  0  0  0  0
  141.9840   76.0770  220.4060 C   0  0  0  0  0  0  0  0  0  0  0  0
  140.9110   75.2470  220.9770 N   0  0  0  0  0  0  0  0  0  0  0  0
  141.1280   73.8280  221.1240 C   0  0  0  0  0  0  0  0  0  0  0  0
  140.6500   73.1770  222.2180 N   0  0  0  0  0  0  0  0  0  0  0  0
  140.8260   71.8370  222.3620 C   0  0  0  0  0  0  0  0  0  0  0  0
  140.3170   71.1480  223.5250 N   0  0  0  0  0  0  0  0  0  0  0  0
  139.1010   70.3260  223.4310 C   0  0  0  0  0  0  0  0  0  0  0  0
  139.2350   69.0850  224.3040 C   0  0  0  0  0  0  0  0  0  0  0  0
  139.5850   69.4690  225.7120 C   0  0  0  0  0  0  0  0  0  0  0  0
  139.1770   68.6530  226.7800 C   0  0  0  0  0  0  0  0  0  0  0  0
  139.5340   68.9790  228.0910 C   0  0  0  0  0  0  0  0  0  0  0  0
  140.3130   70.1090  228.3440 C   0  0  0  0  0  0  0  0  0  0  0  0
  140.7390   70.9160  227.2860 C   0  0  0  0  0  0  0  0  0  0  0  0
  140.3790   70.6060  225.9650 C   0  0  0  0  0  0  0  0  0  0  0  0
  140.8690   71.4980  224.8470 C   0  0  0  0  0  0  0  0  0  0  0  0
  141.4880   71.1500  221.3950 N   0  0  0  0  0  0  0  0  0  0  0  0
  141.9800   71.7860  220.3000 C   0  0  0  0  0  0  0  0  0  0  0  0
  142.6910   71.0440  219.2850 N   0  0  0  0  0  0  0  0  0  0  0  0
  143.7620   71.6580  218.4930 C   0  0  0  0  0  0  0  0  0  0  0  0
  145.0810   70.9480  218.7980 C   0  0  0  0  0  0  0  0  0  0  0  0
  144.9340   69.4410  218.7870 C   0  0  0  0  0  0  0  0  0  0  0  0
  146.0880   68.6450  218.7110 C   0  0  0  0  0  0  0  0  0  0  0  0
  145.9920   67.2510  218.7590 C   0  0  0  0  0  0  0  0  0  0  0  0
  144.7430   66.6400  218.8880 C   0  0  0  0  0  0  0  0  0  0  0  0
  143.5870   67.4180  218.9820 C   0  0  0  0  0  0  0  0  0  0  0  0
  143.6700   68.8190  218.9520 C   0  0  0  0  0  0  0  0  0  0  0  0
  142.3980   69.6300  219.0210 C   0  0  0  0  0  0  0  0  0  0  0  0
  141.7960   73.1250  220.1730 N   0  0  0  0  0  0  0  0  0  0  0  0
  139.6140   75.8570  221.3170 C   0  0  0  0  0  0  0  0  0  0  0  0
  139.8250   77.1790  222.0710 C   0  0  0  0  0  0  0  0  0  0  0  0
  140.6400   80.3990  221.6190 N   0  0  0  0  0  0  0  0  0  0  0  0
  140.9190   81.6200  222.1490 C   0  0  0  0  0  0  0  0  0  0  0  0
  142.0600   82.7166  223.6340 H   0  0  0  0  0  0  0  0  0  0  0  0
  143.1460   80.6515  224.5385 H   0  0  0  0  0  0  0  0  0  0  0  0
  142.6042   78.4228  223.5454 H   0  0  0  0  0  0  0  0  0  0  0  0
  140.8227   77.5975  219.3992 H   0  0  0  0  0  0  0  0  0  0  0  0
  142.4121   78.1604  220.0168 H   0  0  0  0  0  0  0  0  0  0  0  0
  142.2660   75.6704  219.4236 H   0  0  0  0  0  0  0  0  0  0  0  0
  142.8393   76.0590  221.0974 H   0  0  0  0  0  0  0  0  0  0  0  0
  138.2366   70.9163  223.7691 H   0  0  0  0  0  0  0  0  0  0  0  0
  138.9583   70.0152  222.3855 H   0  0  0  0  0  0  0  0  0  0  0  0
  138.2808   68.5378  224.3045 H   0  0  0  0  0  0  0  0  0  0  0  0
  140.0360   68.4493  223.8987 H   0  0  0  0  0  0  0  0  0  0  0  0
  138.5742   67.7540  226.5836 H   0  0  0  0  0  0  0  0  0  0  0  0
  139.2005   68.3440  228.9250 H   0  0  0  0  0  0  0  0  0  0  0  0
  140.5918   70.3644  229.3770 H   0  0  0  0  0  0  0  0  0  0  0  0
  141.3607   71.8003  227.4895 H   0  0  0  0  0  0  0  0  0  0  0  0
  140.5836   72.5346  225.0792 H   0  0  0  0  0  0  0  0  0  0  0  0
  141.9594   71.3670  224.7853 H   0  0  0  0  0  0  0  0  0  0  0  0
  143.5303   71.5603  217.4221 H   0  0  0  0  0  0  0  0  0  0  0  0
  143.8475   72.7242  218.7497 H   0  0  0  0  0  0  0  0  0  0  0  0
  145.8230   71.2373  218.0392 H   0  0  0  0  0  0  0  0  0  0  0  0
  145.4019   71.2491  219.8062 H   0  0  0  0  0  0  0  0  0  0  0  0
  147.0746   69.1214  218.6130 H   0  0  0  0  0  0  0  0  0  0  0  0
  146.9011   66.6350  218.6951 H   0  0  0  0  0  0  0  0  0  0  0  0
  144.6694   65.5428  218.9157 H   0  0  0  0  0  0  0  0  0  0  0  0
  142.6060   66.9302  219.0801 H   0  0  0  0  0  0  0  0  0  0  0  0
  141.8649   69.5457  218.0625 H   0  0  0  0  0  0  0  0  0  0  0  0
  141.7776   69.2408  219.8417 H   0  0  0  0  0  0  0  0  0  0  0  0
  139.0521   76.0531  220.3919 H   0  0  0  0  0  0  0  0  0  0  0  0
  139.0520   75.1647  221.9611 H   0  0  0  0  0  0  0  0  0  0  0  0
  138.8870   77.7532  222.0508 H   0  0  0  0  0  0  0  0  0  0  0  0
  140.1217   76.9387  223.1026 H   0  0  0  0  0  0  0  0  0  0  0  0
  140.4295   82.5192  221.7466 H   0  0  0  0  0  0  0  0  0  0  0  0
  1  2  2  0
  2  3  1  0
  3  4  2  0
  4  5  1  0
  5  6  1  0
  6  7  1  0
  7  8  1  0
  8  9  1  0
  9 10  2  0
 10 11  1  0
 11 12  1  0
 12 13  1  0
 13 14  1  0
 14 15  1  0
 15 16  2  0
 16 17  1  0
 17 18  2  0
 18 19  1  0
 19 20  2  0
 20 21  1  0
 11 22  2  0
 22 23  1  0
 23 24  1  0
 24 25  1  0
 25 26  1  0
 26 27  1  0
 27 28  2  0
 28 29  1  0
 29 30  2  0
 30 31  1  0
 31 32  2  0
 32 33  1  0
 23 34  2  0
  8 35  1  0
 35 36  1  0
  4 37  1  0
 37 38  2  0
 38  1  1  0
 36  5  1  0
 34  9  1  0
 21 12  1  0
 33 24  1  0
 20 15  1  0
 32 27  1  0
  1 39  1  0
  2 40  1  0
  3 41  1  0
  6 42  1  0
  6 43  1  0
  7 44  1  0
  7 45  1  0
 13 46  1  0
 13 47  1  0
 14 48  1  0
 14 49  1  0
 16 50  1  0
 17 51  1  0
 18 52  1  0
 19 53  1  0
 21 54  1  0
 21 55  1  0
 25 56  1  0
 25 57  1  0
 26 58  1  0
 26 59  1  0
 28 60  1  0
 29 61  1  0
 30 62  1  0
 31 63  1  0
 33 64  1  0
 33 65  1  0
 35 66  1  0
 35 67  1  0
 36 68  1  0
 36 69  1  0
 38 70  1  0
M  END
>  <UniqueID>  (17) 
47

>  <SMILES>  (17) 
c1ccc(N2CCN(c3nc(N4CCc5ccccc5C4)nc(N4CCc5ccccc5C4)n3)CC2)nc1

>  <Energy>  (17) 
86.52349933335694

>  <Genealogy>  (17) 
c1ccc(N2CCN(c3nc(N4CCc5ccccc5C4)nc(N4CCc5ccccc5C4)n3)CC2)nc1 (3D coordinates assigned)
c1ccc(N2CCN(c3nc(N4CCc5ccccc5C4)nc(N4CCc5ccccc5C4)n3)CC2)nc1 (nonaromatic ring conformer: 86.52349933335694 kcal/mol)

>  <smiles>  (17) 
c1ccc(N2CCN(c3nc(N4CCc5ccccc5C4)nc(N4CCc5ccccc5C4)n3)CC2)nc1

>  <score_type>  (17) 
oracle

>  <origin>  (17) 
autodockgpu

>  <m_score__min__energy>  (17) 
-10.69

>  <m_primary>  (17) 
energy

>  <meeko>  (17) 
{"free_energy": -10.54, "intermolecular_energy": -11.73, "internal_energy": -1.05, "cluster_size": 20, "cluster_id": 1, "rank_in_cluster": 12}

>  <energy>  (17) 
-10.26

>  <cluster_rmsd>  (17) 
1.54

>  <rmsd>  (17) 
269.03

>  <cluster>  (17) 
1

$$$$
QWCMPUPUGDWNGO-UHFFFAOYNA-N
     RDKit          3D

 70 76  0  0  0  0  0  0  0  0999 V2000
  146.6250   66.7790  218.0770 C   0  0  0  0  0  0  0  0  0  0  0  0
  146.1880   67.5280  216.9830 C   0  0  0  0  0  0  0  0  0  0  0  0
  145.4550   68.6970  217.1860 C   0  0  0  0  0  0  0  0  0  0  0  0
  145.1740   69.1180  218.4980 C   0  0  0  0  0  0  0  0  0  0  0  0
  144.4150   70.3180  218.7540 N   0  0  0  0  0  0  0  0  0  0  0  0
  143.1730   70.6130  218.0290 C   0  0  0  0  0  0  0  0  0  0  0  0
  142.0920   71.0340  219.0260 C   0  0  0  0  0  0  0  0  0  0  0  0
  142.5940   72.0420  219.9740 N   0  0  0  0  0  0  0  0  0  0  0  0
  141.6810   72.6210  220.9280 C   0  0  0  0  0  0  0  0  0  0  0  0
  141.4260   73.9560  220.9040 N   0  0  0  0  0  0  0  0  0  0  0  0
  140.5520   74.5140  221.7810 C   0  0  0  0  0  0  0  0  0  0  0  0
  140.2840   75.9330  221.7530 N   0  0  0  0  0  0  0  0  0  0  0  0
  139.4520   76.5120  220.6870 C   0  0  0  0  0  0  0  0  0  0  0  0
  138.5810   77.6290  221.2470 C   0  0  0  0  0  0  0  0  0  0  0  0
  139.4230   78.6460  221.9610 C   0  0  0  0  0  0  0  0  0  0  0  0
  139.0060   79.9860  222.0150 C   0  0  0  0  0  0  0  0  0  0  0  0
  139.7630   80.9310  222.7130 C   0  0  0  0  0  0  0  0  0  0  0  0
  140.9280   80.5430  223.3760 C   0  0  0  0  0  0  0  0  0  0  0  0
  141.3410   79.2090  223.3430 C   0  0  0  0  0  0  0  0  0  0  0  0
  140.5960   78.2510  222.6370 C   0  0  0  0  0  0  0  0  0  0  0  0
  141.0700   76.8150  222.6350 C   0  0  0  0  0  0  0  0  0  0  0  0
  139.9290   73.7190  222.6900 N   0  0  0  0  0  0  0  0  0  0  0  0
  140.1780   72.3840  222.7350 C   0  0  0  0  0  0  0  0  0  0  0  0
  139.5170   71.5520  223.7130 N   0  0  0  0  0  0  0  0  0  0  0  0
  138.3750   70.7050  223.3570 C   0  0  0  0  0  0  0  0  0  0  0  0
  138.7590   69.2380  223.5500 C   0  0  0  0  0  0  0  0  0  0  0  0
  139.4630   69.0010  224.8700 C   0  0  0  0  0  0  0  0  0  0  0  0
  139.5780   67.6880  225.3540 C   0  0  0  0  0  0  0  0  0  0  0  0
  140.2730   67.4280  226.5390 C   0  0  0  0  0  0  0  0  0  0  0  0
  140.8620   68.4760  227.2490 C   0  0  0  0  0  0  0  0  0  0  0  0
  140.7700   69.7860  226.7720 C   0  0  0  0  0  0  0  0  0  0  0  0
  140.0900   70.0590  225.5750 C   0  0  0  0  0  0  0  0  0  0  0  0
  139.9790   71.4910  225.1060 C   0  0  0  0  0  0  0  0  0  0  0  0
  141.0560   71.8440  221.8510 N   0  0  0  0  0  0  0  0  0  0  0  0
  143.9920   72.4990  219.8850 C   0  0  0  0  0  0  0  0  0  0  0  0
  144.9380   71.3000  219.7170 C   0  0  0  0  0  0  0  0  0  0  0  0
  145.5960   68.3530  219.5450 N   0  0  0  0  0  0  0  0  0  0  0  0
  146.3130   67.2110  219.3660 C   0  0  0  0  0  0  0  0  0  0  0  0
  147.2084   65.8591  217.9243 H   0  0  0  0  0  0  0  0  0  0  0  0
  146.4218   67.1961  215.9607 H   0  0  0  0  0  0  0  0  0  0  0  0
  145.0996   69.2849  216.3269 H   0  0  0  0  0  0  0  0  0  0  0  0
  143.3506   71.4293  217.3134 H   0  0  0  0  0  0  0  0  0  0  0  0
  142.8425   69.7159  217.4850 H   0  0  0  0  0  0  0  0  0  0  0  0
  141.2407   71.4569  218.4724 H   0  0  0  0  0  0  0  0  0  0  0  0
  141.7856   70.1456  219.5977 H   0  0  0  0  0  0  0  0  0  0  0  0
  140.1027   76.9191  219.8990 H   0  0  0  0  0  0  0  0  0  0  0  0
  138.8042   75.7264  220.2708 H   0  0  0  0  0  0  0  0  0  0  0  0
  138.0452   78.1188  220.4206 H   0  0  0  0  0  0  0  0  0  0  0  0
  137.8644   77.1967  221.9609 H   0  0  0  0  0  0  0  0  0  0  0  0
  138.0803   80.2928  221.5061 H   0  0  0  0  0  0  0  0  0  0  0  0
  139.4400   81.9822  222.7398 H   0  0  0  0  0  0  0  0  0  0  0  0
  141.5218   81.2885  223.9253 H   0  0  0  0  0  0  0  0  0  0  0  0
  142.2560   78.9071  223.8737 H   0  0  0  0  0  0  0  0  0  0  0  0
  142.1179   76.7956  222.3011 H   0  0  0  0  0  0  0  0  0  0  0  0
  140.9492   76.4350  223.6602 H   0  0  0  0  0  0  0  0  0  0  0  0
  137.5195   70.9497  224.0037 H   0  0  0  0  0  0  0  0  0  0  0  0
  138.0978   70.8798  222.3069 H   0  0  0  0  0  0  0  0  0  0  0  0
  137.8457   68.6257  223.5204 H   0  0  0  0  0  0  0  0  0  0  0  0
  139.4524   68.9608  222.7423 H   0  0  0  0  0  0  0  0  0  0  0  0
  139.1182   66.8583  224.7971 H   0  0  0  0  0  0  0  0  0  0  0  0
  140.3558   66.3966  226.9123 H   0  0  0  0  0  0  0  0  0  0  0  0
  141.3998   68.2698  228.1862 H   0  0  0  0  0  0  0  0  0  0  0  0
  141.2331   70.6079  227.3377 H   0  0  0  0  0  0  0  0  0  0  0  0
  139.2622   72.0253  225.7469 H   0  0  0  0  0  0  0  0  0  0  0  0
  140.9726   71.9590  225.1676 H   0  0  0  0  0  0  0  0  0  0  0  0
  144.0997   73.1696  219.0197 H   0  0  0  0  0  0  0  0  0  0  0  0
  144.2527   73.0321  220.8112 H   0  0  0  0  0  0  0  0  0  0  0  0
  145.9128   71.6637  219.3599 H   0  0  0  0  0  0  0  0  0  0  0  0
  145.0334   70.8021  220.6932 H   0  0  0  0  0  0  0  0  0  0  0  0
  146.6466   66.6285  220.2374 H   0  0  0  0  0  0  0  0  0  0  0  0
  1  2  2  0
  2  3  1  0
  3  4  2  0
  4  5  1  0
  5  6  1  0
  6  7  1  0
  7  8  1  0
  8  9  1  0
  9 10  2  0
 10 11  1  0
 11 12  1  0
 12 13  1  0
 13 14  1  0
 14 15  1  0
 15 16  2  0
 16 17  1  0
 17 18  2  0
 18 19  1  0
 19 20  2  0
 20 21  1  0
 11 22  2  0
 22 23  1  0
 23 24  1  0
 24 25  1  0
 25 26  1  0
 26 27  1  0
 27 28  2  0
 28 29  1  0
 29 30  2  0
 30 31  1  0
 31 32  2  0
 32 33  1  0
 23 34  2  0
  8 35  1  0
 35 36  1  0
  4 37  1  0
 37 38  2  0
 38  1  1  0
 36  5  1  0
 34  9  1  0
 21 12  1  0
 33 24  1  0
 20 15  1  0
 32 27  1  0
  1 39  1  0
  2 40  1  0
  3 41  1  0
  6 42  1  0
  6 43  1  0
  7 44  1  0
  7 45  1  0
 13 46  1  0
 13 47  1  0
 14 48  1  0
 14 49  1  0
 16 50  1  0
 17 51  1  0
 18 52  1  0
 19 53  1  0
 21 54  1  0
 21 55  1  0
 25 56  1  0
 25 57  1  0
 26 58  1  0
 26 59  1  0
 28 60  1  0
 29 61  1  0
 30 62  1  0
 31 63  1  0
 33 64  1  0
 33 65  1  0
 35 66  1  0
 35 67  1  0
 36 68  1  0
 36 69  1  0
 38 70  1  0
M  END
>  <UniqueID>  (18) 
47

>  <SMILES>  (18) 
c1ccc(N2CCN(c3nc(N4CCc5ccccc5C4)nc(N4CCc5ccccc5C4)n3)CC2)nc1

>  <Energy>  (18) 
86.52349933335694

>  <Genealogy>  (18) 
c1ccc(N2CCN(c3nc(N4CCc5ccccc5C4)nc(N4CCc5ccccc5C4)n3)CC2)nc1 (3D coordinates assigned)
c1ccc(N2CCN(c3nc(N4CCc5ccccc5C4)nc(N4CCc5ccccc5C4)n3)CC2)nc1 (nonaromatic ring conformer: 86.52349933335694 kcal/mol)

>  <smiles>  (18) 
c1ccc(N2CCN(c3nc(N4CCc5ccccc5C4)nc(N4CCc5ccccc5C4)n3)CC2)nc1

>  <score_type>  (18) 
oracle

>  <origin>  (18) 
autodockgpu

>  <m_score__min__energy>  (18) 
-10.69

>  <m_primary>  (18) 
energy

>  <meeko>  (18) 
{"free_energy": -10.26, "intermolecular_energy": -11.45, "internal_energy": -1.01, "cluster_size": 20, "cluster_id": 1, "rank_in_cluster": 17}

>  <energy>  (18) 
-10.14

>  <cluster_rmsd>  (18) 
1.48

>  <rmsd>  (18) 
268.99

>  <cluster>  (18) 
1

$$$$
QWCMPUPUGDWNGO-UHFFFAOYNA-N
     RDKit          3D

 70 76  0  0  0  0  0  0  0  0999 V2000
  141.9950   81.7080  223.4040 C   0  0  0  0  0  0  0  0  0  0  0  0
  141.0070   81.7030  222.4180 C   0  0  0  0  0  0  0  0  0  0  0  0
  140.6110   80.4990  221.8340 C   0  0  0  0  0  0  0  0  0  0  0  0
  141.2050   79.2970  222.2560 C   0  0  0  0  0  0  0  0  0  0  0  0
  140.8290   78.0310  221.6770 N   0  0  0  0  0  0  0  0  0  0  0  0
  141.3630   77.5880  220.3820 C   0  0  0  0  0  0  0  0  0  0  0  0
  141.8460   76.1420  220.5000 C   0  0  0  0  0  0  0  0  0  0  0  0
  140.8450   75.2900  221.1620 N   0  0  0  0  0  0  0  0  0  0  0  0
  141.0970   73.8740  221.2760 C   0  0  0  0  0  0  0  0  0  0  0  0
  140.6280   73.1840  222.3490 N   0  0  0  0  0  0  0  0  0  0  0  0
  140.8370   71.8460  222.4620 C   0  0  0  0  0  0  0  0  0  0  0  0
  140.3380   71.1160  223.6030 N   0  0  0  0  0  0  0  0  0  0  0  0
  139.0800   70.3590  223.5110 C   0  0  0  0  0  0  0  0  0  0  0  0
  139.1840   69.0650  224.3070 C   0  0  0  0  0  0  0  0  0  0  0  0
  139.6040   69.3490  225.7200 C   0  0  0  0  0  0  0  0  0  0  0  0
  139.1960   68.4920  226.7560 C   0  0  0  0  0  0  0  0  0  0  0  0
  139.6160   68.7250  228.0680 C   0  0  0  0  0  0  0  0  0  0  0  0
  140.4590   69.8000  228.3530 C   0  0  0  0  0  0  0  0  0  0  0  0
  140.8860   70.6460  227.3260 C   0  0  0  0  0  0  0  0  0  0  0  0
  140.4620   70.4300  226.0050 C   0  0  0  0  0  0  0  0  0  0  0  0
  140.9550   71.3610  224.9200 C   0  0  0  0  0  0  0  0  0  0  0  0
  141.5240   71.2000  221.4840 N   0  0  0  0  0  0  0  0  0  0  0  0
  142.0070   71.8750  220.4080 C   0  0  0  0  0  0  0  0  0  0  0  0
  142.7450   71.1780  219.3820 N   0  0  0  0  0  0  0  0  0  0  0  0
  143.8020   71.8390  218.6100 C   0  0  0  0  0  0  0  0  0  0  0  0
  145.1390   71.1600  218.9070 C   0  0  0  0  0  0  0  0  0  0  0  0
  145.0350   69.6500  218.8610 C   0  0  0  0  0  0  0  0  0  0  0  0
  146.2120   68.8890  218.7730 C   0  0  0  0  0  0  0  0  0  0  0  0
  146.1550   67.4920  218.7890 C   0  0  0  0  0  0  0  0  0  0  0  0
  144.9230   66.8430  218.8970 C   0  0  0  0  0  0  0  0  0  0  0  0
  143.7450   67.5860  219.0010 C   0  0  0  0  0  0  0  0  0  0  0  0
  143.7890   68.9890  219.0040 C   0  0  0  0  0  0  0  0  0  0  0  0
  142.4940   69.7620  219.0830 C   0  0  0  0  0  0  0  0  0  0  0  0
  141.7900   73.2120  220.3130 N   0  0  0  0  0  0  0  0  0  0  0  0
  139.5760   75.8760  221.6270 C   0  0  0  0  0  0  0  0  0  0  0  0
  139.8360   77.1960  222.3700 C   0  0  0  0  0  0  0  0  0  0  0  0
  142.1830   79.3380  223.2060 N   0  0  0  0  0  0  0  0  0  0  0  0
  142.5810   80.5020  223.7870 C   0  0  0  0  0  0  0  0  0  0  0  0
  142.3077   82.6524  223.8735 H   0  0  0  0  0  0  0  0  0  0  0  0
  140.5408   82.6477  222.1014 H   0  0  0  0  0  0  0  0  0  0  0  0
  139.8400   80.4907  221.0495 H   0  0  0  0  0  0  0  0  0  0  0  0
  140.5734   77.6501  219.6187 H   0  0  0  0  0  0  0  0  0  0  0  0
  142.2044   78.2340  220.0910 H   0  0  0  0  0  0  0  0  0  0  0  0
  142.0407   75.7471  219.4920 H   0  0  0  0  0  0  0  0  0  0  0  0
  142.7624   76.1334  221.1084 H   0  0  0  0  0  0  0  0  0  0  0  0
  138.2587   70.9690  223.9153 H   0  0  0  0  0  0  0  0  0  0  0  0
  138.8842   70.1161  222.4562 H   0  0  0  0  0  0  0  0  0  0  0  0
  138.2044   68.5647  224.3142 H   0  0  0  0  0  0  0  0  0  0  0  0
  139.9374   68.4169  223.8354 H   0  0  0  0  0  0  0  0  0  0  0  0
  138.5437   67.6347  226.5333 H   0  0  0  0  0  0  0  0  0  0  0  0
  139.2816   68.0599  228.8778 H   0  0  0  0  0  0  0  0  0  0  0  0
  140.7876   69.9816  229.3869 H   0  0  0  0  0  0  0  0  0  0  0  0
  141.5584   71.4863  227.5539 H   0  0  0  0  0  0  0  0  0  0  0  0
  140.7311   72.3949  225.2214 H   0  0  0  0  0  0  0  0  0  0  0  0
  142.0343   71.1809  224.8078 H   0  0  0  0  0  0  0  0  0  0  0  0
  143.5787   71.7583  217.5359 H   0  0  0  0  0  0  0  0  0  0  0  0
  143.8560   72.9013  218.8905 H   0  0  0  0  0  0  0  0  0  0  0  0
  145.8766   71.4874  218.1595 H   0  0  0  0  0  0  0  0  0  0  0  0
  145.4457   71.4471  219.9236 H   0  0  0  0  0  0  0  0  0  0  0  0
  147.1851   69.3952  218.6909 H   0  0  0  0  0  0  0  0  0  0  0  0
  147.0815   66.9035  218.7165 H   0  0  0  0  0  0  0  0  0  0  0  0
  144.8804   65.7438  218.9002 H   0  0  0  0  0  0  0  0  0  0  0  0
  142.7774   67.0689  219.0810 H   0  0  0  0  0  0  0  0  0  0  0  0
  141.9696   69.6851  218.1191 H   0  0  0  0  0  0  0  0  0  0  0  0
  141.8798   69.3363  219.8902 H   0  0  0  0  0  0  0  0  0  0  0  0
  138.9271   76.0697  220.7602 H   0  0  0  0  0  0  0  0  0  0  0  0
  139.0875   75.1698  222.3145 H   0  0  0  0  0  0  0  0  0  0  0  0
  138.8912   77.7545  222.4433 H   0  0  0  0  0  0  0  0  0  0  0  0
  140.2323   76.9529  223.3669 H   0  0  0  0  0  0  0  0  0  0  0  0
  143.3648   80.4918  224.5587 H   0  0  0  0  0  0  0  0  0  0  0  0
  1  2  2  0
  2  3  1  0
  3  4  2  0
  4  5  1  0
  5  6  1  0
  6  7  1  0
  7  8  1  0
  8  9  1  0
  9 10  2  0
 10 11  1  0
 11 12  1  0
 12 13  1  0
 13 14  1  0
 14 15  1  0
 15 16  2  0
 16 17  1  0
 17 18  2  0
 18 19  1  0
 19 20  2  0
 20 21  1  0
 11 22  2  0
 22 23  1  0
 23 24  1  0
 24 25  1  0
 25 26  1  0
 26 27  1  0
 27 28  2  0
 28 29  1  0
 29 30  2  0
 30 31  1  0
 31 32  2  0
 32 33  1  0
 23 34  2  0
  8 35  1  0
 35 36  1  0
  4 37  1  0
 37 38  2  0
 38  1  1  0
 36  5  1  0
 34  9  1  0
 21 12  1  0
 33 24  1  0
 20 15  1  0
 32 27  1  0
  1 39  1  0
  2 40  1  0
  3 41  1  0
  6 42  1  0
  6 43  1  0
  7 44  1  0
  7 45  1  0
 13 46  1  0
 13 47  1  0
 14 48  1  0
 14 49  1  0
 16 50  1  0
 17 51  1  0
 18 52  1  0
 19 53  1  0
 21 54  1  0
 21 55  1  0
 25 56  1  0
 25 57  1  0
 26 58  1  0
 26 59  1  0
 28 60  1  0
 29 61  1  0
 30 62  1  0
 31 63  1  0
 33 64  1  0
 33 65  1  0
 35 66  1  0
 35 67  1  0
 36 68  1  0
 36 69  1  0
 38 70  1  0
M  END
>  <UniqueID>  (19) 
47

>  <SMILES>  (19) 
c1ccc(N2CCN(c3nc(N4CCc5ccccc5C4)nc(N4CCc5ccccc5C4)n3)CC2)nc1

>  <Energy>  (19) 
86.52349933335694

>  <Genealogy>  (19) 
c1ccc(N2CCN(c3nc(N4CCc5ccccc5C4)nc(N4CCc5ccccc5C4)n3)CC2)nc1 (3D coordinates assigned)
c1ccc(N2CCN(c3nc(N4CCc5ccccc5C4)nc(N4CCc5ccccc5C4)n3)CC2)nc1 (nonaromatic ring conformer: 86.52349933335694 kcal/mol)

>  <smiles>  (19) 
c1ccc(N2CCN(c3nc(N4CCc5ccccc5C4)nc(N4CCc5ccccc5C4)n3)CC2)nc1

>  <score_type>  (19) 
oracle

>  <origin>  (19) 
autodockgpu

>  <m_score__min__energy>  (19) 
-10.69

>  <m_primary>  (19) 
energy

>  <meeko>  (19) 
{"free_energy": -10.6, "intermolecular_energy": -11.79, "internal_energy": -1.04, "cluster_size": 20, "cluster_id": 1, "rank_in_cluster": 10}

>  <energy>  (19) 
-9.97

>  <cluster_rmsd>  (19) 
1.69

>  <rmsd>  (19) 
269.39

>  <cluster>  (19) 
1

$$$$
QWCMPUPUGDWNGO-UHFFFAOYNA-N
     RDKit          3D

 70 76  0  0  0  0  0  0  0  0999 V2000
  146.6870   66.8280  217.3010 C   0  0  0  0  0  0  0  0  0  0  0  0
  146.3940   67.7370  216.2830 C   0  0  0  0  0  0  0  0  0  0  0  0
  145.7530   68.9390  216.5850 C   0  0  0  0  0  0  0  0  0  0  0  0
  145.4190   69.2280  217.9200 C   0  0  0  0  0  0  0  0  0  0  0  0
  144.7500   70.4550  218.2770 N   0  0  0  0  0  0  0  0  0  0  0  0
  143.6040   70.9590  217.5100 C   0  0  0  0  0  0  0  0  0  0  0  0
  142.4850   71.3580  218.4740 C   0  0  0  0  0  0  0  0  0  0  0  0
  142.9930   72.1860  219.5800 N   0  0  0  0  0  0  0  0  0  0  0  0
  142.0580   72.7290  220.5350 C   0  0  0  0  0  0  0  0  0  0  0  0
  141.6050   71.9560  221.5560 N   0  0  0  0  0  0  0  0  0  0  0  0
  140.7410   72.4580  222.4780 C   0  0  0  0  0  0  0  0  0  0  0  0
  140.2600   71.6340  223.5630 N   0  0  0  0  0  0  0  0  0  0  0  0
  139.0920   70.7610  223.3730 C   0  0  0  0  0  0  0  0  0  0  0  0
  139.2850   69.4510  224.1260 C   0  0  0  0  0  0  0  0  0  0  0  0
  139.6000   69.7160  225.5700 C   0  0  0  0  0  0  0  0  0  0  0  0
  139.2280   68.7810  226.5490 C   0  0  0  0  0  0  0  0  0  0  0  0
  139.5540   68.9990  227.8910 C   0  0  0  0  0  0  0  0  0  0  0  0
  140.2670   70.1400  228.2600 C   0  0  0  0  0  0  0  0  0  0  0  0
  140.6580   71.0660  227.2900 C   0  0  0  0  0  0  0  0  0  0  0  0
  140.3280   70.8650  225.9410 C   0  0  0  0  0  0  0  0  0  0  0  0
  140.7790   71.8850  224.9200 C   0  0  0  0  0  0  0  0  0  0  0  0
  140.3330   73.7490  222.3670 N   0  0  0  0  0  0  0  0  0  0  0  0
  140.7690   74.5330  221.3470 C   0  0  0  0  0  0  0  0  0  0  0  0
  140.3180   75.9000  221.2340 N   0  0  0  0  0  0  0  0  0  0  0  0
  138.9150   76.2680  221.4490 C   0  0  0  0  0  0  0  0  0  0  0  0
  138.8170   77.1810  222.6710 C   0  0  0  0  0  0  0  0  0  0  0  0
  139.8640   78.2730  222.6540 C   0  0  0  0  0  0  0  0  0  0  0  0
  139.7090   79.3800  223.5030 C   0  0  0  0  0  0  0  0  0  0  0  0
  140.6870   80.3770  223.5540 C   0  0  0  0  0  0  0  0  0  0  0  0
  141.8320   80.2760  222.7620 C   0  0  0  0  0  0  0  0  0  0  0  0
  142.0100   79.1720  221.9230 C   0  0  0  0  0  0  0  0  0  0  0  0
  141.0430   78.1550  221.8740 C   0  0  0  0  0  0  0  0  0  0  0  0
  141.2500   76.9930  220.9320 C   0  0  0  0  0  0  0  0  0  0  0  0
  141.6300   74.0140  220.4350 N   0  0  0  0  0  0  0  0  0  0  0  0
  144.4290   72.5100  219.6530 C   0  0  0  0  0  0  0  0  0  0  0  0
  145.2750   71.2530  219.3960 C   0  0  0  0  0  0  0  0  0  0  0  0
  145.6990   68.3080  218.8880 N   0  0  0  0  0  0  0  0  0  0  0  0
  146.3250   67.1330  218.6120 C   0  0  0  0  0  0  0  0  0  0  0  0
  147.1980   65.8814  217.0711 H   0  0  0  0  0  0  0  0  0  0  0  0
  146.6683   67.5058  215.2431 H   0  0  0  0  0  0  0  0  0  0  0  0
  145.5110   69.6546  215.7854 H   0  0  0  0  0  0  0  0  0  0  0  0
  143.9126   71.8362  216.9223 H   0  0  0  0  0  0  0  0  0  0  0  0
  143.2417   70.1734  216.8306 H   0  0  0  0  0  0  0  0  0  0  0  0
  141.7240   71.9284  217.9213 H   0  0  0  0  0  0  0  0  0  0  0  0
  142.0545   70.4401  218.9007 H   0  0  0  0  0  0  0  0  0  0  0  0
  138.1933   71.2691  223.7526 H   0  0  0  0  0  0  0  0  0  0  0  0
  138.9769   70.5445  222.3007 H   0  0  0  0  0  0  0  0  0  0  0  0
  138.3620   68.8562  224.0601 H   0  0  0  0  0  0  0  0  0  0  0  0
  140.1236   68.9011  223.6740 H   0  0  0  0  0  0  0  0  0  0  0  0
  138.6780   67.8735  226.2591 H   0  0  0  0  0  0  0  0  0  0  0  0
  139.2482   68.2705  228.6563 H   0  0  0  0  0  0  0  0  0  0  0  0
  140.5217   70.3107  229.3164 H   0  0  0  0  0  0  0  0  0  0  0  0
  141.2285   71.9588  227.5856 H   0  0  0  0  0  0  0  0  0  0  0  0
  140.4349   72.8778  225.2454 H   0  0  0  0  0  0  0  0  0  0  0  0
  141.8755   71.8193  224.8623 H   0  0  0  0  0  0  0  0  0  0  0  0
  138.5333   76.7966  220.5631 H   0  0  0  0  0  0  0  0  0  0  0  0
  138.3162   75.3606  221.6164 H   0  0  0  0  0  0  0  0  0  0  0  0
  137.8203   77.6461  222.6867 H   0  0  0  0  0  0  0  0  0  0  0  0
  138.9857   76.5654  223.5669 H   0  0  0  0  0  0  0  0  0  0  0  0
  138.8111   79.4634  224.1329 H   0  0  0  0  0  0  0  0  0  0  0  0
  140.5543   81.2428  224.2194 H   0  0  0  0  0  0  0  0  0  0  0  0
  142.5958   81.0667  222.7981 H   0  0  0  0  0  0  0  0  0  0  0  0
  142.9123   79.0996  221.2980 H   0  0  0  0  0  0  0  0  0  0  0  0
  141.0836   77.3329  219.8992 H   0  0  0  0  0  0  0  0  0  0  0  0
  142.2781   76.6213  221.0539 H   0  0  0  0  0  0  0  0  0  0  0  0
  144.6683   73.2695  218.8941 H   0  0  0  0  0  0  0  0  0  0  0  0
  144.6575   72.8949  220.6578 H   0  0  0  0  0  0  0  0  0  0  0  0
  146.3048   71.5599  219.1610 H   0  0  0  0  0  0  0  0  0  0  0  0
  145.2425   70.6303  220.3022 H   0  0  0  0  0  0  0  0  0  0  0  0
  146.5457   66.4234  219.4230 H   0  0  0  0  0  0  0  0  0  0  0  0
  1  2  2  0
  2  3  1  0
  3  4  2  0
  4  5  1  0
  5  6  1  0
  6  7  1  0
  7  8  1  0
  8  9  1  0
  9 10  2  0
 10 11  1  0
 11 12  1  0
 12 13  1  0
 13 14  1  0
 14 15  1  0
 15 16  2  0
 16 17  1  0
 17 18  2  0
 18 19  1  0
 19 20  2  0
 20 21  1  0
 11 22  2  0
 22 23  1  0
 23 24  1  0
 24 25  1  0
 25 26  1  0
 26 27  1  0
 27 28  2  0
 28 29  1  0
 29 30  2  0
 30 31  1  0
 31 32  2  0
 32 33  1  0
 23 34  2  0
  8 35  1  0
 35 36  1  0
  4 37  1  0
 37 38  2  0
 38  1  1  0
 36  5  1  0
 34  9  1  0
 21 12  1  0
 33 24  1  0
 20 15  1  0
 32 27  1  0
  1 39  1  0
  2 40  1  0
  3 41  1  0
  6 42  1  0
  6 43  1  0
  7 44  1  0
  7 45  1  0
 13 46  1  0
 13 47  1  0
 14 48  1  0
 14 49  1  0
 16 50  1  0
 17 51  1  0
 18 52  1  0
 19 53  1  0
 21 54  1  0
 21 55  1  0
 25 56  1  0
 25 57  1  0
 26 58  1  0
 26 59  1  0
 28 60  1  0
 29 61  1  0
 30 62  1  0
 31 63  1  0
 33 64  1  0
 33 65  1  0
 35 66  1  0
 35 67  1  0
 36 68  1  0
 36 69  1  0
 38 70  1  0
M  END
>  <UniqueID>  (20) 
47

>  <SMILES>  (20) 
c1ccc(N2CCN(c3nc(N4CCc5ccccc5C4)nc(N4CCc5ccccc5C4)n3)CC2)nc1

>  <Energy>  (20) 
86.52349933335694

>  <Genealogy>  (20) 
c1ccc(N2CCN(c3nc(N4CCc5ccccc5C4)nc(N4CCc5ccccc5C4)n3)CC2)nc1 (3D coordinates assigned)
c1ccc(N2CCN(c3nc(N4CCc5ccccc5C4)nc(N4CCc5ccccc5C4)n3)CC2)nc1 (nonaromatic ring conformer: 86.52349933335694 kcal/mol)

>  <smiles>  (20) 
c1ccc(N2CCN(c3nc(N4CCc5ccccc5C4)nc(N4CCc5ccccc5C4)n3)CC2)nc1

>  <score_type>  (20) 
oracle

>  <origin>  (20) 
autodockgpu

>  <m_score__min__energy>  (20) 
-10.69

>  <m_primary>  (20) 
energy

>  <meeko>  (20) 
{"free_energy": -10.33, "intermolecular_energy": -11.52, "internal_energy": -1.02, "cluster_size": 20, "cluster_id": 1, "rank_in_cluster": 16}

>  <energy>  (20) 
-9.92

>  <cluster_rmsd>  (20) 
1.09

>  <rmsd>  (20) 
269.3

>  <cluster>  (20) 
1

$$$$
QWCMPUPUGDWNGO-UHFFFAOYNA-N
     RDKit          3D

 70 76  0  0  0  0  0  0  0  0999 V2000
  141.8160   81.8440  223.2470 C   0  0  0  0  0  0  0  0  0  0  0  0
  142.4530   80.7020  223.7360 C   0  0  0  0  0  0  0  0  0  0  0  0
  142.1290   79.4470  223.2190 C   0  0  0  0  0  0  0  0  0  0  0  0
  141.1700   79.3470  222.1960 C   0  0  0  0  0  0  0  0  0  0  0  0
  140.8010   78.0700  221.6360 N   0  0  0  0  0  0  0  0  0  0  0  0
  141.3230   77.6170  220.3410 C   0  0  0  0  0  0  0  0  0  0  0  0
  141.8230   76.1780  220.4710 C   0  0  0  0  0  0  0  0  0  0  0  0
  140.8380   75.3240  221.1540 N   0  0  0  0  0  0  0  0  0  0  0  0
  141.1060   73.9120  221.2820 C   0  0  0  0  0  0  0  0  0  0  0  0
  140.6300   73.2240  222.3540 N   0  0  0  0  0  0  0  0  0  0  0  0
  140.8540   71.8890  222.4790 C   0  0  0  0  0  0  0  0  0  0  0  0
  140.3480   71.1610  223.6190 N   0  0  0  0  0  0  0  0  0  0  0  0
  139.1090   70.3750  223.5100 C   0  0  0  0  0  0  0  0  0  0  0  0
  139.2250   69.0930  224.3230 C   0  0  0  0  0  0  0  0  0  0  0  0
  139.6090   69.4030  225.7410 C   0  0  0  0  0  0  0  0  0  0  0  0
  139.1990   68.5490  226.7790 C   0  0  0  0  0  0  0  0  0  0  0  0
  139.5870   68.8070  228.0960 C   0  0  0  0  0  0  0  0  0  0  0  0
  140.3990   69.9040  228.3850 C   0  0  0  0  0  0  0  0  0  0  0  0
  140.8270   70.7470  227.3570 C   0  0  0  0  0  0  0  0  0  0  0  0
  140.4370   70.5070  226.0310 C   0  0  0  0  0  0  0  0  0  0  0  0
  140.9310   71.4360  224.9450 C   0  0  0  0  0  0  0  0  0  0  0  0
  141.5620   71.2450  221.5150 N   0  0  0  0  0  0  0  0  0  0  0  0
  142.0530   71.9180  220.4420 C   0  0  0  0  0  0  0  0  0  0  0  0
  142.8130   71.2220  219.4310 N   0  0  0  0  0  0  0  0  0  0  0  0
  143.9160   71.8720  218.7150 C   0  0  0  0  0  0  0  0  0  0  0  0
  145.2230   71.1540  219.0500 C   0  0  0  0  0  0  0  0  0  0  0  0
  145.0850   69.6490  218.9700 C   0  0  0  0  0  0  0  0  0  0  0  0
  146.2450   68.8600  218.9130 C   0  0  0  0  0  0  0  0  0  0  0  0
  146.1540   67.4650  218.8980 C   0  0  0  0  0  0  0  0  0  0  0  0
  144.9040   66.8450  218.9440 C   0  0  0  0  0  0  0  0  0  0  0  0
  143.7410   67.6150  219.0170 C   0  0  0  0  0  0  0  0  0  0  0  0
  143.8180   69.0170  219.0500 C   0  0  0  0  0  0  0  0  0  0  0  0
  142.5400   69.8200  219.0950 C   0  0  0  0  0  0  0  0  0  0  0  0
  141.8210   73.2520  220.3340 N   0  0  0  0  0  0  0  0  0  0  0  0
  139.5690   75.9030  221.6270 C   0  0  0  0  0  0  0  0  0  0  0  0
  139.8240   77.2340  222.3510 C   0  0  0  0  0  0  0  0  0  0  0  0
  140.5500   80.4790  221.7550 N   0  0  0  0  0  0  0  0  0  0  0  0
  140.8530   81.7100  222.2470 C   0  0  0  0  0  0  0  0  0  0  0  0
  142.0704   82.8372  223.6455 H   0  0  0  0  0  0  0  0  0  0  0  0
  143.2103   80.7915  224.5288 H   0  0  0  0  0  0  0  0  0  0  0  0
  142.6201   78.5432  223.6088 H   0  0  0  0  0  0  0  0  0  0  0  0
  140.5232   77.6610  219.5871 H   0  0  0  0  0  0  0  0  0  0  0  0
  142.1536   78.2683  220.0312 H   0  0  0  0  0  0  0  0  0  0  0  0
  142.0112   75.7729  219.4658 H   0  0  0  0  0  0  0  0  0  0  0  0
  142.7461   76.1862  221.0692 H   0  0  0  0  0  0  0  0  0  0  0  0
  138.2662   70.9710  223.8901 H   0  0  0  0  0  0  0  0  0  0  0  0
  138.9406   70.1159  222.4543 H   0  0  0  0  0  0  0  0  0  0  0  0
  138.2568   68.5709  224.3159 H   0  0  0  0  0  0  0  0  0  0  0  0
  140.0021   68.4564  223.8748 H   0  0  0  0  0  0  0  0  0  0  0  0
  138.5706   67.6747  226.5538 H   0  0  0  0  0  0  0  0  0  0  0  0
  139.2515   68.1437  228.9069 H   0  0  0  0  0  0  0  0  0  0  0  0
  140.7023   70.1051  229.4230 H   0  0  0  0  0  0  0  0  0  0  0  0
  141.4746   71.6054  227.5888 H   0  0  0  0  0  0  0  0  0  0  0  0
  140.6770   72.4680  225.2288 H   0  0  0  0  0  0  0  0  0  0  0  0
  142.0163   71.2797  224.8576 H   0  0  0  0  0  0  0  0  0  0  0  0
  143.7338   71.8185  217.6315 H   0  0  0  0  0  0  0  0  0  0  0  0
  143.9845   72.9268  219.0196 H   0  0  0  0  0  0  0  0  0  0  0  0
  145.9972   71.4771  218.3385 H   0  0  0  0  0  0  0  0  0  0  0  0
  145.4958   71.4137  220.0835 H   0  0  0  0  0  0  0  0  0  0  0  0
  147.2327   69.3430  218.8799 H   0  0  0  0  0  0  0  0  0  0  0  0
  147.0683   66.8553  218.8499 H   0  0  0  0  0  0  0  0  0  0  0  0
  144.8349   65.7474  218.9227 H   0  0  0  0  0  0  0  0  0  0  0  0
  142.7590   67.1205  219.0488 H   0  0  0  0  0  0  0  0  0  0  0  0
  142.0513   69.7743  218.1106 H   0  0  0  0  0  0  0  0  0  0  0  0
  141.8851   69.3945  219.8697 H   0  0  0  0  0  0  0  0  0  0  0  0
  138.9081   76.0798  220.7657 H   0  0  0  0  0  0  0  0  0  0  0  0
  139.0960   75.2002  222.3287 H   0  0  0  0  0  0  0  0  0  0  0  0
  138.8746   77.7841  222.4284 H   0  0  0  0  0  0  0  0  0  0  0  0
  140.2337   77.0072  223.3463 H   0  0  0  0  0  0  0  0  0  0  0  0
  140.3385   82.6003  221.8562 H   0  0  0  0  0  0  0  0  0  0  0  0
  1  2  2  0
  2  3  1  0
  3  4  2  0
  4  5  1  0
  5  6  1  0
  6  7  1  0
  7  8  1  0
  8  9  1  0
  9 10  2  0
 10 11  1  0
 11 12  1  0
 12 13  1  0
 13 14  1  0
 14 15  1  0
 15 16  2  0
 16 17  1  0
 17 18  2  0
 18 19  1  0
 19 20  2  0
 20 21  1  0
 11 22  2  0
 22 23  1  0
 23 24  1  0
 24 25  1  0
 25 26  1  0
 26 27  1  0
 27 28  2  0
 28 29  1  0
 29 30  2  0
 30 31  1  0
 31 32  2  0
 32 33  1  0
 23 34  2  0
  8 35  1  0
 35 36  1  0
  4 37  1  0
 37 38  2  0
 38  1  1  0
 36  5  1  0
 34  9  1  0
 21 12  1  0
 33 24  1  0
 20 15  1  0
 32 27  1  0
  1 39  1  0
  2 40  1  0
  3 41  1  0
  6 42  1  0
  6 43  1  0
  7 44  1  0
  7 45  1  0
 13 46  1  0
 13 47  1  0
 14 48  1  0
 14 49  1  0
 16 50  1  0
 17 51  1  0
 18 52  1  0
 19 53  1  0
 21 54  1  0
 21 55  1  0
 25 56  1  0
 25 57  1  0
 26 58  1  0
 26 59  1  0
 28 60  1  0
 29 61  1  0
 30 62  1  0
 31 63  1  0
 33 64  1  0
 33 65  1  0
 35 66  1  0
 35 67  1  0
 36 68  1  0
 36 69  1  0
 38 70  1  0
M  END
>  <UniqueID>  (21) 
48

>  <SMILES>  (21) 
c1ccc(N2CCN(c3nc(N4CCc5ccccc5C4)nc(N4CCc5ccccc5C4)n3)CC2)nc1

>  <Energy>  (21) 
88.51642508162679

>  <Genealogy>  (21) 
c1ccc(N2CCN(c3nc(N4CCc5ccccc5C4)nc(N4CCc5ccccc5C4)n3)CC2)nc1 (3D coordinates assigned)
c1ccc(N2CCN(c3nc(N4CCc5ccccc5C4)nc(N4CCc5ccccc5C4)n3)CC2)nc1 (nonaromatic ring conformer: 88.51642508162679 kcal/mol)

>  <smiles>  (21) 
c1ccc(N2CCN(c3nc(N4CCc5ccccc5C4)nc(N4CCc5ccccc5C4)n3)CC2)nc1

>  <score_type>  (21) 
oracle

>  <origin>  (21) 
autodockgpu

>  <m_score__min__energy>  (21) 
-10.69

>  <m_primary>  (21) 
energy

>  <meeko>  (21) 
{"free_energy": -10.69, "intermolecular_energy": -11.88, "internal_energy": -1.05, "cluster_size": 20, "cluster_id": 1, "rank_in_cluster": 2}

>  <energy>  (21) 
-10.69

>  <cluster_rmsd>  (21) 
0.0

>  <rmsd>  (21) 
269.49

>  <cluster>  (21) 
1

$$$$
QWCMPUPUGDWNGO-UHFFFAOYNA-N
     RDKit          3D

 70 76  0  0  0  0  0  0  0  0999 V2000
  141.8610   81.7670  223.2820 C   0  0  0  0  0  0  0  0  0  0  0  0
  142.6190   80.6450  223.6230 C   0  0  0  0  0  0  0  0  0  0  0  0
  142.2950   79.3960  223.0920 C   0  0  0  0  0  0  0  0  0  0  0  0
  141.2110   79.2830  222.2040 C   0  0  0  0  0  0  0  0  0  0  0  0
  140.8370   78.0110  221.6350 N   0  0  0  0  0  0  0  0  0  0  0  0
  141.3650   77.5620  220.3400 C   0  0  0  0  0  0  0  0  0  0  0  0
  141.8550   76.1180  220.4660 C   0  0  0  0  0  0  0  0  0  0  0  0
  140.8600   75.2670  221.1390 N   0  0  0  0  0  0  0  0  0  0  0  0
  141.1180   73.8530  221.2620 C   0  0  0  0  0  0  0  0  0  0  0  0
  140.6430   73.1660  222.3330 N   0  0  0  0  0  0  0  0  0  0  0  0
  140.8570   71.8290  222.4540 C   0  0  0  0  0  0  0  0  0  0  0  0
  140.3510   71.1010  223.5940 N   0  0  0  0  0  0  0  0  0  0  0  0
  139.1070   70.3240  223.4890 C   0  0  0  0  0  0  0  0  0  0  0  0
  139.2180   69.0380  224.2980 C   0  0  0  0  0  0  0  0  0  0  0  0
  139.6100   69.3410  225.7150 C   0  0  0  0  0  0  0  0  0  0  0  0
  139.1990   68.4880  226.7520 C   0  0  0  0  0  0  0  0  0  0  0  0
  139.5950   68.7390  228.0680 C   0  0  0  0  0  0  0  0  0  0  0  0
  140.4160   69.8290  228.3560 C   0  0  0  0  0  0  0  0  0  0  0  0
  140.8460   70.6730  227.3290 C   0  0  0  0  0  0  0  0  0  0  0  0
  140.4470   70.4390  226.0030 C   0  0  0  0  0  0  0  0  0  0  0  0
  140.9430   71.3680  224.9180 C   0  0  0  0  0  0  0  0  0  0  0  0
  141.5560   71.1820  221.4850 N   0  0  0  0  0  0  0  0  0  0  0  0
  142.0460   71.8550  220.4110 C   0  0  0  0  0  0  0  0  0  0  0  0
  142.7970   71.1570  219.3940 N   0  0  0  0  0  0  0  0  0  0  0  0
  143.8740   71.8130  218.6460 C   0  0  0  0  0  0  0  0  0  0  0  0
  145.1990   71.1200  218.9640 C   0  0  0  0  0  0  0  0  0  0  0  0
  145.0830   69.6120  218.9080 C   0  0  0  0  0  0  0  0  0  0  0  0
  146.2540   68.8410  218.8380 C   0  0  0  0  0  0  0  0  0  0  0  0
  146.1850   67.4440  218.8440 C   0  0  0  0  0  0  0  0  0  0  0  0
  144.9460   66.8060  218.9250 C   0  0  0  0  0  0  0  0  0  0  0  0
  143.7720   67.5590  219.0120 C   0  0  0  0  0  0  0  0  0  0  0  0
  143.8280   68.9610  219.0230 C   0  0  0  0  0  0  0  0  0  0  0  0
  142.5390   69.7450  219.0830 C   0  0  0  0  0  0  0  0  0  0  0  0
  141.8230   73.1900  220.3080 N   0  0  0  0  0  0  0  0  0  0  0  0
  139.5910   75.8520  221.6070 C   0  0  0  0  0  0  0  0  0  0  0  0
  139.8510   77.1780  222.3390 C   0  0  0  0  0  0  0  0  0  0  0  0
  140.4780   80.3940  221.9070 N   0  0  0  0  0  0  0  0  0  0  0  0
  140.7800   81.6190  222.4140 C   0  0  0  0  0  0  0  0  0  0  0  0
  142.1136   82.7555  223.6931 H   0  0  0  0  0  0  0  0  0  0  0  0
  143.4718   80.7458  224.3104 H   0  0  0  0  0  0  0  0  0  0  0  0
  142.8827   78.5074  223.3658 H   0  0  0  0  0  0  0  0  0  0  0  0
  140.5706   77.6154  219.5810 H   0  0  0  0  0  0  0  0  0  0  0  0
  142.2016   78.2097  220.0389 H   0  0  0  0  0  0  0  0  0  0  0  0
  142.0466   75.7166  219.4599 H   0  0  0  0  0  0  0  0  0  0  0  0
  142.7745   76.1172  221.0698 H   0  0  0  0  0  0  0  0  0  0  0  0
  138.2702   70.9246  223.8750 H   0  0  0  0  0  0  0  0  0  0  0  0
  138.9319   70.0691  222.4334 H   0  0  0  0  0  0  0  0  0  0  0  0
  138.2463   68.5224  224.2935 H   0  0  0  0  0  0  0  0  0  0  0  0
  139.9890   68.3977  223.8446 H   0  0  0  0  0  0  0  0  0  0  0  0
  138.5630   67.6191  226.5273 H   0  0  0  0  0  0  0  0  0  0  0  0
  139.2587   68.0757  228.8785 H   0  0  0  0  0  0  0  0  0  0  0  0
  140.7255   70.0245  229.3933 H   0  0  0  0  0  0  0  0  0  0  0  0
  141.5010   71.5259  227.5604 H   0  0  0  0  0  0  0  0  0  0  0  0
  140.6981   72.4009  225.2062 H   0  0  0  0  0  0  0  0  0  0  0  0
  142.0268   71.2046  224.8249 H   0  0  0  0  0  0  0  0  0  0  0  0
  143.6702   71.7407  217.5675 H   0  0  0  0  0  0  0  0  0  0  0  0
  143.9322   72.8731  218.9337 H   0  0  0  0  0  0  0  0  0  0  0  0
  145.9533   71.4447  218.2321 H   0  0  0  0  0  0  0  0  0  0  0  0
  145.4888   71.3987  219.9879 H   0  0  0  0  0  0  0  0  0  0  0  0
  147.2329   69.3391  218.7780 H   0  0  0  0  0  0  0  0  0  0  0  0
  147.1075   66.8478  218.7848 H   0  0  0  0  0  0  0  0  0  0  0  0
  144.8936   65.7073  218.9203 H   0  0  0  0  0  0  0  0  0  0  0  0
  142.7988   67.0499  219.0722 H   0  0  0  0  0  0  0  0  0  0  0  0
  142.0312   69.6778  218.1095 H   0  0  0  0  0  0  0  0  0  0  0  0
  141.9068   69.3207  219.8769 H   0  0  0  0  0  0  0  0  0  0  0  0
  138.9366   76.0373  220.7425 H   0  0  0  0  0  0  0  0  0  0  0  0
  139.1085   75.1490  222.3020 H   0  0  0  0  0  0  0  0  0  0  0  0
  138.9048   77.7340  222.4136 H   0  0  0  0  0  0  0  0  0  0  0  0
  140.2538   76.9431  223.3353 H   0  0  0  0  0  0  0  0  0  0  0  0
  140.1715   82.4932  222.1393 H   0  0  0  0  0  0  0  0  0  0  0  0
  1  2  2  0
  2  3  1  0
  3  4  2  0
  4  5  1  0
  5  6  1  0
  6  7  1  0
  7  8  1  0
  8  9  1  0
  9 10  2  0
 10 11  1  0
 11 12  1  0
 12 13  1  0
 13 14  1  0
 14 15  1  0
 15 16  2  0
 16 17  1  0
 17 18  2  0
 18 19  1  0
 19 20  2  0
 20 21  1  0
 11 22  2  0
 22 23  1  0
 23 24  1  0
 24 25  1  0
 25 26  1  0
 26 27  1  0
 27 28  2  0
 28 29  1  0
 29 30  2  0
 30 31  1  0
 31 32  2  0
 32 33  1  0
 23 34  2  0
  8 35  1  0
 35 36  1  0
  4 37  1  0
 37 38  2  0
 38  1  1  0
 36  5  1  0
 34  9  1  0
 21 12  1  0
 33 24  1  0
 20 15  1  0
 32 27  1  0
  1 39  1  0
  2 40  1  0
  3 41  1  0
  6 42  1  0
  6 43  1  0
  7 44  1  0
  7 45  1  0
 13 46  1  0
 13 47  1  0
 14 48  1  0
 14 49  1  0
 16 50  1  0
 17 51  1  0
 18 52  1  0
 19 53  1  0
 21 54  1  0
 21 55  1  0
 25 56  1  0
 25 57  1  0
 26 58  1  0
 26 59  1  0
 28 60  1  0
 29 61  1  0
 30 62  1  0
 31 63  1  0
 33 64  1  0
 33 65  1  0
 35 66  1  0
 35 67  1  0
 36 68  1  0
 36 69  1  0
 38 70  1  0
M  END
>  <UniqueID>  (22) 
48

>  <SMILES>  (22) 
c1ccc(N2CCN(c3nc(N4CCc5ccccc5C4)nc(N4CCc5ccccc5C4)n3)CC2)nc1

>  <Energy>  (22) 
88.51642508162679

>  <Genealogy>  (22) 
c1ccc(N2CCN(c3nc(N4CCc5ccccc5C4)nc(N4CCc5ccccc5C4)n3)CC2)nc1 (3D coordinates assigned)
c1ccc(N2CCN(c3nc(N4CCc5ccccc5C4)nc(N4CCc5ccccc5C4)n3)CC2)nc1 (nonaromatic ring conformer: 88.51642508162679 kcal/mol)

>  <smiles>  (22) 
c1ccc(N2CCN(c3nc(N4CCc5ccccc5C4)nc(N4CCc5ccccc5C4)n3)CC2)nc1

>  <score_type>  (22) 
oracle

>  <origin>  (22) 
autodockgpu

>  <m_score__min__energy>  (22) 
-10.69

>  <m_primary>  (22) 
energy

>  <meeko>  (22) 
{"free_energy": -10.69, "intermolecular_energy": -11.88, "internal_energy": -1.04, "cluster_size": 20, "cluster_id": 1, "rank_in_cluster": 3}

>  <energy>  (22) 
-10.69

>  <cluster_rmsd>  (22) 
0.06

>  <rmsd>  (22) 
269.48

>  <cluster>  (22) 
1

$$$$
QWCMPUPUGDWNGO-UHFFFAOYNA-N
     RDKit          3D

 70 76  0  0  0  0  0  0  0  0999 V2000
  141.8560   81.8160  223.3200 C   0  0  0  0  0  0  0  0  0  0  0  0
  142.4610   80.6640  223.8250 C   0  0  0  0  0  0  0  0  0  0  0  0
  142.1410   79.4160  223.2900 C   0  0  0  0  0  0  0  0  0  0  0  0
  141.2160   79.3330  222.2340 C   0  0  0  0  0  0  0  0  0  0  0  0
  140.8520   78.0640  221.6540 N   0  0  0  0  0  0  0  0  0  0  0  0
  141.4030   77.6170  220.3680 C   0  0  0  0  0  0  0  0  0  0  0  0
  141.8880   76.1730  220.4990 C   0  0  0  0  0  0  0  0  0  0  0  0
  140.8800   75.3210  221.1500 N   0  0  0  0  0  0  0  0  0  0  0  0
  141.1330   73.9060  221.2730 C   0  0  0  0  0  0  0  0  0  0  0  0
  140.6560   73.2210  222.3450 N   0  0  0  0  0  0  0  0  0  0  0  0
  140.8660   71.8830  222.4660 C   0  0  0  0  0  0  0  0  0  0  0  0
  140.3580   71.1570  223.6060 N   0  0  0  0  0  0  0  0  0  0  0  0
  139.1450   70.3350  223.4850 C   0  0  0  0  0  0  0  0  0  0  0  0
  139.2800   69.0680  224.3190 C   0  0  0  0  0  0  0  0  0  0  0  0
  139.6270   69.4090  225.7390 C   0  0  0  0  0  0  0  0  0  0  0  0
  139.2210   68.5590  226.7810 C   0  0  0  0  0  0  0  0  0  0  0  0
  139.5750   68.8460  228.1020 C   0  0  0  0  0  0  0  0  0  0  0  0
  140.3500   69.9690  228.3900 C   0  0  0  0  0  0  0  0  0  0  0  0
  140.7750   70.8100  227.3590 C   0  0  0  0  0  0  0  0  0  0  0  0
  140.4180   70.5400  226.0280 C   0  0  0  0  0  0  0  0  0  0  0  0
  140.9070   71.4670  224.9390 C   0  0  0  0  0  0  0  0  0  0  0  0
  141.5630   71.2340  221.4970 N   0  0  0  0  0  0  0  0  0  0  0  0
  142.0550   71.9050  220.4230 C   0  0  0  0  0  0  0  0  0  0  0  0
  142.8030   71.2040  219.4060 N   0  0  0  0  0  0  0  0  0  0  0  0
  143.8760   71.8590  218.6510 C   0  0  0  0  0  0  0  0  0  0  0  0
  145.2040   71.1720  218.9660 C   0  0  0  0  0  0  0  0  0  0  0  0
  145.0910   69.6630  218.9170 C   0  0  0  0  0  0  0  0  0  0  0  0
  146.2640   68.8940  218.8460 C   0  0  0  0  0  0  0  0  0  0  0  0
  146.1980   67.4980  218.8590 C   0  0  0  0  0  0  0  0  0  0  0  0
  144.9610   66.8560  218.9480 C   0  0  0  0  0  0  0  0  0  0  0  0
  143.7860   67.6070  219.0360 C   0  0  0  0  0  0  0  0  0  0  0  0
  143.8390   69.0100  219.0410 C   0  0  0  0  0  0  0  0  0  0  0  0
  142.5480   69.7900  219.1020 C   0  0  0  0  0  0  0  0  0  0  0  0
  141.8370   73.2410  220.3200 N   0  0  0  0  0  0  0  0  0  0  0  0
  139.6030   75.9060  221.5960 C   0  0  0  0  0  0  0  0  0  0  0  0
  139.8510   77.2300  222.3370 C   0  0  0  0  0  0  0  0  0  0  0  0
  140.6260   80.4750  221.7780 N   0  0  0  0  0  0  0  0  0  0  0  0
  140.9270   81.7000  222.2860 C   0  0  0  0  0  0  0  0  0  0  0  0
  142.1089   82.8038  223.7326 H   0  0  0  0  0  0  0  0  0  0  0  0
  143.1903   80.7402  224.6450 H   0  0  0  0  0  0  0  0  0  0  0  0
  142.6083   78.5044  223.6908 H   0  0  0  0  0  0  0  0  0  0  0  0
  140.6228   77.6736  219.5947 H   0  0  0  0  0  0  0  0  0  0  0  0
  142.2461   78.2640  220.0842 H   0  0  0  0  0  0  0  0  0  0  0  0
  142.0983   75.7744  219.4955 H   0  0  0  0  0  0  0  0  0  0  0  0
  142.7955   76.1694  221.1206 H   0  0  0  0  0  0  0  0  0  0  0  0
  138.2785   70.9124  223.8397 H   0  0  0  0  0  0  0  0  0  0  0  0
  139.0055   70.0560  222.4302 H   0  0  0  0  0  0  0  0  0  0  0  0
  138.3269   68.5192  224.3009 H   0  0  0  0  0  0  0  0  0  0  0  0
  140.0829   68.4467  223.8955 H   0  0  0  0  0  0  0  0  0  0  0  0
  138.6221   67.6641  226.5563 H   0  0  0  0  0  0  0  0  0  0  0  0
  139.2419   68.1852  228.9158 H   0  0  0  0  0  0  0  0  0  0  0  0
  140.6271   70.1928  229.4307 H   0  0  0  0  0  0  0  0  0  0  0  0
  141.3934   71.6896  227.5912 H   0  0  0  0  0  0  0  0  0  0  0  0
  140.6187   72.4952  225.2028 H   0  0  0  0  0  0  0  0  0  0  0  0
  141.9978   71.3404  224.8748 H   0  0  0  0  0  0  0  0  0  0  0  0
  143.6681   71.7813  217.5736 H   0  0  0  0  0  0  0  0  0  0  0  0
  143.9327   72.9203  218.9346 H   0  0  0  0  0  0  0  0  0  0  0  0
  145.9541   71.4955  218.2293 H   0  0  0  0  0  0  0  0  0  0  0  0
  145.4984   71.4564  219.9870 H   0  0  0  0  0  0  0  0  0  0  0  0
  147.2416   69.3939  218.7797 H   0  0  0  0  0  0  0  0  0  0  0  0
  147.1219   66.9040  218.7990 H   0  0  0  0  0  0  0  0  0  0  0  0
  144.9116   65.7571  218.9488 H   0  0  0  0  0  0  0  0  0  0  0  0
  142.8140   67.0962  219.1017 H   0  0  0  0  0  0  0  0  0  0  0  0
  142.0371   69.7171  218.1306 H   0  0  0  0  0  0  0  0  0  0  0  0
  141.9197   69.3671  219.8997 H   0  0  0  0  0  0  0  0  0  0  0  0
  138.9650   76.0947  220.7200 H   0  0  0  0  0  0  0  0  0  0  0  0
  139.1068   75.2015  222.2797 H   0  0  0  0  0  0  0  0  0  0  0  0
  138.9044   77.7872  222.3952 H   0  0  0  0  0  0  0  0  0  0  0  0
  140.2344   76.9916  223.3401 H   0  0  0  0  0  0  0  0  0  0  0  0
  140.4382   82.5987  221.8818 H   0  0  0  0  0  0  0  0  0  0  0  0
  1  2  2  0
  2  3  1  0
  3  4  2  0
  4  5  1  0
  5  6  1  0
  6  7  1  0
  7  8  1  0
  8  9  1  0
  9 10  2  0
 10 11  1  0
 11 12  1  0
 12 13  1  0
 13 14  1  0
 14 15  1  0
 15 16  2  0
 16 17  1  0
 17 18  2  0
 18 19  1  0
 19 20  2  0
 20 21  1  0
 11 22  2  0
 22 23  1  0
 23 24  1  0
 24 25  1  0
 25 26  1  0
 26 27  1  0
 27 28  2  0
 28 29  1  0
 29 30  2  0
 30 31  1  0
 31 32  2  0
 32 33  1  0
 23 34  2  0
  8 35  1  0
 35 36  1  0
  4 37  1  0
 37 38  2  0
 38  1  1  0
 36  5  1  0
 34  9  1  0
 21 12  1  0
 33 24  1  0
 20 15  1  0
 32 27  1  0
  1 39  1  0
  2 40  1  0
  3 41  1  0
  6 42  1  0
  6 43  1  0
  7 44  1  0
  7 45  1  0
 13 46  1  0
 13 47  1  0
 14 48  1  0
 14 49  1  0
 16 50  1  0
 17 51  1  0
 18 52  1  0
 19 53  1  0
 21 54  1  0
 21 55  1  0
 25 56  1  0
 25 57  1  0
 26 58  1  0
 26 59  1  0
 28 60  1  0
 29 61  1  0
 30 62  1  0
 31 63  1  0
 33 64  1  0
 33 65  1  0
 35 66  1  0
 35 67  1  0
 36 68  1  0
 36 69  1  0
 38 70  1  0
M  END
>  <UniqueID>  (23) 
48

>  <SMILES>  (23) 
c1ccc(N2CCN(c3nc(N4CCc5ccccc5C4)nc(N4CCc5ccccc5C4)n3)CC2)nc1

>  <Energy>  (23) 
88.51642508162679

>  <Genealogy>  (23) 
c1ccc(N2CCN(c3nc(N4CCc5ccccc5C4)nc(N4CCc5ccccc5C4)n3)CC2)nc1 (3D coordinates assigned)
c1ccc(N2CCN(c3nc(N4CCc5ccccc5C4)nc(N4CCc5ccccc5C4)n3)CC2)nc1 (nonaromatic ring conformer: 88.51642508162679 kcal/mol)

>  <smiles>  (23) 
c1ccc(N2CCN(c3nc(N4CCc5ccccc5C4)nc(N4CCc5ccccc5C4)n3)CC2)nc1

>  <score_type>  (23) 
oracle

>  <origin>  (23) 
autodockgpu

>  <m_score__min__energy>  (23) 
-10.69

>  <m_primary>  (23) 
energy

>  <meeko>  (23) 
{"free_energy": -10.67, "intermolecular_energy": -11.87, "internal_energy": -1.05, "cluster_size": 20, "cluster_id": 1, "rank_in_cluster": 6}

>  <energy>  (23) 
-10.69

>  <cluster_rmsd>  (23) 
0.11

>  <rmsd>  (23) 
269.45

>  <cluster>  (23) 
1

$$$$
QWCMPUPUGDWNGO-UHFFFAOYNA-N
     RDKit          3D

 70 76  0  0  0  0  0  0  0  0999 V2000
  141.8900   81.7480  223.3340 C   0  0  0  0  0  0  0  0  0  0  0  0
  142.5360   80.5960  223.7860 C   0  0  0  0  0  0  0  0  0  0  0  0
  142.2010   79.3520  223.2490 C   0  0  0  0  0  0  0  0  0  0  0  0
  141.2210   79.2750  222.2430 C   0  0  0  0  0  0  0  0  0  0  0  0
  140.8400   78.0100  221.6630 N   0  0  0  0  0  0  0  0  0  0  0  0
  141.3720   77.5650  220.3690 C   0  0  0  0  0  0  0  0  0  0  0  0
  141.8490   76.1160  220.4880 C   0  0  0  0  0  0  0  0  0  0  0  0
  140.8420   75.2690  221.1490 N   0  0  0  0  0  0  0  0  0  0  0  0
  141.0870   73.8520  221.2640 C   0  0  0  0  0  0  0  0  0  0  0  0
  140.6250   73.1670  222.3430 N   0  0  0  0  0  0  0  0  0  0  0  0
  140.8270   71.8280  222.4560 C   0  0  0  0  0  0  0  0  0  0  0  0
  140.3340   71.1030  223.6040 N   0  0  0  0  0  0  0  0  0  0  0  0
  139.0740   70.3490  223.5240 C   0  0  0  0  0  0  0  0  0  0  0  0
  139.1800   69.0570  224.3230 C   0  0  0  0  0  0  0  0  0  0  0  0
  139.6110   69.3450  225.7320 C   0  0  0  0  0  0  0  0  0  0  0  0
  139.2090   68.4940  226.7740 C   0  0  0  0  0  0  0  0  0  0  0  0
  139.6400   68.7300  228.0820 C   0  0  0  0  0  0  0  0  0  0  0  0
  140.4870   69.8030  228.3570 C   0  0  0  0  0  0  0  0  0  0  0  0
  140.9080   70.6450  227.3240 C   0  0  0  0  0  0  0  0  0  0  0  0
  140.4740   70.4260  226.0070 C   0  0  0  0  0  0  0  0  0  0  0  0
  140.9610   71.3520  224.9150 C   0  0  0  0  0  0  0  0  0  0  0  0
  141.5000   71.1760  221.4730 N   0  0  0  0  0  0  0  0  0  0  0  0
  141.9770   71.8460  220.3920 C   0  0  0  0  0  0  0  0  0  0  0  0
  142.7010   71.1420  219.3590 N   0  0  0  0  0  0  0  0  0  0  0  0
  143.7100   71.8130  218.5330 C   0  0  0  0  0  0  0  0  0  0  0  0
  145.0770   71.1830  218.8020 C   0  0  0  0  0  0  0  0  0  0  0  0
  145.0190   69.6700  218.8020 C   0  0  0  0  0  0  0  0  0  0  0  0
  146.2150   68.9420  218.6940 C   0  0  0  0  0  0  0  0  0  0  0  0
  146.2020   67.5450  218.7500 C   0  0  0  0  0  0  0  0  0  0  0  0
  144.9950   66.8630  218.9180 C   0  0  0  0  0  0  0  0  0  0  0  0
  143.7990   67.5730  219.0430 C   0  0  0  0  0  0  0  0  0  0  0  0
  143.7990   68.9760  219.0050 C   0  0  0  0  0  0  0  0  0  0  0  0
  142.4840   69.7120  219.1090 C   0  0  0  0  0  0  0  0  0  0  0  0
  141.7670   73.1840  220.2960 N   0  0  0  0  0  0  0  0  0  0  0  0
  139.5760   75.8620  221.6130 C   0  0  0  0  0  0  0  0  0  0  0  0
  139.8420   77.1810  222.3560 C   0  0  0  0  0  0  0  0  0  0  0  0
  140.5940   80.4160  221.8380 N   0  0  0  0  0  0  0  0  0  0  0  0
  140.9080   81.6370  222.3500 C   0  0  0  0  0  0  0  0  0  0  0  0
  142.1526   82.7322  223.7493 H   0  0  0  0  0  0  0  0  0  0  0  0
  143.3089   80.6686  224.5653 H   0  0  0  0  0  0  0  0  0  0  0  0
  142.6991   78.4398  223.6094 H   0  0  0  0  0  0  0  0  0  0  0  0
  140.5828   77.6302  219.6055 H   0  0  0  0  0  0  0  0  0  0  0  0
  142.2161   78.2074  220.0777 H   0  0  0  0  0  0  0  0  0  0  0  0
  142.0436   75.7198  219.4804 H   0  0  0  0  0  0  0  0  0  0  0  0
  142.7647   76.1030  221.0974 H   0  0  0  0  0  0  0  0  0  0  0  0
  138.2574   70.9624  223.9325 H   0  0  0  0  0  0  0  0  0  0  0  0
  138.8702   70.1032  222.4714 H   0  0  0  0  0  0  0  0  0  0  0  0
  138.1991   68.5595  224.3389 H   0  0  0  0  0  0  0  0  0  0  0  0
  139.9278   68.4049  223.8481 H   0  0  0  0  0  0  0  0  0  0  0  0
  138.5521   67.6381  226.5597 H   0  0  0  0  0  0  0  0  0  0  0  0
  139.3105   68.0680  228.8964 H   0  0  0  0  0  0  0  0  0  0  0  0
  140.8241   69.9869  229.3878 H   0  0  0  0  0  0  0  0  0  0  0  0
  141.5837   71.4846  227.5443 H   0  0  0  0  0  0  0  0  0  0  0  0
  140.7413   72.3875  225.2140 H   0  0  0  0  0  0  0  0  0  0  0  0
  142.0392   71.1696  224.7957 H   0  0  0  0  0  0  0  0  0  0  0  0
  143.4531   71.6955  217.4699 H   0  0  0  0  0  0  0  0  0  0  0  0
  143.7402   72.8840  218.7823 H   0  0  0  0  0  0  0  0  0  0  0  0
  145.7782   71.5107  218.0203 H   0  0  0  0  0  0  0  0  0  0  0  0
  145.4087   71.5084  219.7991 H   0  0  0  0  0  0  0  0  0  0  0  0
  147.1687   69.4745  218.5644 H   0  0  0  0  0  0  0  0  0  0  0  0
  147.1433   66.9827  218.6617 H   0  0  0  0  0  0  0  0  0  0  0  0
  144.9863   65.7636  218.9520 H   0  0  0  0  0  0  0  0  0  0  0  0
  142.8514   67.0295  219.1720 H   0  0  0  0  0  0  0  0  0  0  0  0
  141.9287   69.5915  218.1671 H   0  0  0  0  0  0  0  0  0  0  0  0
  141.9121   69.2917  219.9494 H   0  0  0  0  0  0  0  0  0  0  0  0
  138.9288   76.0589  220.7457 H   0  0  0  0  0  0  0  0  0  0  0  0
  139.0836   75.1585  222.3005 H   0  0  0  0  0  0  0  0  0  0  0  0
  138.9001   77.7445  222.4282 H   0  0  0  0  0  0  0  0  0  0  0  0
  140.2357   76.9366  223.3536 H   0  0  0  0  0  0  0  0  0  0  0  0
  140.3876   82.5360  221.9880 H   0  0  0  0  0  0  0  0  0  0  0  0
  1  2  2  0
  2  3  1  0
  3  4  2  0
  4  5  1  0
  5  6  1  0
  6  7  1  0
  7  8  1  0
  8  9  1  0
  9 10  2  0
 10 11  1  0
 11 12  1  0
 12 13  1  0
 13 14  1  0
 14 15  1  0
 15 16  2  0
 16 17  1  0
 17 18  2  0
 18 19  1  0
 19 20  2  0
 20 21  1  0
 11 22  2  0
 22 23  1  0
 23 24  1  0
 24 25  1  0
 25 26  1  0
 26 27  1  0
 27 28  2  0
 28 29  1  0
 29 30  2  0
 30 31  1  0
 31 32  2  0
 32 33  1  0
 23 34  2  0
  8 35  1  0
 35 36  1  0
  4 37  1  0
 37 38  2  0
 38  1  1  0
 36  5  1  0
 34  9  1  0
 21 12  1  0
 33 24  1  0
 20 15  1  0
 32 27  1  0
  1 39  1  0
  2 40  1  0
  3 41  1  0
  6 42  1  0
  6 43  1  0
  7 44  1  0
  7 45  1  0
 13 46  1  0
 13 47  1  0
 14 48  1  0
 14 49  1  0
 16 50  1  0
 17 51  1  0
 18 52  1  0
 19 53  1  0
 21 54  1  0
 21 55  1  0
 25 56  1  0
 25 57  1  0
 26 58  1  0
 26 59  1  0
 28 60  1  0
 29 61  1  0
 30 62  1  0
 31 63  1  0
 33 64  1  0
 33 65  1  0
 35 66  1  0
 35 67  1  0
 36 68  1  0
 36 69  1  0
 38 70  1  0
M  END
>  <UniqueID>  (24) 
48

>  <SMILES>  (24) 
c1ccc(N2CCN(c3nc(N4CCc5ccccc5C4)nc(N4CCc5ccccc5C4)n3)CC2)nc1

>  <Energy>  (24) 
88.51642508162679

>  <Genealogy>  (24) 
c1ccc(N2CCN(c3nc(N4CCc5ccccc5C4)nc(N4CCc5ccccc5C4)n3)CC2)nc1 (3D coordinates assigned)
c1ccc(N2CCN(c3nc(N4CCc5ccccc5C4)nc(N4CCc5ccccc5C4)n3)CC2)nc1 (nonaromatic ring conformer: 88.51642508162679 kcal/mol)

>  <smiles>  (24) 
c1ccc(N2CCN(c3nc(N4CCc5ccccc5C4)nc(N4CCc5ccccc5C4)n3)CC2)nc1

>  <score_type>  (24) 
oracle

>  <origin>  (24) 
autodockgpu

>  <m_score__min__energy>  (24) 
-10.69

>  <m_primary>  (24) 
energy

>  <meeko>  (24) 
{"free_energy": -10.66, "intermolecular_energy": -11.86, "internal_energy": -1.04, "cluster_size": 20, "cluster_id": 1, "rank_in_cluster": 8}

>  <energy>  (24) 
-10.68

>  <cluster_rmsd>  (24) 
0.07

>  <rmsd>  (24) 
269.47

>  <cluster>  (24) 
1

$$$$
QWCMPUPUGDWNGO-UHFFFAOYNA-N
     RDKit          3D

 70 76  0  0  0  0  0  0  0  0999 V2000
  141.8280   82.0130  223.1150 C   0  0  0  0  0  0  0  0  0  0  0  0
  142.4370   80.8750  223.6480 C   0  0  0  0  0  0  0  0  0  0  0  0
  142.0990   79.6110  223.1630 C   0  0  0  0  0  0  0  0  0  0  0  0
  141.1540   79.4980  222.1290 C   0  0  0  0  0  0  0  0  0  0  0  0
  140.7710   78.2110  221.6010 N   0  0  0  0  0  0  0  0  0  0  0  0
  141.3540   77.6820  220.3610 C   0  0  0  0  0  0  0  0  0  0  0  0
  141.7890   76.2330  220.5830 C   0  0  0  0  0  0  0  0  0  0  0  0
  140.7320   75.4460  221.2390 N   0  0  0  0  0  0  0  0  0  0  0  0
  140.9360   74.0330  221.4430 C   0  0  0  0  0  0  0  0  0  0  0  0
  141.8510   73.3630  220.6940 N   0  0  0  0  0  0  0  0  0  0  0  0
  142.0730   72.0360  220.8880 C   0  0  0  0  0  0  0  0  0  0  0  0
  143.0460   71.3270  220.0910 N   0  0  0  0  0  0  0  0  0  0  0  0
  144.0610   72.0660  219.3230 C   0  0  0  0  0  0  0  0  0  0  0  0
  145.3880   71.3180  219.3470 C   0  0  0  0  0  0  0  0  0  0  0  0
  145.2020   69.9040  218.8790 C   0  0  0  0  0  0  0  0  0  0  0  0
  146.2600   69.2340  218.2440 C   0  0  0  0  0  0  0  0  0  0  0  0
  146.1110   67.9030  217.8420 C   0  0  0  0  0  0  0  0  0  0  0  0
  144.9140   67.2290  218.0860 C   0  0  0  0  0  0  0  0  0  0  0  0
  143.8630   67.8820  218.7340 C   0  0  0  0  0  0  0  0  0  0  0  0
  143.9950   69.2210  219.1340 C   0  0  0  0  0  0  0  0  0  0  0  0
  142.8380   69.8890  219.8420 C   0  0  0  0  0  0  0  0  0  0  0  0
  141.3660   71.3820  221.8460 N   0  0  0  0  0  0  0  0  0  0  0  0
  140.4410   72.0330  222.5980 C   0  0  0  0  0  0  0  0  0  0  0  0
  139.6890   71.3220  223.6040 N   0  0  0  0  0  0  0  0  0  0  0  0
  138.6520   70.3490  223.2460 C   0  0  0  0  0  0  0  0  0  0  0  0
  139.0760   68.9630  223.7320 C   0  0  0  0  0  0  0  0  0  0  0  0
  139.5940   68.9900  225.1540 C   0  0  0  0  0  0  0  0  0  0  0  0
  139.7030   67.7820  225.8620 C   0  0  0  0  0  0  0  0  0  0  0  0
  140.2330   67.7650  227.1560 C   0  0  0  0  0  0  0  0  0  0  0  0
  140.6620   68.9520  227.7520 C   0  0  0  0  0  0  0  0  0  0  0  0
  140.5750   70.1590  227.0550 C   0  0  0  0  0  0  0  0  0  0  0  0
  140.0610   70.1890  225.7490 C   0  0  0  0  0  0  0  0  0  0  0  0
  139.9490   71.5160  225.0370 C   0  0  0  0  0  0  0  0  0  0  0  0
  140.2320   73.3580  222.3890 N   0  0  0  0  0  0  0  0  0  0  0  0
  139.4590   76.0910  221.6060 C   0  0  0  0  0  0  0  0  0  0  0  0
  139.7210   77.4430  222.2870 C   0  0  0  0  0  0  0  0  0  0  0  0
  140.5610   80.6270  221.6440 N   0  0  0  0  0  0  0  0  0  0  0  0
  140.8790   81.8660  222.1040 C   0  0  0  0  0  0  0  0  0  0  0  0
  142.0937   83.0131  223.4881 H   0  0  0  0  0  0  0  0  0  0  0  0
  143.1831   80.9750  224.4501 H   0  0  0  0  0  0  0  0  0  0  0  0
  142.5682   78.7107  223.5864 H   0  0  0  0  0  0  0  0  0  0  0  0
  140.6044   77.7212  219.5569 H   0  0  0  0  0  0  0  0  0  0  0  0
  142.2266   78.2885  220.0769 H   0  0  0  0  0  0  0  0  0  0  0  0
  142.0221   75.7768  219.6096 H   0  0  0  0  0  0  0  0  0  0  0  0
  142.6735   76.2349  221.2369 H   0  0  0  0  0  0  0  0  0  0  0  0
  143.7226   72.1720  218.2817 H   0  0  0  0  0  0  0  0  0  0  0  0
  144.2008   73.0587  219.7758 H   0  0  0  0  0  0  0  0  0  0  0  0
  146.1030   71.8277  218.6845 H   0  0  0  0  0  0  0  0  0  0  0  0
  145.7705   71.3044  220.3783 H   0  0  0  0  0  0  0  0  0  0  0  0
  147.2098   69.7582  218.0621 H   0  0  0  0  0  0  0  0  0  0  0  0
  146.9383   67.3869  217.3329 H   0  0  0  0  0  0  0  0  0  0  0  0
  144.7979   66.1825  217.7678 H   0  0  0  0  0  0  0  0  0  0  0  0
  142.9249   67.3430  218.9323 H   0  0  0  0  0  0  0  0  0  0  0  0
  141.9368   69.7707  219.2225 H   0  0  0  0  0  0  0  0  0  0  0  0
  142.7389   69.4038  220.8242 H   0  0  0  0  0  0  0  0  0  0  0  0
  137.7017   70.6315  223.7227 H   0  0  0  0  0  0  0  0  0  0  0  0
  138.5196   70.3339  222.1541 H   0  0  0  0  0  0  0  0  0  0  0  0
  138.2075   68.2896  223.6840 H   0  0  0  0  0  0  0  0  0  0  0  0
  139.8910   68.6117  223.0821 H   0  0  0  0  0  0  0  0  0  0  0  0
  139.3694   66.8432  225.3957 H   0  0  0  0  0  0  0  0  0  0  0  0
  140.3119   66.8150  227.7049 H   0  0  0  0  0  0  0  0  0  0  0  0
  141.0697   68.9367  228.7735 H   0  0  0  0  0  0  0  0  0  0  0  0
  140.9111   71.0915  227.5320 H   0  0  0  0  0  0  0  0  0  0  0  0
  139.1227   72.0927  225.4781 H   0  0  0  0  0  0  0  0  0  0  0  0
  140.8996   72.0575  225.1515 H   0  0  0  0  0  0  0  0  0  0  0  0
  138.8595   76.2526  220.6980 H   0  0  0  0  0  0  0  0  0  0  0  0
  138.9166   75.4380  222.3056 H   0  0  0  0  0  0  0  0  0  0  0  0
  138.7906   78.0298  222.2812 H   0  0  0  0  0  0  0  0  0  0  0  0
  140.0606   77.2458  223.3145 H   0  0  0  0  0  0  0  0  0  0  0  0
  140.3874   82.7532  221.6784 H   0  0  0  0  0  0  0  0  0  0  0  0
  1  2  2  0
  2  3  1  0
  3  4  2  0
  4  5  1  0
  5  6  1  0
  6  7  1  0
  7  8  1  0
  8  9  1  0
  9 10  2  0
 10 11  1  0
 11 12  1  0
 12 13  1  0
 13 14  1  0
 14 15  1  0
 15 16  2  0
 16 17  1  0
 17 18  2  0
 18 19  1  0
 19 20  2  0
 20 21  1  0
 11 22  2  0
 22 23  1  0
 23 24  1  0
 24 25  1  0
 25 26  1  0
 26 27  1  0
 27 28  2  0
 28 29  1  0
 29 30  2  0
 30 31  1  0
 31 32  2  0
 32 33  1  0
 23 34  2  0
  8 35  1  0
 35 36  1  0
  4 37  1  0
 37 38  2  0
 38  1  1  0
 36  5  1  0
 34  9  1  0
 21 12  1  0
 33 24  1  0
 20 15  1  0
 32 27  1  0
  1 39  1  0
  2 40  1  0
  3 41  1  0
  6 42  1  0
  6 43  1  0
  7 44  1  0
  7 45  1  0
 13 46  1  0
 13 47  1  0
 14 48  1  0
 14 49  1  0
 16 50  1  0
 17 51  1  0
 18 52  1  0
 19 53  1  0
 21 54  1  0
 21 55  1  0
 25 56  1  0
 25 57  1  0
 26 58  1  0
 26 59  1  0
 28 60  1  0
 29 61  1  0
 30 62  1  0
 31 63  1  0
 33 64  1  0
 33 65  1  0
 35 66  1  0
 35 67  1  0
 36 68  1  0
 36 69  1  0
 38 70  1  0
M  END
>  <UniqueID>  (25) 
48

>  <SMILES>  (25) 
c1ccc(N2CCN(c3nc(N4CCc5ccccc5C4)nc(N4CCc5ccccc5C4)n3)CC2)nc1

>  <Energy>  (25) 
88.51642508162679

>  <Genealogy>  (25) 
c1ccc(N2CCN(c3nc(N4CCc5ccccc5C4)nc(N4CCc5ccccc5C4)n3)CC2)nc1 (3D coordinates assigned)
c1ccc(N2CCN(c3nc(N4CCc5ccccc5C4)nc(N4CCc5ccccc5C4)n3)CC2)nc1 (nonaromatic ring conformer: 88.51642508162679 kcal/mol)

>  <smiles>  (25) 
c1ccc(N2CCN(c3nc(N4CCc5ccccc5C4)nc(N4CCc5ccccc5C4)n3)CC2)nc1

>  <score_type>  (25) 
oracle

>  <origin>  (25) 
autodockgpu

>  <m_score__min__energy>  (25) 
-10.69

>  <m_primary>  (25) 
energy

>  <meeko>  (25) 
{"free_energy": -10.41, "intermolecular_energy": -11.6, "internal_energy": -1.06, "cluster_size": 20, "cluster_id": 1, "rank_in_cluster": 15}

>  <energy>  (25) 
-10.68

>  <cluster_rmsd>  (25) 
0.07

>  <rmsd>  (25) 
269.47

>  <cluster>  (25) 
1

$$$$
QWCMPUPUGDWNGO-UHFFFAOYNA-N
     RDKit          3D

 70 76  0  0  0  0  0  0  0  0999 V2000
  141.8310   81.8020  223.3070 C   0  0  0  0  0  0  0  0  0  0  0  0
  142.4820   80.6580  223.7730 C   0  0  0  0  0  0  0  0  0  0  0  0
  142.1650   79.4090  223.2370 C   0  0  0  0  0  0  0  0  0  0  0  0
  141.1980   79.3180  222.2200 C   0  0  0  0  0  0  0  0  0  0  0  0
  140.8360   78.0470  221.6420 N   0  0  0  0  0  0  0  0  0  0  0  0
  141.3910   77.5990  220.3580 C   0  0  0  0  0  0  0  0  0  0  0  0
  141.8760   76.1540  220.4930 C   0  0  0  0  0  0  0  0  0  0  0  0
  140.8670   75.3030  221.1430 N   0  0  0  0  0  0  0  0  0  0  0  0
  141.1210   73.8890  221.2690 C   0  0  0  0  0  0  0  0  0  0  0  0
  140.6440   73.2060  222.3430 N   0  0  0  0  0  0  0  0  0  0  0  0
  140.8550   71.8690  222.4670 C   0  0  0  0  0  0  0  0  0  0  0  0
  140.3470   71.1450  223.6090 N   0  0  0  0  0  0  0  0  0  0  0  0
  139.1100   70.3560  223.5000 C   0  0  0  0  0  0  0  0  0  0  0  0
  139.2270   69.0780  224.3210 C   0  0  0  0  0  0  0  0  0  0  0  0
  139.6060   69.3960  225.7380 C   0  0  0  0  0  0  0  0  0  0  0  0
  139.1950   68.5470  226.7790 C   0  0  0  0  0  0  0  0  0  0  0  0
  139.5790   68.8120  228.0960 C   0  0  0  0  0  0  0  0  0  0  0  0
  140.3880   69.9120  228.3820 C   0  0  0  0  0  0  0  0  0  0  0  0
  140.8170   70.7510  227.3500 C   0  0  0  0  0  0  0  0  0  0  0  0
  140.4310   70.5030  226.0240 C   0  0  0  0  0  0  0  0  0  0  0  0
  140.9260   71.4280  224.9350 C   0  0  0  0  0  0  0  0  0  0  0  0
  141.5510   71.2180  221.4990 N   0  0  0  0  0  0  0  0  0  0  0  0
  142.0430   71.8860  220.4240 C   0  0  0  0  0  0  0  0  0  0  0  0
  142.7920   71.1830  219.4090 N   0  0  0  0  0  0  0  0  0  0  0  0
  143.8690   71.8350  218.6570 C   0  0  0  0  0  0  0  0  0  0  0  0
  145.1930   71.1410  218.9760 C   0  0  0  0  0  0  0  0  0  0  0  0
  145.0750   69.6330  218.9250 C   0  0  0  0  0  0  0  0  0  0  0  0
  146.2450   68.8600  218.8570 C   0  0  0  0  0  0  0  0  0  0  0  0
  146.1730   67.4640  218.8680 C   0  0  0  0  0  0  0  0  0  0  0  0
  144.9330   66.8270  218.9530 C   0  0  0  0  0  0  0  0  0  0  0  0
  143.7610   67.5820  219.0380 C   0  0  0  0  0  0  0  0  0  0  0  0
  143.8190   68.9850  219.0440 C   0  0  0  0  0  0  0  0  0  0  0  0
  142.5310   69.7710  219.1030 C   0  0  0  0  0  0  0  0  0  0  0  0
  141.8240   73.2220  220.3180 N   0  0  0  0  0  0  0  0  0  0  0  0
  139.5890   75.8890  221.5850 C   0  0  0  0  0  0  0  0  0  0  0  0
  139.8340   77.2140  222.3240 C   0  0  0  0  0  0  0  0  0  0  0  0
  140.5650   80.4520  221.8030 N   0  0  0  0  0  0  0  0  0  0  0  0
  140.8630   81.6770  222.3120 C   0  0  0  0  0  0  0  0  0  0  0  0
  142.0793   82.7906  223.7205 H   0  0  0  0  0  0  0  0  0  0  0  0
  143.2441   80.7411  224.5619 H   0  0  0  0  0  0  0  0  0  0  0  0
  142.6674   78.5031  223.6070 H   0  0  0  0  0  0  0  0  0  0  0  0
  140.6132   77.6545  219.5821 H   0  0  0  0  0  0  0  0  0  0  0  0
  142.2347   78.2459  220.0756 H   0  0  0  0  0  0  0  0  0  0  0  0
  142.0887   75.7536  219.4908 H   0  0  0  0  0  0  0  0  0  0  0  0
  142.7819   76.1518  221.1170 H   0  0  0  0  0  0  0  0  0  0  0  0
  138.2647   70.9521  223.8742 H   0  0  0  0  0  0  0  0  0  0  0  0
  138.9450   70.0911  222.4452 H   0  0  0  0  0  0  0  0  0  0  0  0
  138.2601   68.5535  224.3140 H   0  0  0  0  0  0  0  0  0  0  0  0
  140.0073   68.4413  223.8785 H   0  0  0  0  0  0  0  0  0  0  0  0
  138.5687   67.6705  226.5565 H   0  0  0  0  0  0  0  0  0  0  0  0
  139.2427   68.1519  228.9091 H   0  0  0  0  0  0  0  0  0  0  0  0
  140.6882   70.1189  229.4198 H   0  0  0  0  0  0  0  0  0  0  0  0
  141.4620   71.6121  227.5789 H   0  0  0  0  0  0  0  0  0  0  0  0
  140.6689   72.4608  225.2130 H   0  0  0  0  0  0  0  0  0  0  0  0
  142.0119   71.2741  224.8513 H   0  0  0  0  0  0  0  0  0  0  0  0
  143.6637   71.7591  217.5790 H   0  0  0  0  0  0  0  0  0  0  0  0
  143.9291   72.8961  218.9405 H   0  0  0  0  0  0  0  0  0  0  0  0
  145.9471   71.4623  218.2424 H   0  0  0  0  0  0  0  0  0  0  0  0
  145.4839   71.4225  219.9988 H   0  0  0  0  0  0  0  0  0  0  0  0
  147.2248   69.3561  218.7946 H   0  0  0  0  0  0  0  0  0  0  0  0
  147.0945   66.8662  218.8096 H   0  0  0  0  0  0  0  0  0  0  0  0
  144.8793   65.7283  218.9530 H   0  0  0  0  0  0  0  0  0  0  0  0
  142.7870   67.0747  219.1006 H   0  0  0  0  0  0  0  0  0  0  0  0
  142.0219   69.7015  218.1304 H   0  0  0  0  0  0  0  0  0  0  0  0
  141.8988   69.3502  219.8988 H   0  0  0  0  0  0  0  0  0  0  0  0
  138.9532   76.0759  220.7071 H   0  0  0  0  0  0  0  0  0  0  0  0
  139.0918   75.1857  222.2692 H   0  0  0  0  0  0  0  0  0  0  0  0
  138.8869   77.7707  222.3787 H   0  0  0  0  0  0  0  0  0  0  0  0
  140.2148   76.9779  223.3286 H   0  0  0  0  0  0  0  0  0  0  0  0
  140.3400   82.5697  221.9384 H   0  0  0  0  0  0  0  0  0  0  0  0
  1  2  2  0
  2  3  1  0
  3  4  2  0
  4  5  1  0
  5  6  1  0
  6  7  1  0
  7  8  1  0
  8  9  1  0
  9 10  2  0
 10 11  1  0
 11 12  1  0
 12 13  1  0
 13 14  1  0
 14 15  1  0
 15 16  2  0
 16 17  1  0
 17 18  2  0
 18 19  1  0
 19 20  2  0
 20 21  1  0
 11 22  2  0
 22 23  1  0
 23 24  1  0
 24 25  1  0
 25 26  1  0
 26 27  1  0
 27 28  2  0
 28 29  1  0
 29 30  2  0
 30 31  1  0
 31 32  2  0
 32 33  1  0
 23 34  2  0
  8 35  1  0
 35 36  1  0
  4 37  1  0
 37 38  2  0
 38  1  1  0
 36  5  1  0
 34  9  1  0
 21 12  1  0
 33 24  1  0
 20 15  1  0
 32 27  1  0
  1 39  1  0
  2 40  1  0
  3 41  1  0
  6 42  1  0
  6 43  1  0
  7 44  1  0
  7 45  1  0
 13 46  1  0
 13 47  1  0
 14 48  1  0
 14 49  1  0
 16 50  1  0
 17 51  1  0
 18 52  1  0
 19 53  1  0
 21 54  1  0
 21 55  1  0
 25 56  1  0
 25 57  1  0
 26 58  1  0
 26 59  1  0
 28 60  1  0
 29 61  1  0
 30 62  1  0
 31 63  1  0
 33 64  1  0
 33 65  1  0
 35 66  1  0
 35 67  1  0
 36 68  1  0
 36 69  1  0
 38 70  1  0
M  END
>  <UniqueID>  (26) 
48

>  <SMILES>  (26) 
c1ccc(N2CCN(c3nc(N4CCc5ccccc5C4)nc(N4CCc5ccccc5C4)n3)CC2)nc1

>  <Energy>  (26) 
88.51642508162679

>  <Genealogy>  (26) 
c1ccc(N2CCN(c3nc(N4CCc5ccccc5C4)nc(N4CCc5ccccc5C4)n3)CC2)nc1 (3D coordinates assigned)
c1ccc(N2CCN(c3nc(N4CCc5ccccc5C4)nc(N4CCc5ccccc5C4)n3)CC2)nc1 (nonaromatic ring conformer: 88.51642508162679 kcal/mol)

>  <smiles>  (26) 
c1ccc(N2CCN(c3nc(N4CCc5ccccc5C4)nc(N4CCc5ccccc5C4)n3)CC2)nc1

>  <score_type>  (26) 
oracle

>  <origin>  (26) 
autodockgpu

>  <m_score__min__energy>  (26) 
-10.69

>  <m_primary>  (26) 
energy

>  <meeko>  (26) 
{"free_energy": -10.68, "intermolecular_energy": -11.88, "internal_energy": -1.05, "cluster_size": 20, "cluster_id": 1, "rank_in_cluster": 4}

>  <energy>  (26) 
-10.67

>  <cluster_rmsd>  (26) 
0.06

>  <rmsd>  (26) 
269.49

>  <cluster>  (26) 
1

$$$$
QWCMPUPUGDWNGO-UHFFFAOYNA-N
     RDKit          3D

 70 76  0  0  0  0  0  0  0  0999 V2000
  141.8210   81.9420  223.1330 C   0  0  0  0  0  0  0  0  0  0  0  0
  142.4500   80.8040  223.6420 C   0  0  0  0  0  0  0  0  0  0  0  0
  142.1130   79.5430  223.1490 C   0  0  0  0  0  0  0  0  0  0  0  0
  141.1490   79.4320  222.1320 C   0  0  0  0  0  0  0  0  0  0  0  0
  140.7670   78.1480  221.5970 N   0  0  0  0  0  0  0  0  0  0  0  0
  141.2390   77.6900  220.2840 C   0  0  0  0  0  0  0  0  0  0  0  0
  141.7540   76.2540  220.4040 C   0  0  0  0  0  0  0  0  0  0  0  0
  140.8050   75.3990  221.1340 N   0  0  0  0  0  0  0  0  0  0  0  0
  141.0880   73.9900  221.2610 C   0  0  0  0  0  0  0  0  0  0  0  0
  140.6110   73.2940  222.3260 N   0  0  0  0  0  0  0  0  0  0  0  0
  140.8490   71.9620  222.4510 C   0  0  0  0  0  0  0  0  0  0  0  0
  140.3410   71.2250  223.5840 N   0  0  0  0  0  0  0  0  0  0  0  0
  139.0990   70.4450  223.4690 C   0  0  0  0  0  0  0  0  0  0  0  0
  139.2110   69.1540  224.2700 C   0  0  0  0  0  0  0  0  0  0  0  0
  139.5970   69.4490  225.6900 C   0  0  0  0  0  0  0  0  0  0  0  0
  139.1840   68.5880  226.7200 C   0  0  0  0  0  0  0  0  0  0  0  0
  139.5730   68.8310  228.0400 C   0  0  0  0  0  0  0  0  0  0  0  0
  140.3900   69.9220  228.3380 C   0  0  0  0  0  0  0  0  0  0  0  0
  140.8220   70.7730  227.3180 C   0  0  0  0  0  0  0  0  0  0  0  0
  140.4290   70.5470  225.9890 C   0  0  0  0  0  0  0  0  0  0  0  0
  140.9260   71.4850  224.9120 C   0  0  0  0  0  0  0  0  0  0  0  0
  141.5740   71.3280  221.4930 N   0  0  0  0  0  0  0  0  0  0  0  0
  142.0670   72.0100  220.4260 C   0  0  0  0  0  0  0  0  0  0  0  0
  142.8450   71.3260  219.4200 N   0  0  0  0  0  0  0  0  0  0  0  0
  143.9660   71.9800  218.7370 C   0  0  0  0  0  0  0  0  0  0  0  0
  145.2620   71.2500  219.0890 C   0  0  0  0  0  0  0  0  0  0  0  0
  145.1180   69.7470  218.9830 C   0  0  0  0  0  0  0  0  0  0  0  0
  146.2760   68.9530  218.9380 C   0  0  0  0  0  0  0  0  0  0  0  0
  146.1780   67.5590  218.9000 C   0  0  0  0  0  0  0  0  0  0  0  0
  144.9240   66.9450  218.9100 C   0  0  0  0  0  0  0  0  0  0  0  0
  143.7630   67.7200  218.9710 C   0  0  0  0  0  0  0  0  0  0  0  0
  143.8470   69.1200  219.0270 C   0  0  0  0  0  0  0  0  0  0  0  0
  142.5720   69.9290  219.0560 C   0  0  0  0  0  0  0  0  0  0  0  0
  141.8200   73.3410  220.3190 N   0  0  0  0  0  0  0  0  0  0  0  0
  139.5520   75.9720  221.6550 C   0  0  0  0  0  0  0  0  0  0  0  0
  139.8270   77.3110  222.3570 C   0  0  0  0  0  0  0  0  0  0  0  0
  140.5380   80.5620  221.6710 N   0  0  0  0  0  0  0  0  0  0  0  0
  140.8550   81.7990  222.1390 C   0  0  0  0  0  0  0  0  0  0  0  0
  142.0851   82.9401  223.5124 H   0  0  0  0  0  0  0  0  0  0  0  0
  143.2104   80.9016  224.4308 H   0  0  0  0  0  0  0  0  0  0  0  0
  142.5981   78.6423  223.5532 H   0  0  0  0  0  0  0  0  0  0  0  0
  140.4089   77.7236  219.5630 H   0  0  0  0  0  0  0  0  0  0  0  0
  142.0514   78.3448  219.9357 H   0  0  0  0  0  0  0  0  0  0  0  0
  141.9025   75.8422  219.3949 H   0  0  0  0  0  0  0  0  0  0  0  0
  142.7012   76.2731  220.9630 H   0  0  0  0  0  0  0  0  0  0  0  0
  138.2590   71.0406  223.8558 H   0  0  0  0  0  0  0  0  0  0  0  0
  138.9284   70.1967  222.4111 H   0  0  0  0  0  0  0  0  0  0  0  0
  138.2409   68.6355  224.2587 H   0  0  0  0  0  0  0  0  0  0  0  0
  139.9854   68.5189  223.8152 H   0  0  0  0  0  0  0  0  0  0  0  0
  138.5517   67.7187  226.4866 H   0  0  0  0  0  0  0  0  0  0  0  0
  139.2348   68.1616  228.8447 H   0  0  0  0  0  0  0  0  0  0  0  0
  140.6944   70.1123  229.3778 H   0  0  0  0  0  0  0  0  0  0  0  0
  141.4743   71.6257  227.5574 H   0  0  0  0  0  0  0  0  0  0  0  0
  140.6760   72.5151  225.2061 H   0  0  0  0  0  0  0  0  0  0  0  0
  142.0107   71.3259  224.8224 H   0  0  0  0  0  0  0  0  0  0  0  0
  143.8064   71.9431  217.6493 H   0  0  0  0  0  0  0  0  0  0  0  0
  144.0335   73.0299  219.0583 H   0  0  0  0  0  0  0  0  0  0  0  0
  146.0529   71.5797  218.3993 H   0  0  0  0  0  0  0  0  0  0  0  0
  145.5139   71.4926  220.1319 H   0  0  0  0  0  0  0  0  0  0  0  0
  147.2665   69.4314  218.9326 H   0  0  0  0  0  0  0  0  0  0  0  0
  147.0899   66.9450  218.8622 H   0  0  0  0  0  0  0  0  0  0  0  0
  144.8499   65.8482  218.8698 H   0  0  0  0  0  0  0  0  0  0  0  0
  142.7780   67.2304  218.9751 H   0  0  0  0  0  0  0  0  0  0  0  0
  142.1051   69.9010  218.0604 H   0  0  0  0  0  0  0  0  0  0  0  0
  141.8978   69.4951  219.8092 H   0  0  0  0  0  0  0  0  0  0  0  0
  138.8542   76.1366  220.8207 H   0  0  0  0  0  0  0  0  0  0  0  0
  139.1140   75.2715  222.3812 H   0  0  0  0  0  0  0  0  0  0  0  0
  138.8775   77.8550  222.4689 H   0  0  0  0  0  0  0  0  0  0  0  0
  140.2793   77.0949  223.3361 H   0  0  0  0  0  0  0  0  0  0  0  0
  140.3486   82.6870  221.7327 H   0  0  0  0  0  0  0  0  0  0  0  0
  1  2  2  0
  2  3  1  0
  3  4  2  0
  4  5  1  0
  5  6  1  0
  6  7  1  0
  7  8  1  0
  8  9  1  0
  9 10  2  0
 10 11  1  0
 11 12  1  0
 12 13  1  0
 13 14  1  0
 14 15  1  0
 15 16  2  0
 16 17  1  0
 17 18  2  0
 18 19  1  0
 19 20  2  0
 20 21  1  0
 11 22  2  0
 22 23  1  0
 23 24  1  0
 24 25  1  0
 25 26  1  0
 26 27  1  0
 27 28  2  0
 28 29  1  0
 29 30  2  0
 30 31  1  0
 31 32  2  0
 32 33  1  0
 23 34  2  0
  8 35  1  0
 35 36  1  0
  4 37  1  0
 37 38  2  0
 38  1  1  0
 36  5  1  0
 34  9  1  0
 21 12  1  0
 33 24  1  0
 20 15  1  0
 32 27  1  0
  1 39  1  0
  2 40  1  0
  3 41  1  0
  6 42  1  0
  6 43  1  0
  7 44  1  0
  7 45  1  0
 13 46  1  0
 13 47  1  0
 14 48  1  0
 14 49  1  0
 16 50  1  0
 17 51  1  0
 18 52  1  0
 19 53  1  0
 21 54  1  0
 21 55  1  0
 25 56  1  0
 25 57  1  0
 26 58  1  0
 26 59  1  0
 28 60  1  0
 29 61  1  0
 30 62  1  0
 31 63  1  0
 33 64  1  0
 33 65  1  0
 35 66  1  0
 35 67  1  0
 36 68  1  0
 36 69  1  0
 38 70  1  0
M  END
>  <UniqueID>  (27) 
48

>  <SMILES>  (27) 
c1ccc(N2CCN(c3nc(N4CCc5ccccc5C4)nc(N4CCc5ccccc5C4)n3)CC2)nc1

>  <Energy>  (27) 
88.51642508162679

>  <Genealogy>  (27) 
c1ccc(N2CCN(c3nc(N4CCc5ccccc5C4)nc(N4CCc5ccccc5C4)n3)CC2)nc1 (3D coordinates assigned)
c1ccc(N2CCN(c3nc(N4CCc5ccccc5C4)nc(N4CCc5ccccc5C4)n3)CC2)nc1 (nonaromatic ring conformer: 88.51642508162679 kcal/mol)

>  <smiles>  (27) 
c1ccc(N2CCN(c3nc(N4CCc5ccccc5C4)nc(N4CCc5ccccc5C4)n3)CC2)nc1

>  <score_type>  (27) 
oracle

>  <origin>  (27) 
autodockgpu

>  <m_score__min__energy>  (27) 
-10.69

>  <m_primary>  (27) 
energy

>  <meeko>  (27) 
{"free_energy": -10.67, "intermolecular_energy": -11.86, "internal_energy": -1.05, "cluster_size": 20, "cluster_id": 1, "rank_in_cluster": 7}

>  <energy>  (27) 
-10.67

>  <cluster_rmsd>  (27) 
0.09

>  <rmsd>  (27) 
269.47

>  <cluster>  (27) 
1

$$$$
QWCMPUPUGDWNGO-UHFFFAOYNA-N
     RDKit          3D

 70 76  0  0  0  0  0  0  0  0999 V2000
  142.1970   81.4610  223.6520 C   0  0  0  0  0  0  0  0  0  0  0  0
  140.8250   81.2460  223.5150 C   0  0  0  0  0  0  0  0  0  0  0  0
  140.3580   80.0690  222.9290 C   0  0  0  0  0  0  0  0  0  0  0  0
  141.2800   79.1010  222.4930 C   0  0  0  0  0  0  0  0  0  0  0  0
  140.8420   77.8720  221.8770 N   0  0  0  0  0  0  0  0  0  0  0  0
  141.4950   77.3380  220.6750 C   0  0  0  0  0  0  0  0  0  0  0  0
  141.7820   75.8490  220.8740 C   0  0  0  0  0  0  0  0  0  0  0  0
  140.6040   75.1360  221.3940 N   0  0  0  0  0  0  0  0  0  0  0  0
  140.6680   73.7040  221.5560 C   0  0  0  0  0  0  0  0  0  0  0  0
  141.3110   72.9440  220.6320 N   0  0  0  0  0  0  0  0  0  0  0  0
  141.4010   71.5950  220.7800 C   0  0  0  0  0  0  0  0  0  0  0  0
  142.0850   70.7900  219.7960 N   0  0  0  0  0  0  0  0  0  0  0  0
  141.3490   70.2240  218.6550 C   0  0  0  0  0  0  0  0  0  0  0  0
  142.2160   70.2520  217.4020 C   0  0  0  0  0  0  0  0  0  0  0  0
  143.5300   69.5730  217.6570 C   0  0  0  0  0  0  0  0  0  0  0  0
  144.2060   68.9400  216.6010 C   0  0  0  0  0  0  0  0  0  0  0  0
  145.4500   68.3420  216.8200 C   0  0  0  0  0  0  0  0  0  0  0  0
  146.0340   68.3850  218.0860 C   0  0  0  0  0  0  0  0  0  0  0  0
  145.3780   69.0290  219.1380 C   0  0  0  0  0  0  0  0  0  0  0  0
  144.1240   69.6250  218.9350 C   0  0  0  0  0  0  0  0  0  0  0  0
  143.4510   70.3220  220.0960 C   0  0  0  0  0  0  0  0  0  0  0  0
  140.8360   71.0120  221.8690 N   0  0  0  0  0  0  0  0  0  0  0  0
  140.1810   71.7550  222.7980 C   0  0  0  0  0  0  0  0  0  0  0  0
  139.5760   71.1200  223.9450 N   0  0  0  0  0  0  0  0  0  0  0  0
  138.5980   70.0370  223.7980 C   0  0  0  0  0  0  0  0  0  0  0  0
  139.1760   68.7560  224.4000 C   0  0  0  0  0  0  0  0  0  0  0  0
  139.8040   68.9950  225.7560 C   0  0  0  0  0  0  0  0  0  0  0  0
  140.0720   67.8950  226.5870 C   0  0  0  0  0  0  0  0  0  0  0  0
  140.7060   68.0750  227.8200 C   0  0  0  0  0  0  0  0  0  0  0  0
  141.0820   69.3550  228.2330 C   0  0  0  0  0  0  0  0  0  0  0  0
  140.8370   70.4580  227.4110 C   0  0  0  0  0  0  0  0  0  0  0  0
  140.2170   70.2890  226.1630 C   0  0  0  0  0  0  0  0  0  0  0  0
  139.9360   71.5070  225.3150 C   0  0  0  0  0  0  0  0  0  0  0  0
  140.1010   73.1010  222.6330 N   0  0  0  0  0  0  0  0  0  0  0  0
  139.3610   75.8770  221.6690 C   0  0  0  0  0  0  0  0  0  0  0  0
  139.6690   77.1770  222.4290 C   0  0  0  0  0  0  0  0  0  0  0  0
  142.6150   79.3510  222.6210 N   0  0  0  0  0  0  0  0  0  0  0  0
  143.0870   80.4910  223.1910 C   0  0  0  0  0  0  0  0  0  0  0  0
  142.5720   82.3842  224.1179 H   0  0  0  0  0  0  0  0  0  0  0  0
  140.1115   82.0046  223.8691 H   0  0  0  0  0  0  0  0  0  0  0  0
  139.2777   79.8998  222.8091 H   0  0  0  0  0  0  0  0  0  0  0  0
  140.8326   77.4716  219.8070 H   0  0  0  0  0  0  0  0  0  0  0  0
  142.4390   77.8747  220.4996 H   0  0  0  0  0  0  0  0  0  0  0  0
  142.0685   75.4082  219.9078 H   0  0  0  0  0  0  0  0  0  0  0  0
  142.5960   75.7500  221.6072 H   0  0  0  0  0  0  0  0  0  0  0  0
  141.0717   69.1839  218.8816 H   0  0  0  0  0  0  0  0  0  0  0  0
  140.4444   70.8244  218.4785 H   0  0  0  0  0  0  0  0  0  0  0  0
  141.6916   69.7314  216.5872 H   0  0  0  0  0  0  0  0  0  0  0  0
  142.4048   71.2992  217.1232 H   0  0  0  0  0  0  0  0  0  0  0  0
  143.7547   68.9149  215.5981 H   0  0  0  0  0  0  0  0  0  0  0  0
  145.9695   67.8365  215.9926 H   0  0  0  0  0  0  0  0  0  0  0  0
  147.0121   67.9113  218.2562 H   0  0  0  0  0  0  0  0  0  0  0  0
  145.8476   69.0691  220.1319 H   0  0  0  0  0  0  0  0  0  0  0  0
  143.3995   69.6189  220.9404 H   0  0  0  0  0  0  0  0  0  0  0  0
  144.0523   71.2134  220.3278 H   0  0  0  0  0  0  0  0  0  0  0  0
  137.6698   70.3050  224.3239 H   0  0  0  0  0  0  0  0  0  0  0  0
  138.3775   69.8789  222.7320 H   0  0  0  0  0  0  0  0  0  0  0  0
  138.3665   68.0192  224.5093 H   0  0  0  0  0  0  0  0  0  0  0  0
  139.9620   68.3894  223.7234 H   0  0  0  0  0  0  0  0  0  0  0  0
  139.7809   66.8842  226.2653 H   0  0  0  0  0  0  0  0  0  0  0  0
  140.9088   67.2076  228.4654 H   0  0  0  0  0  0  0  0  0  0  0  0
  141.5722   69.4952  229.2077 H   0  0  0  0  0  0  0  0  0  0  0  0
  141.1316   71.4643  227.7436 H   0  0  0  0  0  0  0  0  0  0  0  0
  139.1036   72.0716  225.7603 H   0  0  0  0  0  0  0  0  0  0  0  0
  140.8442   72.1266  225.2780 H   0  0  0  0  0  0  0  0  0  0  0  0
  138.8670   76.1220  220.7172 H   0  0  0  0  0  0  0  0  0  0  0  0
  138.7013   75.2502  222.2870 H   0  0  0  0  0  0  0  0  0  0  0  0
  138.7966   77.8435  222.3611 H   0  0  0  0  0  0  0  0  0  0  0  0
  139.8891   76.9159  223.4746 H   0  0  0  0  0  0  0  0  0  0  0  0
  144.1712   80.6487  223.2888 H   0  0  0  0  0  0  0  0  0  0  0  0
  1  2  2  0
  2  3  1  0
  3  4  2  0
  4  5  1  0
  5  6  1  0
  6  7  1  0
  7  8  1  0
  8  9  1  0
  9 10  2  0
 10 11  1  0
 11 12  1  0
 12 13  1  0
 13 14  1  0
 14 15  1  0
 15 16  2  0
 16 17  1  0
 17 18  2  0
 18 19  1  0
 19 20  2  0
 20 21  1  0
 11 22  2  0
 22 23  1  0
 23 24  1  0
 24 25  1  0
 25 26  1  0
 26 27  1  0
 27 28  2  0
 28 29  1  0
 29 30  2  0
 30 31  1  0
 31 32  2  0
 32 33  1  0
 23 34  2  0
  8 35  1  0
 35 36  1  0
  4 37  1  0
 37 38  2  0
 38  1  1  0
 36  5  1  0
 34  9  1  0
 21 12  1  0
 33 24  1  0
 20 15  1  0
 32 27  1  0
  1 39  1  0
  2 40  1  0
  3 41  1  0
  6 42  1  0
  6 43  1  0
  7 44  1  0
  7 45  1  0
 13 46  1  0
 13 47  1  0
 14 48  1  0
 14 49  1  0
 16 50  1  0
 17 51  1  0
 18 52  1  0
 19 53  1  0
 21 54  1  0
 21 55  1  0
 25 56  1  0
 25 57  1  0
 26 58  1  0
 26 59  1  0
 28 60  1  0
 29 61  1  0
 30 62  1  0
 31 63  1  0
 33 64  1  0
 33 65  1  0
 35 66  1  0
 35 67  1  0
 36 68  1  0
 36 69  1  0
 38 70  1  0
M  END
>  <UniqueID>  (28) 
48

>  <SMILES>  (28) 
c1ccc(N2CCN(c3nc(N4CCc5ccccc5C4)nc(N4CCc5ccccc5C4)n3)CC2)nc1

>  <Energy>  (28) 
88.51642508162679

>  <Genealogy>  (28) 
c1ccc(N2CCN(c3nc(N4CCc5ccccc5C4)nc(N4CCc5ccccc5C4)n3)CC2)nc1 (3D coordinates assigned)
c1ccc(N2CCN(c3nc(N4CCc5ccccc5C4)nc(N4CCc5ccccc5C4)n3)CC2)nc1 (nonaromatic ring conformer: 88.51642508162679 kcal/mol)

>  <smiles>  (28) 
c1ccc(N2CCN(c3nc(N4CCc5ccccc5C4)nc(N4CCc5ccccc5C4)n3)CC2)nc1

>  <score_type>  (28) 
oracle

>  <origin>  (28) 
autodockgpu

>  <m_score__min__energy>  (28) 
-10.69

>  <m_primary>  (28) 
energy

>  <meeko>  (28) 
{"free_energy": -9.92, "intermolecular_energy": -11.12, "internal_energy": -1.02, "cluster_size": 20, "cluster_id": 1, "rank_in_cluster": 20}

>  <energy>  (28) 
-10.66

>  <cluster_rmsd>  (28) 
0.13

>  <rmsd>  (28) 
269.44

>  <cluster>  (28) 
1

$$$$
QWCMPUPUGDWNGO-UHFFFAOYNA-N
     RDKit          3D

 70 76  0  0  0  0  0  0  0  0999 V2000
  141.8550   81.7540  223.3920 C   0  0  0  0  0  0  0  0  0  0  0  0
  142.5000   80.6040  223.8480 C   0  0  0  0  0  0  0  0  0  0  0  0
  142.1860   79.3610  223.2970 C   0  0  0  0  0  0  0  0  0  0  0  0
  141.2260   79.2830  222.2720 C   0  0  0  0  0  0  0  0  0  0  0  0
  140.8660   78.0200  221.6760 N   0  0  0  0  0  0  0  0  0  0  0  0
  141.4450   77.5760  220.4020 C   0  0  0  0  0  0  0  0  0  0  0  0
  141.9160   76.1270  220.5360 C   0  0  0  0  0  0  0  0  0  0  0  0
  140.8860   75.2800  221.1580 N   0  0  0  0  0  0  0  0  0  0  0  0
  141.1260   73.8620  221.2790 C   0  0  0  0  0  0  0  0  0  0  0  0
  140.6520   73.1820  222.3560 N   0  0  0  0  0  0  0  0  0  0  0  0
  140.8490   71.8430  222.4750 C   0  0  0  0  0  0  0  0  0  0  0  0
  140.3450   71.1220  223.6210 N   0  0  0  0  0  0  0  0  0  0  0  0
  139.0930   70.3570  223.5270 C   0  0  0  0  0  0  0  0  0  0  0  0
  139.1980   69.0720  224.3380 C   0  0  0  0  0  0  0  0  0  0  0  0
  139.6040   69.3750  225.7520 C   0  0  0  0  0  0  0  0  0  0  0  0
  139.1920   68.5290  226.7940 C   0  0  0  0  0  0  0  0  0  0  0  0
  139.6000   68.7790  228.1070 C   0  0  0  0  0  0  0  0  0  0  0  0
  140.4330   69.8630  228.3860 C   0  0  0  0  0  0  0  0  0  0  0  0
  140.8630   70.7000  227.3530 C   0  0  0  0  0  0  0  0  0  0  0  0
  140.4530   70.4660  226.0310 C   0  0  0  0  0  0  0  0  0  0  0  0
  140.9490   71.3880  224.9400 C   0  0  0  0  0  0  0  0  0  0  0  0
  141.5290   71.1860  221.4990 N   0  0  0  0  0  0  0  0  0  0  0  0
  142.0180   71.8510  220.4200 C   0  0  0  0  0  0  0  0  0  0  0  0
  142.7480   71.1420  219.3960 N   0  0  0  0  0  0  0  0  0  0  0  0
  143.8230   71.7850  218.6330 C   0  0  0  0  0  0  0  0  0  0  0  0
  145.1450   71.0800  218.9360 C   0  0  0  0  0  0  0  0  0  0  0  0
  145.0120   69.5730  218.8860 C   0  0  0  0  0  0  0  0  0  0  0  0
  146.1750   68.7890  218.8040 C   0  0  0  0  0  0  0  0  0  0  0  0
  146.0910   67.3930  218.8160 C   0  0  0  0  0  0  0  0  0  0  0  0
  144.8460   66.7680  218.9140 C   0  0  0  0  0  0  0  0  0  0  0  0
  143.6820   67.5330  219.0130 C   0  0  0  0  0  0  0  0  0  0  0  0
  143.7530   68.9350  219.0200 C   0  0  0  0  0  0  0  0  0  0  0  0
  142.4720   69.7320  219.0930 C   0  0  0  0  0  0  0  0  0  0  0  0
  141.8120   73.1900  220.3190 N   0  0  0  0  0  0  0  0  0  0  0  0
  139.6030   75.8720  221.5760 C   0  0  0  0  0  0  0  0  0  0  0  0
  139.8430   77.1900  222.3300 C   0  0  0  0  0  0  0  0  0  0  0  0
  140.5970   80.4230  221.8630 N   0  0  0  0  0  0  0  0  0  0  0  0
  140.8920   81.6420  222.3890 C   0  0  0  0  0  0  0  0  0  0  0  0
  142.1029   82.7373  223.8183 H   0  0  0  0  0  0  0  0  0  0  0  0
  143.2569   80.6772  224.6428 H   0  0  0  0  0  0  0  0  0  0  0  0
  142.6847   78.4506  223.6609 H   0  0  0  0  0  0  0  0  0  0  0  0
  140.6845   77.6430  219.6100 H   0  0  0  0  0  0  0  0  0  0  0  0
  142.3000   78.2180  220.1432 H   0  0  0  0  0  0  0  0  0  0  0  0
  142.1469   75.7323  219.5355 H   0  0  0  0  0  0  0  0  0  0  0  0
  142.8087   76.1125  221.1785 H   0  0  0  0  0  0  0  0  0  0  0  0
  138.2649   70.9664  223.9179 H   0  0  0  0  0  0  0  0  0  0  0  0
  138.9074   70.1016  222.4733 H   0  0  0  0  0  0  0  0  0  0  0  0
  138.2215   68.5656  224.3422 H   0  0  0  0  0  0  0  0  0  0  0  0
  139.9592   68.4232  223.8802 H   0  0  0  0  0  0  0  0  0  0  0  0
  138.5456   67.6661  226.5760 H   0  0  0  0  0  0  0  0  0  0  0  0
  139.2641   68.1204  228.9215 H   0  0  0  0  0  0  0  0  0  0  0  0
  140.7516   70.0590  229.4205 H   0  0  0  0  0  0  0  0  0  0  0  0
  141.5271   71.5478  227.5772 H   0  0  0  0  0  0  0  0  0  0  0  0
  140.7147   72.4237  225.2271 H   0  0  0  0  0  0  0  0  0  0  0  0
  142.0308   71.2156  224.8396 H   0  0  0  0  0  0  0  0  0  0  0  0
  143.6052   71.7120  217.5572 H   0  0  0  0  0  0  0  0  0  0  0  0
  143.8955   72.8450  218.9178 H   0  0  0  0  0  0  0  0  0  0  0  0
  145.8930   71.3948  218.1934 H   0  0  0  0  0  0  0  0  0  0  0  0
  145.4516   71.3591  219.9549 H   0  0  0  0  0  0  0  0  0  0  0  0
  147.1583   69.2765  218.7299 H   0  0  0  0  0  0  0  0  0  0  0  0
  147.0064   66.7868  218.7482 H   0  0  0  0  0  0  0  0  0  0  0  0
  144.7821   65.6699  218.9132 H   0  0  0  0  0  0  0  0  0  0  0  0
  142.7042   67.0344  219.0859 H   0  0  0  0  0  0  0  0  0  0  0  0
  141.9517   69.6667  218.1260 H   0  0  0  0  0  0  0  0  0  0  0  0
  141.8451   69.3165  219.8957 H   0  0  0  0  0  0  0  0  0  0  0  0
  138.9879   76.0702  220.6859 H   0  0  0  0  0  0  0  0  0  0  0  0
  139.0849   75.1676  222.2434 H   0  0  0  0  0  0  0  0  0  0  0  0
  138.8994   77.7540  222.3687 H   0  0  0  0  0  0  0  0  0  0  0  0
  140.2005   76.9433  223.3406 H   0  0  0  0  0  0  0  0  0  0  0  0
  140.3713   82.5394  222.0236 H   0  0  0  0  0  0  0  0  0  0  0  0
  1  2  2  0
  2  3  1  0
  3  4  2  0
  4  5  1  0
  5  6  1  0
  6  7  1  0
  7  8  1  0
  8  9  1  0
  9 10  2  0
 10 11  1  0
 11 12  1  0
 12 13  1  0
 13 14  1  0
 14 15  1  0
 15 16  2  0
 16 17  1  0
 17 18  2  0
 18 19  1  0
 19 20  2  0
 20 21  1  0
 11 22  2  0
 22 23  1  0
 23 24  1  0
 24 25  1  0
 25 26  1  0
 26 27  1  0
 27 28  2  0
 28 29  1  0
 29 30  2  0
 30 31  1  0
 31 32  2  0
 32 33  1  0
 23 34  2  0
  8 35  1  0
 35 36  1  0
  4 37  1  0
 37 38  2  0
 38  1  1  0
 36  5  1  0
 34  9  1  0
 21 12  1  0
 33 24  1  0
 20 15  1  0
 32 27  1  0
  1 39  1  0
  2 40  1  0
  3 41  1  0
  6 42  1  0
  6 43  1  0
  7 44  1  0
  7 45  1  0
 13 46  1  0
 13 47  1  0
 14 48  1  0
 14 49  1  0
 16 50  1  0
 17 51  1  0
 18 52  1  0
 19 53  1  0
 21 54  1  0
 21 55  1  0
 25 56  1  0
 25 57  1  0
 26 58  1  0
 26 59  1  0
 28 60  1  0
 29 61  1  0
 30 62  1  0
 31 63  1  0
 33 64  1  0
 33 65  1  0
 35 66  1  0
 35 67  1  0
 36 68  1  0
 36 69  1  0
 38 70  1  0
M  END
>  <UniqueID>  (29) 
48

>  <SMILES>  (29) 
c1ccc(N2CCN(c3nc(N4CCc5ccccc5C4)nc(N4CCc5ccccc5C4)n3)CC2)nc1

>  <Energy>  (29) 
88.51642508162679

>  <Genealogy>  (29) 
c1ccc(N2CCN(c3nc(N4CCc5ccccc5C4)nc(N4CCc5ccccc5C4)n3)CC2)nc1 (3D coordinates assigned)
c1ccc(N2CCN(c3nc(N4CCc5ccccc5C4)nc(N4CCc5ccccc5C4)n3)CC2)nc1 (nonaromatic ring conformer: 88.51642508162679 kcal/mol)

>  <smiles>  (29) 
c1ccc(N2CCN(c3nc(N4CCc5ccccc5C4)nc(N4CCc5ccccc5C4)n3)CC2)nc1

>  <score_type>  (29) 
oracle

>  <origin>  (29) 
autodockgpu

>  <m_score__min__energy>  (29) 
-10.69

>  <m_primary>  (29) 
energy

>  <meeko>  (29) 
{"free_energy": -10.64, "intermolecular_energy": -11.84, "internal_energy": -1.05, "cluster_size": 20, "cluster_id": 1, "rank_in_cluster": 9}

>  <energy>  (29) 
-10.64

>  <cluster_rmsd>  (29) 
0.13

>  <rmsd>  (29) 
269.47

>  <cluster>  (29) 
1

$$$$
QWCMPUPUGDWNGO-UHFFFAOYNA-N
     RDKit          3D

 70 76  0  0  0  0  0  0  0  0999 V2000
  141.8530   81.8100  223.2500 C   0  0  0  0  0  0  0  0  0  0  0  0
  142.4880   80.6660  223.7350 C   0  0  0  0  0  0  0  0  0  0  0  0
  142.1550   79.4120  223.2220 C   0  0  0  0  0  0  0  0  0  0  0  0
  141.1870   79.3160  222.2060 C   0  0  0  0  0  0  0  0  0  0  0  0
  140.8070   78.0400  221.6500 N   0  0  0  0  0  0  0  0  0  0  0  0
  141.3100   77.5890  220.3460 C   0  0  0  0  0  0  0  0  0  0  0  0
  141.8090   76.1480  220.4670 C   0  0  0  0  0  0  0  0  0  0  0  0
  140.8330   75.2940  221.1640 N   0  0  0  0  0  0  0  0  0  0  0  0
  141.1000   73.8820  221.2860 C   0  0  0  0  0  0  0  0  0  0  0  0
  140.6270   73.1900  222.3550 N   0  0  0  0  0  0  0  0  0  0  0  0
  140.8500   71.8550  222.4750 C   0  0  0  0  0  0  0  0  0  0  0  0
  140.3450   71.1230  223.6130 N   0  0  0  0  0  0  0  0  0  0  0  0
  139.1140   70.3270  223.4990 C   0  0  0  0  0  0  0  0  0  0  0  0
  139.2370   69.0450  224.3130 C   0  0  0  0  0  0  0  0  0  0  0  0
  139.6130   69.3570  225.7320 C   0  0  0  0  0  0  0  0  0  0  0  0
  139.2060   68.5010  226.7680 C   0  0  0  0  0  0  0  0  0  0  0  0
  139.5870   68.7610  228.0870 C   0  0  0  0  0  0  0  0  0  0  0  0
  140.3890   69.8650  228.3790 C   0  0  0  0  0  0  0  0  0  0  0  0
  140.8150   70.7120  227.3530 C   0  0  0  0  0  0  0  0  0  0  0  0
  140.4310   70.4680  226.0250 C   0  0  0  0  0  0  0  0  0  0  0  0
  140.9220   71.4020  224.9410 C   0  0  0  0  0  0  0  0  0  0  0  0
  141.5560   71.2140  221.5070 N   0  0  0  0  0  0  0  0  0  0  0  0
  142.0450   71.8910  220.4360 C   0  0  0  0  0  0  0  0  0  0  0  0
  142.8030   71.1990  219.4210 N   0  0  0  0  0  0  0  0  0  0  0  0
  143.9010   71.8530  218.7010 C   0  0  0  0  0  0  0  0  0  0  0  0
  145.2120   71.1380  219.0300 C   0  0  0  0  0  0  0  0  0  0  0  0
  145.0770   69.6320  218.9480 C   0  0  0  0  0  0  0  0  0  0  0  0
  146.2390   68.8470  218.8850 C   0  0  0  0  0  0  0  0  0  0  0  0
  146.1520   67.4510  218.8680 C   0  0  0  0  0  0  0  0  0  0  0  0
  144.9030   66.8280  218.9180 C   0  0  0  0  0  0  0  0  0  0  0  0
  143.7380   67.5950  218.9970 C   0  0  0  0  0  0  0  0  0  0  0  0
  143.8120   68.9970  219.0320 C   0  0  0  0  0  0  0  0  0  0  0  0
  142.5320   69.7960  219.0830 C   0  0  0  0  0  0  0  0  0  0  0  0
  141.8130   73.2250  220.3340 N   0  0  0  0  0  0  0  0  0  0  0  0
  139.5720   75.8750  221.6560 C   0  0  0  0  0  0  0  0  0  0  0  0
  139.8400   77.2050  222.3780 C   0  0  0  0  0  0  0  0  0  0  0  0
  140.5690   80.4510  221.7690 N   0  0  0  0  0  0  0  0  0  0  0  0
  140.8830   81.6810  222.2580 C   0  0  0  0  0  0  0  0  0  0  0  0
  142.1151   82.8021  223.6462 H   0  0  0  0  0  0  0  0  0  0  0  0
  143.2515   80.7529  224.5221 H   0  0  0  0  0  0  0  0  0  0  0  0
  142.6452   78.5063  223.6087 H   0  0  0  0  0  0  0  0  0  0  0  0
  140.4998   77.6361  219.6034 H   0  0  0  0  0  0  0  0  0  0  0  0
  142.1370   78.2395  220.0252 H   0  0  0  0  0  0  0  0  0  0  0  0
  141.9812   75.7438  219.4585 H   0  0  0  0  0  0  0  0  0  0  0  0
  142.7407   76.1541  221.0517 H   0  0  0  0  0  0  0  0  0  0  0  0
  138.2647   70.9160  223.8755 H   0  0  0  0  0  0  0  0  0  0  0  0
  138.9525   70.0664  222.4426 H   0  0  0  0  0  0  0  0  0  0  0  0
  138.2729   68.5155  224.3021 H   0  0  0  0  0  0  0  0  0  0  0  0
  140.0210   68.4149  223.8677 H   0  0  0  0  0  0  0  0  0  0  0  0
  138.5847   67.6222  226.5403 H   0  0  0  0  0  0  0  0  0  0  0  0
  139.2543   68.0945  228.8963 H   0  0  0  0  0  0  0  0  0  0  0  0
  140.6861   70.0686  229.4184 H   0  0  0  0  0  0  0  0  0  0  0  0
  141.4552   71.5753  227.5871 H   0  0  0  0  0  0  0  0  0  0  0  0
  140.6593   72.4319  225.2245 H   0  0  0  0  0  0  0  0  0  0  0  0
  142.0088   71.2544  224.8571 H   0  0  0  0  0  0  0  0  0  0  0  0
  143.7144   71.8001  217.6182 H   0  0  0  0  0  0  0  0  0  0  0  0
  143.9677   72.9077  219.0063 H   0  0  0  0  0  0  0  0  0  0  0  0
  145.9825   71.4642  218.3160 H   0  0  0  0  0  0  0  0  0  0  0  0
  145.4886   71.3970  220.0627 H   0  0  0  0  0  0  0  0  0  0  0  0
  147.2251   69.3331  218.8487 H   0  0  0  0  0  0  0  0  0  0  0  0
  147.0676   66.8437  218.8152 H   0  0  0  0  0  0  0  0  0  0  0  0
  144.8364   65.7303  218.8951 H   0  0  0  0  0  0  0  0  0  0  0  0
  142.7573   67.0980  219.0320 H   0  0  0  0  0  0  0  0  0  0  0  0
  142.0400   69.7509  218.1002 H   0  0  0  0  0  0  0  0  0  0  0  0
  141.8808   69.3671  219.8589 H   0  0  0  0  0  0  0  0  0  0  0  0
  138.8991   76.0541  220.8045 H   0  0  0  0  0  0  0  0  0  0  0  0
  139.1078   75.1723  222.3637 H   0  0  0  0  0  0  0  0  0  0  0  0
  138.8927   77.7565  222.4703 H   0  0  0  0  0  0  0  0  0  0  0  0
  140.2642   76.9762  223.3668 H   0  0  0  0  0  0  0  0  0  0  0  0
  140.3710   82.5740  221.8702 H   0  0  0  0  0  0  0  0  0  0  0  0
  1  2  2  0
  2  3  1  0
  3  4  2  0
  4  5  1  0
  5  6  1  0
  6  7  1  0
  7  8  1  0
  8  9  1  0
  9 10  2  0
 10 11  1  0
 11 12  1  0
 12 13  1  0
 13 14  1  0
 14 15  1  0
 15 16  2  0
 16 17  1  0
 17 18  2  0
 18 19  1  0
 19 20  2  0
 20 21  1  0
 11 22  2  0
 22 23  1  0
 23 24  1  0
 24 25  1  0
 25 26  1  0
 26 27  1  0
 27 28  2  0
 28 29  1  0
 29 30  2  0
 30 31  1  0
 31 32  2  0
 32 33  1  0
 23 34  2  0
  8 35  1  0
 35 36  1  0
  4 37  1  0
 37 38  2  0
 38  1  1  0
 36  5  1  0
 34  9  1  0
 21 12  1  0
 33 24  1  0
 20 15  1  0
 32 27  1  0
  1 39  1  0
  2 40  1  0
  3 41  1  0
  6 42  1  0
  6 43  1  0
  7 44  1  0
  7 45  1  0
 13 46  1  0
 13 47  1  0
 14 48  1  0
 14 49  1  0
 16 50  1  0
 17 51  1  0
 18 52  1  0
 19 53  1  0
 21 54  1  0
 21 55  1  0
 25 56  1  0
 25 57  1  0
 26 58  1  0
 26 59  1  0
 28 60  1  0
 29 61  1  0
 30 62  1  0
 31 63  1  0
 33 64  1  0
 33 65  1  0
 35 66  1  0
 35 67  1  0
 36 68  1  0
 36 69  1  0
 38 70  1  0
M  END
>  <UniqueID>  (30) 
48

>  <SMILES>  (30) 
c1ccc(N2CCN(c3nc(N4CCc5ccccc5C4)nc(N4CCc5ccccc5C4)n3)CC2)nc1

>  <Energy>  (30) 
88.51642508162679

>  <Genealogy>  (30) 
c1ccc(N2CCN(c3nc(N4CCc5ccccc5C4)nc(N4CCc5ccccc5C4)n3)CC2)nc1 (3D coordinates assigned)
c1ccc(N2CCN(c3nc(N4CCc5ccccc5C4)nc(N4CCc5ccccc5C4)n3)CC2)nc1 (nonaromatic ring conformer: 88.51642508162679 kcal/mol)

>  <smiles>  (30) 
c1ccc(N2CCN(c3nc(N4CCc5ccccc5C4)nc(N4CCc5ccccc5C4)n3)CC2)nc1

>  <score_type>  (30) 
oracle

>  <origin>  (30) 
autodockgpu

>  <m_score__min__energy>  (30) 
-10.69

>  <m_primary>  (30) 
energy

>  <meeko>  (30) 
{"free_energy": -10.68, "intermolecular_energy": -11.87, "internal_energy": -1.05, "cluster_size": 20, "cluster_id": 1, "rank_in_cluster": 5}

>  <energy>  (30) 
-10.6

>  <cluster_rmsd>  (30) 
0.47

>  <rmsd>  (30) 
269.46

>  <cluster>  (30) 
1

$$$$
QWCMPUPUGDWNGO-UHFFFAOYNA-N
     RDKit          3D

 70 76  0  0  0  0  0  0  0  0999 V2000
  137.0750   80.8730  224.5820 C   0  0  0  0  0  0  0  0  0  0  0  0
  138.4700   80.8420  224.5690 C   0  0  0  0  0  0  0  0  0  0  0  0
  139.1400   79.8860  223.8030 C   0  0  0  0  0  0  0  0  0  0  0  0
  138.3970   78.9690  223.0400 C   0  0  0  0  0  0  0  0  0  0  0  0
  139.0470   77.9610  222.2380 N   0  0  0  0  0  0  0  0  0  0  0  0
  140.4980   77.9710  222.0160 C   0  0  0  0  0  0  0  0  0  0  0  0
  141.0590   76.5690  222.2600 C   0  0  0  0  0  0  0  0  0  0  0  0
  140.2620   75.5410  221.5710 N   0  0  0  0  0  0  0  0  0  0  0  0
  140.7020   74.1680  221.6180 C   0  0  0  0  0  0  0  0  0  0  0  0
  140.3120   73.3640  222.6420 N   0  0  0  0  0  0  0  0  0  0  0  0
  140.6980   72.0610  222.6900 C   0  0  0  0  0  0  0  0  0  0  0  0
  140.2820   71.2090  223.7800 N   0  0  0  0  0  0  0  0  0  0  0  0
  139.0270   70.4470  223.6910 C   0  0  0  0  0  0  0  0  0  0  0  0
  139.1950   69.0790  224.3400 C   0  0  0  0  0  0  0  0  0  0  0  0
  139.7050   69.2220  225.7440 C   0  0  0  0  0  0  0  0  0  0  0  0
  139.3740   68.2570  226.7100 C   0  0  0  0  0  0  0  0  0  0  0  0
  139.8790   68.3590  228.0090 C   0  0  0  0  0  0  0  0  0  0  0  0
  140.7290   69.4120  228.3480 C   0  0  0  0  0  0  0  0  0  0  0  0
  141.0790   70.3660  227.3890 C   0  0  0  0  0  0  0  0  0  0  0  0
  140.5710   70.2810  226.0840 C   0  0  0  0  0  0  0  0  0  0  0  0
  140.9830   71.3270  225.0720 C   0  0  0  0  0  0  0  0  0  0  0  0
  141.4830   71.5680  221.6970 N   0  0  0  0  0  0  0  0  0  0  0  0
  141.8890   72.3600  220.6710 C   0  0  0  0  0  0  0  0  0  0  0  0
  142.7330   71.8250  219.6280 N   0  0  0  0  0  0  0  0  0  0  0  0
  143.8280   72.6080  219.0460 C   0  0  0  0  0  0  0  0  0  0  0  0
  145.1580   71.9250  219.3650 C   0  0  0  0  0  0  0  0  0  0  0  0
  145.1090   70.4330  219.1100 C   0  0  0  0  0  0  0  0  0  0  0  0
  146.3140   69.7180  219.0240 C   0  0  0  0  0  0  0  0  0  0  0  0
  146.3030   68.3310  218.8480 C   0  0  0  0  0  0  0  0  0  0  0  0
  145.0890   67.6460  218.7600 C   0  0  0  0  0  0  0  0  0  0  0  0
  143.8820   68.3410  218.8600 C   0  0  0  0  0  0  0  0  0  0  0  0
  143.8780   69.7320  219.0540 C   0  0  0  0  0  0  0  0  0  0  0  0
  142.5550   70.4570  219.1230 C   0  0  0  0  0  0  0  0  0  0  0  0
  141.4950   73.6580  220.6400 N   0  0  0  0  0  0  0  0  0  0  0  0
  139.0790   75.9340  220.7860 C   0  0  0  0  0  0  0  0  0  0  0  0
  138.2240   76.9390  221.5740 C   0  0  0  0  0  0  0  0  0  0  0  0
  137.0350   79.0120  223.0920 N   0  0  0  0  0  0  0  0  0  0  0  0
  136.3660   79.9370  223.8310 C   0  0  0  0  0  0  0  0  0  0  0  0
  136.5409   81.6276  225.1782 H   0  0  0  0  0  0  0  0  0  0  0  0
  139.0419   81.5707  225.1622 H   0  0  0  0  0  0  0  0  0  0  0  0
  140.2394   79.8509  223.7968 H   0  0  0  0  0  0  0  0  0  0  0  0
  140.7087   78.2755  220.9802 H   0  0  0  0  0  0  0  0  0  0  0  0
  140.9709   78.6818  222.7096 H   0  0  0  0  0  0  0  0  0  0  0  0
  142.0933   76.5282  221.8878 H   0  0  0  0  0  0  0  0  0  0  0  0
  141.0231   76.3664  223.3406 H   0  0  0  0  0  0  0  0  0  0  0  0
  138.2290   70.9993  224.2089 H   0  0  0  0  0  0  0  0  0  0  0  0
  138.7635   70.3118  222.6316 H   0  0  0  0  0  0  0  0  0  0  0  0
  138.2224   68.5654  224.3588 H   0  0  0  0  0  0  0  0  0  0  0  0
  139.9213   68.4950  223.7556 H   0  0  0  0  0  0  0  0  0  0  0  0
  138.7148   67.4179  226.4428 H   0  0  0  0  0  0  0  0  0  0  0  0
  139.6060   67.6081  228.7651 H   0  0  0  0  0  0  0  0  0  0  0  0
  141.1242   69.4913  229.3715 H   0  0  0  0  0  0  0  0  0  0  0  0
  141.7572   71.1889  227.6589 H   0  0  0  0  0  0  0  0  0  0  0  0
  140.7704   72.3207  225.4932 H   0  0  0  0  0  0  0  0  0  0  0  0
  142.0542   71.1770  224.8719 H   0  0  0  0  0  0  0  0  0  0  0  0
  143.6978   72.6689  217.9554 H   0  0  0  0  0  0  0  0  0  0  0  0
  143.8226   73.6232  219.4694 H   0  0  0  0  0  0  0  0  0  0  0  0
  145.9436   72.3668  218.7344 H   0  0  0  0  0  0  0  0  0  0  0  0
  145.3696   72.0788  220.4335 H   0  0  0  0  0  0  0  0  0  0  0  0
  147.2729   70.2523  219.0955 H   0  0  0  0  0  0  0  0  0  0  0  0
  147.2517   67.7786  218.7788 H   0  0  0  0  0  0  0  0  0  0  0  0
  145.0837   66.5561  218.6115 H   0  0  0  0  0  0  0  0  0  0  0  0
  142.9293   67.7961  218.7864 H   0  0  0  0  0  0  0  0  0  0  0  0
  142.1144   70.4993  218.1160 H   0  0  0  0  0  0  0  0  0  0  0  0
  141.8909   69.9122  219.8101 H   0  0  0  0  0  0  0  0  0  0  0  0
  139.4067   76.3971  219.8436 H   0  0  0  0  0  0  0  0  0  0  0  0
  138.4755   75.0384  220.5767 H   0  0  0  0  0  0  0  0  0  0  0  0
  137.5311   77.4370  220.8798 H   0  0  0  0  0  0  0  0  0  0  0  0
  137.6781   76.3845  222.3515 H   0  0  0  0  0  0  0  0  0  0  0  0
  135.2661   79.9465  223.8361 H   0  0  0  0  0  0  0  0  0  0  0  0
  1  2  2  0
  2  3  1  0
  3  4  2  0
  4  5  1  0
  5  6  1  0
  6  7  1  0
  7  8  1  0
  8  9  1  0
  9 10  2  0
 10 11  1  0
 11 12  1  0
 12 13  1  0
 13 14  1  0
 14 15  1  0
 15 16  2  0
 16 17  1  0
 17 18  2  0
 18 19  1  0
 19 20  2  0
 20 21  1  0
 11 22  2  0
 22 23  1  0
 23 24  1  0
 24 25  1  0
 25 26  1  0
 26 27  1  0
 27 28  2  0
 28 29  1  0
 29 30  2  0
 30 31  1  0
 31 32  2  0
 32 33  1  0
 23 34  2  0
  8 35  1  0
 35 36  1  0
  4 37  1  0
 37 38  2  0
 38  1  1  0
 36  5  1  0
 34  9  1  0
 21 12  1  0
 33 24  1  0
 20 15  1  0
 32 27  1  0
  1 39  1  0
  2 40  1  0
  3 41  1  0
  6 42  1  0
  6 43  1  0
  7 44  1  0
  7 45  1  0
 13 46  1  0
 13 47  1  0
 14 48  1  0
 14 49  1  0
 16 50  1  0
 17 51  1  0
 18 52  1  0
 19 53  1  0
 21 54  1  0
 21 55  1  0
 25 56  1  0
 25 57  1  0
 26 58  1  0
 26 59  1  0
 28 60  1  0
 29 61  1  0
 30 62  1  0
 31 63  1  0
 33 64  1  0
 33 65  1  0
 35 66  1  0
 35 67  1  0
 36 68  1  0
 36 69  1  0
 38 70  1  0
M  END
>  <UniqueID>  (31) 
48

>  <SMILES>  (31) 
c1ccc(N2CCN(c3nc(N4CCc5ccccc5C4)nc(N4CCc5ccccc5C4)n3)CC2)nc1

>  <Energy>  (31) 
88.51642508162679

>  <Genealogy>  (31) 
c1ccc(N2CCN(c3nc(N4CCc5ccccc5C4)nc(N4CCc5ccccc5C4)n3)CC2)nc1 (3D coordinates assigned)
c1ccc(N2CCN(c3nc(N4CCc5ccccc5C4)nc(N4CCc5ccccc5C4)n3)CC2)nc1 (nonaromatic ring conformer: 88.51642508162679 kcal/mol)

>  <smiles>  (31) 
c1ccc(N2CCN(c3nc(N4CCc5ccccc5C4)nc(N4CCc5ccccc5C4)n3)CC2)nc1

>  <score_type>  (31) 
oracle

>  <origin>  (31) 
autodockgpu

>  <m_score__min__energy>  (31) 
-10.69

>  <m_primary>  (31) 
energy

>  <meeko>  (31) 
{"free_energy": -9.97, "intermolecular_energy": -11.17, "internal_energy": -1.02, "cluster_size": 20, "cluster_id": 1, "rank_in_cluster": 19}

>  <energy>  (31) 
-10.58

>  <cluster_rmsd>  (31) 
0.51

>  <rmsd>  (31) 
269.46

>  <cluster>  (31) 
1

$$$$
QWCMPUPUGDWNGO-UHFFFAOYNA-N
     RDKit          3D

 70 76  0  0  0  0  0  0  0  0999 V2000
  141.8420   81.8540  223.2780 C   0  0  0  0  0  0  0  0  0  0  0  0
  142.4720   80.7090  223.7680 C   0  0  0  0  0  0  0  0  0  0  0  0
  142.1450   79.4560  223.2480 C   0  0  0  0  0  0  0  0  0  0  0  0
  141.1880   79.3620  222.2220 C   0  0  0  0  0  0  0  0  0  0  0  0
  140.8150   78.0870  221.6590 N   0  0  0  0  0  0  0  0  0  0  0  0
  141.3270   77.6400  220.3570 C   0  0  0  0  0  0  0  0  0  0  0  0
  141.8290   76.2000  220.4770 C   0  0  0  0  0  0  0  0  0  0  0  0
  140.8510   75.3430  221.1650 N   0  0  0  0  0  0  0  0  0  0  0  0
  141.1200   73.9310  221.2840 C   0  0  0  0  0  0  0  0  0  0  0  0
  140.6430   73.2350  222.3490 N   0  0  0  0  0  0  0  0  0  0  0  0
  140.8680   71.9000  222.4670 C   0  0  0  0  0  0  0  0  0  0  0  0
  140.3600   71.1630  223.6000 N   0  0  0  0  0  0  0  0  0  0  0  0
  139.1380   70.3540  223.4740 C   0  0  0  0  0  0  0  0  0  0  0  0
  139.2670   69.0740  224.2910 C   0  0  0  0  0  0  0  0  0  0  0  0
  139.6250   69.3930  225.7140 C   0  0  0  0  0  0  0  0  0  0  0  0
  139.2160   68.5330  226.7460 C   0  0  0  0  0  0  0  0  0  0  0  0
  139.5800   68.7980  228.0690 C   0  0  0  0  0  0  0  0  0  0  0  0
  140.3670   69.9110  228.3680 C   0  0  0  0  0  0  0  0  0  0  0  0
  140.7940   70.7610  227.3450 C   0  0  0  0  0  0  0  0  0  0  0  0
  140.4270   70.5120  226.0130 C   0  0  0  0  0  0  0  0  0  0  0  0
  140.9190   71.4500  224.9340 C   0  0  0  0  0  0  0  0  0  0  0  0
  141.5810   71.2630  221.5010 N   0  0  0  0  0  0  0  0  0  0  0  0
  142.0730   71.9440  220.4340 C   0  0  0  0  0  0  0  0  0  0  0  0
  142.8390   71.2570  219.4210 N   0  0  0  0  0  0  0  0  0  0  0  0
  143.9210   71.9230  218.6890 C   0  0  0  0  0  0  0  0  0  0  0  0
  145.2460   71.2340  219.0170 C   0  0  0  0  0  0  0  0  0  0  0  0
  145.1370   69.7260  218.9490 C   0  0  0  0  0  0  0  0  0  0  0  0
  146.3130   68.9600  218.8860 C   0  0  0  0  0  0  0  0  0  0  0  0
  146.2500   67.5640  218.8820 C   0  0  0  0  0  0  0  0  0  0  0  0
  145.0130   66.9190  218.9450 C   0  0  0  0  0  0  0  0  0  0  0  0
  143.8350   67.6660  219.0240 C   0  0  0  0  0  0  0  0  0  0  0  0
  143.8840   69.0690  219.0460 C   0  0  0  0  0  0  0  0  0  0  0  0
  142.5910   69.8460  219.0970 C   0  0  0  0  0  0  0  0  0  0  0  0
  141.8390   73.2780  220.3340 N   0  0  0  0  0  0  0  0  0  0  0  0
  139.5850   75.9180  221.6510 C   0  0  0  0  0  0  0  0  0  0  0  0
  139.8450   77.2470  222.3780 C   0  0  0  0  0  0  0  0  0  0  0  0
  140.5740   80.4970  221.7800 N   0  0  0  0  0  0  0  0  0  0  0  0
  140.8820   81.7260  222.2740 C   0  0  0  0  0  0  0  0  0  0  0  0
  142.0994   82.8455  223.6787 H   0  0  0  0  0  0  0  0  0  0  0  0
  143.2263   80.7943  224.5641 H   0  0  0  0  0  0  0  0  0  0  0  0
  142.6317   78.5496  223.6374 H   0  0  0  0  0  0  0  0  0  0  0  0
  140.5211   77.6869  219.6098 H   0  0  0  0  0  0  0  0  0  0  0  0
  142.1545   78.2932  220.0431 H   0  0  0  0  0  0  0  0  0  0  0  0
  142.0085   75.7990  219.4686 H   0  0  0  0  0  0  0  0  0  0  0  0
  142.7572   76.2064  221.0672 H   0  0  0  0  0  0  0  0  0  0  0  0
  138.2787   70.9343  223.8412 H   0  0  0  0  0  0  0  0  0  0  0  0
  138.9894   70.0910  222.4163 H   0  0  0  0  0  0  0  0  0  0  0  0
  138.3091   68.5336  224.2710 H   0  0  0  0  0  0  0  0  0  0  0  0
  140.0623   68.4517  223.8547 H   0  0  0  0  0  0  0  0  0  0  0  0
  138.6068   67.6474  226.5122 H   0  0  0  0  0  0  0  0  0  0  0  0
  139.2459   68.1287  228.8754 H   0  0  0  0  0  0  0  0  0  0  0  0
  140.6513   70.1191  229.4100 H   0  0  0  0  0  0  0  0  0  0  0  0
  141.4222   71.6315  227.5848 H   0  0  0  0  0  0  0  0  0  0  0  0
  140.6414   72.4771  225.2134 H   0  0  0  0  0  0  0  0  0  0  0  0
  142.0083   71.3149  224.8623 H   0  0  0  0  0  0  0  0  0  0  0  0
  143.7293   71.8568  217.6078 H   0  0  0  0  0  0  0  0  0  0  0  0
  143.9710   72.9815  218.9842 H   0  0  0  0  0  0  0  0  0  0  0  0
  146.0069   71.5673  218.2959 H   0  0  0  0  0  0  0  0  0  0  0  0
  145.5236   71.5070  220.0458 H   0  0  0  0  0  0  0  0  0  0  0  0
  147.2903   69.4627  218.8395 H   0  0  0  0  0  0  0  0  0  0  0  0
  147.1759   66.9725  218.8292 H   0  0  0  0  0  0  0  0  0  0  0  0
  144.9660   65.8201  218.9324 H   0  0  0  0  0  0  0  0  0  0  0  0
  142.8635   67.1520  219.0692 H   0  0  0  0  0  0  0  0  0  0  0  0
  142.0945   69.7834  218.1174 H   0  0  0  0  0  0  0  0  0  0  0  0
  141.9518   69.4129  219.8805 H   0  0  0  0  0  0  0  0  0  0  0  0
  138.9164   76.0972  220.7961 H   0  0  0  0  0  0  0  0  0  0  0  0
  139.1186   75.2119  222.3538 H   0  0  0  0  0  0  0  0  0  0  0  0
  138.8957   77.7958  222.4653 H   0  0  0  0  0  0  0  0  0  0  0  0
  140.2634   77.0164  223.3688 H   0  0  0  0  0  0  0  0  0  0  0  0
  140.3740   82.6194  221.8818 H   0  0  0  0  0  0  0  0  0  0  0  0
  1  2  2  0
  2  3  1  0
  3  4  2  0
  4  5  1  0
  5  6  1  0
  6  7  1  0
  7  8  1  0
  8  9  1  0
  9 10  2  0
 10 11  1  0
 11 12  1  0
 12 13  1  0
 13 14  1  0
 14 15  1  0
 15 16  2  0
 16 17  1  0
 17 18  2  0
 18 19  1  0
 19 20  2  0
 20 21  1  0
 11 22  2  0
 22 23  1  0
 23 24  1  0
 24 25  1  0
 25 26  1  0
 26 27  1  0
 27 28  2  0
 28 29  1  0
 29 30  2  0
 30 31  1  0
 31 32  2  0
 32 33  1  0
 23 34  2  0
  8 35  1  0
 35 36  1  0
  4 37  1  0
 37 38  2  0
 38  1  1  0
 36  5  1  0
 34  9  1  0
 21 12  1  0
 33 24  1  0
 20 15  1  0
 32 27  1  0
  1 39  1  0
  2 40  1  0
  3 41  1  0
  6 42  1  0
  6 43  1  0
  7 44  1  0
  7 45  1  0
 13 46  1  0
 13 47  1  0
 14 48  1  0
 14 49  1  0
 16 50  1  0
 17 51  1  0
 18 52  1  0
 19 53  1  0
 21 54  1  0
 21 55  1  0
 25 56  1  0
 25 57  1  0
 26 58  1  0
 26 59  1  0
 28 60  1  0
 29 61  1  0
 30 62  1  0
 31 63  1  0
 33 64  1  0
 33 65  1  0
 35 66  1  0
 35 67  1  0
 36 68  1  0
 36 69  1  0
 38 70  1  0
M  END
>  <UniqueID>  (32) 
48

>  <SMILES>  (32) 
c1ccc(N2CCN(c3nc(N4CCc5ccccc5C4)nc(N4CCc5ccccc5C4)n3)CC2)nc1

>  <Energy>  (32) 
88.51642508162679

>  <Genealogy>  (32) 
c1ccc(N2CCN(c3nc(N4CCc5ccccc5C4)nc(N4CCc5ccccc5C4)n3)CC2)nc1 (3D coordinates assigned)
c1ccc(N2CCN(c3nc(N4CCc5ccccc5C4)nc(N4CCc5ccccc5C4)n3)CC2)nc1 (nonaromatic ring conformer: 88.51642508162679 kcal/mol)

>  <smiles>  (32) 
c1ccc(N2CCN(c3nc(N4CCc5ccccc5C4)nc(N4CCc5ccccc5C4)n3)CC2)nc1

>  <score_type>  (32) 
oracle

>  <origin>  (32) 
autodockgpu

>  <m_score__min__energy>  (32) 
-10.69

>  <m_primary>  (32) 
energy

>  <meeko>  (32) 
{"free_energy": -10.69, "intermolecular_energy": -11.88, "internal_energy": -1.05, "cluster_size": 20, "cluster_id": 1, "rank_in_cluster": 1}

>  <energy>  (32) 
-10.54

>  <cluster_rmsd>  (32) 
0.25

>  <rmsd>  (32) 
269.35

>  <cluster>  (32) 
1

$$$$
QWCMPUPUGDWNGO-UHFFFAOYNA-N
     RDKit          3D

 70 76  0  0  0  0  0  0  0  0999 V2000
  141.8360   82.0090  223.1160 C   0  0  0  0  0  0  0  0  0  0  0  0
  142.4700   80.8750  223.6260 C   0  0  0  0  0  0  0  0  0  0  0  0
  142.1330   79.6100  223.1420 C   0  0  0  0  0  0  0  0  0  0  0  0
  141.1630   79.4930  222.1310 C   0  0  0  0  0  0  0  0  0  0  0  0
  140.7800   78.2050  221.6050 N   0  0  0  0  0  0  0  0  0  0  0  0
  141.3560   77.6800  220.3610 C   0  0  0  0  0  0  0  0  0  0  0  0
  141.7960   76.2310  220.5790 C   0  0  0  0  0  0  0  0  0  0  0  0
  140.7460   75.4410  221.2410 N   0  0  0  0  0  0  0  0  0  0  0  0
  140.9560   74.0280  221.4430 C   0  0  0  0  0  0  0  0  0  0  0  0
  141.8740   73.3630  220.6930 N   0  0  0  0  0  0  0  0  0  0  0  0
  142.1010   72.0370  220.8850 C   0  0  0  0  0  0  0  0  0  0  0  0
  143.0770   71.3330  220.0860 N   0  0  0  0  0  0  0  0  0  0  0  0
  144.0940   72.0770  219.3270 C   0  0  0  0  0  0  0  0  0  0  0  0
  145.4210   71.3290  219.3500 C   0  0  0  0  0  0  0  0  0  0  0  0
  145.2370   69.9180  218.8730 C   0  0  0  0  0  0  0  0  0  0  0  0
  146.2980   69.2520  218.2370 C   0  0  0  0  0  0  0  0  0  0  0  0
  146.1500   67.9240  217.8260 C   0  0  0  0  0  0  0  0  0  0  0  0
  144.9530   67.2480  218.0620 C   0  0  0  0  0  0  0  0  0  0  0  0
  143.8990   67.8970  218.7110 C   0  0  0  0  0  0  0  0  0  0  0  0
  144.0300   69.2330  219.1190 C   0  0  0  0  0  0  0  0  0  0  0  0
  142.8700   69.8960  219.8280 C   0  0  0  0  0  0  0  0  0  0  0  0
  141.3960   71.3780  221.8410 N   0  0  0  0  0  0  0  0  0  0  0  0
  140.4690   72.0240  222.5940 C   0  0  0  0  0  0  0  0  0  0  0  0
  139.7190   71.3090  223.6000 N   0  0  0  0  0  0  0  0  0  0  0  0
  138.6950   70.3230  223.2390 C   0  0  0  0  0  0  0  0  0  0  0  0
  139.1320   68.9430  223.7320 C   0  0  0  0  0  0  0  0  0  0  0  0
  139.6420   68.9810  225.1570 C   0  0  0  0  0  0  0  0  0  0  0  0
  139.7610   67.7770  225.8690 C   0  0  0  0  0  0  0  0  0  0  0  0
  140.2840   67.7700  227.1660 C   0  0  0  0  0  0  0  0  0  0  0  0
  140.6980   68.9630  227.7600 C   0  0  0  0  0  0  0  0  0  0  0  0
  140.6010   70.1670  227.0580 C   0  0  0  0  0  0  0  0  0  0  0  0
  140.0930   70.1870  225.7500 C   0  0  0  0  0  0  0  0  0  0  0  0
  139.9700   71.5100  225.0320 C   0  0  0  0  0  0  0  0  0  0  0  0
  140.2540   73.3490  222.3870 N   0  0  0  0  0  0  0  0  0  0  0  0
  139.4740   76.0810  221.6180 C   0  0  0  0  0  0  0  0  0  0  0  0
  139.7370   77.4340  222.2980 C   0  0  0  0  0  0  0  0  0  0  0  0
  140.5460   80.6190  221.6700 N   0  0  0  0  0  0  0  0  0  0  0  0
  140.8630   81.8590  222.1290 C   0  0  0  0  0  0  0  0  0  0  0  0
  142.1010   83.0095  223.4885 H   0  0  0  0  0  0  0  0  0  0  0  0
  143.2353   80.9782  224.4094 H   0  0  0  0  0  0  0  0  0  0  0  0
  142.6221   78.7123  223.5480 H   0  0  0  0  0  0  0  0  0  0  0  0
  140.6012   77.7184  219.5618 H   0  0  0  0  0  0  0  0  0  0  0  0
  142.2250   78.2892  220.0717 H   0  0  0  0  0  0  0  0  0  0  0  0
  142.0237   75.7763  219.6036 H   0  0  0  0  0  0  0  0  0  0  0  0
  142.6847   76.2346  221.2272 H   0  0  0  0  0  0  0  0  0  0  0  0
  143.7590   72.1903  218.2854 H   0  0  0  0  0  0  0  0  0  0  0  0
  144.2322   73.0664  219.7874 H   0  0  0  0  0  0  0  0  0  0  0  0
  146.1377   71.8429  218.6926 H   0  0  0  0  0  0  0  0  0  0  0  0
  145.8005   71.3091  220.3823 H   0  0  0  0  0  0  0  0  0  0  0  0
  147.2485   69.7773  218.0618 H   0  0  0  0  0  0  0  0  0  0  0  0
  146.9788   67.4114  217.3157 H   0  0  0  0  0  0  0  0  0  0  0  0
  144.8385   66.2033  217.7371 H   0  0  0  0  0  0  0  0  0  0  0  0
  142.9603   67.3567  218.9032 H   0  0  0  0  0  0  0  0  0  0  0  0
  141.9706   69.7809  219.2053 H   0  0  0  0  0  0  0  0  0  0  0  0
  142.7680   69.4048  220.8069 H   0  0  0  0  0  0  0  0  0  0  0  0
  137.7388   70.5962  223.7092 H   0  0  0  0  0  0  0  0  0  0  0  0
  138.5692   70.3030  222.1464 H   0  0  0  0  0  0  0  0  0  0  0  0
  138.2714   68.2597  223.6816 H   0  0  0  0  0  0  0  0  0  0  0  0
  139.9543   68.5985  223.0876 H   0  0  0  0  0  0  0  0  0  0  0  0
  139.4408   66.8330  225.4038 H   0  0  0  0  0  0  0  0  0  0  0  0
  140.3692   66.8228  227.7187 H   0  0  0  0  0  0  0  0  0  0  0  0
  141.1016   68.9554  228.7832 H   0  0  0  0  0  0  0  0  0  0  0  0
  140.9247   71.1047  227.5333 H   0  0  0  0  0  0  0  0  0  0  0  0
  139.1355   72.0794  225.4672 H   0  0  0  0  0  0  0  0  0  0  0  0
  140.9146   72.0616  225.1486 H   0  0  0  0  0  0  0  0  0  0  0  0
  138.8669   76.2410  220.7148 H   0  0  0  0  0  0  0  0  0  0  0  0
  138.9391   75.4258  222.3212 H   0  0  0  0  0  0  0  0  0  0  0  0
  138.8050   78.0182  222.2989 H   0  0  0  0  0  0  0  0  0  0  0  0
  140.0842   77.2374  223.3231 H   0  0  0  0  0  0  0  0  0  0  0  0
  140.3518   82.7437  221.7216 H   0  0  0  0  0  0  0  0  0  0  0  0
  1  2  2  0
  2  3  1  0
  3  4  2  0
  4  5  1  0
  5  6  1  0
  6  7  1  0
  7  8  1  0
  8  9  1  0
  9 10  2  0
 10 11  1  0
 11 12  1  0
 12 13  1  0
 13 14  1  0
 14 15  1  0
 15 16  2  0
 16 17  1  0
 17 18  2  0
 18 19  1  0
 19 20  2  0
 20 21  1  0
 11 22  2  0
 22 23  1  0
 23 24  1  0
 24 25  1  0
 25 26  1  0
 26 27  1  0
 27 28  2  0
 28 29  1  0
 29 30  2  0
 30 31  1  0
 31 32  2  0
 32 33  1  0
 23 34  2  0
  8 35  1  0
 35 36  1  0
  4 37  1  0
 37 38  2  0
 38  1  1  0
 36  5  1  0
 34  9  1  0
 21 12  1  0
 33 24  1  0
 20 15  1  0
 32 27  1  0
  1 39  1  0
  2 40  1  0
  3 41  1  0
  6 42  1  0
  6 43  1  0
  7 44  1  0
  7 45  1  0
 13 46  1  0
 13 47  1  0
 14 48  1  0
 14 49  1  0
 16 50  1  0
 17 51  1  0
 18 52  1  0
 19 53  1  0
 21 54  1  0
 21 55  1  0
 25 56  1  0
 25 57  1  0
 26 58  1  0
 26 59  1  0
 28 60  1  0
 29 61  1  0
 30 62  1  0
 31 63  1  0
 33 64  1  0
 33 65  1  0
 35 66  1  0
 35 67  1  0
 36 68  1  0
 36 69  1  0
 38 70  1  0
M  END
>  <UniqueID>  (33) 
48

>  <SMILES>  (33) 
c1ccc(N2CCN(c3nc(N4CCc5ccccc5C4)nc(N4CCc5ccccc5C4)n3)CC2)nc1

>  <Energy>  (33) 
88.51642508162679

>  <Genealogy>  (33) 
c1ccc(N2CCN(c3nc(N4CCc5ccccc5C4)nc(N4CCc5ccccc5C4)n3)CC2)nc1 (3D coordinates assigned)
c1ccc(N2CCN(c3nc(N4CCc5ccccc5C4)nc(N4CCc5ccccc5C4)n3)CC2)nc1 (nonaromatic ring conformer: 88.51642508162679 kcal/mol)

>  <smiles>  (33) 
c1ccc(N2CCN(c3nc(N4CCc5ccccc5C4)nc(N4CCc5ccccc5C4)n3)CC2)nc1

>  <score_type>  (33) 
oracle

>  <origin>  (33) 
autodockgpu

>  <m_score__min__energy>  (33) 
-10.69

>  <m_primary>  (33) 
energy

>  <meeko>  (33) 
{"free_energy": -10.42, "intermolecular_energy": -11.61, "internal_energy": -1.06, "cluster_size": 20, "cluster_id": 1, "rank_in_cluster": 14}

>  <energy>  (33) 
-10.52

>  <cluster_rmsd>  (33) 
0.27

>  <rmsd>  (33) 
269.37

>  <cluster>  (33) 
1

$$$$
QWCMPUPUGDWNGO-UHFFFAOYNA-N
     RDKit          3D

 70 76  0  0  0  0  0  0  0  0999 V2000
  142.1520   81.6740  223.4980 C   0  0  0  0  0  0  0  0  0  0  0  0
  140.9950   81.6470  222.7180 C   0  0  0  0  0  0  0  0  0  0  0  0
  140.5890   80.4570  222.1120 C   0  0  0  0  0  0  0  0  0  0  0  0
  141.3480   79.2890  222.3070 C   0  0  0  0  0  0  0  0  0  0  0  0
  140.9690   78.0380  221.6950 N   0  0  0  0  0  0  0  0  0  0  0  0
  141.5490   77.5970  220.4210 C   0  0  0  0  0  0  0  0  0  0  0  0
  141.9920   76.1380  220.5440 C   0  0  0  0  0  0  0  0  0  0  0  0
  140.9420   75.3040  221.1490 N   0  0  0  0  0  0  0  0  0  0  0  0
  141.1540   73.8810  221.2580 C   0  0  0  0  0  0  0  0  0  0  0  0
  140.6790   73.2030  222.3350 N   0  0  0  0  0  0  0  0  0  0  0  0
  140.8510   71.8590  222.4430 C   0  0  0  0  0  0  0  0  0  0  0  0
  140.3450   71.1410  223.5890 N   0  0  0  0  0  0  0  0  0  0  0  0
  139.1140   70.3430  223.4840 C   0  0  0  0  0  0  0  0  0  0  0  0
  139.2360   69.0720  224.3140 C   0  0  0  0  0  0  0  0  0  0  0  0
  139.6100   69.4030  225.7300 C   0  0  0  0  0  0  0  0  0  0  0  0
  139.2020   68.5590  226.7760 C   0  0  0  0  0  0  0  0  0  0  0  0
  139.5810   68.8360  228.0920 C   0  0  0  0  0  0  0  0  0  0  0  0
  140.3830   69.9430  228.3710 C   0  0  0  0  0  0  0  0  0  0  0  0
  140.8100   70.7770  227.3350 C   0  0  0  0  0  0  0  0  0  0  0  0
  140.4280   70.5170  226.0100 C   0  0  0  0  0  0  0  0  0  0  0  0
  140.9200   71.4370  224.9150 C   0  0  0  0  0  0  0  0  0  0  0  0
  141.5060   71.1960  221.4550 N   0  0  0  0  0  0  0  0  0  0  0  0
  141.9960   71.8590  220.3760 C   0  0  0  0  0  0  0  0  0  0  0  0
  142.7010   71.1420  219.3380 N   0  0  0  0  0  0  0  0  0  0  0  0
  143.7530   71.7810  218.5410 C   0  0  0  0  0  0  0  0  0  0  0  0
  145.0840   71.0810  218.8150 C   0  0  0  0  0  0  0  0  0  0  0  0
  144.9540   69.5730  218.7820 C   0  0  0  0  0  0  0  0  0  0  0  0
  146.1150   68.7910  218.6750 C   0  0  0  0  0  0  0  0  0  0  0  0
  146.0350   67.3960  218.7010 C   0  0  0  0  0  0  0  0  0  0  0  0
  144.7950   66.7680  218.8380 C   0  0  0  0  0  0  0  0  0  0  0  0
  143.6320   67.5320  218.9610 C   0  0  0  0  0  0  0  0  0  0  0  0
  143.7000   68.9340  218.9540 C   0  0  0  0  0  0  0  0  0  0  0  0
  142.4200   69.7290  219.0550 C   0  0  0  0  0  0  0  0  0  0  0  0
  141.8160   73.2020  220.2860 N   0  0  0  0  0  0  0  0  0  0  0  0
  139.6670   75.9160  221.5640 C   0  0  0  0  0  0  0  0  0  0  0  0
  139.9250   77.2210  222.3330 C   0  0  0  0  0  0  0  0  0  0  0  0
  142.4850   79.3530  223.0570 N   0  0  0  0  0  0  0  0  0  0  0  0
  142.8940   80.5040  223.6550 C   0  0  0  0  0  0  0  0  0  0  0  0
  142.4746   82.6071  223.9831 H   0  0  0  0  0  0  0  0  0  0  0  0
  140.4029   82.5638  222.5808 H   0  0  0  0  0  0  0  0  0  0  0  0
  139.6837   80.4328  221.4876 H   0  0  0  0  0  0  0  0  0  0  0  0
  140.7959   77.6862  219.6242 H   0  0  0  0  0  0  0  0  0  0  0  0
  142.4173   78.2258  220.1747 H   0  0  0  0  0  0  0  0  0  0  0  0
  142.2237   75.7492  219.5414 H   0  0  0  0  0  0  0  0  0  0  0  0
  142.8789   76.1006  221.1936 H   0  0  0  0  0  0  0  0  0  0  0  0
  138.2642   70.9366  223.8520 H   0  0  0  0  0  0  0  0  0  0  0  0
  138.9540   70.0688  222.4308 H   0  0  0  0  0  0  0  0  0  0  0  0
  138.2721   68.5421  224.3085 H   0  0  0  0  0  0  0  0  0  0  0  0
  140.0205   68.4361  223.8780 H   0  0  0  0  0  0  0  0  0  0  0  0
  138.5819   67.6769  226.5583 H   0  0  0  0  0  0  0  0  0  0  0  0
  139.2465   68.1802  228.9094 H   0  0  0  0  0  0  0  0  0  0  0  0
  140.6794   70.1593  229.4080 H   0  0  0  0  0  0  0  0  0  0  0  0
  141.4499   71.6432  227.5593 H   0  0  0  0  0  0  0  0  0  0  0  0
  140.6565   72.4703  225.1850 H   0  0  0  0  0  0  0  0  0  0  0  0
  142.0070   71.2885  224.8345 H   0  0  0  0  0  0  0  0  0  0  0  0
  143.5067   71.6983  217.4721 H   0  0  0  0  0  0  0  0  0  0  0  0
  143.8305   72.8437  218.8141 H   0  0  0  0  0  0  0  0  0  0  0  0
  145.8113   71.3908  218.0501 H   0  0  0  0  0  0  0  0  0  0  0  0
  145.4162   71.3695  219.8232 H   0  0  0  0  0  0  0  0  0  0  0  0
  147.0948   69.2798  218.5699 H   0  0  0  0  0  0  0  0  0  0  0  0
  146.9500   66.7917  218.6134 H   0  0  0  0  0  0  0  0  0  0  0  0
  144.7341   65.6697  218.8491 H   0  0  0  0  0  0  0  0  0  0  0  0
  142.6575   67.0322  219.0639 H   0  0  0  0  0  0  0  0  0  0  0  0
  141.8737   69.6542  218.1032 H   0  0  0  0  0  0  0  0  0  0  0  0
  141.8162   69.3193  219.8782 H   0  0  0  0  0  0  0  0  0  0  0  0
  139.0624   76.1346  220.6715 H   0  0  0  0  0  0  0  0  0  0  0  0
  139.1314   75.2146  222.2206 H   0  0  0  0  0  0  0  0  0  0  0  0
  138.9918   77.8022  222.3698 H   0  0  0  0  0  0  0  0  0  0  0  0
  140.2692   76.9579  223.3441 H   0  0  0  0  0  0  0  0  0  0  0  0
  143.8107   80.5119  224.2629 H   0  0  0  0  0  0  0  0  0  0  0  0
  1  2  2  0
  2  3  1  0
  3  4  2  0
  4  5  1  0
  5  6  1  0
  6  7  1  0
  7  8  1  0
  8  9  1  0
  9 10  2  0
 10 11  1  0
 11 12  1  0
 12 13  1  0
 13 14  1  0
 14 15  1  0
 15 16  2  0
 16 17  1  0
 17 18  2  0
 18 19  1  0
 19 20  2  0
 20 21  1  0
 11 22  2  0
 22 23  1  0
 23 24  1  0
 24 25  1  0
 25 26  1  0
 26 27  1  0
 27 28  2  0
 28 29  1  0
 29 30  2  0
 30 31  1  0
 31 32  2  0
 32 33  1  0
 23 34  2  0
  8 35  1  0
 35 36  1  0
  4 37  1  0
 37 38  2  0
 38  1  1  0
 36  5  1  0
 34  9  1  0
 21 12  1  0
 33 24  1  0
 20 15  1  0
 32 27  1  0
  1 39  1  0
  2 40  1  0
  3 41  1  0
  6 42  1  0
  6 43  1  0
  7 44  1  0
  7 45  1  0
 13 46  1  0
 13 47  1  0
 14 48  1  0
 14 49  1  0
 16 50  1  0
 17 51  1  0
 18 52  1  0
 19 53  1  0
 21 54  1  0
 21 55  1  0
 25 56  1  0
 25 57  1  0
 26 58  1  0
 26 59  1  0
 28 60  1  0
 29 61  1  0
 30 62  1  0
 31 63  1  0
 33 64  1  0
 33 65  1  0
 35 66  1  0
 35 67  1  0
 36 68  1  0
 36 69  1  0
 38 70  1  0
M  END
>  <UniqueID>  (34) 
48

>  <SMILES>  (34) 
c1ccc(N2CCN(c3nc(N4CCc5ccccc5C4)nc(N4CCc5ccccc5C4)n3)CC2)nc1

>  <Energy>  (34) 
88.51642508162679

>  <Genealogy>  (34) 
c1ccc(N2CCN(c3nc(N4CCc5ccccc5C4)nc(N4CCc5ccccc5C4)n3)CC2)nc1 (3D coordinates assigned)
c1ccc(N2CCN(c3nc(N4CCc5ccccc5C4)nc(N4CCc5ccccc5C4)n3)CC2)nc1 (nonaromatic ring conformer: 88.51642508162679 kcal/mol)

>  <smiles>  (34) 
c1ccc(N2CCN(c3nc(N4CCc5ccccc5C4)nc(N4CCc5ccccc5C4)n3)CC2)nc1

>  <score_type>  (34) 
oracle

>  <origin>  (34) 
autodockgpu

>  <m_score__min__energy>  (34) 
-10.69

>  <m_primary>  (34) 
energy

>  <meeko>  (34) 
{"free_energy": -10.58, "intermolecular_energy": -11.77, "internal_energy": -1.04, "cluster_size": 20, "cluster_id": 1, "rank_in_cluster": 11}

>  <energy>  (34) 
-10.42

>  <cluster_rmsd>  (34) 
0.61

>  <rmsd>  (34) 
269.39

>  <cluster>  (34) 
1

$$$$
QWCMPUPUGDWNGO-UHFFFAOYNA-N
     RDKit          3D

 70 76  0  0  0  0  0  0  0  0999 V2000
  141.8160   81.6600  223.3990 C   0  0  0  0  0  0  0  0  0  0  0  0
  142.6900   80.5860  223.5720 C   0  0  0  0  0  0  0  0  0  0  0  0
  142.4090   79.3550  222.9770 C   0  0  0  0  0  0  0  0  0  0  0  0
  141.2500   79.2150  222.1930 C   0  0  0  0  0  0  0  0  0  0  0  0
  140.9180   77.9600  221.5640 N   0  0  0  0  0  0  0  0  0  0  0  0
  141.5860   77.5150  220.3340 C   0  0  0  0  0  0  0  0  0  0  0  0
  142.0240   76.0580  220.4940 C   0  0  0  0  0  0  0  0  0  0  0  0
  140.9360   75.2230  221.0300 N   0  0  0  0  0  0  0  0  0  0  0  0
  141.1450   73.8020  221.1600 C   0  0  0  0  0  0  0  0  0  0  0  0
  140.6730   73.1420  222.2500 N   0  0  0  0  0  0  0  0  0  0  0  0
  140.8400   71.7990  222.3780 C   0  0  0  0  0  0  0  0  0  0  0  0
  140.3370   71.1000  223.5370 N   0  0  0  0  0  0  0  0  0  0  0  0
  139.1200   70.2810  223.4420 C   0  0  0  0  0  0  0  0  0  0  0  0
  139.2570   69.0320  224.3030 C   0  0  0  0  0  0  0  0  0  0  0  0
  139.6140   69.4020  225.7130 C   0  0  0  0  0  0  0  0  0  0  0  0
  139.2110   68.5780  226.7760 C   0  0  0  0  0  0  0  0  0  0  0  0
  139.5750   68.8920  228.0880 C   0  0  0  0  0  0  0  0  0  0  0  0
  140.3570   70.0190  228.3470 C   0  0  0  0  0  0  0  0  0  0  0  0
  140.7780   70.8350  227.2940 C   0  0  0  0  0  0  0  0  0  0  0  0
  140.4110   70.5360  225.9720 C   0  0  0  0  0  0  0  0  0  0  0  0
  140.8960   71.4380  224.8590 C   0  0  0  0  0  0  0  0  0  0  0  0
  141.4900   71.1190  221.3980 N   0  0  0  0  0  0  0  0  0  0  0  0
  141.9770   71.7630  220.3050 C   0  0  0  0  0  0  0  0  0  0  0  0
  142.6750   71.0290  219.2770 N   0  0  0  0  0  0  0  0  0  0  0  0
  143.7110   71.6570  218.4510 C   0  0  0  0  0  0  0  0  0  0  0  0
  145.0520   70.9750  218.7250 C   0  0  0  0  0  0  0  0  0  0  0  0
  144.9350   69.4660  218.7280 C   0  0  0  0  0  0  0  0  0  0  0  0
  146.1020   68.6930  218.6250 C   0  0  0  0  0  0  0  0  0  0  0  0
  146.0350   67.2970  218.6850 C   0  0  0  0  0  0  0  0  0  0  0  0
  144.8030   66.6630  218.8530 C   0  0  0  0  0  0  0  0  0  0  0  0
  143.6340   67.4190  218.9730 C   0  0  0  0  0  0  0  0  0  0  0  0
  143.6890   68.8210  218.9320 C   0  0  0  0  0  0  0  0  0  0  0  0
  142.4030   69.6070  219.0300 C   0  0  0  0  0  0  0  0  0  0  0  0
  141.8010   73.1050  220.1950 N   0  0  0  0  0  0  0  0  0  0  0  0
  139.6350   75.8330  221.3530 C   0  0  0  0  0  0  0  0  0  0  0  0
  139.8350   77.1430  222.1320 C   0  0  0  0  0  0  0  0  0  0  0  0
  140.4060   80.2780  222.0620 N   0  0  0  0  0  0  0  0  0  0  0  0
  140.6640   81.4840  222.6340 C   0  0  0  0  0  0  0  0  0  0  0  0
  142.0336   82.6343  223.8610 H   0  0  0  0  0  0  0  0  0  0  0  0
  143.6002   80.7095  224.1772 H   0  0  0  0  0  0  0  0  0  0  0  0
  143.0883   78.5017  223.1201 H   0  0  0  0  0  0  0  0  0  0  0  0
  140.8891   77.5981  219.4869 H   0  0  0  0  0  0  0  0  0  0  0  0
  142.4673   78.1456  220.1450 H   0  0  0  0  0  0  0  0  0  0  0  0
  142.3251   75.6654  219.5116 H   0  0  0  0  0  0  0  0  0  0  0  0
  142.8646   76.0262  221.2028 H   0  0  0  0  0  0  0  0  0  0  0  0
  138.2582   70.8693  223.7901 H   0  0  0  0  0  0  0  0  0  0  0  0
  138.9712   69.9799  222.3945 H   0  0  0  0  0  0  0  0  0  0  0  0
  138.3023   68.4857  224.3028 H   0  0  0  0  0  0  0  0  0  0  0  0
  140.0558   68.3998  223.8880 H   0  0  0  0  0  0  0  0  0  0  0  0
  138.6062   67.6815  226.5751 H   0  0  0  0  0  0  0  0  0  0  0  0
  139.2448   68.2501  228.9181 H   0  0  0  0  0  0  0  0  0  0  0  0
  140.6419   70.2647  229.3807 H   0  0  0  0  0  0  0  0  0  0  0  0
  141.4010   71.7174  227.5019 H   0  0  0  0  0  0  0  0  0  0  0  0
  140.6125   72.4727  225.1019 H   0  0  0  0  0  0  0  0  0  0  0  0
  141.9860   71.3070  224.7905 H   0  0  0  0  0  0  0  0  0  0  0  0
  143.4518   71.5459  217.3878 H   0  0  0  0  0  0  0  0  0  0  0  0
  143.7826   72.7268  218.6968 H   0  0  0  0  0  0  0  0  0  0  0  0
  145.7674   71.2734  217.9445 H   0  0  0  0  0  0  0  0  0  0  0  0
  145.3937   71.2895  219.7221 H   0  0  0  0  0  0  0  0  0  0  0  0
  147.0758   69.1882  218.4962 H   0  0  0  0  0  0  0  0  0  0  0  0
  146.9540   66.6985  218.5997 H   0  0  0  0  0  0  0  0  0  0  0  0
  144.7521   65.5648  218.8910 H   0  0  0  0  0  0  0  0  0  0  0  0
  142.6657   66.9129  219.1003 H   0  0  0  0  0  0  0  0  0  0  0  0
  141.8462   69.5054  218.0868 H   0  0  0  0  0  0  0  0  0  0  0  0
  141.8125   69.2113  219.8695 H   0  0  0  0  0  0  0  0  0  0  0  0
  139.0929   76.0456  220.4198 H   0  0  0  0  0  0  0  0  0  0  0  0
  139.0577   75.1330  221.9749 H   0  0  0  0  0  0  0  0  0  0  0  0
  138.8998   77.7213  222.1010 H   0  0  0  0  0  0  0  0  0  0  0  0
  140.1088   76.8859  223.1659 H   0  0  0  0  0  0  0  0  0  0  0  0
  139.9639   82.3207  222.4932 H   0  0  0  0  0  0  0  0  0  0  0  0
  1  2  2  0
  2  3  1  0
  3  4  2  0
  4  5  1  0
  5  6  1  0
  6  7  1  0
  7  8  1  0
  8  9  1  0
  9 10  2  0
 10 11  1  0
 11 12  1  0
 12 13  1  0
 13 14  1  0
 14 15  1  0
 15 16  2  0
 16 17  1  0
 17 18  2  0
 18 19  1  0
 19 20  2  0
 20 21  1  0
 11 22  2  0
 22 23  1  0
 23 24  1  0
 24 25  1  0
 25 26  1  0
 26 27  1  0
 27 28  2  0
 28 29  1  0
 29 30  2  0
 30 31  1  0
 31 32  2  0
 32 33  1  0
 23 34  2  0
  8 35  1  0
 35 36  1  0
  4 37  1  0
 37 38  2  0
 38  1  1  0
 36  5  1  0
 34  9  1  0
 21 12  1  0
 33 24  1  0
 20 15  1  0
 32 27  1  0
  1 39  1  0
  2 40  1  0
  3 41  1  0
  6 42  1  0
  6 43  1  0
  7 44  1  0
  7 45  1  0
 13 46  1  0
 13 47  1  0
 14 48  1  0
 14 49  1  0
 16 50  1  0
 17 51  1  0
 18 52  1  0
 19 53  1  0
 21 54  1  0
 21 55  1  0
 25 56  1  0
 25 57  1  0
 26 58  1  0
 26 59  1  0
 28 60  1  0
 29 61  1  0
 30 62  1  0
 31 63  1  0
 33 64  1  0
 33 65  1  0
 35 66  1  0
 35 67  1  0
 36 68  1  0
 36 69  1  0
 38 70  1  0
M  END
>  <UniqueID>  (35) 
48

>  <SMILES>  (35) 
c1ccc(N2CCN(c3nc(N4CCc5ccccc5C4)nc(N4CCc5ccccc5C4)n3)CC2)nc1

>  <Energy>  (35) 
88.51642508162679

>  <Genealogy>  (35) 
c1ccc(N2CCN(c3nc(N4CCc5ccccc5C4)nc(N4CCc5ccccc5C4)n3)CC2)nc1 (3D coordinates assigned)
c1ccc(N2CCN(c3nc(N4CCc5ccccc5C4)nc(N4CCc5ccccc5C4)n3)CC2)nc1 (nonaromatic ring conformer: 88.51642508162679 kcal/mol)

>  <smiles>  (35) 
c1ccc(N2CCN(c3nc(N4CCc5ccccc5C4)nc(N4CCc5ccccc5C4)n3)CC2)nc1

>  <score_type>  (35) 
oracle

>  <origin>  (35) 
autodockgpu

>  <m_score__min__energy>  (35) 
-10.69

>  <m_primary>  (35) 
energy

>  <meeko>  (35) 
{"free_energy": -10.52, "intermolecular_energy": -11.71, "internal_energy": -1.04, "cluster_size": 20, "cluster_id": 1, "rank_in_cluster": 13}

>  <energy>  (35) 
-10.41

>  <cluster_rmsd>  (35) 
0.61

>  <rmsd>  (35) 
269.37

>  <cluster>  (35) 
1

$$$$
QWCMPUPUGDWNGO-UHFFFAOYNA-N
     RDKit          3D

 70 76  0  0  0  0  0  0  0  0999 V2000
  146.6830   66.7440  218.2140 C   0  0  0  0  0  0  0  0  0  0  0  0
  146.2870   67.4900  217.1030 C   0  0  0  0  0  0  0  0  0  0  0  0
  145.5300   68.6500  217.2760 C   0  0  0  0  0  0  0  0  0  0  0  0
  145.1860   69.0630  218.5740 C   0  0  0  0  0  0  0  0  0  0  0  0
  144.4010   70.2530  218.7990 N   0  0  0  0  0  0  0  0  0  0  0  0
  143.1320   70.4820  218.0980 C   0  0  0  0  0  0  0  0  0  0  0  0
  142.0670   70.9180  219.1060 C   0  0  0  0  0  0  0  0  0  0  0  0
  142.5670   71.9810  219.9930 N   0  0  0  0  0  0  0  0  0  0  0  0
  141.6640   72.5770  220.9480 C   0  0  0  0  0  0  0  0  0  0  0  0
  141.4110   73.9110  220.9020 N   0  0  0  0  0  0  0  0  0  0  0  0
  140.5460   74.4860  221.7790 C   0  0  0  0  0  0  0  0  0  0  0  0
  140.2780   75.9040  221.7280 N   0  0  0  0  0  0  0  0  0  0  0  0
  138.9100   76.4110  221.9140 C   0  0  0  0  0  0  0  0  0  0  0  0
  138.9320   77.7140  222.7020 C   0  0  0  0  0  0  0  0  0  0  0  0
  139.8500   78.7070  222.0490 C   0  0  0  0  0  0  0  0  0  0  0  0
  139.5980   80.0830  222.1800 C   0  0  0  0  0  0  0  0  0  0  0  0
  140.4690   81.0150  221.6110 C   0  0  0  0  0  0  0  0  0  0  0  0
  141.6040   80.5840  220.9240 C   0  0  0  0  0  0  0  0  0  0  0  0
  141.8730   79.2180  220.8050 C   0  0  0  0  0  0  0  0  0  0  0  0
  141.0010   78.2700  221.3620 C   0  0  0  0  0  0  0  0  0  0  0  0
  141.3330   76.8010  221.2210 C   0  0  0  0  0  0  0  0  0  0  0  0
  139.9330   73.7070  222.7080 N   0  0  0  0  0  0  0  0  0  0  0  0
  140.1820   72.3740  222.7740 C   0  0  0  0  0  0  0  0  0  0  0  0
  139.5310   71.5600  223.7750 N   0  0  0  0  0  0  0  0  0  0  0  0
  138.3730   70.7210  223.4500 C   0  0  0  0  0  0  0  0  0  0  0  0
  138.7450   69.2530  223.6530 C   0  0  0  0  0  0  0  0  0  0  0  0
  139.4720   69.0220  224.9600 C   0  0  0  0  0  0  0  0  0  0  0  0
  139.5830   67.7140  225.4570 C   0  0  0  0  0  0  0  0  0  0  0  0
  140.2980   67.4590  226.6310 C   0  0  0  0  0  0  0  0  0  0  0  0
  140.9120   68.5080  227.3170 C   0  0  0  0  0  0  0  0  0  0  0  0
  140.8250   69.8140  226.8280 C   0  0  0  0  0  0  0  0  0  0  0  0
  140.1240   70.0810  225.6410 C   0  0  0  0  0  0  0  0  0  0  0  0
  140.0200   71.5090  225.1580 C   0  0  0  0  0  0  0  0  0  0  0  0
  141.0490   71.8170  221.8910 N   0  0  0  0  0  0  0  0  0  0  0  0
  143.9490   72.4700  219.8450 C   0  0  0  0  0  0  0  0  0  0  0  0
  144.9220   71.2900  219.7030 C   0  0  0  0  0  0  0  0  0  0  0  0
  145.5710   68.3000  219.6380 N   0  0  0  0  0  0  0  0  0  0  0  0
  146.3090   67.1680  219.4880 C   0  0  0  0  0  0  0  0  0  0  0  0
  147.2837   65.8315  218.0857 H   0  0  0  0  0  0  0  0  0  0  0  0
  146.5712   67.1641  216.0916 H   0  0  0  0  0  0  0  0  0  0  0  0
  145.2055   69.2358  216.4033 H   0  0  0  0  0  0  0  0  0  0  0  0
  143.2669   71.2701  217.3425 H   0  0  0  0  0  0  0  0  0  0  0  0
  142.8120   69.5528  217.6038 H   0  0  0  0  0  0  0  0  0  0  0  0
  141.1891   71.2923  218.5591 H   0  0  0  0  0  0  0  0  0  0  0  0
  141.8011   70.0485  219.7251 H   0  0  0  0  0  0  0  0  0  0  0  0
  138.4523   76.5898  220.9299 H   0  0  0  0  0  0  0  0  0  0  0  0
  138.3247   75.6652  222.4719 H   0  0  0  0  0  0  0  0  0  0  0  0
  137.9150   78.1315  222.7400 H   0  0  0  0  0  0  0  0  0  0  0  0
  139.2954   77.5087  223.7197 H   0  0  0  0  0  0  0  0  0  0  0  0
  138.7115   80.4276  222.7327 H   0  0  0  0  0  0  0  0  0  0  0  0
  140.2595   82.0908  221.7048 H   0  0  0  0  0  0  0  0  0  0  0  0
  142.2877   81.3199  220.4757 H   0  0  0  0  0  0  0  0  0  0  0  0
  142.7746   78.8834  220.2710 H   0  0  0  0  0  0  0  0  0  0  0  0
  141.4927   76.5817  220.1550 H   0  0  0  0  0  0  0  0  0  0  0  0
  142.2321   76.6148  221.8268 H   0  0  0  0  0  0  0  0  0  0  0  0
  137.5323   70.9824  224.1095 H   0  0  0  0  0  0  0  0  0  0  0  0
  138.0780   70.8867  222.4033 H   0  0  0  0  0  0  0  0  0  0  0  0
  137.8246   68.6506  223.6485 H   0  0  0  0  0  0  0  0  0  0  0  0
  139.4199   68.9599  222.8353 H   0  0  0  0  0  0  0  0  0  0  0  0
  139.1037   66.8831  224.9186 H   0  0  0  0  0  0  0  0  0  0  0  0
  140.3767   66.4310  227.0143 H   0  0  0  0  0  0  0  0  0  0  0  0
  141.4661   68.3060  228.2455 H   0  0  0  0  0  0  0  0  0  0  0  0
  141.3079   70.6368  227.3755 H   0  0  0  0  0  0  0  0  0  0  0  0
  139.3226   72.0588  225.8071 H   0  0  0  0  0  0  0  0  0  0  0  0
  141.0200   71.9659  225.1942 H   0  0  0  0  0  0  0  0  0  0  0  0
  144.0151   73.1042  218.9486 H   0  0  0  0  0  0  0  0  0  0  0  0
  144.2199   73.0503  220.7393 H   0  0  0  0  0  0  0  0  0  0  0  0
  145.8766   71.6628  219.3034 H   0  0  0  0  0  0  0  0  0  0  0  0
  145.0565   70.8385  220.6970 H   0  0  0  0  0  0  0  0  0  0  0  0
  146.6109   66.5869  220.3719 H   0  0  0  0  0  0  0  0  0  0  0  0
  1  2  2  0
  2  3  1  0
  3  4  2  0
  4  5  1  0
  5  6  1  0
  6  7  1  0
  7  8  1  0
  8  9  1  0
  9 10  2  0
 10 11  1  0
 11 12  1  0
 12 13  1  0
 13 14  1  0
 14 15  1  0
 15 16  2  0
 16 17  1  0
 17 18  2  0
 18 19  1  0
 19 20  2  0
 20 21  1  0
 11 22  2  0
 22 23  1  0
 23 24  1  0
 24 25  1  0
 25 26  1  0
 26 27  1  0
 27 28  2  0
 28 29  1  0
 29 30  2  0
 30 31  1  0
 31 32  2  0
 32 33  1  0
 23 34  2  0
  8 35  1  0
 35 36  1  0
  4 37  1  0
 37 38  2  0
 38  1  1  0
 36  5  1  0
 34  9  1  0
 21 12  1  0
 33 24  1  0
 20 15  1  0
 32 27  1  0
  1 39  1  0
  2 40  1  0
  3 41  1  0
  6 42  1  0
  6 43  1  0
  7 44  1  0
  7 45  1  0
 13 46  1  0
 13 47  1  0
 14 48  1  0
 14 49  1  0
 16 50  1  0
 17 51  1  0
 18 52  1  0
 19 53  1  0
 21 54  1  0
 21 55  1  0
 25 56  1  0
 25 57  1  0
 26 58  1  0
 26 59  1  0
 28 60  1  0
 29 61  1  0
 30 62  1  0
 31 63  1  0
 33 64  1  0
 33 65  1  0
 35 66  1  0
 35 67  1  0
 36 68  1  0
 36 69  1  0
 38 70  1  0
M  END
>  <UniqueID>  (36) 
48

>  <SMILES>  (36) 
c1ccc(N2CCN(c3nc(N4CCc5ccccc5C4)nc(N4CCc5ccccc5C4)n3)CC2)nc1

>  <Energy>  (36) 
88.51642508162679

>  <Genealogy>  (36) 
c1ccc(N2CCN(c3nc(N4CCc5ccccc5C4)nc(N4CCc5ccccc5C4)n3)CC2)nc1 (3D coordinates assigned)
c1ccc(N2CCN(c3nc(N4CCc5ccccc5C4)nc(N4CCc5ccccc5C4)n3)CC2)nc1 (nonaromatic ring conformer: 88.51642508162679 kcal/mol)

>  <smiles>  (36) 
c1ccc(N2CCN(c3nc(N4CCc5ccccc5C4)nc(N4CCc5ccccc5C4)n3)CC2)nc1

>  <score_type>  (36) 
oracle

>  <origin>  (36) 
autodockgpu

>  <m_score__min__energy>  (36) 
-10.69

>  <m_primary>  (36) 
energy

>  <meeko>  (36) 
{"free_energy": -10.14, "intermolecular_energy": -11.33, "internal_energy": -1.02, "cluster_size": 20, "cluster_id": 1, "rank_in_cluster": 18}

>  <energy>  (36) 
-10.33

>  <cluster_rmsd>  (36) 
1.48

>  <rmsd>  (36) 
269.16

>  <cluster>  (36) 
1

$$$$
QWCMPUPUGDWNGO-UHFFFAOYNA-N
     RDKit          3D

 70 76  0  0  0  0  0  0  0  0999 V2000
  141.8260   81.7320  223.2030 C   0  0  0  0  0  0  0  0  0  0  0  0
  142.4330   80.5790  223.7040 C   0  0  0  0  0  0  0  0  0  0  0  0
  142.1360   79.3350  223.1470 C   0  0  0  0  0  0  0  0  0  0  0  0
  141.2330   79.2570  222.0720 C   0  0  0  0  0  0  0  0  0  0  0  0
  140.8930   77.9920  221.4680 N   0  0  0  0  0  0  0  0  0  0  0  0
  141.5370   77.5300  220.2330 C   0  0  0  0  0  0  0  0  0  0  0  0
  141.9840   76.0770  220.4060 C   0  0  0  0  0  0  0  0  0  0  0  0
  140.9110   75.2470  220.9770 N   0  0  0  0  0  0  0  0  0  0  0  0
  141.1280   73.8280  221.1240 C   0  0  0  0  0  0  0  0  0  0  0  0
  140.6500   73.1770  222.2180 N   0  0  0  0  0  0  0  0  0  0  0  0
  140.8260   71.8370  222.3620 C   0  0  0  0  0  0  0  0  0  0  0  0
  140.3170   71.1480  223.5250 N   0  0  0  0  0  0  0  0  0  0  0  0
  139.1010   70.3260  223.4310 C   0  0  0  0  0  0  0  0  0  0  0  0
  139.2350   69.0850  224.3040 C   0  0  0  0  0  0  0  0  0  0  0  0
  139.5850   69.4690  225.7120 C   0  0  0  0  0  0  0  0  0  0  0  0
  139.1770   68.6530  226.7800 C   0  0  0  0  0  0  0  0  0  0  0  0
  139.5340   68.9790  228.0910 C   0  0  0  0  0  0  0  0  0  0  0  0
  140.3130   70.1090  228.3440 C   0  0  0  0  0  0  0  0  0  0  0  0
  140.7390   70.9160  227.2860 C   0  0  0  0  0  0  0  0  0  0  0  0
  140.3790   70.6060  225.9650 C   0  0  0  0  0  0  0  0  0  0  0  0
  140.8690   71.4980  224.8470 C   0  0  0  0  0  0  0  0  0  0  0  0
  141.4880   71.1500  221.3950 N   0  0  0  0  0  0  0  0  0  0  0  0
  141.9800   71.7860  220.3000 C   0  0  0  0  0  0  0  0  0  0  0  0
  142.6910   71.0440  219.2850 N   0  0  0  0  0  0  0  0  0  0  0  0
  143.7620   71.6580  218.4930 C   0  0  0  0  0  0  0  0  0  0  0  0
  145.0810   70.9480  218.7980 C   0  0  0  0  0  0  0  0  0  0  0  0
  144.9340   69.4410  218.7870 C   0  0  0  0  0  0  0  0  0  0  0  0
  146.0880   68.6450  218.7110 C   0  0  0  0  0  0  0  0  0  0  0  0
  145.9920   67.2510  218.7590 C   0  0  0  0  0  0  0  0  0  0  0  0
  144.7430   66.6400  218.8880 C   0  0  0  0  0  0  0  0  0  0  0  0
  143.5870   67.4180  218.9820 C   0  0  0  0  0  0  0  0  0  0  0  0
  143.6700   68.8190  218.9520 C   0  0  0  0  0  0  0  0  0  0  0  0
  142.3980   69.6300  219.0210 C   0  0  0  0  0  0  0  0  0  0  0  0
  141.7960   73.1250  220.1730 N   0  0  0  0  0  0  0  0  0  0  0  0
  139.6140   75.8570  221.3170 C   0  0  0  0  0  0  0  0  0  0  0  0
  139.8250   77.1790  222.0710 C   0  0  0  0  0  0  0  0  0  0  0  0
  140.6400   80.3990  221.6190 N   0  0  0  0  0  0  0  0  0  0  0  0
  140.9190   81.6200  222.1490 C   0  0  0  0  0  0  0  0  0  0  0  0
  142.0600   82.7166  223.6340 H   0  0  0  0  0  0  0  0  0  0  0  0
  143.1460   80.6515  224.5385 H   0  0  0  0  0  0  0  0  0  0  0  0
  142.6042   78.4228  223.5454 H   0  0  0  0  0  0  0  0  0  0  0  0
  140.8227   77.5975  219.3992 H   0  0  0  0  0  0  0  0  0  0  0  0
  142.4121   78.1604  220.0168 H   0  0  0  0  0  0  0  0  0  0  0  0
  142.2660   75.6704  219.4236 H   0  0  0  0  0  0  0  0  0  0  0  0
  142.8393   76.0590  221.0974 H   0  0  0  0  0  0  0  0  0  0  0  0
  138.2366   70.9163  223.7691 H   0  0  0  0  0  0  0  0  0  0  0  0
  138.9583   70.0152  222.3855 H   0  0  0  0  0  0  0  0  0  0  0  0
  138.2808   68.5378  224.3045 H   0  0  0  0  0  0  0  0  0  0  0  0
  140.0360   68.4493  223.8987 H   0  0  0  0  0  0  0  0  0  0  0  0
  138.5742   67.7540  226.5836 H   0  0  0  0  0  0  0  0  0  0  0  0
  139.2005   68.3440  228.9250 H   0  0  0  0  0  0  0  0  0  0  0  0
  140.5918   70.3644  229.3770 H   0  0  0  0  0  0  0  0  0  0  0  0
  141.3607   71.8003  227.4895 H   0  0  0  0  0  0  0  0  0  0  0  0
  140.5836   72.5346  225.0792 H   0  0  0  0  0  0  0  0  0  0  0  0
  141.9594   71.3670  224.7853 H   0  0  0  0  0  0  0  0  0  0  0  0
  143.5303   71.5603  217.4221 H   0  0  0  0  0  0  0  0  0  0  0  0
  143.8475   72.7242  218.7497 H   0  0  0  0  0  0  0  0  0  0  0  0
  145.8230   71.2373  218.0392 H   0  0  0  0  0  0  0  0  0  0  0  0
  145.4019   71.2491  219.8062 H   0  0  0  0  0  0  0  0  0  0  0  0
  147.0746   69.1214  218.6130 H   0  0  0  0  0  0  0  0  0  0  0  0
  146.9011   66.6350  218.6951 H   0  0  0  0  0  0  0  0  0  0  0  0
  144.6694   65.5428  218.9157 H   0  0  0  0  0  0  0  0  0  0  0  0
  142.6060   66.9302  219.0801 H   0  0  0  0  0  0  0  0  0  0  0  0
  141.8649   69.5457  218.0625 H   0  0  0  0  0  0  0  0  0  0  0  0
  141.7776   69.2408  219.8417 H   0  0  0  0  0  0  0  0  0  0  0  0
  139.0521   76.0531  220.3919 H   0  0  0  0  0  0  0  0  0  0  0  0
  139.0520   75.1647  221.9611 H   0  0  0  0  0  0  0  0  0  0  0  0
  138.8870   77.7532  222.0508 H   0  0  0  0  0  0  0  0  0  0  0  0
  140.1217   76.9387  223.1026 H   0  0  0  0  0  0  0  0  0  0  0  0
  140.4295   82.5192  221.7466 H   0  0  0  0  0  0  0  0  0  0  0  0
  1  2  2  0
  2  3  1  0
  3  4  2  0
  4  5  1  0
  5  6  1  0
  6  7  1  0
  7  8  1  0
  8  9  1  0
  9 10  2  0
 10 11  1  0
 11 12  1  0
 12 13  1  0
 13 14  1  0
 14 15  1  0
 15 16  2  0
 16 17  1  0
 17 18  2  0
 18 19  1  0
 19 20  2  0
 20 21  1  0
 11 22  2  0
 22 23  1  0
 23 24  1  0
 24 25  1  0
 25 26  1  0
 26 27  1  0
 27 28  2  0
 28 29  1  0
 29 30  2  0
 30 31  1  0
 31 32  2  0
 32 33  1  0
 23 34  2  0
  8 35  1  0
 35 36  1  0
  4 37  1  0
 37 38  2  0
 38  1  1  0
 36  5  1  0
 34  9  1  0
 21 12  1  0
 33 24  1  0
 20 15  1  0
 32 27  1  0
  1 39  1  0
  2 40  1  0
  3 41  1  0
  6 42  1  0
  6 43  1  0
  7 44  1  0
  7 45  1  0
 13 46  1  0
 13 47  1  0
 14 48  1  0
 14 49  1  0
 16 50  1  0
 17 51  1  0
 18 52  1  0
 19 53  1  0
 21 54  1  0
 21 55  1  0
 25 56  1  0
 25 57  1  0
 26 58  1  0
 26 59  1  0
 28 60  1  0
 29 61  1  0
 30 62  1  0
 31 63  1  0
 33 64  1  0
 33 65  1  0
 35 66  1  0
 35 67  1  0
 36 68  1  0
 36 69  1  0
 38 70  1  0
M  END
>  <UniqueID>  (37) 
48

>  <SMILES>  (37) 
c1ccc(N2CCN(c3nc(N4CCc5ccccc5C4)nc(N4CCc5ccccc5C4)n3)CC2)nc1

>  <Energy>  (37) 
88.51642508162679

>  <Genealogy>  (37) 
c1ccc(N2CCN(c3nc(N4CCc5ccccc5C4)nc(N4CCc5ccccc5C4)n3)CC2)nc1 (3D coordinates assigned)
c1ccc(N2CCN(c3nc(N4CCc5ccccc5C4)nc(N4CCc5ccccc5C4)n3)CC2)nc1 (nonaromatic ring conformer: 88.51642508162679 kcal/mol)

>  <smiles>  (37) 
c1ccc(N2CCN(c3nc(N4CCc5ccccc5C4)nc(N4CCc5ccccc5C4)n3)CC2)nc1

>  <score_type>  (37) 
oracle

>  <origin>  (37) 
autodockgpu

>  <m_score__min__energy>  (37) 
-10.69

>  <m_primary>  (37) 
energy

>  <meeko>  (37) 
{"free_energy": -10.54, "intermolecular_energy": -11.73, "internal_energy": -1.05, "cluster_size": 20, "cluster_id": 1, "rank_in_cluster": 12}

>  <energy>  (37) 
-10.26

>  <cluster_rmsd>  (37) 
1.54

>  <rmsd>  (37) 
269.03

>  <cluster>  (37) 
1

$$$$
QWCMPUPUGDWNGO-UHFFFAOYNA-N
     RDKit          3D

 70 76  0  0  0  0  0  0  0  0999 V2000
  146.6250   66.7790  218.0770 C   0  0  0  0  0  0  0  0  0  0  0  0
  146.1880   67.5280  216.9830 C   0  0  0  0  0  0  0  0  0  0  0  0
  145.4550   68.6970  217.1860 C   0  0  0  0  0  0  0  0  0  0  0  0
  145.1740   69.1180  218.4980 C   0  0  0  0  0  0  0  0  0  0  0  0
  144.4150   70.3180  218.7540 N   0  0  0  0  0  0  0  0  0  0  0  0
  143.1730   70.6130  218.0290 C   0  0  0  0  0  0  0  0  0  0  0  0
  142.0920   71.0340  219.0260 C   0  0  0  0  0  0  0  0  0  0  0  0
  142.5940   72.0420  219.9740 N   0  0  0  0  0  0  0  0  0  0  0  0
  141.6810   72.6210  220.9280 C   0  0  0  0  0  0  0  0  0  0  0  0
  141.4260   73.9560  220.9040 N   0  0  0  0  0  0  0  0  0  0  0  0
  140.5520   74.5140  221.7810 C   0  0  0  0  0  0  0  0  0  0  0  0
  140.2840   75.9330  221.7530 N   0  0  0  0  0  0  0  0  0  0  0  0
  139.4520   76.5120  220.6870 C   0  0  0  0  0  0  0  0  0  0  0  0
  138.5810   77.6290  221.2470 C   0  0  0  0  0  0  0  0  0  0  0  0
  139.4230   78.6460  221.9610 C   0  0  0  0  0  0  0  0  0  0  0  0
  139.0060   79.9860  222.0150 C   0  0  0  0  0  0  0  0  0  0  0  0
  139.7630   80.9310  222.7130 C   0  0  0  0  0  0  0  0  0  0  0  0
  140.9280   80.5430  223.3760 C   0  0  0  0  0  0  0  0  0  0  0  0
  141.3410   79.2090  223.3430 C   0  0  0  0  0  0  0  0  0  0  0  0
  140.5960   78.2510  222.6370 C   0  0  0  0  0  0  0  0  0  0  0  0
  141.0700   76.8150  222.6350 C   0  0  0  0  0  0  0  0  0  0  0  0
  139.9290   73.7190  222.6900 N   0  0  0  0  0  0  0  0  0  0  0  0
  140.1780   72.3840  222.7350 C   0  0  0  0  0  0  0  0  0  0  0  0
  139.5170   71.5520  223.7130 N   0  0  0  0  0  0  0  0  0  0  0  0
  138.3750   70.7050  223.3570 C   0  0  0  0  0  0  0  0  0  0  0  0
  138.7590   69.2380  223.5500 C   0  0  0  0  0  0  0  0  0  0  0  0
  139.4630   69.0010  224.8700 C   0  0  0  0  0  0  0  0  0  0  0  0
  139.5780   67.6880  225.3540 C   0  0  0  0  0  0  0  0  0  0  0  0
  140.2730   67.4280  226.5390 C   0  0  0  0  0  0  0  0  0  0  0  0
  140.8620   68.4760  227.2490 C   0  0  0  0  0  0  0  0  0  0  0  0
  140.7700   69.7860  226.7720 C   0  0  0  0  0  0  0  0  0  0  0  0
  140.0900   70.0590  225.5750 C   0  0  0  0  0  0  0  0  0  0  0  0
  139.9790   71.4910  225.1060 C   0  0  0  0  0  0  0  0  0  0  0  0
  141.0560   71.8440  221.8510 N   0  0  0  0  0  0  0  0  0  0  0  0
  143.9920   72.4990  219.8850 C   0  0  0  0  0  0  0  0  0  0  0  0
  144.9380   71.3000  219.7170 C   0  0  0  0  0  0  0  0  0  0  0  0
  145.5960   68.3530  219.5450 N   0  0  0  0  0  0  0  0  0  0  0  0
  146.3130   67.2110  219.3660 C   0  0  0  0  0  0  0  0  0  0  0  0
  147.2084   65.8591  217.9243 H   0  0  0  0  0  0  0  0  0  0  0  0
  146.4218   67.1961  215.9607 H   0  0  0  0  0  0  0  0  0  0  0  0
  145.0996   69.2849  216.3269 H   0  0  0  0  0  0  0  0  0  0  0  0
  143.3506   71.4293  217.3134 H   0  0  0  0  0  0  0  0  0  0  0  0
  142.8425   69.7159  217.4850 H   0  0  0  0  0  0  0  0  0  0  0  0
  141.2407   71.4569  218.4724 H   0  0  0  0  0  0  0  0  0  0  0  0
  141.7856   70.1456  219.5977 H   0  0  0  0  0  0  0  0  0  0  0  0
  140.1027   76.9191  219.8990 H   0  0  0  0  0  0  0  0  0  0  0  0
  138.8042   75.7264  220.2708 H   0  0  0  0  0  0  0  0  0  0  0  0
  138.0452   78.1188  220.4206 H   0  0  0  0  0  0  0  0  0  0  0  0
  137.8644   77.1967  221.9609 H   0  0  0  0  0  0  0  0  0  0  0  0
  138.0803   80.2928  221.5061 H   0  0  0  0  0  0  0  0  0  0  0  0
  139.4400   81.9822  222.7398 H   0  0  0  0  0  0  0  0  0  0  0  0
  141.5218   81.2885  223.9253 H   0  0  0  0  0  0  0  0  0  0  0  0
  142.2560   78.9071  223.8737 H   0  0  0  0  0  0  0  0  0  0  0  0
  142.1179   76.7956  222.3011 H   0  0  0  0  0  0  0  0  0  0  0  0
  140.9492   76.4350  223.6602 H   0  0  0  0  0  0  0  0  0  0  0  0
  137.5195   70.9497  224.0037 H   0  0  0  0  0  0  0  0  0  0  0  0
  138.0978   70.8798  222.3069 H   0  0  0  0  0  0  0  0  0  0  0  0
  137.8457   68.6257  223.5204 H   0  0  0  0  0  0  0  0  0  0  0  0
  139.4524   68.9608  222.7423 H   0  0  0  0  0  0  0  0  0  0  0  0
  139.1182   66.8583  224.7971 H   0  0  0  0  0  0  0  0  0  0  0  0
  140.3558   66.3966  226.9123 H   0  0  0  0  0  0  0  0  0  0  0  0
  141.3998   68.2698  228.1862 H   0  0  0  0  0  0  0  0  0  0  0  0
  141.2331   70.6079  227.3377 H   0  0  0  0  0  0  0  0  0  0  0  0
  139.2622   72.0253  225.7469 H   0  0  0  0  0  0  0  0  0  0  0  0
  140.9726   71.9590  225.1676 H   0  0  0  0  0  0  0  0  0  0  0  0
  144.0997   73.1696  219.0197 H   0  0  0  0  0  0  0  0  0  0  0  0
  144.2527   73.0321  220.8112 H   0  0  0  0  0  0  0  0  0  0  0  0
  145.9128   71.6637  219.3599 H   0  0  0  0  0  0  0  0  0  0  0  0
  145.0334   70.8021  220.6932 H   0  0  0  0  0  0  0  0  0  0  0  0
  146.6466   66.6285  220.2374 H   0  0  0  0  0  0  0  0  0  0  0  0
  1  2  2  0
  2  3  1  0
  3  4  2  0
  4  5  1  0
  5  6  1  0
  6  7  1  0
  7  8  1  0
  8  9  1  0
  9 10  2  0
 10 11  1  0
 11 12  1  0
 12 13  1  0
 13 14  1  0
 14 15  1  0
 15 16  2  0
 16 17  1  0
 17 18  2  0
 18 19  1  0
 19 20  2  0
 20 21  1  0
 11 22  2  0
 22 23  1  0
 23 24  1  0
 24 25  1  0
 25 26  1  0
 26 27  1  0
 27 28  2  0
 28 29  1  0
 29 30  2  0
 30 31  1  0
 31 32  2  0
 32 33  1  0
 23 34  2  0
  8 35  1  0
 35 36  1  0
  4 37  1  0
 37 38  2  0
 38  1  1  0
 36  5  1  0
 34  9  1  0
 21 12  1  0
 33 24  1  0
 20 15  1  0
 32 27  1  0
  1 39  1  0
  2 40  1  0
  3 41  1  0
  6 42  1  0
  6 43  1  0
  7 44  1  0
  7 45  1  0
 13 46  1  0
 13 47  1  0
 14 48  1  0
 14 49  1  0
 16 50  1  0
 17 51  1  0
 18 52  1  0
 19 53  1  0
 21 54  1  0
 21 55  1  0
 25 56  1  0
 25 57  1  0
 26 58  1  0
 26 59  1  0
 28 60  1  0
 29 61  1  0
 30 62  1  0
 31 63  1  0
 33 64  1  0
 33 65  1  0
 35 66  1  0
 35 67  1  0
 36 68  1  0
 36 69  1  0
 38 70  1  0
M  END
>  <UniqueID>  (38) 
48

>  <SMILES>  (38) 
c1ccc(N2CCN(c3nc(N4CCc5ccccc5C4)nc(N4CCc5ccccc5C4)n3)CC2)nc1

>  <Energy>  (38) 
88.51642508162679

>  <Genealogy>  (38) 
c1ccc(N2CCN(c3nc(N4CCc5ccccc5C4)nc(N4CCc5ccccc5C4)n3)CC2)nc1 (3D coordinates assigned)
c1ccc(N2CCN(c3nc(N4CCc5ccccc5C4)nc(N4CCc5ccccc5C4)n3)CC2)nc1 (nonaromatic ring conformer: 88.51642508162679 kcal/mol)

>  <smiles>  (38) 
c1ccc(N2CCN(c3nc(N4CCc5ccccc5C4)nc(N4CCc5ccccc5C4)n3)CC2)nc1

>  <score_type>  (38) 
oracle

>  <origin>  (38) 
autodockgpu

>  <m_score__min__energy>  (38) 
-10.69

>  <m_primary>  (38) 
energy

>  <meeko>  (38) 
{"free_energy": -10.26, "intermolecular_energy": -11.45, "internal_energy": -1.01, "cluster_size": 20, "cluster_id": 1, "rank_in_cluster": 17}

>  <energy>  (38) 
-10.14

>  <cluster_rmsd>  (38) 
1.48

>  <rmsd>  (38) 
268.99

>  <cluster>  (38) 
1

$$$$
QWCMPUPUGDWNGO-UHFFFAOYNA-N
     RDKit          3D

 70 76  0  0  0  0  0  0  0  0999 V2000
  141.9950   81.7080  223.4040 C   0  0  0  0  0  0  0  0  0  0  0  0
  141.0070   81.7030  222.4180 C   0  0  0  0  0  0  0  0  0  0  0  0
  140.6110   80.4990  221.8340 C   0  0  0  0  0  0  0  0  0  0  0  0
  141.2050   79.2970  222.2560 C   0  0  0  0  0  0  0  0  0  0  0  0
  140.8290   78.0310  221.6770 N   0  0  0  0  0  0  0  0  0  0  0  0
  141.3630   77.5880  220.3820 C   0  0  0  0  0  0  0  0  0  0  0  0
  141.8460   76.1420  220.5000 C   0  0  0  0  0  0  0  0  0  0  0  0
  140.8450   75.2900  221.1620 N   0  0  0  0  0  0  0  0  0  0  0  0
  141.0970   73.8740  221.2760 C   0  0  0  0  0  0  0  0  0  0  0  0
  140.6280   73.1840  222.3490 N   0  0  0  0  0  0  0  0  0  0  0  0
  140.8370   71.8460  222.4620 C   0  0  0  0  0  0  0  0  0  0  0  0
  140.3380   71.1160  223.6030 N   0  0  0  0  0  0  0  0  0  0  0  0
  139.0800   70.3590  223.5110 C   0  0  0  0  0  0  0  0  0  0  0  0
  139.1840   69.0650  224.3070 C   0  0  0  0  0  0  0  0  0  0  0  0
  139.6040   69.3490  225.7200 C   0  0  0  0  0  0  0  0  0  0  0  0
  139.1960   68.4920  226.7560 C   0  0  0  0  0  0  0  0  0  0  0  0
  139.6160   68.7250  228.0680 C   0  0  0  0  0  0  0  0  0  0  0  0
  140.4590   69.8000  228.3530 C   0  0  0  0  0  0  0  0  0  0  0  0
  140.8860   70.6460  227.3260 C   0  0  0  0  0  0  0  0  0  0  0  0
  140.4620   70.4300  226.0050 C   0  0  0  0  0  0  0  0  0  0  0  0
  140.9550   71.3610  224.9200 C   0  0  0  0  0  0  0  0  0  0  0  0
  141.5240   71.2000  221.4840 N   0  0  0  0  0  0  0  0  0  0  0  0
  142.0070   71.8750  220.4080 C   0  0  0  0  0  0  0  0  0  0  0  0
  142.7450   71.1780  219.3820 N   0  0  0  0  0  0  0  0  0  0  0  0
  143.8020   71.8390  218.6100 C   0  0  0  0  0  0  0  0  0  0  0  0
  145.1390   71.1600  218.9070 C   0  0  0  0  0  0  0  0  0  0  0  0
  145.0350   69.6500  218.8610 C   0  0  0  0  0  0  0  0  0  0  0  0
  146.2120   68.8890  218.7730 C   0  0  0  0  0  0  0  0  0  0  0  0
  146.1550   67.4920  218.7890 C   0  0  0  0  0  0  0  0  0  0  0  0
  144.9230   66.8430  218.8970 C   0  0  0  0  0  0  0  0  0  0  0  0
  143.7450   67.5860  219.0010 C   0  0  0  0  0  0  0  0  0  0  0  0
  143.7890   68.9890  219.0040 C   0  0  0  0  0  0  0  0  0  0  0  0
  142.4940   69.7620  219.0830 C   0  0  0  0  0  0  0  0  0  0  0  0
  141.7900   73.2120  220.3130 N   0  0  0  0  0  0  0  0  0  0  0  0
  139.5760   75.8760  221.6270 C   0  0  0  0  0  0  0  0  0  0  0  0
  139.8360   77.1960  222.3700 C   0  0  0  0  0  0  0  0  0  0  0  0
  142.1830   79.3380  223.2060 N   0  0  0  0  0  0  0  0  0  0  0  0
  142.5810   80.5020  223.7870 C   0  0  0  0  0  0  0  0  0  0  0  0
  142.3077   82.6524  223.8735 H   0  0  0  0  0  0  0  0  0  0  0  0
  140.5408   82.6477  222.1014 H   0  0  0  0  0  0  0  0  0  0  0  0
  139.8400   80.4907  221.0495 H   0  0  0  0  0  0  0  0  0  0  0  0
  140.5734   77.6501  219.6187 H   0  0  0  0  0  0  0  0  0  0  0  0
  142.2044   78.2340  220.0910 H   0  0  0  0  0  0  0  0  0  0  0  0
  142.0407   75.7471  219.4920 H   0  0  0  0  0  0  0  0  0  0  0  0
  142.7624   76.1334  221.1084 H   0  0  0  0  0  0  0  0  0  0  0  0
  138.2587   70.9690  223.9153 H   0  0  0  0  0  0  0  0  0  0  0  0
  138.8842   70.1161  222.4562 H   0  0  0  0  0  0  0  0  0  0  0  0
  138.2044   68.5647  224.3142 H   0  0  0  0  0  0  0  0  0  0  0  0
  139.9374   68.4169  223.8354 H   0  0  0  0  0  0  0  0  0  0  0  0
  138.5437   67.6347  226.5333 H   0  0  0  0  0  0  0  0  0  0  0  0
  139.2816   68.0599  228.8778 H   0  0  0  0  0  0  0  0  0  0  0  0
  140.7876   69.9816  229.3869 H   0  0  0  0  0  0  0  0  0  0  0  0
  141.5584   71.4863  227.5539 H   0  0  0  0  0  0  0  0  0  0  0  0
  140.7311   72.3949  225.2214 H   0  0  0  0  0  0  0  0  0  0  0  0
  142.0343   71.1809  224.8078 H   0  0  0  0  0  0  0  0  0  0  0  0
  143.5787   71.7583  217.5359 H   0  0  0  0  0  0  0  0  0  0  0  0
  143.8560   72.9013  218.8905 H   0  0  0  0  0  0  0  0  0  0  0  0
  145.8766   71.4874  218.1595 H   0  0  0  0  0  0  0  0  0  0  0  0
  145.4457   71.4471  219.9236 H   0  0  0  0  0  0  0  0  0  0  0  0
  147.1851   69.3952  218.6909 H   0  0  0  0  0  0  0  0  0  0  0  0
  147.0815   66.9035  218.7165 H   0  0  0  0  0  0  0  0  0  0  0  0
  144.8804   65.7438  218.9002 H   0  0  0  0  0  0  0  0  0  0  0  0
  142.7774   67.0689  219.0810 H   0  0  0  0  0  0  0  0  0  0  0  0
  141.9696   69.6851  218.1191 H   0  0  0  0  0  0  0  0  0  0  0  0
  141.8798   69.3363  219.8902 H   0  0  0  0  0  0  0  0  0  0  0  0
  138.9271   76.0697  220.7602 H   0  0  0  0  0  0  0  0  0  0  0  0
  139.0875   75.1698  222.3145 H   0  0  0  0  0  0  0  0  0  0  0  0
  138.8912   77.7545  222.4433 H   0  0  0  0  0  0  0  0  0  0  0  0
  140.2323   76.9529  223.3669 H   0  0  0  0  0  0  0  0  0  0  0  0
  143.3648   80.4918  224.5587 H   0  0  0  0  0  0  0  0  0  0  0  0
  1  2  2  0
  2  3  1  0
  3  4  2  0
  4  5  1  0
  5  6  1  0
  6  7  1  0
  7  8  1  0
  8  9  1  0
  9 10  2  0
 10 11  1  0
 11 12  1  0
 12 13  1  0
 13 14  1  0
 14 15  1  0
 15 16  2  0
 16 17  1  0
 17 18  2  0
 18 19  1  0
 19 20  2  0
 20 21  1  0
 11 22  2  0
 22 23  1  0
 23 24  1  0
 24 25  1  0
 25 26  1  0
 26 27  1  0
 27 28  2  0
 28 29  1  0
 29 30  2  0
 30 31  1  0
 31 32  2  0
 32 33  1  0
 23 34  2  0
  8 35  1  0
 35 36  1  0
  4 37  1  0
 37 38  2  0
 38  1  1  0
 36  5  1  0
 34  9  1  0
 21 12  1  0
 33 24  1  0
 20 15  1  0
 32 27  1  0
  1 39  1  0
  2 40  1  0
  3 41  1  0
  6 42  1  0
  6 43  1  0
  7 44  1  0
  7 45  1  0
 13 46  1  0
 13 47  1  0
 14 48  1  0
 14 49  1  0
 16 50  1  0
 17 51  1  0
 18 52  1  0
 19 53  1  0
 21 54  1  0
 21 55  1  0
 25 56  1  0
 25 57  1  0
 26 58  1  0
 26 59  1  0
 28 60  1  0
 29 61  1  0
 30 62  1  0
 31 63  1  0
 33 64  1  0
 33 65  1  0
 35 66  1  0
 35 67  1  0
 36 68  1  0
 36 69  1  0
 38 70  1  0
M  END
>  <UniqueID>  (39) 
48

>  <SMILES>  (39) 
c1ccc(N2CCN(c3nc(N4CCc5ccccc5C4)nc(N4CCc5ccccc5C4)n3)CC2)nc1

>  <Energy>  (39) 
88.51642508162679

>  <Genealogy>  (39) 
c1ccc(N2CCN(c3nc(N4CCc5ccccc5C4)nc(N4CCc5ccccc5C4)n3)CC2)nc1 (3D coordinates assigned)
c1ccc(N2CCN(c3nc(N4CCc5ccccc5C4)nc(N4CCc5ccccc5C4)n3)CC2)nc1 (nonaromatic ring conformer: 88.51642508162679 kcal/mol)

>  <smiles>  (39) 
c1ccc(N2CCN(c3nc(N4CCc5ccccc5C4)nc(N4CCc5ccccc5C4)n3)CC2)nc1

>  <score_type>  (39) 
oracle

>  <origin>  (39) 
autodockgpu

>  <m_score__min__energy>  (39) 
-10.69

>  <m_primary>  (39) 
energy

>  <meeko>  (39) 
{"free_energy": -10.6, "intermolecular_energy": -11.79, "internal_energy": -1.04, "cluster_size": 20, "cluster_id": 1, "rank_in_cluster": 10}

>  <energy>  (39) 
-9.97

>  <cluster_rmsd>  (39) 
1.69

>  <rmsd>  (39) 
269.39

>  <cluster>  (39) 
1

$$$$
QWCMPUPUGDWNGO-UHFFFAOYNA-N
     RDKit          3D

 70 76  0  0  0  0  0  0  0  0999 V2000
  146.6870   66.8280  217.3010 C   0  0  0  0  0  0  0  0  0  0  0  0
  146.3940   67.7370  216.2830 C   0  0  0  0  0  0  0  0  0  0  0  0
  145.7530   68.9390  216.5850 C   0  0  0  0  0  0  0  0  0  0  0  0
  145.4190   69.2280  217.9200 C   0  0  0  0  0  0  0  0  0  0  0  0
  144.7500   70.4550  218.2770 N   0  0  0  0  0  0  0  0  0  0  0  0
  143.6040   70.9590  217.5100 C   0  0  0  0  0  0  0  0  0  0  0  0
  142.4850   71.3580  218.4740 C   0  0  0  0  0  0  0  0  0  0  0  0
  142.9930   72.1860  219.5800 N   0  0  0  0  0  0  0  0  0  0  0  0
  142.0580   72.7290  220.5350 C   0  0  0  0  0  0  0  0  0  0  0  0
  141.6050   71.9560  221.5560 N   0  0  0  0  0  0  0  0  0  0  0  0
  140.7410   72.4580  222.4780 C   0  0  0  0  0  0  0  0  0  0  0  0
  140.2600   71.6340  223.5630 N   0  0  0  0  0  0  0  0  0  0  0  0
  139.0920   70.7610  223.3730 C   0  0  0  0  0  0  0  0  0  0  0  0
  139.2850   69.4510  224.1260 C   0  0  0  0  0  0  0  0  0  0  0  0
  139.6000   69.7160  225.5700 C   0  0  0  0  0  0  0  0  0  0  0  0
  139.2280   68.7810  226.5490 C   0  0  0  0  0  0  0  0  0  0  0  0
  139.5540   68.9990  227.8910 C   0  0  0  0  0  0  0  0  0  0  0  0
  140.2670   70.1400  228.2600 C   0  0  0  0  0  0  0  0  0  0  0  0
  140.6580   71.0660  227.2900 C   0  0  0  0  0  0  0  0  0  0  0  0
  140.3280   70.8650  225.9410 C   0  0  0  0  0  0  0  0  0  0  0  0
  140.7790   71.8850  224.9200 C   0  0  0  0  0  0  0  0  0  0  0  0
  140.3330   73.7490  222.3670 N   0  0  0  0  0  0  0  0  0  0  0  0
  140.7690   74.5330  221.3470 C   0  0  0  0  0  0  0  0  0  0  0  0
  140.3180   75.9000  221.2340 N   0  0  0  0  0  0  0  0  0  0  0  0
  138.9150   76.2680  221.4490 C   0  0  0  0  0  0  0  0  0  0  0  0
  138.8170   77.1810  222.6710 C   0  0  0  0  0  0  0  0  0  0  0  0
  139.8640   78.2730  222.6540 C   0  0  0  0  0  0  0  0  0  0  0  0
  139.7090   79.3800  223.5030 C   0  0  0  0  0  0  0  0  0  0  0  0
  140.6870   80.3770  223.5540 C   0  0  0  0  0  0  0  0  0  0  0  0
  141.8320   80.2760  222.7620 C   0  0  0  0  0  0  0  0  0  0  0  0
  142.0100   79.1720  221.9230 C   0  0  0  0  0  0  0  0  0  0  0  0
  141.0430   78.1550  221.8740 C   0  0  0  0  0  0  0  0  0  0  0  0
  141.2500   76.9930  220.9320 C   0  0  0  0  0  0  0  0  0  0  0  0
  141.6300   74.0140  220.4350 N   0  0  0  0  0  0  0  0  0  0  0  0
  144.4290   72.5100  219.6530 C   0  0  0  0  0  0  0  0  0  0  0  0
  145.2750   71.2530  219.3960 C   0  0  0  0  0  0  0  0  0  0  0  0
  145.6990   68.3080  218.8880 N   0  0  0  0  0  0  0  0  0  0  0  0
  146.3250   67.1330  218.6120 C   0  0  0  0  0  0  0  0  0  0  0  0
  147.1980   65.8814  217.0711 H   0  0  0  0  0  0  0  0  0  0  0  0
  146.6683   67.5058  215.2431 H   0  0  0  0  0  0  0  0  0  0  0  0
  145.5110   69.6546  215.7854 H   0  0  0  0  0  0  0  0  0  0  0  0
  143.9126   71.8362  216.9223 H   0  0  0  0  0  0  0  0  0  0  0  0
  143.2417   70.1734  216.8306 H   0  0  0  0  0  0  0  0  0  0  0  0
  141.7240   71.9284  217.9213 H   0  0  0  0  0  0  0  0  0  0  0  0
  142.0545   70.4401  218.9007 H   0  0  0  0  0  0  0  0  0  0  0  0
  138.1933   71.2691  223.7526 H   0  0  0  0  0  0  0  0  0  0  0  0
  138.9769   70.5445  222.3007 H   0  0  0  0  0  0  0  0  0  0  0  0
  138.3620   68.8562  224.0601 H   0  0  0  0  0  0  0  0  0  0  0  0
  140.1236   68.9011  223.6740 H   0  0  0  0  0  0  0  0  0  0  0  0
  138.6780   67.8735  226.2591 H   0  0  0  0  0  0  0  0  0  0  0  0
  139.2482   68.2705  228.6563 H   0  0  0  0  0  0  0  0  0  0  0  0
  140.5217   70.3107  229.3164 H   0  0  0  0  0  0  0  0  0  0  0  0
  141.2285   71.9588  227.5856 H   0  0  0  0  0  0  0  0  0  0  0  0
  140.4349   72.8778  225.2454 H   0  0  0  0  0  0  0  0  0  0  0  0
  141.8755   71.8193  224.8623 H   0  0  0  0  0  0  0  0  0  0  0  0
  138.5333   76.7966  220.5631 H   0  0  0  0  0  0  0  0  0  0  0  0
  138.3162   75.3606  221.6164 H   0  0  0  0  0  0  0  0  0  0  0  0
  137.8203   77.6461  222.6867 H   0  0  0  0  0  0  0  0  0  0  0  0
  138.9857   76.5654  223.5669 H   0  0  0  0  0  0  0  0  0  0  0  0
  138.8111   79.4634  224.1329 H   0  0  0  0  0  0  0  0  0  0  0  0
  140.5543   81.2428  224.2194 H   0  0  0  0  0  0  0  0  0  0  0  0
  142.5958   81.0667  222.7981 H   0  0  0  0  0  0  0  0  0  0  0  0
  142.9123   79.0996  221.2980 H   0  0  0  0  0  0  0  0  0  0  0  0
  141.0836   77.3329  219.8992 H   0  0  0  0  0  0  0  0  0  0  0  0
  142.2781   76.6213  221.0539 H   0  0  0  0  0  0  0  0  0  0  0  0
  144.6683   73.2695  218.8941 H   0  0  0  0  0  0  0  0  0  0  0  0
  144.6575   72.8949  220.6578 H   0  0  0  0  0  0  0  0  0  0  0  0
  146.3048   71.5599  219.1610 H   0  0  0  0  0  0  0  0  0  0  0  0
  145.2425   70.6303  220.3022 H   0  0  0  0  0  0  0  0  0  0  0  0
  146.5457   66.4234  219.4230 H   0  0  0  0  0  0  0  0  0  0  0  0
  1  2  2  0
  2  3  1  0
  3  4  2  0
  4  5  1  0
  5  6  1  0
  6  7  1  0
  7  8  1  0
  8  9  1  0
  9 10  2  0
 10 11  1  0
 11 12  1  0
 12 13  1  0
 13 14  1  0
 14 15  1  0
 15 16  2  0
 16 17  1  0
 17 18  2  0
 18 19  1  0
 19 20  2  0
 20 21  1  0
 11 22  2  0
 22 23  1  0
 23 24  1  0
 24 25  1  0
 25 26  1  0
 26 27  1  0
 27 28  2  0
 28 29  1  0
 29 30  2  0
 30 31  1  0
 31 32  2  0
 32 33  1  0
 23 34  2  0
  8 35  1  0
 35 36  1  0
  4 37  1  0
 37 38  2  0
 38  1  1  0
 36  5  1  0
 34  9  1  0
 21 12  1  0
 33 24  1  0
 20 15  1  0
 32 27  1  0
  1 39  1  0
  2 40  1  0
  3 41  1  0
  6 42  1  0
  6 43  1  0
  7 44  1  0
  7 45  1  0
 13 46  1  0
 13 47  1  0
 14 48  1  0
 14 49  1  0
 16 50  1  0
 17 51  1  0
 18 52  1  0
 19 53  1  0
 21 54  1  0
 21 55  1  0
 25 56  1  0
 25 57  1  0
 26 58  1  0
 26 59  1  0
 28 60  1  0
 29 61  1  0
 30 62  1  0
 31 63  1  0
 33 64  1  0
 33 65  1  0
 35 66  1  0
 35 67  1  0
 36 68  1  0
 36 69  1  0
 38 70  1  0
M  END
>  <UniqueID>  (40) 
48

>  <SMILES>  (40) 
c1ccc(N2CCN(c3nc(N4CCc5ccccc5C4)nc(N4CCc5ccccc5C4)n3)CC2)nc1

>  <Energy>  (40) 
88.51642508162679

>  <Genealogy>  (40) 
c1ccc(N2CCN(c3nc(N4CCc5ccccc5C4)nc(N4CCc5ccccc5C4)n3)CC2)nc1 (3D coordinates assigned)
c1ccc(N2CCN(c3nc(N4CCc5ccccc5C4)nc(N4CCc5ccccc5C4)n3)CC2)nc1 (nonaromatic ring conformer: 88.51642508162679 kcal/mol)

>  <smiles>  (40) 
c1ccc(N2CCN(c3nc(N4CCc5ccccc5C4)nc(N4CCc5ccccc5C4)n3)CC2)nc1

>  <score_type>  (40) 
oracle

>  <origin>  (40) 
autodockgpu

>  <m_score__min__energy>  (40) 
-10.69

>  <m_primary>  (40) 
energy

>  <meeko>  (40) 
{"free_energy": -10.33, "intermolecular_energy": -11.52, "internal_energy": -1.02, "cluster_size": 20, "cluster_id": 1, "rank_in_cluster": 16}

>  <energy>  (40) 
-9.92

>  <cluster_rmsd>  (40) 
1.09

>  <rmsd>  (40) 
269.3

>  <cluster>  (40) 
1

$$$$
QWCMPUPUGDWNGO-UHFFFAOYNA-N
     RDKit          3D

 70 76  0  0  0  0  0  0  0  0999 V2000
  141.8160   81.8440  223.2470 C   0  0  0  0  0  0  0  0  0  0  0  0
  142.4530   80.7020  223.7360 C   0  0  0  0  0  0  0  0  0  0  0  0
  142.1290   79.4470  223.2190 C   0  0  0  0  0  0  0  0  0  0  0  0
  141.1700   79.3470  222.1960 C   0  0  0  0  0  0  0  0  0  0  0  0
  140.8010   78.0700  221.6360 N   0  0  0  0  0  0  0  0  0  0  0  0
  141.3230   77.6170  220.3410 C   0  0  0  0  0  0  0  0  0  0  0  0
  141.8230   76.1780  220.4710 C   0  0  0  0  0  0  0  0  0  0  0  0
  140.8380   75.3240  221.1540 N   0  0  0  0  0  0  0  0  0  0  0  0
  141.1060   73.9120  221.2820 C   0  0  0  0  0  0  0  0  0  0  0  0
  140.6300   73.2240  222.3540 N   0  0  0  0  0  0  0  0  0  0  0  0
  140.8540   71.8890  222.4790 C   0  0  0  0  0  0  0  0  0  0  0  0
  140.3480   71.1610  223.6190 N   0  0  0  0  0  0  0  0  0  0  0  0
  139.1090   70.3750  223.5100 C   0  0  0  0  0  0  0  0  0  0  0  0
  139.2250   69.0930  224.3230 C   0  0  0  0  0  0  0  0  0  0  0  0
  139.6090   69.4030  225.7410 C   0  0  0  0  0  0  0  0  0  0  0  0
  139.1990   68.5490  226.7790 C   0  0  0  0  0  0  0  0  0  0  0  0
  139.5870   68.8070  228.0960 C   0  0  0  0  0  0  0  0  0  0  0  0
  140.3990   69.9040  228.3850 C   0  0  0  0  0  0  0  0  0  0  0  0
  140.8270   70.7470  227.3570 C   0  0  0  0  0  0  0  0  0  0  0  0
  140.4370   70.5070  226.0310 C   0  0  0  0  0  0  0  0  0  0  0  0
  140.9310   71.4360  224.9450 C   0  0  0  0  0  0  0  0  0  0  0  0
  141.5620   71.2450  221.5150 N   0  0  0  0  0  0  0  0  0  0  0  0
  142.0530   71.9180  220.4420 C   0  0  0  0  0  0  0  0  0  0  0  0
  142.8130   71.2220  219.4310 N   0  0  0  0  0  0  0  0  0  0  0  0
  143.9160   71.8720  218.7150 C   0  0  0  0  0  0  0  0  0  0  0  0
  145.2230   71.1540  219.0500 C   0  0  0  0  0  0  0  0  0  0  0  0
  145.0850   69.6490  218.9700 C   0  0  0  0  0  0  0  0  0  0  0  0
  146.2450   68.8600  218.9130 C   0  0  0  0  0  0  0  0  0  0  0  0
  146.1540   67.4650  218.8980 C   0  0  0  0  0  0  0  0  0  0  0  0
  144.9040   66.8450  218.9440 C   0  0  0  0  0  0  0  0  0  0  0  0
  143.7410   67.6150  219.0170 C   0  0  0  0  0  0  0  0  0  0  0  0
  143.8180   69.0170  219.0500 C   0  0  0  0  0  0  0  0  0  0  0  0
  142.5400   69.8200  219.0950 C   0  0  0  0  0  0  0  0  0  0  0  0
  141.8210   73.2520  220.3340 N   0  0  0  0  0  0  0  0  0  0  0  0
  139.5690   75.9030  221.6270 C   0  0  0  0  0  0  0  0  0  0  0  0
  139.8240   77.2340  222.3510 C   0  0  0  0  0  0  0  0  0  0  0  0
  140.5500   80.4790  221.7550 N   0  0  0  0  0  0  0  0  0  0  0  0
  140.8530   81.7100  222.2470 C   0  0  0  0  0  0  0  0  0  0  0  0
  142.0704   82.8372  223.6455 H   0  0  0  0  0  0  0  0  0  0  0  0
  143.2103   80.7915  224.5288 H   0  0  0  0  0  0  0  0  0  0  0  0
  142.6201   78.5432  223.6088 H   0  0  0  0  0  0  0  0  0  0  0  0
  140.5232   77.6610  219.5871 H   0  0  0  0  0  0  0  0  0  0  0  0
  142.1536   78.2683  220.0312 H   0  0  0  0  0  0  0  0  0  0  0  0
  142.0112   75.7729  219.4658 H   0  0  0  0  0  0  0  0  0  0  0  0
  142.7461   76.1862  221.0692 H   0  0  0  0  0  0  0  0  0  0  0  0
  138.2662   70.9710  223.8901 H   0  0  0  0  0  0  0  0  0  0  0  0
  138.9406   70.1159  222.4543 H   0  0  0  0  0  0  0  0  0  0  0  0
  138.2568   68.5709  224.3159 H   0  0  0  0  0  0  0  0  0  0  0  0
  140.0021   68.4564  223.8748 H   0  0  0  0  0  0  0  0  0  0  0  0
  138.5706   67.6747  226.5538 H   0  0  0  0  0  0  0  0  0  0  0  0
  139.2515   68.1437  228.9069 H   0  0  0  0  0  0  0  0  0  0  0  0
  140.7023   70.1051  229.4230 H   0  0  0  0  0  0  0  0  0  0  0  0
  141.4746   71.6054  227.5888 H   0  0  0  0  0  0  0  0  0  0  0  0
  140.6770   72.4680  225.2288 H   0  0  0  0  0  0  0  0  0  0  0  0
  142.0163   71.2797  224.8576 H   0  0  0  0  0  0  0  0  0  0  0  0
  143.7338   71.8185  217.6315 H   0  0  0  0  0  0  0  0  0  0  0  0
  143.9845   72.9268  219.0196 H   0  0  0  0  0  0  0  0  0  0  0  0
  145.9972   71.4771  218.3385 H   0  0  0  0  0  0  0  0  0  0  0  0
  145.4958   71.4137  220.0835 H   0  0  0  0  0  0  0  0  0  0  0  0
  147.2327   69.3430  218.8799 H   0  0  0  0  0  0  0  0  0  0  0  0
  147.0683   66.8553  218.8499 H   0  0  0  0  0  0  0  0  0  0  0  0
  144.8349   65.7474  218.9227 H   0  0  0  0  0  0  0  0  0  0  0  0
  142.7590   67.1205  219.0488 H   0  0  0  0  0  0  0  0  0  0  0  0
  142.0513   69.7743  218.1106 H   0  0  0  0  0  0  0  0  0  0  0  0
  141.8851   69.3945  219.8697 H   0  0  0  0  0  0  0  0  0  0  0  0
  138.9081   76.0798  220.7657 H   0  0  0  0  0  0  0  0  0  0  0  0
  139.0960   75.2002  222.3287 H   0  0  0  0  0  0  0  0  0  0  0  0
  138.8746   77.7841  222.4284 H   0  0  0  0  0  0  0  0  0  0  0  0
  140.2337   77.0072  223.3463 H   0  0  0  0  0  0  0  0  0  0  0  0
  140.3385   82.6003  221.8562 H   0  0  0  0  0  0  0  0  0  0  0  0
  1  2  2  0
  2  3  1  0
  3  4  2  0
  4  5  1  0
  5  6  1  0
  6  7  1  0
  7  8  1  0
  8  9  1  0
  9 10  2  0
 10 11  1  0
 11 12  1  0
 12 13  1  0
 13 14  1  0
 14 15  1  0
 15 16  2  0
 16 17  1  0
 17 18  2  0
 18 19  1  0
 19 20  2  0
 20 21  1  0
 11 22  2  0
 22 23  1  0
 23 24  1  0
 24 25  1  0
 25 26  1  0
 26 27  1  0
 27 28  2  0
 28 29  1  0
 29 30  2  0
 30 31  1  0
 31 32  2  0
 32 33  1  0
 23 34  2  0
  8 35  1  0
 35 36  1  0
  4 37  1  0
 37 38  2  0
 38  1  1  0
 36  5  1  0
 34  9  1  0
 21 12  1  0
 33 24  1  0
 20 15  1  0
 32 27  1  0
  1 39  1  0
  2 40  1  0
  3 41  1  0
  6 42  1  0
  6 43  1  0
  7 44  1  0
  7 45  1  0
 13 46  1  0
 13 47  1  0
 14 48  1  0
 14 49  1  0
 16 50  1  0
 17 51  1  0
 18 52  1  0
 19 53  1  0
 21 54  1  0
 21 55  1  0
 25 56  1  0
 25 57  1  0
 26 58  1  0
 26 59  1  0
 28 60  1  0
 29 61  1  0
 30 62  1  0
 31 63  1  0
 33 64  1  0
 33 65  1  0
 35 66  1  0
 35 67  1  0
 36 68  1  0
 36 69  1  0
 38 70  1  0
M  END
>  <UniqueID>  (41) 
49

>  <SMILES>  (41) 
c1ccc(N2CCN(c3nc(N4CCc5ccccc5C4)nc(N4CCc5ccccc5C4)n3)CC2)nc1

>  <Energy>  (41) 
88.72495897090043

>  <Genealogy>  (41) 
c1ccc(N2CCN(c3nc(N4CCc5ccccc5C4)nc(N4CCc5ccccc5C4)n3)CC2)nc1 (3D coordinates assigned)
c1ccc(N2CCN(c3nc(N4CCc5ccccc5C4)nc(N4CCc5ccccc5C4)n3)CC2)nc1 (nonaromatic ring conformer: 88.72495897090043 kcal/mol)

>  <smiles>  (41) 
c1ccc(N2CCN(c3nc(N4CCc5ccccc5C4)nc(N4CCc5ccccc5C4)n3)CC2)nc1

>  <score_type>  (41) 
oracle

>  <origin>  (41) 
autodockgpu

>  <m_score__min__energy>  (41) 
-10.69

>  <m_primary>  (41) 
energy

>  <meeko>  (41) 
{"free_energy": -10.69, "intermolecular_energy": -11.88, "internal_energy": -1.05, "cluster_size": 20, "cluster_id": 1, "rank_in_cluster": 2}

>  <energy>  (41) 
-10.69

>  <cluster_rmsd>  (41) 
0.0

>  <rmsd>  (41) 
269.49

>  <cluster>  (41) 
1

$$$$
QWCMPUPUGDWNGO-UHFFFAOYNA-N
     RDKit          3D

 70 76  0  0  0  0  0  0  0  0999 V2000
  141.8610   81.7670  223.2820 C   0  0  0  0  0  0  0  0  0  0  0  0
  142.6190   80.6450  223.6230 C   0  0  0  0  0  0  0  0  0  0  0  0
  142.2950   79.3960  223.0920 C   0  0  0  0  0  0  0  0  0  0  0  0
  141.2110   79.2830  222.2040 C   0  0  0  0  0  0  0  0  0  0  0  0
  140.8370   78.0110  221.6350 N   0  0  0  0  0  0  0  0  0  0  0  0
  141.3650   77.5620  220.3400 C   0  0  0  0  0  0  0  0  0  0  0  0
  141.8550   76.1180  220.4660 C   0  0  0  0  0  0  0  0  0  0  0  0
  140.8600   75.2670  221.1390 N   0  0  0  0  0  0  0  0  0  0  0  0
  141.1180   73.8530  221.2620 C   0  0  0  0  0  0  0  0  0  0  0  0
  140.6430   73.1660  222.3330 N   0  0  0  0  0  0  0  0  0  0  0  0
  140.8570   71.8290  222.4540 C   0  0  0  0  0  0  0  0  0  0  0  0
  140.3510   71.1010  223.5940 N   0  0  0  0  0  0  0  0  0  0  0  0
  139.1070   70.3240  223.4890 C   0  0  0  0  0  0  0  0  0  0  0  0
  139.2180   69.0380  224.2980 C   0  0  0  0  0  0  0  0  0  0  0  0
  139.6100   69.3410  225.7150 C   0  0  0  0  0  0  0  0  0  0  0  0
  139.1990   68.4880  226.7520 C   0  0  0  0  0  0  0  0  0  0  0  0
  139.5950   68.7390  228.0680 C   0  0  0  0  0  0  0  0  0  0  0  0
  140.4160   69.8290  228.3560 C   0  0  0  0  0  0  0  0  0  0  0  0
  140.8460   70.6730  227.3290 C   0  0  0  0  0  0  0  0  0  0  0  0
  140.4470   70.4390  226.0030 C   0  0  0  0  0  0  0  0  0  0  0  0
  140.9430   71.3680  224.9180 C   0  0  0  0  0  0  0  0  0  0  0  0
  141.5560   71.1820  221.4850 N   0  0  0  0  0  0  0  0  0  0  0  0
  142.0460   71.8550  220.4110 C   0  0  0  0  0  0  0  0  0  0  0  0
  142.7970   71.1570  219.3940 N   0  0  0  0  0  0  0  0  0  0  0  0
  143.8740   71.8130  218.6460 C   0  0  0  0  0  0  0  0  0  0  0  0
  145.1990   71.1200  218.9640 C   0  0  0  0  0  0  0  0  0  0  0  0
  145.0830   69.6120  218.9080 C   0  0  0  0  0  0  0  0  0  0  0  0
  146.2540   68.8410  218.8380 C   0  0  0  0  0  0  0  0  0  0  0  0
  146.1850   67.4440  218.8440 C   0  0  0  0  0  0  0  0  0  0  0  0
  144.9460   66.8060  218.9250 C   0  0  0  0  0  0  0  0  0  0  0  0
  143.7720   67.5590  219.0120 C   0  0  0  0  0  0  0  0  0  0  0  0
  143.8280   68.9610  219.0230 C   0  0  0  0  0  0  0  0  0  0  0  0
  142.5390   69.7450  219.0830 C   0  0  0  0  0  0  0  0  0  0  0  0
  141.8230   73.1900  220.3080 N   0  0  0  0  0  0  0  0  0  0  0  0
  139.5910   75.8520  221.6070 C   0  0  0  0  0  0  0  0  0  0  0  0
  139.8510   77.1780  222.3390 C   0  0  0  0  0  0  0  0  0  0  0  0
  140.4780   80.3940  221.9070 N   0  0  0  0  0  0  0  0  0  0  0  0
  140.7800   81.6190  222.4140 C   0  0  0  0  0  0  0  0  0  0  0  0
  142.1136   82.7555  223.6931 H   0  0  0  0  0  0  0  0  0  0  0  0
  143.4718   80.7458  224.3104 H   0  0  0  0  0  0  0  0  0  0  0  0
  142.8827   78.5074  223.3658 H   0  0  0  0  0  0  0  0  0  0  0  0
  140.5706   77.6154  219.5810 H   0  0  0  0  0  0  0  0  0  0  0  0
  142.2016   78.2097  220.0389 H   0  0  0  0  0  0  0  0  0  0  0  0
  142.0466   75.7166  219.4599 H   0  0  0  0  0  0  0  0  0  0  0  0
  142.7745   76.1172  221.0698 H   0  0  0  0  0  0  0  0  0  0  0  0
  138.2702   70.9246  223.8750 H   0  0  0  0  0  0  0  0  0  0  0  0
  138.9319   70.0691  222.4334 H   0  0  0  0  0  0  0  0  0  0  0  0
  138.2463   68.5224  224.2935 H   0  0  0  0  0  0  0  0  0  0  0  0
  139.9890   68.3977  223.8446 H   0  0  0  0  0  0  0  0  0  0  0  0
  138.5630   67.6191  226.5273 H   0  0  0  0  0  0  0  0  0  0  0  0
  139.2587   68.0757  228.8785 H   0  0  0  0  0  0  0  0  0  0  0  0
  140.7255   70.0245  229.3933 H   0  0  0  0  0  0  0  0  0  0  0  0
  141.5010   71.5259  227.5604 H   0  0  0  0  0  0  0  0  0  0  0  0
  140.6981   72.4009  225.2062 H   0  0  0  0  0  0  0  0  0  0  0  0
  142.0268   71.2046  224.8249 H   0  0  0  0  0  0  0  0  0  0  0  0
  143.6702   71.7407  217.5675 H   0  0  0  0  0  0  0  0  0  0  0  0
  143.9322   72.8731  218.9337 H   0  0  0  0  0  0  0  0  0  0  0  0
  145.9533   71.4447  218.2321 H   0  0  0  0  0  0  0  0  0  0  0  0
  145.4888   71.3987  219.9879 H   0  0  0  0  0  0  0  0  0  0  0  0
  147.2329   69.3391  218.7780 H   0  0  0  0  0  0  0  0  0  0  0  0
  147.1075   66.8478  218.7848 H   0  0  0  0  0  0  0  0  0  0  0  0
  144.8936   65.7073  218.9203 H   0  0  0  0  0  0  0  0  0  0  0  0
  142.7988   67.0499  219.0722 H   0  0  0  0  0  0  0  0  0  0  0  0
  142.0312   69.6778  218.1095 H   0  0  0  0  0  0  0  0  0  0  0  0
  141.9068   69.3207  219.8769 H   0  0  0  0  0  0  0  0  0  0  0  0
  138.9366   76.0373  220.7425 H   0  0  0  0  0  0  0  0  0  0  0  0
  139.1085   75.1490  222.3020 H   0  0  0  0  0  0  0  0  0  0  0  0
  138.9048   77.7340  222.4136 H   0  0  0  0  0  0  0  0  0  0  0  0
  140.2538   76.9431  223.3353 H   0  0  0  0  0  0  0  0  0  0  0  0
  140.1715   82.4932  222.1393 H   0  0  0  0  0  0  0  0  0  0  0  0
  1  2  2  0
  2  3  1  0
  3  4  2  0
  4  5  1  0
  5  6  1  0
  6  7  1  0
  7  8  1  0
  8  9  1  0
  9 10  2  0
 10 11  1  0
 11 12  1  0
 12 13  1  0
 13 14  1  0
 14 15  1  0
 15 16  2  0
 16 17  1  0
 17 18  2  0
 18 19  1  0
 19 20  2  0
 20 21  1  0
 11 22  2  0
 22 23  1  0
 23 24  1  0
 24 25  1  0
 25 26  1  0
 26 27  1  0
 27 28  2  0
 28 29  1  0
 29 30  2  0
 30 31  1  0
 31 32  2  0
 32 33  1  0
 23 34  2  0
  8 35  1  0
 35 36  1  0
  4 37  1  0
 37 38  2  0
 38  1  1  0
 36  5  1  0
 34  9  1  0
 21 12  1  0
 33 24  1  0
 20 15  1  0
 32 27  1  0
  1 39  1  0
  2 40  1  0
  3 41  1  0
  6 42  1  0
  6 43  1  0
  7 44  1  0
  7 45  1  0
 13 46  1  0
 13 47  1  0
 14 48  1  0
 14 49  1  0
 16 50  1  0
 17 51  1  0
 18 52  1  0
 19 53  1  0
 21 54  1  0
 21 55  1  0
 25 56  1  0
 25 57  1  0
 26 58  1  0
 26 59  1  0
 28 60  1  0
 29 61  1  0
 30 62  1  0
 31 63  1  0
 33 64  1  0
 33 65  1  0
 35 66  1  0
 35 67  1  0
 36 68  1  0
 36 69  1  0
 38 70  1  0
M  END
>  <UniqueID>  (42) 
49

>  <SMILES>  (42) 
c1ccc(N2CCN(c3nc(N4CCc5ccccc5C4)nc(N4CCc5ccccc5C4)n3)CC2)nc1

>  <Energy>  (42) 
88.72495897090043

>  <Genealogy>  (42) 
c1ccc(N2CCN(c3nc(N4CCc5ccccc5C4)nc(N4CCc5ccccc5C4)n3)CC2)nc1 (3D coordinates assigned)
c1ccc(N2CCN(c3nc(N4CCc5ccccc5C4)nc(N4CCc5ccccc5C4)n3)CC2)nc1 (nonaromatic ring conformer: 88.72495897090043 kcal/mol)

>  <smiles>  (42) 
c1ccc(N2CCN(c3nc(N4CCc5ccccc5C4)nc(N4CCc5ccccc5C4)n3)CC2)nc1

>  <score_type>  (42) 
oracle

>  <origin>  (42) 
autodockgpu

>  <m_score__min__energy>  (42) 
-10.69

>  <m_primary>  (42) 
energy

>  <meeko>  (42) 
{"free_energy": -10.69, "intermolecular_energy": -11.88, "internal_energy": -1.04, "cluster_size": 20, "cluster_id": 1, "rank_in_cluster": 3}

>  <energy>  (42) 
-10.69

>  <cluster_rmsd>  (42) 
0.06

>  <rmsd>  (42) 
269.48

>  <cluster>  (42) 
1

$$$$
QWCMPUPUGDWNGO-UHFFFAOYNA-N
     RDKit          3D

 70 76  0  0  0  0  0  0  0  0999 V2000
  141.8560   81.8160  223.3200 C   0  0  0  0  0  0  0  0  0  0  0  0
  142.4610   80.6640  223.8250 C   0  0  0  0  0  0  0  0  0  0  0  0
  142.1410   79.4160  223.2900 C   0  0  0  0  0  0  0  0  0  0  0  0
  141.2160   79.3330  222.2340 C   0  0  0  0  0  0  0  0  0  0  0  0
  140.8520   78.0640  221.6540 N   0  0  0  0  0  0  0  0  0  0  0  0
  141.4030   77.6170  220.3680 C   0  0  0  0  0  0  0  0  0  0  0  0
  141.8880   76.1730  220.4990 C   0  0  0  0  0  0  0  0  0  0  0  0
  140.8800   75.3210  221.1500 N   0  0  0  0  0  0  0  0  0  0  0  0
  141.1330   73.9060  221.2730 C   0  0  0  0  0  0  0  0  0  0  0  0
  140.6560   73.2210  222.3450 N   0  0  0  0  0  0  0  0  0  0  0  0
  140.8660   71.8830  222.4660 C   0  0  0  0  0  0  0  0  0  0  0  0
  140.3580   71.1570  223.6060 N   0  0  0  0  0  0  0  0  0  0  0  0
  139.1450   70.3350  223.4850 C   0  0  0  0  0  0  0  0  0  0  0  0
  139.2800   69.0680  224.3190 C   0  0  0  0  0  0  0  0  0  0  0  0
  139.6270   69.4090  225.7390 C   0  0  0  0  0  0  0  0  0  0  0  0
  139.2210   68.5590  226.7810 C   0  0  0  0  0  0  0  0  0  0  0  0
  139.5750   68.8460  228.1020 C   0  0  0  0  0  0  0  0  0  0  0  0
  140.3500   69.9690  228.3900 C   0  0  0  0  0  0  0  0  0  0  0  0
  140.7750   70.8100  227.3590 C   0  0  0  0  0  0  0  0  0  0  0  0
  140.4180   70.5400  226.0280 C   0  0  0  0  0  0  0  0  0  0  0  0
  140.9070   71.4670  224.9390 C   0  0  0  0  0  0  0  0  0  0  0  0
  141.5630   71.2340  221.4970 N   0  0  0  0  0  0  0  0  0  0  0  0
  142.0550   71.9050  220.4230 C   0  0  0  0  0  0  0  0  0  0  0  0
  142.8030   71.2040  219.4060 N   0  0  0  0  0  0  0  0  0  0  0  0
  143.8760   71.8590  218.6510 C   0  0  0  0  0  0  0  0  0  0  0  0
  145.2040   71.1720  218.9660 C   0  0  0  0  0  0  0  0  0  0  0  0
  145.0910   69.6630  218.9170 C   0  0  0  0  0  0  0  0  0  0  0  0
  146.2640   68.8940  218.8460 C   0  0  0  0  0  0  0  0  0  0  0  0
  146.1980   67.4980  218.8590 C   0  0  0  0  0  0  0  0  0  0  0  0
  144.9610   66.8560  218.9480 C   0  0  0  0  0  0  0  0  0  0  0  0
  143.7860   67.6070  219.0360 C   0  0  0  0  0  0  0  0  0  0  0  0
  143.8390   69.0100  219.0410 C   0  0  0  0  0  0  0  0  0  0  0  0
  142.5480   69.7900  219.1020 C   0  0  0  0  0  0  0  0  0  0  0  0
  141.8370   73.2410  220.3200 N   0  0  0  0  0  0  0  0  0  0  0  0
  139.6030   75.9060  221.5960 C   0  0  0  0  0  0  0  0  0  0  0  0
  139.8510   77.2300  222.3370 C   0  0  0  0  0  0  0  0  0  0  0  0
  140.6260   80.4750  221.7780 N   0  0  0  0  0  0  0  0  0  0  0  0
  140.9270   81.7000  222.2860 C   0  0  0  0  0  0  0  0  0  0  0  0
  142.1089   82.8038  223.7326 H   0  0  0  0  0  0  0  0  0  0  0  0
  143.1903   80.7402  224.6450 H   0  0  0  0  0  0  0  0  0  0  0  0
  142.6083   78.5044  223.6908 H   0  0  0  0  0  0  0  0  0  0  0  0
  140.6228   77.6736  219.5947 H   0  0  0  0  0  0  0  0  0  0  0  0
  142.2461   78.2640  220.0842 H   0  0  0  0  0  0  0  0  0  0  0  0
  142.0983   75.7744  219.4955 H   0  0  0  0  0  0  0  0  0  0  0  0
  142.7955   76.1694  221.1206 H   0  0  0  0  0  0  0  0  0  0  0  0
  138.2785   70.9124  223.8397 H   0  0  0  0  0  0  0  0  0  0  0  0
  139.0055   70.0560  222.4302 H   0  0  0  0  0  0  0  0  0  0  0  0
  138.3269   68.5192  224.3009 H   0  0  0  0  0  0  0  0  0  0  0  0
  140.0829   68.4467  223.8955 H   0  0  0  0  0  0  0  0  0  0  0  0
  138.6221   67.6641  226.5563 H   0  0  0  0  0  0  0  0  0  0  0  0
  139.2419   68.1852  228.9158 H   0  0  0  0  0  0  0  0  0  0  0  0
  140.6271   70.1928  229.4307 H   0  0  0  0  0  0  0  0  0  0  0  0
  141.3934   71.6896  227.5912 H   0  0  0  0  0  0  0  0  0  0  0  0
  140.6187   72.4952  225.2028 H   0  0  0  0  0  0  0  0  0  0  0  0
  141.9978   71.3404  224.8748 H   0  0  0  0  0  0  0  0  0  0  0  0
  143.6681   71.7813  217.5736 H   0  0  0  0  0  0  0  0  0  0  0  0
  143.9327   72.9203  218.9346 H   0  0  0  0  0  0  0  0  0  0  0  0
  145.9541   71.4955  218.2293 H   0  0  0  0  0  0  0  0  0  0  0  0
  145.4984   71.4564  219.9870 H   0  0  0  0  0  0  0  0  0  0  0  0
  147.2416   69.3939  218.7797 H   0  0  0  0  0  0  0  0  0  0  0  0
  147.1219   66.9040  218.7990 H   0  0  0  0  0  0  0  0  0  0  0  0
  144.9116   65.7571  218.9488 H   0  0  0  0  0  0  0  0  0  0  0  0
  142.8140   67.0962  219.1017 H   0  0  0  0  0  0  0  0  0  0  0  0
  142.0371   69.7171  218.1306 H   0  0  0  0  0  0  0  0  0  0  0  0
  141.9197   69.3671  219.8997 H   0  0  0  0  0  0  0  0  0  0  0  0
  138.9650   76.0947  220.7200 H   0  0  0  0  0  0  0  0  0  0  0  0
  139.1068   75.2015  222.2797 H   0  0  0  0  0  0  0  0  0  0  0  0
  138.9044   77.7872  222.3952 H   0  0  0  0  0  0  0  0  0  0  0  0
  140.2344   76.9916  223.3401 H   0  0  0  0  0  0  0  0  0  0  0  0
  140.4382   82.5987  221.8818 H   0  0  0  0  0  0  0  0  0  0  0  0
  1  2  2  0
  2  3  1  0
  3  4  2  0
  4  5  1  0
  5  6  1  0
  6  7  1  0
  7  8  1  0
  8  9  1  0
  9 10  2  0
 10 11  1  0
 11 12  1  0
 12 13  1  0
 13 14  1  0
 14 15  1  0
 15 16  2  0
 16 17  1  0
 17 18  2  0
 18 19  1  0
 19 20  2  0
 20 21  1  0
 11 22  2  0
 22 23  1  0
 23 24  1  0
 24 25  1  0
 25 26  1  0
 26 27  1  0
 27 28  2  0
 28 29  1  0
 29 30  2  0
 30 31  1  0
 31 32  2  0
 32 33  1  0
 23 34  2  0
  8 35  1  0
 35 36  1  0
  4 37  1  0
 37 38  2  0
 38  1  1  0
 36  5  1  0
 34  9  1  0
 21 12  1  0
 33 24  1  0
 20 15  1  0
 32 27  1  0
  1 39  1  0
  2 40  1  0
  3 41  1  0
  6 42  1  0
  6 43  1  0
  7 44  1  0
  7 45  1  0
 13 46  1  0
 13 47  1  0
 14 48  1  0
 14 49  1  0
 16 50  1  0
 17 51  1  0
 18 52  1  0
 19 53  1  0
 21 54  1  0
 21 55  1  0
 25 56  1  0
 25 57  1  0
 26 58  1  0
 26 59  1  0
 28 60  1  0
 29 61  1  0
 30 62  1  0
 31 63  1  0
 33 64  1  0
 33 65  1  0
 35 66  1  0
 35 67  1  0
 36 68  1  0
 36 69  1  0
 38 70  1  0
M  END
>  <UniqueID>  (43) 
49

>  <SMILES>  (43) 
c1ccc(N2CCN(c3nc(N4CCc5ccccc5C4)nc(N4CCc5ccccc5C4)n3)CC2)nc1

>  <Energy>  (43) 
88.72495897090043

>  <Genealogy>  (43) 
c1ccc(N2CCN(c3nc(N4CCc5ccccc5C4)nc(N4CCc5ccccc5C4)n3)CC2)nc1 (3D coordinates assigned)
c1ccc(N2CCN(c3nc(N4CCc5ccccc5C4)nc(N4CCc5ccccc5C4)n3)CC2)nc1 (nonaromatic ring conformer: 88.72495897090043 kcal/mol)

>  <smiles>  (43) 
c1ccc(N2CCN(c3nc(N4CCc5ccccc5C4)nc(N4CCc5ccccc5C4)n3)CC2)nc1

>  <score_type>  (43) 
oracle

>  <origin>  (43) 
autodockgpu

>  <m_score__min__energy>  (43) 
-10.69

>  <m_primary>  (43) 
energy

>  <meeko>  (43) 
{"free_energy": -10.67, "intermolecular_energy": -11.87, "internal_energy": -1.05, "cluster_size": 20, "cluster_id": 1, "rank_in_cluster": 6}

>  <energy>  (43) 
-10.69

>  <cluster_rmsd>  (43) 
0.11

>  <rmsd>  (43) 
269.45

>  <cluster>  (43) 
1

$$$$
QWCMPUPUGDWNGO-UHFFFAOYNA-N
     RDKit          3D

 70 76  0  0  0  0  0  0  0  0999 V2000
  141.8900   81.7480  223.3340 C   0  0  0  0  0  0  0  0  0  0  0  0
  142.5360   80.5960  223.7860 C   0  0  0  0  0  0  0  0  0  0  0  0
  142.2010   79.3520  223.2490 C   0  0  0  0  0  0  0  0  0  0  0  0
  141.2210   79.2750  222.2430 C   0  0  0  0  0  0  0  0  0  0  0  0
  140.8400   78.0100  221.6630 N   0  0  0  0  0  0  0  0  0  0  0  0
  141.3720   77.5650  220.3690 C   0  0  0  0  0  0  0  0  0  0  0  0
  141.8490   76.1160  220.4880 C   0  0  0  0  0  0  0  0  0  0  0  0
  140.8420   75.2690  221.1490 N   0  0  0  0  0  0  0  0  0  0  0  0
  141.0870   73.8520  221.2640 C   0  0  0  0  0  0  0  0  0  0  0  0
  140.6250   73.1670  222.3430 N   0  0  0  0  0  0  0  0  0  0  0  0
  140.8270   71.8280  222.4560 C   0  0  0  0  0  0  0  0  0  0  0  0
  140.3340   71.1030  223.6040 N   0  0  0  0  0  0  0  0  0  0  0  0
  139.0740   70.3490  223.5240 C   0  0  0  0  0  0  0  0  0  0  0  0
  139.1800   69.0570  224.3230 C   0  0  0  0  0  0  0  0  0  0  0  0
  139.6110   69.3450  225.7320 C   0  0  0  0  0  0  0  0  0  0  0  0
  139.2090   68.4940  226.7740 C   0  0  0  0  0  0  0  0  0  0  0  0
  139.6400   68.7300  228.0820 C   0  0  0  0  0  0  0  0  0  0  0  0
  140.4870   69.8030  228.3570 C   0  0  0  0  0  0  0  0  0  0  0  0
  140.9080   70.6450  227.3240 C   0  0  0  0  0  0  0  0  0  0  0  0
  140.4740   70.4260  226.0070 C   0  0  0  0  0  0  0  0  0  0  0  0
  140.9610   71.3520  224.9150 C   0  0  0  0  0  0  0  0  0  0  0  0
  141.5000   71.1760  221.4730 N   0  0  0  0  0  0  0  0  0  0  0  0
  141.9770   71.8460  220.3920 C   0  0  0  0  0  0  0  0  0  0  0  0
  142.7010   71.1420  219.3590 N   0  0  0  0  0  0  0  0  0  0  0  0
  143.7100   71.8130  218.5330 C   0  0  0  0  0  0  0  0  0  0  0  0
  145.0770   71.1830  218.8020 C   0  0  0  0  0  0  0  0  0  0  0  0
  145.0190   69.6700  218.8020 C   0  0  0  0  0  0  0  0  0  0  0  0
  146.2150   68.9420  218.6940 C   0  0  0  0  0  0  0  0  0  0  0  0
  146.2020   67.5450  218.7500 C   0  0  0  0  0  0  0  0  0  0  0  0
  144.9950   66.8630  218.9180 C   0  0  0  0  0  0  0  0  0  0  0  0
  143.7990   67.5730  219.0430 C   0  0  0  0  0  0  0  0  0  0  0  0
  143.7990   68.9760  219.0050 C   0  0  0  0  0  0  0  0  0  0  0  0
  142.4840   69.7120  219.1090 C   0  0  0  0  0  0  0  0  0  0  0  0
  141.7670   73.1840  220.2960 N   0  0  0  0  0  0  0  0  0  0  0  0
  139.5760   75.8620  221.6130 C   0  0  0  0  0  0  0  0  0  0  0  0
  139.8420   77.1810  222.3560 C   0  0  0  0  0  0  0  0  0  0  0  0
  140.5940   80.4160  221.8380 N   0  0  0  0  0  0  0  0  0  0  0  0
  140.9080   81.6370  222.3500 C   0  0  0  0  0  0  0  0  0  0  0  0
  142.1526   82.7322  223.7493 H   0  0  0  0  0  0  0  0  0  0  0  0
  143.3089   80.6686  224.5653 H   0  0  0  0  0  0  0  0  0  0  0  0
  142.6991   78.4398  223.6094 H   0  0  0  0  0  0  0  0  0  0  0  0
  140.5828   77.6302  219.6055 H   0  0  0  0  0  0  0  0  0  0  0  0
  142.2161   78.2074  220.0777 H   0  0  0  0  0  0  0  0  0  0  0  0
  142.0436   75.7198  219.4804 H   0  0  0  0  0  0  0  0  0  0  0  0
  142.7647   76.1030  221.0974 H   0  0  0  0  0  0  0  0  0  0  0  0
  138.2574   70.9624  223.9325 H   0  0  0  0  0  0  0  0  0  0  0  0
  138.8702   70.1032  222.4714 H   0  0  0  0  0  0  0  0  0  0  0  0
  138.1991   68.5595  224.3389 H   0  0  0  0  0  0  0  0  0  0  0  0
  139.9278   68.4049  223.8481 H   0  0  0  0  0  0  0  0  0  0  0  0
  138.5521   67.6381  226.5597 H   0  0  0  0  0  0  0  0  0  0  0  0
  139.3105   68.0680  228.8964 H   0  0  0  0  0  0  0  0  0  0  0  0
  140.8241   69.9869  229.3878 H   0  0  0  0  0  0  0  0  0  0  0  0
  141.5837   71.4846  227.5443 H   0  0  0  0  0  0  0  0  0  0  0  0
  140.7413   72.3875  225.2140 H   0  0  0  0  0  0  0  0  0  0  0  0
  142.0392   71.1696  224.7957 H   0  0  0  0  0  0  0  0  0  0  0  0
  143.4531   71.6955  217.4699 H   0  0  0  0  0  0  0  0  0  0  0  0
  143.7402   72.8840  218.7823 H   0  0  0  0  0  0  0  0  0  0  0  0
  145.7782   71.5107  218.0203 H   0  0  0  0  0  0  0  0  0  0  0  0
  145.4087   71.5084  219.7991 H   0  0  0  0  0  0  0  0  0  0  0  0
  147.1687   69.4745  218.5644 H   0  0  0  0  0  0  0  0  0  0  0  0
  147.1433   66.9827  218.6617 H   0  0  0  0  0  0  0  0  0  0  0  0
  144.9863   65.7636  218.9520 H   0  0  0  0  0  0  0  0  0  0  0  0
  142.8514   67.0295  219.1720 H   0  0  0  0  0  0  0  0  0  0  0  0
  141.9287   69.5915  218.1671 H   0  0  0  0  0  0  0  0  0  0  0  0
  141.9121   69.2917  219.9494 H   0  0  0  0  0  0  0  0  0  0  0  0
  138.9288   76.0589  220.7457 H   0  0  0  0  0  0  0  0  0  0  0  0
  139.0836   75.1585  222.3005 H   0  0  0  0  0  0  0  0  0  0  0  0
  138.9001   77.7445  222.4282 H   0  0  0  0  0  0  0  0  0  0  0  0
  140.2357   76.9366  223.3536 H   0  0  0  0  0  0  0  0  0  0  0  0
  140.3876   82.5360  221.9880 H   0  0  0  0  0  0  0  0  0  0  0  0
  1  2  2  0
  2  3  1  0
  3  4  2  0
  4  5  1  0
  5  6  1  0
  6  7  1  0
  7  8  1  0
  8  9  1  0
  9 10  2  0
 10 11  1  0
 11 12  1  0
 12 13  1  0
 13 14  1  0
 14 15  1  0
 15 16  2  0
 16 17  1  0
 17 18  2  0
 18 19  1  0
 19 20  2  0
 20 21  1  0
 11 22  2  0
 22 23  1  0
 23 24  1  0
 24 25  1  0
 25 26  1  0
 26 27  1  0
 27 28  2  0
 28 29  1  0
 29 30  2  0
 30 31  1  0
 31 32  2  0
 32 33  1  0
 23 34  2  0
  8 35  1  0
 35 36  1  0
  4 37  1  0
 37 38  2  0
 38  1  1  0
 36  5  1  0
 34  9  1  0
 21 12  1  0
 33 24  1  0
 20 15  1  0
 32 27  1  0
  1 39  1  0
  2 40  1  0
  3 41  1  0
  6 42  1  0
  6 43  1  0
  7 44  1  0
  7 45  1  0
 13 46  1  0
 13 47  1  0
 14 48  1  0
 14 49  1  0
 16 50  1  0
 17 51  1  0
 18 52  1  0
 19 53  1  0
 21 54  1  0
 21 55  1  0
 25 56  1  0
 25 57  1  0
 26 58  1  0
 26 59  1  0
 28 60  1  0
 29 61  1  0
 30 62  1  0
 31 63  1  0
 33 64  1  0
 33 65  1  0
 35 66  1  0
 35 67  1  0
 36 68  1  0
 36 69  1  0
 38 70  1  0
M  END
>  <UniqueID>  (44) 
49

>  <SMILES>  (44) 
c1ccc(N2CCN(c3nc(N4CCc5ccccc5C4)nc(N4CCc5ccccc5C4)n3)CC2)nc1

>  <Energy>  (44) 
88.72495897090043

>  <Genealogy>  (44) 
c1ccc(N2CCN(c3nc(N4CCc5ccccc5C4)nc(N4CCc5ccccc5C4)n3)CC2)nc1 (3D coordinates assigned)
c1ccc(N2CCN(c3nc(N4CCc5ccccc5C4)nc(N4CCc5ccccc5C4)n3)CC2)nc1 (nonaromatic ring conformer: 88.72495897090043 kcal/mol)

>  <smiles>  (44) 
c1ccc(N2CCN(c3nc(N4CCc5ccccc5C4)nc(N4CCc5ccccc5C4)n3)CC2)nc1

>  <score_type>  (44) 
oracle

>  <origin>  (44) 
autodockgpu

>  <m_score__min__energy>  (44) 
-10.69

>  <m_primary>  (44) 
energy

>  <meeko>  (44) 
{"free_energy": -10.66, "intermolecular_energy": -11.86, "internal_energy": -1.04, "cluster_size": 20, "cluster_id": 1, "rank_in_cluster": 8}

>  <energy>  (44) 
-10.68

>  <cluster_rmsd>  (44) 
0.07

>  <rmsd>  (44) 
269.47

>  <cluster>  (44) 
1

$$$$
QWCMPUPUGDWNGO-UHFFFAOYNA-N
     RDKit          3D

 70 76  0  0  0  0  0  0  0  0999 V2000
  141.8280   82.0130  223.1150 C   0  0  0  0  0  0  0  0  0  0  0  0
  142.4370   80.8750  223.6480 C   0  0  0  0  0  0  0  0  0  0  0  0
  142.0990   79.6110  223.1630 C   0  0  0  0  0  0  0  0  0  0  0  0
  141.1540   79.4980  222.1290 C   0  0  0  0  0  0  0  0  0  0  0  0
  140.7710   78.2110  221.6010 N   0  0  0  0  0  0  0  0  0  0  0  0
  141.3540   77.6820  220.3610 C   0  0  0  0  0  0  0  0  0  0  0  0
  141.7890   76.2330  220.5830 C   0  0  0  0  0  0  0  0  0  0  0  0
  140.7320   75.4460  221.2390 N   0  0  0  0  0  0  0  0  0  0  0  0
  140.9360   74.0330  221.4430 C   0  0  0  0  0  0  0  0  0  0  0  0
  141.8510   73.3630  220.6940 N   0  0  0  0  0  0  0  0  0  0  0  0
  142.0730   72.0360  220.8880 C   0  0  0  0  0  0  0  0  0  0  0  0
  143.0460   71.3270  220.0910 N   0  0  0  0  0  0  0  0  0  0  0  0
  144.0610   72.0660  219.3230 C   0  0  0  0  0  0  0  0  0  0  0  0
  145.3880   71.3180  219.3470 C   0  0  0  0  0  0  0  0  0  0  0  0
  145.2020   69.9040  218.8790 C   0  0  0  0  0  0  0  0  0  0  0  0
  146.2600   69.2340  218.2440 C   0  0  0  0  0  0  0  0  0  0  0  0
  146.1110   67.9030  217.8420 C   0  0  0  0  0  0  0  0  0  0  0  0
  144.9140   67.2290  218.0860 C   0  0  0  0  0  0  0  0  0  0  0  0
  143.8630   67.8820  218.7340 C   0  0  0  0  0  0  0  0  0  0  0  0
  143.9950   69.2210  219.1340 C   0  0  0  0  0  0  0  0  0  0  0  0
  142.8380   69.8890  219.8420 C   0  0  0  0  0  0  0  0  0  0  0  0
  141.3660   71.3820  221.8460 N   0  0  0  0  0  0  0  0  0  0  0  0
  140.4410   72.0330  222.5980 C   0  0  0  0  0  0  0  0  0  0  0  0
  139.6890   71.3220  223.6040 N   0  0  0  0  0  0  0  0  0  0  0  0
  138.6520   70.3490  223.2460 C   0  0  0  0  0  0  0  0  0  0  0  0
  139.0760   68.9630  223.7320 C   0  0  0  0  0  0  0  0  0  0  0  0
  139.5940   68.9900  225.1540 C   0  0  0  0  0  0  0  0  0  0  0  0
  139.7030   67.7820  225.8620 C   0  0  0  0  0  0  0  0  0  0  0  0
  140.2330   67.7650  227.1560 C   0  0  0  0  0  0  0  0  0  0  0  0
  140.6620   68.9520  227.7520 C   0  0  0  0  0  0  0  0  0  0  0  0
  140.5750   70.1590  227.0550 C   0  0  0  0  0  0  0  0  0  0  0  0
  140.0610   70.1890  225.7490 C   0  0  0  0  0  0  0  0  0  0  0  0
  139.9490   71.5160  225.0370 C   0  0  0  0  0  0  0  0  0  0  0  0
  140.2320   73.3580  222.3890 N   0  0  0  0  0  0  0  0  0  0  0  0
  139.4590   76.0910  221.6060 C   0  0  0  0  0  0  0  0  0  0  0  0
  139.7210   77.4430  222.2870 C   0  0  0  0  0  0  0  0  0  0  0  0
  140.5610   80.6270  221.6440 N   0  0  0  0  0  0  0  0  0  0  0  0
  140.8790   81.8660  222.1040 C   0  0  0  0  0  0  0  0  0  0  0  0
  142.0937   83.0131  223.4881 H   0  0  0  0  0  0  0  0  0  0  0  0
  143.1831   80.9750  224.4501 H   0  0  0  0  0  0  0  0  0  0  0  0
  142.5682   78.7107  223.5864 H   0  0  0  0  0  0  0  0  0  0  0  0
  140.6044   77.7212  219.5569 H   0  0  0  0  0  0  0  0  0  0  0  0
  142.2266   78.2885  220.0769 H   0  0  0  0  0  0  0  0  0  0  0  0
  142.0221   75.7768  219.6096 H   0  0  0  0  0  0  0  0  0  0  0  0
  142.6735   76.2349  221.2369 H   0  0  0  0  0  0  0  0  0  0  0  0
  143.7226   72.1720  218.2817 H   0  0  0  0  0  0  0  0  0  0  0  0
  144.2008   73.0587  219.7758 H   0  0  0  0  0  0  0  0  0  0  0  0
  146.1030   71.8277  218.6845 H   0  0  0  0  0  0  0  0  0  0  0  0
  145.7705   71.3044  220.3783 H   0  0  0  0  0  0  0  0  0  0  0  0
  147.2098   69.7582  218.0621 H   0  0  0  0  0  0  0  0  0  0  0  0
  146.9383   67.3869  217.3329 H   0  0  0  0  0  0  0  0  0  0  0  0
  144.7979   66.1825  217.7678 H   0  0  0  0  0  0  0  0  0  0  0  0
  142.9249   67.3430  218.9323 H   0  0  0  0  0  0  0  0  0  0  0  0
  141.9368   69.7707  219.2225 H   0  0  0  0  0  0  0  0  0  0  0  0
  142.7389   69.4038  220.8242 H   0  0  0  0  0  0  0  0  0  0  0  0
  137.7017   70.6315  223.7227 H   0  0  0  0  0  0  0  0  0  0  0  0
  138.5196   70.3339  222.1541 H   0  0  0  0  0  0  0  0  0  0  0  0
  138.2075   68.2896  223.6840 H   0  0  0  0  0  0  0  0  0  0  0  0
  139.8910   68.6117  223.0821 H   0  0  0  0  0  0  0  0  0  0  0  0
  139.3694   66.8432  225.3957 H   0  0  0  0  0  0  0  0  0  0  0  0
  140.3119   66.8150  227.7049 H   0  0  0  0  0  0  0  0  0  0  0  0
  141.0697   68.9367  228.7735 H   0  0  0  0  0  0  0  0  0  0  0  0
  140.9111   71.0915  227.5320 H   0  0  0  0  0  0  0  0  0  0  0  0
  139.1227   72.0927  225.4781 H   0  0  0  0  0  0  0  0  0  0  0  0
  140.8996   72.0575  225.1515 H   0  0  0  0  0  0  0  0  0  0  0  0
  138.8595   76.2526  220.6980 H   0  0  0  0  0  0  0  0  0  0  0  0
  138.9166   75.4380  222.3056 H   0  0  0  0  0  0  0  0  0  0  0  0
  138.7906   78.0298  222.2812 H   0  0  0  0  0  0  0  0  0  0  0  0
  140.0606   77.2458  223.3145 H   0  0  0  0  0  0  0  0  0  0  0  0
  140.3874   82.7532  221.6784 H   0  0  0  0  0  0  0  0  0  0  0  0
  1  2  2  0
  2  3  1  0
  3  4  2  0
  4  5  1  0
  5  6  1  0
  6  7  1  0
  7  8  1  0
  8  9  1  0
  9 10  2  0
 10 11  1  0
 11 12  1  0
 12 13  1  0
 13 14  1  0
 14 15  1  0
 15 16  2  0
 16 17  1  0
 17 18  2  0
 18 19  1  0
 19 20  2  0
 20 21  1  0
 11 22  2  0
 22 23  1  0
 23 24  1  0
 24 25  1  0
 25 26  1  0
 26 27  1  0
 27 28  2  0
 28 29  1  0
 29 30  2  0
 30 31  1  0
 31 32  2  0
 32 33  1  0
 23 34  2  0
  8 35  1  0
 35 36  1  0
  4 37  1  0
 37 38  2  0
 38  1  1  0
 36  5  1  0
 34  9  1  0
 21 12  1  0
 33 24  1  0
 20 15  1  0
 32 27  1  0
  1 39  1  0
  2 40  1  0
  3 41  1  0
  6 42  1  0
  6 43  1  0
  7 44  1  0
  7 45  1  0
 13 46  1  0
 13 47  1  0
 14 48  1  0
 14 49  1  0
 16 50  1  0
 17 51  1  0
 18 52  1  0
 19 53  1  0
 21 54  1  0
 21 55  1  0
 25 56  1  0
 25 57  1  0
 26 58  1  0
 26 59  1  0
 28 60  1  0
 29 61  1  0
 30 62  1  0
 31 63  1  0
 33 64  1  0
 33 65  1  0
 35 66  1  0
 35 67  1  0
 36 68  1  0
 36 69  1  0
 38 70  1  0
M  END
>  <UniqueID>  (45) 
49

>  <SMILES>  (45) 
c1ccc(N2CCN(c3nc(N4CCc5ccccc5C4)nc(N4CCc5ccccc5C4)n3)CC2)nc1

>  <Energy>  (45) 
88.72495897090043

>  <Genealogy>  (45) 
c1ccc(N2CCN(c3nc(N4CCc5ccccc5C4)nc(N4CCc5ccccc5C4)n3)CC2)nc1 (3D coordinates assigned)
c1ccc(N2CCN(c3nc(N4CCc5ccccc5C4)nc(N4CCc5ccccc5C4)n3)CC2)nc1 (nonaromatic ring conformer: 88.72495897090043 kcal/mol)

>  <smiles>  (45) 
c1ccc(N2CCN(c3nc(N4CCc5ccccc5C4)nc(N4CCc5ccccc5C4)n3)CC2)nc1

>  <score_type>  (45) 
oracle

>  <origin>  (45) 
autodockgpu

>  <m_score__min__energy>  (45) 
-10.69

>  <m_primary>  (45) 
energy

>  <meeko>  (45) 
{"free_energy": -10.41, "intermolecular_energy": -11.6, "internal_energy": -1.06, "cluster_size": 20, "cluster_id": 1, "rank_in_cluster": 15}

>  <energy>  (45) 
-10.68

>  <cluster_rmsd>  (45) 
0.07

>  <rmsd>  (45) 
269.47

>  <cluster>  (45) 
1

$$$$
QWCMPUPUGDWNGO-UHFFFAOYNA-N
     RDKit          3D

 70 76  0  0  0  0  0  0  0  0999 V2000
  141.8310   81.8020  223.3070 C   0  0  0  0  0  0  0  0  0  0  0  0
  142.4820   80.6580  223.7730 C   0  0  0  0  0  0  0  0  0  0  0  0
  142.1650   79.4090  223.2370 C   0  0  0  0  0  0  0  0  0  0  0  0
  141.1980   79.3180  222.2200 C   0  0  0  0  0  0  0  0  0  0  0  0
  140.8360   78.0470  221.6420 N   0  0  0  0  0  0  0  0  0  0  0  0
  141.3910   77.5990  220.3580 C   0  0  0  0  0  0  0  0  0  0  0  0
  141.8760   76.1540  220.4930 C   0  0  0  0  0  0  0  0  0  0  0  0
  140.8670   75.3030  221.1430 N   0  0  0  0  0  0  0  0  0  0  0  0
  141.1210   73.8890  221.2690 C   0  0  0  0  0  0  0  0  0  0  0  0
  140.6440   73.2060  222.3430 N   0  0  0  0  0  0  0  0  0  0  0  0
  140.8550   71.8690  222.4670 C   0  0  0  0  0  0  0  0  0  0  0  0
  140.3470   71.1450  223.6090 N   0  0  0  0  0  0  0  0  0  0  0  0
  139.1100   70.3560  223.5000 C   0  0  0  0  0  0  0  0  0  0  0  0
  139.2270   69.0780  224.3210 C   0  0  0  0  0  0  0  0  0  0  0  0
  139.6060   69.3960  225.7380 C   0  0  0  0  0  0  0  0  0  0  0  0
  139.1950   68.5470  226.7790 C   0  0  0  0  0  0  0  0  0  0  0  0
  139.5790   68.8120  228.0960 C   0  0  0  0  0  0  0  0  0  0  0  0
  140.3880   69.9120  228.3820 C   0  0  0  0  0  0  0  0  0  0  0  0
  140.8170   70.7510  227.3500 C   0  0  0  0  0  0  0  0  0  0  0  0
  140.4310   70.5030  226.0240 C   0  0  0  0  0  0  0  0  0  0  0  0
  140.9260   71.4280  224.9350 C   0  0  0  0  0  0  0  0  0  0  0  0
  141.5510   71.2180  221.4990 N   0  0  0  0  0  0  0  0  0  0  0  0
  142.0430   71.8860  220.4240 C   0  0  0  0  0  0  0  0  0  0  0  0
  142.7920   71.1830  219.4090 N   0  0  0  0  0  0  0  0  0  0  0  0
  143.8690   71.8350  218.6570 C   0  0  0  0  0  0  0  0  0  0  0  0
  145.1930   71.1410  218.9760 C   0  0  0  0  0  0  0  0  0  0  0  0
  145.0750   69.6330  218.9250 C   0  0  0  0  0  0  0  0  0  0  0  0
  146.2450   68.8600  218.8570 C   0  0  0  0  0  0  0  0  0  0  0  0
  146.1730   67.4640  218.8680 C   0  0  0  0  0  0  0  0  0  0  0  0
  144.9330   66.8270  218.9530 C   0  0  0  0  0  0  0  0  0  0  0  0
  143.7610   67.5820  219.0380 C   0  0  0  0  0  0  0  0  0  0  0  0
  143.8190   68.9850  219.0440 C   0  0  0  0  0  0  0  0  0  0  0  0
  142.5310   69.7710  219.1030 C   0  0  0  0  0  0  0  0  0  0  0  0
  141.8240   73.2220  220.3180 N   0  0  0  0  0  0  0  0  0  0  0  0
  139.5890   75.8890  221.5850 C   0  0  0  0  0  0  0  0  0  0  0  0
  139.8340   77.2140  222.3240 C   0  0  0  0  0  0  0  0  0  0  0  0
  140.5650   80.4520  221.8030 N   0  0  0  0  0  0  0  0  0  0  0  0
  140.8630   81.6770  222.3120 C   0  0  0  0  0  0  0  0  0  0  0  0
  142.0793   82.7906  223.7205 H   0  0  0  0  0  0  0  0  0  0  0  0
  143.2441   80.7411  224.5619 H   0  0  0  0  0  0  0  0  0  0  0  0
  142.6674   78.5031  223.6070 H   0  0  0  0  0  0  0  0  0  0  0  0
  140.6132   77.6545  219.5821 H   0  0  0  0  0  0  0  0  0  0  0  0
  142.2347   78.2459  220.0756 H   0  0  0  0  0  0  0  0  0  0  0  0
  142.0887   75.7536  219.4908 H   0  0  0  0  0  0  0  0  0  0  0  0
  142.7819   76.1518  221.1170 H   0  0  0  0  0  0  0  0  0  0  0  0
  138.2647   70.9521  223.8742 H   0  0  0  0  0  0  0  0  0  0  0  0
  138.9450   70.0911  222.4452 H   0  0  0  0  0  0  0  0  0  0  0  0
  138.2601   68.5535  224.3140 H   0  0  0  0  0  0  0  0  0  0  0  0
  140.0073   68.4413  223.8785 H   0  0  0  0  0  0  0  0  0  0  0  0
  138.5687   67.6705  226.5565 H   0  0  0  0  0  0  0  0  0  0  0  0
  139.2427   68.1519  228.9091 H   0  0  0  0  0  0  0  0  0  0  0  0
  140.6882   70.1189  229.4198 H   0  0  0  0  0  0  0  0  0  0  0  0
  141.4620   71.6121  227.5789 H   0  0  0  0  0  0  0  0  0  0  0  0
  140.6689   72.4608  225.2130 H   0  0  0  0  0  0  0  0  0  0  0  0
  142.0119   71.2741  224.8513 H   0  0  0  0  0  0  0  0  0  0  0  0
  143.6637   71.7591  217.5790 H   0  0  0  0  0  0  0  0  0  0  0  0
  143.9291   72.8961  218.9405 H   0  0  0  0  0  0  0  0  0  0  0  0
  145.9471   71.4623  218.2424 H   0  0  0  0  0  0  0  0  0  0  0  0
  145.4839   71.4225  219.9988 H   0  0  0  0  0  0  0  0  0  0  0  0
  147.2248   69.3561  218.7946 H   0  0  0  0  0  0  0  0  0  0  0  0
  147.0945   66.8662  218.8096 H   0  0  0  0  0  0  0  0  0  0  0  0
  144.8793   65.7283  218.9530 H   0  0  0  0  0  0  0  0  0  0  0  0
  142.7870   67.0747  219.1006 H   0  0  0  0  0  0  0  0  0  0  0  0
  142.0219   69.7015  218.1304 H   0  0  0  0  0  0  0  0  0  0  0  0
  141.8988   69.3502  219.8988 H   0  0  0  0  0  0  0  0  0  0  0  0
  138.9532   76.0759  220.7071 H   0  0  0  0  0  0  0  0  0  0  0  0
  139.0918   75.1857  222.2692 H   0  0  0  0  0  0  0  0  0  0  0  0
  138.8869   77.7707  222.3787 H   0  0  0  0  0  0  0  0  0  0  0  0
  140.2148   76.9779  223.3286 H   0  0  0  0  0  0  0  0  0  0  0  0
  140.3400   82.5697  221.9384 H   0  0  0  0  0  0  0  0  0  0  0  0
  1  2  2  0
  2  3  1  0
  3  4  2  0
  4  5  1  0
  5  6  1  0
  6  7  1  0
  7  8  1  0
  8  9  1  0
  9 10  2  0
 10 11  1  0
 11 12  1  0
 12 13  1  0
 13 14  1  0
 14 15  1  0
 15 16  2  0
 16 17  1  0
 17 18  2  0
 18 19  1  0
 19 20  2  0
 20 21  1  0
 11 22  2  0
 22 23  1  0
 23 24  1  0
 24 25  1  0
 25 26  1  0
 26 27  1  0
 27 28  2  0
 28 29  1  0
 29 30  2  0
 30 31  1  0
 31 32  2  0
 32 33  1  0
 23 34  2  0
  8 35  1  0
 35 36  1  0
  4 37  1  0
 37 38  2  0
 38  1  1  0
 36  5  1  0
 34  9  1  0
 21 12  1  0
 33 24  1  0
 20 15  1  0
 32 27  1  0
  1 39  1  0
  2 40  1  0
  3 41  1  0
  6 42  1  0
  6 43  1  0
  7 44  1  0
  7 45  1  0
 13 46  1  0
 13 47  1  0
 14 48  1  0
 14 49  1  0
 16 50  1  0
 17 51  1  0
 18 52  1  0
 19 53  1  0
 21 54  1  0
 21 55  1  0
 25 56  1  0
 25 57  1  0
 26 58  1  0
 26 59  1  0
 28 60  1  0
 29 61  1  0
 30 62  1  0
 31 63  1  0
 33 64  1  0
 33 65  1  0
 35 66  1  0
 35 67  1  0
 36 68  1  0
 36 69  1  0
 38 70  1  0
M  END
>  <UniqueID>  (46) 
49

>  <SMILES>  (46) 
c1ccc(N2CCN(c3nc(N4CCc5ccccc5C4)nc(N4CCc5ccccc5C4)n3)CC2)nc1

>  <Energy>  (46) 
88.72495897090043

>  <Genealogy>  (46) 
c1ccc(N2CCN(c3nc(N4CCc5ccccc5C4)nc(N4CCc5ccccc5C4)n3)CC2)nc1 (3D coordinates assigned)
c1ccc(N2CCN(c3nc(N4CCc5ccccc5C4)nc(N4CCc5ccccc5C4)n3)CC2)nc1 (nonaromatic ring conformer: 88.72495897090043 kcal/mol)

>  <smiles>  (46) 
c1ccc(N2CCN(c3nc(N4CCc5ccccc5C4)nc(N4CCc5ccccc5C4)n3)CC2)nc1

>  <score_type>  (46) 
oracle

>  <origin>  (46) 
autodockgpu

>  <m_score__min__energy>  (46) 
-10.69

>  <m_primary>  (46) 
energy

>  <meeko>  (46) 
{"free_energy": -10.68, "intermolecular_energy": -11.88, "internal_energy": -1.05, "cluster_size": 20, "cluster_id": 1, "rank_in_cluster": 4}

>  <energy>  (46) 
-10.67

>  <cluster_rmsd>  (46) 
0.06

>  <rmsd>  (46) 
269.49

>  <cluster>  (46) 
1

$$$$
QWCMPUPUGDWNGO-UHFFFAOYNA-N
     RDKit          3D

 70 76  0  0  0  0  0  0  0  0999 V2000
  141.8210   81.9420  223.1330 C   0  0  0  0  0  0  0  0  0  0  0  0
  142.4500   80.8040  223.6420 C   0  0  0  0  0  0  0  0  0  0  0  0
  142.1130   79.5430  223.1490 C   0  0  0  0  0  0  0  0  0  0  0  0
  141.1490   79.4320  222.1320 C   0  0  0  0  0  0  0  0  0  0  0  0
  140.7670   78.1480  221.5970 N   0  0  0  0  0  0  0  0  0  0  0  0
  141.2390   77.6900  220.2840 C   0  0  0  0  0  0  0  0  0  0  0  0
  141.7540   76.2540  220.4040 C   0  0  0  0  0  0  0  0  0  0  0  0
  140.8050   75.3990  221.1340 N   0  0  0  0  0  0  0  0  0  0  0  0
  141.0880   73.9900  221.2610 C   0  0  0  0  0  0  0  0  0  0  0  0
  140.6110   73.2940  222.3260 N   0  0  0  0  0  0  0  0  0  0  0  0
  140.8490   71.9620  222.4510 C   0  0  0  0  0  0  0  0  0  0  0  0
  140.3410   71.2250  223.5840 N   0  0  0  0  0  0  0  0  0  0  0  0
  139.0990   70.4450  223.4690 C   0  0  0  0  0  0  0  0  0  0  0  0
  139.2110   69.1540  224.2700 C   0  0  0  0  0  0  0  0  0  0  0  0
  139.5970   69.4490  225.6900 C   0  0  0  0  0  0  0  0  0  0  0  0
  139.1840   68.5880  226.7200 C   0  0  0  0  0  0  0  0  0  0  0  0
  139.5730   68.8310  228.0400 C   0  0  0  0  0  0  0  0  0  0  0  0
  140.3900   69.9220  228.3380 C   0  0  0  0  0  0  0  0  0  0  0  0
  140.8220   70.7730  227.3180 C   0  0  0  0  0  0  0  0  0  0  0  0
  140.4290   70.5470  225.9890 C   0  0  0  0  0  0  0  0  0  0  0  0
  140.9260   71.4850  224.9120 C   0  0  0  0  0  0  0  0  0  0  0  0
  141.5740   71.3280  221.4930 N   0  0  0  0  0  0  0  0  0  0  0  0
  142.0670   72.0100  220.4260 C   0  0  0  0  0  0  0  0  0  0  0  0
  142.8450   71.3260  219.4200 N   0  0  0  0  0  0  0  0  0  0  0  0
  143.9660   71.9800  218.7370 C   0  0  0  0  0  0  0  0  0  0  0  0
  145.2620   71.2500  219.0890 C   0  0  0  0  0  0  0  0  0  0  0  0
  145.1180   69.7470  218.9830 C   0  0  0  0  0  0  0  0  0  0  0  0
  146.2760   68.9530  218.9380 C   0  0  0  0  0  0  0  0  0  0  0  0
  146.1780   67.5590  218.9000 C   0  0  0  0  0  0  0  0  0  0  0  0
  144.9240   66.9450  218.9100 C   0  0  0  0  0  0  0  0  0  0  0  0
  143.7630   67.7200  218.9710 C   0  0  0  0  0  0  0  0  0  0  0  0
  143.8470   69.1200  219.0270 C   0  0  0  0  0  0  0  0  0  0  0  0
  142.5720   69.9290  219.0560 C   0  0  0  0  0  0  0  0  0  0  0  0
  141.8200   73.3410  220.3190 N   0  0  0  0  0  0  0  0  0  0  0  0
  139.5520   75.9720  221.6550 C   0  0  0  0  0  0  0  0  0  0  0  0
  139.8270   77.3110  222.3570 C   0  0  0  0  0  0  0  0  0  0  0  0
  140.5380   80.5620  221.6710 N   0  0  0  0  0  0  0  0  0  0  0  0
  140.8550   81.7990  222.1390 C   0  0  0  0  0  0  0  0  0  0  0  0
  142.0851   82.9401  223.5124 H   0  0  0  0  0  0  0  0  0  0  0  0
  143.2104   80.9016  224.4308 H   0  0  0  0  0  0  0  0  0  0  0  0
  142.5981   78.6423  223.5532 H   0  0  0  0  0  0  0  0  0  0  0  0
  140.4089   77.7236  219.5630 H   0  0  0  0  0  0  0  0  0  0  0  0
  142.0514   78.3448  219.9357 H   0  0  0  0  0  0  0  0  0  0  0  0
  141.9025   75.8422  219.3949 H   0  0  0  0  0  0  0  0  0  0  0  0
  142.7012   76.2731  220.9630 H   0  0  0  0  0  0  0  0  0  0  0  0
  138.2590   71.0406  223.8558 H   0  0  0  0  0  0  0  0  0  0  0  0
  138.9284   70.1967  222.4111 H   0  0  0  0  0  0  0  0  0  0  0  0
  138.2409   68.6355  224.2587 H   0  0  0  0  0  0  0  0  0  0  0  0
  139.9854   68.5189  223.8152 H   0  0  0  0  0  0  0  0  0  0  0  0
  138.5517   67.7187  226.4866 H   0  0  0  0  0  0  0  0  0  0  0  0
  139.2348   68.1616  228.8447 H   0  0  0  0  0  0  0  0  0  0  0  0
  140.6944   70.1123  229.3778 H   0  0  0  0  0  0  0  0  0  0  0  0
  141.4743   71.6257  227.5574 H   0  0  0  0  0  0  0  0  0  0  0  0
  140.6760   72.5151  225.2061 H   0  0  0  0  0  0  0  0  0  0  0  0
  142.0107   71.3259  224.8224 H   0  0  0  0  0  0  0  0  0  0  0  0
  143.8064   71.9431  217.6493 H   0  0  0  0  0  0  0  0  0  0  0  0
  144.0335   73.0299  219.0583 H   0  0  0  0  0  0  0  0  0  0  0  0
  146.0529   71.5797  218.3993 H   0  0  0  0  0  0  0  0  0  0  0  0
  145.5139   71.4926  220.1319 H   0  0  0  0  0  0  0  0  0  0  0  0
  147.2665   69.4314  218.9326 H   0  0  0  0  0  0  0  0  0  0  0  0
  147.0899   66.9450  218.8622 H   0  0  0  0  0  0  0  0  0  0  0  0
  144.8499   65.8482  218.8698 H   0  0  0  0  0  0  0  0  0  0  0  0
  142.7780   67.2304  218.9751 H   0  0  0  0  0  0  0  0  0  0  0  0
  142.1051   69.9010  218.0604 H   0  0  0  0  0  0  0  0  0  0  0  0
  141.8978   69.4951  219.8092 H   0  0  0  0  0  0  0  0  0  0  0  0
  138.8542   76.1366  220.8207 H   0  0  0  0  0  0  0  0  0  0  0  0
  139.1140   75.2715  222.3812 H   0  0  0  0  0  0  0  0  0  0  0  0
  138.8775   77.8550  222.4689 H   0  0  0  0  0  0  0  0  0  0  0  0
  140.2793   77.0949  223.3361 H   0  0  0  0  0  0  0  0  0  0  0  0
  140.3486   82.6870  221.7327 H   0  0  0  0  0  0  0  0  0  0  0  0
  1  2  2  0
  2  3  1  0
  3  4  2  0
  4  5  1  0
  5  6  1  0
  6  7  1  0
  7  8  1  0
  8  9  1  0
  9 10  2  0
 10 11  1  0
 11 12  1  0
 12 13  1  0
 13 14  1  0
 14 15  1  0
 15 16  2  0
 16 17  1  0
 17 18  2  0
 18 19  1  0
 19 20  2  0
 20 21  1  0
 11 22  2  0
 22 23  1  0
 23 24  1  0
 24 25  1  0
 25 26  1  0
 26 27  1  0
 27 28  2  0
 28 29  1  0
 29 30  2  0
 30 31  1  0
 31 32  2  0
 32 33  1  0
 23 34  2  0
  8 35  1  0
 35 36  1  0
  4 37  1  0
 37 38  2  0
 38  1  1  0
 36  5  1  0
 34  9  1  0
 21 12  1  0
 33 24  1  0
 20 15  1  0
 32 27  1  0
  1 39  1  0
  2 40  1  0
  3 41  1  0
  6 42  1  0
  6 43  1  0
  7 44  1  0
  7 45  1  0
 13 46  1  0
 13 47  1  0
 14 48  1  0
 14 49  1  0
 16 50  1  0
 17 51  1  0
 18 52  1  0
 19 53  1  0
 21 54  1  0
 21 55  1  0
 25 56  1  0
 25 57  1  0
 26 58  1  0
 26 59  1  0
 28 60  1  0
 29 61  1  0
 30 62  1  0
 31 63  1  0
 33 64  1  0
 33 65  1  0
 35 66  1  0
 35 67  1  0
 36 68  1  0
 36 69  1  0
 38 70  1  0
M  END
>  <UniqueID>  (47) 
49

>  <SMILES>  (47) 
c1ccc(N2CCN(c3nc(N4CCc5ccccc5C4)nc(N4CCc5ccccc5C4)n3)CC2)nc1

>  <Energy>  (47) 
88.72495897090043

>  <Genealogy>  (47) 
c1ccc(N2CCN(c3nc(N4CCc5ccccc5C4)nc(N4CCc5ccccc5C4)n3)CC2)nc1 (3D coordinates assigned)
c1ccc(N2CCN(c3nc(N4CCc5ccccc5C4)nc(N4CCc5ccccc5C4)n3)CC2)nc1 (nonaromatic ring conformer: 88.72495897090043 kcal/mol)

>  <smiles>  (47) 
c1ccc(N2CCN(c3nc(N4CCc5ccccc5C4)nc(N4CCc5ccccc5C4)n3)CC2)nc1

>  <score_type>  (47) 
oracle

>  <origin>  (47) 
autodockgpu

>  <m_score__min__energy>  (47) 
-10.69

>  <m_primary>  (47) 
energy

>  <meeko>  (47) 
{"free_energy": -10.67, "intermolecular_energy": -11.86, "internal_energy": -1.05, "cluster_size": 20, "cluster_id": 1, "rank_in_cluster": 7}

>  <energy>  (47) 
-10.67

>  <cluster_rmsd>  (47) 
0.09

>  <rmsd>  (47) 
269.47

>  <cluster>  (47) 
1

$$$$
QWCMPUPUGDWNGO-UHFFFAOYNA-N
     RDKit          3D

 70 76  0  0  0  0  0  0  0  0999 V2000
  142.1970   81.4610  223.6520 C   0  0  0  0  0  0  0  0  0  0  0  0
  140.8250   81.2460  223.5150 C   0  0  0  0  0  0  0  0  0  0  0  0
  140.3580   80.0690  222.9290 C   0  0  0  0  0  0  0  0  0  0  0  0
  141.2800   79.1010  222.4930 C   0  0  0  0  0  0  0  0  0  0  0  0
  140.8420   77.8720  221.8770 N   0  0  0  0  0  0  0  0  0  0  0  0
  141.4950   77.3380  220.6750 C   0  0  0  0  0  0  0  0  0  0  0  0
  141.7820   75.8490  220.8740 C   0  0  0  0  0  0  0  0  0  0  0  0
  140.6040   75.1360  221.3940 N   0  0  0  0  0  0  0  0  0  0  0  0
  140.6680   73.7040  221.5560 C   0  0  0  0  0  0  0  0  0  0  0  0
  141.3110   72.9440  220.6320 N   0  0  0  0  0  0  0  0  0  0  0  0
  141.4010   71.5950  220.7800 C   0  0  0  0  0  0  0  0  0  0  0  0
  142.0850   70.7900  219.7960 N   0  0  0  0  0  0  0  0  0  0  0  0
  141.3490   70.2240  218.6550 C   0  0  0  0  0  0  0  0  0  0  0  0
  142.2160   70.2520  217.4020 C   0  0  0  0  0  0  0  0  0  0  0  0
  143.5300   69.5730  217.6570 C   0  0  0  0  0  0  0  0  0  0  0  0
  144.2060   68.9400  216.6010 C   0  0  0  0  0  0  0  0  0  0  0  0
  145.4500   68.3420  216.8200 C   0  0  0  0  0  0  0  0  0  0  0  0
  146.0340   68.3850  218.0860 C   0  0  0  0  0  0  0  0  0  0  0  0
  145.3780   69.0290  219.1380 C   0  0  0  0  0  0  0  0  0  0  0  0
  144.1240   69.6250  218.9350 C   0  0  0  0  0  0  0  0  0  0  0  0
  143.4510   70.3220  220.0960 C   0  0  0  0  0  0  0  0  0  0  0  0
  140.8360   71.0120  221.8690 N   0  0  0  0  0  0  0  0  0  0  0  0
  140.1810   71.7550  222.7980 C   0  0  0  0  0  0  0  0  0  0  0  0
  139.5760   71.1200  223.9450 N   0  0  0  0  0  0  0  0  0  0  0  0
  138.5980   70.0370  223.7980 C   0  0  0  0  0  0  0  0  0  0  0  0
  139.1760   68.7560  224.4000 C   0  0  0  0  0  0  0  0  0  0  0  0
  139.8040   68.9950  225.7560 C   0  0  0  0  0  0  0  0  0  0  0  0
  140.0720   67.8950  226.5870 C   0  0  0  0  0  0  0  0  0  0  0  0
  140.7060   68.0750  227.8200 C   0  0  0  0  0  0  0  0  0  0  0  0
  141.0820   69.3550  228.2330 C   0  0  0  0  0  0  0  0  0  0  0  0
  140.8370   70.4580  227.4110 C   0  0  0  0  0  0  0  0  0  0  0  0
  140.2170   70.2890  226.1630 C   0  0  0  0  0  0  0  0  0  0  0  0
  139.9360   71.5070  225.3150 C   0  0  0  0  0  0  0  0  0  0  0  0
  140.1010   73.1010  222.6330 N   0  0  0  0  0  0  0  0  0  0  0  0
  139.3610   75.8770  221.6690 C   0  0  0  0  0  0  0  0  0  0  0  0
  139.6690   77.1770  222.4290 C   0  0  0  0  0  0  0  0  0  0  0  0
  142.6150   79.3510  222.6210 N   0  0  0  0  0  0  0  0  0  0  0  0
  143.0870   80.4910  223.1910 C   0  0  0  0  0  0  0  0  0  0  0  0
  142.5720   82.3842  224.1179 H   0  0  0  0  0  0  0  0  0  0  0  0
  140.1115   82.0046  223.8691 H   0  0  0  0  0  0  0  0  0  0  0  0
  139.2777   79.8998  222.8091 H   0  0  0  0  0  0  0  0  0  0  0  0
  140.8326   77.4716  219.8070 H   0  0  0  0  0  0  0  0  0  0  0  0
  142.4390   77.8747  220.4996 H   0  0  0  0  0  0  0  0  0  0  0  0
  142.0685   75.4082  219.9078 H   0  0  0  0  0  0  0  0  0  0  0  0
  142.5960   75.7500  221.6072 H   0  0  0  0  0  0  0  0  0  0  0  0
  141.0717   69.1839  218.8816 H   0  0  0  0  0  0  0  0  0  0  0  0
  140.4444   70.8244  218.4785 H   0  0  0  0  0  0  0  0  0  0  0  0
  141.6916   69.7314  216.5872 H   0  0  0  0  0  0  0  0  0  0  0  0
  142.4048   71.2992  217.1232 H   0  0  0  0  0  0  0  0  0  0  0  0
  143.7547   68.9149  215.5981 H   0  0  0  0  0  0  0  0  0  0  0  0
  145.9695   67.8365  215.9926 H   0  0  0  0  0  0  0  0  0  0  0  0
  147.0121   67.9113  218.2562 H   0  0  0  0  0  0  0  0  0  0  0  0
  145.8476   69.0691  220.1319 H   0  0  0  0  0  0  0  0  0  0  0  0
  143.3995   69.6189  220.9404 H   0  0  0  0  0  0  0  0  0  0  0  0
  144.0523   71.2134  220.3278 H   0  0  0  0  0  0  0  0  0  0  0  0
  137.6698   70.3050  224.3239 H   0  0  0  0  0  0  0  0  0  0  0  0
  138.3775   69.8789  222.7320 H   0  0  0  0  0  0  0  0  0  0  0  0
  138.3665   68.0192  224.5093 H   0  0  0  0  0  0  0  0  0  0  0  0
  139.9620   68.3894  223.7234 H   0  0  0  0  0  0  0  0  0  0  0  0
  139.7809   66.8842  226.2653 H   0  0  0  0  0  0  0  0  0  0  0  0
  140.9088   67.2076  228.4654 H   0  0  0  0  0  0  0  0  0  0  0  0
  141.5722   69.4952  229.2077 H   0  0  0  0  0  0  0  0  0  0  0  0
  141.1316   71.4643  227.7436 H   0  0  0  0  0  0  0  0  0  0  0  0
  139.1036   72.0716  225.7603 H   0  0  0  0  0  0  0  0  0  0  0  0
  140.8442   72.1266  225.2780 H   0  0  0  0  0  0  0  0  0  0  0  0
  138.8670   76.1220  220.7172 H   0  0  0  0  0  0  0  0  0  0  0  0
  138.7013   75.2502  222.2870 H   0  0  0  0  0  0  0  0  0  0  0  0
  138.7966   77.8435  222.3611 H   0  0  0  0  0  0  0  0  0  0  0  0
  139.8891   76.9159  223.4746 H   0  0  0  0  0  0  0  0  0  0  0  0
  144.1712   80.6487  223.2888 H   0  0  0  0  0  0  0  0  0  0  0  0
  1  2  2  0
  2  3  1  0
  3  4  2  0
  4  5  1  0
  5  6  1  0
  6  7  1  0
  7  8  1  0
  8  9  1  0
  9 10  2  0
 10 11  1  0
 11 12  1  0
 12 13  1  0
 13 14  1  0
 14 15  1  0
 15 16  2  0
 16 17  1  0
 17 18  2  0
 18 19  1  0
 19 20  2  0
 20 21  1  0
 11 22  2  0
 22 23  1  0
 23 24  1  0
 24 25  1  0
 25 26  1  0
 26 27  1  0
 27 28  2  0
 28 29  1  0
 29 30  2  0
 30 31  1  0
 31 32  2  0
 32 33  1  0
 23 34  2  0
  8 35  1  0
 35 36  1  0
  4 37  1  0
 37 38  2  0
 38  1  1  0
 36  5  1  0
 34  9  1  0
 21 12  1  0
 33 24  1  0
 20 15  1  0
 32 27  1  0
  1 39  1  0
  2 40  1  0
  3 41  1  0
  6 42  1  0
  6 43  1  0
  7 44  1  0
  7 45  1  0
 13 46  1  0
 13 47  1  0
 14 48  1  0
 14 49  1  0
 16 50  1  0
 17 51  1  0
 18 52  1  0
 19 53  1  0
 21 54  1  0
 21 55  1  0
 25 56  1  0
 25 57  1  0
 26 58  1  0
 26 59  1  0
 28 60  1  0
 29 61  1  0
 30 62  1  0
 31 63  1  0
 33 64  1  0
 33 65  1  0
 35 66  1  0
 35 67  1  0
 36 68  1  0
 36 69  1  0
 38 70  1  0
M  END
>  <UniqueID>  (48) 
49

>  <SMILES>  (48) 
c1ccc(N2CCN(c3nc(N4CCc5ccccc5C4)nc(N4CCc5ccccc5C4)n3)CC2)nc1

>  <Energy>  (48) 
88.72495897090043

>  <Genealogy>  (48) 
c1ccc(N2CCN(c3nc(N4CCc5ccccc5C4)nc(N4CCc5ccccc5C4)n3)CC2)nc1 (3D coordinates assigned)
c1ccc(N2CCN(c3nc(N4CCc5ccccc5C4)nc(N4CCc5ccccc5C4)n3)CC2)nc1 (nonaromatic ring conformer: 88.72495897090043 kcal/mol)

>  <smiles>  (48) 
c1ccc(N2CCN(c3nc(N4CCc5ccccc5C4)nc(N4CCc5ccccc5C4)n3)CC2)nc1

>  <score_type>  (48) 
oracle

>  <origin>  (48) 
autodockgpu

>  <m_score__min__energy>  (48) 
-10.69

>  <m_primary>  (48) 
energy

>  <meeko>  (48) 
{"free_energy": -9.92, "intermolecular_energy": -11.12, "internal_energy": -1.02, "cluster_size": 20, "cluster_id": 1, "rank_in_cluster": 20}

>  <energy>  (48) 
-10.66

>  <cluster_rmsd>  (48) 
0.13

>  <rmsd>  (48) 
269.44

>  <cluster>  (48) 
1

$$$$
QWCMPUPUGDWNGO-UHFFFAOYNA-N
     RDKit          3D

 70 76  0  0  0  0  0  0  0  0999 V2000
  141.8550   81.7540  223.3920 C   0  0  0  0  0  0  0  0  0  0  0  0
  142.5000   80.6040  223.8480 C   0  0  0  0  0  0  0  0  0  0  0  0
  142.1860   79.3610  223.2970 C   0  0  0  0  0  0  0  0  0  0  0  0
  141.2260   79.2830  222.2720 C   0  0  0  0  0  0  0  0  0  0  0  0
  140.8660   78.0200  221.6760 N   0  0  0  0  0  0  0  0  0  0  0  0
  141.4450   77.5760  220.4020 C   0  0  0  0  0  0  0  0  0  0  0  0
  141.9160   76.1270  220.5360 C   0  0  0  0  0  0  0  0  0  0  0  0
  140.8860   75.2800  221.1580 N   0  0  0  0  0  0  0  0  0  0  0  0
  141.1260   73.8620  221.2790 C   0  0  0  0  0  0  0  0  0  0  0  0
  140.6520   73.1820  222.3560 N   0  0  0  0  0  0  0  0  0  0  0  0
  140.8490   71.8430  222.4750 C   0  0  0  0  0  0  0  0  0  0  0  0
  140.3450   71.1220  223.6210 N   0  0  0  0  0  0  0  0  0  0  0  0
  139.0930   70.3570  223.5270 C   0  0  0  0  0  0  0  0  0  0  0  0
  139.1980   69.0720  224.3380 C   0  0  0  0  0  0  0  0  0  0  0  0
  139.6040   69.3750  225.7520 C   0  0  0  0  0  0  0  0  0  0  0  0
  139.1920   68.5290  226.7940 C   0  0  0  0  0  0  0  0  0  0  0  0
  139.6000   68.7790  228.1070 C   0  0  0  0  0  0  0  0  0  0  0  0
  140.4330   69.8630  228.3860 C   0  0  0  0  0  0  0  0  0  0  0  0
  140.8630   70.7000  227.3530 C   0  0  0  0  0  0  0  0  0  0  0  0
  140.4530   70.4660  226.0310 C   0  0  0  0  0  0  0  0  0  0  0  0
  140.9490   71.3880  224.9400 C   0  0  0  0  0  0  0  0  0  0  0  0
  141.5290   71.1860  221.4990 N   0  0  0  0  0  0  0  0  0  0  0  0
  142.0180   71.8510  220.4200 C   0  0  0  0  0  0  0  0  0  0  0  0
  142.7480   71.1420  219.3960 N   0  0  0  0  0  0  0  0  0  0  0  0
  143.8230   71.7850  218.6330 C   0  0  0  0  0  0  0  0  0  0  0  0
  145.1450   71.0800  218.9360 C   0  0  0  0  0  0  0  0  0  0  0  0
  145.0120   69.5730  218.8860 C   0  0  0  0  0  0  0  0  0  0  0  0
  146.1750   68.7890  218.8040 C   0  0  0  0  0  0  0  0  0  0  0  0
  146.0910   67.3930  218.8160 C   0  0  0  0  0  0  0  0  0  0  0  0
  144.8460   66.7680  218.9140 C   0  0  0  0  0  0  0  0  0  0  0  0
  143.6820   67.5330  219.0130 C   0  0  0  0  0  0  0  0  0  0  0  0
  143.7530   68.9350  219.0200 C   0  0  0  0  0  0  0  0  0  0  0  0
  142.4720   69.7320  219.0930 C   0  0  0  0  0  0  0  0  0  0  0  0
  141.8120   73.1900  220.3190 N   0  0  0  0  0  0  0  0  0  0  0  0
  139.6030   75.8720  221.5760 C   0  0  0  0  0  0  0  0  0  0  0  0
  139.8430   77.1900  222.3300 C   0  0  0  0  0  0  0  0  0  0  0  0
  140.5970   80.4230  221.8630 N   0  0  0  0  0  0  0  0  0  0  0  0
  140.8920   81.6420  222.3890 C   0  0  0  0  0  0  0  0  0  0  0  0
  142.1029   82.7373  223.8183 H   0  0  0  0  0  0  0  0  0  0  0  0
  143.2569   80.6772  224.6428 H   0  0  0  0  0  0  0  0  0  0  0  0
  142.6847   78.4506  223.6609 H   0  0  0  0  0  0  0  0  0  0  0  0
  140.6845   77.6430  219.6100 H   0  0  0  0  0  0  0  0  0  0  0  0
  142.3000   78.2180  220.1432 H   0  0  0  0  0  0  0  0  0  0  0  0
  142.1469   75.7323  219.5355 H   0  0  0  0  0  0  0  0  0  0  0  0
  142.8087   76.1125  221.1785 H   0  0  0  0  0  0  0  0  0  0  0  0
  138.2649   70.9664  223.9179 H   0  0  0  0  0  0  0  0  0  0  0  0
  138.9074   70.1016  222.4733 H   0  0  0  0  0  0  0  0  0  0  0  0
  138.2215   68.5656  224.3422 H   0  0  0  0  0  0  0  0  0  0  0  0
  139.9592   68.4232  223.8802 H   0  0  0  0  0  0  0  0  0  0  0  0
  138.5456   67.6661  226.5760 H   0  0  0  0  0  0  0  0  0  0  0  0
  139.2641   68.1204  228.9215 H   0  0  0  0  0  0  0  0  0  0  0  0
  140.7516   70.0590  229.4205 H   0  0  0  0  0  0  0  0  0  0  0  0
  141.5271   71.5478  227.5772 H   0  0  0  0  0  0  0  0  0  0  0  0
  140.7147   72.4237  225.2271 H   0  0  0  0  0  0  0  0  0  0  0  0
  142.0308   71.2156  224.8396 H   0  0  0  0  0  0  0  0  0  0  0  0
  143.6052   71.7120  217.5572 H   0  0  0  0  0  0  0  0  0  0  0  0
  143.8955   72.8450  218.9178 H   0  0  0  0  0  0  0  0  0  0  0  0
  145.8930   71.3948  218.1934 H   0  0  0  0  0  0  0  0  0  0  0  0
  145.4516   71.3591  219.9549 H   0  0  0  0  0  0  0  0  0  0  0  0
  147.1583   69.2765  218.7299 H   0  0  0  0  0  0  0  0  0  0  0  0
  147.0064   66.7868  218.7482 H   0  0  0  0  0  0  0  0  0  0  0  0
  144.7821   65.6699  218.9132 H   0  0  0  0  0  0  0  0  0  0  0  0
  142.7042   67.0344  219.0859 H   0  0  0  0  0  0  0  0  0  0  0  0
  141.9517   69.6667  218.1260 H   0  0  0  0  0  0  0  0  0  0  0  0
  141.8451   69.3165  219.8957 H   0  0  0  0  0  0  0  0  0  0  0  0
  138.9879   76.0702  220.6859 H   0  0  0  0  0  0  0  0  0  0  0  0
  139.0849   75.1676  222.2434 H   0  0  0  0  0  0  0  0  0  0  0  0
  138.8994   77.7540  222.3687 H   0  0  0  0  0  0  0  0  0  0  0  0
  140.2005   76.9433  223.3406 H   0  0  0  0  0  0  0  0  0  0  0  0
  140.3713   82.5394  222.0236 H   0  0  0  0  0  0  0  0  0  0  0  0
  1  2  2  0
  2  3  1  0
  3  4  2  0
  4  5  1  0
  5  6  1  0
  6  7  1  0
  7  8  1  0
  8  9  1  0
  9 10  2  0
 10 11  1  0
 11 12  1  0
 12 13  1  0
 13 14  1  0
 14 15  1  0
 15 16  2  0
 16 17  1  0
 17 18  2  0
 18 19  1  0
 19 20  2  0
 20 21  1  0
 11 22  2  0
 22 23  1  0
 23 24  1  0
 24 25  1  0
 25 26  1  0
 26 27  1  0
 27 28  2  0
 28 29  1  0
 29 30  2  0
 30 31  1  0
 31 32  2  0
 32 33  1  0
 23 34  2  0
  8 35  1  0
 35 36  1  0
  4 37  1  0
 37 38  2  0
 38  1  1  0
 36  5  1  0
 34  9  1  0
 21 12  1  0
 33 24  1  0
 20 15  1  0
 32 27  1  0
  1 39  1  0
  2 40  1  0
  3 41  1  0
  6 42  1  0
  6 43  1  0
  7 44  1  0
  7 45  1  0
 13 46  1  0
 13 47  1  0
 14 48  1  0
 14 49  1  0
 16 50  1  0
 17 51  1  0
 18 52  1  0
 19 53  1  0
 21 54  1  0
 21 55  1  0
 25 56  1  0
 25 57  1  0
 26 58  1  0
 26 59  1  0
 28 60  1  0
 29 61  1  0
 30 62  1  0
 31 63  1  0
 33 64  1  0
 33 65  1  0
 35 66  1  0
 35 67  1  0
 36 68  1  0
 36 69  1  0
 38 70  1  0
M  END
>  <UniqueID>  (49) 
49

>  <SMILES>  (49) 
c1ccc(N2CCN(c3nc(N4CCc5ccccc5C4)nc(N4CCc5ccccc5C4)n3)CC2)nc1

>  <Energy>  (49) 
88.72495897090043

>  <Genealogy>  (49) 
c1ccc(N2CCN(c3nc(N4CCc5ccccc5C4)nc(N4CCc5ccccc5C4)n3)CC2)nc1 (3D coordinates assigned)
c1ccc(N2CCN(c3nc(N4CCc5ccccc5C4)nc(N4CCc5ccccc5C4)n3)CC2)nc1 (nonaromatic ring conformer: 88.72495897090043 kcal/mol)

>  <smiles>  (49) 
c1ccc(N2CCN(c3nc(N4CCc5ccccc5C4)nc(N4CCc5ccccc5C4)n3)CC2)nc1

>  <score_type>  (49) 
oracle

>  <origin>  (49) 
autodockgpu

>  <m_score__min__energy>  (49) 
-10.69

>  <m_primary>  (49) 
energy

>  <meeko>  (49) 
{"free_energy": -10.64, "intermolecular_energy": -11.84, "internal_energy": -1.05, "cluster_size": 20, "cluster_id": 1, "rank_in_cluster": 9}

>  <energy>  (49) 
-10.64

>  <cluster_rmsd>  (49) 
0.13

>  <rmsd>  (49) 
269.47

>  <cluster>  (49) 
1

$$$$
QWCMPUPUGDWNGO-UHFFFAOYNA-N
     RDKit          3D

 70 76  0  0  0  0  0  0  0  0999 V2000
  141.8530   81.8100  223.2500 C   0  0  0  0  0  0  0  0  0  0  0  0
  142.4880   80.6660  223.7350 C   0  0  0  0  0  0  0  0  0  0  0  0
  142.1550   79.4120  223.2220 C   0  0  0  0  0  0  0  0  0  0  0  0
  141.1870   79.3160  222.2060 C   0  0  0  0  0  0  0  0  0  0  0  0
  140.8070   78.0400  221.6500 N   0  0  0  0  0  0  0  0  0  0  0  0
  141.3100   77.5890  220.3460 C   0  0  0  0  0  0  0  0  0  0  0  0
  141.8090   76.1480  220.4670 C   0  0  0  0  0  0  0  0  0  0  0  0
  140.8330   75.2940  221.1640 N   0  0  0  0  0  0  0  0  0  0  0  0
  141.1000   73.8820  221.2860 C   0  0  0  0  0  0  0  0  0  0  0  0
  140.6270   73.1900  222.3550 N   0  0  0  0  0  0  0  0  0  0  0  0
  140.8500   71.8550  222.4750 C   0  0  0  0  0  0  0  0  0  0  0  0
  140.3450   71.1230  223.6130 N   0  0  0  0  0  0  0  0  0  0  0  0
  139.1140   70.3270  223.4990 C   0  0  0  0  0  0  0  0  0  0  0  0
  139.2370   69.0450  224.3130 C   0  0  0  0  0  0  0  0  0  0  0  0
  139.6130   69.3570  225.7320 C   0  0  0  0  0  0  0  0  0  0  0  0
  139.2060   68.5010  226.7680 C   0  0  0  0  0  0  0  0  0  0  0  0
  139.5870   68.7610  228.0870 C   0  0  0  0  0  0  0  0  0  0  0  0
  140.3890   69.8650  228.3790 C   0  0  0  0  0  0  0  0  0  0  0  0
  140.8150   70.7120  227.3530 C   0  0  0  0  0  0  0  0  0  0  0  0
  140.4310   70.4680  226.0250 C   0  0  0  0  0  0  0  0  0  0  0  0
  140.9220   71.4020  224.9410 C   0  0  0  0  0  0  0  0  0  0  0  0
  141.5560   71.2140  221.5070 N   0  0  0  0  0  0  0  0  0  0  0  0
  142.0450   71.8910  220.4360 C   0  0  0  0  0  0  0  0  0  0  0  0
  142.8030   71.1990  219.4210 N   0  0  0  0  0  0  0  0  0  0  0  0
  143.9010   71.8530  218.7010 C   0  0  0  0  0  0  0  0  0  0  0  0
  145.2120   71.1380  219.0300 C   0  0  0  0  0  0  0  0  0  0  0  0
  145.0770   69.6320  218.9480 C   0  0  0  0  0  0  0  0  0  0  0  0
  146.2390   68.8470  218.8850 C   0  0  0  0  0  0  0  0  0  0  0  0
  146.1520   67.4510  218.8680 C   0  0  0  0  0  0  0  0  0  0  0  0
  144.9030   66.8280  218.9180 C   0  0  0  0  0  0  0  0  0  0  0  0
  143.7380   67.5950  218.9970 C   0  0  0  0  0  0  0  0  0  0  0  0
  143.8120   68.9970  219.0320 C   0  0  0  0  0  0  0  0  0  0  0  0
  142.5320   69.7960  219.0830 C   0  0  0  0  0  0  0  0  0  0  0  0
  141.8130   73.2250  220.3340 N   0  0  0  0  0  0  0  0  0  0  0  0
  139.5720   75.8750  221.6560 C   0  0  0  0  0  0  0  0  0  0  0  0
  139.8400   77.2050  222.3780 C   0  0  0  0  0  0  0  0  0  0  0  0
  140.5690   80.4510  221.7690 N   0  0  0  0  0  0  0  0  0  0  0  0
  140.8830   81.6810  222.2580 C   0  0  0  0  0  0  0  0  0  0  0  0
  142.1151   82.8021  223.6462 H   0  0  0  0  0  0  0  0  0  0  0  0
  143.2515   80.7529  224.5221 H   0  0  0  0  0  0  0  0  0  0  0  0
  142.6452   78.5063  223.6087 H   0  0  0  0  0  0  0  0  0  0  0  0
  140.4998   77.6361  219.6034 H   0  0  0  0  0  0  0  0  0  0  0  0
  142.1370   78.2395  220.0252 H   0  0  0  0  0  0  0  0  0  0  0  0
  141.9812   75.7438  219.4585 H   0  0  0  0  0  0  0  0  0  0  0  0
  142.7407   76.1541  221.0517 H   0  0  0  0  0  0  0  0  0  0  0  0
  138.2647   70.9160  223.8755 H   0  0  0  0  0  0  0  0  0  0  0  0
  138.9525   70.0664  222.4426 H   0  0  0  0  0  0  0  0  0  0  0  0
  138.2729   68.5155  224.3021 H   0  0  0  0  0  0  0  0  0  0  0  0
  140.0210   68.4149  223.8677 H   0  0  0  0  0  0  0  0  0  0  0  0
  138.5847   67.6222  226.5403 H   0  0  0  0  0  0  0  0  0  0  0  0
  139.2543   68.0945  228.8963 H   0  0  0  0  0  0  0  0  0  0  0  0
  140.6861   70.0686  229.4184 H   0  0  0  0  0  0  0  0  0  0  0  0
  141.4552   71.5753  227.5871 H   0  0  0  0  0  0  0  0  0  0  0  0
  140.6593   72.4319  225.2245 H   0  0  0  0  0  0  0  0  0  0  0  0
  142.0088   71.2544  224.8571 H   0  0  0  0  0  0  0  0  0  0  0  0
  143.7144   71.8001  217.6182 H   0  0  0  0  0  0  0  0  0  0  0  0
  143.9677   72.9077  219.0063 H   0  0  0  0  0  0  0  0  0  0  0  0
  145.9825   71.4642  218.3160 H   0  0  0  0  0  0  0  0  0  0  0  0
  145.4886   71.3970  220.0627 H   0  0  0  0  0  0  0  0  0  0  0  0
  147.2251   69.3331  218.8487 H   0  0  0  0  0  0  0  0  0  0  0  0
  147.0676   66.8437  218.8152 H   0  0  0  0  0  0  0  0  0  0  0  0
  144.8364   65.7303  218.8951 H   0  0  0  0  0  0  0  0  0  0  0  0
  142.7573   67.0980  219.0320 H   0  0  0  0  0  0  0  0  0  0  0  0
  142.0400   69.7509  218.1002 H   0  0  0  0  0  0  0  0  0  0  0  0
  141.8808   69.3671  219.8589 H   0  0  0  0  0  0  0  0  0  0  0  0
  138.8991   76.0541  220.8045 H   0  0  0  0  0  0  0  0  0  0  0  0
  139.1078   75.1723  222.3637 H   0  0  0  0  0  0  0  0  0  0  0  0
  138.8927   77.7565  222.4703 H   0  0  0  0  0  0  0  0  0  0  0  0
  140.2642   76.9762  223.3668 H   0  0  0  0  0  0  0  0  0  0  0  0
  140.3710   82.5740  221.8702 H   0  0  0  0  0  0  0  0  0  0  0  0
  1  2  2  0
  2  3  1  0
  3  4  2  0
  4  5  1  0
  5  6  1  0
  6  7  1  0
  7  8  1  0
  8  9  1  0
  9 10  2  0
 10 11  1  0
 11 12  1  0
 12 13  1  0
 13 14  1  0
 14 15  1  0
 15 16  2  0
 16 17  1  0
 17 18  2  0
 18 19  1  0
 19 20  2  0
 20 21  1  0
 11 22  2  0
 22 23  1  0
 23 24  1  0
 24 25  1  0
 25 26  1  0
 26 27  1  0
 27 28  2  0
 28 29  1  0
 29 30  2  0
 30 31  1  0
 31 32  2  0
 32 33  1  0
 23 34  2  0
  8 35  1  0
 35 36  1  0
  4 37  1  0
 37 38  2  0
 38  1  1  0
 36  5  1  0
 34  9  1  0
 21 12  1  0
 33 24  1  0
 20 15  1  0
 32 27  1  0
  1 39  1  0
  2 40  1  0
  3 41  1  0
  6 42  1  0
  6 43  1  0
  7 44  1  0
  7 45  1  0
 13 46  1  0
 13 47  1  0
 14 48  1  0
 14 49  1  0
 16 50  1  0
 17 51  1  0
 18 52  1  0
 19 53  1  0
 21 54  1  0
 21 55  1  0
 25 56  1  0
 25 57  1  0
 26 58  1  0
 26 59  1  0
 28 60  1  0
 29 61  1  0
 30 62  1  0
 31 63  1  0
 33 64  1  0
 33 65  1  0
 35 66  1  0
 35 67  1  0
 36 68  1  0
 36 69  1  0
 38 70  1  0
M  END
>  <UniqueID>  (50) 
49

>  <SMILES>  (50) 
c1ccc(N2CCN(c3nc(N4CCc5ccccc5C4)nc(N4CCc5ccccc5C4)n3)CC2)nc1

>  <Energy>  (50) 
88.72495897090043

>  <Genealogy>  (50) 
c1ccc(N2CCN(c3nc(N4CCc5ccccc5C4)nc(N4CCc5ccccc5C4)n3)CC2)nc1 (3D coordinates assigned)
c1ccc(N2CCN(c3nc(N4CCc5ccccc5C4)nc(N4CCc5ccccc5C4)n3)CC2)nc1 (nonaromatic ring conformer: 88.72495897090043 kcal/mol)

>  <smiles>  (50) 
c1ccc(N2CCN(c3nc(N4CCc5ccccc5C4)nc(N4CCc5ccccc5C4)n3)CC2)nc1

>  <score_type>  (50) 
oracle

>  <origin>  (50) 
autodockgpu

>  <m_score__min__energy>  (50) 
-10.69

>  <m_primary>  (50) 
energy

>  <meeko>  (50) 
{"free_energy": -10.68, "intermolecular_energy": -11.87, "internal_energy": -1.05, "cluster_size": 20, "cluster_id": 1, "rank_in_cluster": 5}

>  <energy>  (50) 
-10.6

>  <cluster_rmsd>  (50) 
0.47

>  <rmsd>  (50) 
269.46

>  <cluster>  (50) 
1

$$$$
QWCMPUPUGDWNGO-UHFFFAOYNA-N
     RDKit          3D

 70 76  0  0  0  0  0  0  0  0999 V2000
  137.0750   80.8730  224.5820 C   0  0  0  0  0  0  0  0  0  0  0  0
  138.4700   80.8420  224.5690 C   0  0  0  0  0  0  0  0  0  0  0  0
  139.1400   79.8860  223.8030 C   0  0  0  0  0  0  0  0  0  0  0  0
  138.3970   78.9690  223.0400 C   0  0  0  0  0  0  0  0  0  0  0  0
  139.0470   77.9610  222.2380 N   0  0  0  0  0  0  0  0  0  0  0  0
  140.4980   77.9710  222.0160 C   0  0  0  0  0  0  0  0  0  0  0  0
  141.0590   76.5690  222.2600 C   0  0  0  0  0  0  0  0  0  0  0  0
  140.2620   75.5410  221.5710 N   0  0  0  0  0  0  0  0  0  0  0  0
  140.7020   74.1680  221.6180 C   0  0  0  0  0  0  0  0  0  0  0  0
  140.3120   73.3640  222.6420 N   0  0  0  0  0  0  0  0  0  0  0  0
  140.6980   72.0610  222.6900 C   0  0  0  0  0  0  0  0  0  0  0  0
  140.2820   71.2090  223.7800 N   0  0  0  0  0  0  0  0  0  0  0  0
  139.0270   70.4470  223.6910 C   0  0  0  0  0  0  0  0  0  0  0  0
  139.1950   69.0790  224.3400 C   0  0  0  0  0  0  0  0  0  0  0  0
  139.7050   69.2220  225.7440 C   0  0  0  0  0  0  0  0  0  0  0  0
  139.3740   68.2570  226.7100 C   0  0  0  0  0  0  0  0  0  0  0  0
  139.8790   68.3590  228.0090 C   0  0  0  0  0  0  0  0  0  0  0  0
  140.7290   69.4120  228.3480 C   0  0  0  0  0  0  0  0  0  0  0  0
  141.0790   70.3660  227.3890 C   0  0  0  0  0  0  0  0  0  0  0  0
  140.5710   70.2810  226.0840 C   0  0  0  0  0  0  0  0  0  0  0  0
  140.9830   71.3270  225.0720 C   0  0  0  0  0  0  0  0  0  0  0  0
  141.4830   71.5680  221.6970 N   0  0  0  0  0  0  0  0  0  0  0  0
  141.8890   72.3600  220.6710 C   0  0  0  0  0  0  0  0  0  0  0  0
  142.7330   71.8250  219.6280 N   0  0  0  0  0  0  0  0  0  0  0  0
  143.8280   72.6080  219.0460 C   0  0  0  0  0  0  0  0  0  0  0  0
  145.1580   71.9250  219.3650 C   0  0  0  0  0  0  0  0  0  0  0  0
  145.1090   70.4330  219.1100 C   0  0  0  0  0  0  0  0  0  0  0  0
  146.3140   69.7180  219.0240 C   0  0  0  0  0  0  0  0  0  0  0  0
  146.3030   68.3310  218.8480 C   0  0  0  0  0  0  0  0  0  0  0  0
  145.0890   67.6460  218.7600 C   0  0  0  0  0  0  0  0  0  0  0  0
  143.8820   68.3410  218.8600 C   0  0  0  0  0  0  0  0  0  0  0  0
  143.8780   69.7320  219.0540 C   0  0  0  0  0  0  0  0  0  0  0  0
  142.5550   70.4570  219.1230 C   0  0  0  0  0  0  0  0  0  0  0  0
  141.4950   73.6580  220.6400 N   0  0  0  0  0  0  0  0  0  0  0  0
  139.0790   75.9340  220.7860 C   0  0  0  0  0  0  0  0  0  0  0  0
  138.2240   76.9390  221.5740 C   0  0  0  0  0  0  0  0  0  0  0  0
  137.0350   79.0120  223.0920 N   0  0  0  0  0  0  0  0  0  0  0  0
  136.3660   79.9370  223.8310 C   0  0  0  0  0  0  0  0  0  0  0  0
  136.5409   81.6276  225.1782 H   0  0  0  0  0  0  0  0  0  0  0  0
  139.0419   81.5707  225.1622 H   0  0  0  0  0  0  0  0  0  0  0  0
  140.2394   79.8509  223.7968 H   0  0  0  0  0  0  0  0  0  0  0  0
  140.7087   78.2755  220.9802 H   0  0  0  0  0  0  0  0  0  0  0  0
  140.9709   78.6818  222.7096 H   0  0  0  0  0  0  0  0  0  0  0  0
  142.0933   76.5282  221.8878 H   0  0  0  0  0  0  0  0  0  0  0  0
  141.0231   76.3664  223.3406 H   0  0  0  0  0  0  0  0  0  0  0  0
  138.2290   70.9993  224.2089 H   0  0  0  0  0  0  0  0  0  0  0  0
  138.7635   70.3118  222.6316 H   0  0  0  0  0  0  0  0  0  0  0  0
  138.2224   68.5654  224.3588 H   0  0  0  0  0  0  0  0  0  0  0  0
  139.9213   68.4950  223.7556 H   0  0  0  0  0  0  0  0  0  0  0  0
  138.7148   67.4179  226.4428 H   0  0  0  0  0  0  0  0  0  0  0  0
  139.6060   67.6081  228.7651 H   0  0  0  0  0  0  0  0  0  0  0  0
  141.1242   69.4913  229.3715 H   0  0  0  0  0  0  0  0  0  0  0  0
  141.7572   71.1889  227.6589 H   0  0  0  0  0  0  0  0  0  0  0  0
  140.7704   72.3207  225.4932 H   0  0  0  0  0  0  0  0  0  0  0  0
  142.0542   71.1770  224.8719 H   0  0  0  0  0  0  0  0  0  0  0  0
  143.6978   72.6689  217.9554 H   0  0  0  0  0  0  0  0  0  0  0  0
  143.8226   73.6232  219.4694 H   0  0  0  0  0  0  0  0  0  0  0  0
  145.9436   72.3668  218.7344 H   0  0  0  0  0  0  0  0  0  0  0  0
  145.3696   72.0788  220.4335 H   0  0  0  0  0  0  0  0  0  0  0  0
  147.2729   70.2523  219.0955 H   0  0  0  0  0  0  0  0  0  0  0  0
  147.2517   67.7786  218.7788 H   0  0  0  0  0  0  0  0  0  0  0  0
  145.0837   66.5561  218.6115 H   0  0  0  0  0  0  0  0  0  0  0  0
  142.9293   67.7961  218.7864 H   0  0  0  0  0  0  0  0  0  0  0  0
  142.1144   70.4993  218.1160 H   0  0  0  0  0  0  0  0  0  0  0  0
  141.8909   69.9122  219.8101 H   0  0  0  0  0  0  0  0  0  0  0  0
  139.4067   76.3971  219.8436 H   0  0  0  0  0  0  0  0  0  0  0  0
  138.4755   75.0384  220.5767 H   0  0  0  0  0  0  0  0  0  0  0  0
  137.5311   77.4370  220.8798 H   0  0  0  0  0  0  0  0  0  0  0  0
  137.6781   76.3845  222.3515 H   0  0  0  0  0  0  0  0  0  0  0  0
  135.2661   79.9465  223.8361 H   0  0  0  0  0  0  0  0  0  0  0  0
  1  2  2  0
  2  3  1  0
  3  4  2  0
  4  5  1  0
  5  6  1  0
  6  7  1  0
  7  8  1  0
  8  9  1  0
  9 10  2  0
 10 11  1  0
 11 12  1  0
 12 13  1  0
 13 14  1  0
 14 15  1  0
 15 16  2  0
 16 17  1  0
 17 18  2  0
 18 19  1  0
 19 20  2  0
 20 21  1  0
 11 22  2  0
 22 23  1  0
 23 24  1  0
 24 25  1  0
 25 26  1  0
 26 27  1  0
 27 28  2  0
 28 29  1  0
 29 30  2  0
 30 31  1  0
 31 32  2  0
 32 33  1  0
 23 34  2  0
  8 35  1  0
 35 36  1  0
  4 37  1  0
 37 38  2  0
 38  1  1  0
 36  5  1  0
 34  9  1  0
 21 12  1  0
 33 24  1  0
 20 15  1  0
 32 27  1  0
  1 39  1  0
  2 40  1  0
  3 41  1  0
  6 42  1  0
  6 43  1  0
  7 44  1  0
  7 45  1  0
 13 46  1  0
 13 47  1  0
 14 48  1  0
 14 49  1  0
 16 50  1  0
 17 51  1  0
 18 52  1  0
 19 53  1  0
 21 54  1  0
 21 55  1  0
 25 56  1  0
 25 57  1  0
 26 58  1  0
 26 59  1  0
 28 60  1  0
 29 61  1  0
 30 62  1  0
 31 63  1  0
 33 64  1  0
 33 65  1  0
 35 66  1  0
 35 67  1  0
 36 68  1  0
 36 69  1  0
 38 70  1  0
M  END
>  <UniqueID>  (51) 
49

>  <SMILES>  (51) 
c1ccc(N2CCN(c3nc(N4CCc5ccccc5C4)nc(N4CCc5ccccc5C4)n3)CC2)nc1

>  <Energy>  (51) 
88.72495897090043

>  <Genealogy>  (51) 
c1ccc(N2CCN(c3nc(N4CCc5ccccc5C4)nc(N4CCc5ccccc5C4)n3)CC2)nc1 (3D coordinates assigned)
c1ccc(N2CCN(c3nc(N4CCc5ccccc5C4)nc(N4CCc5ccccc5C4)n3)CC2)nc1 (nonaromatic ring conformer: 88.72495897090043 kcal/mol)

>  <smiles>  (51) 
c1ccc(N2CCN(c3nc(N4CCc5ccccc5C4)nc(N4CCc5ccccc5C4)n3)CC2)nc1

>  <score_type>  (51) 
oracle

>  <origin>  (51) 
autodockgpu

>  <m_score__min__energy>  (51) 
-10.69

>  <m_primary>  (51) 
energy

>  <meeko>  (51) 
{"free_energy": -9.97, "intermolecular_energy": -11.17, "internal_energy": -1.02, "cluster_size": 20, "cluster_id": 1, "rank_in_cluster": 19}

>  <energy>  (51) 
-10.58

>  <cluster_rmsd>  (51) 
0.51

>  <rmsd>  (51) 
269.46

>  <cluster>  (51) 
1

$$$$
QWCMPUPUGDWNGO-UHFFFAOYNA-N
     RDKit          3D

 70 76  0  0  0  0  0  0  0  0999 V2000
  141.8420   81.8540  223.2780 C   0  0  0  0  0  0  0  0  0  0  0  0
  142.4720   80.7090  223.7680 C   0  0  0  0  0  0  0  0  0  0  0  0
  142.1450   79.4560  223.2480 C   0  0  0  0  0  0  0  0  0  0  0  0
  141.1880   79.3620  222.2220 C   0  0  0  0  0  0  0  0  0  0  0  0
  140.8150   78.0870  221.6590 N   0  0  0  0  0  0  0  0  0  0  0  0
  141.3270   77.6400  220.3570 C   0  0  0  0  0  0  0  0  0  0  0  0
  141.8290   76.2000  220.4770 C   0  0  0  0  0  0  0  0  0  0  0  0
  140.8510   75.3430  221.1650 N   0  0  0  0  0  0  0  0  0  0  0  0
  141.1200   73.9310  221.2840 C   0  0  0  0  0  0  0  0  0  0  0  0
  140.6430   73.2350  222.3490 N   0  0  0  0  0  0  0  0  0  0  0  0
  140.8680   71.9000  222.4670 C   0  0  0  0  0  0  0  0  0  0  0  0
  140.3600   71.1630  223.6000 N   0  0  0  0  0  0  0  0  0  0  0  0
  139.1380   70.3540  223.4740 C   0  0  0  0  0  0  0  0  0  0  0  0
  139.2670   69.0740  224.2910 C   0  0  0  0  0  0  0  0  0  0  0  0
  139.6250   69.3930  225.7140 C   0  0  0  0  0  0  0  0  0  0  0  0
  139.2160   68.5330  226.7460 C   0  0  0  0  0  0  0  0  0  0  0  0
  139.5800   68.7980  228.0690 C   0  0  0  0  0  0  0  0  0  0  0  0
  140.3670   69.9110  228.3680 C   0  0  0  0  0  0  0  0  0  0  0  0
  140.7940   70.7610  227.3450 C   0  0  0  0  0  0  0  0  0  0  0  0
  140.4270   70.5120  226.0130 C   0  0  0  0  0  0  0  0  0  0  0  0
  140.9190   71.4500  224.9340 C   0  0  0  0  0  0  0  0  0  0  0  0
  141.5810   71.2630  221.5010 N   0  0  0  0  0  0  0  0  0  0  0  0
  142.0730   71.9440  220.4340 C   0  0  0  0  0  0  0  0  0  0  0  0
  142.8390   71.2570  219.4210 N   0  0  0  0  0  0  0  0  0  0  0  0
  143.9210   71.9230  218.6890 C   0  0  0  0  0  0  0  0  0  0  0  0
  145.2460   71.2340  219.0170 C   0  0  0  0  0  0  0  0  0  0  0  0
  145.1370   69.7260  218.9490 C   0  0  0  0  0  0  0  0  0  0  0  0
  146.3130   68.9600  218.8860 C   0  0  0  0  0  0  0  0  0  0  0  0
  146.2500   67.5640  218.8820 C   0  0  0  0  0  0  0  0  0  0  0  0
  145.0130   66.9190  218.9450 C   0  0  0  0  0  0  0  0  0  0  0  0
  143.8350   67.6660  219.0240 C   0  0  0  0  0  0  0  0  0  0  0  0
  143.8840   69.0690  219.0460 C   0  0  0  0  0  0  0  0  0  0  0  0
  142.5910   69.8460  219.0970 C   0  0  0  0  0  0  0  0  0  0  0  0
  141.8390   73.2780  220.3340 N   0  0  0  0  0  0  0  0  0  0  0  0
  139.5850   75.9180  221.6510 C   0  0  0  0  0  0  0  0  0  0  0  0
  139.8450   77.2470  222.3780 C   0  0  0  0  0  0  0  0  0  0  0  0
  140.5740   80.4970  221.7800 N   0  0  0  0  0  0  0  0  0  0  0  0
  140.8820   81.7260  222.2740 C   0  0  0  0  0  0  0  0  0  0  0  0
  142.0994   82.8455  223.6787 H   0  0  0  0  0  0  0  0  0  0  0  0
  143.2263   80.7943  224.5641 H   0  0  0  0  0  0  0  0  0  0  0  0
  142.6317   78.5496  223.6374 H   0  0  0  0  0  0  0  0  0  0  0  0
  140.5211   77.6869  219.6098 H   0  0  0  0  0  0  0  0  0  0  0  0
  142.1545   78.2932  220.0431 H   0  0  0  0  0  0  0  0  0  0  0  0
  142.0085   75.7990  219.4686 H   0  0  0  0  0  0  0  0  0  0  0  0
  142.7572   76.2064  221.0672 H   0  0  0  0  0  0  0  0  0  0  0  0
  138.2787   70.9343  223.8412 H   0  0  0  0  0  0  0  0  0  0  0  0
  138.9894   70.0910  222.4163 H   0  0  0  0  0  0  0  0  0  0  0  0
  138.3091   68.5336  224.2710 H   0  0  0  0  0  0  0  0  0  0  0  0
  140.0623   68.4517  223.8547 H   0  0  0  0  0  0  0  0  0  0  0  0
  138.6068   67.6474  226.5122 H   0  0  0  0  0  0  0  0  0  0  0  0
  139.2459   68.1287  228.8754 H   0  0  0  0  0  0  0  0  0  0  0  0
  140.6513   70.1191  229.4100 H   0  0  0  0  0  0  0  0  0  0  0  0
  141.4222   71.6315  227.5848 H   0  0  0  0  0  0  0  0  0  0  0  0
  140.6414   72.4771  225.2134 H   0  0  0  0  0  0  0  0  0  0  0  0
  142.0083   71.3149  224.8623 H   0  0  0  0  0  0  0  0  0  0  0  0
  143.7293   71.8568  217.6078 H   0  0  0  0  0  0  0  0  0  0  0  0
  143.9710   72.9815  218.9842 H   0  0  0  0  0  0  0  0  0  0  0  0
  146.0069   71.5673  218.2959 H   0  0  0  0  0  0  0  0  0  0  0  0
  145.5236   71.5070  220.0458 H   0  0  0  0  0  0  0  0  0  0  0  0
  147.2903   69.4627  218.8395 H   0  0  0  0  0  0  0  0  0  0  0  0
  147.1759   66.9725  218.8292 H   0  0  0  0  0  0  0  0  0  0  0  0
  144.9660   65.8201  218.9324 H   0  0  0  0  0  0  0  0  0  0  0  0
  142.8635   67.1520  219.0692 H   0  0  0  0  0  0  0  0  0  0  0  0
  142.0945   69.7834  218.1174 H   0  0  0  0  0  0  0  0  0  0  0  0
  141.9518   69.4129  219.8805 H   0  0  0  0  0  0  0  0  0  0  0  0
  138.9164   76.0972  220.7961 H   0  0  0  0  0  0  0  0  0  0  0  0
  139.1186   75.2119  222.3538 H   0  0  0  0  0  0  0  0  0  0  0  0
  138.8957   77.7958  222.4653 H   0  0  0  0  0  0  0  0  0  0  0  0
  140.2634   77.0164  223.3688 H   0  0  0  0  0  0  0  0  0  0  0  0
  140.3740   82.6194  221.8818 H   0  0  0  0  0  0  0  0  0  0  0  0
  1  2  2  0
  2  3  1  0
  3  4  2  0
  4  5  1  0
  5  6  1  0
  6  7  1  0
  7  8  1  0
  8  9  1  0
  9 10  2  0
 10 11  1  0
 11 12  1  0
 12 13  1  0
 13 14  1  0
 14 15  1  0
 15 16  2  0
 16 17  1  0
 17 18  2  0
 18 19  1  0
 19 20  2  0
 20 21  1  0
 11 22  2  0
 22 23  1  0
 23 24  1  0
 24 25  1  0
 25 26  1  0
 26 27  1  0
 27 28  2  0
 28 29  1  0
 29 30  2  0
 30 31  1  0
 31 32  2  0
 32 33  1  0
 23 34  2  0
  8 35  1  0
 35 36  1  0
  4 37  1  0
 37 38  2  0
 38  1  1  0
 36  5  1  0
 34  9  1  0
 21 12  1  0
 33 24  1  0
 20 15  1  0
 32 27  1  0
  1 39  1  0
  2 40  1  0
  3 41  1  0
  6 42  1  0
  6 43  1  0
  7 44  1  0
  7 45  1  0
 13 46  1  0
 13 47  1  0
 14 48  1  0
 14 49  1  0
 16 50  1  0
 17 51  1  0
 18 52  1  0
 19 53  1  0
 21 54  1  0
 21 55  1  0
 25 56  1  0
 25 57  1  0
 26 58  1  0
 26 59  1  0
 28 60  1  0
 29 61  1  0
 30 62  1  0
 31 63  1  0
 33 64  1  0
 33 65  1  0
 35 66  1  0
 35 67  1  0
 36 68  1  0
 36 69  1  0
 38 70  1  0
M  END
>  <UniqueID>  (52) 
49

>  <SMILES>  (52) 
c1ccc(N2CCN(c3nc(N4CCc5ccccc5C4)nc(N4CCc5ccccc5C4)n3)CC2)nc1

>  <Energy>  (52) 
88.72495897090043

>  <Genealogy>  (52) 
c1ccc(N2CCN(c3nc(N4CCc5ccccc5C4)nc(N4CCc5ccccc5C4)n3)CC2)nc1 (3D coordinates assigned)
c1ccc(N2CCN(c3nc(N4CCc5ccccc5C4)nc(N4CCc5ccccc5C4)n3)CC2)nc1 (nonaromatic ring conformer: 88.72495897090043 kcal/mol)

>  <smiles>  (52) 
c1ccc(N2CCN(c3nc(N4CCc5ccccc5C4)nc(N4CCc5ccccc5C4)n3)CC2)nc1

>  <score_type>  (52) 
oracle

>  <origin>  (52) 
autodockgpu

>  <m_score__min__energy>  (52) 
-10.69

>  <m_primary>  (52) 
energy

>  <meeko>  (52) 
{"free_energy": -10.69, "intermolecular_energy": -11.88, "internal_energy": -1.05, "cluster_size": 20, "cluster_id": 1, "rank_in_cluster": 1}

>  <energy>  (52) 
-10.54

>  <cluster_rmsd>  (52) 
0.25

>  <rmsd>  (52) 
269.35

>  <cluster>  (52) 
1

$$$$
QWCMPUPUGDWNGO-UHFFFAOYNA-N
     RDKit          3D

 70 76  0  0  0  0  0  0  0  0999 V2000
  141.8360   82.0090  223.1160 C   0  0  0  0  0  0  0  0  0  0  0  0
  142.4700   80.8750  223.6260 C   0  0  0  0  0  0  0  0  0  0  0  0
  142.1330   79.6100  223.1420 C   0  0  0  0  0  0  0  0  0  0  0  0
  141.1630   79.4930  222.1310 C   0  0  0  0  0  0  0  0  0  0  0  0
  140.7800   78.2050  221.6050 N   0  0  0  0  0  0  0  0  0  0  0  0
  141.3560   77.6800  220.3610 C   0  0  0  0  0  0  0  0  0  0  0  0
  141.7960   76.2310  220.5790 C   0  0  0  0  0  0  0  0  0  0  0  0
  140.7460   75.4410  221.2410 N   0  0  0  0  0  0  0  0  0  0  0  0
  140.9560   74.0280  221.4430 C   0  0  0  0  0  0  0  0  0  0  0  0
  141.8740   73.3630  220.6930 N   0  0  0  0  0  0  0  0  0  0  0  0
  142.1010   72.0370  220.8850 C   0  0  0  0  0  0  0  0  0  0  0  0
  143.0770   71.3330  220.0860 N   0  0  0  0  0  0  0  0  0  0  0  0
  144.0940   72.0770  219.3270 C   0  0  0  0  0  0  0  0  0  0  0  0
  145.4210   71.3290  219.3500 C   0  0  0  0  0  0  0  0  0  0  0  0
  145.2370   69.9180  218.8730 C   0  0  0  0  0  0  0  0  0  0  0  0
  146.2980   69.2520  218.2370 C   0  0  0  0  0  0  0  0  0  0  0  0
  146.1500   67.9240  217.8260 C   0  0  0  0  0  0  0  0  0  0  0  0
  144.9530   67.2480  218.0620 C   0  0  0  0  0  0  0  0  0  0  0  0
  143.8990   67.8970  218.7110 C   0  0  0  0  0  0  0  0  0  0  0  0
  144.0300   69.2330  219.1190 C   0  0  0  0  0  0  0  0  0  0  0  0
  142.8700   69.8960  219.8280 C   0  0  0  0  0  0  0  0  0  0  0  0
  141.3960   71.3780  221.8410 N   0  0  0  0  0  0  0  0  0  0  0  0
  140.4690   72.0240  222.5940 C   0  0  0  0  0  0  0  0  0  0  0  0
  139.7190   71.3090  223.6000 N   0  0  0  0  0  0  0  0  0  0  0  0
  138.6950   70.3230  223.2390 C   0  0  0  0  0  0  0  0  0  0  0  0
  139.1320   68.9430  223.7320 C   0  0  0  0  0  0  0  0  0  0  0  0
  139.6420   68.9810  225.1570 C   0  0  0  0  0  0  0  0  0  0  0  0
  139.7610   67.7770  225.8690 C   0  0  0  0  0  0  0  0  0  0  0  0
  140.2840   67.7700  227.1660 C   0  0  0  0  0  0  0  0  0  0  0  0
  140.6980   68.9630  227.7600 C   0  0  0  0  0  0  0  0  0  0  0  0
  140.6010   70.1670  227.0580 C   0  0  0  0  0  0  0  0  0  0  0  0
  140.0930   70.1870  225.7500 C   0  0  0  0  0  0  0  0  0  0  0  0
  139.9700   71.5100  225.0320 C   0  0  0  0  0  0  0  0  0  0  0  0
  140.2540   73.3490  222.3870 N   0  0  0  0  0  0  0  0  0  0  0  0
  139.4740   76.0810  221.6180 C   0  0  0  0  0  0  0  0  0  0  0  0
  139.7370   77.4340  222.2980 C   0  0  0  0  0  0  0  0  0  0  0  0
  140.5460   80.6190  221.6700 N   0  0  0  0  0  0  0  0  0  0  0  0
  140.8630   81.8590  222.1290 C   0  0  0  0  0  0  0  0  0  0  0  0
  142.1010   83.0095  223.4885 H   0  0  0  0  0  0  0  0  0  0  0  0
  143.2353   80.9782  224.4094 H   0  0  0  0  0  0  0  0  0  0  0  0
  142.6221   78.7123  223.5480 H   0  0  0  0  0  0  0  0  0  0  0  0
  140.6012   77.7184  219.5618 H   0  0  0  0  0  0  0  0  0  0  0  0
  142.2250   78.2892  220.0717 H   0  0  0  0  0  0  0  0  0  0  0  0
  142.0237   75.7763  219.6036 H   0  0  0  0  0  0  0  0  0  0  0  0
  142.6847   76.2346  221.2272 H   0  0  0  0  0  0  0  0  0  0  0  0
  143.7590   72.1903  218.2854 H   0  0  0  0  0  0  0  0  0  0  0  0
  144.2322   73.0664  219.7874 H   0  0  0  0  0  0  0  0  0  0  0  0
  146.1377   71.8429  218.6926 H   0  0  0  0  0  0  0  0  0  0  0  0
  145.8005   71.3091  220.3823 H   0  0  0  0  0  0  0  0  0  0  0  0
  147.2485   69.7773  218.0618 H   0  0  0  0  0  0  0  0  0  0  0  0
  146.9788   67.4114  217.3157 H   0  0  0  0  0  0  0  0  0  0  0  0
  144.8385   66.2033  217.7371 H   0  0  0  0  0  0  0  0  0  0  0  0
  142.9603   67.3567  218.9032 H   0  0  0  0  0  0  0  0  0  0  0  0
  141.9706   69.7809  219.2053 H   0  0  0  0  0  0  0  0  0  0  0  0
  142.7680   69.4048  220.8069 H   0  0  0  0  0  0  0  0  0  0  0  0
  137.7388   70.5962  223.7092 H   0  0  0  0  0  0  0  0  0  0  0  0
  138.5692   70.3030  222.1464 H   0  0  0  0  0  0  0  0  0  0  0  0
  138.2714   68.2597  223.6816 H   0  0  0  0  0  0  0  0  0  0  0  0
  139.9543   68.5985  223.0876 H   0  0  0  0  0  0  0  0  0  0  0  0
  139.4408   66.8330  225.4038 H   0  0  0  0  0  0  0  0  0  0  0  0
  140.3692   66.8228  227.7187 H   0  0  0  0  0  0  0  0  0  0  0  0
  141.1016   68.9554  228.7832 H   0  0  0  0  0  0  0  0  0  0  0  0
  140.9247   71.1047  227.5333 H   0  0  0  0  0  0  0  0  0  0  0  0
  139.1355   72.0794  225.4672 H   0  0  0  0  0  0  0  0  0  0  0  0
  140.9146   72.0616  225.1486 H   0  0  0  0  0  0  0  0  0  0  0  0
  138.8669   76.2410  220.7148 H   0  0  0  0  0  0  0  0  0  0  0  0
  138.9391   75.4258  222.3212 H   0  0  0  0  0  0  0  0  0  0  0  0
  138.8050   78.0182  222.2989 H   0  0  0  0  0  0  0  0  0  0  0  0
  140.0842   77.2374  223.3231 H   0  0  0  0  0  0  0  0  0  0  0  0
  140.3518   82.7437  221.7216 H   0  0  0  0  0  0  0  0  0  0  0  0
  1  2  2  0
  2  3  1  0
  3  4  2  0
  4  5  1  0
  5  6  1  0
  6  7  1  0
  7  8  1  0
  8  9  1  0
  9 10  2  0
 10 11  1  0
 11 12  1  0
 12 13  1  0
 13 14  1  0
 14 15  1  0
 15 16  2  0
 16 17  1  0
 17 18  2  0
 18 19  1  0
 19 20  2  0
 20 21  1  0
 11 22  2  0
 22 23  1  0
 23 24  1  0
 24 25  1  0
 25 26  1  0
 26 27  1  0
 27 28  2  0
 28 29  1  0
 29 30  2  0
 30 31  1  0
 31 32  2  0
 32 33  1  0
 23 34  2  0
  8 35  1  0
 35 36  1  0
  4 37  1  0
 37 38  2  0
 38  1  1  0
 36  5  1  0
 34  9  1  0
 21 12  1  0
 33 24  1  0
 20 15  1  0
 32 27  1  0
  1 39  1  0
  2 40  1  0
  3 41  1  0
  6 42  1  0
  6 43  1  0
  7 44  1  0
  7 45  1  0
 13 46  1  0
 13 47  1  0
 14 48  1  0
 14 49  1  0
 16 50  1  0
 17 51  1  0
 18 52  1  0
 19 53  1  0
 21 54  1  0
 21 55  1  0
 25 56  1  0
 25 57  1  0
 26 58  1  0
 26 59  1  0
 28 60  1  0
 29 61  1  0
 30 62  1  0
 31 63  1  0
 33 64  1  0
 33 65  1  0
 35 66  1  0
 35 67  1  0
 36 68  1  0
 36 69  1  0
 38 70  1  0
M  END
>  <UniqueID>  (53) 
49

>  <SMILES>  (53) 
c1ccc(N2CCN(c3nc(N4CCc5ccccc5C4)nc(N4CCc5ccccc5C4)n3)CC2)nc1

>  <Energy>  (53) 
88.72495897090043

>  <Genealogy>  (53) 
c1ccc(N2CCN(c3nc(N4CCc5ccccc5C4)nc(N4CCc5ccccc5C4)n3)CC2)nc1 (3D coordinates assigned)
c1ccc(N2CCN(c3nc(N4CCc5ccccc5C4)nc(N4CCc5ccccc5C4)n3)CC2)nc1 (nonaromatic ring conformer: 88.72495897090043 kcal/mol)

>  <smiles>  (53) 
c1ccc(N2CCN(c3nc(N4CCc5ccccc5C4)nc(N4CCc5ccccc5C4)n3)CC2)nc1

>  <score_type>  (53) 
oracle

>  <origin>  (53) 
autodockgpu

>  <m_score__min__energy>  (53) 
-10.69

>  <m_primary>  (53) 
energy

>  <meeko>  (53) 
{"free_energy": -10.42, "intermolecular_energy": -11.61, "internal_energy": -1.06, "cluster_size": 20, "cluster_id": 1, "rank_in_cluster": 14}

>  <energy>  (53) 
-10.52

>  <cluster_rmsd>  (53) 
0.27

>  <rmsd>  (53) 
269.37

>  <cluster>  (53) 
1

$$$$
QWCMPUPUGDWNGO-UHFFFAOYNA-N
     RDKit          3D

 70 76  0  0  0  0  0  0  0  0999 V2000
  142.1520   81.6740  223.4980 C   0  0  0  0  0  0  0  0  0  0  0  0
  140.9950   81.6470  222.7180 C   0  0  0  0  0  0  0  0  0  0  0  0
  140.5890   80.4570  222.1120 C   0  0  0  0  0  0  0  0  0  0  0  0
  141.3480   79.2890  222.3070 C   0  0  0  0  0  0  0  0  0  0  0  0
  140.9690   78.0380  221.6950 N   0  0  0  0  0  0  0  0  0  0  0  0
  141.5490   77.5970  220.4210 C   0  0  0  0  0  0  0  0  0  0  0  0
  141.9920   76.1380  220.5440 C   0  0  0  0  0  0  0  0  0  0  0  0
  140.9420   75.3040  221.1490 N   0  0  0  0  0  0  0  0  0  0  0  0
  141.1540   73.8810  221.2580 C   0  0  0  0  0  0  0  0  0  0  0  0
  140.6790   73.2030  222.3350 N   0  0  0  0  0  0  0  0  0  0  0  0
  140.8510   71.8590  222.4430 C   0  0  0  0  0  0  0  0  0  0  0  0
  140.3450   71.1410  223.5890 N   0  0  0  0  0  0  0  0  0  0  0  0
  139.1140   70.3430  223.4840 C   0  0  0  0  0  0  0  0  0  0  0  0
  139.2360   69.0720  224.3140 C   0  0  0  0  0  0  0  0  0  0  0  0
  139.6100   69.4030  225.7300 C   0  0  0  0  0  0  0  0  0  0  0  0
  139.2020   68.5590  226.7760 C   0  0  0  0  0  0  0  0  0  0  0  0
  139.5810   68.8360  228.0920 C   0  0  0  0  0  0  0  0  0  0  0  0
  140.3830   69.9430  228.3710 C   0  0  0  0  0  0  0  0  0  0  0  0
  140.8100   70.7770  227.3350 C   0  0  0  0  0  0  0  0  0  0  0  0
  140.4280   70.5170  226.0100 C   0  0  0  0  0  0  0  0  0  0  0  0
  140.9200   71.4370  224.9150 C   0  0  0  0  0  0  0  0  0  0  0  0
  141.5060   71.1960  221.4550 N   0  0  0  0  0  0  0  0  0  0  0  0
  141.9960   71.8590  220.3760 C   0  0  0  0  0  0  0  0  0  0  0  0
  142.7010   71.1420  219.3380 N   0  0  0  0  0  0  0  0  0  0  0  0
  143.7530   71.7810  218.5410 C   0  0  0  0  0  0  0  0  0  0  0  0
  145.0840   71.0810  218.8150 C   0  0  0  0  0  0  0  0  0  0  0  0
  144.9540   69.5730  218.7820 C   0  0  0  0  0  0  0  0  0  0  0  0
  146.1150   68.7910  218.6750 C   0  0  0  0  0  0  0  0  0  0  0  0
  146.0350   67.3960  218.7010 C   0  0  0  0  0  0  0  0  0  0  0  0
  144.7950   66.7680  218.8380 C   0  0  0  0  0  0  0  0  0  0  0  0
  143.6320   67.5320  218.9610 C   0  0  0  0  0  0  0  0  0  0  0  0
  143.7000   68.9340  218.9540 C   0  0  0  0  0  0  0  0  0  0  0  0
  142.4200   69.7290  219.0550 C   0  0  0  0  0  0  0  0  0  0  0  0
  141.8160   73.2020  220.2860 N   0  0  0  0  0  0  0  0  0  0  0  0
  139.6670   75.9160  221.5640 C   0  0  0  0  0  0  0  0  0  0  0  0
  139.9250   77.2210  222.3330 C   0  0  0  0  0  0  0  0  0  0  0  0
  142.4850   79.3530  223.0570 N   0  0  0  0  0  0  0  0  0  0  0  0
  142.8940   80.5040  223.6550 C   0  0  0  0  0  0  0  0  0  0  0  0
  142.4746   82.6071  223.9831 H   0  0  0  0  0  0  0  0  0  0  0  0
  140.4029   82.5638  222.5808 H   0  0  0  0  0  0  0  0  0  0  0  0
  139.6837   80.4328  221.4876 H   0  0  0  0  0  0  0  0  0  0  0  0
  140.7959   77.6862  219.6242 H   0  0  0  0  0  0  0  0  0  0  0  0
  142.4173   78.2258  220.1747 H   0  0  0  0  0  0  0  0  0  0  0  0
  142.2237   75.7492  219.5414 H   0  0  0  0  0  0  0  0  0  0  0  0
  142.8789   76.1006  221.1936 H   0  0  0  0  0  0  0  0  0  0  0  0
  138.2642   70.9366  223.8520 H   0  0  0  0  0  0  0  0  0  0  0  0
  138.9540   70.0688  222.4308 H   0  0  0  0  0  0  0  0  0  0  0  0
  138.2721   68.5421  224.3085 H   0  0  0  0  0  0  0  0  0  0  0  0
  140.0205   68.4361  223.8780 H   0  0  0  0  0  0  0  0  0  0  0  0
  138.5819   67.6769  226.5583 H   0  0  0  0  0  0  0  0  0  0  0  0
  139.2465   68.1802  228.9094 H   0  0  0  0  0  0  0  0  0  0  0  0
  140.6794   70.1593  229.4080 H   0  0  0  0  0  0  0  0  0  0  0  0
  141.4499   71.6432  227.5593 H   0  0  0  0  0  0  0  0  0  0  0  0
  140.6565   72.4703  225.1850 H   0  0  0  0  0  0  0  0  0  0  0  0
  142.0070   71.2885  224.8345 H   0  0  0  0  0  0  0  0  0  0  0  0
  143.5067   71.6983  217.4721 H   0  0  0  0  0  0  0  0  0  0  0  0
  143.8305   72.8437  218.8141 H   0  0  0  0  0  0  0  0  0  0  0  0
  145.8113   71.3908  218.0501 H   0  0  0  0  0  0  0  0  0  0  0  0
  145.4162   71.3695  219.8232 H   0  0  0  0  0  0  0  0  0  0  0  0
  147.0948   69.2798  218.5699 H   0  0  0  0  0  0  0  0  0  0  0  0
  146.9500   66.7917  218.6134 H   0  0  0  0  0  0  0  0  0  0  0  0
  144.7341   65.6697  218.8491 H   0  0  0  0  0  0  0  0  0  0  0  0
  142.6575   67.0322  219.0639 H   0  0  0  0  0  0  0  0  0  0  0  0
  141.8737   69.6542  218.1032 H   0  0  0  0  0  0  0  0  0  0  0  0
  141.8162   69.3193  219.8782 H   0  0  0  0  0  0  0  0  0  0  0  0
  139.0624   76.1346  220.6715 H   0  0  0  0  0  0  0  0  0  0  0  0
  139.1314   75.2146  222.2206 H   0  0  0  0  0  0  0  0  0  0  0  0
  138.9918   77.8022  222.3698 H   0  0  0  0  0  0  0  0  0  0  0  0
  140.2692   76.9579  223.3441 H   0  0  0  0  0  0  0  0  0  0  0  0
  143.8107   80.5119  224.2629 H   0  0  0  0  0  0  0  0  0  0  0  0
  1  2  2  0
  2  3  1  0
  3  4  2  0
  4  5  1  0
  5  6  1  0
  6  7  1  0
  7  8  1  0
  8  9  1  0
  9 10  2  0
 10 11  1  0
 11 12  1  0
 12 13  1  0
 13 14  1  0
 14 15  1  0
 15 16  2  0
 16 17  1  0
 17 18  2  0
 18 19  1  0
 19 20  2  0
 20 21  1  0
 11 22  2  0
 22 23  1  0
 23 24  1  0
 24 25  1  0
 25 26  1  0
 26 27  1  0
 27 28  2  0
 28 29  1  0
 29 30  2  0
 30 31  1  0
 31 32  2  0
 32 33  1  0
 23 34  2  0
  8 35  1  0
 35 36  1  0
  4 37  1  0
 37 38  2  0
 38  1  1  0
 36  5  1  0
 34  9  1  0
 21 12  1  0
 33 24  1  0
 20 15  1  0
 32 27  1  0
  1 39  1  0
  2 40  1  0
  3 41  1  0
  6 42  1  0
  6 43  1  0
  7 44  1  0
  7 45  1  0
 13 46  1  0
 13 47  1  0
 14 48  1  0
 14 49  1  0
 16 50  1  0
 17 51  1  0
 18 52  1  0
 19 53  1  0
 21 54  1  0
 21 55  1  0
 25 56  1  0
 25 57  1  0
 26 58  1  0
 26 59  1  0
 28 60  1  0
 29 61  1  0
 30 62  1  0
 31 63  1  0
 33 64  1  0
 33 65  1  0
 35 66  1  0
 35 67  1  0
 36 68  1  0
 36 69  1  0
 38 70  1  0
M  END
>  <UniqueID>  (54) 
49

>  <SMILES>  (54) 
c1ccc(N2CCN(c3nc(N4CCc5ccccc5C4)nc(N4CCc5ccccc5C4)n3)CC2)nc1

>  <Energy>  (54) 
88.72495897090043

>  <Genealogy>  (54) 
c1ccc(N2CCN(c3nc(N4CCc5ccccc5C4)nc(N4CCc5ccccc5C4)n3)CC2)nc1 (3D coordinates assigned)
c1ccc(N2CCN(c3nc(N4CCc5ccccc5C4)nc(N4CCc5ccccc5C4)n3)CC2)nc1 (nonaromatic ring conformer: 88.72495897090043 kcal/mol)

>  <smiles>  (54) 
c1ccc(N2CCN(c3nc(N4CCc5ccccc5C4)nc(N4CCc5ccccc5C4)n3)CC2)nc1

>  <score_type>  (54) 
oracle

>  <origin>  (54) 
autodockgpu

>  <m_score__min__energy>  (54) 
-10.69

>  <m_primary>  (54) 
energy

>  <meeko>  (54) 
{"free_energy": -10.58, "intermolecular_energy": -11.77, "internal_energy": -1.04, "cluster_size": 20, "cluster_id": 1, "rank_in_cluster": 11}

>  <energy>  (54) 
-10.42

>  <cluster_rmsd>  (54) 
0.61

>  <rmsd>  (54) 
269.39

>  <cluster>  (54) 
1

$$$$
QWCMPUPUGDWNGO-UHFFFAOYNA-N
     RDKit          3D

 70 76  0  0  0  0  0  0  0  0999 V2000
  141.8160   81.6600  223.3990 C   0  0  0  0  0  0  0  0  0  0  0  0
  142.6900   80.5860  223.5720 C   0  0  0  0  0  0  0  0  0  0  0  0
  142.4090   79.3550  222.9770 C   0  0  0  0  0  0  0  0  0  0  0  0
  141.2500   79.2150  222.1930 C   0  0  0  0  0  0  0  0  0  0  0  0
  140.9180   77.9600  221.5640 N   0  0  0  0  0  0  0  0  0  0  0  0
  141.5860   77.5150  220.3340 C   0  0  0  0  0  0  0  0  0  0  0  0
  142.0240   76.0580  220.4940 C   0  0  0  0  0  0  0  0  0  0  0  0
  140.9360   75.2230  221.0300 N   0  0  0  0  0  0  0  0  0  0  0  0
  141.1450   73.8020  221.1600 C   0  0  0  0  0  0  0  0  0  0  0  0
  140.6730   73.1420  222.2500 N   0  0  0  0  0  0  0  0  0  0  0  0
  140.8400   71.7990  222.3780 C   0  0  0  0  0  0  0  0  0  0  0  0
  140.3370   71.1000  223.5370 N   0  0  0  0  0  0  0  0  0  0  0  0
  139.1200   70.2810  223.4420 C   0  0  0  0  0  0  0  0  0  0  0  0
  139.2570   69.0320  224.3030 C   0  0  0  0  0  0  0  0  0  0  0  0
  139.6140   69.4020  225.7130 C   0  0  0  0  0  0  0  0  0  0  0  0
  139.2110   68.5780  226.7760 C   0  0  0  0  0  0  0  0  0  0  0  0
  139.5750   68.8920  228.0880 C   0  0  0  0  0  0  0  0  0  0  0  0
  140.3570   70.0190  228.3470 C   0  0  0  0  0  0  0  0  0  0  0  0
  140.7780   70.8350  227.2940 C   0  0  0  0  0  0  0  0  0  0  0  0
  140.4110   70.5360  225.9720 C   0  0  0  0  0  0  0  0  0  0  0  0
  140.8960   71.4380  224.8590 C   0  0  0  0  0  0  0  0  0  0  0  0
  141.4900   71.1190  221.3980 N   0  0  0  0  0  0  0  0  0  0  0  0
  141.9770   71.7630  220.3050 C   0  0  0  0  0  0  0  0  0  0  0  0
  142.6750   71.0290  219.2770 N   0  0  0  0  0  0  0  0  0  0  0  0
  143.7110   71.6570  218.4510 C   0  0  0  0  0  0  0  0  0  0  0  0
  145.0520   70.9750  218.7250 C   0  0  0  0  0  0  0  0  0  0  0  0
  144.9350   69.4660  218.7280 C   0  0  0  0  0  0  0  0  0  0  0  0
  146.1020   68.6930  218.6250 C   0  0  0  0  0  0  0  0  0  0  0  0
  146.0350   67.2970  218.6850 C   0  0  0  0  0  0  0  0  0  0  0  0
  144.8030   66.6630  218.8530 C   0  0  0  0  0  0  0  0  0  0  0  0
  143.6340   67.4190  218.9730 C   0  0  0  0  0  0  0  0  0  0  0  0
  143.6890   68.8210  218.9320 C   0  0  0  0  0  0  0  0  0  0  0  0
  142.4030   69.6070  219.0300 C   0  0  0  0  0  0  0  0  0  0  0  0
  141.8010   73.1050  220.1950 N   0  0  0  0  0  0  0  0  0  0  0  0
  139.6350   75.8330  221.3530 C   0  0  0  0  0  0  0  0  0  0  0  0
  139.8350   77.1430  222.1320 C   0  0  0  0  0  0  0  0  0  0  0  0
  140.4060   80.2780  222.0620 N   0  0  0  0  0  0  0  0  0  0  0  0
  140.6640   81.4840  222.6340 C   0  0  0  0  0  0  0  0  0  0  0  0
  142.0336   82.6343  223.8610 H   0  0  0  0  0  0  0  0  0  0  0  0
  143.6002   80.7095  224.1772 H   0  0  0  0  0  0  0  0  0  0  0  0
  143.0883   78.5017  223.1201 H   0  0  0  0  0  0  0  0  0  0  0  0
  140.8891   77.5981  219.4869 H   0  0  0  0  0  0  0  0  0  0  0  0
  142.4673   78.1456  220.1450 H   0  0  0  0  0  0  0  0  0  0  0  0
  142.3251   75.6654  219.5116 H   0  0  0  0  0  0  0  0  0  0  0  0
  142.8646   76.0262  221.2028 H   0  0  0  0  0  0  0  0  0  0  0  0
  138.2582   70.8693  223.7901 H   0  0  0  0  0  0  0  0  0  0  0  0
  138.9712   69.9799  222.3945 H   0  0  0  0  0  0  0  0  0  0  0  0
  138.3023   68.4857  224.3028 H   0  0  0  0  0  0  0  0  0  0  0  0
  140.0558   68.3998  223.8880 H   0  0  0  0  0  0  0  0  0  0  0  0
  138.6062   67.6815  226.5751 H   0  0  0  0  0  0  0  0  0  0  0  0
  139.2448   68.2501  228.9181 H   0  0  0  0  0  0  0  0  0  0  0  0
  140.6419   70.2647  229.3807 H   0  0  0  0  0  0  0  0  0  0  0  0
  141.4010   71.7174  227.5019 H   0  0  0  0  0  0  0  0  0  0  0  0
  140.6125   72.4727  225.1019 H   0  0  0  0  0  0  0  0  0  0  0  0
  141.9860   71.3070  224.7905 H   0  0  0  0  0  0  0  0  0  0  0  0
  143.4518   71.5459  217.3878 H   0  0  0  0  0  0  0  0  0  0  0  0
  143.7826   72.7268  218.6968 H   0  0  0  0  0  0  0  0  0  0  0  0
  145.7674   71.2734  217.9445 H   0  0  0  0  0  0  0  0  0  0  0  0
  145.3937   71.2895  219.7221 H   0  0  0  0  0  0  0  0  0  0  0  0
  147.0758   69.1882  218.4962 H   0  0  0  0  0  0  0  0  0  0  0  0
  146.9540   66.6985  218.5997 H   0  0  0  0  0  0  0  0  0  0  0  0
  144.7521   65.5648  218.8910 H   0  0  0  0  0  0  0  0  0  0  0  0
  142.6657   66.9129  219.1003 H   0  0  0  0  0  0  0  0  0  0  0  0
  141.8462   69.5054  218.0868 H   0  0  0  0  0  0  0  0  0  0  0  0
  141.8125   69.2113  219.8695 H   0  0  0  0  0  0  0  0  0  0  0  0
  139.0929   76.0456  220.4198 H   0  0  0  0  0  0  0  0  0  0  0  0
  139.0577   75.1330  221.9749 H   0  0  0  0  0  0  0  0  0  0  0  0
  138.8998   77.7213  222.1010 H   0  0  0  0  0  0  0  0  0  0  0  0
  140.1088   76.8859  223.1659 H   0  0  0  0  0  0  0  0  0  0  0  0
  139.9639   82.3207  222.4932 H   0  0  0  0  0  0  0  0  0  0  0  0
  1  2  2  0
  2  3  1  0
  3  4  2  0
  4  5  1  0
  5  6  1  0
  6  7  1  0
  7  8  1  0
  8  9  1  0
  9 10  2  0
 10 11  1  0
 11 12  1  0
 12 13  1  0
 13 14  1  0
 14 15  1  0
 15 16  2  0
 16 17  1  0
 17 18  2  0
 18 19  1  0
 19 20  2  0
 20 21  1  0
 11 22  2  0
 22 23  1  0
 23 24  1  0
 24 25  1  0
 25 26  1  0
 26 27  1  0
 27 28  2  0
 28 29  1  0
 29 30  2  0
 30 31  1  0
 31 32  2  0
 32 33  1  0
 23 34  2  0
  8 35  1  0
 35 36  1  0
  4 37  1  0
 37 38  2  0
 38  1  1  0
 36  5  1  0
 34  9  1  0
 21 12  1  0
 33 24  1  0
 20 15  1  0
 32 27  1  0
  1 39  1  0
  2 40  1  0
  3 41  1  0
  6 42  1  0
  6 43  1  0
  7 44  1  0
  7 45  1  0
 13 46  1  0
 13 47  1  0
 14 48  1  0
 14 49  1  0
 16 50  1  0
 17 51  1  0
 18 52  1  0
 19 53  1  0
 21 54  1  0
 21 55  1  0
 25 56  1  0
 25 57  1  0
 26 58  1  0
 26 59  1  0
 28 60  1  0
 29 61  1  0
 30 62  1  0
 31 63  1  0
 33 64  1  0
 33 65  1  0
 35 66  1  0
 35 67  1  0
 36 68  1  0
 36 69  1  0
 38 70  1  0
M  END
>  <UniqueID>  (55) 
49

>  <SMILES>  (55) 
c1ccc(N2CCN(c3nc(N4CCc5ccccc5C4)nc(N4CCc5ccccc5C4)n3)CC2)nc1

>  <Energy>  (55) 
88.72495897090043

>  <Genealogy>  (55) 
c1ccc(N2CCN(c3nc(N4CCc5ccccc5C4)nc(N4CCc5ccccc5C4)n3)CC2)nc1 (3D coordinates assigned)
c1ccc(N2CCN(c3nc(N4CCc5ccccc5C4)nc(N4CCc5ccccc5C4)n3)CC2)nc1 (nonaromatic ring conformer: 88.72495897090043 kcal/mol)

>  <smiles>  (55) 
c1ccc(N2CCN(c3nc(N4CCc5ccccc5C4)nc(N4CCc5ccccc5C4)n3)CC2)nc1

>  <score_type>  (55) 
oracle

>  <origin>  (55) 
autodockgpu

>  <m_score__min__energy>  (55) 
-10.69

>  <m_primary>  (55) 
energy

>  <meeko>  (55) 
{"free_energy": -10.52, "intermolecular_energy": -11.71, "internal_energy": -1.04, "cluster_size": 20, "cluster_id": 1, "rank_in_cluster": 13}

>  <energy>  (55) 
-10.41

>  <cluster_rmsd>  (55) 
0.61

>  <rmsd>  (55) 
269.37

>  <cluster>  (55) 
1

$$$$
QWCMPUPUGDWNGO-UHFFFAOYNA-N
     RDKit          3D

 70 76  0  0  0  0  0  0  0  0999 V2000
  146.6830   66.7440  218.2140 C   0  0  0  0  0  0  0  0  0  0  0  0
  146.2870   67.4900  217.1030 C   0  0  0  0  0  0  0  0  0  0  0  0
  145.5300   68.6500  217.2760 C   0  0  0  0  0  0  0  0  0  0  0  0
  145.1860   69.0630  218.5740 C   0  0  0  0  0  0  0  0  0  0  0  0
  144.4010   70.2530  218.7990 N   0  0  0  0  0  0  0  0  0  0  0  0
  143.1320   70.4820  218.0980 C   0  0  0  0  0  0  0  0  0  0  0  0
  142.0670   70.9180  219.1060 C   0  0  0  0  0  0  0  0  0  0  0  0
  142.5670   71.9810  219.9930 N   0  0  0  0  0  0  0  0  0  0  0  0
  141.6640   72.5770  220.9480 C   0  0  0  0  0  0  0  0  0  0  0  0
  141.4110   73.9110  220.9020 N   0  0  0  0  0  0  0  0  0  0  0  0
  140.5460   74.4860  221.7790 C   0  0  0  0  0  0  0  0  0  0  0  0
  140.2780   75.9040  221.7280 N   0  0  0  0  0  0  0  0  0  0  0  0
  138.9100   76.4110  221.9140 C   0  0  0  0  0  0  0  0  0  0  0  0
  138.9320   77.7140  222.7020 C   0  0  0  0  0  0  0  0  0  0  0  0
  139.8500   78.7070  222.0490 C   0  0  0  0  0  0  0  0  0  0  0  0
  139.5980   80.0830  222.1800 C   0  0  0  0  0  0  0  0  0  0  0  0
  140.4690   81.0150  221.6110 C   0  0  0  0  0  0  0  0  0  0  0  0
  141.6040   80.5840  220.9240 C   0  0  0  0  0  0  0  0  0  0  0  0
  141.8730   79.2180  220.8050 C   0  0  0  0  0  0  0  0  0  0  0  0
  141.0010   78.2700  221.3620 C   0  0  0  0  0  0  0  0  0  0  0  0
  141.3330   76.8010  221.2210 C   0  0  0  0  0  0  0  0  0  0  0  0
  139.9330   73.7070  222.7080 N   0  0  0  0  0  0  0  0  0  0  0  0
  140.1820   72.3740  222.7740 C   0  0  0  0  0  0  0  0  0  0  0  0
  139.5310   71.5600  223.7750 N   0  0  0  0  0  0  0  0  0  0  0  0
  138.3730   70.7210  223.4500 C   0  0  0  0  0  0  0  0  0  0  0  0
  138.7450   69.2530  223.6530 C   0  0  0  0  0  0  0  0  0  0  0  0
  139.4720   69.0220  224.9600 C   0  0  0  0  0  0  0  0  0  0  0  0
  139.5830   67.7140  225.4570 C   0  0  0  0  0  0  0  0  0  0  0  0
  140.2980   67.4590  226.6310 C   0  0  0  0  0  0  0  0  0  0  0  0
  140.9120   68.5080  227.3170 C   0  0  0  0  0  0  0  0  0  0  0  0
  140.8250   69.8140  226.8280 C   0  0  0  0  0  0  0  0  0  0  0  0
  140.1240   70.0810  225.6410 C   0  0  0  0  0  0  0  0  0  0  0  0
  140.0200   71.5090  225.1580 C   0  0  0  0  0  0  0  0  0  0  0  0
  141.0490   71.8170  221.8910 N   0  0  0  0  0  0  0  0  0  0  0  0
  143.9490   72.4700  219.8450 C   0  0  0  0  0  0  0  0  0  0  0  0
  144.9220   71.2900  219.7030 C   0  0  0  0  0  0  0  0  0  0  0  0
  145.5710   68.3000  219.6380 N   0  0  0  0  0  0  0  0  0  0  0  0
  146.3090   67.1680  219.4880 C   0  0  0  0  0  0  0  0  0  0  0  0
  147.2837   65.8315  218.0857 H   0  0  0  0  0  0  0  0  0  0  0  0
  146.5712   67.1641  216.0916 H   0  0  0  0  0  0  0  0  0  0  0  0
  145.2055   69.2358  216.4033 H   0  0  0  0  0  0  0  0  0  0  0  0
  143.2669   71.2701  217.3425 H   0  0  0  0  0  0  0  0  0  0  0  0
  142.8120   69.5528  217.6038 H   0  0  0  0  0  0  0  0  0  0  0  0
  141.1891   71.2923  218.5591 H   0  0  0  0  0  0  0  0  0  0  0  0
  141.8011   70.0485  219.7251 H   0  0  0  0  0  0  0  0  0  0  0  0
  138.4523   76.5898  220.9299 H   0  0  0  0  0  0  0  0  0  0  0  0
  138.3247   75.6652  222.4719 H   0  0  0  0  0  0  0  0  0  0  0  0
  137.9150   78.1315  222.7400 H   0  0  0  0  0  0  0  0  0  0  0  0
  139.2954   77.5087  223.7197 H   0  0  0  0  0  0  0  0  0  0  0  0
  138.7115   80.4276  222.7327 H   0  0  0  0  0  0  0  0  0  0  0  0
  140.2595   82.0908  221.7048 H   0  0  0  0  0  0  0  0  0  0  0  0
  142.2877   81.3199  220.4757 H   0  0  0  0  0  0  0  0  0  0  0  0
  142.7746   78.8834  220.2710 H   0  0  0  0  0  0  0  0  0  0  0  0
  141.4927   76.5817  220.1550 H   0  0  0  0  0  0  0  0  0  0  0  0
  142.2321   76.6148  221.8268 H   0  0  0  0  0  0  0  0  0  0  0  0
  137.5323   70.9824  224.1095 H   0  0  0  0  0  0  0  0  0  0  0  0
  138.0780   70.8867  222.4033 H   0  0  0  0  0  0  0  0  0  0  0  0
  137.8246   68.6506  223.6485 H   0  0  0  0  0  0  0  0  0  0  0  0
  139.4199   68.9599  222.8353 H   0  0  0  0  0  0  0  0  0  0  0  0
  139.1037   66.8831  224.9186 H   0  0  0  0  0  0  0  0  0  0  0  0
  140.3767   66.4310  227.0143 H   0  0  0  0  0  0  0  0  0  0  0  0
  141.4661   68.3060  228.2455 H   0  0  0  0  0  0  0  0  0  0  0  0
  141.3079   70.6368  227.3755 H   0  0  0  0  0  0  0  0  0  0  0  0
  139.3226   72.0588  225.8071 H   0  0  0  0  0  0  0  0  0  0  0  0
  141.0200   71.9659  225.1942 H   0  0  0  0  0  0  0  0  0  0  0  0
  144.0151   73.1042  218.9486 H   0  0  0  0  0  0  0  0  0  0  0  0
  144.2199   73.0503  220.7393 H   0  0  0  0  0  0  0  0  0  0  0  0
  145.8766   71.6628  219.3034 H   0  0  0  0  0  0  0  0  0  0  0  0
  145.0565   70.8385  220.6970 H   0  0  0  0  0  0  0  0  0  0  0  0
  146.6109   66.5869  220.3719 H   0  0  0  0  0  0  0  0  0  0  0  0
  1  2  2  0
  2  3  1  0
  3  4  2  0
  4  5  1  0
  5  6  1  0
  6  7  1  0
  7  8  1  0
  8  9  1  0
  9 10  2  0
 10 11  1  0
 11 12  1  0
 12 13  1  0
 13 14  1  0
 14 15  1  0
 15 16  2  0
 16 17  1  0
 17 18  2  0
 18 19  1  0
 19 20  2  0
 20 21  1  0
 11 22  2  0
 22 23  1  0
 23 24  1  0
 24 25  1  0
 25 26  1  0
 26 27  1  0
 27 28  2  0
 28 29  1  0
 29 30  2  0
 30 31  1  0
 31 32  2  0
 32 33  1  0
 23 34  2  0
  8 35  1  0
 35 36  1  0
  4 37  1  0
 37 38  2  0
 38  1  1  0
 36  5  1  0
 34  9  1  0
 21 12  1  0
 33 24  1  0
 20 15  1  0
 32 27  1  0
  1 39  1  0
  2 40  1  0
  3 41  1  0
  6 42  1  0
  6 43  1  0
  7 44  1  0
  7 45  1  0
 13 46  1  0
 13 47  1  0
 14 48  1  0
 14 49  1  0
 16 50  1  0
 17 51  1  0
 18 52  1  0
 19 53  1  0
 21 54  1  0
 21 55  1  0
 25 56  1  0
 25 57  1  0
 26 58  1  0
 26 59  1  0
 28 60  1  0
 29 61  1  0
 30 62  1  0
 31 63  1  0
 33 64  1  0
 33 65  1  0
 35 66  1  0
 35 67  1  0
 36 68  1  0
 36 69  1  0
 38 70  1  0
M  END
>  <UniqueID>  (56) 
49

>  <SMILES>  (56) 
c1ccc(N2CCN(c3nc(N4CCc5ccccc5C4)nc(N4CCc5ccccc5C4)n3)CC2)nc1

>  <Energy>  (56) 
88.72495897090043

>  <Genealogy>  (56) 
c1ccc(N2CCN(c3nc(N4CCc5ccccc5C4)nc(N4CCc5ccccc5C4)n3)CC2)nc1 (3D coordinates assigned)
c1ccc(N2CCN(c3nc(N4CCc5ccccc5C4)nc(N4CCc5ccccc5C4)n3)CC2)nc1 (nonaromatic ring conformer: 88.72495897090043 kcal/mol)

>  <smiles>  (56) 
c1ccc(N2CCN(c3nc(N4CCc5ccccc5C4)nc(N4CCc5ccccc5C4)n3)CC2)nc1

>  <score_type>  (56) 
oracle

>  <origin>  (56) 
autodockgpu

>  <m_score__min__energy>  (56) 
-10.69

>  <m_primary>  (56) 
energy

>  <meeko>  (56) 
{"free_energy": -10.14, "intermolecular_energy": -11.33, "internal_energy": -1.02, "cluster_size": 20, "cluster_id": 1, "rank_in_cluster": 18}

>  <energy>  (56) 
-10.33

>  <cluster_rmsd>  (56) 
1.48

>  <rmsd>  (56) 
269.16

>  <cluster>  (56) 
1

$$$$
QWCMPUPUGDWNGO-UHFFFAOYNA-N
     RDKit          3D

 70 76  0  0  0  0  0  0  0  0999 V2000
  141.8260   81.7320  223.2030 C   0  0  0  0  0  0  0  0  0  0  0  0
  142.4330   80.5790  223.7040 C   0  0  0  0  0  0  0  0  0  0  0  0
  142.1360   79.3350  223.1470 C   0  0  0  0  0  0  0  0  0  0  0  0
  141.2330   79.2570  222.0720 C   0  0  0  0  0  0  0  0  0  0  0  0
  140.8930   77.9920  221.4680 N   0  0  0  0  0  0  0  0  0  0  0  0
  141.5370   77.5300  220.2330 C   0  0  0  0  0  0  0  0  0  0  0  0
  141.9840   76.0770  220.4060 C   0  0  0  0  0  0  0  0  0  0  0  0
  140.9110   75.2470  220.9770 N   0  0  0  0  0  0  0  0  0  0  0  0
  141.1280   73.8280  221.1240 C   0  0  0  0  0  0  0  0  0  0  0  0
  140.6500   73.1770  222.2180 N   0  0  0  0  0  0  0  0  0  0  0  0
  140.8260   71.8370  222.3620 C   0  0  0  0  0  0  0  0  0  0  0  0
  140.3170   71.1480  223.5250 N   0  0  0  0  0  0  0  0  0  0  0  0
  139.1010   70.3260  223.4310 C   0  0  0  0  0  0  0  0  0  0  0  0
  139.2350   69.0850  224.3040 C   0  0  0  0  0  0  0  0  0  0  0  0
  139.5850   69.4690  225.7120 C   0  0  0  0  0  0  0  0  0  0  0  0
  139.1770   68.6530  226.7800 C   0  0  0  0  0  0  0  0  0  0  0  0
  139.5340   68.9790  228.0910 C   0  0  0  0  0  0  0  0  0  0  0  0
  140.3130   70.1090  228.3440 C   0  0  0  0  0  0  0  0  0  0  0  0
  140.7390   70.9160  227.2860 C   0  0  0  0  0  0  0  0  0  0  0  0
  140.3790   70.6060  225.9650 C   0  0  0  0  0  0  0  0  0  0  0  0
  140.8690   71.4980  224.8470 C   0  0  0  0  0  0  0  0  0  0  0  0
  141.4880   71.1500  221.3950 N   0  0  0  0  0  0  0  0  0  0  0  0
  141.9800   71.7860  220.3000 C   0  0  0  0  0  0  0  0  0  0  0  0
  142.6910   71.0440  219.2850 N   0  0  0  0  0  0  0  0  0  0  0  0
  143.7620   71.6580  218.4930 C   0  0  0  0  0  0  0  0  0  0  0  0
  145.0810   70.9480  218.7980 C   0  0  0  0  0  0  0  0  0  0  0  0
  144.9340   69.4410  218.7870 C   0  0  0  0  0  0  0  0  0  0  0  0
  146.0880   68.6450  218.7110 C   0  0  0  0  0  0  0  0  0  0  0  0
  145.9920   67.2510  218.7590 C   0  0  0  0  0  0  0  0  0  0  0  0
  144.7430   66.6400  218.8880 C   0  0  0  0  0  0  0  0  0  0  0  0
  143.5870   67.4180  218.9820 C   0  0  0  0  0  0  0  0  0  0  0  0
  143.6700   68.8190  218.9520 C   0  0  0  0  0  0  0  0  0  0  0  0
  142.3980   69.6300  219.0210 C   0  0  0  0  0  0  0  0  0  0  0  0
  141.7960   73.1250  220.1730 N   0  0  0  0  0  0  0  0  0  0  0  0
  139.6140   75.8570  221.3170 C   0  0  0  0  0  0  0  0  0  0  0  0
  139.8250   77.1790  222.0710 C   0  0  0  0  0  0  0  0  0  0  0  0
  140.6400   80.3990  221.6190 N   0  0  0  0  0  0  0  0  0  0  0  0
  140.9190   81.6200  222.1490 C   0  0  0  0  0  0  0  0  0  0  0  0
  142.0600   82.7166  223.6340 H   0  0  0  0  0  0  0  0  0  0  0  0
  143.1460   80.6515  224.5385 H   0  0  0  0  0  0  0  0  0  0  0  0
  142.6042   78.4228  223.5454 H   0  0  0  0  0  0  0  0  0  0  0  0
  140.8227   77.5975  219.3992 H   0  0  0  0  0  0  0  0  0  0  0  0
  142.4121   78.1604  220.0168 H   0  0  0  0  0  0  0  0  0  0  0  0
  142.2660   75.6704  219.4236 H   0  0  0  0  0  0  0  0  0  0  0  0
  142.8393   76.0590  221.0974 H   0  0  0  0  0  0  0  0  0  0  0  0
  138.2366   70.9163  223.7691 H   0  0  0  0  0  0  0  0  0  0  0  0
  138.9583   70.0152  222.3855 H   0  0  0  0  0  0  0  0  0  0  0  0
  138.2808   68.5378  224.3045 H   0  0  0  0  0  0  0  0  0  0  0  0
  140.0360   68.4493  223.8987 H   0  0  0  0  0  0  0  0  0  0  0  0
  138.5742   67.7540  226.5836 H   0  0  0  0  0  0  0  0  0  0  0  0
  139.2005   68.3440  228.9250 H   0  0  0  0  0  0  0  0  0  0  0  0
  140.5918   70.3644  229.3770 H   0  0  0  0  0  0  0  0  0  0  0  0
  141.3607   71.8003  227.4895 H   0  0  0  0  0  0  0  0  0  0  0  0
  140.5836   72.5346  225.0792 H   0  0  0  0  0  0  0  0  0  0  0  0
  141.9594   71.3670  224.7853 H   0  0  0  0  0  0  0  0  0  0  0  0
  143.5303   71.5603  217.4221 H   0  0  0  0  0  0  0  0  0  0  0  0
  143.8475   72.7242  218.7497 H   0  0  0  0  0  0  0  0  0  0  0  0
  145.8230   71.2373  218.0392 H   0  0  0  0  0  0  0  0  0  0  0  0
  145.4019   71.2491  219.8062 H   0  0  0  0  0  0  0  0  0  0  0  0
  147.0746   69.1214  218.6130 H   0  0  0  0  0  0  0  0  0  0  0  0
  146.9011   66.6350  218.6951 H   0  0  0  0  0  0  0  0  0  0  0  0
  144.6694   65.5428  218.9157 H   0  0  0  0  0  0  0  0  0  0  0  0
  142.6060   66.9302  219.0801 H   0  0  0  0  0  0  0  0  0  0  0  0
  141.8649   69.5457  218.0625 H   0  0  0  0  0  0  0  0  0  0  0  0
  141.7776   69.2408  219.8417 H   0  0  0  0  0  0  0  0  0  0  0  0
  139.0521   76.0531  220.3919 H   0  0  0  0  0  0  0  0  0  0  0  0
  139.0520   75.1647  221.9611 H   0  0  0  0  0  0  0  0  0  0  0  0
  138.8870   77.7532  222.0508 H   0  0  0  0  0  0  0  0  0  0  0  0
  140.1217   76.9387  223.1026 H   0  0  0  0  0  0  0  0  0  0  0  0
  140.4295   82.5192  221.7466 H   0  0  0  0  0  0  0  0  0  0  0  0
  1  2  2  0
  2  3  1  0
  3  4  2  0
  4  5  1  0
  5  6  1  0
  6  7  1  0
  7  8  1  0
  8  9  1  0
  9 10  2  0
 10 11  1  0
 11 12  1  0
 12 13  1  0
 13 14  1  0
 14 15  1  0
 15 16  2  0
 16 17  1  0
 17 18  2  0
 18 19  1  0
 19 20  2  0
 20 21  1  0
 11 22  2  0
 22 23  1  0
 23 24  1  0
 24 25  1  0
 25 26  1  0
 26 27  1  0
 27 28  2  0
 28 29  1  0
 29 30  2  0
 30 31  1  0
 31 32  2  0
 32 33  1  0
 23 34  2  0
  8 35  1  0
 35 36  1  0
  4 37  1  0
 37 38  2  0
 38  1  1  0
 36  5  1  0
 34  9  1  0
 21 12  1  0
 33 24  1  0
 20 15  1  0
 32 27  1  0
  1 39  1  0
  2 40  1  0
  3 41  1  0
  6 42  1  0
  6 43  1  0
  7 44  1  0
  7 45  1  0
 13 46  1  0
 13 47  1  0
 14 48  1  0
 14 49  1  0
 16 50  1  0
 17 51  1  0
 18 52  1  0
 19 53  1  0
 21 54  1  0
 21 55  1  0
 25 56  1  0
 25 57  1  0
 26 58  1  0
 26 59  1  0
 28 60  1  0
 29 61  1  0
 30 62  1  0
 31 63  1  0
 33 64  1  0
 33 65  1  0
 35 66  1  0
 35 67  1  0
 36 68  1  0
 36 69  1  0
 38 70  1  0
M  END
>  <UniqueID>  (57) 
49

>  <SMILES>  (57) 
c1ccc(N2CCN(c3nc(N4CCc5ccccc5C4)nc(N4CCc5ccccc5C4)n3)CC2)nc1

>  <Energy>  (57) 
88.72495897090043

>  <Genealogy>  (57) 
c1ccc(N2CCN(c3nc(N4CCc5ccccc5C4)nc(N4CCc5ccccc5C4)n3)CC2)nc1 (3D coordinates assigned)
c1ccc(N2CCN(c3nc(N4CCc5ccccc5C4)nc(N4CCc5ccccc5C4)n3)CC2)nc1 (nonaromatic ring conformer: 88.72495897090043 kcal/mol)

>  <smiles>  (57) 
c1ccc(N2CCN(c3nc(N4CCc5ccccc5C4)nc(N4CCc5ccccc5C4)n3)CC2)nc1

>  <score_type>  (57) 
oracle

>  <origin>  (57) 
autodockgpu

>  <m_score__min__energy>  (57) 
-10.69

>  <m_primary>  (57) 
energy

>  <meeko>  (57) 
{"free_energy": -10.54, "intermolecular_energy": -11.73, "internal_energy": -1.05, "cluster_size": 20, "cluster_id": 1, "rank_in_cluster": 12}

>  <energy>  (57) 
-10.26

>  <cluster_rmsd>  (57) 
1.54

>  <rmsd>  (57) 
269.03

>  <cluster>  (57) 
1

$$$$
QWCMPUPUGDWNGO-UHFFFAOYNA-N
     RDKit          3D

 70 76  0  0  0  0  0  0  0  0999 V2000
  146.6250   66.7790  218.0770 C   0  0  0  0  0  0  0  0  0  0  0  0
  146.1880   67.5280  216.9830 C   0  0  0  0  0  0  0  0  0  0  0  0
  145.4550   68.6970  217.1860 C   0  0  0  0  0  0  0  0  0  0  0  0
  145.1740   69.1180  218.4980 C   0  0  0  0  0  0  0  0  0  0  0  0
  144.4150   70.3180  218.7540 N   0  0  0  0  0  0  0  0  0  0  0  0
  143.1730   70.6130  218.0290 C   0  0  0  0  0  0  0  0  0  0  0  0
  142.0920   71.0340  219.0260 C   0  0  0  0  0  0  0  0  0  0  0  0
  142.5940   72.0420  219.9740 N   0  0  0  0  0  0  0  0  0  0  0  0
  141.6810   72.6210  220.9280 C   0  0  0  0  0  0  0  0  0  0  0  0
  141.4260   73.9560  220.9040 N   0  0  0  0  0  0  0  0  0  0  0  0
  140.5520   74.5140  221.7810 C   0  0  0  0  0  0  0  0  0  0  0  0
  140.2840   75.9330  221.7530 N   0  0  0  0  0  0  0  0  0  0  0  0
  139.4520   76.5120  220.6870 C   0  0  0  0  0  0  0  0  0  0  0  0
  138.5810   77.6290  221.2470 C   0  0  0  0  0  0  0  0  0  0  0  0
  139.4230   78.6460  221.9610 C   0  0  0  0  0  0  0  0  0  0  0  0
  139.0060   79.9860  222.0150 C   0  0  0  0  0  0  0  0  0  0  0  0
  139.7630   80.9310  222.7130 C   0  0  0  0  0  0  0  0  0  0  0  0
  140.9280   80.5430  223.3760 C   0  0  0  0  0  0  0  0  0  0  0  0
  141.3410   79.2090  223.3430 C   0  0  0  0  0  0  0  0  0  0  0  0
  140.5960   78.2510  222.6370 C   0  0  0  0  0  0  0  0  0  0  0  0
  141.0700   76.8150  222.6350 C   0  0  0  0  0  0  0  0  0  0  0  0
  139.9290   73.7190  222.6900 N   0  0  0  0  0  0  0  0  0  0  0  0
  140.1780   72.3840  222.7350 C   0  0  0  0  0  0  0  0  0  0  0  0
  139.5170   71.5520  223.7130 N   0  0  0  0  0  0  0  0  0  0  0  0
  138.3750   70.7050  223.3570 C   0  0  0  0  0  0  0  0  0  0  0  0
  138.7590   69.2380  223.5500 C   0  0  0  0  0  0  0  0  0  0  0  0
  139.4630   69.0010  224.8700 C   0  0  0  0  0  0  0  0  0  0  0  0
  139.5780   67.6880  225.3540 C   0  0  0  0  0  0  0  0  0  0  0  0
  140.2730   67.4280  226.5390 C   0  0  0  0  0  0  0  0  0  0  0  0
  140.8620   68.4760  227.2490 C   0  0  0  0  0  0  0  0  0  0  0  0
  140.7700   69.7860  226.7720 C   0  0  0  0  0  0  0  0  0  0  0  0
  140.0900   70.0590  225.5750 C   0  0  0  0  0  0  0  0  0  0  0  0
  139.9790   71.4910  225.1060 C   0  0  0  0  0  0  0  0  0  0  0  0
  141.0560   71.8440  221.8510 N   0  0  0  0  0  0  0  0  0  0  0  0
  143.9920   72.4990  219.8850 C   0  0  0  0  0  0  0  0  0  0  0  0
  144.9380   71.3000  219.7170 C   0  0  0  0  0  0  0  0  0  0  0  0
  145.5960   68.3530  219.5450 N   0  0  0  0  0  0  0  0  0  0  0  0
  146.3130   67.2110  219.3660 C   0  0  0  0  0  0  0  0  0  0  0  0
  147.2084   65.8591  217.9243 H   0  0  0  0  0  0  0  0  0  0  0  0
  146.4218   67.1961  215.9607 H   0  0  0  0  0  0  0  0  0  0  0  0
  145.0996   69.2849  216.3269 H   0  0  0  0  0  0  0  0  0  0  0  0
  143.3506   71.4293  217.3134 H   0  0  0  0  0  0  0  0  0  0  0  0
  142.8425   69.7159  217.4850 H   0  0  0  0  0  0  0  0  0  0  0  0
  141.2407   71.4569  218.4724 H   0  0  0  0  0  0  0  0  0  0  0  0
  141.7856   70.1456  219.5977 H   0  0  0  0  0  0  0  0  0  0  0  0
  140.1027   76.9191  219.8990 H   0  0  0  0  0  0  0  0  0  0  0  0
  138.8042   75.7264  220.2708 H   0  0  0  0  0  0  0  0  0  0  0  0
  138.0452   78.1188  220.4206 H   0  0  0  0  0  0  0  0  0  0  0  0
  137.8644   77.1967  221.9609 H   0  0  0  0  0  0  0  0  0  0  0  0
  138.0803   80.2928  221.5061 H   0  0  0  0  0  0  0  0  0  0  0  0
  139.4400   81.9822  222.7398 H   0  0  0  0  0  0  0  0  0  0  0  0
  141.5218   81.2885  223.9253 H   0  0  0  0  0  0  0  0  0  0  0  0
  142.2560   78.9071  223.8737 H   0  0  0  0  0  0  0  0  0  0  0  0
  142.1179   76.7956  222.3011 H   0  0  0  0  0  0  0  0  0  0  0  0
  140.9492   76.4350  223.6602 H   0  0  0  0  0  0  0  0  0  0  0  0
  137.5195   70.9497  224.0037 H   0  0  0  0  0  0  0  0  0  0  0  0
  138.0978   70.8798  222.3069 H   0  0  0  0  0  0  0  0  0  0  0  0
  137.8457   68.6257  223.5204 H   0  0  0  0  0  0  0  0  0  0  0  0
  139.4524   68.9608  222.7423 H   0  0  0  0  0  0  0  0  0  0  0  0
  139.1182   66.8583  224.7971 H   0  0  0  0  0  0  0  0  0  0  0  0
  140.3558   66.3966  226.9123 H   0  0  0  0  0  0  0  0  0  0  0  0
  141.3998   68.2698  228.1862 H   0  0  0  0  0  0  0  0  0  0  0  0
  141.2331   70.6079  227.3377 H   0  0  0  0  0  0  0  0  0  0  0  0
  139.2622   72.0253  225.7469 H   0  0  0  0  0  0  0  0  0  0  0  0
  140.9726   71.9590  225.1676 H   0  0  0  0  0  0  0  0  0  0  0  0
  144.0997   73.1696  219.0197 H   0  0  0  0  0  0  0  0  0  0  0  0
  144.2527   73.0321  220.8112 H   0  0  0  0  0  0  0  0  0  0  0  0
  145.9128   71.6637  219.3599 H   0  0  0  0  0  0  0  0  0  0  0  0
  145.0334   70.8021  220.6932 H   0  0  0  0  0  0  0  0  0  0  0  0
  146.6466   66.6285  220.2374 H   0  0  0  0  0  0  0  0  0  0  0  0
  1  2  2  0
  2  3  1  0
  3  4  2  0
  4  5  1  0
  5  6  1  0
  6  7  1  0
  7  8  1  0
  8  9  1  0
  9 10  2  0
 10 11  1  0
 11 12  1  0
 12 13  1  0
 13 14  1  0
 14 15  1  0
 15 16  2  0
 16 17  1  0
 17 18  2  0
 18 19  1  0
 19 20  2  0
 20 21  1  0
 11 22  2  0
 22 23  1  0
 23 24  1  0
 24 25  1  0
 25 26  1  0
 26 27  1  0
 27 28  2  0
 28 29  1  0
 29 30  2  0
 30 31  1  0
 31 32  2  0
 32 33  1  0
 23 34  2  0
  8 35  1  0
 35 36  1  0
  4 37  1  0
 37 38  2  0
 38  1  1  0
 36  5  1  0
 34  9  1  0
 21 12  1  0
 33 24  1  0
 20 15  1  0
 32 27  1  0
  1 39  1  0
  2 40  1  0
  3 41  1  0
  6 42  1  0
  6 43  1  0
  7 44  1  0
  7 45  1  0
 13 46  1  0
 13 47  1  0
 14 48  1  0
 14 49  1  0
 16 50  1  0
 17 51  1  0
 18 52  1  0
 19 53  1  0
 21 54  1  0
 21 55  1  0
 25 56  1  0
 25 57  1  0
 26 58  1  0
 26 59  1  0
 28 60  1  0
 29 61  1  0
 30 62  1  0
 31 63  1  0
 33 64  1  0
 33 65  1  0
 35 66  1  0
 35 67  1  0
 36 68  1  0
 36 69  1  0
 38 70  1  0
M  END
>  <UniqueID>  (58) 
49

>  <SMILES>  (58) 
c1ccc(N2CCN(c3nc(N4CCc5ccccc5C4)nc(N4CCc5ccccc5C4)n3)CC2)nc1

>  <Energy>  (58) 
88.72495897090043

>  <Genealogy>  (58) 
c1ccc(N2CCN(c3nc(N4CCc5ccccc5C4)nc(N4CCc5ccccc5C4)n3)CC2)nc1 (3D coordinates assigned)
c1ccc(N2CCN(c3nc(N4CCc5ccccc5C4)nc(N4CCc5ccccc5C4)n3)CC2)nc1 (nonaromatic ring conformer: 88.72495897090043 kcal/mol)

>  <smiles>  (58) 
c1ccc(N2CCN(c3nc(N4CCc5ccccc5C4)nc(N4CCc5ccccc5C4)n3)CC2)nc1

>  <score_type>  (58) 
oracle

>  <origin>  (58) 
autodockgpu

>  <m_score__min__energy>  (58) 
-10.69

>  <m_primary>  (58) 
energy

>  <meeko>  (58) 
{"free_energy": -10.26, "intermolecular_energy": -11.45, "internal_energy": -1.01, "cluster_size": 20, "cluster_id": 1, "rank_in_cluster": 17}

>  <energy>  (58) 
-10.14

>  <cluster_rmsd>  (58) 
1.48

>  <rmsd>  (58) 
268.99

>  <cluster>  (58) 
1

$$$$
QWCMPUPUGDWNGO-UHFFFAOYNA-N
     RDKit          3D

 70 76  0  0  0  0  0  0  0  0999 V2000
  141.9950   81.7080  223.4040 C   0  0  0  0  0  0  0  0  0  0  0  0
  141.0070   81.7030  222.4180 C   0  0  0  0  0  0  0  0  0  0  0  0
  140.6110   80.4990  221.8340 C   0  0  0  0  0  0  0  0  0  0  0  0
  141.2050   79.2970  222.2560 C   0  0  0  0  0  0  0  0  0  0  0  0
  140.8290   78.0310  221.6770 N   0  0  0  0  0  0  0  0  0  0  0  0
  141.3630   77.5880  220.3820 C   0  0  0  0  0  0  0  0  0  0  0  0
  141.8460   76.1420  220.5000 C   0  0  0  0  0  0  0  0  0  0  0  0
  140.8450   75.2900  221.1620 N   0  0  0  0  0  0  0  0  0  0  0  0
  141.0970   73.8740  221.2760 C   0  0  0  0  0  0  0  0  0  0  0  0
  140.6280   73.1840  222.3490 N   0  0  0  0  0  0  0  0  0  0  0  0
  140.8370   71.8460  222.4620 C   0  0  0  0  0  0  0  0  0  0  0  0
  140.3380   71.1160  223.6030 N   0  0  0  0  0  0  0  0  0  0  0  0
  139.0800   70.3590  223.5110 C   0  0  0  0  0  0  0  0  0  0  0  0
  139.1840   69.0650  224.3070 C   0  0  0  0  0  0  0  0  0  0  0  0
  139.6040   69.3490  225.7200 C   0  0  0  0  0  0  0  0  0  0  0  0
  139.1960   68.4920  226.7560 C   0  0  0  0  0  0  0  0  0  0  0  0
  139.6160   68.7250  228.0680 C   0  0  0  0  0  0  0  0  0  0  0  0
  140.4590   69.8000  228.3530 C   0  0  0  0  0  0  0  0  0  0  0  0
  140.8860   70.6460  227.3260 C   0  0  0  0  0  0  0  0  0  0  0  0
  140.4620   70.4300  226.0050 C   0  0  0  0  0  0  0  0  0  0  0  0
  140.9550   71.3610  224.9200 C   0  0  0  0  0  0  0  0  0  0  0  0
  141.5240   71.2000  221.4840 N   0  0  0  0  0  0  0  0  0  0  0  0
  142.0070   71.8750  220.4080 C   0  0  0  0  0  0  0  0  0  0  0  0
  142.7450   71.1780  219.3820 N   0  0  0  0  0  0  0  0  0  0  0  0
  143.8020   71.8390  218.6100 C   0  0  0  0  0  0  0  0  0  0  0  0
  145.1390   71.1600  218.9070 C   0  0  0  0  0  0  0  0  0  0  0  0
  145.0350   69.6500  218.8610 C   0  0  0  0  0  0  0  0  0  0  0  0
  146.2120   68.8890  218.7730 C   0  0  0  0  0  0  0  0  0  0  0  0
  146.1550   67.4920  218.7890 C   0  0  0  0  0  0  0  0  0  0  0  0
  144.9230   66.8430  218.8970 C   0  0  0  0  0  0  0  0  0  0  0  0
  143.7450   67.5860  219.0010 C   0  0  0  0  0  0  0  0  0  0  0  0
  143.7890   68.9890  219.0040 C   0  0  0  0  0  0  0  0  0  0  0  0
  142.4940   69.7620  219.0830 C   0  0  0  0  0  0  0  0  0  0  0  0
  141.7900   73.2120  220.3130 N   0  0  0  0  0  0  0  0  0  0  0  0
  139.5760   75.8760  221.6270 C   0  0  0  0  0  0  0  0  0  0  0  0
  139.8360   77.1960  222.3700 C   0  0  0  0  0  0  0  0  0  0  0  0
  142.1830   79.3380  223.2060 N   0  0  0  0  0  0  0  0  0  0  0  0
  142.5810   80.5020  223.7870 C   0  0  0  0  0  0  0  0  0  0  0  0
  142.3077   82.6524  223.8735 H   0  0  0  0  0  0  0  0  0  0  0  0
  140.5408   82.6477  222.1014 H   0  0  0  0  0  0  0  0  0  0  0  0
  139.8400   80.4907  221.0495 H   0  0  0  0  0  0  0  0  0  0  0  0
  140.5734   77.6501  219.6187 H   0  0  0  0  0  0  0  0  0  0  0  0
  142.2044   78.2340  220.0910 H   0  0  0  0  0  0  0  0  0  0  0  0
  142.0407   75.7471  219.4920 H   0  0  0  0  0  0  0  0  0  0  0  0
  142.7624   76.1334  221.1084 H   0  0  0  0  0  0  0  0  0  0  0  0
  138.2587   70.9690  223.9153 H   0  0  0  0  0  0  0  0  0  0  0  0
  138.8842   70.1161  222.4562 H   0  0  0  0  0  0  0  0  0  0  0  0
  138.2044   68.5647  224.3142 H   0  0  0  0  0  0  0  0  0  0  0  0
  139.9374   68.4169  223.8354 H   0  0  0  0  0  0  0  0  0  0  0  0
  138.5437   67.6347  226.5333 H   0  0  0  0  0  0  0  0  0  0  0  0
  139.2816   68.0599  228.8778 H   0  0  0  0  0  0  0  0  0  0  0  0
  140.7876   69.9816  229.3869 H   0  0  0  0  0  0  0  0  0  0  0  0
  141.5584   71.4863  227.5539 H   0  0  0  0  0  0  0  0  0  0  0  0
  140.7311   72.3949  225.2214 H   0  0  0  0  0  0  0  0  0  0  0  0
  142.0343   71.1809  224.8078 H   0  0  0  0  0  0  0  0  0  0  0  0
  143.5787   71.7583  217.5359 H   0  0  0  0  0  0  0  0  0  0  0  0
  143.8560   72.9013  218.8905 H   0  0  0  0  0  0  0  0  0  0  0  0
  145.8766   71.4874  218.1595 H   0  0  0  0  0  0  0  0  0  0  0  0
  145.4457   71.4471  219.9236 H   0  0  0  0  0  0  0  0  0  0  0  0
  147.1851   69.3952  218.6909 H   0  0  0  0  0  0  0  0  0  0  0  0
  147.0815   66.9035  218.7165 H   0  0  0  0  0  0  0  0  0  0  0  0
  144.8804   65.7438  218.9002 H   0  0  0  0  0  0  0  0  0  0  0  0
  142.7774   67.0689  219.0810 H   0  0  0  0  0  0  0  0  0  0  0  0
  141.9696   69.6851  218.1191 H   0  0  0  0  0  0  0  0  0  0  0  0
  141.8798   69.3363  219.8902 H   0  0  0  0  0  0  0  0  0  0  0  0
  138.9271   76.0697  220.7602 H   0  0  0  0  0  0  0  0  0  0  0  0
  139.0875   75.1698  222.3145 H   0  0  0  0  0  0  0  0  0  0  0  0
  138.8912   77.7545  222.4433 H   0  0  0  0  0  0  0  0  0  0  0  0
  140.2323   76.9529  223.3669 H   0  0  0  0  0  0  0  0  0  0  0  0
  143.3648   80.4918  224.5587 H   0  0  0  0  0  0  0  0  0  0  0  0
  1  2  2  0
  2  3  1  0
  3  4  2  0
  4  5  1  0
  5  6  1  0
  6  7  1  0
  7  8  1  0
  8  9  1  0
  9 10  2  0
 10 11  1  0
 11 12  1  0
 12 13  1  0
 13 14  1  0
 14 15  1  0
 15 16  2  0
 16 17  1  0
 17 18  2  0
 18 19  1  0
 19 20  2  0
 20 21  1  0
 11 22  2  0
 22 23  1  0
 23 24  1  0
 24 25  1  0
 25 26  1  0
 26 27  1  0
 27 28  2  0
 28 29  1  0
 29 30  2  0
 30 31  1  0
 31 32  2  0
 32 33  1  0
 23 34  2  0
  8 35  1  0
 35 36  1  0
  4 37  1  0
 37 38  2  0
 38  1  1  0
 36  5  1  0
 34  9  1  0
 21 12  1  0
 33 24  1  0
 20 15  1  0
 32 27  1  0
  1 39  1  0
  2 40  1  0
  3 41  1  0
  6 42  1  0
  6 43  1  0
  7 44  1  0
  7 45  1  0
 13 46  1  0
 13 47  1  0
 14 48  1  0
 14 49  1  0
 16 50  1  0
 17 51  1  0
 18 52  1  0
 19 53  1  0
 21 54  1  0
 21 55  1  0
 25 56  1  0
 25 57  1  0
 26 58  1  0
 26 59  1  0
 28 60  1  0
 29 61  1  0
 30 62  1  0
 31 63  1  0
 33 64  1  0
 33 65  1  0
 35 66  1  0
 35 67  1  0
 36 68  1  0
 36 69  1  0
 38 70  1  0
M  END
>  <UniqueID>  (59) 
49

>  <SMILES>  (59) 
c1ccc(N2CCN(c3nc(N4CCc5ccccc5C4)nc(N4CCc5ccccc5C4)n3)CC2)nc1

>  <Energy>  (59) 
88.72495897090043

>  <Genealogy>  (59) 
c1ccc(N2CCN(c3nc(N4CCc5ccccc5C4)nc(N4CCc5ccccc5C4)n3)CC2)nc1 (3D coordinates assigned)
c1ccc(N2CCN(c3nc(N4CCc5ccccc5C4)nc(N4CCc5ccccc5C4)n3)CC2)nc1 (nonaromatic ring conformer: 88.72495897090043 kcal/mol)

>  <smiles>  (59) 
c1ccc(N2CCN(c3nc(N4CCc5ccccc5C4)nc(N4CCc5ccccc5C4)n3)CC2)nc1

>  <score_type>  (59) 
oracle

>  <origin>  (59) 
autodockgpu

>  <m_score__min__energy>  (59) 
-10.69

>  <m_primary>  (59) 
energy

>  <meeko>  (59) 
{"free_energy": -10.6, "intermolecular_energy": -11.79, "internal_energy": -1.04, "cluster_size": 20, "cluster_id": 1, "rank_in_cluster": 10}

>  <energy>  (59) 
-9.97

>  <cluster_rmsd>  (59) 
1.69

>  <rmsd>  (59) 
269.39

>  <cluster>  (59) 
1

$$$$
QWCMPUPUGDWNGO-UHFFFAOYNA-N
     RDKit          3D

 70 76  0  0  0  0  0  0  0  0999 V2000
  146.6870   66.8280  217.3010 C   0  0  0  0  0  0  0  0  0  0  0  0
  146.3940   67.7370  216.2830 C   0  0  0  0  0  0  0  0  0  0  0  0
  145.7530   68.9390  216.5850 C   0  0  0  0  0  0  0  0  0  0  0  0
  145.4190   69.2280  217.9200 C   0  0  0  0  0  0  0  0  0  0  0  0
  144.7500   70.4550  218.2770 N   0  0  0  0  0  0  0  0  0  0  0  0
  143.6040   70.9590  217.5100 C   0  0  0  0  0  0  0  0  0  0  0  0
  142.4850   71.3580  218.4740 C   0  0  0  0  0  0  0  0  0  0  0  0
  142.9930   72.1860  219.5800 N   0  0  0  0  0  0  0  0  0  0  0  0
  142.0580   72.7290  220.5350 C   0  0  0  0  0  0  0  0  0  0  0  0
  141.6050   71.9560  221.5560 N   0  0  0  0  0  0  0  0  0  0  0  0
  140.7410   72.4580  222.4780 C   0  0  0  0  0  0  0  0  0  0  0  0
  140.2600   71.6340  223.5630 N   0  0  0  0  0  0  0  0  0  0  0  0
  139.0920   70.7610  223.3730 C   0  0  0  0  0  0  0  0  0  0  0  0
  139.2850   69.4510  224.1260 C   0  0  0  0  0  0  0  0  0  0  0  0
  139.6000   69.7160  225.5700 C   0  0  0  0  0  0  0  0  0  0  0  0
  139.2280   68.7810  226.5490 C   0  0  0  0  0  0  0  0  0  0  0  0
  139.5540   68.9990  227.8910 C   0  0  0  0  0  0  0  0  0  0  0  0
  140.2670   70.1400  228.2600 C   0  0  0  0  0  0  0  0  0  0  0  0
  140.6580   71.0660  227.2900 C   0  0  0  0  0  0  0  0  0  0  0  0
  140.3280   70.8650  225.9410 C   0  0  0  0  0  0  0  0  0  0  0  0
  140.7790   71.8850  224.9200 C   0  0  0  0  0  0  0  0  0  0  0  0
  140.3330   73.7490  222.3670 N   0  0  0  0  0  0  0  0  0  0  0  0
  140.7690   74.5330  221.3470 C   0  0  0  0  0  0  0  0  0  0  0  0
  140.3180   75.9000  221.2340 N   0  0  0  0  0  0  0  0  0  0  0  0
  138.9150   76.2680  221.4490 C   0  0  0  0  0  0  0  0  0  0  0  0
  138.8170   77.1810  222.6710 C   0  0  0  0  0  0  0  0  0  0  0  0
  139.8640   78.2730  222.6540 C   0  0  0  0  0  0  0  0  0  0  0  0
  139.7090   79.3800  223.5030 C   0  0  0  0  0  0  0  0  0  0  0  0
  140.6870   80.3770  223.5540 C   0  0  0  0  0  0  0  0  0  0  0  0
  141.8320   80.2760  222.7620 C   0  0  0  0  0  0  0  0  0  0  0  0
  142.0100   79.1720  221.9230 C   0  0  0  0  0  0  0  0  0  0  0  0
  141.0430   78.1550  221.8740 C   0  0  0  0  0  0  0  0  0  0  0  0
  141.2500   76.9930  220.9320 C   0  0  0  0  0  0  0  0  0  0  0  0
  141.6300   74.0140  220.4350 N   0  0  0  0  0  0  0  0  0  0  0  0
  144.4290   72.5100  219.6530 C   0  0  0  0  0  0  0  0  0  0  0  0
  145.2750   71.2530  219.3960 C   0  0  0  0  0  0  0  0  0  0  0  0
  145.6990   68.3080  218.8880 N   0  0  0  0  0  0  0  0  0  0  0  0
  146.3250   67.1330  218.6120 C   0  0  0  0  0  0  0  0  0  0  0  0
  147.1980   65.8814  217.0711 H   0  0  0  0  0  0  0  0  0  0  0  0
  146.6683   67.5058  215.2431 H   0  0  0  0  0  0  0  0  0  0  0  0
  145.5110   69.6546  215.7854 H   0  0  0  0  0  0  0  0  0  0  0  0
  143.9126   71.8362  216.9223 H   0  0  0  0  0  0  0  0  0  0  0  0
  143.2417   70.1734  216.8306 H   0  0  0  0  0  0  0  0  0  0  0  0
  141.7240   71.9284  217.9213 H   0  0  0  0  0  0  0  0  0  0  0  0
  142.0545   70.4401  218.9007 H   0  0  0  0  0  0  0  0  0  0  0  0
  138.1933   71.2691  223.7526 H   0  0  0  0  0  0  0  0  0  0  0  0
  138.9769   70.5445  222.3007 H   0  0  0  0  0  0  0  0  0  0  0  0
  138.3620   68.8562  224.0601 H   0  0  0  0  0  0  0  0  0  0  0  0
  140.1236   68.9011  223.6740 H   0  0  0  0  0  0  0  0  0  0  0  0
  138.6780   67.8735  226.2591 H   0  0  0  0  0  0  0  0  0  0  0  0
  139.2482   68.2705  228.6563 H   0  0  0  0  0  0  0  0  0  0  0  0
  140.5217   70.3107  229.3164 H   0  0  0  0  0  0  0  0  0  0  0  0
  141.2285   71.9588  227.5856 H   0  0  0  0  0  0  0  0  0  0  0  0
  140.4349   72.8778  225.2454 H   0  0  0  0  0  0  0  0  0  0  0  0
  141.8755   71.8193  224.8623 H   0  0  0  0  0  0  0  0  0  0  0  0
  138.5333   76.7966  220.5631 H   0  0  0  0  0  0  0  0  0  0  0  0
  138.3162   75.3606  221.6164 H   0  0  0  0  0  0  0  0  0  0  0  0
  137.8203   77.6461  222.6867 H   0  0  0  0  0  0  0  0  0  0  0  0
  138.9857   76.5654  223.5669 H   0  0  0  0  0  0  0  0  0  0  0  0
  138.8111   79.4634  224.1329 H   0  0  0  0  0  0  0  0  0  0  0  0
  140.5543   81.2428  224.2194 H   0  0  0  0  0  0  0  0  0  0  0  0
  142.5958   81.0667  222.7981 H   0  0  0  0  0  0  0  0  0  0  0  0
  142.9123   79.0996  221.2980 H   0  0  0  0  0  0  0  0  0  0  0  0
  141.0836   77.3329  219.8992 H   0  0  0  0  0  0  0  0  0  0  0  0
  142.2781   76.6213  221.0539 H   0  0  0  0  0  0  0  0  0  0  0  0
  144.6683   73.2695  218.8941 H   0  0  0  0  0  0  0  0  0  0  0  0
  144.6575   72.8949  220.6578 H   0  0  0  0  0  0  0  0  0  0  0  0
  146.3048   71.5599  219.1610 H   0  0  0  0  0  0  0  0  0  0  0  0
  145.2425   70.6303  220.3022 H   0  0  0  0  0  0  0  0  0  0  0  0
  146.5457   66.4234  219.4230 H   0  0  0  0  0  0  0  0  0  0  0  0
  1  2  2  0
  2  3  1  0
  3  4  2  0
  4  5  1  0
  5  6  1  0
  6  7  1  0
  7  8  1  0
  8  9  1  0
  9 10  2  0
 10 11  1  0
 11 12  1  0
 12 13  1  0
 13 14  1  0
 14 15  1  0
 15 16  2  0
 16 17  1  0
 17 18  2  0
 18 19  1  0
 19 20  2  0
 20 21  1  0
 11 22  2  0
 22 23  1  0
 23 24  1  0
 24 25  1  0
 25 26  1  0
 26 27  1  0
 27 28  2  0
 28 29  1  0
 29 30  2  0
 30 31  1  0
 31 32  2  0
 32 33  1  0
 23 34  2  0
  8 35  1  0
 35 36  1  0
  4 37  1  0
 37 38  2  0
 38  1  1  0
 36  5  1  0
 34  9  1  0
 21 12  1  0
 33 24  1  0
 20 15  1  0
 32 27  1  0
  1 39  1  0
  2 40  1  0
  3 41  1  0
  6 42  1  0
  6 43  1  0
  7 44  1  0
  7 45  1  0
 13 46  1  0
 13 47  1  0
 14 48  1  0
 14 49  1  0
 16 50  1  0
 17 51  1  0
 18 52  1  0
 19 53  1  0
 21 54  1  0
 21 55  1  0
 25 56  1  0
 25 57  1  0
 26 58  1  0
 26 59  1  0
 28 60  1  0
 29 61  1  0
 30 62  1  0
 31 63  1  0
 33 64  1  0
 33 65  1  0
 35 66  1  0
 35 67  1  0
 36 68  1  0
 36 69  1  0
 38 70  1  0
M  END
>  <UniqueID>  (60) 
49

>  <SMILES>  (60) 
c1ccc(N2CCN(c3nc(N4CCc5ccccc5C4)nc(N4CCc5ccccc5C4)n3)CC2)nc1

>  <Energy>  (60) 
88.72495897090043

>  <Genealogy>  (60) 
c1ccc(N2CCN(c3nc(N4CCc5ccccc5C4)nc(N4CCc5ccccc5C4)n3)CC2)nc1 (3D coordinates assigned)
c1ccc(N2CCN(c3nc(N4CCc5ccccc5C4)nc(N4CCc5ccccc5C4)n3)CC2)nc1 (nonaromatic ring conformer: 88.72495897090043 kcal/mol)

>  <smiles>  (60) 
c1ccc(N2CCN(c3nc(N4CCc5ccccc5C4)nc(N4CCc5ccccc5C4)n3)CC2)nc1

>  <score_type>  (60) 
oracle

>  <origin>  (60) 
autodockgpu

>  <m_score__min__energy>  (60) 
-10.69

>  <m_primary>  (60) 
energy

>  <meeko>  (60) 
{"free_energy": -10.33, "intermolecular_energy": -11.52, "internal_energy": -1.02, "cluster_size": 20, "cluster_id": 1, "rank_in_cluster": 16}

>  <energy>  (60) 
-9.92

>  <cluster_rmsd>  (60) 
1.09

>  <rmsd>  (60) 
269.3

>  <cluster>  (60) 
1

$$$$
QWCMPUPUGDWNGO-UHFFFAOYNA-N
     RDKit          3D

 70 76  0  0  0  0  0  0  0  0999 V2000
  141.8160   81.8440  223.2470 C   0  0  0  0  0  0  0  0  0  0  0  0
  142.4530   80.7020  223.7360 C   0  0  0  0  0  0  0  0  0  0  0  0
  142.1290   79.4470  223.2190 C   0  0  0  0  0  0  0  0  0  0  0  0
  141.1700   79.3470  222.1960 C   0  0  0  0  0  0  0  0  0  0  0  0
  140.8010   78.0700  221.6360 N   0  0  0  0  0  0  0  0  0  0  0  0
  141.3230   77.6170  220.3410 C   0  0  0  0  0  0  0  0  0  0  0  0
  141.8230   76.1780  220.4710 C   0  0  0  0  0  0  0  0  0  0  0  0
  140.8380   75.3240  221.1540 N   0  0  0  0  0  0  0  0  0  0  0  0
  141.1060   73.9120  221.2820 C   0  0  0  0  0  0  0  0  0  0  0  0
  140.6300   73.2240  222.3540 N   0  0  0  0  0  0  0  0  0  0  0  0
  140.8540   71.8890  222.4790 C   0  0  0  0  0  0  0  0  0  0  0  0
  140.3480   71.1610  223.6190 N   0  0  0  0  0  0  0  0  0  0  0  0
  139.1090   70.3750  223.5100 C   0  0  0  0  0  0  0  0  0  0  0  0
  139.2250   69.0930  224.3230 C   0  0  0  0  0  0  0  0  0  0  0  0
  139.6090   69.4030  225.7410 C   0  0  0  0  0  0  0  0  0  0  0  0
  139.1990   68.5490  226.7790 C   0  0  0  0  0  0  0  0  0  0  0  0
  139.5870   68.8070  228.0960 C   0  0  0  0  0  0  0  0  0  0  0  0
  140.3990   69.9040  228.3850 C   0  0  0  0  0  0  0  0  0  0  0  0
  140.8270   70.7470  227.3570 C   0  0  0  0  0  0  0  0  0  0  0  0
  140.4370   70.5070  226.0310 C   0  0  0  0  0  0  0  0  0  0  0  0
  140.9310   71.4360  224.9450 C   0  0  0  0  0  0  0  0  0  0  0  0
  141.5620   71.2450  221.5150 N   0  0  0  0  0  0  0  0  0  0  0  0
  142.0530   71.9180  220.4420 C   0  0  0  0  0  0  0  0  0  0  0  0
  142.8130   71.2220  219.4310 N   0  0  0  0  0  0  0  0  0  0  0  0
  143.9160   71.8720  218.7150 C   0  0  0  0  0  0  0  0  0  0  0  0
  145.2230   71.1540  219.0500 C   0  0  0  0  0  0  0  0  0  0  0  0
  145.0850   69.6490  218.9700 C   0  0  0  0  0  0  0  0  0  0  0  0
  146.2450   68.8600  218.9130 C   0  0  0  0  0  0  0  0  0  0  0  0
  146.1540   67.4650  218.8980 C   0  0  0  0  0  0  0  0  0  0  0  0
  144.9040   66.8450  218.9440 C   0  0  0  0  0  0  0  0  0  0  0  0
  143.7410   67.6150  219.0170 C   0  0  0  0  0  0  0  0  0  0  0  0
  143.8180   69.0170  219.0500 C   0  0  0  0  0  0  0  0  0  0  0  0
  142.5400   69.8200  219.0950 C   0  0  0  0  0  0  0  0  0  0  0  0
  141.8210   73.2520  220.3340 N   0  0  0  0  0  0  0  0  0  0  0  0
  139.5690   75.9030  221.6270 C   0  0  0  0  0  0  0  0  0  0  0  0
  139.8240   77.2340  222.3510 C   0  0  0  0  0  0  0  0  0  0  0  0
  140.5500   80.4790  221.7550 N   0  0  0  0  0  0  0  0  0  0  0  0
  140.8530   81.7100  222.2470 C   0  0  0  0  0  0  0  0  0  0  0  0
  142.0704   82.8372  223.6455 H   0  0  0  0  0  0  0  0  0  0  0  0
  143.2103   80.7915  224.5288 H   0  0  0  0  0  0  0  0  0  0  0  0
  142.6201   78.5432  223.6088 H   0  0  0  0  0  0  0  0  0  0  0  0
  140.5232   77.6610  219.5871 H   0  0  0  0  0  0  0  0  0  0  0  0
  142.1536   78.2683  220.0312 H   0  0  0  0  0  0  0  0  0  0  0  0
  142.0112   75.7729  219.4658 H   0  0  0  0  0  0  0  0  0  0  0  0
  142.7461   76.1862  221.0692 H   0  0  0  0  0  0  0  0  0  0  0  0
  138.2662   70.9710  223.8901 H   0  0  0  0  0  0  0  0  0  0  0  0
  138.9406   70.1159  222.4543 H   0  0  0  0  0  0  0  0  0  0  0  0
  138.2568   68.5709  224.3159 H   0  0  0  0  0  0  0  0  0  0  0  0
  140.0021   68.4564  223.8748 H   0  0  0  0  0  0  0  0  0  0  0  0
  138.5706   67.6747  226.5538 H   0  0  0  0  0  0  0  0  0  0  0  0
  139.2515   68.1437  228.9069 H   0  0  0  0  0  0  0  0  0  0  0  0
  140.7023   70.1051  229.4230 H   0  0  0  0  0  0  0  0  0  0  0  0
  141.4746   71.6054  227.5888 H   0  0  0  0  0  0  0  0  0  0  0  0
  140.6770   72.4680  225.2288 H   0  0  0  0  0  0  0  0  0  0  0  0
  142.0163   71.2797  224.8576 H   0  0  0  0  0  0  0  0  0  0  0  0
  143.7338   71.8185  217.6315 H   0  0  0  0  0  0  0  0  0  0  0  0
  143.9845   72.9268  219.0196 H   0  0  0  0  0  0  0  0  0  0  0  0
  145.9972   71.4771  218.3385 H   0  0  0  0  0  0  0  0  0  0  0  0
  145.4958   71.4137  220.0835 H   0  0  0  0  0  0  0  0  0  0  0  0
  147.2327   69.3430  218.8799 H   0  0  0  0  0  0  0  0  0  0  0  0
  147.0683   66.8553  218.8499 H   0  0  0  0  0  0  0  0  0  0  0  0
  144.8349   65.7474  218.9227 H   0  0  0  0  0  0  0  0  0  0  0  0
  142.7590   67.1205  219.0488 H   0  0  0  0  0  0  0  0  0  0  0  0
  142.0513   69.7743  218.1106 H   0  0  0  0  0  0  0  0  0  0  0  0
  141.8851   69.3945  219.8697 H   0  0  0  0  0  0  0  0  0  0  0  0
  138.9081   76.0798  220.7657 H   0  0  0  0  0  0  0  0  0  0  0  0
  139.0960   75.2002  222.3287 H   0  0  0  0  0  0  0  0  0  0  0  0
  138.8746   77.7841  222.4284 H   0  0  0  0  0  0  0  0  0  0  0  0
  140.2337   77.0072  223.3463 H   0  0  0  0  0  0  0  0  0  0  0  0
  140.3385   82.6003  221.8562 H   0  0  0  0  0  0  0  0  0  0  0  0
  1  2  2  0
  2  3  1  0
  3  4  2  0
  4  5  1  0
  5  6  1  0
  6  7  1  0
  7  8  1  0
  8  9  1  0
  9 10  2  0
 10 11  1  0
 11 12  1  0
 12 13  1  0
 13 14  1  0
 14 15  1  0
 15 16  2  0
 16 17  1  0
 17 18  2  0
 18 19  1  0
 19 20  2  0
 20 21  1  0
 11 22  2  0
 22 23  1  0
 23 24  1  0
 24 25  1  0
 25 26  1  0
 26 27  1  0
 27 28  2  0
 28 29  1  0
 29 30  2  0
 30 31  1  0
 31 32  2  0
 32 33  1  0
 23 34  2  0
  8 35  1  0
 35 36  1  0
  4 37  1  0
 37 38  2  0
 38  1  1  0
 36  5  1  0
 34  9  1  0
 21 12  1  0
 33 24  1  0
 20 15  1  0
 32 27  1  0
  1 39  1  0
  2 40  1  0
  3 41  1  0
  6 42  1  0
  6 43  1  0
  7 44  1  0
  7 45  1  0
 13 46  1  0
 13 47  1  0
 14 48  1  0
 14 49  1  0
 16 50  1  0
 17 51  1  0
 18 52  1  0
 19 53  1  0
 21 54  1  0
 21 55  1  0
 25 56  1  0
 25 57  1  0
 26 58  1  0
 26 59  1  0
 28 60  1  0
 29 61  1  0
 30 62  1  0
 31 63  1  0
 33 64  1  0
 33 65  1  0
 35 66  1  0
 35 67  1  0
 36 68  1  0
 36 69  1  0
 38 70  1  0
M  END
>  <UniqueID>  (61) 
50

>  <SMILES>  (61) 
c1ccc(N2CCN(c3nc(N4CCc5ccccc5C4)nc(N4CCc5ccccc5C4)n3)CC2)nc1

>  <Energy>  (61) 
89.10851446933106

>  <Genealogy>  (61) 
c1ccc(N2CCN(c3nc(N4CCc5ccccc5C4)nc(N4CCc5ccccc5C4)n3)CC2)nc1 (3D coordinates assigned)
c1ccc(N2CCN(c3nc(N4CCc5ccccc5C4)nc(N4CCc5ccccc5C4)n3)CC2)nc1 (nonaromatic ring conformer: 89.10851446933106 kcal/mol)

>  <smiles>  (61) 
c1ccc(N2CCN(c3nc(N4CCc5ccccc5C4)nc(N4CCc5ccccc5C4)n3)CC2)nc1

>  <score_type>  (61) 
oracle

>  <origin>  (61) 
autodockgpu

>  <m_score__min__energy>  (61) 
-10.69

>  <m_primary>  (61) 
energy

>  <meeko>  (61) 
{"free_energy": -10.69, "intermolecular_energy": -11.88, "internal_energy": -1.05, "cluster_size": 20, "cluster_id": 1, "rank_in_cluster": 2}

>  <energy>  (61) 
-10.69

>  <cluster_rmsd>  (61) 
0.0

>  <rmsd>  (61) 
269.49

>  <cluster>  (61) 
1

$$$$
QWCMPUPUGDWNGO-UHFFFAOYNA-N
     RDKit          3D

 70 76  0  0  0  0  0  0  0  0999 V2000
  141.8610   81.7670  223.2820 C   0  0  0  0  0  0  0  0  0  0  0  0
  142.6190   80.6450  223.6230 C   0  0  0  0  0  0  0  0  0  0  0  0
  142.2950   79.3960  223.0920 C   0  0  0  0  0  0  0  0  0  0  0  0
  141.2110   79.2830  222.2040 C   0  0  0  0  0  0  0  0  0  0  0  0
  140.8370   78.0110  221.6350 N   0  0  0  0  0  0  0  0  0  0  0  0
  141.3650   77.5620  220.3400 C   0  0  0  0  0  0  0  0  0  0  0  0
  141.8550   76.1180  220.4660 C   0  0  0  0  0  0  0  0  0  0  0  0
  140.8600   75.2670  221.1390 N   0  0  0  0  0  0  0  0  0  0  0  0
  141.1180   73.8530  221.2620 C   0  0  0  0  0  0  0  0  0  0  0  0
  140.6430   73.1660  222.3330 N   0  0  0  0  0  0  0  0  0  0  0  0
  140.8570   71.8290  222.4540 C   0  0  0  0  0  0  0  0  0  0  0  0
  140.3510   71.1010  223.5940 N   0  0  0  0  0  0  0  0  0  0  0  0
  139.1070   70.3240  223.4890 C   0  0  0  0  0  0  0  0  0  0  0  0
  139.2180   69.0380  224.2980 C   0  0  0  0  0  0  0  0  0  0  0  0
  139.6100   69.3410  225.7150 C   0  0  0  0  0  0  0  0  0  0  0  0
  139.1990   68.4880  226.7520 C   0  0  0  0  0  0  0  0  0  0  0  0
  139.5950   68.7390  228.0680 C   0  0  0  0  0  0  0  0  0  0  0  0
  140.4160   69.8290  228.3560 C   0  0  0  0  0  0  0  0  0  0  0  0
  140.8460   70.6730  227.3290 C   0  0  0  0  0  0  0  0  0  0  0  0
  140.4470   70.4390  226.0030 C   0  0  0  0  0  0  0  0  0  0  0  0
  140.9430   71.3680  224.9180 C   0  0  0  0  0  0  0  0  0  0  0  0
  141.5560   71.1820  221.4850 N   0  0  0  0  0  0  0  0  0  0  0  0
  142.0460   71.8550  220.4110 C   0  0  0  0  0  0  0  0  0  0  0  0
  142.7970   71.1570  219.3940 N   0  0  0  0  0  0  0  0  0  0  0  0
  143.8740   71.8130  218.6460 C   0  0  0  0  0  0  0  0  0  0  0  0
  145.1990   71.1200  218.9640 C   0  0  0  0  0  0  0  0  0  0  0  0
  145.0830   69.6120  218.9080 C   0  0  0  0  0  0  0  0  0  0  0  0
  146.2540   68.8410  218.8380 C   0  0  0  0  0  0  0  0  0  0  0  0
  146.1850   67.4440  218.8440 C   0  0  0  0  0  0  0  0  0  0  0  0
  144.9460   66.8060  218.9250 C   0  0  0  0  0  0  0  0  0  0  0  0
  143.7720   67.5590  219.0120 C   0  0  0  0  0  0  0  0  0  0  0  0
  143.8280   68.9610  219.0230 C   0  0  0  0  0  0  0  0  0  0  0  0
  142.5390   69.7450  219.0830 C   0  0  0  0  0  0  0  0  0  0  0  0
  141.8230   73.1900  220.3080 N   0  0  0  0  0  0  0  0  0  0  0  0
  139.5910   75.8520  221.6070 C   0  0  0  0  0  0  0  0  0  0  0  0
  139.8510   77.1780  222.3390 C   0  0  0  0  0  0  0  0  0  0  0  0
  140.4780   80.3940  221.9070 N   0  0  0  0  0  0  0  0  0  0  0  0
  140.7800   81.6190  222.4140 C   0  0  0  0  0  0  0  0  0  0  0  0
  142.1136   82.7555  223.6931 H   0  0  0  0  0  0  0  0  0  0  0  0
  143.4718   80.7458  224.3104 H   0  0  0  0  0  0  0  0  0  0  0  0
  142.8827   78.5074  223.3658 H   0  0  0  0  0  0  0  0  0  0  0  0
  140.5706   77.6154  219.5810 H   0  0  0  0  0  0  0  0  0  0  0  0
  142.2016   78.2097  220.0389 H   0  0  0  0  0  0  0  0  0  0  0  0
  142.0466   75.7166  219.4599 H   0  0  0  0  0  0  0  0  0  0  0  0
  142.7745   76.1172  221.0698 H   0  0  0  0  0  0  0  0  0  0  0  0
  138.2702   70.9246  223.8750 H   0  0  0  0  0  0  0  0  0  0  0  0
  138.9319   70.0691  222.4334 H   0  0  0  0  0  0  0  0  0  0  0  0
  138.2463   68.5224  224.2935 H   0  0  0  0  0  0  0  0  0  0  0  0
  139.9890   68.3977  223.8446 H   0  0  0  0  0  0  0  0  0  0  0  0
  138.5630   67.6191  226.5273 H   0  0  0  0  0  0  0  0  0  0  0  0
  139.2587   68.0757  228.8785 H   0  0  0  0  0  0  0  0  0  0  0  0
  140.7255   70.0245  229.3933 H   0  0  0  0  0  0  0  0  0  0  0  0
  141.5010   71.5259  227.5604 H   0  0  0  0  0  0  0  0  0  0  0  0
  140.6981   72.4009  225.2062 H   0  0  0  0  0  0  0  0  0  0  0  0
  142.0268   71.2046  224.8249 H   0  0  0  0  0  0  0  0  0  0  0  0
  143.6702   71.7407  217.5675 H   0  0  0  0  0  0  0  0  0  0  0  0
  143.9322   72.8731  218.9337 H   0  0  0  0  0  0  0  0  0  0  0  0
  145.9533   71.4447  218.2321 H   0  0  0  0  0  0  0  0  0  0  0  0
  145.4888   71.3987  219.9879 H   0  0  0  0  0  0  0  0  0  0  0  0
  147.2329   69.3391  218.7780 H   0  0  0  0  0  0  0  0  0  0  0  0
  147.1075   66.8478  218.7848 H   0  0  0  0  0  0  0  0  0  0  0  0
  144.8936   65.7073  218.9203 H   0  0  0  0  0  0  0  0  0  0  0  0
  142.7988   67.0499  219.0722 H   0  0  0  0  0  0  0  0  0  0  0  0
  142.0312   69.6778  218.1095 H   0  0  0  0  0  0  0  0  0  0  0  0
  141.9068   69.3207  219.8769 H   0  0  0  0  0  0  0  0  0  0  0  0
  138.9366   76.0373  220.7425 H   0  0  0  0  0  0  0  0  0  0  0  0
  139.1085   75.1490  222.3020 H   0  0  0  0  0  0  0  0  0  0  0  0
  138.9048   77.7340  222.4136 H   0  0  0  0  0  0  0  0  0  0  0  0
  140.2538   76.9431  223.3353 H   0  0  0  0  0  0  0  0  0  0  0  0
  140.1715   82.4932  222.1393 H   0  0  0  0  0  0  0  0  0  0  0  0
  1  2  2  0
  2  3  1  0
  3  4  2  0
  4  5  1  0
  5  6  1  0
  6  7  1  0
  7  8  1  0
  8  9  1  0
  9 10  2  0
 10 11  1  0
 11 12  1  0
 12 13  1  0
 13 14  1  0
 14 15  1  0
 15 16  2  0
 16 17  1  0
 17 18  2  0
 18 19  1  0
 19 20  2  0
 20 21  1  0
 11 22  2  0
 22 23  1  0
 23 24  1  0
 24 25  1  0
 25 26  1  0
 26 27  1  0
 27 28  2  0
 28 29  1  0
 29 30  2  0
 30 31  1  0
 31 32  2  0
 32 33  1  0
 23 34  2  0
  8 35  1  0
 35 36  1  0
  4 37  1  0
 37 38  2  0
 38  1  1  0
 36  5  1  0
 34  9  1  0
 21 12  1  0
 33 24  1  0
 20 15  1  0
 32 27  1  0
  1 39  1  0
  2 40  1  0
  3 41  1  0
  6 42  1  0
  6 43  1  0
  7 44  1  0
  7 45  1  0
 13 46  1  0
 13 47  1  0
 14 48  1  0
 14 49  1  0
 16 50  1  0
 17 51  1  0
 18 52  1  0
 19 53  1  0
 21 54  1  0
 21 55  1  0
 25 56  1  0
 25 57  1  0
 26 58  1  0
 26 59  1  0
 28 60  1  0
 29 61  1  0
 30 62  1  0
 31 63  1  0
 33 64  1  0
 33 65  1  0
 35 66  1  0
 35 67  1  0
 36 68  1  0
 36 69  1  0
 38 70  1  0
M  END
>  <UniqueID>  (62) 
50

>  <SMILES>  (62) 
c1ccc(N2CCN(c3nc(N4CCc5ccccc5C4)nc(N4CCc5ccccc5C4)n3)CC2)nc1

>  <Energy>  (62) 
89.10851446933106

>  <Genealogy>  (62) 
c1ccc(N2CCN(c3nc(N4CCc5ccccc5C4)nc(N4CCc5ccccc5C4)n3)CC2)nc1 (3D coordinates assigned)
c1ccc(N2CCN(c3nc(N4CCc5ccccc5C4)nc(N4CCc5ccccc5C4)n3)CC2)nc1 (nonaromatic ring conformer: 89.10851446933106 kcal/mol)

>  <smiles>  (62) 
c1ccc(N2CCN(c3nc(N4CCc5ccccc5C4)nc(N4CCc5ccccc5C4)n3)CC2)nc1

>  <score_type>  (62) 
oracle

>  <origin>  (62) 
autodockgpu

>  <m_score__min__energy>  (62) 
-10.69

>  <m_primary>  (62) 
energy

>  <meeko>  (62) 
{"free_energy": -10.69, "intermolecular_energy": -11.88, "internal_energy": -1.04, "cluster_size": 20, "cluster_id": 1, "rank_in_cluster": 3}

>  <energy>  (62) 
-10.69

>  <cluster_rmsd>  (62) 
0.06

>  <rmsd>  (62) 
269.48

>  <cluster>  (62) 
1

$$$$
QWCMPUPUGDWNGO-UHFFFAOYNA-N
     RDKit          3D

 70 76  0  0  0  0  0  0  0  0999 V2000
  141.8560   81.8160  223.3200 C   0  0  0  0  0  0  0  0  0  0  0  0
  142.4610   80.6640  223.8250 C   0  0  0  0  0  0  0  0  0  0  0  0
  142.1410   79.4160  223.2900 C   0  0  0  0  0  0  0  0  0  0  0  0
  141.2160   79.3330  222.2340 C   0  0  0  0  0  0  0  0  0  0  0  0
  140.8520   78.0640  221.6540 N   0  0  0  0  0  0  0  0  0  0  0  0
  141.4030   77.6170  220.3680 C   0  0  0  0  0  0  0  0  0  0  0  0
  141.8880   76.1730  220.4990 C   0  0  0  0  0  0  0  0  0  0  0  0
  140.8800   75.3210  221.1500 N   0  0  0  0  0  0  0  0  0  0  0  0
  141.1330   73.9060  221.2730 C   0  0  0  0  0  0  0  0  0  0  0  0
  140.6560   73.2210  222.3450 N   0  0  0  0  0  0  0  0  0  0  0  0
  140.8660   71.8830  222.4660 C   0  0  0  0  0  0  0  0  0  0  0  0
  140.3580   71.1570  223.6060 N   0  0  0  0  0  0  0  0  0  0  0  0
  139.1450   70.3350  223.4850 C   0  0  0  0  0  0  0  0  0  0  0  0
  139.2800   69.0680  224.3190 C   0  0  0  0  0  0  0  0  0  0  0  0
  139.6270   69.4090  225.7390 C   0  0  0  0  0  0  0  0  0  0  0  0
  139.2210   68.5590  226.7810 C   0  0  0  0  0  0  0  0  0  0  0  0
  139.5750   68.8460  228.1020 C   0  0  0  0  0  0  0  0  0  0  0  0
  140.3500   69.9690  228.3900 C   0  0  0  0  0  0  0  0  0  0  0  0
  140.7750   70.8100  227.3590 C   0  0  0  0  0  0  0  0  0  0  0  0
  140.4180   70.5400  226.0280 C   0  0  0  0  0  0  0  0  0  0  0  0
  140.9070   71.4670  224.9390 C   0  0  0  0  0  0  0  0  0  0  0  0
  141.5630   71.2340  221.4970 N   0  0  0  0  0  0  0  0  0  0  0  0
  142.0550   71.9050  220.4230 C   0  0  0  0  0  0  0  0  0  0  0  0
  142.8030   71.2040  219.4060 N   0  0  0  0  0  0  0  0  0  0  0  0
  143.8760   71.8590  218.6510 C   0  0  0  0  0  0  0  0  0  0  0  0
  145.2040   71.1720  218.9660 C   0  0  0  0  0  0  0  0  0  0  0  0
  145.0910   69.6630  218.9170 C   0  0  0  0  0  0  0  0  0  0  0  0
  146.2640   68.8940  218.8460 C   0  0  0  0  0  0  0  0  0  0  0  0
  146.1980   67.4980  218.8590 C   0  0  0  0  0  0  0  0  0  0  0  0
  144.9610   66.8560  218.9480 C   0  0  0  0  0  0  0  0  0  0  0  0
  143.7860   67.6070  219.0360 C   0  0  0  0  0  0  0  0  0  0  0  0
  143.8390   69.0100  219.0410 C   0  0  0  0  0  0  0  0  0  0  0  0
  142.5480   69.7900  219.1020 C   0  0  0  0  0  0  0  0  0  0  0  0
  141.8370   73.2410  220.3200 N   0  0  0  0  0  0  0  0  0  0  0  0
  139.6030   75.9060  221.5960 C   0  0  0  0  0  0  0  0  0  0  0  0
  139.8510   77.2300  222.3370 C   0  0  0  0  0  0  0  0  0  0  0  0
  140.6260   80.4750  221.7780 N   0  0  0  0  0  0  0  0  0  0  0  0
  140.9270   81.7000  222.2860 C   0  0  0  0  0  0  0  0  0  0  0  0
  142.1089   82.8038  223.7326 H   0  0  0  0  0  0  0  0  0  0  0  0
  143.1903   80.7402  224.6450 H   0  0  0  0  0  0  0  0  0  0  0  0
  142.6083   78.5044  223.6908 H   0  0  0  0  0  0  0  0  0  0  0  0
  140.6228   77.6736  219.5947 H   0  0  0  0  0  0  0  0  0  0  0  0
  142.2461   78.2640  220.0842 H   0  0  0  0  0  0  0  0  0  0  0  0
  142.0983   75.7744  219.4955 H   0  0  0  0  0  0  0  0  0  0  0  0
  142.7955   76.1694  221.1206 H   0  0  0  0  0  0  0  0  0  0  0  0
  138.2785   70.9124  223.8397 H   0  0  0  0  0  0  0  0  0  0  0  0
  139.0055   70.0560  222.4302 H   0  0  0  0  0  0  0  0  0  0  0  0
  138.3269   68.5192  224.3009 H   0  0  0  0  0  0  0  0  0  0  0  0
  140.0829   68.4467  223.8955 H   0  0  0  0  0  0  0  0  0  0  0  0
  138.6221   67.6641  226.5563 H   0  0  0  0  0  0  0  0  0  0  0  0
  139.2419   68.1852  228.9158 H   0  0  0  0  0  0  0  0  0  0  0  0
  140.6271   70.1928  229.4307 H   0  0  0  0  0  0  0  0  0  0  0  0
  141.3934   71.6896  227.5912 H   0  0  0  0  0  0  0  0  0  0  0  0
  140.6187   72.4952  225.2028 H   0  0  0  0  0  0  0  0  0  0  0  0
  141.9978   71.3404  224.8748 H   0  0  0  0  0  0  0  0  0  0  0  0
  143.6681   71.7813  217.5736 H   0  0  0  0  0  0  0  0  0  0  0  0
  143.9327   72.9203  218.9346 H   0  0  0  0  0  0  0  0  0  0  0  0
  145.9541   71.4955  218.2293 H   0  0  0  0  0  0  0  0  0  0  0  0
  145.4984   71.4564  219.9870 H   0  0  0  0  0  0  0  0  0  0  0  0
  147.2416   69.3939  218.7797 H   0  0  0  0  0  0  0  0  0  0  0  0
  147.1219   66.9040  218.7990 H   0  0  0  0  0  0  0  0  0  0  0  0
  144.9116   65.7571  218.9488 H   0  0  0  0  0  0  0  0  0  0  0  0
  142.8140   67.0962  219.1017 H   0  0  0  0  0  0  0  0  0  0  0  0
  142.0371   69.7171  218.1306 H   0  0  0  0  0  0  0  0  0  0  0  0
  141.9197   69.3671  219.8997 H   0  0  0  0  0  0  0  0  0  0  0  0
  138.9650   76.0947  220.7200 H   0  0  0  0  0  0  0  0  0  0  0  0
  139.1068   75.2015  222.2797 H   0  0  0  0  0  0  0  0  0  0  0  0
  138.9044   77.7872  222.3952 H   0  0  0  0  0  0  0  0  0  0  0  0
  140.2344   76.9916  223.3401 H   0  0  0  0  0  0  0  0  0  0  0  0
  140.4382   82.5987  221.8818 H   0  0  0  0  0  0  0  0  0  0  0  0
  1  2  2  0
  2  3  1  0
  3  4  2  0
  4  5  1  0
  5  6  1  0
  6  7  1  0
  7  8  1  0
  8  9  1  0
  9 10  2  0
 10 11  1  0
 11 12  1  0
 12 13  1  0
 13 14  1  0
 14 15  1  0
 15 16  2  0
 16 17  1  0
 17 18  2  0
 18 19  1  0
 19 20  2  0
 20 21  1  0
 11 22  2  0
 22 23  1  0
 23 24  1  0
 24 25  1  0
 25 26  1  0
 26 27  1  0
 27 28  2  0
 28 29  1  0
 29 30  2  0
 30 31  1  0
 31 32  2  0
 32 33  1  0
 23 34  2  0
  8 35  1  0
 35 36  1  0
  4 37  1  0
 37 38  2  0
 38  1  1  0
 36  5  1  0
 34  9  1  0
 21 12  1  0
 33 24  1  0
 20 15  1  0
 32 27  1  0
  1 39  1  0
  2 40  1  0
  3 41  1  0
  6 42  1  0
  6 43  1  0
  7 44  1  0
  7 45  1  0
 13 46  1  0
 13 47  1  0
 14 48  1  0
 14 49  1  0
 16 50  1  0
 17 51  1  0
 18 52  1  0
 19 53  1  0
 21 54  1  0
 21 55  1  0
 25 56  1  0
 25 57  1  0
 26 58  1  0
 26 59  1  0
 28 60  1  0
 29 61  1  0
 30 62  1  0
 31 63  1  0
 33 64  1  0
 33 65  1  0
 35 66  1  0
 35 67  1  0
 36 68  1  0
 36 69  1  0
 38 70  1  0
M  END
>  <UniqueID>  (63) 
50

>  <SMILES>  (63) 
c1ccc(N2CCN(c3nc(N4CCc5ccccc5C4)nc(N4CCc5ccccc5C4)n3)CC2)nc1

>  <Energy>  (63) 
89.10851446933106

>  <Genealogy>  (63) 
c1ccc(N2CCN(c3nc(N4CCc5ccccc5C4)nc(N4CCc5ccccc5C4)n3)CC2)nc1 (3D coordinates assigned)
c1ccc(N2CCN(c3nc(N4CCc5ccccc5C4)nc(N4CCc5ccccc5C4)n3)CC2)nc1 (nonaromatic ring conformer: 89.10851446933106 kcal/mol)

>  <smiles>  (63) 
c1ccc(N2CCN(c3nc(N4CCc5ccccc5C4)nc(N4CCc5ccccc5C4)n3)CC2)nc1

>  <score_type>  (63) 
oracle

>  <origin>  (63) 
autodockgpu

>  <m_score__min__energy>  (63) 
-10.69

>  <m_primary>  (63) 
energy

>  <meeko>  (63) 
{"free_energy": -10.67, "intermolecular_energy": -11.87, "internal_energy": -1.05, "cluster_size": 20, "cluster_id": 1, "rank_in_cluster": 6}

>  <energy>  (63) 
-10.69

>  <cluster_rmsd>  (63) 
0.11

>  <rmsd>  (63) 
269.45

>  <cluster>  (63) 
1

$$$$
QWCMPUPUGDWNGO-UHFFFAOYNA-N
     RDKit          3D

 70 76  0  0  0  0  0  0  0  0999 V2000
  141.8900   81.7480  223.3340 C   0  0  0  0  0  0  0  0  0  0  0  0
  142.5360   80.5960  223.7860 C   0  0  0  0  0  0  0  0  0  0  0  0
  142.2010   79.3520  223.2490 C   0  0  0  0  0  0  0  0  0  0  0  0
  141.2210   79.2750  222.2430 C   0  0  0  0  0  0  0  0  0  0  0  0
  140.8400   78.0100  221.6630 N   0  0  0  0  0  0  0  0  0  0  0  0
  141.3720   77.5650  220.3690 C   0  0  0  0  0  0  0  0  0  0  0  0
  141.8490   76.1160  220.4880 C   0  0  0  0  0  0  0  0  0  0  0  0
  140.8420   75.2690  221.1490 N   0  0  0  0  0  0  0  0  0  0  0  0
  141.0870   73.8520  221.2640 C   0  0  0  0  0  0  0  0  0  0  0  0
  140.6250   73.1670  222.3430 N   0  0  0  0  0  0  0  0  0  0  0  0
  140.8270   71.8280  222.4560 C   0  0  0  0  0  0  0  0  0  0  0  0
  140.3340   71.1030  223.6040 N   0  0  0  0  0  0  0  0  0  0  0  0
  139.0740   70.3490  223.5240 C   0  0  0  0  0  0  0  0  0  0  0  0
  139.1800   69.0570  224.3230 C   0  0  0  0  0  0  0  0  0  0  0  0
  139.6110   69.3450  225.7320 C   0  0  0  0  0  0  0  0  0  0  0  0
  139.2090   68.4940  226.7740 C   0  0  0  0  0  0  0  0  0  0  0  0
  139.6400   68.7300  228.0820 C   0  0  0  0  0  0  0  0  0  0  0  0
  140.4870   69.8030  228.3570 C   0  0  0  0  0  0  0  0  0  0  0  0
  140.9080   70.6450  227.3240 C   0  0  0  0  0  0  0  0  0  0  0  0
  140.4740   70.4260  226.0070 C   0  0  0  0  0  0  0  0  0  0  0  0
  140.9610   71.3520  224.9150 C   0  0  0  0  0  0  0  0  0  0  0  0
  141.5000   71.1760  221.4730 N   0  0  0  0  0  0  0  0  0  0  0  0
  141.9770   71.8460  220.3920 C   0  0  0  0  0  0  0  0  0  0  0  0
  142.7010   71.1420  219.3590 N   0  0  0  0  0  0  0  0  0  0  0  0
  143.7100   71.8130  218.5330 C   0  0  0  0  0  0  0  0  0  0  0  0
  145.0770   71.1830  218.8020 C   0  0  0  0  0  0  0  0  0  0  0  0
  145.0190   69.6700  218.8020 C   0  0  0  0  0  0  0  0  0  0  0  0
  146.2150   68.9420  218.6940 C   0  0  0  0  0  0  0  0  0  0  0  0
  146.2020   67.5450  218.7500 C   0  0  0  0  0  0  0  0  0  0  0  0
  144.9950   66.8630  218.9180 C   0  0  0  0  0  0  0  0  0  0  0  0
  143.7990   67.5730  219.0430 C   0  0  0  0  0  0  0  0  0  0  0  0
  143.7990   68.9760  219.0050 C   0  0  0  0  0  0  0  0  0  0  0  0
  142.4840   69.7120  219.1090 C   0  0  0  0  0  0  0  0  0  0  0  0
  141.7670   73.1840  220.2960 N   0  0  0  0  0  0  0  0  0  0  0  0
  139.5760   75.8620  221.6130 C   0  0  0  0  0  0  0  0  0  0  0  0
  139.8420   77.1810  222.3560 C   0  0  0  0  0  0  0  0  0  0  0  0
  140.5940   80.4160  221.8380 N   0  0  0  0  0  0  0  0  0  0  0  0
  140.9080   81.6370  222.3500 C   0  0  0  0  0  0  0  0  0  0  0  0
  142.1526   82.7322  223.7493 H   0  0  0  0  0  0  0  0  0  0  0  0
  143.3089   80.6686  224.5653 H   0  0  0  0  0  0  0  0  0  0  0  0
  142.6991   78.4398  223.6094 H   0  0  0  0  0  0  0  0  0  0  0  0
  140.5828   77.6302  219.6055 H   0  0  0  0  0  0  0  0  0  0  0  0
  142.2161   78.2074  220.0777 H   0  0  0  0  0  0  0  0  0  0  0  0
  142.0436   75.7198  219.4804 H   0  0  0  0  0  0  0  0  0  0  0  0
  142.7647   76.1030  221.0974 H   0  0  0  0  0  0  0  0  0  0  0  0
  138.2574   70.9624  223.9325 H   0  0  0  0  0  0  0  0  0  0  0  0
  138.8702   70.1032  222.4714 H   0  0  0  0  0  0  0  0  0  0  0  0
  138.1991   68.5595  224.3389 H   0  0  0  0  0  0  0  0  0  0  0  0
  139.9278   68.4049  223.8481 H   0  0  0  0  0  0  0  0  0  0  0  0
  138.5521   67.6381  226.5597 H   0  0  0  0  0  0  0  0  0  0  0  0
  139.3105   68.0680  228.8964 H   0  0  0  0  0  0  0  0  0  0  0  0
  140.8241   69.9869  229.3878 H   0  0  0  0  0  0  0  0  0  0  0  0
  141.5837   71.4846  227.5443 H   0  0  0  0  0  0  0  0  0  0  0  0
  140.7413   72.3875  225.2140 H   0  0  0  0  0  0  0  0  0  0  0  0
  142.0392   71.1696  224.7957 H   0  0  0  0  0  0  0  0  0  0  0  0
  143.4531   71.6955  217.4699 H   0  0  0  0  0  0  0  0  0  0  0  0
  143.7402   72.8840  218.7823 H   0  0  0  0  0  0  0  0  0  0  0  0
  145.7782   71.5107  218.0203 H   0  0  0  0  0  0  0  0  0  0  0  0
  145.4087   71.5084  219.7991 H   0  0  0  0  0  0  0  0  0  0  0  0
  147.1687   69.4745  218.5644 H   0  0  0  0  0  0  0  0  0  0  0  0
  147.1433   66.9827  218.6617 H   0  0  0  0  0  0  0  0  0  0  0  0
  144.9863   65.7636  218.9520 H   0  0  0  0  0  0  0  0  0  0  0  0
  142.8514   67.0295  219.1720 H   0  0  0  0  0  0  0  0  0  0  0  0
  141.9287   69.5915  218.1671 H   0  0  0  0  0  0  0  0  0  0  0  0
  141.9121   69.2917  219.9494 H   0  0  0  0  0  0  0  0  0  0  0  0
  138.9288   76.0589  220.7457 H   0  0  0  0  0  0  0  0  0  0  0  0
  139.0836   75.1585  222.3005 H   0  0  0  0  0  0  0  0  0  0  0  0
  138.9001   77.7445  222.4282 H   0  0  0  0  0  0  0  0  0  0  0  0
  140.2357   76.9366  223.3536 H   0  0  0  0  0  0  0  0  0  0  0  0
  140.3876   82.5360  221.9880 H   0  0  0  0  0  0  0  0  0  0  0  0
  1  2  2  0
  2  3  1  0
  3  4  2  0
  4  5  1  0
  5  6  1  0
  6  7  1  0
  7  8  1  0
  8  9  1  0
  9 10  2  0
 10 11  1  0
 11 12  1  0
 12 13  1  0
 13 14  1  0
 14 15  1  0
 15 16  2  0
 16 17  1  0
 17 18  2  0
 18 19  1  0
 19 20  2  0
 20 21  1  0
 11 22  2  0
 22 23  1  0
 23 24  1  0
 24 25  1  0
 25 26  1  0
 26 27  1  0
 27 28  2  0
 28 29  1  0
 29 30  2  0
 30 31  1  0
 31 32  2  0
 32 33  1  0
 23 34  2  0
  8 35  1  0
 35 36  1  0
  4 37  1  0
 37 38  2  0
 38  1  1  0
 36  5  1  0
 34  9  1  0
 21 12  1  0
 33 24  1  0
 20 15  1  0
 32 27  1  0
  1 39  1  0
  2 40  1  0
  3 41  1  0
  6 42  1  0
  6 43  1  0
  7 44  1  0
  7 45  1  0
 13 46  1  0
 13 47  1  0
 14 48  1  0
 14 49  1  0
 16 50  1  0
 17 51  1  0
 18 52  1  0
 19 53  1  0
 21 54  1  0
 21 55  1  0
 25 56  1  0
 25 57  1  0
 26 58  1  0
 26 59  1  0
 28 60  1  0
 29 61  1  0
 30 62  1  0
 31 63  1  0
 33 64  1  0
 33 65  1  0
 35 66  1  0
 35 67  1  0
 36 68  1  0
 36 69  1  0
 38 70  1  0
M  END
>  <UniqueID>  (64) 
50

>  <SMILES>  (64) 
c1ccc(N2CCN(c3nc(N4CCc5ccccc5C4)nc(N4CCc5ccccc5C4)n3)CC2)nc1

>  <Energy>  (64) 
89.10851446933106

>  <Genealogy>  (64) 
c1ccc(N2CCN(c3nc(N4CCc5ccccc5C4)nc(N4CCc5ccccc5C4)n3)CC2)nc1 (3D coordinates assigned)
c1ccc(N2CCN(c3nc(N4CCc5ccccc5C4)nc(N4CCc5ccccc5C4)n3)CC2)nc1 (nonaromatic ring conformer: 89.10851446933106 kcal/mol)

>  <smiles>  (64) 
c1ccc(N2CCN(c3nc(N4CCc5ccccc5C4)nc(N4CCc5ccccc5C4)n3)CC2)nc1

>  <score_type>  (64) 
oracle

>  <origin>  (64) 
autodockgpu

>  <m_score__min__energy>  (64) 
-10.69

>  <m_primary>  (64) 
energy

>  <meeko>  (64) 
{"free_energy": -10.66, "intermolecular_energy": -11.86, "internal_energy": -1.04, "cluster_size": 20, "cluster_id": 1, "rank_in_cluster": 8}

>  <energy>  (64) 
-10.68

>  <cluster_rmsd>  (64) 
0.07

>  <rmsd>  (64) 
269.47

>  <cluster>  (64) 
1

$$$$
QWCMPUPUGDWNGO-UHFFFAOYNA-N
     RDKit          3D

 70 76  0  0  0  0  0  0  0  0999 V2000
  141.8280   82.0130  223.1150 C   0  0  0  0  0  0  0  0  0  0  0  0
  142.4370   80.8750  223.6480 C   0  0  0  0  0  0  0  0  0  0  0  0
  142.0990   79.6110  223.1630 C   0  0  0  0  0  0  0  0  0  0  0  0
  141.1540   79.4980  222.1290 C   0  0  0  0  0  0  0  0  0  0  0  0
  140.7710   78.2110  221.6010 N   0  0  0  0  0  0  0  0  0  0  0  0
  141.3540   77.6820  220.3610 C   0  0  0  0  0  0  0  0  0  0  0  0
  141.7890   76.2330  220.5830 C   0  0  0  0  0  0  0  0  0  0  0  0
  140.7320   75.4460  221.2390 N   0  0  0  0  0  0  0  0  0  0  0  0
  140.9360   74.0330  221.4430 C   0  0  0  0  0  0  0  0  0  0  0  0
  141.8510   73.3630  220.6940 N   0  0  0  0  0  0  0  0  0  0  0  0
  142.0730   72.0360  220.8880 C   0  0  0  0  0  0  0  0  0  0  0  0
  143.0460   71.3270  220.0910 N   0  0  0  0  0  0  0  0  0  0  0  0
  144.0610   72.0660  219.3230 C   0  0  0  0  0  0  0  0  0  0  0  0
  145.3880   71.3180  219.3470 C   0  0  0  0  0  0  0  0  0  0  0  0
  145.2020   69.9040  218.8790 C   0  0  0  0  0  0  0  0  0  0  0  0
  146.2600   69.2340  218.2440 C   0  0  0  0  0  0  0  0  0  0  0  0
  146.1110   67.9030  217.8420 C   0  0  0  0  0  0  0  0  0  0  0  0
  144.9140   67.2290  218.0860 C   0  0  0  0  0  0  0  0  0  0  0  0
  143.8630   67.8820  218.7340 C   0  0  0  0  0  0  0  0  0  0  0  0
  143.9950   69.2210  219.1340 C   0  0  0  0  0  0  0  0  0  0  0  0
  142.8380   69.8890  219.8420 C   0  0  0  0  0  0  0  0  0  0  0  0
  141.3660   71.3820  221.8460 N   0  0  0  0  0  0  0  0  0  0  0  0
  140.4410   72.0330  222.5980 C   0  0  0  0  0  0  0  0  0  0  0  0
  139.6890   71.3220  223.6040 N   0  0  0  0  0  0  0  0  0  0  0  0
  138.6520   70.3490  223.2460 C   0  0  0  0  0  0  0  0  0  0  0  0
  139.0760   68.9630  223.7320 C   0  0  0  0  0  0  0  0  0  0  0  0
  139.5940   68.9900  225.1540 C   0  0  0  0  0  0  0  0  0  0  0  0
  139.7030   67.7820  225.8620 C   0  0  0  0  0  0  0  0  0  0  0  0
  140.2330   67.7650  227.1560 C   0  0  0  0  0  0  0  0  0  0  0  0
  140.6620   68.9520  227.7520 C   0  0  0  0  0  0  0  0  0  0  0  0
  140.5750   70.1590  227.0550 C   0  0  0  0  0  0  0  0  0  0  0  0
  140.0610   70.1890  225.7490 C   0  0  0  0  0  0  0  0  0  0  0  0
  139.9490   71.5160  225.0370 C   0  0  0  0  0  0  0  0  0  0  0  0
  140.2320   73.3580  222.3890 N   0  0  0  0  0  0  0  0  0  0  0  0
  139.4590   76.0910  221.6060 C   0  0  0  0  0  0  0  0  0  0  0  0
  139.7210   77.4430  222.2870 C   0  0  0  0  0  0  0  0  0  0  0  0
  140.5610   80.6270  221.6440 N   0  0  0  0  0  0  0  0  0  0  0  0
  140.8790   81.8660  222.1040 C   0  0  0  0  0  0  0  0  0  0  0  0
  142.0937   83.0131  223.4881 H   0  0  0  0  0  0  0  0  0  0  0  0
  143.1831   80.9750  224.4501 H   0  0  0  0  0  0  0  0  0  0  0  0
  142.5682   78.7107  223.5864 H   0  0  0  0  0  0  0  0  0  0  0  0
  140.6044   77.7212  219.5569 H   0  0  0  0  0  0  0  0  0  0  0  0
  142.2266   78.2885  220.0769 H   0  0  0  0  0  0  0  0  0  0  0  0
  142.0221   75.7768  219.6096 H   0  0  0  0  0  0  0  0  0  0  0  0
  142.6735   76.2349  221.2369 H   0  0  0  0  0  0  0  0  0  0  0  0
  143.7226   72.1720  218.2817 H   0  0  0  0  0  0  0  0  0  0  0  0
  144.2008   73.0587  219.7758 H   0  0  0  0  0  0  0  0  0  0  0  0
  146.1030   71.8277  218.6845 H   0  0  0  0  0  0  0  0  0  0  0  0
  145.7705   71.3044  220.3783 H   0  0  0  0  0  0  0  0  0  0  0  0
  147.2098   69.7582  218.0621 H   0  0  0  0  0  0  0  0  0  0  0  0
  146.9383   67.3869  217.3329 H   0  0  0  0  0  0  0  0  0  0  0  0
  144.7979   66.1825  217.7678 H   0  0  0  0  0  0  0  0  0  0  0  0
  142.9249   67.3430  218.9323 H   0  0  0  0  0  0  0  0  0  0  0  0
  141.9368   69.7707  219.2225 H   0  0  0  0  0  0  0  0  0  0  0  0
  142.7389   69.4038  220.8242 H   0  0  0  0  0  0  0  0  0  0  0  0
  137.7017   70.6315  223.7227 H   0  0  0  0  0  0  0  0  0  0  0  0
  138.5196   70.3339  222.1541 H   0  0  0  0  0  0  0  0  0  0  0  0
  138.2075   68.2896  223.6840 H   0  0  0  0  0  0  0  0  0  0  0  0
  139.8910   68.6117  223.0821 H   0  0  0  0  0  0  0  0  0  0  0  0
  139.3694   66.8432  225.3957 H   0  0  0  0  0  0  0  0  0  0  0  0
  140.3119   66.8150  227.7049 H   0  0  0  0  0  0  0  0  0  0  0  0
  141.0697   68.9367  228.7735 H   0  0  0  0  0  0  0  0  0  0  0  0
  140.9111   71.0915  227.5320 H   0  0  0  0  0  0  0  0  0  0  0  0
  139.1227   72.0927  225.4781 H   0  0  0  0  0  0  0  0  0  0  0  0
  140.8996   72.0575  225.1515 H   0  0  0  0  0  0  0  0  0  0  0  0
  138.8595   76.2526  220.6980 H   0  0  0  0  0  0  0  0  0  0  0  0
  138.9166   75.4380  222.3056 H   0  0  0  0  0  0  0  0  0  0  0  0
  138.7906   78.0298  222.2812 H   0  0  0  0  0  0  0  0  0  0  0  0
  140.0606   77.2458  223.3145 H   0  0  0  0  0  0  0  0  0  0  0  0
  140.3874   82.7532  221.6784 H   0  0  0  0  0  0  0  0  0  0  0  0
  1  2  2  0
  2  3  1  0
  3  4  2  0
  4  5  1  0
  5  6  1  0
  6  7  1  0
  7  8  1  0
  8  9  1  0
  9 10  2  0
 10 11  1  0
 11 12  1  0
 12 13  1  0
 13 14  1  0
 14 15  1  0
 15 16  2  0
 16 17  1  0
 17 18  2  0
 18 19  1  0
 19 20  2  0
 20 21  1  0
 11 22  2  0
 22 23  1  0
 23 24  1  0
 24 25  1  0
 25 26  1  0
 26 27  1  0
 27 28  2  0
 28 29  1  0
 29 30  2  0
 30 31  1  0
 31 32  2  0
 32 33  1  0
 23 34  2  0
  8 35  1  0
 35 36  1  0
  4 37  1  0
 37 38  2  0
 38  1  1  0
 36  5  1  0
 34  9  1  0
 21 12  1  0
 33 24  1  0
 20 15  1  0
 32 27  1  0
  1 39  1  0
  2 40  1  0
  3 41  1  0
  6 42  1  0
  6 43  1  0
  7 44  1  0
  7 45  1  0
 13 46  1  0
 13 47  1  0
 14 48  1  0
 14 49  1  0
 16 50  1  0
 17 51  1  0
 18 52  1  0
 19 53  1  0
 21 54  1  0
 21 55  1  0
 25 56  1  0
 25 57  1  0
 26 58  1  0
 26 59  1  0
 28 60  1  0
 29 61  1  0
 30 62  1  0
 31 63  1  0
 33 64  1  0
 33 65  1  0
 35 66  1  0
 35 67  1  0
 36 68  1  0
 36 69  1  0
 38 70  1  0
M  END
>  <UniqueID>  (65) 
50

>  <SMILES>  (65) 
c1ccc(N2CCN(c3nc(N4CCc5ccccc5C4)nc(N4CCc5ccccc5C4)n3)CC2)nc1

>  <Energy>  (65) 
89.10851446933106

>  <Genealogy>  (65) 
c1ccc(N2CCN(c3nc(N4CCc5ccccc5C4)nc(N4CCc5ccccc5C4)n3)CC2)nc1 (3D coordinates assigned)
c1ccc(N2CCN(c3nc(N4CCc5ccccc5C4)nc(N4CCc5ccccc5C4)n3)CC2)nc1 (nonaromatic ring conformer: 89.10851446933106 kcal/mol)

>  <smiles>  (65) 
c1ccc(N2CCN(c3nc(N4CCc5ccccc5C4)nc(N4CCc5ccccc5C4)n3)CC2)nc1

>  <score_type>  (65) 
oracle

>  <origin>  (65) 
autodockgpu

>  <m_score__min__energy>  (65) 
-10.69

>  <m_primary>  (65) 
energy

>  <meeko>  (65) 
{"free_energy": -10.41, "intermolecular_energy": -11.6, "internal_energy": -1.06, "cluster_size": 20, "cluster_id": 1, "rank_in_cluster": 15}

>  <energy>  (65) 
-10.68

>  <cluster_rmsd>  (65) 
0.07

>  <rmsd>  (65) 
269.47

>  <cluster>  (65) 
1

$$$$
QWCMPUPUGDWNGO-UHFFFAOYNA-N
     RDKit          3D

 70 76  0  0  0  0  0  0  0  0999 V2000
  141.8310   81.8020  223.3070 C   0  0  0  0  0  0  0  0  0  0  0  0
  142.4820   80.6580  223.7730 C   0  0  0  0  0  0  0  0  0  0  0  0
  142.1650   79.4090  223.2370 C   0  0  0  0  0  0  0  0  0  0  0  0
  141.1980   79.3180  222.2200 C   0  0  0  0  0  0  0  0  0  0  0  0
  140.8360   78.0470  221.6420 N   0  0  0  0  0  0  0  0  0  0  0  0
  141.3910   77.5990  220.3580 C   0  0  0  0  0  0  0  0  0  0  0  0
  141.8760   76.1540  220.4930 C   0  0  0  0  0  0  0  0  0  0  0  0
  140.8670   75.3030  221.1430 N   0  0  0  0  0  0  0  0  0  0  0  0
  141.1210   73.8890  221.2690 C   0  0  0  0  0  0  0  0  0  0  0  0
  140.6440   73.2060  222.3430 N   0  0  0  0  0  0  0  0  0  0  0  0
  140.8550   71.8690  222.4670 C   0  0  0  0  0  0  0  0  0  0  0  0
  140.3470   71.1450  223.6090 N   0  0  0  0  0  0  0  0  0  0  0  0
  139.1100   70.3560  223.5000 C   0  0  0  0  0  0  0  0  0  0  0  0
  139.2270   69.0780  224.3210 C   0  0  0  0  0  0  0  0  0  0  0  0
  139.6060   69.3960  225.7380 C   0  0  0  0  0  0  0  0  0  0  0  0
  139.1950   68.5470  226.7790 C   0  0  0  0  0  0  0  0  0  0  0  0
  139.5790   68.8120  228.0960 C   0  0  0  0  0  0  0  0  0  0  0  0
  140.3880   69.9120  228.3820 C   0  0  0  0  0  0  0  0  0  0  0  0
  140.8170   70.7510  227.3500 C   0  0  0  0  0  0  0  0  0  0  0  0
  140.4310   70.5030  226.0240 C   0  0  0  0  0  0  0  0  0  0  0  0
  140.9260   71.4280  224.9350 C   0  0  0  0  0  0  0  0  0  0  0  0
  141.5510   71.2180  221.4990 N   0  0  0  0  0  0  0  0  0  0  0  0
  142.0430   71.8860  220.4240 C   0  0  0  0  0  0  0  0  0  0  0  0
  142.7920   71.1830  219.4090 N   0  0  0  0  0  0  0  0  0  0  0  0
  143.8690   71.8350  218.6570 C   0  0  0  0  0  0  0  0  0  0  0  0
  145.1930   71.1410  218.9760 C   0  0  0  0  0  0  0  0  0  0  0  0
  145.0750   69.6330  218.9250 C   0  0  0  0  0  0  0  0  0  0  0  0
  146.2450   68.8600  218.8570 C   0  0  0  0  0  0  0  0  0  0  0  0
  146.1730   67.4640  218.8680 C   0  0  0  0  0  0  0  0  0  0  0  0
  144.9330   66.8270  218.9530 C   0  0  0  0  0  0  0  0  0  0  0  0
  143.7610   67.5820  219.0380 C   0  0  0  0  0  0  0  0  0  0  0  0
  143.8190   68.9850  219.0440 C   0  0  0  0  0  0  0  0  0  0  0  0
  142.5310   69.7710  219.1030 C   0  0  0  0  0  0  0  0  0  0  0  0
  141.8240   73.2220  220.3180 N   0  0  0  0  0  0  0  0  0  0  0  0
  139.5890   75.8890  221.5850 C   0  0  0  0  0  0  0  0  0  0  0  0
  139.8340   77.2140  222.3240 C   0  0  0  0  0  0  0  0  0  0  0  0
  140.5650   80.4520  221.8030 N   0  0  0  0  0  0  0  0  0  0  0  0
  140.8630   81.6770  222.3120 C   0  0  0  0  0  0  0  0  0  0  0  0
  142.0793   82.7906  223.7205 H   0  0  0  0  0  0  0  0  0  0  0  0
  143.2441   80.7411  224.5619 H   0  0  0  0  0  0  0  0  0  0  0  0
  142.6674   78.5031  223.6070 H   0  0  0  0  0  0  0  0  0  0  0  0
  140.6132   77.6545  219.5821 H   0  0  0  0  0  0  0  0  0  0  0  0
  142.2347   78.2459  220.0756 H   0  0  0  0  0  0  0  0  0  0  0  0
  142.0887   75.7536  219.4908 H   0  0  0  0  0  0  0  0  0  0  0  0
  142.7819   76.1518  221.1170 H   0  0  0  0  0  0  0  0  0  0  0  0
  138.2647   70.9521  223.8742 H   0  0  0  0  0  0  0  0  0  0  0  0
  138.9450   70.0911  222.4452 H   0  0  0  0  0  0  0  0  0  0  0  0
  138.2601   68.5535  224.3140 H   0  0  0  0  0  0  0  0  0  0  0  0
  140.0073   68.4413  223.8785 H   0  0  0  0  0  0  0  0  0  0  0  0
  138.5687   67.6705  226.5565 H   0  0  0  0  0  0  0  0  0  0  0  0
  139.2427   68.1519  228.9091 H   0  0  0  0  0  0  0  0  0  0  0  0
  140.6882   70.1189  229.4198 H   0  0  0  0  0  0  0  0  0  0  0  0
  141.4620   71.6121  227.5789 H   0  0  0  0  0  0  0  0  0  0  0  0
  140.6689   72.4608  225.2130 H   0  0  0  0  0  0  0  0  0  0  0  0
  142.0119   71.2741  224.8513 H   0  0  0  0  0  0  0  0  0  0  0  0
  143.6637   71.7591  217.5790 H   0  0  0  0  0  0  0  0  0  0  0  0
  143.9291   72.8961  218.9405 H   0  0  0  0  0  0  0  0  0  0  0  0
  145.9471   71.4623  218.2424 H   0  0  0  0  0  0  0  0  0  0  0  0
  145.4839   71.4225  219.9988 H   0  0  0  0  0  0  0  0  0  0  0  0
  147.2248   69.3561  218.7946 H   0  0  0  0  0  0  0  0  0  0  0  0
  147.0945   66.8662  218.8096 H   0  0  0  0  0  0  0  0  0  0  0  0
  144.8793   65.7283  218.9530 H   0  0  0  0  0  0  0  0  0  0  0  0
  142.7870   67.0747  219.1006 H   0  0  0  0  0  0  0  0  0  0  0  0
  142.0219   69.7015  218.1304 H   0  0  0  0  0  0  0  0  0  0  0  0
  141.8988   69.3502  219.8988 H   0  0  0  0  0  0  0  0  0  0  0  0
  138.9532   76.0759  220.7071 H   0  0  0  0  0  0  0  0  0  0  0  0
  139.0918   75.1857  222.2692 H   0  0  0  0  0  0  0  0  0  0  0  0
  138.8869   77.7707  222.3787 H   0  0  0  0  0  0  0  0  0  0  0  0
  140.2148   76.9779  223.3286 H   0  0  0  0  0  0  0  0  0  0  0  0
  140.3400   82.5697  221.9384 H   0  0  0  0  0  0  0  0  0  0  0  0
  1  2  2  0
  2  3  1  0
  3  4  2  0
  4  5  1  0
  5  6  1  0
  6  7  1  0
  7  8  1  0
  8  9  1  0
  9 10  2  0
 10 11  1  0
 11 12  1  0
 12 13  1  0
 13 14  1  0
 14 15  1  0
 15 16  2  0
 16 17  1  0
 17 18  2  0
 18 19  1  0
 19 20  2  0
 20 21  1  0
 11 22  2  0
 22 23  1  0
 23 24  1  0
 24 25  1  0
 25 26  1  0
 26 27  1  0
 27 28  2  0
 28 29  1  0
 29 30  2  0
 30 31  1  0
 31 32  2  0
 32 33  1  0
 23 34  2  0
  8 35  1  0
 35 36  1  0
  4 37  1  0
 37 38  2  0
 38  1  1  0
 36  5  1  0
 34  9  1  0
 21 12  1  0
 33 24  1  0
 20 15  1  0
 32 27  1  0
  1 39  1  0
  2 40  1  0
  3 41  1  0
  6 42  1  0
  6 43  1  0
  7 44  1  0
  7 45  1  0
 13 46  1  0
 13 47  1  0
 14 48  1  0
 14 49  1  0
 16 50  1  0
 17 51  1  0
 18 52  1  0
 19 53  1  0
 21 54  1  0
 21 55  1  0
 25 56  1  0
 25 57  1  0
 26 58  1  0
 26 59  1  0
 28 60  1  0
 29 61  1  0
 30 62  1  0
 31 63  1  0
 33 64  1  0
 33 65  1  0
 35 66  1  0
 35 67  1  0
 36 68  1  0
 36 69  1  0
 38 70  1  0
M  END
>  <UniqueID>  (66) 
50

>  <SMILES>  (66) 
c1ccc(N2CCN(c3nc(N4CCc5ccccc5C4)nc(N4CCc5ccccc5C4)n3)CC2)nc1

>  <Energy>  (66) 
89.10851446933106

>  <Genealogy>  (66) 
c1ccc(N2CCN(c3nc(N4CCc5ccccc5C4)nc(N4CCc5ccccc5C4)n3)CC2)nc1 (3D coordinates assigned)
c1ccc(N2CCN(c3nc(N4CCc5ccccc5C4)nc(N4CCc5ccccc5C4)n3)CC2)nc1 (nonaromatic ring conformer: 89.10851446933106 kcal/mol)

>  <smiles>  (66) 
c1ccc(N2CCN(c3nc(N4CCc5ccccc5C4)nc(N4CCc5ccccc5C4)n3)CC2)nc1

>  <score_type>  (66) 
oracle

>  <origin>  (66) 
autodockgpu

>  <m_score__min__energy>  (66) 
-10.69

>  <m_primary>  (66) 
energy

>  <meeko>  (66) 
{"free_energy": -10.68, "intermolecular_energy": -11.88, "internal_energy": -1.05, "cluster_size": 20, "cluster_id": 1, "rank_in_cluster": 4}

>  <energy>  (66) 
-10.67

>  <cluster_rmsd>  (66) 
0.06

>  <rmsd>  (66) 
269.49

>  <cluster>  (66) 
1

$$$$
QWCMPUPUGDWNGO-UHFFFAOYNA-N
     RDKit          3D

 70 76  0  0  0  0  0  0  0  0999 V2000
  141.8210   81.9420  223.1330 C   0  0  0  0  0  0  0  0  0  0  0  0
  142.4500   80.8040  223.6420 C   0  0  0  0  0  0  0  0  0  0  0  0
  142.1130   79.5430  223.1490 C   0  0  0  0  0  0  0  0  0  0  0  0
  141.1490   79.4320  222.1320 C   0  0  0  0  0  0  0  0  0  0  0  0
  140.7670   78.1480  221.5970 N   0  0  0  0  0  0  0  0  0  0  0  0
  141.2390   77.6900  220.2840 C   0  0  0  0  0  0  0  0  0  0  0  0
  141.7540   76.2540  220.4040 C   0  0  0  0  0  0  0  0  0  0  0  0
  140.8050   75.3990  221.1340 N   0  0  0  0  0  0  0  0  0  0  0  0
  141.0880   73.9900  221.2610 C   0  0  0  0  0  0  0  0  0  0  0  0
  140.6110   73.2940  222.3260 N   0  0  0  0  0  0  0  0  0  0  0  0
  140.8490   71.9620  222.4510 C   0  0  0  0  0  0  0  0  0  0  0  0
  140.3410   71.2250  223.5840 N   0  0  0  0  0  0  0  0  0  0  0  0
  139.0990   70.4450  223.4690 C   0  0  0  0  0  0  0  0  0  0  0  0
  139.2110   69.1540  224.2700 C   0  0  0  0  0  0  0  0  0  0  0  0
  139.5970   69.4490  225.6900 C   0  0  0  0  0  0  0  0  0  0  0  0
  139.1840   68.5880  226.7200 C   0  0  0  0  0  0  0  0  0  0  0  0
  139.5730   68.8310  228.0400 C   0  0  0  0  0  0  0  0  0  0  0  0
  140.3900   69.9220  228.3380 C   0  0  0  0  0  0  0  0  0  0  0  0
  140.8220   70.7730  227.3180 C   0  0  0  0  0  0  0  0  0  0  0  0
  140.4290   70.5470  225.9890 C   0  0  0  0  0  0  0  0  0  0  0  0
  140.9260   71.4850  224.9120 C   0  0  0  0  0  0  0  0  0  0  0  0
  141.5740   71.3280  221.4930 N   0  0  0  0  0  0  0  0  0  0  0  0
  142.0670   72.0100  220.4260 C   0  0  0  0  0  0  0  0  0  0  0  0
  142.8450   71.3260  219.4200 N   0  0  0  0  0  0  0  0  0  0  0  0
  143.9660   71.9800  218.7370 C   0  0  0  0  0  0  0  0  0  0  0  0
  145.2620   71.2500  219.0890 C   0  0  0  0  0  0  0  0  0  0  0  0
  145.1180   69.7470  218.9830 C   0  0  0  0  0  0  0  0  0  0  0  0
  146.2760   68.9530  218.9380 C   0  0  0  0  0  0  0  0  0  0  0  0
  146.1780   67.5590  218.9000 C   0  0  0  0  0  0  0  0  0  0  0  0
  144.9240   66.9450  218.9100 C   0  0  0  0  0  0  0  0  0  0  0  0
  143.7630   67.7200  218.9710 C   0  0  0  0  0  0  0  0  0  0  0  0
  143.8470   69.1200  219.0270 C   0  0  0  0  0  0  0  0  0  0  0  0
  142.5720   69.9290  219.0560 C   0  0  0  0  0  0  0  0  0  0  0  0
  141.8200   73.3410  220.3190 N   0  0  0  0  0  0  0  0  0  0  0  0
  139.5520   75.9720  221.6550 C   0  0  0  0  0  0  0  0  0  0  0  0
  139.8270   77.3110  222.3570 C   0  0  0  0  0  0  0  0  0  0  0  0
  140.5380   80.5620  221.6710 N   0  0  0  0  0  0  0  0  0  0  0  0
  140.8550   81.7990  222.1390 C   0  0  0  0  0  0  0  0  0  0  0  0
  142.0851   82.9401  223.5124 H   0  0  0  0  0  0  0  0  0  0  0  0
  143.2104   80.9016  224.4308 H   0  0  0  0  0  0  0  0  0  0  0  0
  142.5981   78.6423  223.5532 H   0  0  0  0  0  0  0  0  0  0  0  0
  140.4089   77.7236  219.5630 H   0  0  0  0  0  0  0  0  0  0  0  0
  142.0514   78.3448  219.9357 H   0  0  0  0  0  0  0  0  0  0  0  0
  141.9025   75.8422  219.3949 H   0  0  0  0  0  0  0  0  0  0  0  0
  142.7012   76.2731  220.9630 H   0  0  0  0  0  0  0  0  0  0  0  0
  138.2590   71.0406  223.8558 H   0  0  0  0  0  0  0  0  0  0  0  0
  138.9284   70.1967  222.4111 H   0  0  0  0  0  0  0  0  0  0  0  0
  138.2409   68.6355  224.2587 H   0  0  0  0  0  0  0  0  0  0  0  0
  139.9854   68.5189  223.8152 H   0  0  0  0  0  0  0  0  0  0  0  0
  138.5517   67.7187  226.4866 H   0  0  0  0  0  0  0  0  0  0  0  0
  139.2348   68.1616  228.8447 H   0  0  0  0  0  0  0  0  0  0  0  0
  140.6944   70.1123  229.3778 H   0  0  0  0  0  0  0  0  0  0  0  0
  141.4743   71.6257  227.5574 H   0  0  0  0  0  0  0  0  0  0  0  0
  140.6760   72.5151  225.2061 H   0  0  0  0  0  0  0  0  0  0  0  0
  142.0107   71.3259  224.8224 H   0  0  0  0  0  0  0  0  0  0  0  0
  143.8064   71.9431  217.6493 H   0  0  0  0  0  0  0  0  0  0  0  0
  144.0335   73.0299  219.0583 H   0  0  0  0  0  0  0  0  0  0  0  0
  146.0529   71.5797  218.3993 H   0  0  0  0  0  0  0  0  0  0  0  0
  145.5139   71.4926  220.1319 H   0  0  0  0  0  0  0  0  0  0  0  0
  147.2665   69.4314  218.9326 H   0  0  0  0  0  0  0  0  0  0  0  0
  147.0899   66.9450  218.8622 H   0  0  0  0  0  0  0  0  0  0  0  0
  144.8499   65.8482  218.8698 H   0  0  0  0  0  0  0  0  0  0  0  0
  142.7780   67.2304  218.9751 H   0  0  0  0  0  0  0  0  0  0  0  0
  142.1051   69.9010  218.0604 H   0  0  0  0  0  0  0  0  0  0  0  0
  141.8978   69.4951  219.8092 H   0  0  0  0  0  0  0  0  0  0  0  0
  138.8542   76.1366  220.8207 H   0  0  0  0  0  0  0  0  0  0  0  0
  139.1140   75.2715  222.3812 H   0  0  0  0  0  0  0  0  0  0  0  0
  138.8775   77.8550  222.4689 H   0  0  0  0  0  0  0  0  0  0  0  0
  140.2793   77.0949  223.3361 H   0  0  0  0  0  0  0  0  0  0  0  0
  140.3486   82.6870  221.7327 H   0  0  0  0  0  0  0  0  0  0  0  0
  1  2  2  0
  2  3  1  0
  3  4  2  0
  4  5  1  0
  5  6  1  0
  6  7  1  0
  7  8  1  0
  8  9  1  0
  9 10  2  0
 10 11  1  0
 11 12  1  0
 12 13  1  0
 13 14  1  0
 14 15  1  0
 15 16  2  0
 16 17  1  0
 17 18  2  0
 18 19  1  0
 19 20  2  0
 20 21  1  0
 11 22  2  0
 22 23  1  0
 23 24  1  0
 24 25  1  0
 25 26  1  0
 26 27  1  0
 27 28  2  0
 28 29  1  0
 29 30  2  0
 30 31  1  0
 31 32  2  0
 32 33  1  0
 23 34  2  0
  8 35  1  0
 35 36  1  0
  4 37  1  0
 37 38  2  0
 38  1  1  0
 36  5  1  0
 34  9  1  0
 21 12  1  0
 33 24  1  0
 20 15  1  0
 32 27  1  0
  1 39  1  0
  2 40  1  0
  3 41  1  0
  6 42  1  0
  6 43  1  0
  7 44  1  0
  7 45  1  0
 13 46  1  0
 13 47  1  0
 14 48  1  0
 14 49  1  0
 16 50  1  0
 17 51  1  0
 18 52  1  0
 19 53  1  0
 21 54  1  0
 21 55  1  0
 25 56  1  0
 25 57  1  0
 26 58  1  0
 26 59  1  0
 28 60  1  0
 29 61  1  0
 30 62  1  0
 31 63  1  0
 33 64  1  0
 33 65  1  0
 35 66  1  0
 35 67  1  0
 36 68  1  0
 36 69  1  0
 38 70  1  0
M  END
>  <UniqueID>  (67) 
50

>  <SMILES>  (67) 
c1ccc(N2CCN(c3nc(N4CCc5ccccc5C4)nc(N4CCc5ccccc5C4)n3)CC2)nc1

>  <Energy>  (67) 
89.10851446933106

>  <Genealogy>  (67) 
c1ccc(N2CCN(c3nc(N4CCc5ccccc5C4)nc(N4CCc5ccccc5C4)n3)CC2)nc1 (3D coordinates assigned)
c1ccc(N2CCN(c3nc(N4CCc5ccccc5C4)nc(N4CCc5ccccc5C4)n3)CC2)nc1 (nonaromatic ring conformer: 89.10851446933106 kcal/mol)

>  <smiles>  (67) 
c1ccc(N2CCN(c3nc(N4CCc5ccccc5C4)nc(N4CCc5ccccc5C4)n3)CC2)nc1

>  <score_type>  (67) 
oracle

>  <origin>  (67) 
autodockgpu

>  <m_score__min__energy>  (67) 
-10.69

>  <m_primary>  (67) 
energy

>  <meeko>  (67) 
{"free_energy": -10.67, "intermolecular_energy": -11.86, "internal_energy": -1.05, "cluster_size": 20, "cluster_id": 1, "rank_in_cluster": 7}

>  <energy>  (67) 
-10.67

>  <cluster_rmsd>  (67) 
0.09

>  <rmsd>  (67) 
269.47

>  <cluster>  (67) 
1

$$$$
QWCMPUPUGDWNGO-UHFFFAOYNA-N
     RDKit          3D

 70 76  0  0  0  0  0  0  0  0999 V2000
  142.1970   81.4610  223.6520 C   0  0  0  0  0  0  0  0  0  0  0  0
  140.8250   81.2460  223.5150 C   0  0  0  0  0  0  0  0  0  0  0  0
  140.3580   80.0690  222.9290 C   0  0  0  0  0  0  0  0  0  0  0  0
  141.2800   79.1010  222.4930 C   0  0  0  0  0  0  0  0  0  0  0  0
  140.8420   77.8720  221.8770 N   0  0  0  0  0  0  0  0  0  0  0  0
  141.4950   77.3380  220.6750 C   0  0  0  0  0  0  0  0  0  0  0  0
  141.7820   75.8490  220.8740 C   0  0  0  0  0  0  0  0  0  0  0  0
  140.6040   75.1360  221.3940 N   0  0  0  0  0  0  0  0  0  0  0  0
  140.6680   73.7040  221.5560 C   0  0  0  0  0  0  0  0  0  0  0  0
  141.3110   72.9440  220.6320 N   0  0  0  0  0  0  0  0  0  0  0  0
  141.4010   71.5950  220.7800 C   0  0  0  0  0  0  0  0  0  0  0  0
  142.0850   70.7900  219.7960 N   0  0  0  0  0  0  0  0  0  0  0  0
  141.3490   70.2240  218.6550 C   0  0  0  0  0  0  0  0  0  0  0  0
  142.2160   70.2520  217.4020 C   0  0  0  0  0  0  0  0  0  0  0  0
  143.5300   69.5730  217.6570 C   0  0  0  0  0  0  0  0  0  0  0  0
  144.2060   68.9400  216.6010 C   0  0  0  0  0  0  0  0  0  0  0  0
  145.4500   68.3420  216.8200 C   0  0  0  0  0  0  0  0  0  0  0  0
  146.0340   68.3850  218.0860 C   0  0  0  0  0  0  0  0  0  0  0  0
  145.3780   69.0290  219.1380 C   0  0  0  0  0  0  0  0  0  0  0  0
  144.1240   69.6250  218.9350 C   0  0  0  0  0  0  0  0  0  0  0  0
  143.4510   70.3220  220.0960 C   0  0  0  0  0  0  0  0  0  0  0  0
  140.8360   71.0120  221.8690 N   0  0  0  0  0  0  0  0  0  0  0  0
  140.1810   71.7550  222.7980 C   0  0  0  0  0  0  0  0  0  0  0  0
  139.5760   71.1200  223.9450 N   0  0  0  0  0  0  0  0  0  0  0  0
  138.5980   70.0370  223.7980 C   0  0  0  0  0  0  0  0  0  0  0  0
  139.1760   68.7560  224.4000 C   0  0  0  0  0  0  0  0  0  0  0  0
  139.8040   68.9950  225.7560 C   0  0  0  0  0  0  0  0  0  0  0  0
  140.0720   67.8950  226.5870 C   0  0  0  0  0  0  0  0  0  0  0  0
  140.7060   68.0750  227.8200 C   0  0  0  0  0  0  0  0  0  0  0  0
  141.0820   69.3550  228.2330 C   0  0  0  0  0  0  0  0  0  0  0  0
  140.8370   70.4580  227.4110 C   0  0  0  0  0  0  0  0  0  0  0  0
  140.2170   70.2890  226.1630 C   0  0  0  0  0  0  0  0  0  0  0  0
  139.9360   71.5070  225.3150 C   0  0  0  0  0  0  0  0  0  0  0  0
  140.1010   73.1010  222.6330 N   0  0  0  0  0  0  0  0  0  0  0  0
  139.3610   75.8770  221.6690 C   0  0  0  0  0  0  0  0  0  0  0  0
  139.6690   77.1770  222.4290 C   0  0  0  0  0  0  0  0  0  0  0  0
  142.6150   79.3510  222.6210 N   0  0  0  0  0  0  0  0  0  0  0  0
  143.0870   80.4910  223.1910 C   0  0  0  0  0  0  0  0  0  0  0  0
  142.5720   82.3842  224.1179 H   0  0  0  0  0  0  0  0  0  0  0  0
  140.1115   82.0046  223.8691 H   0  0  0  0  0  0  0  0  0  0  0  0
  139.2777   79.8998  222.8091 H   0  0  0  0  0  0  0  0  0  0  0  0
  140.8326   77.4716  219.8070 H   0  0  0  0  0  0  0  0  0  0  0  0
  142.4390   77.8747  220.4996 H   0  0  0  0  0  0  0  0  0  0  0  0
  142.0685   75.4082  219.9078 H   0  0  0  0  0  0  0  0  0  0  0  0
  142.5960   75.7500  221.6072 H   0  0  0  0  0  0  0  0  0  0  0  0
  141.0717   69.1839  218.8816 H   0  0  0  0  0  0  0  0  0  0  0  0
  140.4444   70.8244  218.4785 H   0  0  0  0  0  0  0  0  0  0  0  0
  141.6916   69.7314  216.5872 H   0  0  0  0  0  0  0  0  0  0  0  0
  142.4048   71.2992  217.1232 H   0  0  0  0  0  0  0  0  0  0  0  0
  143.7547   68.9149  215.5981 H   0  0  0  0  0  0  0  0  0  0  0  0
  145.9695   67.8365  215.9926 H   0  0  0  0  0  0  0  0  0  0  0  0
  147.0121   67.9113  218.2562 H   0  0  0  0  0  0  0  0  0  0  0  0
  145.8476   69.0691  220.1319 H   0  0  0  0  0  0  0  0  0  0  0  0
  143.3995   69.6189  220.9404 H   0  0  0  0  0  0  0  0  0  0  0  0
  144.0523   71.2134  220.3278 H   0  0  0  0  0  0  0  0  0  0  0  0
  137.6698   70.3050  224.3239 H   0  0  0  0  0  0  0  0  0  0  0  0
  138.3775   69.8789  222.7320 H   0  0  0  0  0  0  0  0  0  0  0  0
  138.3665   68.0192  224.5093 H   0  0  0  0  0  0  0  0  0  0  0  0
  139.9620   68.3894  223.7234 H   0  0  0  0  0  0  0  0  0  0  0  0
  139.7809   66.8842  226.2653 H   0  0  0  0  0  0  0  0  0  0  0  0
  140.9088   67.2076  228.4654 H   0  0  0  0  0  0  0  0  0  0  0  0
  141.5722   69.4952  229.2077 H   0  0  0  0  0  0  0  0  0  0  0  0
  141.1316   71.4643  227.7436 H   0  0  0  0  0  0  0  0  0  0  0  0
  139.1036   72.0716  225.7603 H   0  0  0  0  0  0  0  0  0  0  0  0
  140.8442   72.1266  225.2780 H   0  0  0  0  0  0  0  0  0  0  0  0
  138.8670   76.1220  220.7172 H   0  0  0  0  0  0  0  0  0  0  0  0
  138.7013   75.2502  222.2870 H   0  0  0  0  0  0  0  0  0  0  0  0
  138.7966   77.8435  222.3611 H   0  0  0  0  0  0  0  0  0  0  0  0
  139.8891   76.9159  223.4746 H   0  0  0  0  0  0  0  0  0  0  0  0
  144.1712   80.6487  223.2888 H   0  0  0  0  0  0  0  0  0  0  0  0
  1  2  2  0
  2  3  1  0
  3  4  2  0
  4  5  1  0
  5  6  1  0
  6  7  1  0
  7  8  1  0
  8  9  1  0
  9 10  2  0
 10 11  1  0
 11 12  1  0
 12 13  1  0
 13 14  1  0
 14 15  1  0
 15 16  2  0
 16 17  1  0
 17 18  2  0
 18 19  1  0
 19 20  2  0
 20 21  1  0
 11 22  2  0
 22 23  1  0
 23 24  1  0
 24 25  1  0
 25 26  1  0
 26 27  1  0
 27 28  2  0
 28 29  1  0
 29 30  2  0
 30 31  1  0
 31 32  2  0
 32 33  1  0
 23 34  2  0
  8 35  1  0
 35 36  1  0
  4 37  1  0
 37 38  2  0
 38  1  1  0
 36  5  1  0
 34  9  1  0
 21 12  1  0
 33 24  1  0
 20 15  1  0
 32 27  1  0
  1 39  1  0
  2 40  1  0
  3 41  1  0
  6 42  1  0
  6 43  1  0
  7 44  1  0
  7 45  1  0
 13 46  1  0
 13 47  1  0
 14 48  1  0
 14 49  1  0
 16 50  1  0
 17 51  1  0
 18 52  1  0
 19 53  1  0
 21 54  1  0
 21 55  1  0
 25 56  1  0
 25 57  1  0
 26 58  1  0
 26 59  1  0
 28 60  1  0
 29 61  1  0
 30 62  1  0
 31 63  1  0
 33 64  1  0
 33 65  1  0
 35 66  1  0
 35 67  1  0
 36 68  1  0
 36 69  1  0
 38 70  1  0
M  END
>  <UniqueID>  (68) 
50

>  <SMILES>  (68) 
c1ccc(N2CCN(c3nc(N4CCc5ccccc5C4)nc(N4CCc5ccccc5C4)n3)CC2)nc1

>  <Energy>  (68) 
89.10851446933106

>  <Genealogy>  (68) 
c1ccc(N2CCN(c3nc(N4CCc5ccccc5C4)nc(N4CCc5ccccc5C4)n3)CC2)nc1 (3D coordinates assigned)
c1ccc(N2CCN(c3nc(N4CCc5ccccc5C4)nc(N4CCc5ccccc5C4)n3)CC2)nc1 (nonaromatic ring conformer: 89.10851446933106 kcal/mol)

>  <smiles>  (68) 
c1ccc(N2CCN(c3nc(N4CCc5ccccc5C4)nc(N4CCc5ccccc5C4)n3)CC2)nc1

>  <score_type>  (68) 
oracle

>  <origin>  (68) 
autodockgpu

>  <m_score__min__energy>  (68) 
-10.69

>  <m_primary>  (68) 
energy

>  <meeko>  (68) 
{"free_energy": -9.92, "intermolecular_energy": -11.12, "internal_energy": -1.02, "cluster_size": 20, "cluster_id": 1, "rank_in_cluster": 20}

>  <energy>  (68) 
-10.66

>  <cluster_rmsd>  (68) 
0.13

>  <rmsd>  (68) 
269.44

>  <cluster>  (68) 
1

$$$$
QWCMPUPUGDWNGO-UHFFFAOYNA-N
     RDKit          3D

 70 76  0  0  0  0  0  0  0  0999 V2000
  141.8550   81.7540  223.3920 C   0  0  0  0  0  0  0  0  0  0  0  0
  142.5000   80.6040  223.8480 C   0  0  0  0  0  0  0  0  0  0  0  0
  142.1860   79.3610  223.2970 C   0  0  0  0  0  0  0  0  0  0  0  0
  141.2260   79.2830  222.2720 C   0  0  0  0  0  0  0  0  0  0  0  0
  140.8660   78.0200  221.6760 N   0  0  0  0  0  0  0  0  0  0  0  0
  141.4450   77.5760  220.4020 C   0  0  0  0  0  0  0  0  0  0  0  0
  141.9160   76.1270  220.5360 C   0  0  0  0  0  0  0  0  0  0  0  0
  140.8860   75.2800  221.1580 N   0  0  0  0  0  0  0  0  0  0  0  0
  141.1260   73.8620  221.2790 C   0  0  0  0  0  0  0  0  0  0  0  0
  140.6520   73.1820  222.3560 N   0  0  0  0  0  0  0  0  0  0  0  0
  140.8490   71.8430  222.4750 C   0  0  0  0  0  0  0  0  0  0  0  0
  140.3450   71.1220  223.6210 N   0  0  0  0  0  0  0  0  0  0  0  0
  139.0930   70.3570  223.5270 C   0  0  0  0  0  0  0  0  0  0  0  0
  139.1980   69.0720  224.3380 C   0  0  0  0  0  0  0  0  0  0  0  0
  139.6040   69.3750  225.7520 C   0  0  0  0  0  0  0  0  0  0  0  0
  139.1920   68.5290  226.7940 C   0  0  0  0  0  0  0  0  0  0  0  0
  139.6000   68.7790  228.1070 C   0  0  0  0  0  0  0  0  0  0  0  0
  140.4330   69.8630  228.3860 C   0  0  0  0  0  0  0  0  0  0  0  0
  140.8630   70.7000  227.3530 C   0  0  0  0  0  0  0  0  0  0  0  0
  140.4530   70.4660  226.0310 C   0  0  0  0  0  0  0  0  0  0  0  0
  140.9490   71.3880  224.9400 C   0  0  0  0  0  0  0  0  0  0  0  0
  141.5290   71.1860  221.4990 N   0  0  0  0  0  0  0  0  0  0  0  0
  142.0180   71.8510  220.4200 C   0  0  0  0  0  0  0  0  0  0  0  0
  142.7480   71.1420  219.3960 N   0  0  0  0  0  0  0  0  0  0  0  0
  143.8230   71.7850  218.6330 C   0  0  0  0  0  0  0  0  0  0  0  0
  145.1450   71.0800  218.9360 C   0  0  0  0  0  0  0  0  0  0  0  0
  145.0120   69.5730  218.8860 C   0  0  0  0  0  0  0  0  0  0  0  0
  146.1750   68.7890  218.8040 C   0  0  0  0  0  0  0  0  0  0  0  0
  146.0910   67.3930  218.8160 C   0  0  0  0  0  0  0  0  0  0  0  0
  144.8460   66.7680  218.9140 C   0  0  0  0  0  0  0  0  0  0  0  0
  143.6820   67.5330  219.0130 C   0  0  0  0  0  0  0  0  0  0  0  0
  143.7530   68.9350  219.0200 C   0  0  0  0  0  0  0  0  0  0  0  0
  142.4720   69.7320  219.0930 C   0  0  0  0  0  0  0  0  0  0  0  0
  141.8120   73.1900  220.3190 N   0  0  0  0  0  0  0  0  0  0  0  0
  139.6030   75.8720  221.5760 C   0  0  0  0  0  0  0  0  0  0  0  0
  139.8430   77.1900  222.3300 C   0  0  0  0  0  0  0  0  0  0  0  0
  140.5970   80.4230  221.8630 N   0  0  0  0  0  0  0  0  0  0  0  0
  140.8920   81.6420  222.3890 C   0  0  0  0  0  0  0  0  0  0  0  0
  142.1029   82.7373  223.8183 H   0  0  0  0  0  0  0  0  0  0  0  0
  143.2569   80.6772  224.6428 H   0  0  0  0  0  0  0  0  0  0  0  0
  142.6847   78.4506  223.6609 H   0  0  0  0  0  0  0  0  0  0  0  0
  140.6845   77.6430  219.6100 H   0  0  0  0  0  0  0  0  0  0  0  0
  142.3000   78.2180  220.1432 H   0  0  0  0  0  0  0  0  0  0  0  0
  142.1469   75.7323  219.5355 H   0  0  0  0  0  0  0  0  0  0  0  0
  142.8087   76.1125  221.1785 H   0  0  0  0  0  0  0  0  0  0  0  0
  138.2649   70.9664  223.9179 H   0  0  0  0  0  0  0  0  0  0  0  0
  138.9074   70.1016  222.4733 H   0  0  0  0  0  0  0  0  0  0  0  0
  138.2215   68.5656  224.3422 H   0  0  0  0  0  0  0  0  0  0  0  0
  139.9592   68.4232  223.8802 H   0  0  0  0  0  0  0  0  0  0  0  0
  138.5456   67.6661  226.5760 H   0  0  0  0  0  0  0  0  0  0  0  0
  139.2641   68.1204  228.9215 H   0  0  0  0  0  0  0  0  0  0  0  0
  140.7516   70.0590  229.4205 H   0  0  0  0  0  0  0  0  0  0  0  0
  141.5271   71.5478  227.5772 H   0  0  0  0  0  0  0  0  0  0  0  0
  140.7147   72.4237  225.2271 H   0  0  0  0  0  0  0  0  0  0  0  0
  142.0308   71.2156  224.8396 H   0  0  0  0  0  0  0  0  0  0  0  0
  143.6052   71.7120  217.5572 H   0  0  0  0  0  0  0  0  0  0  0  0
  143.8955   72.8450  218.9178 H   0  0  0  0  0  0  0  0  0  0  0  0
  145.8930   71.3948  218.1934 H   0  0  0  0  0  0  0  0  0  0  0  0
  145.4516   71.3591  219.9549 H   0  0  0  0  0  0  0  0  0  0  0  0
  147.1583   69.2765  218.7299 H   0  0  0  0  0  0  0  0  0  0  0  0
  147.0064   66.7868  218.7482 H   0  0  0  0  0  0  0  0  0  0  0  0
  144.7821   65.6699  218.9132 H   0  0  0  0  0  0  0  0  0  0  0  0
  142.7042   67.0344  219.0859 H   0  0  0  0  0  0  0  0  0  0  0  0
  141.9517   69.6667  218.1260 H   0  0  0  0  0  0  0  0  0  0  0  0
  141.8451   69.3165  219.8957 H   0  0  0  0  0  0  0  0  0  0  0  0
  138.9879   76.0702  220.6859 H   0  0  0  0  0  0  0  0  0  0  0  0
  139.0849   75.1676  222.2434 H   0  0  0  0  0  0  0  0  0  0  0  0
  138.8994   77.7540  222.3687 H   0  0  0  0  0  0  0  0  0  0  0  0
  140.2005   76.9433  223.3406 H   0  0  0  0  0  0  0  0  0  0  0  0
  140.3713   82.5394  222.0236 H   0  0  0  0  0  0  0  0  0  0  0  0
  1  2  2  0
  2  3  1  0
  3  4  2  0
  4  5  1  0
  5  6  1  0
  6  7  1  0
  7  8  1  0
  8  9  1  0
  9 10  2  0
 10 11  1  0
 11 12  1  0
 12 13  1  0
 13 14  1  0
 14 15  1  0
 15 16  2  0
 16 17  1  0
 17 18  2  0
 18 19  1  0
 19 20  2  0
 20 21  1  0
 11 22  2  0
 22 23  1  0
 23 24  1  0
 24 25  1  0
 25 26  1  0
 26 27  1  0
 27 28  2  0
 28 29  1  0
 29 30  2  0
 30 31  1  0
 31 32  2  0
 32 33  1  0
 23 34  2  0
  8 35  1  0
 35 36  1  0
  4 37  1  0
 37 38  2  0
 38  1  1  0
 36  5  1  0
 34  9  1  0
 21 12  1  0
 33 24  1  0
 20 15  1  0
 32 27  1  0
  1 39  1  0
  2 40  1  0
  3 41  1  0
  6 42  1  0
  6 43  1  0
  7 44  1  0
  7 45  1  0
 13 46  1  0
 13 47  1  0
 14 48  1  0
 14 49  1  0
 16 50  1  0
 17 51  1  0
 18 52  1  0
 19 53  1  0
 21 54  1  0
 21 55  1  0
 25 56  1  0
 25 57  1  0
 26 58  1  0
 26 59  1  0
 28 60  1  0
 29 61  1  0
 30 62  1  0
 31 63  1  0
 33 64  1  0
 33 65  1  0
 35 66  1  0
 35 67  1  0
 36 68  1  0
 36 69  1  0
 38 70  1  0
M  END
>  <UniqueID>  (69) 
50

>  <SMILES>  (69) 
c1ccc(N2CCN(c3nc(N4CCc5ccccc5C4)nc(N4CCc5ccccc5C4)n3)CC2)nc1

>  <Energy>  (69) 
89.10851446933106

>  <Genealogy>  (69) 
c1ccc(N2CCN(c3nc(N4CCc5ccccc5C4)nc(N4CCc5ccccc5C4)n3)CC2)nc1 (3D coordinates assigned)
c1ccc(N2CCN(c3nc(N4CCc5ccccc5C4)nc(N4CCc5ccccc5C4)n3)CC2)nc1 (nonaromatic ring conformer: 89.10851446933106 kcal/mol)

>  <smiles>  (69) 
c1ccc(N2CCN(c3nc(N4CCc5ccccc5C4)nc(N4CCc5ccccc5C4)n3)CC2)nc1

>  <score_type>  (69) 
oracle

>  <origin>  (69) 
autodockgpu

>  <m_score__min__energy>  (69) 
-10.69

>  <m_primary>  (69) 
energy

>  <meeko>  (69) 
{"free_energy": -10.64, "intermolecular_energy": -11.84, "internal_energy": -1.05, "cluster_size": 20, "cluster_id": 1, "rank_in_cluster": 9}

>  <energy>  (69) 
-10.64

>  <cluster_rmsd>  (69) 
0.13

>  <rmsd>  (69) 
269.47

>  <cluster>  (69) 
1

$$$$
QWCMPUPUGDWNGO-UHFFFAOYNA-N
     RDKit          3D

 70 76  0  0  0  0  0  0  0  0999 V2000
  141.8530   81.8100  223.2500 C   0  0  0  0  0  0  0  0  0  0  0  0
  142.4880   80.6660  223.7350 C   0  0  0  0  0  0  0  0  0  0  0  0
  142.1550   79.4120  223.2220 C   0  0  0  0  0  0  0  0  0  0  0  0
  141.1870   79.3160  222.2060 C   0  0  0  0  0  0  0  0  0  0  0  0
  140.8070   78.0400  221.6500 N   0  0  0  0  0  0  0  0  0  0  0  0
  141.3100   77.5890  220.3460 C   0  0  0  0  0  0  0  0  0  0  0  0
  141.8090   76.1480  220.4670 C   0  0  0  0  0  0  0  0  0  0  0  0
  140.8330   75.2940  221.1640 N   0  0  0  0  0  0  0  0  0  0  0  0
  141.1000   73.8820  221.2860 C   0  0  0  0  0  0  0  0  0  0  0  0
  140.6270   73.1900  222.3550 N   0  0  0  0  0  0  0  0  0  0  0  0
  140.8500   71.8550  222.4750 C   0  0  0  0  0  0  0  0  0  0  0  0
  140.3450   71.1230  223.6130 N   0  0  0  0  0  0  0  0  0  0  0  0
  139.1140   70.3270  223.4990 C   0  0  0  0  0  0  0  0  0  0  0  0
  139.2370   69.0450  224.3130 C   0  0  0  0  0  0  0  0  0  0  0  0
  139.6130   69.3570  225.7320 C   0  0  0  0  0  0  0  0  0  0  0  0
  139.2060   68.5010  226.7680 C   0  0  0  0  0  0  0  0  0  0  0  0
  139.5870   68.7610  228.0870 C   0  0  0  0  0  0  0  0  0  0  0  0
  140.3890   69.8650  228.3790 C   0  0  0  0  0  0  0  0  0  0  0  0
  140.8150   70.7120  227.3530 C   0  0  0  0  0  0  0  0  0  0  0  0
  140.4310   70.4680  226.0250 C   0  0  0  0  0  0  0  0  0  0  0  0
  140.9220   71.4020  224.9410 C   0  0  0  0  0  0  0  0  0  0  0  0
  141.5560   71.2140  221.5070 N   0  0  0  0  0  0  0  0  0  0  0  0
  142.0450   71.8910  220.4360 C   0  0  0  0  0  0  0  0  0  0  0  0
  142.8030   71.1990  219.4210 N   0  0  0  0  0  0  0  0  0  0  0  0
  143.9010   71.8530  218.7010 C   0  0  0  0  0  0  0  0  0  0  0  0
  145.2120   71.1380  219.0300 C   0  0  0  0  0  0  0  0  0  0  0  0
  145.0770   69.6320  218.9480 C   0  0  0  0  0  0  0  0  0  0  0  0
  146.2390   68.8470  218.8850 C   0  0  0  0  0  0  0  0  0  0  0  0
  146.1520   67.4510  218.8680 C   0  0  0  0  0  0  0  0  0  0  0  0
  144.9030   66.8280  218.9180 C   0  0  0  0  0  0  0  0  0  0  0  0
  143.7380   67.5950  218.9970 C   0  0  0  0  0  0  0  0  0  0  0  0
  143.8120   68.9970  219.0320 C   0  0  0  0  0  0  0  0  0  0  0  0
  142.5320   69.7960  219.0830 C   0  0  0  0  0  0  0  0  0  0  0  0
  141.8130   73.2250  220.3340 N   0  0  0  0  0  0  0  0  0  0  0  0
  139.5720   75.8750  221.6560 C   0  0  0  0  0  0  0  0  0  0  0  0
  139.8400   77.2050  222.3780 C   0  0  0  0  0  0  0  0  0  0  0  0
  140.5690   80.4510  221.7690 N   0  0  0  0  0  0  0  0  0  0  0  0
  140.8830   81.6810  222.2580 C   0  0  0  0  0  0  0  0  0  0  0  0
  142.1151   82.8021  223.6462 H   0  0  0  0  0  0  0  0  0  0  0  0
  143.2515   80.7529  224.5221 H   0  0  0  0  0  0  0  0  0  0  0  0
  142.6452   78.5063  223.6087 H   0  0  0  0  0  0  0  0  0  0  0  0
  140.4998   77.6361  219.6034 H   0  0  0  0  0  0  0  0  0  0  0  0
  142.1370   78.2395  220.0252 H   0  0  0  0  0  0  0  0  0  0  0  0
  141.9812   75.7438  219.4585 H   0  0  0  0  0  0  0  0  0  0  0  0
  142.7407   76.1541  221.0517 H   0  0  0  0  0  0  0  0  0  0  0  0
  138.2647   70.9160  223.8755 H   0  0  0  0  0  0  0  0  0  0  0  0
  138.9525   70.0664  222.4426 H   0  0  0  0  0  0  0  0  0  0  0  0
  138.2729   68.5155  224.3021 H   0  0  0  0  0  0  0  0  0  0  0  0
  140.0210   68.4149  223.8677 H   0  0  0  0  0  0  0  0  0  0  0  0
  138.5847   67.6222  226.5403 H   0  0  0  0  0  0  0  0  0  0  0  0
  139.2543   68.0945  228.8963 H   0  0  0  0  0  0  0  0  0  0  0  0
  140.6861   70.0686  229.4184 H   0  0  0  0  0  0  0  0  0  0  0  0
  141.4552   71.5753  227.5871 H   0  0  0  0  0  0  0  0  0  0  0  0
  140.6593   72.4319  225.2245 H   0  0  0  0  0  0  0  0  0  0  0  0
  142.0088   71.2544  224.8571 H   0  0  0  0  0  0  0  0  0  0  0  0
  143.7144   71.8001  217.6182 H   0  0  0  0  0  0  0  0  0  0  0  0
  143.9677   72.9077  219.0063 H   0  0  0  0  0  0  0  0  0  0  0  0
  145.9825   71.4642  218.3160 H   0  0  0  0  0  0  0  0  0  0  0  0
  145.4886   71.3970  220.0627 H   0  0  0  0  0  0  0  0  0  0  0  0
  147.2251   69.3331  218.8487 H   0  0  0  0  0  0  0  0  0  0  0  0
  147.0676   66.8437  218.8152 H   0  0  0  0  0  0  0  0  0  0  0  0
  144.8364   65.7303  218.8951 H   0  0  0  0  0  0  0  0  0  0  0  0
  142.7573   67.0980  219.0320 H   0  0  0  0  0  0  0  0  0  0  0  0
  142.0400   69.7509  218.1002 H   0  0  0  0  0  0  0  0  0  0  0  0
  141.8808   69.3671  219.8589 H   0  0  0  0  0  0  0  0  0  0  0  0
  138.8991   76.0541  220.8045 H   0  0  0  0  0  0  0  0  0  0  0  0
  139.1078   75.1723  222.3637 H   0  0  0  0  0  0  0  0  0  0  0  0
  138.8927   77.7565  222.4703 H   0  0  0  0  0  0  0  0  0  0  0  0
  140.2642   76.9762  223.3668 H   0  0  0  0  0  0  0  0  0  0  0  0
  140.3710   82.5740  221.8702 H   0  0  0  0  0  0  0  0  0  0  0  0
  1  2  2  0
  2  3  1  0
  3  4  2  0
  4  5  1  0
  5  6  1  0
  6  7  1  0
  7  8  1  0
  8  9  1  0
  9 10  2  0
 10 11  1  0
 11 12  1  0
 12 13  1  0
 13 14  1  0
 14 15  1  0
 15 16  2  0
 16 17  1  0
 17 18  2  0
 18 19  1  0
 19 20  2  0
 20 21  1  0
 11 22  2  0
 22 23  1  0
 23 24  1  0
 24 25  1  0
 25 26  1  0
 26 27  1  0
 27 28  2  0
 28 29  1  0
 29 30  2  0
 30 31  1  0
 31 32  2  0
 32 33  1  0
 23 34  2  0
  8 35  1  0
 35 36  1  0
  4 37  1  0
 37 38  2  0
 38  1  1  0
 36  5  1  0
 34  9  1  0
 21 12  1  0
 33 24  1  0
 20 15  1  0
 32 27  1  0
  1 39  1  0
  2 40  1  0
  3 41  1  0
  6 42  1  0
  6 43  1  0
  7 44  1  0
  7 45  1  0
 13 46  1  0
 13 47  1  0
 14 48  1  0
 14 49  1  0
 16 50  1  0
 17 51  1  0
 18 52  1  0
 19 53  1  0
 21 54  1  0
 21 55  1  0
 25 56  1  0
 25 57  1  0
 26 58  1  0
 26 59  1  0
 28 60  1  0
 29 61  1  0
 30 62  1  0
 31 63  1  0
 33 64  1  0
 33 65  1  0
 35 66  1  0
 35 67  1  0
 36 68  1  0
 36 69  1  0
 38 70  1  0
M  END
>  <UniqueID>  (70) 
50

>  <SMILES>  (70) 
c1ccc(N2CCN(c3nc(N4CCc5ccccc5C4)nc(N4CCc5ccccc5C4)n3)CC2)nc1

>  <Energy>  (70) 
89.10851446933106

>  <Genealogy>  (70) 
c1ccc(N2CCN(c3nc(N4CCc5ccccc5C4)nc(N4CCc5ccccc5C4)n3)CC2)nc1 (3D coordinates assigned)
c1ccc(N2CCN(c3nc(N4CCc5ccccc5C4)nc(N4CCc5ccccc5C4)n3)CC2)nc1 (nonaromatic ring conformer: 89.10851446933106 kcal/mol)

>  <smiles>  (70) 
c1ccc(N2CCN(c3nc(N4CCc5ccccc5C4)nc(N4CCc5ccccc5C4)n3)CC2)nc1

>  <score_type>  (70) 
oracle

>  <origin>  (70) 
autodockgpu

>  <m_score__min__energy>  (70) 
-10.69

>  <m_primary>  (70) 
energy

>  <meeko>  (70) 
{"free_energy": -10.68, "intermolecular_energy": -11.87, "internal_energy": -1.05, "cluster_size": 20, "cluster_id": 1, "rank_in_cluster": 5}

>  <energy>  (70) 
-10.6

>  <cluster_rmsd>  (70) 
0.47

>  <rmsd>  (70) 
269.46

>  <cluster>  (70) 
1

$$$$
QWCMPUPUGDWNGO-UHFFFAOYNA-N
     RDKit          3D

 70 76  0  0  0  0  0  0  0  0999 V2000
  137.0750   80.8730  224.5820 C   0  0  0  0  0  0  0  0  0  0  0  0
  138.4700   80.8420  224.5690 C   0  0  0  0  0  0  0  0  0  0  0  0
  139.1400   79.8860  223.8030 C   0  0  0  0  0  0  0  0  0  0  0  0
  138.3970   78.9690  223.0400 C   0  0  0  0  0  0  0  0  0  0  0  0
  139.0470   77.9610  222.2380 N   0  0  0  0  0  0  0  0  0  0  0  0
  140.4980   77.9710  222.0160 C   0  0  0  0  0  0  0  0  0  0  0  0
  141.0590   76.5690  222.2600 C   0  0  0  0  0  0  0  0  0  0  0  0
  140.2620   75.5410  221.5710 N   0  0  0  0  0  0  0  0  0  0  0  0
  140.7020   74.1680  221.6180 C   0  0  0  0  0  0  0  0  0  0  0  0
  140.3120   73.3640  222.6420 N   0  0  0  0  0  0  0  0  0  0  0  0
  140.6980   72.0610  222.6900 C   0  0  0  0  0  0  0  0  0  0  0  0
  140.2820   71.2090  223.7800 N   0  0  0  0  0  0  0  0  0  0  0  0
  139.0270   70.4470  223.6910 C   0  0  0  0  0  0  0  0  0  0  0  0
  139.1950   69.0790  224.3400 C   0  0  0  0  0  0  0  0  0  0  0  0
  139.7050   69.2220  225.7440 C   0  0  0  0  0  0  0  0  0  0  0  0
  139.3740   68.2570  226.7100 C   0  0  0  0  0  0  0  0  0  0  0  0
  139.8790   68.3590  228.0090 C   0  0  0  0  0  0  0  0  0  0  0  0
  140.7290   69.4120  228.3480 C   0  0  0  0  0  0  0  0  0  0  0  0
  141.0790   70.3660  227.3890 C   0  0  0  0  0  0  0  0  0  0  0  0
  140.5710   70.2810  226.0840 C   0  0  0  0  0  0  0  0  0  0  0  0
  140.9830   71.3270  225.0720 C   0  0  0  0  0  0  0  0  0  0  0  0
  141.4830   71.5680  221.6970 N   0  0  0  0  0  0  0  0  0  0  0  0
  141.8890   72.3600  220.6710 C   0  0  0  0  0  0  0  0  0  0  0  0
  142.7330   71.8250  219.6280 N   0  0  0  0  0  0  0  0  0  0  0  0
  143.8280   72.6080  219.0460 C   0  0  0  0  0  0  0  0  0  0  0  0
  145.1580   71.9250  219.3650 C   0  0  0  0  0  0  0  0  0  0  0  0
  145.1090   70.4330  219.1100 C   0  0  0  0  0  0  0  0  0  0  0  0
  146.3140   69.7180  219.0240 C   0  0  0  0  0  0  0  0  0  0  0  0
  146.3030   68.3310  218.8480 C   0  0  0  0  0  0  0  0  0  0  0  0
  145.0890   67.6460  218.7600 C   0  0  0  0  0  0  0  0  0  0  0  0
  143.8820   68.3410  218.8600 C   0  0  0  0  0  0  0  0  0  0  0  0
  143.8780   69.7320  219.0540 C   0  0  0  0  0  0  0  0  0  0  0  0
  142.5550   70.4570  219.1230 C   0  0  0  0  0  0  0  0  0  0  0  0
  141.4950   73.6580  220.6400 N   0  0  0  0  0  0  0  0  0  0  0  0
  139.0790   75.9340  220.7860 C   0  0  0  0  0  0  0  0  0  0  0  0
  138.2240   76.9390  221.5740 C   0  0  0  0  0  0  0  0  0  0  0  0
  137.0350   79.0120  223.0920 N   0  0  0  0  0  0  0  0  0  0  0  0
  136.3660   79.9370  223.8310 C   0  0  0  0  0  0  0  0  0  0  0  0
  136.5409   81.6276  225.1782 H   0  0  0  0  0  0  0  0  0  0  0  0
  139.0419   81.5707  225.1622 H   0  0  0  0  0  0  0  0  0  0  0  0
  140.2394   79.8509  223.7968 H   0  0  0  0  0  0  0  0  0  0  0  0
  140.7087   78.2755  220.9802 H   0  0  0  0  0  0  0  0  0  0  0  0
  140.9709   78.6818  222.7096 H   0  0  0  0  0  0  0  0  0  0  0  0
  142.0933   76.5282  221.8878 H   0  0  0  0  0  0  0  0  0  0  0  0
  141.0231   76.3664  223.3406 H   0  0  0  0  0  0  0  0  0  0  0  0
  138.2290   70.9993  224.2089 H   0  0  0  0  0  0  0  0  0  0  0  0
  138.7635   70.3118  222.6316 H   0  0  0  0  0  0  0  0  0  0  0  0
  138.2224   68.5654  224.3588 H   0  0  0  0  0  0  0  0  0  0  0  0
  139.9213   68.4950  223.7556 H   0  0  0  0  0  0  0  0  0  0  0  0
  138.7148   67.4179  226.4428 H   0  0  0  0  0  0  0  0  0  0  0  0
  139.6060   67.6081  228.7651 H   0  0  0  0  0  0  0  0  0  0  0  0
  141.1242   69.4913  229.3715 H   0  0  0  0  0  0  0  0  0  0  0  0
  141.7572   71.1889  227.6589 H   0  0  0  0  0  0  0  0  0  0  0  0
  140.7704   72.3207  225.4932 H   0  0  0  0  0  0  0  0  0  0  0  0
  142.0542   71.1770  224.8719 H   0  0  0  0  0  0  0  0  0  0  0  0
  143.6978   72.6689  217.9554 H   0  0  0  0  0  0  0  0  0  0  0  0
  143.8226   73.6232  219.4694 H   0  0  0  0  0  0  0  0  0  0  0  0
  145.9436   72.3668  218.7344 H   0  0  0  0  0  0  0  0  0  0  0  0
  145.3696   72.0788  220.4335 H   0  0  0  0  0  0  0  0  0  0  0  0
  147.2729   70.2523  219.0955 H   0  0  0  0  0  0  0  0  0  0  0  0
  147.2517   67.7786  218.7788 H   0  0  0  0  0  0  0  0  0  0  0  0
  145.0837   66.5561  218.6115 H   0  0  0  0  0  0  0  0  0  0  0  0
  142.9293   67.7961  218.7864 H   0  0  0  0  0  0  0  0  0  0  0  0
  142.1144   70.4993  218.1160 H   0  0  0  0  0  0  0  0  0  0  0  0
  141.8909   69.9122  219.8101 H   0  0  0  0  0  0  0  0  0  0  0  0
  139.4067   76.3971  219.8436 H   0  0  0  0  0  0  0  0  0  0  0  0
  138.4755   75.0384  220.5767 H   0  0  0  0  0  0  0  0  0  0  0  0
  137.5311   77.4370  220.8798 H   0  0  0  0  0  0  0  0  0  0  0  0
  137.6781   76.3845  222.3515 H   0  0  0  0  0  0  0  0  0  0  0  0
  135.2661   79.9465  223.8361 H   0  0  0  0  0  0  0  0  0  0  0  0
  1  2  2  0
  2  3  1  0
  3  4  2  0
  4  5  1  0
  5  6  1  0
  6  7  1  0
  7  8  1  0
  8  9  1  0
  9 10  2  0
 10 11  1  0
 11 12  1  0
 12 13  1  0
 13 14  1  0
 14 15  1  0
 15 16  2  0
 16 17  1  0
 17 18  2  0
 18 19  1  0
 19 20  2  0
 20 21  1  0
 11 22  2  0
 22 23  1  0
 23 24  1  0
 24 25  1  0
 25 26  1  0
 26 27  1  0
 27 28  2  0
 28 29  1  0
 29 30  2  0
 30 31  1  0
 31 32  2  0
 32 33  1  0
 23 34  2  0
  8 35  1  0
 35 36  1  0
  4 37  1  0
 37 38  2  0
 38  1  1  0
 36  5  1  0
 34  9  1  0
 21 12  1  0
 33 24  1  0
 20 15  1  0
 32 27  1  0
  1 39  1  0
  2 40  1  0
  3 41  1  0
  6 42  1  0
  6 43  1  0
  7 44  1  0
  7 45  1  0
 13 46  1  0
 13 47  1  0
 14 48  1  0
 14 49  1  0
 16 50  1  0
 17 51  1  0
 18 52  1  0
 19 53  1  0
 21 54  1  0
 21 55  1  0
 25 56  1  0
 25 57  1  0
 26 58  1  0
 26 59  1  0
 28 60  1  0
 29 61  1  0
 30 62  1  0
 31 63  1  0
 33 64  1  0
 33 65  1  0
 35 66  1  0
 35 67  1  0
 36 68  1  0
 36 69  1  0
 38 70  1  0
M  END
>  <UniqueID>  (71) 
50

>  <SMILES>  (71) 
c1ccc(N2CCN(c3nc(N4CCc5ccccc5C4)nc(N4CCc5ccccc5C4)n3)CC2)nc1

>  <Energy>  (71) 
89.10851446933106

>  <Genealogy>  (71) 
c1ccc(N2CCN(c3nc(N4CCc5ccccc5C4)nc(N4CCc5ccccc5C4)n3)CC2)nc1 (3D coordinates assigned)
c1ccc(N2CCN(c3nc(N4CCc5ccccc5C4)nc(N4CCc5ccccc5C4)n3)CC2)nc1 (nonaromatic ring conformer: 89.10851446933106 kcal/mol)

>  <smiles>  (71) 
c1ccc(N2CCN(c3nc(N4CCc5ccccc5C4)nc(N4CCc5ccccc5C4)n3)CC2)nc1

>  <score_type>  (71) 
oracle

>  <origin>  (71) 
autodockgpu

>  <m_score__min__energy>  (71) 
-10.69

>  <m_primary>  (71) 
energy

>  <meeko>  (71) 
{"free_energy": -9.97, "intermolecular_energy": -11.17, "internal_energy": -1.02, "cluster_size": 20, "cluster_id": 1, "rank_in_cluster": 19}

>  <energy>  (71) 
-10.58

>  <cluster_rmsd>  (71) 
0.51

>  <rmsd>  (71) 
269.46

>  <cluster>  (71) 
1

$$$$
QWCMPUPUGDWNGO-UHFFFAOYNA-N
     RDKit          3D

 70 76  0  0  0  0  0  0  0  0999 V2000
  141.8420   81.8540  223.2780 C   0  0  0  0  0  0  0  0  0  0  0  0
  142.4720   80.7090  223.7680 C   0  0  0  0  0  0  0  0  0  0  0  0
  142.1450   79.4560  223.2480 C   0  0  0  0  0  0  0  0  0  0  0  0
  141.1880   79.3620  222.2220 C   0  0  0  0  0  0  0  0  0  0  0  0
  140.8150   78.0870  221.6590 N   0  0  0  0  0  0  0  0  0  0  0  0
  141.3270   77.6400  220.3570 C   0  0  0  0  0  0  0  0  0  0  0  0
  141.8290   76.2000  220.4770 C   0  0  0  0  0  0  0  0  0  0  0  0
  140.8510   75.3430  221.1650 N   0  0  0  0  0  0  0  0  0  0  0  0
  141.1200   73.9310  221.2840 C   0  0  0  0  0  0  0  0  0  0  0  0
  140.6430   73.2350  222.3490 N   0  0  0  0  0  0  0  0  0  0  0  0
  140.8680   71.9000  222.4670 C   0  0  0  0  0  0  0  0  0  0  0  0
  140.3600   71.1630  223.6000 N   0  0  0  0  0  0  0  0  0  0  0  0
  139.1380   70.3540  223.4740 C   0  0  0  0  0  0  0  0  0  0  0  0
  139.2670   69.0740  224.2910 C   0  0  0  0  0  0  0  0  0  0  0  0
  139.6250   69.3930  225.7140 C   0  0  0  0  0  0  0  0  0  0  0  0
  139.2160   68.5330  226.7460 C   0  0  0  0  0  0  0  0  0  0  0  0
  139.5800   68.7980  228.0690 C   0  0  0  0  0  0  0  0  0  0  0  0
  140.3670   69.9110  228.3680 C   0  0  0  0  0  0  0  0  0  0  0  0
  140.7940   70.7610  227.3450 C   0  0  0  0  0  0  0  0  0  0  0  0
  140.4270   70.5120  226.0130 C   0  0  0  0  0  0  0  0  0  0  0  0
  140.9190   71.4500  224.9340 C   0  0  0  0  0  0  0  0  0  0  0  0
  141.5810   71.2630  221.5010 N   0  0  0  0  0  0  0  0  0  0  0  0
  142.0730   71.9440  220.4340 C   0  0  0  0  0  0  0  0  0  0  0  0
  142.8390   71.2570  219.4210 N   0  0  0  0  0  0  0  0  0  0  0  0
  143.9210   71.9230  218.6890 C   0  0  0  0  0  0  0  0  0  0  0  0
  145.2460   71.2340  219.0170 C   0  0  0  0  0  0  0  0  0  0  0  0
  145.1370   69.7260  218.9490 C   0  0  0  0  0  0  0  0  0  0  0  0
  146.3130   68.9600  218.8860 C   0  0  0  0  0  0  0  0  0  0  0  0
  146.2500   67.5640  218.8820 C   0  0  0  0  0  0  0  0  0  0  0  0
  145.0130   66.9190  218.9450 C   0  0  0  0  0  0  0  0  0  0  0  0
  143.8350   67.6660  219.0240 C   0  0  0  0  0  0  0  0  0  0  0  0
  143.8840   69.0690  219.0460 C   0  0  0  0  0  0  0  0  0  0  0  0
  142.5910   69.8460  219.0970 C   0  0  0  0  0  0  0  0  0  0  0  0
  141.8390   73.2780  220.3340 N   0  0  0  0  0  0  0  0  0  0  0  0
  139.5850   75.9180  221.6510 C   0  0  0  0  0  0  0  0  0  0  0  0
  139.8450   77.2470  222.3780 C   0  0  0  0  0  0  0  0  0  0  0  0
  140.5740   80.4970  221.7800 N   0  0  0  0  0  0  0  0  0  0  0  0
  140.8820   81.7260  222.2740 C   0  0  0  0  0  0  0  0  0  0  0  0
  142.0994   82.8455  223.6787 H   0  0  0  0  0  0  0  0  0  0  0  0
  143.2263   80.7943  224.5641 H   0  0  0  0  0  0  0  0  0  0  0  0
  142.6317   78.5496  223.6374 H   0  0  0  0  0  0  0  0  0  0  0  0
  140.5211   77.6869  219.6098 H   0  0  0  0  0  0  0  0  0  0  0  0
  142.1545   78.2932  220.0431 H   0  0  0  0  0  0  0  0  0  0  0  0
  142.0085   75.7990  219.4686 H   0  0  0  0  0  0  0  0  0  0  0  0
  142.7572   76.2064  221.0672 H   0  0  0  0  0  0  0  0  0  0  0  0
  138.2787   70.9343  223.8412 H   0  0  0  0  0  0  0  0  0  0  0  0
  138.9894   70.0910  222.4163 H   0  0  0  0  0  0  0  0  0  0  0  0
  138.3091   68.5336  224.2710 H   0  0  0  0  0  0  0  0  0  0  0  0
  140.0623   68.4517  223.8547 H   0  0  0  0  0  0  0  0  0  0  0  0
  138.6068   67.6474  226.5122 H   0  0  0  0  0  0  0  0  0  0  0  0
  139.2459   68.1287  228.8754 H   0  0  0  0  0  0  0  0  0  0  0  0
  140.6513   70.1191  229.4100 H   0  0  0  0  0  0  0  0  0  0  0  0
  141.4222   71.6315  227.5848 H   0  0  0  0  0  0  0  0  0  0  0  0
  140.6414   72.4771  225.2134 H   0  0  0  0  0  0  0  0  0  0  0  0
  142.0083   71.3149  224.8623 H   0  0  0  0  0  0  0  0  0  0  0  0
  143.7293   71.8568  217.6078 H   0  0  0  0  0  0  0  0  0  0  0  0
  143.9710   72.9815  218.9842 H   0  0  0  0  0  0  0  0  0  0  0  0
  146.0069   71.5673  218.2959 H   0  0  0  0  0  0  0  0  0  0  0  0
  145.5236   71.5070  220.0458 H   0  0  0  0  0  0  0  0  0  0  0  0
  147.2903   69.4627  218.8395 H   0  0  0  0  0  0  0  0  0  0  0  0
  147.1759   66.9725  218.8292 H   0  0  0  0  0  0  0  0  0  0  0  0
  144.9660   65.8201  218.9324 H   0  0  0  0  0  0  0  0  0  0  0  0
  142.8635   67.1520  219.0692 H   0  0  0  0  0  0  0  0  0  0  0  0
  142.0945   69.7834  218.1174 H   0  0  0  0  0  0  0  0  0  0  0  0
  141.9518   69.4129  219.8805 H   0  0  0  0  0  0  0  0  0  0  0  0
  138.9164   76.0972  220.7961 H   0  0  0  0  0  0  0  0  0  0  0  0
  139.1186   75.2119  222.3538 H   0  0  0  0  0  0  0  0  0  0  0  0
  138.8957   77.7958  222.4653 H   0  0  0  0  0  0  0  0  0  0  0  0
  140.2634   77.0164  223.3688 H   0  0  0  0  0  0  0  0  0  0  0  0
  140.3740   82.6194  221.8818 H   0  0  0  0  0  0  0  0  0  0  0  0
  1  2  2  0
  2  3  1  0
  3  4  2  0
  4  5  1  0
  5  6  1  0
  6  7  1  0
  7  8  1  0
  8  9  1  0
  9 10  2  0
 10 11  1  0
 11 12  1  0
 12 13  1  0
 13 14  1  0
 14 15  1  0
 15 16  2  0
 16 17  1  0
 17 18  2  0
 18 19  1  0
 19 20  2  0
 20 21  1  0
 11 22  2  0
 22 23  1  0
 23 24  1  0
 24 25  1  0
 25 26  1  0
 26 27  1  0
 27 28  2  0
 28 29  1  0
 29 30  2  0
 30 31  1  0
 31 32  2  0
 32 33  1  0
 23 34  2  0
  8 35  1  0
 35 36  1  0
  4 37  1  0
 37 38  2  0
 38  1  1  0
 36  5  1  0
 34  9  1  0
 21 12  1  0
 33 24  1  0
 20 15  1  0
 32 27  1  0
  1 39  1  0
  2 40  1  0
  3 41  1  0
  6 42  1  0
  6 43  1  0
  7 44  1  0
  7 45  1  0
 13 46  1  0
 13 47  1  0
 14 48  1  0
 14 49  1  0
 16 50  1  0
 17 51  1  0
 18 52  1  0
 19 53  1  0
 21 54  1  0
 21 55  1  0
 25 56  1  0
 25 57  1  0
 26 58  1  0
 26 59  1  0
 28 60  1  0
 29 61  1  0
 30 62  1  0
 31 63  1  0
 33 64  1  0
 33 65  1  0
 35 66  1  0
 35 67  1  0
 36 68  1  0
 36 69  1  0
 38 70  1  0
M  END
>  <UniqueID>  (72) 
50

>  <SMILES>  (72) 
c1ccc(N2CCN(c3nc(N4CCc5ccccc5C4)nc(N4CCc5ccccc5C4)n3)CC2)nc1

>  <Energy>  (72) 
89.10851446933106

>  <Genealogy>  (72) 
c1ccc(N2CCN(c3nc(N4CCc5ccccc5C4)nc(N4CCc5ccccc5C4)n3)CC2)nc1 (3D coordinates assigned)
c1ccc(N2CCN(c3nc(N4CCc5ccccc5C4)nc(N4CCc5ccccc5C4)n3)CC2)nc1 (nonaromatic ring conformer: 89.10851446933106 kcal/mol)

>  <smiles>  (72) 
c1ccc(N2CCN(c3nc(N4CCc5ccccc5C4)nc(N4CCc5ccccc5C4)n3)CC2)nc1

>  <score_type>  (72) 
oracle

>  <origin>  (72) 
autodockgpu

>  <m_score__min__energy>  (72) 
-10.69

>  <m_primary>  (72) 
energy

>  <meeko>  (72) 
{"free_energy": -10.69, "intermolecular_energy": -11.88, "internal_energy": -1.05, "cluster_size": 20, "cluster_id": 1, "rank_in_cluster": 1}

>  <energy>  (72) 
-10.54

>  <cluster_rmsd>  (72) 
0.25

>  <rmsd>  (72) 
269.35

>  <cluster>  (72) 
1

$$$$
QWCMPUPUGDWNGO-UHFFFAOYNA-N
     RDKit          3D

 70 76  0  0  0  0  0  0  0  0999 V2000
  141.8360   82.0090  223.1160 C   0  0  0  0  0  0  0  0  0  0  0  0
  142.4700   80.8750  223.6260 C   0  0  0  0  0  0  0  0  0  0  0  0
  142.1330   79.6100  223.1420 C   0  0  0  0  0  0  0  0  0  0  0  0
  141.1630   79.4930  222.1310 C   0  0  0  0  0  0  0  0  0  0  0  0
  140.7800   78.2050  221.6050 N   0  0  0  0  0  0  0  0  0  0  0  0
  141.3560   77.6800  220.3610 C   0  0  0  0  0  0  0  0  0  0  0  0
  141.7960   76.2310  220.5790 C   0  0  0  0  0  0  0  0  0  0  0  0
  140.7460   75.4410  221.2410 N   0  0  0  0  0  0  0  0  0  0  0  0
  140.9560   74.0280  221.4430 C   0  0  0  0  0  0  0  0  0  0  0  0
  141.8740   73.3630  220.6930 N   0  0  0  0  0  0  0  0  0  0  0  0
  142.1010   72.0370  220.8850 C   0  0  0  0  0  0  0  0  0  0  0  0
  143.0770   71.3330  220.0860 N   0  0  0  0  0  0  0  0  0  0  0  0
  144.0940   72.0770  219.3270 C   0  0  0  0  0  0  0  0  0  0  0  0
  145.4210   71.3290  219.3500 C   0  0  0  0  0  0  0  0  0  0  0  0
  145.2370   69.9180  218.8730 C   0  0  0  0  0  0  0  0  0  0  0  0
  146.2980   69.2520  218.2370 C   0  0  0  0  0  0  0  0  0  0  0  0
  146.1500   67.9240  217.8260 C   0  0  0  0  0  0  0  0  0  0  0  0
  144.9530   67.2480  218.0620 C   0  0  0  0  0  0  0  0  0  0  0  0
  143.8990   67.8970  218.7110 C   0  0  0  0  0  0  0  0  0  0  0  0
  144.0300   69.2330  219.1190 C   0  0  0  0  0  0  0  0  0  0  0  0
  142.8700   69.8960  219.8280 C   0  0  0  0  0  0  0  0  0  0  0  0
  141.3960   71.3780  221.8410 N   0  0  0  0  0  0  0  0  0  0  0  0
  140.4690   72.0240  222.5940 C   0  0  0  0  0  0  0  0  0  0  0  0
  139.7190   71.3090  223.6000 N   0  0  0  0  0  0  0  0  0  0  0  0
  138.6950   70.3230  223.2390 C   0  0  0  0  0  0  0  0  0  0  0  0
  139.1320   68.9430  223.7320 C   0  0  0  0  0  0  0  0  0  0  0  0
  139.6420   68.9810  225.1570 C   0  0  0  0  0  0  0  0  0  0  0  0
  139.7610   67.7770  225.8690 C   0  0  0  0  0  0  0  0  0  0  0  0
  140.2840   67.7700  227.1660 C   0  0  0  0  0  0  0  0  0  0  0  0
  140.6980   68.9630  227.7600 C   0  0  0  0  0  0  0  0  0  0  0  0
  140.6010   70.1670  227.0580 C   0  0  0  0  0  0  0  0  0  0  0  0
  140.0930   70.1870  225.7500 C   0  0  0  0  0  0  0  0  0  0  0  0
  139.9700   71.5100  225.0320 C   0  0  0  0  0  0  0  0  0  0  0  0
  140.2540   73.3490  222.3870 N   0  0  0  0  0  0  0  0  0  0  0  0
  139.4740   76.0810  221.6180 C   0  0  0  0  0  0  0  0  0  0  0  0
  139.7370   77.4340  222.2980 C   0  0  0  0  0  0  0  0  0  0  0  0
  140.5460   80.6190  221.6700 N   0  0  0  0  0  0  0  0  0  0  0  0
  140.8630   81.8590  222.1290 C   0  0  0  0  0  0  0  0  0  0  0  0
  142.1010   83.0095  223.4885 H   0  0  0  0  0  0  0  0  0  0  0  0
  143.2353   80.9782  224.4094 H   0  0  0  0  0  0  0  0  0  0  0  0
  142.6221   78.7123  223.5480 H   0  0  0  0  0  0  0  0  0  0  0  0
  140.6012   77.7184  219.5618 H   0  0  0  0  0  0  0  0  0  0  0  0
  142.2250   78.2892  220.0717 H   0  0  0  0  0  0  0  0  0  0  0  0
  142.0237   75.7763  219.6036 H   0  0  0  0  0  0  0  0  0  0  0  0
  142.6847   76.2346  221.2272 H   0  0  0  0  0  0  0  0  0  0  0  0
  143.7590   72.1903  218.2854 H   0  0  0  0  0  0  0  0  0  0  0  0
  144.2322   73.0664  219.7874 H   0  0  0  0  0  0  0  0  0  0  0  0
  146.1377   71.8429  218.6926 H   0  0  0  0  0  0  0  0  0  0  0  0
  145.8005   71.3091  220.3823 H   0  0  0  0  0  0  0  0  0  0  0  0
  147.2485   69.7773  218.0618 H   0  0  0  0  0  0  0  0  0  0  0  0
  146.9788   67.4114  217.3157 H   0  0  0  0  0  0  0  0  0  0  0  0
  144.8385   66.2033  217.7371 H   0  0  0  0  0  0  0  0  0  0  0  0
  142.9603   67.3567  218.9032 H   0  0  0  0  0  0  0  0  0  0  0  0
  141.9706   69.7809  219.2053 H   0  0  0  0  0  0  0  0  0  0  0  0
  142.7680   69.4048  220.8069 H   0  0  0  0  0  0  0  0  0  0  0  0
  137.7388   70.5962  223.7092 H   0  0  0  0  0  0  0  0  0  0  0  0
  138.5692   70.3030  222.1464 H   0  0  0  0  0  0  0  0  0  0  0  0
  138.2714   68.2597  223.6816 H   0  0  0  0  0  0  0  0  0  0  0  0
  139.9543   68.5985  223.0876 H   0  0  0  0  0  0  0  0  0  0  0  0
  139.4408   66.8330  225.4038 H   0  0  0  0  0  0  0  0  0  0  0  0
  140.3692   66.8228  227.7187 H   0  0  0  0  0  0  0  0  0  0  0  0
  141.1016   68.9554  228.7832 H   0  0  0  0  0  0  0  0  0  0  0  0
  140.9247   71.1047  227.5333 H   0  0  0  0  0  0  0  0  0  0  0  0
  139.1355   72.0794  225.4672 H   0  0  0  0  0  0  0  0  0  0  0  0
  140.9146   72.0616  225.1486 H   0  0  0  0  0  0  0  0  0  0  0  0
  138.8669   76.2410  220.7148 H   0  0  0  0  0  0  0  0  0  0  0  0
  138.9391   75.4258  222.3212 H   0  0  0  0  0  0  0  0  0  0  0  0
  138.8050   78.0182  222.2989 H   0  0  0  0  0  0  0  0  0  0  0  0
  140.0842   77.2374  223.3231 H   0  0  0  0  0  0  0  0  0  0  0  0
  140.3518   82.7437  221.7216 H   0  0  0  0  0  0  0  0  0  0  0  0
  1  2  2  0
  2  3  1  0
  3  4  2  0
  4  5  1  0
  5  6  1  0
  6  7  1  0
  7  8  1  0
  8  9  1  0
  9 10  2  0
 10 11  1  0
 11 12  1  0
 12 13  1  0
 13 14  1  0
 14 15  1  0
 15 16  2  0
 16 17  1  0
 17 18  2  0
 18 19  1  0
 19 20  2  0
 20 21  1  0
 11 22  2  0
 22 23  1  0
 23 24  1  0
 24 25  1  0
 25 26  1  0
 26 27  1  0
 27 28  2  0
 28 29  1  0
 29 30  2  0
 30 31  1  0
 31 32  2  0
 32 33  1  0
 23 34  2  0
  8 35  1  0
 35 36  1  0
  4 37  1  0
 37 38  2  0
 38  1  1  0
 36  5  1  0
 34  9  1  0
 21 12  1  0
 33 24  1  0
 20 15  1  0
 32 27  1  0
  1 39  1  0
  2 40  1  0
  3 41  1  0
  6 42  1  0
  6 43  1  0
  7 44  1  0
  7 45  1  0
 13 46  1  0
 13 47  1  0
 14 48  1  0
 14 49  1  0
 16 50  1  0
 17 51  1  0
 18 52  1  0
 19 53  1  0
 21 54  1  0
 21 55  1  0
 25 56  1  0
 25 57  1  0
 26 58  1  0
 26 59  1  0
 28 60  1  0
 29 61  1  0
 30 62  1  0
 31 63  1  0
 33 64  1  0
 33 65  1  0
 35 66  1  0
 35 67  1  0
 36 68  1  0
 36 69  1  0
 38 70  1  0
M  END
>  <UniqueID>  (73) 
50

>  <SMILES>  (73) 
c1ccc(N2CCN(c3nc(N4CCc5ccccc5C4)nc(N4CCc5ccccc5C4)n3)CC2)nc1

>  <Energy>  (73) 
89.10851446933106

>  <Genealogy>  (73) 
c1ccc(N2CCN(c3nc(N4CCc5ccccc5C4)nc(N4CCc5ccccc5C4)n3)CC2)nc1 (3D coordinates assigned)
c1ccc(N2CCN(c3nc(N4CCc5ccccc5C4)nc(N4CCc5ccccc5C4)n3)CC2)nc1 (nonaromatic ring conformer: 89.10851446933106 kcal/mol)

>  <smiles>  (73) 
c1ccc(N2CCN(c3nc(N4CCc5ccccc5C4)nc(N4CCc5ccccc5C4)n3)CC2)nc1

>  <score_type>  (73) 
oracle

>  <origin>  (73) 
autodockgpu

>  <m_score__min__energy>  (73) 
-10.69

>  <m_primary>  (73) 
energy

>  <meeko>  (73) 
{"free_energy": -10.42, "intermolecular_energy": -11.61, "internal_energy": -1.06, "cluster_size": 20, "cluster_id": 1, "rank_in_cluster": 14}

>  <energy>  (73) 
-10.52

>  <cluster_rmsd>  (73) 
0.27

>  <rmsd>  (73) 
269.37

>  <cluster>  (73) 
1

$$$$
QWCMPUPUGDWNGO-UHFFFAOYNA-N
     RDKit          3D

 70 76  0  0  0  0  0  0  0  0999 V2000
  142.1520   81.6740  223.4980 C   0  0  0  0  0  0  0  0  0  0  0  0
  140.9950   81.6470  222.7180 C   0  0  0  0  0  0  0  0  0  0  0  0
  140.5890   80.4570  222.1120 C   0  0  0  0  0  0  0  0  0  0  0  0
  141.3480   79.2890  222.3070 C   0  0  0  0  0  0  0  0  0  0  0  0
  140.9690   78.0380  221.6950 N   0  0  0  0  0  0  0  0  0  0  0  0
  141.5490   77.5970  220.4210 C   0  0  0  0  0  0  0  0  0  0  0  0
  141.9920   76.1380  220.5440 C   0  0  0  0  0  0  0  0  0  0  0  0
  140.9420   75.3040  221.1490 N   0  0  0  0  0  0  0  0  0  0  0  0
  141.1540   73.8810  221.2580 C   0  0  0  0  0  0  0  0  0  0  0  0
  140.6790   73.2030  222.3350 N   0  0  0  0  0  0  0  0  0  0  0  0
  140.8510   71.8590  222.4430 C   0  0  0  0  0  0  0  0  0  0  0  0
  140.3450   71.1410  223.5890 N   0  0  0  0  0  0  0  0  0  0  0  0
  139.1140   70.3430  223.4840 C   0  0  0  0  0  0  0  0  0  0  0  0
  139.2360   69.0720  224.3140 C   0  0  0  0  0  0  0  0  0  0  0  0
  139.6100   69.4030  225.7300 C   0  0  0  0  0  0  0  0  0  0  0  0
  139.2020   68.5590  226.7760 C   0  0  0  0  0  0  0  0  0  0  0  0
  139.5810   68.8360  228.0920 C   0  0  0  0  0  0  0  0  0  0  0  0
  140.3830   69.9430  228.3710 C   0  0  0  0  0  0  0  0  0  0  0  0
  140.8100   70.7770  227.3350 C   0  0  0  0  0  0  0  0  0  0  0  0
  140.4280   70.5170  226.0100 C   0  0  0  0  0  0  0  0  0  0  0  0
  140.9200   71.4370  224.9150 C   0  0  0  0  0  0  0  0  0  0  0  0
  141.5060   71.1960  221.4550 N   0  0  0  0  0  0  0  0  0  0  0  0
  141.9960   71.8590  220.3760 C   0  0  0  0  0  0  0  0  0  0  0  0
  142.7010   71.1420  219.3380 N   0  0  0  0  0  0  0  0  0  0  0  0
  143.7530   71.7810  218.5410 C   0  0  0  0  0  0  0  0  0  0  0  0
  145.0840   71.0810  218.8150 C   0  0  0  0  0  0  0  0  0  0  0  0
  144.9540   69.5730  218.7820 C   0  0  0  0  0  0  0  0  0  0  0  0
  146.1150   68.7910  218.6750 C   0  0  0  0  0  0  0  0  0  0  0  0
  146.0350   67.3960  218.7010 C   0  0  0  0  0  0  0  0  0  0  0  0
  144.7950   66.7680  218.8380 C   0  0  0  0  0  0  0  0  0  0  0  0
  143.6320   67.5320  218.9610 C   0  0  0  0  0  0  0  0  0  0  0  0
  143.7000   68.9340  218.9540 C   0  0  0  0  0  0  0  0  0  0  0  0
  142.4200   69.7290  219.0550 C   0  0  0  0  0  0  0  0  0  0  0  0
  141.8160   73.2020  220.2860 N   0  0  0  0  0  0  0  0  0  0  0  0
  139.6670   75.9160  221.5640 C   0  0  0  0  0  0  0  0  0  0  0  0
  139.9250   77.2210  222.3330 C   0  0  0  0  0  0  0  0  0  0  0  0
  142.4850   79.3530  223.0570 N   0  0  0  0  0  0  0  0  0  0  0  0
  142.8940   80.5040  223.6550 C   0  0  0  0  0  0  0  0  0  0  0  0
  142.4746   82.6071  223.9831 H   0  0  0  0  0  0  0  0  0  0  0  0
  140.4029   82.5638  222.5808 H   0  0  0  0  0  0  0  0  0  0  0  0
  139.6837   80.4328  221.4876 H   0  0  0  0  0  0  0  0  0  0  0  0
  140.7959   77.6862  219.6242 H   0  0  0  0  0  0  0  0  0  0  0  0
  142.4173   78.2258  220.1747 H   0  0  0  0  0  0  0  0  0  0  0  0
  142.2237   75.7492  219.5414 H   0  0  0  0  0  0  0  0  0  0  0  0
  142.8789   76.1006  221.1936 H   0  0  0  0  0  0  0  0  0  0  0  0
  138.2642   70.9366  223.8520 H   0  0  0  0  0  0  0  0  0  0  0  0
  138.9540   70.0688  222.4308 H   0  0  0  0  0  0  0  0  0  0  0  0
  138.2721   68.5421  224.3085 H   0  0  0  0  0  0  0  0  0  0  0  0
  140.0205   68.4361  223.8780 H   0  0  0  0  0  0  0  0  0  0  0  0
  138.5819   67.6769  226.5583 H   0  0  0  0  0  0  0  0  0  0  0  0
  139.2465   68.1802  228.9094 H   0  0  0  0  0  0  0  0  0  0  0  0
  140.6794   70.1593  229.4080 H   0  0  0  0  0  0  0  0  0  0  0  0
  141.4499   71.6432  227.5593 H   0  0  0  0  0  0  0  0  0  0  0  0
  140.6565   72.4703  225.1850 H   0  0  0  0  0  0  0  0  0  0  0  0
  142.0070   71.2885  224.8345 H   0  0  0  0  0  0  0  0  0  0  0  0
  143.5067   71.6983  217.4721 H   0  0  0  0  0  0  0  0  0  0  0  0
  143.8305   72.8437  218.8141 H   0  0  0  0  0  0  0  0  0  0  0  0
  145.8113   71.3908  218.0501 H   0  0  0  0  0  0  0  0  0  0  0  0
  145.4162   71.3695  219.8232 H   0  0  0  0  0  0  0  0  0  0  0  0
  147.0948   69.2798  218.5699 H   0  0  0  0  0  0  0  0  0  0  0  0
  146.9500   66.7917  218.6134 H   0  0  0  0  0  0  0  0  0  0  0  0
  144.7341   65.6697  218.8491 H   0  0  0  0  0  0  0  0  0  0  0  0
  142.6575   67.0322  219.0639 H   0  0  0  0  0  0  0  0  0  0  0  0
  141.8737   69.6542  218.1032 H   0  0  0  0  0  0  0  0  0  0  0  0
  141.8162   69.3193  219.8782 H   0  0  0  0  0  0  0  0  0  0  0  0
  139.0624   76.1346  220.6715 H   0  0  0  0  0  0  0  0  0  0  0  0
  139.1314   75.2146  222.2206 H   0  0  0  0  0  0  0  0  0  0  0  0
  138.9918   77.8022  222.3698 H   0  0  0  0  0  0  0  0  0  0  0  0
  140.2692   76.9579  223.3441 H   0  0  0  0  0  0  0  0  0  0  0  0
  143.8107   80.5119  224.2629 H   0  0  0  0  0  0  0  0  0  0  0  0
  1  2  2  0
  2  3  1  0
  3  4  2  0
  4  5  1  0
  5  6  1  0
  6  7  1  0
  7  8  1  0
  8  9  1  0
  9 10  2  0
 10 11  1  0
 11 12  1  0
 12 13  1  0
 13 14  1  0
 14 15  1  0
 15 16  2  0
 16 17  1  0
 17 18  2  0
 18 19  1  0
 19 20  2  0
 20 21  1  0
 11 22  2  0
 22 23  1  0
 23 24  1  0
 24 25  1  0
 25 26  1  0
 26 27  1  0
 27 28  2  0
 28 29  1  0
 29 30  2  0
 30 31  1  0
 31 32  2  0
 32 33  1  0
 23 34  2  0
  8 35  1  0
 35 36  1  0
  4 37  1  0
 37 38  2  0
 38  1  1  0
 36  5  1  0
 34  9  1  0
 21 12  1  0
 33 24  1  0
 20 15  1  0
 32 27  1  0
  1 39  1  0
  2 40  1  0
  3 41  1  0
  6 42  1  0
  6 43  1  0
  7 44  1  0
  7 45  1  0
 13 46  1  0
 13 47  1  0
 14 48  1  0
 14 49  1  0
 16 50  1  0
 17 51  1  0
 18 52  1  0
 19 53  1  0
 21 54  1  0
 21 55  1  0
 25 56  1  0
 25 57  1  0
 26 58  1  0
 26 59  1  0
 28 60  1  0
 29 61  1  0
 30 62  1  0
 31 63  1  0
 33 64  1  0
 33 65  1  0
 35 66  1  0
 35 67  1  0
 36 68  1  0
 36 69  1  0
 38 70  1  0
M  END
>  <UniqueID>  (74) 
50

>  <SMILES>  (74) 
c1ccc(N2CCN(c3nc(N4CCc5ccccc5C4)nc(N4CCc5ccccc5C4)n3)CC2)nc1

>  <Energy>  (74) 
89.10851446933106

>  <Genealogy>  (74) 
c1ccc(N2CCN(c3nc(N4CCc5ccccc5C4)nc(N4CCc5ccccc5C4)n3)CC2)nc1 (3D coordinates assigned)
c1ccc(N2CCN(c3nc(N4CCc5ccccc5C4)nc(N4CCc5ccccc5C4)n3)CC2)nc1 (nonaromatic ring conformer: 89.10851446933106 kcal/mol)

>  <smiles>  (74) 
c1ccc(N2CCN(c3nc(N4CCc5ccccc5C4)nc(N4CCc5ccccc5C4)n3)CC2)nc1

>  <score_type>  (74) 
oracle

>  <origin>  (74) 
autodockgpu

>  <m_score__min__energy>  (74) 
-10.69

>  <m_primary>  (74) 
energy

>  <meeko>  (74) 
{"free_energy": -10.58, "intermolecular_energy": -11.77, "internal_energy": -1.04, "cluster_size": 20, "cluster_id": 1, "rank_in_cluster": 11}

>  <energy>  (74) 
-10.42

>  <cluster_rmsd>  (74) 
0.61

>  <rmsd>  (74) 
269.39

>  <cluster>  (74) 
1

$$$$
QWCMPUPUGDWNGO-UHFFFAOYNA-N
     RDKit          3D

 70 76  0  0  0  0  0  0  0  0999 V2000
  141.8160   81.6600  223.3990 C   0  0  0  0  0  0  0  0  0  0  0  0
  142.6900   80.5860  223.5720 C   0  0  0  0  0  0  0  0  0  0  0  0
  142.4090   79.3550  222.9770 C   0  0  0  0  0  0  0  0  0  0  0  0
  141.2500   79.2150  222.1930 C   0  0  0  0  0  0  0  0  0  0  0  0
  140.9180   77.9600  221.5640 N   0  0  0  0  0  0  0  0  0  0  0  0
  141.5860   77.5150  220.3340 C   0  0  0  0  0  0  0  0  0  0  0  0
  142.0240   76.0580  220.4940 C   0  0  0  0  0  0  0  0  0  0  0  0
  140.9360   75.2230  221.0300 N   0  0  0  0  0  0  0  0  0  0  0  0
  141.1450   73.8020  221.1600 C   0  0  0  0  0  0  0  0  0  0  0  0
  140.6730   73.1420  222.2500 N   0  0  0  0  0  0  0  0  0  0  0  0
  140.8400   71.7990  222.3780 C   0  0  0  0  0  0  0  0  0  0  0  0
  140.3370   71.1000  223.5370 N   0  0  0  0  0  0  0  0  0  0  0  0
  139.1200   70.2810  223.4420 C   0  0  0  0  0  0  0  0  0  0  0  0
  139.2570   69.0320  224.3030 C   0  0  0  0  0  0  0  0  0  0  0  0
  139.6140   69.4020  225.7130 C   0  0  0  0  0  0  0  0  0  0  0  0
  139.2110   68.5780  226.7760 C   0  0  0  0  0  0  0  0  0  0  0  0
  139.5750   68.8920  228.0880 C   0  0  0  0  0  0  0  0  0  0  0  0
  140.3570   70.0190  228.3470 C   0  0  0  0  0  0  0  0  0  0  0  0
  140.7780   70.8350  227.2940 C   0  0  0  0  0  0  0  0  0  0  0  0
  140.4110   70.5360  225.9720 C   0  0  0  0  0  0  0  0  0  0  0  0
  140.8960   71.4380  224.8590 C   0  0  0  0  0  0  0  0  0  0  0  0
  141.4900   71.1190  221.3980 N   0  0  0  0  0  0  0  0  0  0  0  0
  141.9770   71.7630  220.3050 C   0  0  0  0  0  0  0  0  0  0  0  0
  142.6750   71.0290  219.2770 N   0  0  0  0  0  0  0  0  0  0  0  0
  143.7110   71.6570  218.4510 C   0  0  0  0  0  0  0  0  0  0  0  0
  145.0520   70.9750  218.7250 C   0  0  0  0  0  0  0  0  0  0  0  0
  144.9350   69.4660  218.7280 C   0  0  0  0  0  0  0  0  0  0  0  0
  146.1020   68.6930  218.6250 C   0  0  0  0  0  0  0  0  0  0  0  0
  146.0350   67.2970  218.6850 C   0  0  0  0  0  0  0  0  0  0  0  0
  144.8030   66.6630  218.8530 C   0  0  0  0  0  0  0  0  0  0  0  0
  143.6340   67.4190  218.9730 C   0  0  0  0  0  0  0  0  0  0  0  0
  143.6890   68.8210  218.9320 C   0  0  0  0  0  0  0  0  0  0  0  0
  142.4030   69.6070  219.0300 C   0  0  0  0  0  0  0  0  0  0  0  0
  141.8010   73.1050  220.1950 N   0  0  0  0  0  0  0  0  0  0  0  0
  139.6350   75.8330  221.3530 C   0  0  0  0  0  0  0  0  0  0  0  0
  139.8350   77.1430  222.1320 C   0  0  0  0  0  0  0  0  0  0  0  0
  140.4060   80.2780  222.0620 N   0  0  0  0  0  0  0  0  0  0  0  0
  140.6640   81.4840  222.6340 C   0  0  0  0  0  0  0  0  0  0  0  0
  142.0336   82.6343  223.8610 H   0  0  0  0  0  0  0  0  0  0  0  0
  143.6002   80.7095  224.1772 H   0  0  0  0  0  0  0  0  0  0  0  0
  143.0883   78.5017  223.1201 H   0  0  0  0  0  0  0  0  0  0  0  0
  140.8891   77.5981  219.4869 H   0  0  0  0  0  0  0  0  0  0  0  0
  142.4673   78.1456  220.1450 H   0  0  0  0  0  0  0  0  0  0  0  0
  142.3251   75.6654  219.5116 H   0  0  0  0  0  0  0  0  0  0  0  0
  142.8646   76.0262  221.2028 H   0  0  0  0  0  0  0  0  0  0  0  0
  138.2582   70.8693  223.7901 H   0  0  0  0  0  0  0  0  0  0  0  0
  138.9712   69.9799  222.3945 H   0  0  0  0  0  0  0  0  0  0  0  0
  138.3023   68.4857  224.3028 H   0  0  0  0  0  0  0  0  0  0  0  0
  140.0558   68.3998  223.8880 H   0  0  0  0  0  0  0  0  0  0  0  0
  138.6062   67.6815  226.5751 H   0  0  0  0  0  0  0  0  0  0  0  0
  139.2448   68.2501  228.9181 H   0  0  0  0  0  0  0  0  0  0  0  0
  140.6419   70.2647  229.3807 H   0  0  0  0  0  0  0  0  0  0  0  0
  141.4010   71.7174  227.5019 H   0  0  0  0  0  0  0  0  0  0  0  0
  140.6125   72.4727  225.1019 H   0  0  0  0  0  0  0  0  0  0  0  0
  141.9860   71.3070  224.7905 H   0  0  0  0  0  0  0  0  0  0  0  0
  143.4518   71.5459  217.3878 H   0  0  0  0  0  0  0  0  0  0  0  0
  143.7826   72.7268  218.6968 H   0  0  0  0  0  0  0  0  0  0  0  0
  145.7674   71.2734  217.9445 H   0  0  0  0  0  0  0  0  0  0  0  0
  145.3937   71.2895  219.7221 H   0  0  0  0  0  0  0  0  0  0  0  0
  147.0758   69.1882  218.4962 H   0  0  0  0  0  0  0  0  0  0  0  0
  146.9540   66.6985  218.5997 H   0  0  0  0  0  0  0  0  0  0  0  0
  144.7521   65.5648  218.8910 H   0  0  0  0  0  0  0  0  0  0  0  0
  142.6657   66.9129  219.1003 H   0  0  0  0  0  0  0  0  0  0  0  0
  141.8462   69.5054  218.0868 H   0  0  0  0  0  0  0  0  0  0  0  0
  141.8125   69.2113  219.8695 H   0  0  0  0  0  0  0  0  0  0  0  0
  139.0929   76.0456  220.4198 H   0  0  0  0  0  0  0  0  0  0  0  0
  139.0577   75.1330  221.9749 H   0  0  0  0  0  0  0  0  0  0  0  0
  138.8998   77.7213  222.1010 H   0  0  0  0  0  0  0  0  0  0  0  0
  140.1088   76.8859  223.1659 H   0  0  0  0  0  0  0  0  0  0  0  0
  139.9639   82.3207  222.4932 H   0  0  0  0  0  0  0  0  0  0  0  0
  1  2  2  0
  2  3  1  0
  3  4  2  0
  4  5  1  0
  5  6  1  0
  6  7  1  0
  7  8  1  0
  8  9  1  0
  9 10  2  0
 10 11  1  0
 11 12  1  0
 12 13  1  0
 13 14  1  0
 14 15  1  0
 15 16  2  0
 16 17  1  0
 17 18  2  0
 18 19  1  0
 19 20  2  0
 20 21  1  0
 11 22  2  0
 22 23  1  0
 23 24  1  0
 24 25  1  0
 25 26  1  0
 26 27  1  0
 27 28  2  0
 28 29  1  0
 29 30  2  0
 30 31  1  0
 31 32  2  0
 32 33  1  0
 23 34  2  0
  8 35  1  0
 35 36  1  0
  4 37  1  0
 37 38  2  0
 38  1  1  0
 36  5  1  0
 34  9  1  0
 21 12  1  0
 33 24  1  0
 20 15  1  0
 32 27  1  0
  1 39  1  0
  2 40  1  0
  3 41  1  0
  6 42  1  0
  6 43  1  0
  7 44  1  0
  7 45  1  0
 13 46  1  0
 13 47  1  0
 14 48  1  0
 14 49  1  0
 16 50  1  0
 17 51  1  0
 18 52  1  0
 19 53  1  0
 21 54  1  0
 21 55  1  0
 25 56  1  0
 25 57  1  0
 26 58  1  0
 26 59  1  0
 28 60  1  0
 29 61  1  0
 30 62  1  0
 31 63  1  0
 33 64  1  0
 33 65  1  0
 35 66  1  0
 35 67  1  0
 36 68  1  0
 36 69  1  0
 38 70  1  0
M  END
>  <UniqueID>  (75) 
50

>  <SMILES>  (75) 
c1ccc(N2CCN(c3nc(N4CCc5ccccc5C4)nc(N4CCc5ccccc5C4)n3)CC2)nc1

>  <Energy>  (75) 
89.10851446933106

>  <Genealogy>  (75) 
c1ccc(N2CCN(c3nc(N4CCc5ccccc5C4)nc(N4CCc5ccccc5C4)n3)CC2)nc1 (3D coordinates assigned)
c1ccc(N2CCN(c3nc(N4CCc5ccccc5C4)nc(N4CCc5ccccc5C4)n3)CC2)nc1 (nonaromatic ring conformer: 89.10851446933106 kcal/mol)

>  <smiles>  (75) 
c1ccc(N2CCN(c3nc(N4CCc5ccccc5C4)nc(N4CCc5ccccc5C4)n3)CC2)nc1

>  <score_type>  (75) 
oracle

>  <origin>  (75) 
autodockgpu

>  <m_score__min__energy>  (75) 
-10.69

>  <m_primary>  (75) 
energy

>  <meeko>  (75) 
{"free_energy": -10.52, "intermolecular_energy": -11.71, "internal_energy": -1.04, "cluster_size": 20, "cluster_id": 1, "rank_in_cluster": 13}

>  <energy>  (75) 
-10.41

>  <cluster_rmsd>  (75) 
0.61

>  <rmsd>  (75) 
269.37

>  <cluster>  (75) 
1

$$$$
QWCMPUPUGDWNGO-UHFFFAOYNA-N
     RDKit          3D

 70 76  0  0  0  0  0  0  0  0999 V2000
  146.6830   66.7440  218.2140 C   0  0  0  0  0  0  0  0  0  0  0  0
  146.2870   67.4900  217.1030 C   0  0  0  0  0  0  0  0  0  0  0  0
  145.5300   68.6500  217.2760 C   0  0  0  0  0  0  0  0  0  0  0  0
  145.1860   69.0630  218.5740 C   0  0  0  0  0  0  0  0  0  0  0  0
  144.4010   70.2530  218.7990 N   0  0  0  0  0  0  0  0  0  0  0  0
  143.1320   70.4820  218.0980 C   0  0  0  0  0  0  0  0  0  0  0  0
  142.0670   70.9180  219.1060 C   0  0  0  0  0  0  0  0  0  0  0  0
  142.5670   71.9810  219.9930 N   0  0  0  0  0  0  0  0  0  0  0  0
  141.6640   72.5770  220.9480 C   0  0  0  0  0  0  0  0  0  0  0  0
  141.4110   73.9110  220.9020 N   0  0  0  0  0  0  0  0  0  0  0  0
  140.5460   74.4860  221.7790 C   0  0  0  0  0  0  0  0  0  0  0  0
  140.2780   75.9040  221.7280 N   0  0  0  0  0  0  0  0  0  0  0  0
  138.9100   76.4110  221.9140 C   0  0  0  0  0  0  0  0  0  0  0  0
  138.9320   77.7140  222.7020 C   0  0  0  0  0  0  0  0  0  0  0  0
  139.8500   78.7070  222.0490 C   0  0  0  0  0  0  0  0  0  0  0  0
  139.5980   80.0830  222.1800 C   0  0  0  0  0  0  0  0  0  0  0  0
  140.4690   81.0150  221.6110 C   0  0  0  0  0  0  0  0  0  0  0  0
  141.6040   80.5840  220.9240 C   0  0  0  0  0  0  0  0  0  0  0  0
  141.8730   79.2180  220.8050 C   0  0  0  0  0  0  0  0  0  0  0  0
  141.0010   78.2700  221.3620 C   0  0  0  0  0  0  0  0  0  0  0  0
  141.3330   76.8010  221.2210 C   0  0  0  0  0  0  0  0  0  0  0  0
  139.9330   73.7070  222.7080 N   0  0  0  0  0  0  0  0  0  0  0  0
  140.1820   72.3740  222.7740 C   0  0  0  0  0  0  0  0  0  0  0  0
  139.5310   71.5600  223.7750 N   0  0  0  0  0  0  0  0  0  0  0  0
  138.3730   70.7210  223.4500 C   0  0  0  0  0  0  0  0  0  0  0  0
  138.7450   69.2530  223.6530 C   0  0  0  0  0  0  0  0  0  0  0  0
  139.4720   69.0220  224.9600 C   0  0  0  0  0  0  0  0  0  0  0  0
  139.5830   67.7140  225.4570 C   0  0  0  0  0  0  0  0  0  0  0  0
  140.2980   67.4590  226.6310 C   0  0  0  0  0  0  0  0  0  0  0  0
  140.9120   68.5080  227.3170 C   0  0  0  0  0  0  0  0  0  0  0  0
  140.8250   69.8140  226.8280 C   0  0  0  0  0  0  0  0  0  0  0  0
  140.1240   70.0810  225.6410 C   0  0  0  0  0  0  0  0  0  0  0  0
  140.0200   71.5090  225.1580 C   0  0  0  0  0  0  0  0  0  0  0  0
  141.0490   71.8170  221.8910 N   0  0  0  0  0  0  0  0  0  0  0  0
  143.9490   72.4700  219.8450 C   0  0  0  0  0  0  0  0  0  0  0  0
  144.9220   71.2900  219.7030 C   0  0  0  0  0  0  0  0  0  0  0  0
  145.5710   68.3000  219.6380 N   0  0  0  0  0  0  0  0  0  0  0  0
  146.3090   67.1680  219.4880 C   0  0  0  0  0  0  0  0  0  0  0  0
  147.2837   65.8315  218.0857 H   0  0  0  0  0  0  0  0  0  0  0  0
  146.5712   67.1641  216.0916 H   0  0  0  0  0  0  0  0  0  0  0  0
  145.2055   69.2358  216.4033 H   0  0  0  0  0  0  0  0  0  0  0  0
  143.2669   71.2701  217.3425 H   0  0  0  0  0  0  0  0  0  0  0  0
  142.8120   69.5528  217.6038 H   0  0  0  0  0  0  0  0  0  0  0  0
  141.1891   71.2923  218.5591 H   0  0  0  0  0  0  0  0  0  0  0  0
  141.8011   70.0485  219.7251 H   0  0  0  0  0  0  0  0  0  0  0  0
  138.4523   76.5898  220.9299 H   0  0  0  0  0  0  0  0  0  0  0  0
  138.3247   75.6652  222.4719 H   0  0  0  0  0  0  0  0  0  0  0  0
  137.9150   78.1315  222.7400 H   0  0  0  0  0  0  0  0  0  0  0  0
  139.2954   77.5087  223.7197 H   0  0  0  0  0  0  0  0  0  0  0  0
  138.7115   80.4276  222.7327 H   0  0  0  0  0  0  0  0  0  0  0  0
  140.2595   82.0908  221.7048 H   0  0  0  0  0  0  0  0  0  0  0  0
  142.2877   81.3199  220.4757 H   0  0  0  0  0  0  0  0  0  0  0  0
  142.7746   78.8834  220.2710 H   0  0  0  0  0  0  0  0  0  0  0  0
  141.4927   76.5817  220.1550 H   0  0  0  0  0  0  0  0  0  0  0  0
  142.2321   76.6148  221.8268 H   0  0  0  0  0  0  0  0  0  0  0  0
  137.5323   70.9824  224.1095 H   0  0  0  0  0  0  0  0  0  0  0  0
  138.0780   70.8867  222.4033 H   0  0  0  0  0  0  0  0  0  0  0  0
  137.8246   68.6506  223.6485 H   0  0  0  0  0  0  0  0  0  0  0  0
  139.4199   68.9599  222.8353 H   0  0  0  0  0  0  0  0  0  0  0  0
  139.1037   66.8831  224.9186 H   0  0  0  0  0  0  0  0  0  0  0  0
  140.3767   66.4310  227.0143 H   0  0  0  0  0  0  0  0  0  0  0  0
  141.4661   68.3060  228.2455 H   0  0  0  0  0  0  0  0  0  0  0  0
  141.3079   70.6368  227.3755 H   0  0  0  0  0  0  0  0  0  0  0  0
  139.3226   72.0588  225.8071 H   0  0  0  0  0  0  0  0  0  0  0  0
  141.0200   71.9659  225.1942 H   0  0  0  0  0  0  0  0  0  0  0  0
  144.0151   73.1042  218.9486 H   0  0  0  0  0  0  0  0  0  0  0  0
  144.2199   73.0503  220.7393 H   0  0  0  0  0  0  0  0  0  0  0  0
  145.8766   71.6628  219.3034 H   0  0  0  0  0  0  0  0  0  0  0  0
  145.0565   70.8385  220.6970 H   0  0  0  0  0  0  0  0  0  0  0  0
  146.6109   66.5869  220.3719 H   0  0  0  0  0  0  0  0  0  0  0  0
  1  2  2  0
  2  3  1  0
  3  4  2  0
  4  5  1  0
  5  6  1  0
  6  7  1  0
  7  8  1  0
  8  9  1  0
  9 10  2  0
 10 11  1  0
 11 12  1  0
 12 13  1  0
 13 14  1  0
 14 15  1  0
 15 16  2  0
 16 17  1  0
 17 18  2  0
 18 19  1  0
 19 20  2  0
 20 21  1  0
 11 22  2  0
 22 23  1  0
 23 24  1  0
 24 25  1  0
 25 26  1  0
 26 27  1  0
 27 28  2  0
 28 29  1  0
 29 30  2  0
 30 31  1  0
 31 32  2  0
 32 33  1  0
 23 34  2  0
  8 35  1  0
 35 36  1  0
  4 37  1  0
 37 38  2  0
 38  1  1  0
 36  5  1  0
 34  9  1  0
 21 12  1  0
 33 24  1  0
 20 15  1  0
 32 27  1  0
  1 39  1  0
  2 40  1  0
  3 41  1  0
  6 42  1  0
  6 43  1  0
  7 44  1  0
  7 45  1  0
 13 46  1  0
 13 47  1  0
 14 48  1  0
 14 49  1  0
 16 50  1  0
 17 51  1  0
 18 52  1  0
 19 53  1  0
 21 54  1  0
 21 55  1  0
 25 56  1  0
 25 57  1  0
 26 58  1  0
 26 59  1  0
 28 60  1  0
 29 61  1  0
 30 62  1  0
 31 63  1  0
 33 64  1  0
 33 65  1  0
 35 66  1  0
 35 67  1  0
 36 68  1  0
 36 69  1  0
 38 70  1  0
M  END
>  <UniqueID>  (76) 
50

>  <SMILES>  (76) 
c1ccc(N2CCN(c3nc(N4CCc5ccccc5C4)nc(N4CCc5ccccc5C4)n3)CC2)nc1

>  <Energy>  (76) 
89.10851446933106

>  <Genealogy>  (76) 
c1ccc(N2CCN(c3nc(N4CCc5ccccc5C4)nc(N4CCc5ccccc5C4)n3)CC2)nc1 (3D coordinates assigned)
c1ccc(N2CCN(c3nc(N4CCc5ccccc5C4)nc(N4CCc5ccccc5C4)n3)CC2)nc1 (nonaromatic ring conformer: 89.10851446933106 kcal/mol)

>  <smiles>  (76) 
c1ccc(N2CCN(c3nc(N4CCc5ccccc5C4)nc(N4CCc5ccccc5C4)n3)CC2)nc1

>  <score_type>  (76) 
oracle

>  <origin>  (76) 
autodockgpu

>  <m_score__min__energy>  (76) 
-10.69

>  <m_primary>  (76) 
energy

>  <meeko>  (76) 
{"free_energy": -10.14, "intermolecular_energy": -11.33, "internal_energy": -1.02, "cluster_size": 20, "cluster_id": 1, "rank_in_cluster": 18}

>  <energy>  (76) 
-10.33

>  <cluster_rmsd>  (76) 
1.48

>  <rmsd>  (76) 
269.16

>  <cluster>  (76) 
1

$$$$
QWCMPUPUGDWNGO-UHFFFAOYNA-N
     RDKit          3D

 70 76  0  0  0  0  0  0  0  0999 V2000
  141.8260   81.7320  223.2030 C   0  0  0  0  0  0  0  0  0  0  0  0
  142.4330   80.5790  223.7040 C   0  0  0  0  0  0  0  0  0  0  0  0
  142.1360   79.3350  223.1470 C   0  0  0  0  0  0  0  0  0  0  0  0
  141.2330   79.2570  222.0720 C   0  0  0  0  0  0  0  0  0  0  0  0
  140.8930   77.9920  221.4680 N   0  0  0  0  0  0  0  0  0  0  0  0
  141.5370   77.5300  220.2330 C   0  0  0  0  0  0  0  0  0  0  0  0
  141.9840   76.0770  220.4060 C   0  0  0  0  0  0  0  0  0  0  0  0
  140.9110   75.2470  220.9770 N   0  0  0  0  0  0  0  0  0  0  0  0
  141.1280   73.8280  221.1240 C   0  0  0  0  0  0  0  0  0  0  0  0
  140.6500   73.1770  222.2180 N   0  0  0  0  0  0  0  0  0  0  0  0
  140.8260   71.8370  222.3620 C   0  0  0  0  0  0  0  0  0  0  0  0
  140.3170   71.1480  223.5250 N   0  0  0  0  0  0  0  0  0  0  0  0
  139.1010   70.3260  223.4310 C   0  0  0  0  0  0  0  0  0  0  0  0
  139.2350   69.0850  224.3040 C   0  0  0  0  0  0  0  0  0  0  0  0
  139.5850   69.4690  225.7120 C   0  0  0  0  0  0  0  0  0  0  0  0
  139.1770   68.6530  226.7800 C   0  0  0  0  0  0  0  0  0  0  0  0
  139.5340   68.9790  228.0910 C   0  0  0  0  0  0  0  0  0  0  0  0
  140.3130   70.1090  228.3440 C   0  0  0  0  0  0  0  0  0  0  0  0
  140.7390   70.9160  227.2860 C   0  0  0  0  0  0  0  0  0  0  0  0
  140.3790   70.6060  225.9650 C   0  0  0  0  0  0  0  0  0  0  0  0
  140.8690   71.4980  224.8470 C   0  0  0  0  0  0  0  0  0  0  0  0
  141.4880   71.1500  221.3950 N   0  0  0  0  0  0  0  0  0  0  0  0
  141.9800   71.7860  220.3000 C   0  0  0  0  0  0  0  0  0  0  0  0
  142.6910   71.0440  219.2850 N   0  0  0  0  0  0  0  0  0  0  0  0
  143.7620   71.6580  218.4930 C   0  0  0  0  0  0  0  0  0  0  0  0
  145.0810   70.9480  218.7980 C   0  0  0  0  0  0  0  0  0  0  0  0
  144.9340   69.4410  218.7870 C   0  0  0  0  0  0  0  0  0  0  0  0
  146.0880   68.6450  218.7110 C   0  0  0  0  0  0  0  0  0  0  0  0
  145.9920   67.2510  218.7590 C   0  0  0  0  0  0  0  0  0  0  0  0
  144.7430   66.6400  218.8880 C   0  0  0  0  0  0  0  0  0  0  0  0
  143.5870   67.4180  218.9820 C   0  0  0  0  0  0  0  0  0  0  0  0
  143.6700   68.8190  218.9520 C   0  0  0  0  0  0  0  0  0  0  0  0
  142.3980   69.6300  219.0210 C   0  0  0  0  0  0  0  0  0  0  0  0
  141.7960   73.1250  220.1730 N   0  0  0  0  0  0  0  0  0  0  0  0
  139.6140   75.8570  221.3170 C   0  0  0  0  0  0  0  0  0  0  0  0
  139.8250   77.1790  222.0710 C   0  0  0  0  0  0  0  0  0  0  0  0
  140.6400   80.3990  221.6190 N   0  0  0  0  0  0  0  0  0  0  0  0
  140.9190   81.6200  222.1490 C   0  0  0  0  0  0  0  0  0  0  0  0
  142.0600   82.7166  223.6340 H   0  0  0  0  0  0  0  0  0  0  0  0
  143.1460   80.6515  224.5385 H   0  0  0  0  0  0  0  0  0  0  0  0
  142.6042   78.4228  223.5454 H   0  0  0  0  0  0  0  0  0  0  0  0
  140.8227   77.5975  219.3992 H   0  0  0  0  0  0  0  0  0  0  0  0
  142.4121   78.1604  220.0168 H   0  0  0  0  0  0  0  0  0  0  0  0
  142.2660   75.6704  219.4236 H   0  0  0  0  0  0  0  0  0  0  0  0
  142.8393   76.0590  221.0974 H   0  0  0  0  0  0  0  0  0  0  0  0
  138.2366   70.9163  223.7691 H   0  0  0  0  0  0  0  0  0  0  0  0
  138.9583   70.0152  222.3855 H   0  0  0  0  0  0  0  0  0  0  0  0
  138.2808   68.5378  224.3045 H   0  0  0  0  0  0  0  0  0  0  0  0
  140.0360   68.4493  223.8987 H   0  0  0  0  0  0  0  0  0  0  0  0
  138.5742   67.7540  226.5836 H   0  0  0  0  0  0  0  0  0  0  0  0
  139.2005   68.3440  228.9250 H   0  0  0  0  0  0  0  0  0  0  0  0
  140.5918   70.3644  229.3770 H   0  0  0  0  0  0  0  0  0  0  0  0
  141.3607   71.8003  227.4895 H   0  0  0  0  0  0  0  0  0  0  0  0
  140.5836   72.5346  225.0792 H   0  0  0  0  0  0  0  0  0  0  0  0
  141.9594   71.3670  224.7853 H   0  0  0  0  0  0  0  0  0  0  0  0
  143.5303   71.5603  217.4221 H   0  0  0  0  0  0  0  0  0  0  0  0
  143.8475   72.7242  218.7497 H   0  0  0  0  0  0  0  0  0  0  0  0
  145.8230   71.2373  218.0392 H   0  0  0  0  0  0  0  0  0  0  0  0
  145.4019   71.2491  219.8062 H   0  0  0  0  0  0  0  0  0  0  0  0
  147.0746   69.1214  218.6130 H   0  0  0  0  0  0  0  0  0  0  0  0
  146.9011   66.6350  218.6951 H   0  0  0  0  0  0  0  0  0  0  0  0
  144.6694   65.5428  218.9157 H   0  0  0  0  0  0  0  0  0  0  0  0
  142.6060   66.9302  219.0801 H   0  0  0  0  0  0  0  0  0  0  0  0
  141.8649   69.5457  218.0625 H   0  0  0  0  0  0  0  0  0  0  0  0
  141.7776   69.2408  219.8417 H   0  0  0  0  0  0  0  0  0  0  0  0
  139.0521   76.0531  220.3919 H   0  0  0  0  0  0  0  0  0  0  0  0
  139.0520   75.1647  221.9611 H   0  0  0  0  0  0  0  0  0  0  0  0
  138.8870   77.7532  222.0508 H   0  0  0  0  0  0  0  0  0  0  0  0
  140.1217   76.9387  223.1026 H   0  0  0  0  0  0  0  0  0  0  0  0
  140.4295   82.5192  221.7466 H   0  0  0  0  0  0  0  0  0  0  0  0
  1  2  2  0
  2  3  1  0
  3  4  2  0
  4  5  1  0
  5  6  1  0
  6  7  1  0
  7  8  1  0
  8  9  1  0
  9 10  2  0
 10 11  1  0
 11 12  1  0
 12 13  1  0
 13 14  1  0
 14 15  1  0
 15 16  2  0
 16 17  1  0
 17 18  2  0
 18 19  1  0
 19 20  2  0
 20 21  1  0
 11 22  2  0
 22 23  1  0
 23 24  1  0
 24 25  1  0
 25 26  1  0
 26 27  1  0
 27 28  2  0
 28 29  1  0
 29 30  2  0
 30 31  1  0
 31 32  2  0
 32 33  1  0
 23 34  2  0
  8 35  1  0
 35 36  1  0
  4 37  1  0
 37 38  2  0
 38  1  1  0
 36  5  1  0
 34  9  1  0
 21 12  1  0
 33 24  1  0
 20 15  1  0
 32 27  1  0
  1 39  1  0
  2 40  1  0
  3 41  1  0
  6 42  1  0
  6 43  1  0
  7 44  1  0
  7 45  1  0
 13 46  1  0
 13 47  1  0
 14 48  1  0
 14 49  1  0
 16 50  1  0
 17 51  1  0
 18 52  1  0
 19 53  1  0
 21 54  1  0
 21 55  1  0
 25 56  1  0
 25 57  1  0
 26 58  1  0
 26 59  1  0
 28 60  1  0
 29 61  1  0
 30 62  1  0
 31 63  1  0
 33 64  1  0
 33 65  1  0
 35 66  1  0
 35 67  1  0
 36 68  1  0
 36 69  1  0
 38 70  1  0
M  END
>  <UniqueID>  (77) 
50

>  <SMILES>  (77) 
c1ccc(N2CCN(c3nc(N4CCc5ccccc5C4)nc(N4CCc5ccccc5C4)n3)CC2)nc1

>  <Energy>  (77) 
89.10851446933106

>  <Genealogy>  (77) 
c1ccc(N2CCN(c3nc(N4CCc5ccccc5C4)nc(N4CCc5ccccc5C4)n3)CC2)nc1 (3D coordinates assigned)
c1ccc(N2CCN(c3nc(N4CCc5ccccc5C4)nc(N4CCc5ccccc5C4)n3)CC2)nc1 (nonaromatic ring conformer: 89.10851446933106 kcal/mol)

>  <smiles>  (77) 
c1ccc(N2CCN(c3nc(N4CCc5ccccc5C4)nc(N4CCc5ccccc5C4)n3)CC2)nc1

>  <score_type>  (77) 
oracle

>  <origin>  (77) 
autodockgpu

>  <m_score__min__energy>  (77) 
-10.69

>  <m_primary>  (77) 
energy

>  <meeko>  (77) 
{"free_energy": -10.54, "intermolecular_energy": -11.73, "internal_energy": -1.05, "cluster_size": 20, "cluster_id": 1, "rank_in_cluster": 12}

>  <energy>  (77) 
-10.26

>  <cluster_rmsd>  (77) 
1.54

>  <rmsd>  (77) 
269.03

>  <cluster>  (77) 
1

$$$$
QWCMPUPUGDWNGO-UHFFFAOYNA-N
     RDKit          3D

 70 76  0  0  0  0  0  0  0  0999 V2000
  146.6250   66.7790  218.0770 C   0  0  0  0  0  0  0  0  0  0  0  0
  146.1880   67.5280  216.9830 C   0  0  0  0  0  0  0  0  0  0  0  0
  145.4550   68.6970  217.1860 C   0  0  0  0  0  0  0  0  0  0  0  0
  145.1740   69.1180  218.4980 C   0  0  0  0  0  0  0  0  0  0  0  0
  144.4150   70.3180  218.7540 N   0  0  0  0  0  0  0  0  0  0  0  0
  143.1730   70.6130  218.0290 C   0  0  0  0  0  0  0  0  0  0  0  0
  142.0920   71.0340  219.0260 C   0  0  0  0  0  0  0  0  0  0  0  0
  142.5940   72.0420  219.9740 N   0  0  0  0  0  0  0  0  0  0  0  0
  141.6810   72.6210  220.9280 C   0  0  0  0  0  0  0  0  0  0  0  0
  141.4260   73.9560  220.9040 N   0  0  0  0  0  0  0  0  0  0  0  0
  140.5520   74.5140  221.7810 C   0  0  0  0  0  0  0  0  0  0  0  0
  140.2840   75.9330  221.7530 N   0  0  0  0  0  0  0  0  0  0  0  0
  139.4520   76.5120  220.6870 C   0  0  0  0  0  0  0  0  0  0  0  0
  138.5810   77.6290  221.2470 C   0  0  0  0  0  0  0  0  0  0  0  0
  139.4230   78.6460  221.9610 C   0  0  0  0  0  0  0  0  0  0  0  0
  139.0060   79.9860  222.0150 C   0  0  0  0  0  0  0  0  0  0  0  0
  139.7630   80.9310  222.7130 C   0  0  0  0  0  0  0  0  0  0  0  0
  140.9280   80.5430  223.3760 C   0  0  0  0  0  0  0  0  0  0  0  0
  141.3410   79.2090  223.3430 C   0  0  0  0  0  0  0  0  0  0  0  0
  140.5960   78.2510  222.6370 C   0  0  0  0  0  0  0  0  0  0  0  0
  141.0700   76.8150  222.6350 C   0  0  0  0  0  0  0  0  0  0  0  0
  139.9290   73.7190  222.6900 N   0  0  0  0  0  0  0  0  0  0  0  0
  140.1780   72.3840  222.7350 C   0  0  0  0  0  0  0  0  0  0  0  0
  139.5170   71.5520  223.7130 N   0  0  0  0  0  0  0  0  0  0  0  0
  138.3750   70.7050  223.3570 C   0  0  0  0  0  0  0  0  0  0  0  0
  138.7590   69.2380  223.5500 C   0  0  0  0  0  0  0  0  0  0  0  0
  139.4630   69.0010  224.8700 C   0  0  0  0  0  0  0  0  0  0  0  0
  139.5780   67.6880  225.3540 C   0  0  0  0  0  0  0  0  0  0  0  0
  140.2730   67.4280  226.5390 C   0  0  0  0  0  0  0  0  0  0  0  0
  140.8620   68.4760  227.2490 C   0  0  0  0  0  0  0  0  0  0  0  0
  140.7700   69.7860  226.7720 C   0  0  0  0  0  0  0  0  0  0  0  0
  140.0900   70.0590  225.5750 C   0  0  0  0  0  0  0  0  0  0  0  0
  139.9790   71.4910  225.1060 C   0  0  0  0  0  0  0  0  0  0  0  0
  141.0560   71.8440  221.8510 N   0  0  0  0  0  0  0  0  0  0  0  0
  143.9920   72.4990  219.8850 C   0  0  0  0  0  0  0  0  0  0  0  0
  144.9380   71.3000  219.7170 C   0  0  0  0  0  0  0  0  0  0  0  0
  145.5960   68.3530  219.5450 N   0  0  0  0  0  0  0  0  0  0  0  0
  146.3130   67.2110  219.3660 C   0  0  0  0  0  0  0  0  0  0  0  0
  147.2084   65.8591  217.9243 H   0  0  0  0  0  0  0  0  0  0  0  0
  146.4218   67.1961  215.9607 H   0  0  0  0  0  0  0  0  0  0  0  0
  145.0996   69.2849  216.3269 H   0  0  0  0  0  0  0  0  0  0  0  0
  143.3506   71.4293  217.3134 H   0  0  0  0  0  0  0  0  0  0  0  0
  142.8425   69.7159  217.4850 H   0  0  0  0  0  0  0  0  0  0  0  0
  141.2407   71.4569  218.4724 H   0  0  0  0  0  0  0  0  0  0  0  0
  141.7856   70.1456  219.5977 H   0  0  0  0  0  0  0  0  0  0  0  0
  140.1027   76.9191  219.8990 H   0  0  0  0  0  0  0  0  0  0  0  0
  138.8042   75.7264  220.2708 H   0  0  0  0  0  0  0  0  0  0  0  0
  138.0452   78.1188  220.4206 H   0  0  0  0  0  0  0  0  0  0  0  0
  137.8644   77.1967  221.9609 H   0  0  0  0  0  0  0  0  0  0  0  0
  138.0803   80.2928  221.5061 H   0  0  0  0  0  0  0  0  0  0  0  0
  139.4400   81.9822  222.7398 H   0  0  0  0  0  0  0  0  0  0  0  0
  141.5218   81.2885  223.9253 H   0  0  0  0  0  0  0  0  0  0  0  0
  142.2560   78.9071  223.8737 H   0  0  0  0  0  0  0  0  0  0  0  0
  142.1179   76.7956  222.3011 H   0  0  0  0  0  0  0  0  0  0  0  0
  140.9492   76.4350  223.6602 H   0  0  0  0  0  0  0  0  0  0  0  0
  137.5195   70.9497  224.0037 H   0  0  0  0  0  0  0  0  0  0  0  0
  138.0978   70.8798  222.3069 H   0  0  0  0  0  0  0  0  0  0  0  0
  137.8457   68.6257  223.5204 H   0  0  0  0  0  0  0  0  0  0  0  0
  139.4524   68.9608  222.7423 H   0  0  0  0  0  0  0  0  0  0  0  0
  139.1182   66.8583  224.7971 H   0  0  0  0  0  0  0  0  0  0  0  0
  140.3558   66.3966  226.9123 H   0  0  0  0  0  0  0  0  0  0  0  0
  141.3998   68.2698  228.1862 H   0  0  0  0  0  0  0  0  0  0  0  0
  141.2331   70.6079  227.3377 H   0  0  0  0  0  0  0  0  0  0  0  0
  139.2622   72.0253  225.7469 H   0  0  0  0  0  0  0  0  0  0  0  0
  140.9726   71.9590  225.1676 H   0  0  0  0  0  0  0  0  0  0  0  0
  144.0997   73.1696  219.0197 H   0  0  0  0  0  0  0  0  0  0  0  0
  144.2527   73.0321  220.8112 H   0  0  0  0  0  0  0  0  0  0  0  0
  145.9128   71.6637  219.3599 H   0  0  0  0  0  0  0  0  0  0  0  0
  145.0334   70.8021  220.6932 H   0  0  0  0  0  0  0  0  0  0  0  0
  146.6466   66.6285  220.2374 H   0  0  0  0  0  0  0  0  0  0  0  0
  1  2  2  0
  2  3  1  0
  3  4  2  0
  4  5  1  0
  5  6  1  0
  6  7  1  0
  7  8  1  0
  8  9  1  0
  9 10  2  0
 10 11  1  0
 11 12  1  0
 12 13  1  0
 13 14  1  0
 14 15  1  0
 15 16  2  0
 16 17  1  0
 17 18  2  0
 18 19  1  0
 19 20  2  0
 20 21  1  0
 11 22  2  0
 22 23  1  0
 23 24  1  0
 24 25  1  0
 25 26  1  0
 26 27  1  0
 27 28  2  0
 28 29  1  0
 29 30  2  0
 30 31  1  0
 31 32  2  0
 32 33  1  0
 23 34  2  0
  8 35  1  0
 35 36  1  0
  4 37  1  0
 37 38  2  0
 38  1  1  0
 36  5  1  0
 34  9  1  0
 21 12  1  0
 33 24  1  0
 20 15  1  0
 32 27  1  0
  1 39  1  0
  2 40  1  0
  3 41  1  0
  6 42  1  0
  6 43  1  0
  7 44  1  0
  7 45  1  0
 13 46  1  0
 13 47  1  0
 14 48  1  0
 14 49  1  0
 16 50  1  0
 17 51  1  0
 18 52  1  0
 19 53  1  0
 21 54  1  0
 21 55  1  0
 25 56  1  0
 25 57  1  0
 26 58  1  0
 26 59  1  0
 28 60  1  0
 29 61  1  0
 30 62  1  0
 31 63  1  0
 33 64  1  0
 33 65  1  0
 35 66  1  0
 35 67  1  0
 36 68  1  0
 36 69  1  0
 38 70  1  0
M  END
>  <UniqueID>  (78) 
50

>  <SMILES>  (78) 
c1ccc(N2CCN(c3nc(N4CCc5ccccc5C4)nc(N4CCc5ccccc5C4)n3)CC2)nc1

>  <Energy>  (78) 
89.10851446933106

>  <Genealogy>  (78) 
c1ccc(N2CCN(c3nc(N4CCc5ccccc5C4)nc(N4CCc5ccccc5C4)n3)CC2)nc1 (3D coordinates assigned)
c1ccc(N2CCN(c3nc(N4CCc5ccccc5C4)nc(N4CCc5ccccc5C4)n3)CC2)nc1 (nonaromatic ring conformer: 89.10851446933106 kcal/mol)

>  <smiles>  (78) 
c1ccc(N2CCN(c3nc(N4CCc5ccccc5C4)nc(N4CCc5ccccc5C4)n3)CC2)nc1

>  <score_type>  (78) 
oracle

>  <origin>  (78) 
autodockgpu

>  <m_score__min__energy>  (78) 
-10.69

>  <m_primary>  (78) 
energy

>  <meeko>  (78) 
{"free_energy": -10.26, "intermolecular_energy": -11.45, "internal_energy": -1.01, "cluster_size": 20, "cluster_id": 1, "rank_in_cluster": 17}

>  <energy>  (78) 
-10.14

>  <cluster_rmsd>  (78) 
1.48

>  <rmsd>  (78) 
268.99

>  <cluster>  (78) 
1

$$$$
QWCMPUPUGDWNGO-UHFFFAOYNA-N
     RDKit          3D

 70 76  0  0  0  0  0  0  0  0999 V2000
  141.9950   81.7080  223.4040 C   0  0  0  0  0  0  0  0  0  0  0  0
  141.0070   81.7030  222.4180 C   0  0  0  0  0  0  0  0  0  0  0  0
  140.6110   80.4990  221.8340 C   0  0  0  0  0  0  0  0  0  0  0  0
  141.2050   79.2970  222.2560 C   0  0  0  0  0  0  0  0  0  0  0  0
  140.8290   78.0310  221.6770 N   0  0  0  0  0  0  0  0  0  0  0  0
  141.3630   77.5880  220.3820 C   0  0  0  0  0  0  0  0  0  0  0  0
  141.8460   76.1420  220.5000 C   0  0  0  0  0  0  0  0  0  0  0  0
  140.8450   75.2900  221.1620 N   0  0  0  0  0  0  0  0  0  0  0  0
  141.0970   73.8740  221.2760 C   0  0  0  0  0  0  0  0  0  0  0  0
  140.6280   73.1840  222.3490 N   0  0  0  0  0  0  0  0  0  0  0  0
  140.8370   71.8460  222.4620 C   0  0  0  0  0  0  0  0  0  0  0  0
  140.3380   71.1160  223.6030 N   0  0  0  0  0  0  0  0  0  0  0  0
  139.0800   70.3590  223.5110 C   0  0  0  0  0  0  0  0  0  0  0  0
  139.1840   69.0650  224.3070 C   0  0  0  0  0  0  0  0  0  0  0  0
  139.6040   69.3490  225.7200 C   0  0  0  0  0  0  0  0  0  0  0  0
  139.1960   68.4920  226.7560 C   0  0  0  0  0  0  0  0  0  0  0  0
  139.6160   68.7250  228.0680 C   0  0  0  0  0  0  0  0  0  0  0  0
  140.4590   69.8000  228.3530 C   0  0  0  0  0  0  0  0  0  0  0  0
  140.8860   70.6460  227.3260 C   0  0  0  0  0  0  0  0  0  0  0  0
  140.4620   70.4300  226.0050 C   0  0  0  0  0  0  0  0  0  0  0  0
  140.9550   71.3610  224.9200 C   0  0  0  0  0  0  0  0  0  0  0  0
  141.5240   71.2000  221.4840 N   0  0  0  0  0  0  0  0  0  0  0  0
  142.0070   71.8750  220.4080 C   0  0  0  0  0  0  0  0  0  0  0  0
  142.7450   71.1780  219.3820 N   0  0  0  0  0  0  0  0  0  0  0  0
  143.8020   71.8390  218.6100 C   0  0  0  0  0  0  0  0  0  0  0  0
  145.1390   71.1600  218.9070 C   0  0  0  0  0  0  0  0  0  0  0  0
  145.0350   69.6500  218.8610 C   0  0  0  0  0  0  0  0  0  0  0  0
  146.2120   68.8890  218.7730 C   0  0  0  0  0  0  0  0  0  0  0  0
  146.1550   67.4920  218.7890 C   0  0  0  0  0  0  0  0  0  0  0  0
  144.9230   66.8430  218.8970 C   0  0  0  0  0  0  0  0  0  0  0  0
  143.7450   67.5860  219.0010 C   0  0  0  0  0  0  0  0  0  0  0  0
  143.7890   68.9890  219.0040 C   0  0  0  0  0  0  0  0  0  0  0  0
  142.4940   69.7620  219.0830 C   0  0  0  0  0  0  0  0  0  0  0  0
  141.7900   73.2120  220.3130 N   0  0  0  0  0  0  0  0  0  0  0  0
  139.5760   75.8760  221.6270 C   0  0  0  0  0  0  0  0  0  0  0  0
  139.8360   77.1960  222.3700 C   0  0  0  0  0  0  0  0  0  0  0  0
  142.1830   79.3380  223.2060 N   0  0  0  0  0  0  0  0  0  0  0  0
  142.5810   80.5020  223.7870 C   0  0  0  0  0  0  0  0  0  0  0  0
  142.3077   82.6524  223.8735 H   0  0  0  0  0  0  0  0  0  0  0  0
  140.5408   82.6477  222.1014 H   0  0  0  0  0  0  0  0  0  0  0  0
  139.8400   80.4907  221.0495 H   0  0  0  0  0  0  0  0  0  0  0  0
  140.5734   77.6501  219.6187 H   0  0  0  0  0  0  0  0  0  0  0  0
  142.2044   78.2340  220.0910 H   0  0  0  0  0  0  0  0  0  0  0  0
  142.0407   75.7471  219.4920 H   0  0  0  0  0  0  0  0  0  0  0  0
  142.7624   76.1334  221.1084 H   0  0  0  0  0  0  0  0  0  0  0  0
  138.2587   70.9690  223.9153 H   0  0  0  0  0  0  0  0  0  0  0  0
  138.8842   70.1161  222.4562 H   0  0  0  0  0  0  0  0  0  0  0  0
  138.2044   68.5647  224.3142 H   0  0  0  0  0  0  0  0  0  0  0  0
  139.9374   68.4169  223.8354 H   0  0  0  0  0  0  0  0  0  0  0  0
  138.5437   67.6347  226.5333 H   0  0  0  0  0  0  0  0  0  0  0  0
  139.2816   68.0599  228.8778 H   0  0  0  0  0  0  0  0  0  0  0  0
  140.7876   69.9816  229.3869 H   0  0  0  0  0  0  0  0  0  0  0  0
  141.5584   71.4863  227.5539 H   0  0  0  0  0  0  0  0  0  0  0  0
  140.7311   72.3949  225.2214 H   0  0  0  0  0  0  0  0  0  0  0  0
  142.0343   71.1809  224.8078 H   0  0  0  0  0  0  0  0  0  0  0  0
  143.5787   71.7583  217.5359 H   0  0  0  0  0  0  0  0  0  0  0  0
  143.8560   72.9013  218.8905 H   0  0  0  0  0  0  0  0  0  0  0  0
  145.8766   71.4874  218.1595 H   0  0  0  0  0  0  0  0  0  0  0  0
  145.4457   71.4471  219.9236 H   0  0  0  0  0  0  0  0  0  0  0  0
  147.1851   69.3952  218.6909 H   0  0  0  0  0  0  0  0  0  0  0  0
  147.0815   66.9035  218.7165 H   0  0  0  0  0  0  0  0  0  0  0  0
  144.8804   65.7438  218.9002 H   0  0  0  0  0  0  0  0  0  0  0  0
  142.7774   67.0689  219.0810 H   0  0  0  0  0  0  0  0  0  0  0  0
  141.9696   69.6851  218.1191 H   0  0  0  0  0  0  0  0  0  0  0  0
  141.8798   69.3363  219.8902 H   0  0  0  0  0  0  0  0  0  0  0  0
  138.9271   76.0697  220.7602 H   0  0  0  0  0  0  0  0  0  0  0  0
  139.0875   75.1698  222.3145 H   0  0  0  0  0  0  0  0  0  0  0  0
  138.8912   77.7545  222.4433 H   0  0  0  0  0  0  0  0  0  0  0  0
  140.2323   76.9529  223.3669 H   0  0  0  0  0  0  0  0  0  0  0  0
  143.3648   80.4918  224.5587 H   0  0  0  0  0  0  0  0  0  0  0  0
  1  2  2  0
  2  3  1  0
  3  4  2  0
  4  5  1  0
  5  6  1  0
  6  7  1  0
  7  8  1  0
  8  9  1  0
  9 10  2  0
 10 11  1  0
 11 12  1  0
 12 13  1  0
 13 14  1  0
 14 15  1  0
 15 16  2  0
 16 17  1  0
 17 18  2  0
 18 19  1  0
 19 20  2  0
 20 21  1  0
 11 22  2  0
 22 23  1  0
 23 24  1  0
 24 25  1  0
 25 26  1  0
 26 27  1  0
 27 28  2  0
 28 29  1  0
 29 30  2  0
 30 31  1  0
 31 32  2  0
 32 33  1  0
 23 34  2  0
  8 35  1  0
 35 36  1  0
  4 37  1  0
 37 38  2  0
 38  1  1  0
 36  5  1  0
 34  9  1  0
 21 12  1  0
 33 24  1  0
 20 15  1  0
 32 27  1  0
  1 39  1  0
  2 40  1  0
  3 41  1  0
  6 42  1  0
  6 43  1  0
  7 44  1  0
  7 45  1  0
 13 46  1  0
 13 47  1  0
 14 48  1  0
 14 49  1  0
 16 50  1  0
 17 51  1  0
 18 52  1  0
 19 53  1  0
 21 54  1  0
 21 55  1  0
 25 56  1  0
 25 57  1  0
 26 58  1  0
 26 59  1  0
 28 60  1  0
 29 61  1  0
 30 62  1  0
 31 63  1  0
 33 64  1  0
 33 65  1  0
 35 66  1  0
 35 67  1  0
 36 68  1  0
 36 69  1  0
 38 70  1  0
M  END
>  <UniqueID>  (79) 
50

>  <SMILES>  (79) 
c1ccc(N2CCN(c3nc(N4CCc5ccccc5C4)nc(N4CCc5ccccc5C4)n3)CC2)nc1

>  <Energy>  (79) 
89.10851446933106

>  <Genealogy>  (79) 
c1ccc(N2CCN(c3nc(N4CCc5ccccc5C4)nc(N4CCc5ccccc5C4)n3)CC2)nc1 (3D coordinates assigned)
c1ccc(N2CCN(c3nc(N4CCc5ccccc5C4)nc(N4CCc5ccccc5C4)n3)CC2)nc1 (nonaromatic ring conformer: 89.10851446933106 kcal/mol)

>  <smiles>  (79) 
c1ccc(N2CCN(c3nc(N4CCc5ccccc5C4)nc(N4CCc5ccccc5C4)n3)CC2)nc1

>  <score_type>  (79) 
oracle

>  <origin>  (79) 
autodockgpu

>  <m_score__min__energy>  (79) 
-10.69

>  <m_primary>  (79) 
energy

>  <meeko>  (79) 
{"free_energy": -10.6, "intermolecular_energy": -11.79, "internal_energy": -1.04, "cluster_size": 20, "cluster_id": 1, "rank_in_cluster": 10}

>  <energy>  (79) 
-9.97

>  <cluster_rmsd>  (79) 
1.69

>  <rmsd>  (79) 
269.39

>  <cluster>  (79) 
1

$$$$
QWCMPUPUGDWNGO-UHFFFAOYNA-N
     RDKit          3D

 70 76  0  0  0  0  0  0  0  0999 V2000
  146.6870   66.8280  217.3010 C   0  0  0  0  0  0  0  0  0  0  0  0
  146.3940   67.7370  216.2830 C   0  0  0  0  0  0  0  0  0  0  0  0
  145.7530   68.9390  216.5850 C   0  0  0  0  0  0  0  0  0  0  0  0
  145.4190   69.2280  217.9200 C   0  0  0  0  0  0  0  0  0  0  0  0
  144.7500   70.4550  218.2770 N   0  0  0  0  0  0  0  0  0  0  0  0
  143.6040   70.9590  217.5100 C   0  0  0  0  0  0  0  0  0  0  0  0
  142.4850   71.3580  218.4740 C   0  0  0  0  0  0  0  0  0  0  0  0
  142.9930   72.1860  219.5800 N   0  0  0  0  0  0  0  0  0  0  0  0
  142.0580   72.7290  220.5350 C   0  0  0  0  0  0  0  0  0  0  0  0
  141.6050   71.9560  221.5560 N   0  0  0  0  0  0  0  0  0  0  0  0
  140.7410   72.4580  222.4780 C   0  0  0  0  0  0  0  0  0  0  0  0
  140.2600   71.6340  223.5630 N   0  0  0  0  0  0  0  0  0  0  0  0
  139.0920   70.7610  223.3730 C   0  0  0  0  0  0  0  0  0  0  0  0
  139.2850   69.4510  224.1260 C   0  0  0  0  0  0  0  0  0  0  0  0
  139.6000   69.7160  225.5700 C   0  0  0  0  0  0  0  0  0  0  0  0
  139.2280   68.7810  226.5490 C   0  0  0  0  0  0  0  0  0  0  0  0
  139.5540   68.9990  227.8910 C   0  0  0  0  0  0  0  0  0  0  0  0
  140.2670   70.1400  228.2600 C   0  0  0  0  0  0  0  0  0  0  0  0
  140.6580   71.0660  227.2900 C   0  0  0  0  0  0  0  0  0  0  0  0
  140.3280   70.8650  225.9410 C   0  0  0  0  0  0  0  0  0  0  0  0
  140.7790   71.8850  224.9200 C   0  0  0  0  0  0  0  0  0  0  0  0
  140.3330   73.7490  222.3670 N   0  0  0  0  0  0  0  0  0  0  0  0
  140.7690   74.5330  221.3470 C   0  0  0  0  0  0  0  0  0  0  0  0
  140.3180   75.9000  221.2340 N   0  0  0  0  0  0  0  0  0  0  0  0
  138.9150   76.2680  221.4490 C   0  0  0  0  0  0  0  0  0  0  0  0
  138.8170   77.1810  222.6710 C   0  0  0  0  0  0  0  0  0  0  0  0
  139.8640   78.2730  222.6540 C   0  0  0  0  0  0  0  0  0  0  0  0
  139.7090   79.3800  223.5030 C   0  0  0  0  0  0  0  0  0  0  0  0
  140.6870   80.3770  223.5540 C   0  0  0  0  0  0  0  0  0  0  0  0
  141.8320   80.2760  222.7620 C   0  0  0  0  0  0  0  0  0  0  0  0
  142.0100   79.1720  221.9230 C   0  0  0  0  0  0  0  0  0  0  0  0
  141.0430   78.1550  221.8740 C   0  0  0  0  0  0  0  0  0  0  0  0
  141.2500   76.9930  220.9320 C   0  0  0  0  0  0  0  0  0  0  0  0
  141.6300   74.0140  220.4350 N   0  0  0  0  0  0  0  0  0  0  0  0
  144.4290   72.5100  219.6530 C   0  0  0  0  0  0  0  0  0  0  0  0
  145.2750   71.2530  219.3960 C   0  0  0  0  0  0  0  0  0  0  0  0
  145.6990   68.3080  218.8880 N   0  0  0  0  0  0  0  0  0  0  0  0
  146.3250   67.1330  218.6120 C   0  0  0  0  0  0  0  0  0  0  0  0
  147.1980   65.8814  217.0711 H   0  0  0  0  0  0  0  0  0  0  0  0
  146.6683   67.5058  215.2431 H   0  0  0  0  0  0  0  0  0  0  0  0
  145.5110   69.6546  215.7854 H   0  0  0  0  0  0  0  0  0  0  0  0
  143.9126   71.8362  216.9223 H   0  0  0  0  0  0  0  0  0  0  0  0
  143.2417   70.1734  216.8306 H   0  0  0  0  0  0  0  0  0  0  0  0
  141.7240   71.9284  217.9213 H   0  0  0  0  0  0  0  0  0  0  0  0
  142.0545   70.4401  218.9007 H   0  0  0  0  0  0  0  0  0  0  0  0
  138.1933   71.2691  223.7526 H   0  0  0  0  0  0  0  0  0  0  0  0
  138.9769   70.5445  222.3007 H   0  0  0  0  0  0  0  0  0  0  0  0
  138.3620   68.8562  224.0601 H   0  0  0  0  0  0  0  0  0  0  0  0
  140.1236   68.9011  223.6740 H   0  0  0  0  0  0  0  0  0  0  0  0
  138.6780   67.8735  226.2591 H   0  0  0  0  0  0  0  0  0  0  0  0
  139.2482   68.2705  228.6563 H   0  0  0  0  0  0  0  0  0  0  0  0
  140.5217   70.3107  229.3164 H   0  0  0  0  0  0  0  0  0  0  0  0
  141.2285   71.9588  227.5856 H   0  0  0  0  0  0  0  0  0  0  0  0
  140.4349   72.8778  225.2454 H   0  0  0  0  0  0  0  0  0  0  0  0
  141.8755   71.8193  224.8623 H   0  0  0  0  0  0  0  0  0  0  0  0
  138.5333   76.7966  220.5631 H   0  0  0  0  0  0  0  0  0  0  0  0
  138.3162   75.3606  221.6164 H   0  0  0  0  0  0  0  0  0  0  0  0
  137.8203   77.6461  222.6867 H   0  0  0  0  0  0  0  0  0  0  0  0
  138.9857   76.5654  223.5669 H   0  0  0  0  0  0  0  0  0  0  0  0
  138.8111   79.4634  224.1329 H   0  0  0  0  0  0  0  0  0  0  0  0
  140.5543   81.2428  224.2194 H   0  0  0  0  0  0  0  0  0  0  0  0
  142.5958   81.0667  222.7981 H   0  0  0  0  0  0  0  0  0  0  0  0
  142.9123   79.0996  221.2980 H   0  0  0  0  0  0  0  0  0  0  0  0
  141.0836   77.3329  219.8992 H   0  0  0  0  0  0  0  0  0  0  0  0
  142.2781   76.6213  221.0539 H   0  0  0  0  0  0  0  0  0  0  0  0
  144.6683   73.2695  218.8941 H   0  0  0  0  0  0  0  0  0  0  0  0
  144.6575   72.8949  220.6578 H   0  0  0  0  0  0  0  0  0  0  0  0
  146.3048   71.5599  219.1610 H   0  0  0  0  0  0  0  0  0  0  0  0
  145.2425   70.6303  220.3022 H   0  0  0  0  0  0  0  0  0  0  0  0
  146.5457   66.4234  219.4230 H   0  0  0  0  0  0  0  0  0  0  0  0
  1  2  2  0
  2  3  1  0
  3  4  2  0
  4  5  1  0
  5  6  1  0
  6  7  1  0
  7  8  1  0
  8  9  1  0
  9 10  2  0
 10 11  1  0
 11 12  1  0
 12 13  1  0
 13 14  1  0
 14 15  1  0
 15 16  2  0
 16 17  1  0
 17 18  2  0
 18 19  1  0
 19 20  2  0
 20 21  1  0
 11 22  2  0
 22 23  1  0
 23 24  1  0
 24 25  1  0
 25 26  1  0
 26 27  1  0
 27 28  2  0
 28 29  1  0
 29 30  2  0
 30 31  1  0
 31 32  2  0
 32 33  1  0
 23 34  2  0
  8 35  1  0
 35 36  1  0
  4 37  1  0
 37 38  2  0
 38  1  1  0
 36  5  1  0
 34  9  1  0
 21 12  1  0
 33 24  1  0
 20 15  1  0
 32 27  1  0
  1 39  1  0
  2 40  1  0
  3 41  1  0
  6 42  1  0
  6 43  1  0
  7 44  1  0
  7 45  1  0
 13 46  1  0
 13 47  1  0
 14 48  1  0
 14 49  1  0
 16 50  1  0
 17 51  1  0
 18 52  1  0
 19 53  1  0
 21 54  1  0
 21 55  1  0
 25 56  1  0
 25 57  1  0
 26 58  1  0
 26 59  1  0
 28 60  1  0
 29 61  1  0
 30 62  1  0
 31 63  1  0
 33 64  1  0
 33 65  1  0
 35 66  1  0
 35 67  1  0
 36 68  1  0
 36 69  1  0
 38 70  1  0
M  END
>  <UniqueID>  (80) 
50

>  <SMILES>  (80) 
c1ccc(N2CCN(c3nc(N4CCc5ccccc5C4)nc(N4CCc5ccccc5C4)n3)CC2)nc1

>  <Energy>  (80) 
89.10851446933106

>  <Genealogy>  (80) 
c1ccc(N2CCN(c3nc(N4CCc5ccccc5C4)nc(N4CCc5ccccc5C4)n3)CC2)nc1 (3D coordinates assigned)
c1ccc(N2CCN(c3nc(N4CCc5ccccc5C4)nc(N4CCc5ccccc5C4)n3)CC2)nc1 (nonaromatic ring conformer: 89.10851446933106 kcal/mol)

>  <smiles>  (80) 
c1ccc(N2CCN(c3nc(N4CCc5ccccc5C4)nc(N4CCc5ccccc5C4)n3)CC2)nc1

>  <score_type>  (80) 
oracle

>  <origin>  (80) 
autodockgpu

>  <m_score__min__energy>  (80) 
-10.69

>  <m_primary>  (80) 
energy

>  <meeko>  (80) 
{"free_energy": -10.33, "intermolecular_energy": -11.52, "internal_energy": -1.02, "cluster_size": 20, "cluster_id": 1, "rank_in_cluster": 16}

>  <energy>  (80) 
-9.92

>  <cluster_rmsd>  (80) 
1.09

>  <rmsd>  (80) 
269.3

>  <cluster>  (80) 
1

$$$$
