
     RDKit          3D

 43 46  0  0  0  0  0  0  0  0999 V2000
  141.3990   71.8930  228.3580 C   0  0  0  0  0  0  0  0  0  0  0  0
  140.7110   70.8650  227.5590 C   0  0  0  0  0  0  0  0  0  0  0  0
  140.3720   69.6210  228.1160 C   0  0  0  0  0  0  0  0  0  0  0  0
  139.7540   68.6280  227.4140 C   0  0  0  0  0  0  0  0  0  0  0  0
  139.4570   68.9040  226.0800 C   0  0  0  0  0  0  0  0  0  0  0  0
  139.7420   70.0800  225.4610 C   0  0  0  0  0  0  0  0  0  0  0  0
  140.3730   71.0610  226.2100 C   0  0  0  0  0  0  0  0  0  0  0  0
  139.2580   69.9690  224.0460 C   0  0  0  0  0  0  0  0  0  0  0  0
  138.6940   68.6090  223.9790 C   0  0  0  0  0  0  0  0  0  0  0  0
  138.0700   67.8610  222.8880 C   0  0  0  0  0  0  0  0  0  0  0  0
  138.8430   66.9740  222.1140 C   0  0  0  0  0  0  0  0  0  0  0  0
  138.3020   66.2930  221.0380 C   0  0  0  0  0  0  0  0  0  0  0  0
  136.9790   66.4840  220.7160 C   0  0  0  0  0  0  0  0  0  0  0  0
  136.2630   67.3490  221.4890 C   0  0  0  0  0  0  0  0  0  0  0  0
  136.7270   68.0540  222.5600 C   0  0  0  0  0  0  0  0  0  0  0  0
  135.8190   68.9000  223.2820 C   0  0  0  0  0  0  0  0  0  0  0  0
  134.7890   69.4530  222.8260 O   0  0  0  0  0  0  0  0  0  0  0  0
  136.0220   69.2070  224.7060 N   0  0  0  0  0  0  0  0  0  0  0  0
  134.9940   70.0880  225.2080 C   0  0  0  0  0  0  0  0  0  0  0  0
  133.9580   69.6060  225.9710 C   0  0  0  0  0  0  0  0  0  0  0  0
  132.9570   70.4100  226.4610 C   0  0  0  0  0  0  0  0  0  0  0  0
  133.0140   71.7440  226.1660 C   0  0  0  0  0  0  0  0  0  0  0  0
  134.0290   72.3190  225.4000 C   0  0  0  0  0  0  0  0  0  0  0  0
  134.9880   71.4360  224.9500 C   0  0  0  0  0  0  0  0  0  0  0  0
  138.8290   68.0560  225.1480 N   0  0  0  0  0  0  0  0  0  0  0  0
  141.2573   71.6813  229.4281 H   0  0  0  0  0  0  0  0  0  0  0  0
  142.4732   71.8832  228.1214 H   0  0  0  0  0  0  0  0  0  0  0  0
  140.9804   72.8823  228.1214 H   0  0  0  0  0  0  0  0  0  0  0  0
  140.6174   69.4381  229.1725 H   0  0  0  0  0  0  0  0  0  0  0  0
  139.5034   67.6615  227.8756 H   0  0  0  0  0  0  0  0  0  0  0  0
  140.6164   72.0220  225.7334 H   0  0  0  0  0  0  0  0  0  0  0  0
  138.4874   70.7248  223.8340 H   0  0  0  0  0  0  0  0  0  0  0  0
  140.0549   70.1384  223.3069 H   0  0  0  0  0  0  0  0  0  0  0  0
  139.9013   66.8190  222.3709 H   0  0  0  0  0  0  0  0  0  0  0  0
  138.9241   65.6056  220.4460 H   0  0  0  0  0  0  0  0  0  0  0  0
  136.5161   65.9591  219.8674 H   0  0  0  0  0  0  0  0  0  0  0  0
  135.2056   67.4926  221.2222 H   0  0  0  0  0  0  0  0  0  0  0  0
  136.7990   68.8400  225.2390 H   0  0  0  0  0  0  0  0  0  0  0  0
  133.9285   68.5304  226.1994 H   0  0  0  0  0  0  0  0  0  0  0  0
  132.1392   69.9953  227.0687 H   0  0  0  0  0  0  0  0  0  0  0  0
  132.2184   72.3979  226.5526 H   0  0  0  0  0  0  0  0  0  0  0  0
  134.0616   73.3947  225.1725 H   0  0  0  0  0  0  0  0  0  0  0  0
  135.8082   71.8418  224.3396 H   0  0  0  0  0  0  0  0  0  0  0  0
  1  2  1  0
  2  3  2  0
  3  4  1  0
  4  5  2  0
  5  6  1  0
  6  7  2  0
  6  8  1  0
  8  9  1  0
  9 10  1  0
 10 11  2  0
 11 12  1  0
 12 13  2  0
 13 14  1  0
 14 15  2  0
 15 16  1  0
 16 17  2  0
 16 18  1  0
 18 19  1  0
 19 20  2  0
 20 21  1  0
 21 22  2  0
 22 23  1  0
 23 24  2  0
  9 25  2  0
  7  2  1  0
 15 10  1  0
 24 19  1  0
 25  5  1  0
  1 26  1  0
  1 27  1  0
  1 28  1  0
  3 29  1  0
  4 30  1  0
  7 31  1  0
  8 32  1  0
  8 33  1  0
 11 34  1  0
 12 35  1  0
 13 36  1  0
 14 37  1  0
 18 38  1  0
 20 39  1  0
 21 40  1  0
 22 41  1  0
 23 42  1  0
 24 43  1  0
M  END
>  <smiles>  (1) 
Cc1ccc2c(c1)CC(c1ccccc1C(=O)Nc1ccccc1)=N2

>  <score_type>  (1) 
oracle

>  <origin>  (1) 
autodockgpu

>  <m_score__min__energy>  (1) 
-7.04

>  <m_primary>  (1) 
energy

>  <meeko>  (1) 
{"free_energy": -7.03, "intermolecular_energy": -7.92, "internal_energy": -1.81, "cluster_size": 13, "cluster_id": 1, "rank_in_cluster": 10}

>  <energy>  (1) 
-7.04

>  <cluster_rmsd>  (1) 
0.0

>  <rmsd>  (1) 
270.17

>  <cluster>  (1) 
1

$$$$

     RDKit          3D

 43 46  0  0  0  0  0  0  0  0999 V2000
  141.4680   71.8780  228.3490 C   0  0  0  0  0  0  0  0  0  0  0  0
  140.7740   70.8510  227.5530 C   0  0  0  0  0  0  0  0  0  0  0  0
  140.4230   69.6130  228.1160 C   0  0  0  0  0  0  0  0  0  0  0  0
  139.8000   68.6210  227.4180 C   0  0  0  0  0  0  0  0  0  0  0  0
  139.5100   68.8910  226.0820 C   0  0  0  0  0  0  0  0  0  0  0  0
  139.8070   70.0610  225.4570 C   0  0  0  0  0  0  0  0  0  0  0  0
  140.4430   71.0410  226.2020 C   0  0  0  0  0  0  0  0  0  0  0  0
  139.3270   69.9450  224.0400 C   0  0  0  0  0  0  0  0  0  0  0  0
  138.7530   68.5900  223.9790 C   0  0  0  0  0  0  0  0  0  0  0  0
  138.1270   67.8400  222.8900 C   0  0  0  0  0  0  0  0  0  0  0  0
  138.8980   66.9490  222.1190 C   0  0  0  0  0  0  0  0  0  0  0  0
  138.3540   66.2670  221.0440 C   0  0  0  0  0  0  0  0  0  0  0  0
  137.0330   66.4610  220.7220 C   0  0  0  0  0  0  0  0  0  0  0  0
  136.3190   67.3290  221.4920 C   0  0  0  0  0  0  0  0  0  0  0  0
  136.7850   68.0360  222.5610 C   0  0  0  0  0  0  0  0  0  0  0  0
  135.8780   68.8870  223.2810 C   0  0  0  0  0  0  0  0  0  0  0  0
  134.8530   69.4450  222.8220 O   0  0  0  0  0  0  0  0  0  0  0  0
  136.0780   69.1930  224.7050 N   0  0  0  0  0  0  0  0  0  0  0  0
  135.0540   70.0800  225.2040 C   0  0  0  0  0  0  0  0  0  0  0  0
  135.0920   71.4270  224.9370 C   0  0  0  0  0  0  0  0  0  0  0  0
  134.1410   72.3050  225.4000 C   0  0  0  0  0  0  0  0  0  0  0  0
  133.1220   71.7960  226.1550 C   0  0  0  0  0  0  0  0  0  0  0  0
  133.0040   70.4410  226.4730 C   0  0  0  0  0  0  0  0  0  0  0  0
  134.0030   69.6370  225.9680 C   0  0  0  0  0  0  0  0  0  0  0  0
  138.8780   68.0420  225.1510 N   0  0  0  0  0  0  0  0  0  0  0  0
  141.3270   71.6693  229.4198 H   0  0  0  0  0  0  0  0  0  0  0  0
  142.5418   71.8629  228.1108 H   0  0  0  0  0  0  0  0  0  0  0  0
  141.0535   72.8687  228.1108 H   0  0  0  0  0  0  0  0  0  0  0  0
  140.6631   69.4345  229.1745 H   0  0  0  0  0  0  0  0  0  0  0  0
  139.5403   67.6593  227.8845 H   0  0  0  0  0  0  0  0  0  0  0  0
  140.6962   71.9969  225.7202 H   0  0  0  0  0  0  0  0  0  0  0  0
  138.5631   70.7054  223.8205 H   0  0  0  0  0  0  0  0  0  0  0  0
  140.1279   70.1036  223.3029 H   0  0  0  0  0  0  0  0  0  0  0  0
  139.9558   66.7914  222.3765 H   0  0  0  0  0  0  0  0  0  0  0  0
  138.9738   65.5763  220.4534 H   0  0  0  0  0  0  0  0  0  0  0  0
  136.5690   65.9354  219.8744 H   0  0  0  0  0  0  0  0  0  0  0  0
  135.2618   67.4739  221.2250 H   0  0  0  0  0  0  0  0  0  0  0  0
  136.8530   68.8220  225.2400 H   0  0  0  0  0  0  0  0  0  0  0  0
  135.9186   71.8197  224.3267 H   0  0  0  0  0  0  0  0  0  0  0  0
  134.1982   73.3793  225.1709 H   0  0  0  0  0  0  0  0  0  0  0  0
  132.3553   72.4890  226.5317 H   0  0  0  0  0  0  0  0  0  0  0  0
  132.1765   70.0456  227.0804 H   0  0  0  0  0  0  0  0  0  0  0  0
  133.9547   68.5615  226.1937 H   0  0  0  0  0  0  0  0  0  0  0  0
  1  2  1  0
  2  3  2  0
  3  4  1  0
  4  5  2  0
  5  6  1  0
  6  7  2  0
  6  8  1  0
  8  9  1  0
  9 10  1  0
 10 11  2  0
 11 12  1  0
 12 13  2  0
 13 14  1  0
 14 15  2  0
 15 16  1  0
 16 17  2  0
 16 18  1  0
 18 19  1  0
 19 20  2  0
 20 21  1  0
 21 22  2  0
 22 23  1  0
 23 24  2  0
  9 25  2  0
  7  2  1  0
 15 10  1  0
 24 19  1  0
 25  5  1  0
  1 26  1  0
  1 27  1  0
  1 28  1  0
  3 29  1  0
  4 30  1  0
  7 31  1  0
  8 32  1  0
  8 33  1  0
 11 34  1  0
 12 35  1  0
 13 36  1  0
 14 37  1  0
 18 38  1  0
 20 39  1  0
 21 40  1  0
 22 41  1  0
 23 42  1  0
 24 43  1  0
M  END
>  <smiles>  (2) 
Cc1ccc2c(c1)CC(c1ccccc1C(=O)Nc1ccccc1)=N2

>  <score_type>  (2) 
oracle

>  <origin>  (2) 
autodockgpu

>  <m_score__min__energy>  (2) 
-7.04

>  <m_primary>  (2) 
energy

>  <meeko>  (2) 
{"free_energy": -7.03, "intermolecular_energy": -7.93, "internal_energy": -1.83, "cluster_size": 13, "cluster_id": 1, "rank_in_cluster": 4}

>  <energy>  (2) 
-7.04

>  <cluster_rmsd>  (2) 
0.02

>  <rmsd>  (2) 
270.16

>  <cluster>  (2) 
1

$$$$

     RDKit          3D

 43 46  0  0  0  0  0  0  0  0999 V2000
  145.6150   73.2250  219.8740 C   0  0  0  0  0  0  0  0  0  0  0  0
  144.3220   73.8990  220.0780 C   0  0  0  0  0  0  0  0  0  0  0  0
  144.0750   75.1710  219.5380 C   0  0  0  0  0  0  0  0  0  0  0  0
  142.9040   75.8480  219.7150 C   0  0  0  0  0  0  0  0  0  0  0  0
  141.9260   75.2070  220.4750 C   0  0  0  0  0  0  0  0  0  0  0  0
  142.0760   73.9750  221.0300 C   0  0  0  0  0  0  0  0  0  0  0  0
  143.2830   73.3240  220.8270 C   0  0  0  0  0  0  0  0  0  0  0  0
  140.8030   73.6530  221.7540 C   0  0  0  0  0  0  0  0  0  0  0  0
  139.9670   74.8460  221.5300 C   0  0  0  0  0  0  0  0  0  0  0  0
  138.6150   75.1900  221.9710 C   0  0  0  0  0  0  0  0  0  0  0  0
  137.5910   74.2260  221.9110 C   0  0  0  0  0  0  0  0  0  0  0  0
  136.2880   74.5320  222.2640 C   0  0  0  0  0  0  0  0  0  0  0  0
  135.9860   75.8050  222.6860 C   0  0  0  0  0  0  0  0  0  0  0  0
  137.0040   76.7090  222.7330 C   0  0  0  0  0  0  0  0  0  0  0  0
  138.3070   76.4820  222.4000 C   0  0  0  0  0  0  0  0  0  0  0  0
  139.2580   77.5500  222.5410 C   0  0  0  0  0  0  0  0  0  0  0  0
  139.0120   78.7790  222.4990 O   0  0  0  0  0  0  0  0  0  0  0  0
  140.6850   77.2820  222.7690 N   0  0  0  0  0  0  0  0  0  0  0  0
  141.4440   78.5070  222.8610 C   0  0  0  0  0  0  0  0  0  0  0  0
  141.8220   79.0170  224.0790 C   0  0  0  0  0  0  0  0  0  0  0  0
  142.5380   80.1840  224.2100 C   0  0  0  0  0  0  0  0  0  0  0  0
  142.8790   80.8480  223.0650 C   0  0  0  0  0  0  0  0  0  0  0  0
  142.5390   80.4020  221.7860 C   0  0  0  0  0  0  0  0  0  0  0  0
  141.8200   79.2260  221.7540 C   0  0  0  0  0  0  0  0  0  0  0  0
  140.6430   75.6850  220.8040 N   0  0  0  0  0  0  0  0  0  0  0  0
  146.0644   72.9907  220.8503 H   0  0  0  0  0  0  0  0  0  0  0  0
  145.4581   72.2939  219.3096 H   0  0  0  0  0  0  0  0  0  0  0  0
  146.2885   73.8868  219.3096 H   0  0  0  0  0  0  0  0  0  0  0  0
  144.8670   75.6466  218.9410 H   0  0  0  0  0  0  0  0  0  0  0  0
  142.7400   76.8457  219.2817 H   0  0  0  0  0  0  0  0  0  0  0  0
  143.4312   72.3264  221.2662 H   0  0  0  0  0  0  0  0  0  0  0  0
  140.3275   72.7552  221.3324 H   0  0  0  0  0  0  0  0  0  0  0  0
  140.9607   73.4351  222.8206 H   0  0  0  0  0  0  0  0  0  0  0  0
  137.8317   73.2063  221.5760 H   0  0  0  0  0  0  0  0  0  0  0  0
  135.5022   73.7643  222.2074 H   0  0  0  0  0  0  0  0  0  0  0  0
  134.9616   76.0830  222.9747 H   0  0  0  0  0  0  0  0  0  0  0  0
  136.7497   77.7236  223.0736 H   0  0  0  0  0  0  0  0  0  0  0  0
  141.0620   76.3460  222.8380 H   0  0  0  0  0  0  0  0  0  0  0  0
  141.5398   78.4681  224.9895 H   0  0  0  0  0  0  0  0  0  0  0  0
  142.8255   80.5687  225.1996 H   0  0  0  0  0  0  0  0  0  0  0  0
  143.4514   81.7829  223.1557 H   0  0  0  0  0  0  0  0  0  0  0  0
  142.8231   80.9473  220.8739 H   0  0  0  0  0  0  0  0  0  0  0  0
  141.5261   78.8352  220.7687 H   0  0  0  0  0  0  0  0  0  0  0  0
  1  2  1  0
  2  3  2  0
  3  4  1  0
  4  5  2  0
  5  6  1  0
  6  7  2  0
  6  8  1  0
  8  9  1  0
  9 10  1  0
 10 11  2  0
 11 12  1  0
 12 13  2  0
 13 14  1  0
 14 15  2  0
 15 16  1  0
 16 17  2  0
 16 18  1  0
 18 19  1  0
 19 20  2  0
 20 21  1  0
 21 22  2  0
 22 23  1  0
 23 24  2  0
  9 25  2  0
  7  2  1  0
 15 10  1  0
 24 19  1  0
 25  5  1  0
  1 26  1  0
  1 27  1  0
  1 28  1  0
  3 29  1  0
  4 30  1  0
  7 31  1  0
  8 32  1  0
  8 33  1  0
 11 34  1  0
 12 35  1  0
 13 36  1  0
 14 37  1  0
 18 38  1  0
 20 39  1  0
 21 40  1  0
 22 41  1  0
 23 42  1  0
 24 43  1  0
M  END
>  <smiles>  (3) 
Cc1ccc2c(c1)CC(c1ccccc1C(=O)Nc1ccccc1)=N2

>  <score_type>  (3) 
oracle

>  <origin>  (3) 
autodockgpu

>  <m_score__min__energy>  (3) 
-7.04

>  <m_primary>  (3) 
energy

>  <meeko>  (3) 
{"free_energy": -6.96, "intermolecular_energy": -7.85, "internal_energy": -1.6, "cluster_size": 7, "cluster_id": 2, "rank_in_cluster": 4}

>  <energy>  (3) 
-7.03

>  <cluster_rmsd>  (3) 
0.04

>  <rmsd>  (3) 
270.17

>  <cluster>  (3) 
1

$$$$

     RDKit          3D

 43 46  0  0  0  0  0  0  0  0999 V2000
  141.4560   71.8830  228.3420 C   0  0  0  0  0  0  0  0  0  0  0  0
  140.7650   70.8530  227.5480 C   0  0  0  0  0  0  0  0  0  0  0  0
  140.4140   69.6170  228.1130 C   0  0  0  0  0  0  0  0  0  0  0  0
  139.7930   68.6220  227.4170 C   0  0  0  0  0  0  0  0  0  0  0  0
  139.5070   68.8870  226.0780 C   0  0  0  0  0  0  0  0  0  0  0  0
  139.8050   70.0560  225.4510 C   0  0  0  0  0  0  0  0  0  0  0  0
  140.4390   71.0390  226.1950 C   0  0  0  0  0  0  0  0  0  0  0  0
  139.3310   69.9360  224.0330 C   0  0  0  0  0  0  0  0  0  0  0  0
  138.7570   68.5790  223.9740 C   0  0  0  0  0  0  0  0  0  0  0  0
  138.1350   67.8260  222.8850 C   0  0  0  0  0  0  0  0  0  0  0  0
  138.9090   66.9340  222.1190 C   0  0  0  0  0  0  0  0  0  0  0  0
  138.3690   66.2480  221.0440 C   0  0  0  0  0  0  0  0  0  0  0  0
  137.0480   66.4390  220.7180 C   0  0  0  0  0  0  0  0  0  0  0  0
  136.3310   67.3090  221.4850 C   0  0  0  0  0  0  0  0  0  0  0  0
  136.7930   68.0190  222.5530 C   0  0  0  0  0  0  0  0  0  0  0  0
  135.8840   68.8710  223.2680 C   0  0  0  0  0  0  0  0  0  0  0  0
  134.8610   69.4280  222.8040 O   0  0  0  0  0  0  0  0  0  0  0  0
  136.0780   69.1770  224.6930 N   0  0  0  0  0  0  0  0  0  0  0  0
  135.0510   70.0640  225.1870 C   0  0  0  0  0  0  0  0  0  0  0  0
  135.0900   71.4110  224.9190 C   0  0  0  0  0  0  0  0  0  0  0  0
  134.1370   72.2900  225.3770 C   0  0  0  0  0  0  0  0  0  0  0  0
  133.1150   71.7810  226.1280 C   0  0  0  0  0  0  0  0  0  0  0  0
  132.9960   70.4270  226.4470 C   0  0  0  0  0  0  0  0  0  0  0  0
  133.9980   69.6220  225.9480 C   0  0  0  0  0  0  0  0  0  0  0  0
  138.8790   68.0360  225.1490 N   0  0  0  0  0  0  0  0  0  0  0  0
  141.3165   71.6751  229.4131 H   0  0  0  0  0  0  0  0  0  0  0  0
  142.5296   71.8713  228.1030 H   0  0  0  0  0  0  0  0  0  0  0  0
  141.0379   72.8720  228.1030 H   0  0  0  0  0  0  0  0  0  0  0  0
  140.6522   69.4417  229.1725 H   0  0  0  0  0  0  0  0  0  0  0  0
  139.5318   67.6621  227.8865 H   0  0  0  0  0  0  0  0  0  0  0  0
  140.6943   71.9932  225.7109 H   0  0  0  0  0  0  0  0  0  0  0  0
  138.5678   70.6956  223.8082 H   0  0  0  0  0  0  0  0  0  0  0  0
  140.1347   70.0929  223.2985 H   0  0  0  0  0  0  0  0  0  0  0  0
  139.9662   66.7784  222.3801 H   0  0  0  0  0  0  0  0  0  0  0  0
  138.9916   65.5569  220.4568 H   0  0  0  0  0  0  0  0  0  0  0  0
  136.5866   65.9104  219.8708 H   0  0  0  0  0  0  0  0  0  0  0  0
  135.2743   67.4522  221.2150 H   0  0  0  0  0  0  0  0  0  0  0  0
  136.8500   68.8070  225.2320 H   0  0  0  0  0  0  0  0  0  0  0  0
  135.9193   71.8031  224.3119 H   0  0  0  0  0  0  0  0  0  0  0  0
  134.1951   73.3642  225.1472 H   0  0  0  0  0  0  0  0  0  0  0  0
  132.3463   72.4740  226.5005 H   0  0  0  0  0  0  0  0  0  0  0  0
  132.1656   70.0323  227.0508 H   0  0  0  0  0  0  0  0  0  0  0  0
  133.9499   68.5471  226.1765 H   0  0  0  0  0  0  0  0  0  0  0  0
  1  2  1  0
  2  3  2  0
  3  4  1  0
  4  5  2  0
  5  6  1  0
  6  7  2  0
  6  8  1  0
  8  9  1  0
  9 10  1  0
 10 11  2  0
 11 12  1  0
 12 13  2  0
 13 14  1  0
 14 15  2  0
 15 16  1  0
 16 17  2  0
 16 18  1  0
 18 19  1  0
 19 20  2  0
 20 21  1  0
 21 22  2  0
 22 23  1  0
 23 24  2  0
  9 25  2  0
  7  2  1  0
 15 10  1  0
 24 19  1  0
 25  5  1  0
  1 26  1  0
  1 27  1  0
  1 28  1  0
  3 29  1  0
  4 30  1  0
  7 31  1  0
  8 32  1  0
  8 33  1  0
 11 34  1  0
 12 35  1  0
 13 36  1  0
 14 37  1  0
 18 38  1  0
 20 39  1  0
 21 40  1  0
 22 41  1  0
 23 42  1  0
 24 43  1  0
M  END
>  <smiles>  (4) 
Cc1ccc2c(c1)CC(c1ccccc1C(=O)Nc1ccccc1)=N2

>  <score_type>  (4) 
oracle

>  <origin>  (4) 
autodockgpu

>  <m_score__min__energy>  (4) 
-7.04

>  <m_primary>  (4) 
energy

>  <meeko>  (4) 
{"free_energy": -7.03, "intermolecular_energy": -7.93, "internal_energy": -1.83, "cluster_size": 13, "cluster_id": 1, "rank_in_cluster": 3}

>  <energy>  (4) 
-7.03

>  <cluster_rmsd>  (4) 
0.03

>  <rmsd>  (4) 
270.18

>  <cluster>  (4) 
1

$$$$

     RDKit          3D

 43 46  0  0  0  0  0  0  0  0999 V2000
  141.3380   71.8870  228.3160 C   0  0  0  0  0  0  0  0  0  0  0  0
  140.6960   70.8390  227.5030 C   0  0  0  0  0  0  0  0  0  0  0  0
  140.3700   69.5910  228.0570 C   0  0  0  0  0  0  0  0  0  0  0  0
  139.7950   68.5810  227.3430 C   0  0  0  0  0  0  0  0  0  0  0  0
  139.5310   68.8420  225.9990 C   0  0  0  0  0  0  0  0  0  0  0  0
  139.8080   70.0220  225.3820 C   0  0  0  0  0  0  0  0  0  0  0  0
  140.3950   71.0200  226.1440 C   0  0  0  0  0  0  0  0  0  0  0  0
  139.3690   69.8930  223.9540 C   0  0  0  0  0  0  0  0  0  0  0  0
  138.8380   68.5200  223.8780 C   0  0  0  0  0  0  0  0  0  0  0  0
  138.2640   67.7520  222.7730 C   0  0  0  0  0  0  0  0  0  0  0  0
  139.0860   66.9020  222.0090 C   0  0  0  0  0  0  0  0  0  0  0  0
  138.5900   66.2050  220.9200 C   0  0  0  0  0  0  0  0  0  0  0  0
  137.2670   66.3430  220.5770 C   0  0  0  0  0  0  0  0  0  0  0  0
  136.5030   67.1740  221.3420 C   0  0  0  0  0  0  0  0  0  0  0  0
  136.9200   67.8920  222.4230 C   0  0  0  0  0  0  0  0  0  0  0  0
  135.9650   68.6970  223.1340 C   0  0  0  0  0  0  0  0  0  0  0  0
  134.9450   69.2450  222.6530 O   0  0  0  0  0  0  0  0  0  0  0  0
  136.1030   68.9590  224.5740 N   0  0  0  0  0  0  0  0  0  0  0  0
  135.0380   69.8040  225.0610 C   0  0  0  0  0  0  0  0  0  0  0  0
  133.9170   69.2660  225.6460 C   0  0  0  0  0  0  0  0  0  0  0  0
  132.8780   70.0350  226.1140 C   0  0  0  0  0  0  0  0  0  0  0  0
  132.9860   71.3910  225.9840 C   0  0  0  0  0  0  0  0  0  0  0  0
  134.0880   72.0230  225.4050 C   0  0  0  0  0  0  0  0  0  0  0  0
  135.0780   71.1730  224.9620 C   0  0  0  0  0  0  0  0  0  0  0  0
  138.9500   67.9760  225.0530 N   0  0  0  0  0  0  0  0  0  0  0  0
  141.1989   71.6599  229.3833 H   0  0  0  0  0  0  0  0  0  0  0  0
  142.4131   71.9226  228.0858 H   0  0  0  0  0  0  0  0  0  0  0  0
  140.8813   72.8609  228.0858 H   0  0  0  0  0  0  0  0  0  0  0  0
  140.5894   69.4188  229.1211 H   0  0  0  0  0  0  0  0  0  0  0  0
  139.5524   67.6118  227.8032 H   0  0  0  0  0  0  0  0  0  0  0  0
  140.6323   71.9834  225.6691 H   0  0  0  0  0  0  0  0  0  0  0  0
  138.5882   70.6300  223.7149 H   0  0  0  0  0  0  0  0  0  0  0  0
  140.1835   70.0768  223.2379 H   0  0  0  0  0  0  0  0  0  0  0  0
  140.1453   66.7890  222.2830 H   0  0  0  0  0  0  0  0  0  0  0  0
  139.2493   65.5469  220.3350 H   0  0  0  0  0  0  0  0  0  0  0  0
  136.8403   65.8039  219.7183 H   0  0  0  0  0  0  0  0  0  0  0  0
  135.4450   67.2750  221.0585 H   0  0  0  0  0  0  0  0  0  0  0  0
  136.8650   68.5900  225.1270 H   0  0  0  0  0  0  0  0  0  0  0  0
  133.8480   68.1726  225.7441 H   0  0  0  0  0  0  0  0  0  0  0  0
  131.9919   69.5755  226.5763 H   0  0  0  0  0  0  0  0  0  0  0  0
  132.1614   72.0174  226.3550 H   0  0  0  0  0  0  0  0  0  0  0  0
  134.1605   73.1165  225.3097 H   0  0  0  0  0  0  0  0  0  0  0  0
  135.9656   71.6243  224.4947 H   0  0  0  0  0  0  0  0  0  0  0  0
  1  2  1  0
  2  3  2  0
  3  4  1  0
  4  5  2  0
  5  6  1  0
  6  7  2  0
  6  8  1  0
  8  9  1  0
  9 10  1  0
 10 11  2  0
 11 12  1  0
 12 13  2  0
 13 14  1  0
 14 15  2  0
 15 16  1  0
 16 17  2  0
 16 18  1  0
 18 19  1  0
 19 20  2  0
 20 21  1  0
 21 22  2  0
 22 23  1  0
 23 24  2  0
  9 25  2  0
  7  2  1  0
 15 10  1  0
 24 19  1  0
 25  5  1  0
  1 26  1  0
  1 27  1  0
  1 28  1  0
  3 29  1  0
  4 30  1  0
  7 31  1  0
  8 32  1  0
  8 33  1  0
 11 34  1  0
 12 35  1  0
 13 36  1  0
 14 37  1  0
 18 38  1  0
 20 39  1  0
 21 40  1  0
 22 41  1  0
 23 42  1  0
 24 43  1  0
M  END
>  <smiles>  (5) 
Cc1ccc2c(c1)CC(c1ccccc1C(=O)Nc1ccccc1)=N2

>  <score_type>  (5) 
oracle

>  <origin>  (5) 
autodockgpu

>  <m_score__min__energy>  (5) 
-7.04

>  <m_primary>  (5) 
energy

>  <meeko>  (5) 
{"free_energy": -6.94, "intermolecular_energy": -7.83, "internal_energy": -1.86, "cluster_size": 13, "cluster_id": 1, "rank_in_cluster": 13}

>  <energy>  (5) 
-7.03

>  <cluster_rmsd>  (5) 
0.03

>  <rmsd>  (5) 
270.17

>  <cluster>  (5) 
1

$$$$

     RDKit          3D

 43 46  0  0  0  0  0  0  0  0999 V2000
  141.3960   71.8860  228.3360 C   0  0  0  0  0  0  0  0  0  0  0  0
  140.7080   70.8550  227.5410 C   0  0  0  0  0  0  0  0  0  0  0  0
  140.3750   69.6110  228.1010 C   0  0  0  0  0  0  0  0  0  0  0  0
  139.7570   68.6150  227.4030 C   0  0  0  0  0  0  0  0  0  0  0  0
  139.4550   68.8870  226.0700 C   0  0  0  0  0  0  0  0  0  0  0  0
  139.7350   70.0630  225.4480 C   0  0  0  0  0  0  0  0  0  0  0  0
  140.3650   71.0470  226.1930 C   0  0  0  0  0  0  0  0  0  0  0  0
  139.2460   69.9490  224.0340 C   0  0  0  0  0  0  0  0  0  0  0  0
  138.6860   68.5870  223.9710 C   0  0  0  0  0  0  0  0  0  0  0  0
  138.0610   67.8350  222.8830 C   0  0  0  0  0  0  0  0  0  0  0  0
  138.8320   66.9410  222.1160 C   0  0  0  0  0  0  0  0  0  0  0  0
  138.2890   66.2560  221.0420 C   0  0  0  0  0  0  0  0  0  0  0  0
  136.9680   66.4510  220.7170 C   0  0  0  0  0  0  0  0  0  0  0  0
  136.2540   67.3230  221.4840 C   0  0  0  0  0  0  0  0  0  0  0  0
  136.7190   68.0320  222.5520 C   0  0  0  0  0  0  0  0  0  0  0  0
  135.8130   68.8870  223.2680 C   0  0  0  0  0  0  0  0  0  0  0  0
  134.7880   69.4420  222.8070 O   0  0  0  0  0  0  0  0  0  0  0  0
  136.0140   69.1990  224.6910 N   0  0  0  0  0  0  0  0  0  0  0  0
  134.9900   70.0880  225.1860 C   0  0  0  0  0  0  0  0  0  0  0  0
  133.9510   69.6150  225.9500 C   0  0  0  0  0  0  0  0  0  0  0  0
  132.9520   70.4270  226.4340 C   0  0  0  0  0  0  0  0  0  0  0  0
  133.0150   71.7590  226.1310 C   0  0  0  0  0  0  0  0  0  0  0  0
  134.0340   72.3240  225.3630 C   0  0  0  0  0  0  0  0  0  0  0  0
  134.9900   71.4350  224.9190 C   0  0  0  0  0  0  0  0  0  0  0  0
  138.8260   68.0360  225.1400 N   0  0  0  0  0  0  0  0  0  0  0  0
  141.2565   71.6770  229.4069 H   0  0  0  0  0  0  0  0  0  0  0  0
  142.4698   71.8771  228.0975 H   0  0  0  0  0  0  0  0  0  0  0  0
  140.9756   72.8741  228.0975 H   0  0  0  0  0  0  0  0  0  0  0  0
  140.6253   69.4303  229.1568 H   0  0  0  0  0  0  0  0  0  0  0  0
  139.5103   67.6489  227.8675 H   0  0  0  0  0  0  0  0  0  0  0  0
  140.6037   72.0079  225.7137 H   0  0  0  0  0  0  0  0  0  0  0  0
  138.4723   70.7021  223.8239 H   0  0  0  0  0  0  0  0  0  0  0  0
  140.0395   70.1202  223.2917 H   0  0  0  0  0  0  0  0  0  0  0  0
  139.8892   66.7831  222.3756 H   0  0  0  0  0  0  0  0  0  0  0  0
  138.9089   65.5626  220.4548 H   0  0  0  0  0  0  0  0  0  0  0  0
  136.5045   65.9236  219.8703 H   0  0  0  0  0  0  0  0  0  0  0  0
  135.1976   67.4693  221.2145 H   0  0  0  0  0  0  0  0  0  0  0  0
  136.7890   68.8320  225.2270 H   0  0  0  0  0  0  0  0  0  0  0  0
  133.9165   68.5409  226.1847 H   0  0  0  0  0  0  0  0  0  0  0  0
  132.1316   70.0195  227.0431 H   0  0  0  0  0  0  0  0  0  0  0  0
  132.2218   72.4189  226.5122 H   0  0  0  0  0  0  0  0  0  0  0  0
  134.0718   73.3982  225.1293 H   0  0  0  0  0  0  0  0  0  0  0  0
  135.8122   71.8337  224.3066 H   0  0  0  0  0  0  0  0  0  0  0  0
  1  2  1  0
  2  3  2  0
  3  4  1  0
  4  5  2  0
  5  6  1  0
  6  7  2  0
  6  8  1  0
  8  9  1  0
  9 10  1  0
 10 11  2  0
 11 12  1  0
 12 13  2  0
 13 14  1  0
 14 15  2  0
 15 16  1  0
 16 17  2  0
 16 18  1  0
 18 19  1  0
 19 20  2  0
 20 21  1  0
 21 22  2  0
 22 23  1  0
 23 24  2  0
  9 25  2  0
  7  2  1  0
 15 10  1  0
 24 19  1  0
 25  5  1  0
  1 26  1  0
  1 27  1  0
  1 28  1  0
  3 29  1  0
  4 30  1  0
  7 31  1  0
  8 32  1  0
  8 33  1  0
 11 34  1  0
 12 35  1  0
 13 36  1  0
 14 37  1  0
 18 38  1  0
 20 39  1  0
 21 40  1  0
 22 41  1  0
 23 42  1  0
 24 43  1  0
M  END
>  <smiles>  (6) 
Cc1ccc2c(c1)CC(c1ccccc1C(=O)Nc1ccccc1)=N2

>  <score_type>  (6) 
oracle

>  <origin>  (6) 
autodockgpu

>  <m_score__min__energy>  (6) 
-7.04

>  <m_primary>  (6) 
energy

>  <meeko>  (6) 
{"free_energy": -7.03, "intermolecular_energy": -7.92, "internal_energy": -1.81, "cluster_size": 13, "cluster_id": 1, "rank_in_cluster": 8}

>  <energy>  (6) 
-7.03

>  <cluster_rmsd>  (6) 
0.06

>  <rmsd>  (6) 
270.13

>  <cluster>  (6) 
1

$$$$

     RDKit          3D

 43 46  0  0  0  0  0  0  0  0999 V2000
  145.6180   73.2120  219.8780 C   0  0  0  0  0  0  0  0  0  0  0  0
  144.3240   73.8860  220.0810 C   0  0  0  0  0  0  0  0  0  0  0  0
  144.0750   75.1570  219.5390 C   0  0  0  0  0  0  0  0  0  0  0  0
  142.9030   75.8320  219.7160 C   0  0  0  0  0  0  0  0  0  0  0  0
  141.9270   75.1910  220.4760 C   0  0  0  0  0  0  0  0  0  0  0  0
  142.0780   73.9600  221.0340 C   0  0  0  0  0  0  0  0  0  0  0  0
  143.2860   73.3110  220.8310 C   0  0  0  0  0  0  0  0  0  0  0  0
  140.8050   73.6380  221.7580 C   0  0  0  0  0  0  0  0  0  0  0  0
  139.9680   74.8290  221.5330 C   0  0  0  0  0  0  0  0  0  0  0  0
  138.6160   75.1730  221.9740 C   0  0  0  0  0  0  0  0  0  0  0  0
  137.5920   74.2080  221.9130 C   0  0  0  0  0  0  0  0  0  0  0  0
  136.2890   74.5140  222.2660 C   0  0  0  0  0  0  0  0  0  0  0  0
  135.9860   75.7860  222.6880 C   0  0  0  0  0  0  0  0  0  0  0  0
  137.0040   76.6920  222.7350 C   0  0  0  0  0  0  0  0  0  0  0  0
  138.3060   76.4650  222.4030 C   0  0  0  0  0  0  0  0  0  0  0  0
  139.2570   77.5340  222.5440 C   0  0  0  0  0  0  0  0  0  0  0  0
  139.0110   78.7630  222.5030 O   0  0  0  0  0  0  0  0  0  0  0  0
  140.6850   77.2670  222.7700 N   0  0  0  0  0  0  0  0  0  0  0  0
  141.4430   78.4920  222.8610 C   0  0  0  0  0  0  0  0  0  0  0  0
  141.8080   79.0100  224.0810 C   0  0  0  0  0  0  0  0  0  0  0  0
  142.5220   80.1770  224.2110 C   0  0  0  0  0  0  0  0  0  0  0  0
  142.8760   80.8340  223.0660 C   0  0  0  0  0  0  0  0  0  0  0  0
  142.5500   80.3800  221.7870 C   0  0  0  0  0  0  0  0  0  0  0  0
  141.8310   79.2040  221.7540 C   0  0  0  0  0  0  0  0  0  0  0  0
  140.6430   75.6690  220.8060 N   0  0  0  0  0  0  0  0  0  0  0  0
  146.0668   72.9782  220.8547 H   0  0  0  0  0  0  0  0  0  0  0  0
  145.4618   72.2807  219.3139 H   0  0  0  0  0  0  0  0  0  0  0  0
  146.2916   73.8738  219.3139 H   0  0  0  0  0  0  0  0  0  0  0  0
  144.8659   75.6330  218.9407 H   0  0  0  0  0  0  0  0  0  0  0  0
  142.7373   76.8291  219.2819 H   0  0  0  0  0  0  0  0  0  0  0  0
  143.4359   72.3142  221.2714 H   0  0  0  0  0  0  0  0  0  0  0  0
  140.3304   72.7392  221.3373 H   0  0  0  0  0  0  0  0  0  0  0  0
  140.9629   73.4218  222.8249 H   0  0  0  0  0  0  0  0  0  0  0  0
  137.8330   73.1885  221.5774 H   0  0  0  0  0  0  0  0  0  0  0  0
  135.5035   73.7460  222.2092 H   0  0  0  0  0  0  0  0  0  0  0  0
  134.9614   76.0629  222.9769 H   0  0  0  0  0  0  0  0  0  0  0  0
  136.7489   77.7067  223.0746 H   0  0  0  0  0  0  0  0  0  0  0  0
  141.0620   76.3310  222.8370 H   0  0  0  0  0  0  0  0  0  0  0  0
  141.5161   78.4672  224.9921 H   0  0  0  0  0  0  0  0  0  0  0  0
  142.7987   80.5683  225.2011 H   0  0  0  0  0  0  0  0  0  0  0  0
  143.4477   81.7694  223.1572 H   0  0  0  0  0  0  0  0  0  0  0  0
  142.8444   80.9194  220.8747 H   0  0  0  0  0  0  0  0  0  0  0  0
  141.5476   78.8074  220.7679 H   0  0  0  0  0  0  0  0  0  0  0  0
  1  2  1  0
  2  3  2  0
  3  4  1  0
  4  5  2  0
  5  6  1  0
  6  7  2  0
  6  8  1  0
  8  9  1  0
  9 10  1  0
 10 11  2  0
 11 12  1  0
 12 13  2  0
 13 14  1  0
 14 15  2  0
 15 16  1  0
 16 17  2  0
 16 18  1  0
 18 19  1  0
 19 20  2  0
 20 21  1  0
 21 22  2  0
 22 23  1  0
 23 24  2  0
  9 25  2  0
  7  2  1  0
 15 10  1  0
 24 19  1  0
 25  5  1  0
  1 26  1  0
  1 27  1  0
  1 28  1  0
  3 29  1  0
  4 30  1  0
  7 31  1  0
  8 32  1  0
  8 33  1  0
 11 34  1  0
 12 35  1  0
 13 36  1  0
 14 37  1  0
 18 38  1  0
 20 39  1  0
 21 40  1  0
 22 41  1  0
 23 42  1  0
 24 43  1  0
M  END
>  <smiles>  (7) 
Cc1ccc2c(c1)CC(c1ccccc1C(=O)Nc1ccccc1)=N2

>  <score_type>  (7) 
oracle

>  <origin>  (7) 
autodockgpu

>  <m_score__min__energy>  (7) 
-7.04

>  <m_primary>  (7) 
energy

>  <meeko>  (7) 
{"free_energy": -6.95, "intermolecular_energy": -7.85, "internal_energy": -1.6, "cluster_size": 7, "cluster_id": 2, "rank_in_cluster": 6}

>  <energy>  (7) 
-7.03

>  <cluster_rmsd>  (7) 
0.08

>  <rmsd>  (7) 
270.16

>  <cluster>  (7) 
1

$$$$

     RDKit          3D

 43 46  0  0  0  0  0  0  0  0999 V2000
  141.3970   71.8730  228.3430 C   0  0  0  0  0  0  0  0  0  0  0  0
  140.7080   70.8450  227.5440 C   0  0  0  0  0  0  0  0  0  0  0  0
  140.3730   69.6000  228.0980 C   0  0  0  0  0  0  0  0  0  0  0  0
  139.7550   68.6080  227.3960 C   0  0  0  0  0  0  0  0  0  0  0  0
  139.4530   68.8850  226.0640 C   0  0  0  0  0  0  0  0  0  0  0  0
  139.7350   70.0640  225.4470 C   0  0  0  0  0  0  0  0  0  0  0  0
  140.3670   71.0440  226.1960 C   0  0  0  0  0  0  0  0  0  0  0  0
  139.2480   69.9550  224.0330 C   0  0  0  0  0  0  0  0  0  0  0  0
  138.6860   68.5950  223.9630 C   0  0  0  0  0  0  0  0  0  0  0  0
  138.0600   67.8480  222.8720 C   0  0  0  0  0  0  0  0  0  0  0  0
  138.8320   66.9640  222.0950 C   0  0  0  0  0  0  0  0  0  0  0  0
  138.2890   66.2850  221.0180 C   0  0  0  0  0  0  0  0  0  0  0  0
  136.9660   66.4750  220.7000 C   0  0  0  0  0  0  0  0  0  0  0  0
  136.2510   67.3370  221.4770 C   0  0  0  0  0  0  0  0  0  0  0  0
  136.7160   68.0400  222.5480 C   0  0  0  0  0  0  0  0  0  0  0  0
  135.8080   68.8850  223.2740 C   0  0  0  0  0  0  0  0  0  0  0  0
  134.7770   69.4350  222.8220 O   0  0  0  0  0  0  0  0  0  0  0  0
  136.0150   69.1900  224.6970 N   0  0  0  0  0  0  0  0  0  0  0  0
  134.9880   70.0690  225.2040 C   0  0  0  0  0  0  0  0  0  0  0  0
  133.9520   69.5830  225.9650 C   0  0  0  0  0  0  0  0  0  0  0  0
  132.9510   70.3850  226.4590 C   0  0  0  0  0  0  0  0  0  0  0  0
  133.0070   71.7200  226.1700 C   0  0  0  0  0  0  0  0  0  0  0  0
  134.0230   72.2990  225.4070 C   0  0  0  0  0  0  0  0  0  0  0  0
  134.9820   71.4180  224.9520 C   0  0  0  0  0  0  0  0  0  0  0  0
  138.8240   68.0390  225.1300 N   0  0  0  0  0  0  0  0  0  0  0  0
  141.2553   71.6616  229.4132 H   0  0  0  0  0  0  0  0  0  0  0  0
  142.4712   71.8625  228.1062 H   0  0  0  0  0  0  0  0  0  0  0  0
  140.9790   72.8626  228.1062 H   0  0  0  0  0  0  0  0  0  0  0  0
  140.6219   69.4148  229.1534 H   0  0  0  0  0  0  0  0  0  0  0  0
  139.5078   67.6402  227.8566 H   0  0  0  0  0  0  0  0  0  0  0  0
  140.6087   72.0061  225.7207 H   0  0  0  0  0  0  0  0  0  0  0  0
  138.4758   70.7101  223.8245 H   0  0  0  0  0  0  0  0  0  0  0  0
  140.0435   70.1270  223.2929 H   0  0  0  0  0  0  0  0  0  0  0  0
  139.8909   66.8092  222.3495 H   0  0  0  0  0  0  0  0  0  0  0  0
  138.9106   65.6001  220.4226 H   0  0  0  0  0  0  0  0  0  0  0  0
  136.5017   65.9517  219.8511 H   0  0  0  0  0  0  0  0  0  0  0  0
  135.1927   67.4795  221.2132 H   0  0  0  0  0  0  0  0  0  0  0  0
  136.7960   68.8240  225.2270 H   0  0  0  0  0  0  0  0  0  0  0  0
  133.9226   68.5063  226.1883 H   0  0  0  0  0  0  0  0  0  0  0  0
  132.1338   69.9674  227.0654 H   0  0  0  0  0  0  0  0  0  0  0  0
  132.2106   72.3717  226.5586 H   0  0  0  0  0  0  0  0  0  0  0  0
  134.0561   73.3760  225.1855 H   0  0  0  0  0  0  0  0  0  0  0  0
  135.8017   71.8266  224.3427 H   0  0  0  0  0  0  0  0  0  0  0  0
  1  2  1  0
  2  3  2  0
  3  4  1  0
  4  5  2  0
  5  6  1  0
  6  7  2  0
  6  8  1  0
  8  9  1  0
  9 10  1  0
 10 11  2  0
 11 12  1  0
 12 13  2  0
 13 14  1  0
 14 15  2  0
 15 16  1  0
 16 17  2  0
 16 18  1  0
 18 19  1  0
 19 20  2  0
 20 21  1  0
 21 22  2  0
 22 23  1  0
 23 24  2  0
  9 25  2  0
  7  2  1  0
 15 10  1  0
 24 19  1  0
 25  5  1  0
  1 26  1  0
  1 27  1  0
  1 28  1  0
  3 29  1  0
  4 30  1  0
  7 31  1  0
  8 32  1  0
  8 33  1  0
 11 34  1  0
 12 35  1  0
 13 36  1  0
 14 37  1  0
 18 38  1  0
 20 39  1  0
 21 40  1  0
 22 41  1  0
 23 42  1  0
 24 43  1  0
M  END
>  <smiles>  (8) 
Cc1ccc2c(c1)CC(c1ccccc1C(=O)Nc1ccccc1)=N2

>  <score_type>  (8) 
oracle

>  <origin>  (8) 
autodockgpu

>  <m_score__min__energy>  (8) 
-7.04

>  <m_primary>  (8) 
energy

>  <meeko>  (8) 
{"free_energy": -7.03, "intermolecular_energy": -7.92, "internal_energy": -1.81, "cluster_size": 13, "cluster_id": 1, "rank_in_cluster": 9}

>  <energy>  (8) 
-7.03

>  <cluster_rmsd>  (8) 
0.07

>  <rmsd>  (8) 
270.13

>  <cluster>  (8) 
1

$$$$

     RDKit          3D

 43 46  0  0  0  0  0  0  0  0999 V2000
  145.6060   73.2110  219.8800 C   0  0  0  0  0  0  0  0  0  0  0  0
  144.3130   73.8880  220.0830 C   0  0  0  0  0  0  0  0  0  0  0  0
  144.0680   75.1600  219.5430 C   0  0  0  0  0  0  0  0  0  0  0  0
  142.8980   75.8380  219.7200 C   0  0  0  0  0  0  0  0  0  0  0  0
  141.9200   75.1990  220.4800 C   0  0  0  0  0  0  0  0  0  0  0  0
  142.0680   73.9670  221.0350 C   0  0  0  0  0  0  0  0  0  0  0  0
  143.2740   73.3150  220.8330 C   0  0  0  0  0  0  0  0  0  0  0  0
  140.7940   73.6480  221.7590 C   0  0  0  0  0  0  0  0  0  0  0  0
  139.9590   74.8420  221.5350 C   0  0  0  0  0  0  0  0  0  0  0  0
  138.6080   75.1890  221.9760 C   0  0  0  0  0  0  0  0  0  0  0  0
  137.5830   74.2260  221.9150 C   0  0  0  0  0  0  0  0  0  0  0  0
  136.2800   74.5350  222.2680 C   0  0  0  0  0  0  0  0  0  0  0  0
  135.9800   75.8080  222.6890 C   0  0  0  0  0  0  0  0  0  0  0  0
  137.0000   76.7110  222.7370 C   0  0  0  0  0  0  0  0  0  0  0  0
  138.3020   76.4810  222.4040 C   0  0  0  0  0  0  0  0  0  0  0  0
  139.2550   77.5480  222.5450 C   0  0  0  0  0  0  0  0  0  0  0  0
  139.0110   78.7770  222.5030 O   0  0  0  0  0  0  0  0  0  0  0  0
  140.6820   77.2770  222.7720 N   0  0  0  0  0  0  0  0  0  0  0  0
  141.4430   78.5010  222.8640 C   0  0  0  0  0  0  0  0  0  0  0  0
  141.8270   79.0070  224.0820 C   0  0  0  0  0  0  0  0  0  0  0  0
  142.5450   80.1720  224.2120 C   0  0  0  0  0  0  0  0  0  0  0  0
  142.8820   80.8400  223.0680 C   0  0  0  0  0  0  0  0  0  0  0  0
  142.5360   80.3970  221.7900 C   0  0  0  0  0  0  0  0  0  0  0  0
  141.8150   79.2230  221.7570 C   0  0  0  0  0  0  0  0  0  0  0  0
  140.6380   75.6800  220.8090 N   0  0  0  0  0  0  0  0  0  0  0  0
  146.0543   72.9763  220.8567 H   0  0  0  0  0  0  0  0  0  0  0  0
  145.4479   72.2800  219.3159 H   0  0  0  0  0  0  0  0  0  0  0  0
  146.2811   73.8713  219.3159 H   0  0  0  0  0  0  0  0  0  0  0  0
  144.8607   75.6347  218.9461 H   0  0  0  0  0  0  0  0  0  0  0  0
  142.7350   76.8356  219.2862 H   0  0  0  0  0  0  0  0  0  0  0  0
  143.4216   72.3181  221.2738 H   0  0  0  0  0  0  0  0  0  0  0  0
  140.3171   72.7507  221.3378 H   0  0  0  0  0  0  0  0  0  0  0  0
  140.9517   73.4310  222.8258 H   0  0  0  0  0  0  0  0  0  0  0  0
  137.8222   73.2060  221.5797 H   0  0  0  0  0  0  0  0  0  0  0  0
  135.4928   73.7687  222.2119 H   0  0  0  0  0  0  0  0  0  0  0  0
  134.9557   76.0878  222.9764 H   0  0  0  0  0  0  0  0  0  0  0  0
  136.7477   77.7258  223.0782 H   0  0  0  0  0  0  0  0  0  0  0  0
  141.0570   76.3400  222.8410 H   0  0  0  0  0  0  0  0  0  0  0  0
  141.5480   78.4563  224.9924 H   0  0  0  0  0  0  0  0  0  0  0  0
  142.8379   80.5531  225.2014 H   0  0  0  0  0  0  0  0  0  0  0  0
  143.4552   81.7744  223.1590 H   0  0  0  0  0  0  0  0  0  0  0  0
  142.8177   80.9439  220.8781 H   0  0  0  0  0  0  0  0  0  0  0  0
  141.5157   78.8361  220.7718 H   0  0  0  0  0  0  0  0  0  0  0  0
  1  2  1  0
  2  3  2  0
  3  4  1  0
  4  5  2  0
  5  6  1  0
  6  7  2  0
  6  8  1  0
  8  9  1  0
  9 10  1  0
 10 11  2  0
 11 12  1  0
 12 13  2  0
 13 14  1  0
 14 15  2  0
 15 16  1  0
 16 17  2  0
 16 18  1  0
 18 19  1  0
 19 20  2  0
 20 21  1  0
 21 22  2  0
 22 23  1  0
 23 24  2  0
  9 25  2  0
  7  2  1  0
 15 10  1  0
 24 19  1  0
 25  5  1  0
  1 26  1  0
  1 27  1  0
  1 28  1  0
  3 29  1  0
  4 30  1  0
  7 31  1  0
  8 32  1  0
  8 33  1  0
 11 34  1  0
 12 35  1  0
 13 36  1  0
 14 37  1  0
 18 38  1  0
 20 39  1  0
 21 40  1  0
 22 41  1  0
 23 42  1  0
 24 43  1  0
M  END
>  <smiles>  (9) 
Cc1ccc2c(c1)CC(c1ccccc1C(=O)Nc1ccccc1)=N2

>  <score_type>  (9) 
oracle

>  <origin>  (9) 
autodockgpu

>  <m_score__min__energy>  (9) 
-7.04

>  <m_primary>  (9) 
energy

>  <meeko>  (9) 
{"free_energy": -6.96, "intermolecular_energy": -7.85, "internal_energy": -1.6, "cluster_size": 7, "cluster_id": 2, "rank_in_cluster": 3}

>  <energy>  (9) 
-7.03

>  <cluster_rmsd>  (9) 
0.07

>  <rmsd>  (9) 
270.13

>  <cluster>  (9) 
1

$$$$

     RDKit          3D

 43 46  0  0  0  0  0  0  0  0999 V2000
  141.4650   71.8920  228.3170 C   0  0  0  0  0  0  0  0  0  0  0  0
  140.7590   70.8670  227.5290 C   0  0  0  0  0  0  0  0  0  0  0  0
  140.3960   69.6370  228.0990 C   0  0  0  0  0  0  0  0  0  0  0  0
  139.7610   68.6480  227.4080 C   0  0  0  0  0  0  0  0  0  0  0  0
  139.4720   68.9130  226.0700 C   0  0  0  0  0  0  0  0  0  0  0  0
  139.7820   70.0760  225.4380 C   0  0  0  0  0  0  0  0  0  0  0  0
  140.4290   71.0530  226.1770 C   0  0  0  0  0  0  0  0  0  0  0  0
  139.3000   69.9570  224.0230 C   0  0  0  0  0  0  0  0  0  0  0  0
  138.7100   68.6080  223.9700 C   0  0  0  0  0  0  0  0  0  0  0  0
  138.0750   67.8590  222.8850 C   0  0  0  0  0  0  0  0  0  0  0  0
  138.8320   66.9450  222.1270 C   0  0  0  0  0  0  0  0  0  0  0  0
  138.2810   66.2620  221.0570 C   0  0  0  0  0  0  0  0  0  0  0  0
  136.9640   66.4780  220.7270 C   0  0  0  0  0  0  0  0  0  0  0  0
  136.2640   67.3670  221.4850 C   0  0  0  0  0  0  0  0  0  0  0  0
  136.7380   68.0760  222.5490 C   0  0  0  0  0  0  0  0  0  0  0  0
  135.8450   68.9520  223.2560 C   0  0  0  0  0  0  0  0  0  0  0  0
  134.8350   69.5270  222.7850 O   0  0  0  0  0  0  0  0  0  0  0  0
  136.0410   69.2630  224.6790 N   0  0  0  0  0  0  0  0  0  0  0  0
  135.0320   70.1750  225.1650 C   0  0  0  0  0  0  0  0  0  0  0  0
  135.0810   71.5140  224.8590 C   0  0  0  0  0  0  0  0  0  0  0  0
  134.1450   72.4150  225.3070 C   0  0  0  0  0  0  0  0  0  0  0  0
  133.1290   71.9380  226.0880 C   0  0  0  0  0  0  0  0  0  0  0  0
  133.0010   70.5950  226.4460 C   0  0  0  0  0  0  0  0  0  0  0  0
  133.9860   69.7660  225.9530 C   0  0  0  0  0  0  0  0  0  0  0  0
  138.8310   68.0660  225.1450 N   0  0  0  0  0  0  0  0  0  0  0  0
  141.3260   71.6902  229.3894 H   0  0  0  0  0  0  0  0  0  0  0  0
  142.5377   71.8661  228.0750 H   0  0  0  0  0  0  0  0  0  0  0  0
  141.0584   72.8850  228.0750 H   0  0  0  0  0  0  0  0  0  0  0  0
  140.6362   69.4618  229.1581 H   0  0  0  0  0  0  0  0  0  0  0  0
  139.4911   67.6922  227.8808 H   0  0  0  0  0  0  0  0  0  0  0  0
  140.6922   72.0034  225.6897 H   0  0  0  0  0  0  0  0  0  0  0  0
  138.5448   70.7250  223.7995 H   0  0  0  0  0  0  0  0  0  0  0  0
  140.1024   70.1018  223.2846 H   0  0  0  0  0  0  0  0  0  0  0  0
  139.8853   66.7700  222.3915 H   0  0  0  0  0  0  0  0  0  0  0  0
  138.8904   65.5537  220.4766 H   0  0  0  0  0  0  0  0  0  0  0  0
  136.4935   65.9527  219.8828 H   0  0  0  0  0  0  0  0  0  0  0  0
  135.2110   67.5293  221.2116 H   0  0  0  0  0  0  0  0  0  0  0  0
  136.8040   68.8800  225.2230 H   0  0  0  0  0  0  0  0  0  0  0  0
  135.9046   71.8802  224.2285 H   0  0  0  0  0  0  0  0  0  0  0  0
  134.2108   73.4817  225.0467 H   0  0  0  0  0  0  0  0  0  0  0  0
  132.3735   72.6494  226.4530 H   0  0  0  0  0  0  0  0  0  0  0  0
  132.1767   70.2260  227.0739 H   0  0  0  0  0  0  0  0  0  0  0  0
  133.9291   68.6980  226.2103 H   0  0  0  0  0  0  0  0  0  0  0  0
  1  2  1  0
  2  3  2  0
  3  4  1  0
  4  5  2  0
  5  6  1  0
  6  7  2  0
  6  8  1  0
  8  9  1  0
  9 10  1  0
 10 11  2  0
 11 12  1  0
 12 13  2  0
 13 14  1  0
 14 15  2  0
 15 16  1  0
 16 17  2  0
 16 18  1  0
 18 19  1  0
 19 20  2  0
 20 21  1  0
 21 22  2  0
 22 23  1  0
 23 24  2  0
  9 25  2  0
  7  2  1  0
 15 10  1  0
 24 19  1  0
 25  5  1  0
  1 26  1  0
  1 27  1  0
  1 28  1  0
  3 29  1  0
  4 30  1  0
  7 31  1  0
  8 32  1  0
  8 33  1  0
 11 34  1  0
 12 35  1  0
 13 36  1  0
 14 37  1  0
 18 38  1  0
 20 39  1  0
 21 40  1  0
 22 41  1  0
 23 42  1  0
 24 43  1  0
M  END
>  <smiles>  (10) 
Cc1ccc2c(c1)CC(c1ccccc1C(=O)Nc1ccccc1)=N2

>  <score_type>  (10) 
oracle

>  <origin>  (10) 
autodockgpu

>  <m_score__min__energy>  (10) 
-7.04

>  <m_primary>  (10) 
energy

>  <meeko>  (10) 
{"free_energy": -7.03, "intermolecular_energy": -7.92, "internal_energy": -1.81, "cluster_size": 13, "cluster_id": 1, "rank_in_cluster": 7}

>  <energy>  (10) 
-7.03

>  <cluster_rmsd>  (10) 
0.06

>  <rmsd>  (10) 
270.15

>  <cluster>  (10) 
1

$$$$

     RDKit          3D

 43 46  0  0  0  0  0  0  0  0999 V2000
  141.4660   71.8860  228.3320 C   0  0  0  0  0  0  0  0  0  0  0  0
  140.7690   70.8610  227.5360 C   0  0  0  0  0  0  0  0  0  0  0  0
  140.4230   69.6210  228.0940 C   0  0  0  0  0  0  0  0  0  0  0  0
  139.7970   68.6310  227.3950 C   0  0  0  0  0  0  0  0  0  0  0  0
  139.5000   68.9060  226.0610 C   0  0  0  0  0  0  0  0  0  0  0  0
  139.7920   70.0800  225.4400 C   0  0  0  0  0  0  0  0  0  0  0  0
  140.4310   71.0570  226.1870 C   0  0  0  0  0  0  0  0  0  0  0  0
  139.3050   69.9700  224.0260 C   0  0  0  0  0  0  0  0  0  0  0  0
  138.7320   68.6140  223.9610 C   0  0  0  0  0  0  0  0  0  0  0  0
  138.1020   67.8690  222.8720 C   0  0  0  0  0  0  0  0  0  0  0  0
  138.8690   66.9800  222.0940 C   0  0  0  0  0  0  0  0  0  0  0  0
  138.3210   66.3020  221.0190 C   0  0  0  0  0  0  0  0  0  0  0  0
  136.9980   66.4980  220.7030 C   0  0  0  0  0  0  0  0  0  0  0  0
  136.2880   67.3640  221.4800 C   0  0  0  0  0  0  0  0  0  0  0  0
  136.7580   68.0660  222.5490 C   0  0  0  0  0  0  0  0  0  0  0  0
  135.8550   68.9150  223.2760 C   0  0  0  0  0  0  0  0  0  0  0  0
  134.8280   69.4740  222.8230 O   0  0  0  0  0  0  0  0  0  0  0  0
  136.0620   69.2160  224.7000 N   0  0  0  0  0  0  0  0  0  0  0  0
  135.0390   70.1010  225.2070 C   0  0  0  0  0  0  0  0  0  0  0  0
  134.0020   69.6220  225.9690 C   0  0  0  0  0  0  0  0  0  0  0  0
  133.0050   70.4290  226.4630 C   0  0  0  0  0  0  0  0  0  0  0  0
  133.0690   71.7640  226.1740 C   0  0  0  0  0  0  0  0  0  0  0  0
  134.0870   72.3360  225.4090 C   0  0  0  0  0  0  0  0  0  0  0  0
  135.0410   71.4500  224.9540 C   0  0  0  0  0  0  0  0  0  0  0  0
  138.8650   68.0620  225.1300 N   0  0  0  0  0  0  0  0  0  0  0  0
  141.3244   71.6777  229.4028 H   0  0  0  0  0  0  0  0  0  0  0  0
  142.5398   71.8678  228.0938 H   0  0  0  0  0  0  0  0  0  0  0  0
  141.0544   72.8779  228.0938 H   0  0  0  0  0  0  0  0  0  0  0  0
  140.6694   69.4377  229.1502 H   0  0  0  0  0  0  0  0  0  0  0  0
  139.5403   67.6673  227.8591 H   0  0  0  0  0  0  0  0  0  0  0  0
  140.6811   72.0154  225.7086 H   0  0  0  0  0  0  0  0  0  0  0  0
  138.5390   70.7305  223.8142 H   0  0  0  0  0  0  0  0  0  0  0  0
  140.1021   70.1330  223.2857 H   0  0  0  0  0  0  0  0  0  0  0  0
  139.9277   66.8209  222.3465 H   0  0  0  0  0  0  0  0  0  0  0  0
  138.9382   65.6132  220.4235 H   0  0  0  0  0  0  0  0  0  0  0  0
  136.5299   65.9760  219.8554 H   0  0  0  0  0  0  0  0  0  0  0  0
  135.2298   67.5108  221.2178 H   0  0  0  0  0  0  0  0  0  0  0  0
  136.8390   68.8440  225.2310 H   0  0  0  0  0  0  0  0  0  0  0  0
  133.9676   68.5458  226.1938 H   0  0  0  0  0  0  0  0  0  0  0  0
  132.1852   70.0158  227.0690 H   0  0  0  0  0  0  0  0  0  0  0  0
  132.2777   72.4209  226.5643 H   0  0  0  0  0  0  0  0  0  0  0  0
  134.1254   73.4124  225.1859 H   0  0  0  0  0  0  0  0  0  0  0  0
  135.8628   71.8536  224.3443 H   0  0  0  0  0  0  0  0  0  0  0  0
  1  2  1  0
  2  3  2  0
  3  4  1  0
  4  5  2  0
  5  6  1  0
  6  7  2  0
  6  8  1  0
  8  9  1  0
  9 10  1  0
 10 11  2  0
 11 12  1  0
 12 13  2  0
 13 14  1  0
 14 15  2  0
 15 16  1  0
 16 17  2  0
 16 18  1  0
 18 19  1  0
 19 20  2  0
 20 21  1  0
 21 22  2  0
 22 23  1  0
 23 24  2  0
  9 25  2  0
  7  2  1  0
 15 10  1  0
 24 19  1  0
 25  5  1  0
  1 26  1  0
  1 27  1  0
  1 28  1  0
  3 29  1  0
  4 30  1  0
  7 31  1  0
  8 32  1  0
  8 33  1  0
 11 34  1  0
 12 35  1  0
 13 36  1  0
 14 37  1  0
 18 38  1  0
 20 39  1  0
 21 40  1  0
 22 41  1  0
 23 42  1  0
 24 43  1  0
M  END
>  <smiles>  (11) 
Cc1ccc2c(c1)CC(c1ccccc1C(=O)Nc1ccccc1)=N2

>  <score_type>  (11) 
oracle

>  <origin>  (11) 
autodockgpu

>  <m_score__min__energy>  (11) 
-7.04

>  <m_primary>  (11) 
energy

>  <meeko>  (11) 
{"free_energy": -7.04, "intermolecular_energy": -7.93, "internal_energy": -1.82, "cluster_size": 13, "cluster_id": 1, "rank_in_cluster": 2}

>  <energy>  (11) 
-7.02

>  <cluster_rmsd>  (11) 
0.06

>  <rmsd>  (11) 
270.14

>  <cluster>  (11) 
1

$$$$

     RDKit          3D

 43 46  0  0  0  0  0  0  0  0999 V2000
  141.4660   71.8850  228.3430 C   0  0  0  0  0  0  0  0  0  0  0  0
  140.7730   70.8590  227.5460 C   0  0  0  0  0  0  0  0  0  0  0  0
  140.4310   69.6160  228.1040 C   0  0  0  0  0  0  0  0  0  0  0  0
  139.8080   68.6250  227.4040 C   0  0  0  0  0  0  0  0  0  0  0  0
  139.5100   68.9010  226.0700 C   0  0  0  0  0  0  0  0  0  0  0  0
  139.7980   70.0760  225.4510 C   0  0  0  0  0  0  0  0  0  0  0  0
  140.4340   71.0550  226.1980 C   0  0  0  0  0  0  0  0  0  0  0  0
  139.3120   69.9660  224.0360 C   0  0  0  0  0  0  0  0  0  0  0  0
  138.7430   68.6080  223.9700 C   0  0  0  0  0  0  0  0  0  0  0  0
  138.1150   67.8610  222.8800 C   0  0  0  0  0  0  0  0  0  0  0  0
  138.8840   66.9720  222.1060 C   0  0  0  0  0  0  0  0  0  0  0  0
  138.3380   66.2930  221.0300 C   0  0  0  0  0  0  0  0  0  0  0  0
  137.0160   66.4870  220.7110 C   0  0  0  0  0  0  0  0  0  0  0  0
  136.3040   67.3540  221.4850 C   0  0  0  0  0  0  0  0  0  0  0  0
  136.7720   68.0580  222.5550 C   0  0  0  0  0  0  0  0  0  0  0  0
  135.8670   68.9070  223.2790 C   0  0  0  0  0  0  0  0  0  0  0  0
  134.8320   69.4530  222.8280 O   0  0  0  0  0  0  0  0  0  0  0  0
  136.0810   69.2240  224.6990 N   0  0  0  0  0  0  0  0  0  0  0  0
  135.0550   70.1070  225.2030 C   0  0  0  0  0  0  0  0  0  0  0  0
  134.0110   69.6230  225.9540 C   0  0  0  0  0  0  0  0  0  0  0  0
  133.0110   70.4270  226.4460 C   0  0  0  0  0  0  0  0  0  0  0  0
  133.0780   71.7640  226.1660 C   0  0  0  0  0  0  0  0  0  0  0  0
  134.1030   72.3410  225.4130 C   0  0  0  0  0  0  0  0  0  0  0  0
  135.0590   71.4570  224.9590 C   0  0  0  0  0  0  0  0  0  0  0  0
  138.8780   68.0550  225.1390 N   0  0  0  0  0  0  0  0  0  0  0  0
  141.3244   71.6753  229.4135 H   0  0  0  0  0  0  0  0  0  0  0  0
  142.5399   71.8704  228.1054 H   0  0  0  0  0  0  0  0  0  0  0  0
  141.0514   72.8758  228.1054 H   0  0  0  0  0  0  0  0  0  0  0  0
  140.6784   69.4325  229.1600 H   0  0  0  0  0  0  0  0  0  0  0  0
  139.5543   67.6599  227.8669 H   0  0  0  0  0  0  0  0  0  0  0  0
  140.6806   72.0146  225.7201 H   0  0  0  0  0  0  0  0  0  0  0  0
  138.5439   70.7245  223.8244 H   0  0  0  0  0  0  0  0  0  0  0  0
  140.1088   70.1322  223.2961 H   0  0  0  0  0  0  0  0  0  0  0  0
  139.9421   66.8131  222.3615 H   0  0  0  0  0  0  0  0  0  0  0  0
  138.9571   65.6045  220.4361 H   0  0  0  0  0  0  0  0  0  0  0  0
  136.5500   65.9628  219.8636 H   0  0  0  0  0  0  0  0  0  0  0  0
  135.2465   67.5004  221.2201 H   0  0  0  0  0  0  0  0  0  0  0  0
  136.8650   68.8640  225.2280 H   0  0  0  0  0  0  0  0  0  0  0  0
  133.9741   68.5452  226.1708 H   0  0  0  0  0  0  0  0  0  0  0  0
  132.1866   70.0104  227.0433 H   0  0  0  0  0  0  0  0  0  0  0  0
  132.2836   72.4186  226.5539 H   0  0  0  0  0  0  0  0  0  0  0  0
  134.1445   73.4191  225.1983 H   0  0  0  0  0  0  0  0  0  0  0  0
  135.8851   71.8640  224.3573 H   0  0  0  0  0  0  0  0  0  0  0  0
  1  2  1  0
  2  3  2  0
  3  4  1  0
  4  5  2  0
  5  6  1  0
  6  7  2  0
  6  8  1  0
  8  9  1  0
  9 10  1  0
 10 11  2  0
 11 12  1  0
 12 13  2  0
 13 14  1  0
 14 15  2  0
 15 16  1  0
 16 17  2  0
 16 18  1  0
 18 19  1  0
 19 20  2  0
 20 21  1  0
 21 22  2  0
 22 23  1  0
 23 24  2  0
  9 25  2  0
  7  2  1  0
 15 10  1  0
 24 19  1  0
 25  5  1  0
  1 26  1  0
  1 27  1  0
  1 28  1  0
  3 29  1  0
  4 30  1  0
  7 31  1  0
  8 32  1  0
  8 33  1  0
 11 34  1  0
 12 35  1  0
 13 36  1  0
 14 37  1  0
 18 38  1  0
 20 39  1  0
 21 40  1  0
 22 41  1  0
 23 42  1  0
 24 43  1  0
M  END
>  <smiles>  (12) 
Cc1ccc2c(c1)CC(c1ccccc1C(=O)Nc1ccccc1)=N2

>  <score_type>  (12) 
oracle

>  <origin>  (12) 
autodockgpu

>  <m_score__min__energy>  (12) 
-7.04

>  <m_primary>  (12) 
energy

>  <meeko>  (12) 
{"free_energy": -7.04, "intermolecular_energy": -7.93, "internal_energy": -1.82, "cluster_size": 13, "cluster_id": 1, "rank_in_cluster": 1}

>  <energy>  (12) 
-7.01

>  <cluster_rmsd>  (12) 
0.06

>  <rmsd>  (12) 
270.16

>  <cluster>  (12) 
1

$$$$

     RDKit          3D

 43 46  0  0  0  0  0  0  0  0999 V2000
  141.4580   71.8920  228.3350 C   0  0  0  0  0  0  0  0  0  0  0  0
  140.7660   70.8620  227.5420 C   0  0  0  0  0  0  0  0  0  0  0  0
  140.4190   69.6240  228.1060 C   0  0  0  0  0  0  0  0  0  0  0  0
  139.7980   68.6290  227.4090 C   0  0  0  0  0  0  0  0  0  0  0  0
  139.5060   68.8970  226.0730 C   0  0  0  0  0  0  0  0  0  0  0  0
  139.8000   70.0670  225.4460 C   0  0  0  0  0  0  0  0  0  0  0  0
  140.4340   71.0500  226.1910 C   0  0  0  0  0  0  0  0  0  0  0  0
  139.3210   69.9490  224.0300 C   0  0  0  0  0  0  0  0  0  0  0  0
  138.7500   68.5910  223.9710 C   0  0  0  0  0  0  0  0  0  0  0  0
  138.1250   67.8390  222.8830 C   0  0  0  0  0  0  0  0  0  0  0  0
  138.8980   66.9490  222.1120 C   0  0  0  0  0  0  0  0  0  0  0  0
  138.3560   66.2650  221.0380 C   0  0  0  0  0  0  0  0  0  0  0  0
  137.0330   66.4540  220.7170 C   0  0  0  0  0  0  0  0  0  0  0  0
  136.3180   67.3210  221.4870 C   0  0  0  0  0  0  0  0  0  0  0  0
  136.7820   68.0300  222.5550 C   0  0  0  0  0  0  0  0  0  0  0  0
  135.8730   68.8790  223.2750 C   0  0  0  0  0  0  0  0  0  0  0  0
  134.8510   69.4390  222.8140 O   0  0  0  0  0  0  0  0  0  0  0  0
  136.0690   69.1780  224.7010 N   0  0  0  0  0  0  0  0  0  0  0  0
  135.0430   70.0640  225.2000 C   0  0  0  0  0  0  0  0  0  0  0  0
  133.9920   69.5820  225.9430 C   0  0  0  0  0  0  0  0  0  0  0  0
  132.9920   70.3900  226.4300 C   0  0  0  0  0  0  0  0  0  0  0  0
  133.0650   71.7270  226.1520 C   0  0  0  0  0  0  0  0  0  0  0  0
  134.0970   72.3010  225.4070 C   0  0  0  0  0  0  0  0  0  0  0  0
  135.0530   71.4150  224.9590 C   0  0  0  0  0  0  0  0  0  0  0  0
  138.8770   68.0460  225.1440 N   0  0  0  0  0  0  0  0  0  0  0  0
  141.3188   71.6849  229.4063 H   0  0  0  0  0  0  0  0  0  0  0  0
  142.5315   71.8794  228.0955 H   0  0  0  0  0  0  0  0  0  0  0  0
  141.0405   72.8811  228.0955 H   0  0  0  0  0  0  0  0  0  0  0  0
  140.6603   69.4471  229.1645 H   0  0  0  0  0  0  0  0  0  0  0  0
  139.5416   67.6669  227.8765 H   0  0  0  0  0  0  0  0  0  0  0  0
  140.6844   72.0063  225.7085 H   0  0  0  0  0  0  0  0  0  0  0  0
  138.5552   70.7073  223.8097 H   0  0  0  0  0  0  0  0  0  0  0  0
  140.1213   70.1093  223.2926 H   0  0  0  0  0  0  0  0  0  0  0  0
  139.9562   66.7942  222.3694 H   0  0  0  0  0  0  0  0  0  0  0  0
  138.9780   65.5767  220.4469 H   0  0  0  0  0  0  0  0  0  0  0  0
  136.5694   65.9256  219.8709 H   0  0  0  0  0  0  0  0  0  0  0  0
  135.2603   67.4632  221.2203 H   0  0  0  0  0  0  0  0  0  0  0  0
  136.8410   68.8050  225.2380 H   0  0  0  0  0  0  0  0  0  0  0  0
  133.9491   68.5039  226.1571 H   0  0  0  0  0  0  0  0  0  0  0  0
  132.1627   69.9758  227.0222 H   0  0  0  0  0  0  0  0  0  0  0  0
  132.2700   72.3838  226.5349 H   0  0  0  0  0  0  0  0  0  0  0  0
  134.1435   73.3791  225.1937 H   0  0  0  0  0  0  0  0  0  0  0  0
  135.8851   71.8205  224.3647 H   0  0  0  0  0  0  0  0  0  0  0  0
  1  2  1  0
  2  3  2  0
  3  4  1  0
  4  5  2  0
  5  6  1  0
  6  7  2  0
  6  8  1  0
  8  9  1  0
  9 10  1  0
 10 11  2  0
 11 12  1  0
 12 13  2  0
 13 14  1  0
 14 15  2  0
 15 16  1  0
 16 17  2  0
 16 18  1  0
 18 19  1  0
 19 20  2  0
 20 21  1  0
 21 22  2  0
 22 23  1  0
 23 24  2  0
  9 25  2  0
  7  2  1  0
 15 10  1  0
 24 19  1  0
 25  5  1  0
  1 26  1  0
  1 27  1  0
  1 28  1  0
  3 29  1  0
  4 30  1  0
  7 31  1  0
  8 32  1  0
  8 33  1  0
 11 34  1  0
 12 35  1  0
 13 36  1  0
 14 37  1  0
 18 38  1  0
 20 39  1  0
 21 40  1  0
 22 41  1  0
 23 42  1  0
 24 43  1  0
M  END
>  <smiles>  (13) 
Cc1ccc2c(c1)CC(c1ccccc1C(=O)Nc1ccccc1)=N2

>  <score_type>  (13) 
oracle

>  <origin>  (13) 
autodockgpu

>  <m_score__min__energy>  (13) 
-7.04

>  <m_primary>  (13) 
energy

>  <meeko>  (13) 
{"free_energy": -7.03, "intermolecular_energy": -7.93, "internal_energy": -1.82, "cluster_size": 13, "cluster_id": 1, "rank_in_cluster": 5}

>  <energy>  (13) 
-6.94

>  <cluster_rmsd>  (13) 
0.27

>  <rmsd>  (13) 
270.06

>  <cluster>  (13) 
1

$$$$

     RDKit          3D

 43 46  0  0  0  0  0  0  0  0999 V2000
  145.6030   73.2200  219.8990 C   0  0  0  0  0  0  0  0  0  0  0  0
  144.3110   73.8990  220.0990 C   0  0  0  0  0  0  0  0  0  0  0  0
  144.0700   75.1720  219.5580 C   0  0  0  0  0  0  0  0  0  0  0  0
  142.9000   75.8520  219.7320 C   0  0  0  0  0  0  0  0  0  0  0  0
  141.9190   75.2140  220.4890 C   0  0  0  0  0  0  0  0  0  0  0  0
  142.0630   73.9820  221.0450 C   0  0  0  0  0  0  0  0  0  0  0  0
  143.2690   73.3280  220.8460 C   0  0  0  0  0  0  0  0  0  0  0  0
  140.7870   73.6650  221.7660 C   0  0  0  0  0  0  0  0  0  0  0  0
  139.9550   74.8600  221.5400 C   0  0  0  0  0  0  0  0  0  0  0  0
  138.6040   75.2090  221.9770 C   0  0  0  0  0  0  0  0  0  0  0  0
  137.5770   74.2470  221.9160 C   0  0  0  0  0  0  0  0  0  0  0  0
  136.2740   74.5580  222.2650 C   0  0  0  0  0  0  0  0  0  0  0  0
  135.9750   75.8320  222.6840 C   0  0  0  0  0  0  0  0  0  0  0  0
  136.9950   76.7340  222.7320 C   0  0  0  0  0  0  0  0  0  0  0  0
  138.2980   76.5030  222.4030 C   0  0  0  0  0  0  0  0  0  0  0  0
  139.2510   77.5680  222.5440 C   0  0  0  0  0  0  0  0  0  0  0  0
  139.0090   78.7980  222.5010 O   0  0  0  0  0  0  0  0  0  0  0  0
  140.6780   77.2960  222.7750 N   0  0  0  0  0  0  0  0  0  0  0  0
  141.4400   78.5200  222.8660 C   0  0  0  0  0  0  0  0  0  0  0  0
  141.8240   79.0250  224.0850 C   0  0  0  0  0  0  0  0  0  0  0  0
  142.5430   80.1900  224.2150 C   0  0  0  0  0  0  0  0  0  0  0  0
  142.8810   80.8570  223.0700 C   0  0  0  0  0  0  0  0  0  0  0  0
  142.5350   80.4150  221.7920 C   0  0  0  0  0  0  0  0  0  0  0  0
  141.8130   79.2410  221.7590 C   0  0  0  0  0  0  0  0  0  0  0  0
  140.6370   75.6970  220.8150 N   0  0  0  0  0  0  0  0  0  0  0  0
  146.0492   72.9855  220.8767 H   0  0  0  0  0  0  0  0  0  0  0  0
  145.4444   72.2887  219.3355 H   0  0  0  0  0  0  0  0  0  0  0  0
  146.2801   73.8788  219.3355 H   0  0  0  0  0  0  0  0  0  0  0  0
  144.8652   75.6454  218.9634 H   0  0  0  0  0  0  0  0  0  0  0  0
  142.7396   76.8500  219.2982 H   0  0  0  0  0  0  0  0  0  0  0  0
  143.4137   72.3308  221.2871 H   0  0  0  0  0  0  0  0  0  0  0  0
  140.3096   72.7685  221.3437 H   0  0  0  0  0  0  0  0  0  0  0  0
  140.9418   73.4477  222.8332 H   0  0  0  0  0  0  0  0  0  0  0  0
  137.8156   73.2259  221.5837 H   0  0  0  0  0  0  0  0  0  0  0  0
  135.4858   73.7928  222.2075 H   0  0  0  0  0  0  0  0  0  0  0  0
  134.9507   76.1131  222.9699 H   0  0  0  0  0  0  0  0  0  0  0  0
  136.7422   77.7499  223.0698 H   0  0  0  0  0  0  0  0  0  0  0  0
  141.0520   76.3590  222.8450 H   0  0  0  0  0  0  0  0  0  0  0  0
  141.5445   78.4741  224.9952 H   0  0  0  0  0  0  0  0  0  0  0  0
  142.8357   80.5716  225.2043 H   0  0  0  0  0  0  0  0  0  0  0  0
  143.4555   81.7906  223.1609 H   0  0  0  0  0  0  0  0  0  0  0  0
  142.8171   80.9620  220.8803 H   0  0  0  0  0  0  0  0  0  0  0  0
  141.5140   78.8538  220.7738 H   0  0  0  0  0  0  0  0  0  0  0  0
  1  2  1  0
  2  3  2  0
  3  4  1  0
  4  5  2  0
  5  6  1  0
  6  7  2  0
  6  8  1  0
  8  9  1  0
  9 10  1  0
 10 11  2  0
 11 12  1  0
 12 13  2  0
 13 14  1  0
 14 15  2  0
 15 16  1  0
 16 17  2  0
 16 18  1  0
 18 19  1  0
 19 20  2  0
 20 21  1  0
 21 22  2  0
 22 23  1  0
 23 24  2  0
  9 25  2  0
  7  2  1  0
 15 10  1  0
 24 19  1  0
 25  5  1  0
  1 26  1  0
  1 27  1  0
  1 28  1  0
  3 29  1  0
  4 30  1  0
  7 31  1  0
  8 32  1  0
  8 33  1  0
 11 34  1  0
 12 35  1  0
 13 36  1  0
 14 37  1  0
 18 38  1  0
 20 39  1  0
 21 40  1  0
 22 41  1  0
 23 42  1  0
 24 43  1  0
M  END
>  <smiles>  (14) 
Cc1ccc2c(c1)CC(c1ccccc1C(=O)Nc1ccccc1)=N2

>  <score_type>  (14) 
oracle

>  <origin>  (14) 
autodockgpu

>  <m_score__min__energy>  (14) 
-7.04

>  <m_primary>  (14) 
energy

>  <meeko>  (14) 
{"free_energy": -6.96, "intermolecular_energy": -7.85, "internal_energy": -1.6, "cluster_size": 7, "cluster_id": 2, "rank_in_cluster": 1}

>  <energy>  (14) 
-6.96

>  <cluster_rmsd>  (14) 
0.0

>  <rmsd>  (14) 
271.41

>  <cluster>  (14) 
2

$$$$

     RDKit          3D

 43 46  0  0  0  0  0  0  0  0999 V2000
  145.6150   73.2250  219.8780 C   0  0  0  0  0  0  0  0  0  0  0  0
  144.3210   73.9000  220.0820 C   0  0  0  0  0  0  0  0  0  0  0  0
  144.0750   75.1720  219.5410 C   0  0  0  0  0  0  0  0  0  0  0  0
  142.9030   75.8490  219.7180 C   0  0  0  0  0  0  0  0  0  0  0  0
  141.9260   75.2080  220.4780 C   0  0  0  0  0  0  0  0  0  0  0  0
  142.0760   73.9770  221.0340 C   0  0  0  0  0  0  0  0  0  0  0  0
  143.2820   73.3260  220.8310 C   0  0  0  0  0  0  0  0  0  0  0  0
  140.8020   73.6550  221.7570 C   0  0  0  0  0  0  0  0  0  0  0  0
  139.9660   74.8480  221.5330 C   0  0  0  0  0  0  0  0  0  0  0  0
  138.6140   75.1930  221.9730 C   0  0  0  0  0  0  0  0  0  0  0  0
  137.5900   74.2290  221.9120 C   0  0  0  0  0  0  0  0  0  0  0  0
  136.2870   74.5360  222.2650 C   0  0  0  0  0  0  0  0  0  0  0  0
  135.9850   75.8080  222.6870 C   0  0  0  0  0  0  0  0  0  0  0  0
  137.0030   76.7120  222.7350 C   0  0  0  0  0  0  0  0  0  0  0  0
  138.3060   76.4850  222.4020 C   0  0  0  0  0  0  0  0  0  0  0  0
  139.2570   77.5520  222.5440 C   0  0  0  0  0  0  0  0  0  0  0  0
  139.0120   78.7820  222.5030 O   0  0  0  0  0  0  0  0  0  0  0  0
  140.6850   77.2840  222.7700 N   0  0  0  0  0  0  0  0  0  0  0  0
  141.4440   78.5090  222.8620 C   0  0  0  0  0  0  0  0  0  0  0  0
  141.8180   79.0200  224.0810 C   0  0  0  0  0  0  0  0  0  0  0  0
  142.5340   80.1870  224.2120 C   0  0  0  0  0  0  0  0  0  0  0  0
  142.8800   80.8500  223.0680 C   0  0  0  0  0  0  0  0  0  0  0  0
  142.5440   80.4020  221.7890 C   0  0  0  0  0  0  0  0  0  0  0  0
  141.8240   79.2260  221.7550 C   0  0  0  0  0  0  0  0  0  0  0  0
  140.6430   75.6870  220.8070 N   0  0  0  0  0  0  0  0  0  0  0  0
  146.0643   72.9907  220.8544 H   0  0  0  0  0  0  0  0  0  0  0  0
  145.4579   72.2939  219.3137 H   0  0  0  0  0  0  0  0  0  0  0  0
  146.2887   73.8866  219.3137 H   0  0  0  0  0  0  0  0  0  0  0  0
  144.8672   75.6473  218.9440 H   0  0  0  0  0  0  0  0  0  0  0  0
  142.7384   76.8464  219.2844 H   0  0  0  0  0  0  0  0  0  0  0  0
  143.4298   72.3285  221.2704 H   0  0  0  0  0  0  0  0  0  0  0  0
  140.3267   72.7573  221.3347 H   0  0  0  0  0  0  0  0  0  0  0  0
  140.9590   73.4370  222.8237 H   0  0  0  0  0  0  0  0  0  0  0  0
  137.8304   73.2094  221.5765 H   0  0  0  0  0  0  0  0  0  0  0  0
  135.5009   73.7686  222.2081 H   0  0  0  0  0  0  0  0  0  0  0  0
  134.9604   76.0859  222.9751 H   0  0  0  0  0  0  0  0  0  0  0  0
  136.7487   77.7263  223.0764 H   0  0  0  0  0  0  0  0  0  0  0  0
  141.0610   76.3480  222.8370 H   0  0  0  0  0  0  0  0  0  0  0  0
  141.5326   78.4724  224.9913 H   0  0  0  0  0  0  0  0  0  0  0  0
  142.8180   80.5729  225.2021 H   0  0  0  0  0  0  0  0  0  0  0  0
  143.4527   81.7847  223.1596 H   0  0  0  0  0  0  0  0  0  0  0  0
  142.8318   80.9459  220.8772 H   0  0  0  0  0  0  0  0  0  0  0  0
  141.5332   78.8343  220.7691 H   0  0  0  0  0  0  0  0  0  0  0  0
  1  2  1  0
  2  3  2  0
  3  4  1  0
  4  5  2  0
  5  6  1  0
  6  7  2  0
  6  8  1  0
  8  9  1  0
  9 10  1  0
 10 11  2  0
 11 12  1  0
 12 13  2  0
 13 14  1  0
 14 15  2  0
 15 16  1  0
 16 17  2  0
 16 18  1  0
 18 19  1  0
 19 20  2  0
 20 21  1  0
 21 22  2  0
 22 23  1  0
 23 24  2  0
  9 25  2  0
  7  2  1  0
 15 10  1  0
 24 19  1  0
 25  5  1  0
  1 26  1  0
  1 27  1  0
  1 28  1  0
  3 29  1  0
  4 30  1  0
  7 31  1  0
  8 32  1  0
  8 33  1  0
 11 34  1  0
 12 35  1  0
 13 36  1  0
 14 37  1  0
 18 38  1  0
 20 39  1  0
 21 40  1  0
 22 41  1  0
 23 42  1  0
 24 43  1  0
M  END
>  <smiles>  (15) 
Cc1ccc2c(c1)CC(c1ccccc1C(=O)Nc1ccccc1)=N2

>  <score_type>  (15) 
oracle

>  <origin>  (15) 
autodockgpu

>  <m_score__min__energy>  (15) 
-7.04

>  <m_primary>  (15) 
energy

>  <meeko>  (15) 
{"free_energy": -6.96, "intermolecular_energy": -7.85, "internal_energy": -1.6, "cluster_size": 7, "cluster_id": 2, "rank_in_cluster": 2}

>  <energy>  (15) 
-6.96

>  <cluster_rmsd>  (15) 
0.02

>  <rmsd>  (15) 
271.4

>  <cluster>  (15) 
2

$$$$

     RDKit          3D

 43 46  0  0  0  0  0  0  0  0999 V2000
  141.4450   71.8370  228.3310 C   0  0  0  0  0  0  0  0  0  0  0  0
  140.7490   70.8110  227.5360 C   0  0  0  0  0  0  0  0  0  0  0  0
  140.3950   69.5740  228.0990 C   0  0  0  0  0  0  0  0  0  0  0  0
  139.7700   68.5830  227.4020 C   0  0  0  0  0  0  0  0  0  0  0  0
  139.4810   68.8520  226.0650 C   0  0  0  0  0  0  0  0  0  0  0  0
  139.7810   70.0220  225.4390 C   0  0  0  0  0  0  0  0  0  0  0  0
  140.4190   71.0010  226.1850 C   0  0  0  0  0  0  0  0  0  0  0  0
  139.3010   69.9060  224.0230 C   0  0  0  0  0  0  0  0  0  0  0  0
  138.7240   68.5520  223.9620 C   0  0  0  0  0  0  0  0  0  0  0  0
  138.0970   67.8030  222.8730 C   0  0  0  0  0  0  0  0  0  0  0  0
  138.8660   66.9100  222.1030 C   0  0  0  0  0  0  0  0  0  0  0  0
  138.3210   66.2280  221.0280 C   0  0  0  0  0  0  0  0  0  0  0  0
  137.0000   66.4250  220.7050 C   0  0  0  0  0  0  0  0  0  0  0  0
  136.2880   67.2950  221.4750 C   0  0  0  0  0  0  0  0  0  0  0  0
  136.7550   68.0010  222.5440 C   0  0  0  0  0  0  0  0  0  0  0  0
  135.8500   68.8550  223.2630 C   0  0  0  0  0  0  0  0  0  0  0  0
  134.8260   69.4140  222.8040 O   0  0  0  0  0  0  0  0  0  0  0  0
  136.0510   69.1610  224.6870 N   0  0  0  0  0  0  0  0  0  0  0  0
  135.0280   70.0500  225.1860 C   0  0  0  0  0  0  0  0  0  0  0  0
  135.0610   71.3950  224.9060 C   0  0  0  0  0  0  0  0  0  0  0  0
  134.1120   72.2760  225.3670 C   0  0  0  0  0  0  0  0  0  0  0  0
  133.0990   71.7710  226.1350 C   0  0  0  0  0  0  0  0  0  0  0  0
  132.9870   70.4190  226.4660 C   0  0  0  0  0  0  0  0  0  0  0  0
  133.9840   69.6120  225.9620 C   0  0  0  0  0  0  0  0  0  0  0  0
  138.8480   68.0050  225.1350 N   0  0  0  0  0  0  0  0  0  0  0  0
  141.3040   71.6292  229.4019 H   0  0  0  0  0  0  0  0  0  0  0  0
  142.5187   71.8199  228.0924 H   0  0  0  0  0  0  0  0  0  0  0  0
  141.0322   72.8283  228.0924 H   0  0  0  0  0  0  0  0  0  0  0  0
  140.6346   69.3954  229.1576 H   0  0  0  0  0  0  0  0  0  0  0  0
  139.5078   67.6225  227.8696 H   0  0  0  0  0  0  0  0  0  0  0  0
  140.6745   71.9563  225.7032 H   0  0  0  0  0  0  0  0  0  0  0  0
  138.5387   70.6679  223.8032 H   0  0  0  0  0  0  0  0  0  0  0  0
  140.1026   70.0623  223.2861 H   0  0  0  0  0  0  0  0  0  0  0  0
  139.9233   66.7504  222.3610 H   0  0  0  0  0  0  0  0  0  0  0  0
  138.9395   65.5353  220.4384 H   0  0  0  0  0  0  0  0  0  0  0  0
  136.5351   65.9004  219.8573 H   0  0  0  0  0  0  0  0  0  0  0  0
  135.2312   67.4425  221.2076 H   0  0  0  0  0  0  0  0  0  0  0  0
  136.8250   68.7890  225.2230 H   0  0  0  0  0  0  0  0  0  0  0  0
  135.8825   71.7834  224.2861 H   0  0  0  0  0  0  0  0  0  0  0  0
  134.1652   73.3482  225.1270 H   0  0  0  0  0  0  0  0  0  0  0  0
  132.3333   72.4655  226.5111 H   0  0  0  0  0  0  0  0  0  0  0  0
  132.1646   70.0275  227.0828 H   0  0  0  0  0  0  0  0  0  0  0  0
  133.9399   68.5387  226.1989 H   0  0  0  0  0  0  0  0  0  0  0  0
  1  2  1  0
  2  3  2  0
  3  4  1  0
  4  5  2  0
  5  6  1  0
  6  7  2  0
  6  8  1  0
  8  9  1  0
  9 10  1  0
 10 11  2  0
 11 12  1  0
 12 13  2  0
 13 14  1  0
 14 15  2  0
 15 16  1  0
 16 17  2  0
 16 18  1  0
 18 19  1  0
 19 20  2  0
 20 21  1  0
 21 22  2  0
 22 23  1  0
 23 24  2  0
  9 25  2  0
  7  2  1  0
 15 10  1  0
 24 19  1  0
 25  5  1  0
  1 26  1  0
  1 27  1  0
  1 28  1  0
  3 29  1  0
  4 30  1  0
  7 31  1  0
  8 32  1  0
  8 33  1  0
 11 34  1  0
 12 35  1  0
 13 36  1  0
 14 37  1  0
 18 38  1  0
 20 39  1  0
 21 40  1  0
 22 41  1  0
 23 42  1  0
 24 43  1  0
M  END
>  <smiles>  (16) 
Cc1ccc2c(c1)CC(c1ccccc1C(=O)Nc1ccccc1)=N2

>  <score_type>  (16) 
oracle

>  <origin>  (16) 
autodockgpu

>  <m_score__min__energy>  (16) 
-7.04

>  <m_primary>  (16) 
energy

>  <meeko>  (16) 
{"free_energy": -7.02, "intermolecular_energy": -7.92, "internal_energy": -1.82, "cluster_size": 13, "cluster_id": 1, "rank_in_cluster": 11}

>  <energy>  (16) 
-6.96

>  <cluster_rmsd>  (16) 
0.02

>  <rmsd>  (16) 
271.4

>  <cluster>  (16) 
2

$$$$

     RDKit          3D

 43 46  0  0  0  0  0  0  0  0999 V2000
  145.6070   73.2130  219.8930 C   0  0  0  0  0  0  0  0  0  0  0  0
  144.3140   73.8910  220.0940 C   0  0  0  0  0  0  0  0  0  0  0  0
  144.0710   75.1630  219.5520 C   0  0  0  0  0  0  0  0  0  0  0  0
  142.9010   75.8420  219.7270 C   0  0  0  0  0  0  0  0  0  0  0  0
  141.9210   75.2040  220.4870 C   0  0  0  0  0  0  0  0  0  0  0  0
  142.0680   73.9730  221.0440 C   0  0  0  0  0  0  0  0  0  0  0  0
  143.2740   73.3190  220.8440 C   0  0  0  0  0  0  0  0  0  0  0  0
  140.7930   73.6550  221.7670 C   0  0  0  0  0  0  0  0  0  0  0  0
  139.9600   74.8490  221.5410 C   0  0  0  0  0  0  0  0  0  0  0  0
  138.6090   75.1970  221.9800 C   0  0  0  0  0  0  0  0  0  0  0  0
  137.5820   74.2350  221.9190 C   0  0  0  0  0  0  0  0  0  0  0  0
  136.2800   74.5450  222.2700 C   0  0  0  0  0  0  0  0  0  0  0  0
  135.9800   75.8190  222.6910 C   0  0  0  0  0  0  0  0  0  0  0  0
  137.0000   76.7210  222.7390 C   0  0  0  0  0  0  0  0  0  0  0  0
  138.3030   76.4900  222.4080 C   0  0  0  0  0  0  0  0  0  0  0  0
  139.2560   77.5560  222.5490 C   0  0  0  0  0  0  0  0  0  0  0  0
  139.0130   78.7860  222.5090 O   0  0  0  0  0  0  0  0  0  0  0  0
  140.6830   77.2850  222.7750 N   0  0  0  0  0  0  0  0  0  0  0  0
  141.4450   78.5080  222.8670 C   0  0  0  0  0  0  0  0  0  0  0  0
  141.8160   79.0210  224.0870 C   0  0  0  0  0  0  0  0  0  0  0  0
  142.5340   80.1860  224.2180 C   0  0  0  0  0  0  0  0  0  0  0  0
  142.8850   80.8460  223.0730 C   0  0  0  0  0  0  0  0  0  0  0  0
  142.5530   80.3960  221.7940 C   0  0  0  0  0  0  0  0  0  0  0  0
  141.8310   79.2220  221.7600 C   0  0  0  0  0  0  0  0  0  0  0  0
  140.6390   75.6860  220.8140 N   0  0  0  0  0  0  0  0  0  0  0  0
  146.0539   72.9786  220.8704 H   0  0  0  0  0  0  0  0  0  0  0  0
  145.4490   72.2817  219.3293 H   0  0  0  0  0  0  0  0  0  0  0  0
  146.2832   73.8726  219.3293 H   0  0  0  0  0  0  0  0  0  0  0  0
  144.8648   75.6364  218.9556 H   0  0  0  0  0  0  0  0  0  0  0  0
  142.7391   76.8393  219.2920 H   0  0  0  0  0  0  0  0  0  0  0  0
  143.4204   72.3224  221.2860 H   0  0  0  0  0  0  0  0  0  0  0  0
  140.3159   72.7578  221.3459 H   0  0  0  0  0  0  0  0  0  0  0  0
  140.9492   73.4383  222.8341 H   0  0  0  0  0  0  0  0  0  0  0  0
  137.8204   73.2144  221.5849 H   0  0  0  0  0  0  0  0  0  0  0  0
  135.4923   73.7793  222.2128 H   0  0  0  0  0  0  0  0  0  0  0  0
  134.9558   76.0993  222.9780 H   0  0  0  0  0  0  0  0  0  0  0  0
  136.7477   77.7365  223.0784 H   0  0  0  0  0  0  0  0  0  0  0  0
  141.0580   76.3470  222.8420 H   0  0  0  0  0  0  0  0  0  0  0  0
  141.5260   78.4761  224.9975 H   0  0  0  0  0  0  0  0  0  0  0  0
  142.8160   80.5733  225.2082 H   0  0  0  0  0  0  0  0  0  0  0  0
  143.4588   81.7800  223.1645 H   0  0  0  0  0  0  0  0  0  0  0  0
  142.8454   80.9372  220.8821 H   0  0  0  0  0  0  0  0  0  0  0  0
  141.5432   78.8288  220.7738 H   0  0  0  0  0  0  0  0  0  0  0  0
  1  2  1  0
  2  3  2  0
  3  4  1  0
  4  5  2  0
  5  6  1  0
  6  7  2  0
  6  8  1  0
  8  9  1  0
  9 10  1  0
 10 11  2  0
 11 12  1  0
 12 13  2  0
 13 14  1  0
 14 15  2  0
 15 16  1  0
 16 17  2  0
 16 18  1  0
 18 19  1  0
 19 20  2  0
 20 21  1  0
 21 22  2  0
 22 23  1  0
 23 24  2  0
  9 25  2  0
  7  2  1  0
 15 10  1  0
 24 19  1  0
 25  5  1  0
  1 26  1  0
  1 27  1  0
  1 28  1  0
  3 29  1  0
  4 30  1  0
  7 31  1  0
  8 32  1  0
  8 33  1  0
 11 34  1  0
 12 35  1  0
 13 36  1  0
 14 37  1  0
 18 38  1  0
 20 39  1  0
 21 40  1  0
 22 41  1  0
 23 42  1  0
 24 43  1  0
M  END
>  <smiles>  (17) 
Cc1ccc2c(c1)CC(c1ccccc1C(=O)Nc1ccccc1)=N2

>  <score_type>  (17) 
oracle

>  <origin>  (17) 
autodockgpu

>  <m_score__min__energy>  (17) 
-7.04

>  <m_primary>  (17) 
energy

>  <meeko>  (17) 
{"free_energy": -6.95, "intermolecular_energy": -7.85, "internal_energy": -1.6, "cluster_size": 7, "cluster_id": 2, "rank_in_cluster": 5}

>  <energy>  (17) 
-6.96

>  <cluster_rmsd>  (17) 
0.02

>  <rmsd>  (17) 
271.4

>  <cluster>  (17) 
2

$$$$

     RDKit          3D

 43 46  0  0  0  0  0  0  0  0999 V2000
  141.4620   71.8200  228.3480 C   0  0  0  0  0  0  0  0  0  0  0  0
  140.7630   70.7970  227.5510 C   0  0  0  0  0  0  0  0  0  0  0  0
  140.4110   69.5580  228.1100 C   0  0  0  0  0  0  0  0  0  0  0  0
  139.7840   68.5700  227.4110 C   0  0  0  0  0  0  0  0  0  0  0  0
  139.4910   68.8440  226.0760 C   0  0  0  0  0  0  0  0  0  0  0  0
  139.7900   70.0160  225.4540 C   0  0  0  0  0  0  0  0  0  0  0  0
  140.4300   70.9920  226.2010 C   0  0  0  0  0  0  0  0  0  0  0  0
  139.3070   69.9060  224.0380 C   0  0  0  0  0  0  0  0  0  0  0  0
  138.7290   68.5520  223.9740 C   0  0  0  0  0  0  0  0  0  0  0  0
  138.0990   67.8070  222.8840 C   0  0  0  0  0  0  0  0  0  0  0  0
  138.8660   66.9190  222.1070 C   0  0  0  0  0  0  0  0  0  0  0  0
  138.3190   66.2410  221.0310 C   0  0  0  0  0  0  0  0  0  0  0  0
  136.9960   66.4370  220.7140 C   0  0  0  0  0  0  0  0  0  0  0  0
  136.2850   67.3030  221.4910 C   0  0  0  0  0  0  0  0  0  0  0  0
  136.7550   68.0050  222.5610 C   0  0  0  0  0  0  0  0  0  0  0  0
  135.8520   68.8540  223.2870 C   0  0  0  0  0  0  0  0  0  0  0  0
  134.8300   69.4200  222.8320 O   0  0  0  0  0  0  0  0  0  0  0  0
  136.0520   69.1450  224.7150 N   0  0  0  0  0  0  0  0  0  0  0  0
  135.0310   70.0320  225.2210 C   0  0  0  0  0  0  0  0  0  0  0  0
  135.0720   71.3810  224.9600 C   0  0  0  0  0  0  0  0  0  0  0  0
  134.1240   72.2590  225.4300 C   0  0  0  0  0  0  0  0  0  0  0  0
  133.1050   71.7480  226.1850 C   0  0  0  0  0  0  0  0  0  0  0  0
  132.9850   70.3930  226.4960 C   0  0  0  0  0  0  0  0  0  0  0  0
  133.9810   69.5880  225.9850 C   0  0  0  0  0  0  0  0  0  0  0  0
  138.8560   68.0010  225.1440 N   0  0  0  0  0  0  0  0  0  0  0  0
  141.3194   71.6114  229.4186 H   0  0  0  0  0  0  0  0  0  0  0  0
  142.5358   71.7995  228.1103 H   0  0  0  0  0  0  0  0  0  0  0  0
  141.0527   72.8129  228.1103 H   0  0  0  0  0  0  0  0  0  0  0  0
  140.6539   69.3751  229.1672 H   0  0  0  0  0  0  0  0  0  0  0  0
  139.5231   67.6077  227.8756 H   0  0  0  0  0  0  0  0  0  0  0  0
  140.6849   71.9487  225.7217 H   0  0  0  0  0  0  0  0  0  0  0  0
  138.5447   70.6692  223.8225 H   0  0  0  0  0  0  0  0  0  0  0  0
  140.1068   70.0650  223.2997 H   0  0  0  0  0  0  0  0  0  0  0  0
  139.9245   66.7600  222.3604 H   0  0  0  0  0  0  0  0  0  0  0  0
  138.9369   65.5525  220.4359 H   0  0  0  0  0  0  0  0  0  0  0  0
  136.5287   65.9152  219.8659 H   0  0  0  0  0  0  0  0  0  0  0  0
  135.2270   67.4498  221.2284 H   0  0  0  0  0  0  0  0  0  0  0  0
  136.8240   68.7660  225.2470 H   0  0  0  0  0  0  0  0  0  0  0  0
  135.8980   71.7746  224.3495 H   0  0  0  0  0  0  0  0  0  0  0  0
  134.1832   73.3344  225.2065 H   0  0  0  0  0  0  0  0  0  0  0  0
  132.3405   72.4406  226.5669 H   0  0  0  0  0  0  0  0  0  0  0  0
  132.1578   69.9968  227.1033 H   0  0  0  0  0  0  0  0  0  0  0  0
  133.9303   68.5116  226.2058 H   0  0  0  0  0  0  0  0  0  0  0  0
  1  2  1  0
  2  3  2  0
  3  4  1  0
  4  5  2  0
  5  6  1  0
  6  7  2  0
  6  8  1  0
  8  9  1  0
  9 10  1  0
 10 11  2  0
 11 12  1  0
 12 13  2  0
 13 14  1  0
 14 15  2  0
 15 16  1  0
 16 17  2  0
 16 18  1  0
 18 19  1  0
 19 20  2  0
 20 21  1  0
 21 22  2  0
 22 23  1  0
 23 24  2  0
  9 25  2  0
  7  2  1  0
 15 10  1  0
 24 19  1  0
 25  5  1  0
  1 26  1  0
  1 27  1  0
  1 28  1  0
  3 29  1  0
  4 30  1  0
  7 31  1  0
  8 32  1  0
  8 33  1  0
 11 34  1  0
 12 35  1  0
 13 36  1  0
 14 37  1  0
 18 38  1  0
 20 39  1  0
 21 40  1  0
 22 41  1  0
 23 42  1  0
 24 43  1  0
M  END
>  <smiles>  (18) 
Cc1ccc2c(c1)CC(c1ccccc1C(=O)Nc1ccccc1)=N2

>  <score_type>  (18) 
oracle

>  <origin>  (18) 
autodockgpu

>  <m_score__min__energy>  (18) 
-7.04

>  <m_primary>  (18) 
energy

>  <meeko>  (18) 
{"free_energy": -7.01, "intermolecular_energy": -7.9, "internal_energy": -1.83, "cluster_size": 13, "cluster_id": 1, "rank_in_cluster": 12}

>  <energy>  (18) 
-6.95

>  <cluster_rmsd>  (18) 
0.01

>  <rmsd>  (18) 
271.41

>  <cluster>  (18) 
2

$$$$

     RDKit          3D

 43 46  0  0  0  0  0  0  0  0999 V2000
  141.4060   71.8770  228.3350 C   0  0  0  0  0  0  0  0  0  0  0  0
  140.7170   70.8520  227.5330 C   0  0  0  0  0  0  0  0  0  0  0  0
  140.3860   69.6030  228.0830 C   0  0  0  0  0  0  0  0  0  0  0  0
  139.7670   68.6130  227.3780 C   0  0  0  0  0  0  0  0  0  0  0  0
  139.4620   68.8960  226.0470 C   0  0  0  0  0  0  0  0  0  0  0  0
  139.7400   70.0770  225.4350 C   0  0  0  0  0  0  0  0  0  0  0  0
  140.3720   71.0550  226.1870 C   0  0  0  0  0  0  0  0  0  0  0  0
  139.2500   69.9740  224.0210 C   0  0  0  0  0  0  0  0  0  0  0  0
  138.6910   68.6130  223.9470 C   0  0  0  0  0  0  0  0  0  0  0  0
  138.0640   67.8700  222.8540 C   0  0  0  0  0  0  0  0  0  0  0  0
  138.8340   66.9860  222.0750 C   0  0  0  0  0  0  0  0  0  0  0  0
  138.2900   66.3100  220.9970 C   0  0  0  0  0  0  0  0  0  0  0  0
  136.9670   66.5040  220.6790 C   0  0  0  0  0  0  0  0  0  0  0  0
  136.2530   67.3650  221.4580 C   0  0  0  0  0  0  0  0  0  0  0  0
  136.7200   68.0650  222.5300 C   0  0  0  0  0  0  0  0  0  0  0  0
  135.8140   68.9090  223.2590 C   0  0  0  0  0  0  0  0  0  0  0  0
  134.7780   69.4560  222.8100 O   0  0  0  0  0  0  0  0  0  0  0  0
  136.0260   69.2190  224.6800 N   0  0  0  0  0  0  0  0  0  0  0  0
  134.9990   70.0970  225.1890 C   0  0  0  0  0  0  0  0  0  0  0  0
  133.9660   69.6100  225.9530 C   0  0  0  0  0  0  0  0  0  0  0  0
  132.9650   70.4110  226.4490 C   0  0  0  0  0  0  0  0  0  0  0  0
  133.0190   71.7460  226.1590 C   0  0  0  0  0  0  0  0  0  0  0  0
  134.0320   72.3260  225.3930 C   0  0  0  0  0  0  0  0  0  0  0  0
  134.9900   71.4460  224.9360 C   0  0  0  0  0  0  0  0  0  0  0  0
  138.8330   68.0520  225.1120 N   0  0  0  0  0  0  0  0  0  0  0  0
  141.2625   71.6635  229.4045 H   0  0  0  0  0  0  0  0  0  0  0  0
  142.4805   71.8655  228.0998 H   0  0  0  0  0  0  0  0  0  0  0  0
  140.9897   72.8676  228.0998 H   0  0  0  0  0  0  0  0  0  0  0  0
  140.6390   69.4133  229.1366 H   0  0  0  0  0  0  0  0  0  0  0  0
  139.5214   67.6430  227.8350 H   0  0  0  0  0  0  0  0  0  0  0  0
  140.6105   72.0195  225.7150 H   0  0  0  0  0  0  0  0  0  0  0  0
  138.4756   70.7283  223.8176 H   0  0  0  0  0  0  0  0  0  0  0  0
  140.0430   70.1515  223.2796 H   0  0  0  0  0  0  0  0  0  0  0  0
  139.8927   66.8289  222.3290 H   0  0  0  0  0  0  0  0  0  0  0  0
  138.9100   65.6244  220.4007 H   0  0  0  0  0  0  0  0  0  0  0  0
  136.5021   65.9842  219.8283 H   0  0  0  0  0  0  0  0  0  0  0  0
  135.1946   67.5092  221.1952 H   0  0  0  0  0  0  0  0  0  0  0  0
  136.8100   68.8570  225.2070 H   0  0  0  0  0  0  0  0  0  0  0  0
  133.9389   68.5334  226.1773 H   0  0  0  0  0  0  0  0  0  0  0  0
  132.1496   69.9928  227.0575 H   0  0  0  0  0  0  0  0  0  0  0  0
  132.2229   72.3970  226.5495 H   0  0  0  0  0  0  0  0  0  0  0  0
  134.0634   73.4029  225.1710 H   0  0  0  0  0  0  0  0  0  0  0  0
  135.8071   71.8551  224.3237 H   0  0  0  0  0  0  0  0  0  0  0  0
  1  2  1  0
  2  3  2  0
  3  4  1  0
  4  5  2  0
  5  6  1  0
  6  7  2  0
  6  8  1  0
  8  9  1  0
  9 10  1  0
 10 11  2  0
 11 12  1  0
 12 13  2  0
 13 14  1  0
 14 15  2  0
 15 16  1  0
 16 17  2  0
 16 18  1  0
 18 19  1  0
 19 20  2  0
 20 21  1  0
 21 22  2  0
 22 23  1  0
 23 24  2  0
  9 25  2  0
  7  2  1  0
 15 10  1  0
 24 19  1  0
 25  5  1  0
  1 26  1  0
  1 27  1  0
  1 28  1  0
  3 29  1  0
  4 30  1  0
  7 31  1  0
  8 32  1  0
  8 33  1  0
 11 34  1  0
 12 35  1  0
 13 36  1  0
 14 37  1  0
 18 38  1  0
 20 39  1  0
 21 40  1  0
 22 41  1  0
 23 42  1  0
 24 43  1  0
M  END
>  <smiles>  (19) 
Cc1ccc2c(c1)CC(c1ccccc1C(=O)Nc1ccccc1)=N2

>  <score_type>  (19) 
oracle

>  <origin>  (19) 
autodockgpu

>  <m_score__min__energy>  (19) 
-7.04

>  <m_primary>  (19) 
energy

>  <meeko>  (19) 
{"free_energy": -7.03, "intermolecular_energy": -7.92, "internal_energy": -1.81, "cluster_size": 13, "cluster_id": 1, "rank_in_cluster": 6}

>  <energy>  (19) 
-6.95

>  <cluster_rmsd>  (19) 
0.03

>  <rmsd>  (19) 
271.4

>  <cluster>  (19) 
2

$$$$

     RDKit          3D

 43 46  0  0  0  0  0  0  0  0999 V2000
  145.6160   73.2280  219.8770 C   0  0  0  0  0  0  0  0  0  0  0  0
  144.3220   73.9010  220.0820 C   0  0  0  0  0  0  0  0  0  0  0  0
  144.0720   75.1720  219.5390 C   0  0  0  0  0  0  0  0  0  0  0  0
  142.9000   75.8460  219.7160 C   0  0  0  0  0  0  0  0  0  0  0  0
  141.9240   75.2050  220.4790 C   0  0  0  0  0  0  0  0  0  0  0  0
  142.0780   73.9750  221.0370 C   0  0  0  0  0  0  0  0  0  0  0  0
  143.2860   73.3260  220.8340 C   0  0  0  0  0  0  0  0  0  0  0  0
  140.8060   73.6520  221.7630 C   0  0  0  0  0  0  0  0  0  0  0  0
  139.9670   74.8430  221.5380 C   0  0  0  0  0  0  0  0  0  0  0  0
  138.6160   75.1860  221.9800 C   0  0  0  0  0  0  0  0  0  0  0  0
  137.5930   74.2210  221.9210 C   0  0  0  0  0  0  0  0  0  0  0  0
  136.2900   74.5260  222.2750 C   0  0  0  0  0  0  0  0  0  0  0  0
  135.9870   75.7980  222.6970 C   0  0  0  0  0  0  0  0  0  0  0  0
  137.0040   76.7040  222.7430 C   0  0  0  0  0  0  0  0  0  0  0  0
  138.3060   76.4780  222.4090 C   0  0  0  0  0  0  0  0  0  0  0  0
  139.2560   77.5470  222.5490 C   0  0  0  0  0  0  0  0  0  0  0  0
  139.0090   78.7760  222.5090 O   0  0  0  0  0  0  0  0  0  0  0  0
  140.6850   77.2810  222.7730 N   0  0  0  0  0  0  0  0  0  0  0  0
  141.4420   78.5070  222.8640 C   0  0  0  0  0  0  0  0  0  0  0  0
  141.8130   79.0210  224.0830 C   0  0  0  0  0  0  0  0  0  0  0  0
  142.5280   80.1880  224.2130 C   0  0  0  0  0  0  0  0  0  0  0  0
  142.8750   80.8490  223.0670 C   0  0  0  0  0  0  0  0  0  0  0  0
  142.5420   80.3980  221.7890 C   0  0  0  0  0  0  0  0  0  0  0  0
  141.8230   79.2220  221.7560 C   0  0  0  0  0  0  0  0  0  0  0  0
  140.6410   75.6820  220.8090 N   0  0  0  0  0  0  0  0  0  0  0  0
  146.0662   72.9939  220.8530 H   0  0  0  0  0  0  0  0  0  0  0  0
  145.4597   72.2969  219.3125 H   0  0  0  0  0  0  0  0  0  0  0  0
  146.2885   73.8906  219.3125 H   0  0  0  0  0  0  0  0  0  0  0  0
  144.8624   75.6481  218.9402 H   0  0  0  0  0  0  0  0  0  0  0  0
  142.7331   76.8421  219.2803 H   0  0  0  0  0  0  0  0  0  0  0  0
  143.4371   72.3300  221.2758 H   0  0  0  0  0  0  0  0  0  0  0  0
  140.3318   72.7525  221.3435 H   0  0  0  0  0  0  0  0  0  0  0  0
  140.9654   73.4366  222.8299 H   0  0  0  0  0  0  0  0  0  0  0  0
  137.8344   73.2014  221.5860 H   0  0  0  0  0  0  0  0  0  0  0  0
  135.5049   73.7576  222.2190 H   0  0  0  0  0  0  0  0  0  0  0  0
  134.9625   76.0745  222.9867 H   0  0  0  0  0  0  0  0  0  0  0  0
  136.7488   77.7184  223.0835 H   0  0  0  0  0  0  0  0  0  0  0  0
  141.0630   76.3450  222.8400 H   0  0  0  0  0  0  0  0  0  0  0  0
  141.5256   78.4754  224.9939 H   0  0  0  0  0  0  0  0  0  0  0  0
  142.8107   80.5760  225.2027 H   0  0  0  0  0  0  0  0  0  0  0  0
  143.4462   81.7847  223.1574 H   0  0  0  0  0  0  0  0  0  0  0  0
  142.8314   80.9400  220.8766 H   0  0  0  0  0  0  0  0  0  0  0  0
  141.5338   78.8283  220.7704 H   0  0  0  0  0  0  0  0  0  0  0  0
  1  2  1  0
  2  3  2  0
  3  4  1  0
  4  5  2  0
  5  6  1  0
  6  7  2  0
  6  8  1  0
  8  9  1  0
  9 10  1  0
 10 11  2  0
 11 12  1  0
 12 13  2  0
 13 14  1  0
 14 15  2  0
 15 16  1  0
 16 17  2  0
 16 18  1  0
 18 19  1  0
 19 20  2  0
 20 21  1  0
 21 22  2  0
 22 23  1  0
 23 24  2  0
  9 25  2  0
  7  2  1  0
 15 10  1  0
 24 19  1  0
 25  5  1  0
  1 26  1  0
  1 27  1  0
  1 28  1  0
  3 29  1  0
  4 30  1  0
  7 31  1  0
  8 32  1  0
  8 33  1  0
 11 34  1  0
 12 35  1  0
 13 36  1  0
 14 37  1  0
 18 38  1  0
 20 39  1  0
 21 40  1  0
 22 41  1  0
 23 42  1  0
 24 43  1  0
M  END
>  <smiles>  (20) 
Cc1ccc2c(c1)CC(c1ccccc1C(=O)Nc1ccccc1)=N2

>  <score_type>  (20) 
oracle

>  <origin>  (20) 
autodockgpu

>  <m_score__min__energy>  (20) 
-7.04

>  <m_primary>  (20) 
energy

>  <meeko>  (20) 
{"free_energy": -6.95, "intermolecular_energy": -7.85, "internal_energy": -1.6, "cluster_size": 7, "cluster_id": 2, "rank_in_cluster": 7}

>  <energy>  (20) 
-6.95

>  <cluster_rmsd>  (20) 
0.02

>  <rmsd>  (20) 
271.4

>  <cluster>  (20) 
2

$$$$
