KNAQURWOGDABTO-UHFFFAOYNA-N
     RDKit          3D

 36 38  0  0  0  0  0  0  0  0999 V2000
  140.8619   77.5040  220.8045 H   0  0  0  0  0  0  0  0  0  0  0  0
  140.8970   76.4330  221.0530 C   0  0  0  0  0  0  0  0  0  0  0  0
  141.7860   75.5500  220.5420 N   0  0  0  0  0  0  0  0  0  0  0  0
  141.5060   74.3700  221.0710 N   0  0  0  0  0  0  0  0  0  0  0  0
  142.1420   73.1800  220.8700 C   0  0  0  0  0  0  0  0  0  0  0  0
  143.2570   73.0290  219.9680 N   0  0  0  0  0  0  0  0  0  0  0  0
  143.1540   73.4110  219.0000 H   0  0  0  0  0  0  0  0  0  0  0  0
  144.5790   72.5220  220.3360 C   0  0  0  0  0  0  0  0  0  0  0  0
  145.0483   72.0655  219.4520 H   0  0  0  0  0  0  0  0  0  0  0  0
  144.4587   71.7766  221.1360 H   0  0  0  0  0  0  0  0  0  0  0  0
  145.4720   73.6480  220.8500 C   0  0  0  0  0  0  0  0  0  0  0  0
  145.4695   73.6449  221.9500 H   0  0  0  0  0  0  0  0  0  0  0  0
  146.4987   73.4972  220.4852 H   0  0  0  0  0  0  0  0  0  0  0  0
  145.0913   74.6134  220.4852 H   0  0  0  0  0  0  0  0  0  0  0  0
  141.6850   72.0710  221.6030 C   0  0  0  0  0  0  0  0  0  0  0  0
  142.1713   71.0912  221.4866 H   0  0  0  0  0  0  0  0  0  0  0  0
  140.5980   72.2240  222.4890 C   0  0  0  0  0  0  0  0  0  0  0  0
  140.1610   71.1840  223.1390 N   0  0  0  0  0  0  0  0  0  0  0  0
  140.3950   70.8700  224.5230 C   0  0  0  0  0  0  0  0  0  0  0  0
  140.8370   71.8880  225.3750 C   0  0  0  0  0  0  0  0  0  0  0  0
  141.0297   72.8931  224.9717 H   0  0  0  0  0  0  0  0  0  0  0  0
  141.0350   71.6360  226.7340 C   0  0  0  0  0  0  0  0  0  0  0  0
  141.3913   72.4401  227.3946 H   0  0  0  0  0  0  0  0  0  0  0  0
  140.7820   70.3660  227.2570 C   0  0  0  0  0  0  0  0  0  0  0  0
  140.9366   70.1754  228.3293 H   0  0  0  0  0  0  0  0  0  0  0  0
  140.3310   69.3300  226.4210 C   0  0  0  0  0  0  0  0  0  0  0  0
  139.9870   67.9790  226.9950 C   0  0  0  0  0  0  0  0  0  0  0  0
  139.6770   68.0810  228.3390 F   0  0  0  0  0  0  0  0  0  0  0  0
  138.8970   67.4620  226.3190 F   0  0  0  0  0  0  0  0  0  0  0  0
  141.0540   67.1080  226.8630 F   0  0  0  0  0  0  0  0  0  0  0  0
  140.1070   69.6010  225.0580 C   0  0  0  0  0  0  0  0  0  0  0  0
  139.7030   68.8133  224.4051 H   0  0  0  0  0  0  0  0  0  0  0  0
  139.9980   73.4440  222.6220 N   0  0  0  0  0  0  0  0  0  0  0  0
  140.4720   74.4940  221.9100 C   0  0  0  0  0  0  0  0  0  0  0  0
  140.0340   75.7940  221.9370 C   0  0  0  0  0  0  0  0  0  0  0  0
  139.2039   76.2251  222.5158 H   0  0  0  0  0  0  0  0  0  0  0  0
  1  2  1  0
  2  3  2  0
  3  4  1  0
  4  5  1  0
  5  6  1  0
  6  7  1  0
  6  8  1  0
  8  9  1  0
  8 10  1  0
  8 11  1  0
 11 12  1  0
 11 13  1  0
 11 14  1  0
  5 15  2  0
 15 16  1  0
 15 17  1  0
 17 18  2  0
 18 19  1  0
 19 20  2  0
 20 21  1  0
 20 22  1  0
 22 23  1  0
 22 24  2  0
 24 25  1  0
 24 26  1  0
 26 27  1  0
 27 28  1  0
 27 29  1  0
 27 30  1  0
 26 31  2  0
 31 32  1  0
 17 33  1  0
 33 34  1  0
 34 35  2  0
 35 36  1  0
 35  2  1  0
 34  4  1  0
 31 19  1  0
M  CHG  1  33  -1
M  END
>  <UniqueID>  (1) 
5

>  <SMILES>  (1) 
CCNc1c/c(=N/c2cccc(C(F)(F)F)c2)[n-]c2ccnn12

>  <Energy>  (1) 
80.35831887693398

>  <Genealogy>  (1) 
CCN=c1cc(Nc2cccc(C(F)(F)F)c2)[n-]c2ccnn12 (protonated)
CCNc1cc(=Nc2cccc(C(F)(F)F)c2)[n-]c2ccnn12 (tautomer)
CCNc1c/c(=N/c2cccc(C(F)(F)F)c2)[n-]c2ccnn12 (cis-trans isomerization)
CCNc1c/c(=N/c2cccc(C(F)(F)F)c2)[n-]c2ccnn12 (3D coordinates assigned)
CCNc1c/c(=N/c2cccc(C(F)(F)F)c2)[n-]c2ccnn12 (optimized conformer: 80.35831887693398 kcal/mol)

>  <smiles>  (1) 
CCN=c1cc(Nc2cccc(C(F)(F)F)c2)[nH]c2ccnn12

>  <score_type>  (1) 
oracle

>  <origin>  (1) 
autodockgpu

>  <m_score__min__energy>  (1) 
-6.1200000000000001

>  <m_primary>  (1) 
energy

>  <meeko>  (1) 
{"free_energy": -5.94, "intermolecular_energy": -7.43, "internal_energy": -0.79, "cluster_size": 19, "cluster_id": 1, "rank_in_cluster": 9}

>  <energy>  (1) 
-6.12

>  <cluster_rmsd>  (1) 
0.0

>  <rmsd>  (1) 
271.43

>  <cluster>  (1) 
1

$$$$
KNAQURWOGDABTO-UHFFFAOYNA-N
     RDKit          3D

 36 38  0  0  0  0  0  0  0  0999 V2000
  141.1375   77.4305  220.9761 H   0  0  0  0  0  0  0  0  0  0  0  0
  141.0710   76.3540  221.1920 C   0  0  0  0  0  0  0  0  0  0  0  0
  141.9880   75.4320  220.8150 N   0  0  0  0  0  0  0  0  0  0  0  0
  141.5560   74.2590  221.2490 N   0  0  0  0  0  0  0  0  0  0  0  0
  142.1530   73.0390  221.1230 C   0  0  0  0  0  0  0  0  0  0  0  0
  143.3990   72.8430  220.4250 N   0  0  0  0  0  0  0  0  0  0  0  0
  143.4840   72.0020  219.8100 H   0  0  0  0  0  0  0  0  0  0  0  0
  144.5030   73.8020  220.3820 C   0  0  0  0  0  0  0  0  0  0  0  0
  144.1594   74.7648  220.7882 H   0  0  0  0  0  0  0  0  0  0  0  0
  144.8261   73.9184  219.3370 H   0  0  0  0  0  0  0  0  0  0  0  0
  145.6890   73.3070  221.2060 C   0  0  0  0  0  0  0  0  0  0  0  0
  145.4573   73.4037  222.2769 H   0  0  0  0  0  0  0  0  0  0  0  0
  145.8862   72.2515  220.9674 H   0  0  0  0  0  0  0  0  0  0  0  0
  146.5781   73.9092  220.9674 H   0  0  0  0  0  0  0  0  0  0  0  0
  141.5150   71.9420  221.7290 C   0  0  0  0  0  0  0  0  0  0  0  0
  141.9609   70.9383  221.6670 H   0  0  0  0  0  0  0  0  0  0  0  0
  140.2990   72.1380  222.4170 C   0  0  0  0  0  0  0  0  0  0  0  0
  139.6980   71.1110  222.9460 N   0  0  0  0  0  0  0  0  0  0  0  0
  139.8420   70.6290  224.2930 C   0  0  0  0  0  0  0  0  0  0  0  0
  139.6220   69.2710  224.5460 C   0  0  0  0  0  0  0  0  0  0  0  0
  139.3120   68.6059  223.7265 H   0  0  0  0  0  0  0  0  0  0  0  0
  139.7930   68.7540  225.8310 C   0  0  0  0  0  0  0  0  0  0  0  0
  139.6085   67.6865  226.0218 H   0  0  0  0  0  0  0  0  0  0  0  0
  140.1980   69.5890  226.8760 C   0  0  0  0  0  0  0  0  0  0  0  0
  140.3343   69.1749  227.8859 H   0  0  0  0  0  0  0  0  0  0  0  0
  140.4320   70.9550  226.6430 C   0  0  0  0  0  0  0  0  0  0  0  0
  140.9390   71.8430  227.7520 C   0  0  0  0  0  0  0  0  0  0  0  0
  139.8930   72.2880  228.5420 F   0  0  0  0  0  0  0  0  0  0  0  0
  141.8250   71.1300  228.5370 F   0  0  0  0  0  0  0  0  0  0  0  0
  141.5870   72.9490  227.2310 F   0  0  0  0  0  0  0  0  0  0  0  0
  140.2840   71.4610  225.3390 C   0  0  0  0  0  0  0  0  0  0  0  0
  140.5158   72.5167  225.1346 H   0  0  0  0  0  0  0  0  0  0  0  0
  139.7510   73.3890  222.4820 N   0  0  0  0  0  0  0  0  0  0  0  0
  140.3980   74.4240  221.8980 C   0  0  0  0  0  0  0  0  0  0  0  0
  140.0330   75.7470  221.8910 C   0  0  0  0  0  0  0  0  0  0  0  0
  139.1388   76.2131  222.3305 H   0  0  0  0  0  0  0  0  0  0  0  0
  1  2  1  0
  2  3  2  0
  3  4  1  0
  4  5  1  0
  5  6  1  0
  6  7  1  0
  6  8  1  0
  8  9  1  0
  8 10  1  0
  8 11  1  0
 11 12  1  0
 11 13  1  0
 11 14  1  0
  5 15  2  0
 15 16  1  0
 15 17  1  0
 17 18  2  0
 18 19  1  0
 19 20  2  0
 20 21  1  0
 20 22  1  0
 22 23  1  0
 22 24  2  0
 24 25  1  0
 24 26  1  0
 26 27  1  0
 27 28  1  0
 27 29  1  0
 27 30  1  0
 26 31  2  0
 31 32  1  0
 17 33  1  0
 33 34  1  0
 34 35  2  0
 35 36  1  0
 35  2  1  0
 34  4  1  0
 31 19  1  0
M  CHG  1  33  -1
M  END
>  <UniqueID>  (2) 
5

>  <SMILES>  (2) 
CCNc1c/c(=N/c2cccc(C(F)(F)F)c2)[n-]c2ccnn12

>  <Energy>  (2) 
80.35831887693398

>  <Genealogy>  (2) 
CCN=c1cc(Nc2cccc(C(F)(F)F)c2)[n-]c2ccnn12 (protonated)
CCNc1cc(=Nc2cccc(C(F)(F)F)c2)[n-]c2ccnn12 (tautomer)
CCNc1c/c(=N/c2cccc(C(F)(F)F)c2)[n-]c2ccnn12 (cis-trans isomerization)
CCNc1c/c(=N/c2cccc(C(F)(F)F)c2)[n-]c2ccnn12 (3D coordinates assigned)
CCNc1c/c(=N/c2cccc(C(F)(F)F)c2)[n-]c2ccnn12 (optimized conformer: 80.35831887693398 kcal/mol)

>  <smiles>  (2) 
CCN=c1cc(Nc2cccc(C(F)(F)F)c2)[nH]c2ccnn12

>  <score_type>  (2) 
oracle

>  <origin>  (2) 
autodockgpu

>  <m_score__min__energy>  (2) 
-6.1200000000000001

>  <m_primary>  (2) 
energy

>  <meeko>  (2) 
{"free_energy": -6.02, "intermolecular_energy": -7.51, "internal_energy": -0.7, "cluster_size": 19, "cluster_id": 1, "rank_in_cluster": 5}

>  <energy>  (2) 
-6.1

>  <cluster_rmsd>  (2) 
1.85

>  <rmsd>  (2) 
271.04

>  <cluster>  (2) 
1

$$$$
KNAQURWOGDABTO-UHFFFAOYNA-N
     RDKit          3D

 36 38  0  0  0  0  0  0  0  0999 V2000
  141.7819   77.1867  220.5282 H   0  0  0  0  0  0  0  0  0  0  0  0
  141.5760   76.1480  220.8260 C   0  0  0  0  0  0  0  0  0  0  0  0
  142.3060   75.0750  220.4420 N   0  0  0  0  0  0  0  0  0  0  0  0
  141.7470   74.0100  220.9940 N   0  0  0  0  0  0  0  0  0  0  0  0
  142.1410   72.7070  220.9080 C   0  0  0  0  0  0  0  0  0  0  0  0
  143.2740   72.2800  220.1240 N   0  0  0  0  0  0  0  0  0  0  0  0
  143.1040   72.0200  219.1260 H   0  0  0  0  0  0  0  0  0  0  0  0
  144.6700   72.3260  220.5630 C   0  0  0  0  0  0  0  0  0  0  0  0
  145.3085   71.8946  219.7780 H   0  0  0  0  0  0  0  0  0  0  0  0
  144.7636   71.7499  221.4954 H   0  0  0  0  0  0  0  0  0  0  0  0
  145.1110   73.7620  220.8320 C   0  0  0  0  0  0  0  0  0  0  0  0
  145.1633   73.9323  221.9175 H   0  0  0  0  0  0  0  0  0  0  0  0
  146.1024   73.9307  220.3862 H   0  0  0  0  0  0  0  0  0  0  0  0
  144.3852   74.4581  220.3862 H   0  0  0  0  0  0  0  0  0  0  0  0
  141.4060   71.7590  221.6420 C   0  0  0  0  0  0  0  0  0  0  0  0
  141.6901   70.6966  221.6164 H   0  0  0  0  0  0  0  0  0  0  0  0
  140.3020   72.1810  222.4110 C   0  0  0  0  0  0  0  0  0  0  0  0
  139.6070   71.2920  223.0610 N   0  0  0  0  0  0  0  0  0  0  0  0
  139.9100   70.7370  224.3520 C   0  0  0  0  0  0  0  0  0  0  0  0
  139.9120   69.3450  224.4990 C   0  0  0  0  0  0  0  0  0  0  0  0
  139.6506   68.7044  223.6439 H   0  0  0  0  0  0  0  0  0  0  0  0
  140.2440   68.7650  225.7250 C   0  0  0  0  0  0  0  0  0  0  0  0
  140.2338   67.6705  225.8343 H   0  0  0  0  0  0  0  0  0  0  0  0
  140.5890   69.5700  226.8130 C   0  0  0  0  0  0  0  0  0  0  0  0
  140.8528   69.1059  227.7748 H   0  0  0  0  0  0  0  0  0  0  0  0
  140.6010   70.9690  226.6860 C   0  0  0  0  0  0  0  0  0  0  0  0
  141.0430   71.8380  227.8360 C   0  0  0  0  0  0  0  0  0  0  0  0
  141.8150   71.1140  228.7290 F   0  0  0  0  0  0  0  0  0  0  0  0
  141.7910   72.8930  227.3480 F   0  0  0  0  0  0  0  0  0  0  0  0
  139.9480   72.3380  228.5180 F   0  0  0  0  0  0  0  0  0  0  0  0
  140.2930   71.5450  225.4400 C   0  0  0  0  0  0  0  0  0  0  0  0
  140.3519   72.6362  225.3145 H   0  0  0  0  0  0  0  0  0  0  0  0
  139.9550   73.5030  222.4320 N   0  0  0  0  0  0  0  0  0  0  0  0
  140.6920   74.3900  221.7230 C   0  0  0  0  0  0  0  0  0  0  0  0
  140.5280   75.7510  221.6510 C   0  0  0  0  0  0  0  0  0  0  0  0
  139.7576   76.3745  222.1281 H   0  0  0  0  0  0  0  0  0  0  0  0
  1  2  1  0
  2  3  2  0
  3  4  1  0
  4  5  1  0
  5  6  1  0
  6  7  1  0
  6  8  1  0
  8  9  1  0
  8 10  1  0
  8 11  1  0
 11 12  1  0
 11 13  1  0
 11 14  1  0
  5 15  2  0
 15 16  1  0
 15 17  1  0
 17 18  2  0
 18 19  1  0
 19 20  2  0
 20 21  1  0
 20 22  1  0
 22 23  1  0
 22 24  2  0
 24 25  1  0
 24 26  1  0
 26 27  1  0
 27 28  1  0
 27 29  1  0
 27 30  1  0
 26 31  2  0
 31 32  1  0
 17 33  1  0
 33 34  1  0
 34 35  2  0
 35 36  1  0
 35  2  1  0
 34  4  1  0
 31 19  1  0
M  CHG  1  33  -1
M  END
>  <UniqueID>  (3) 
5

>  <SMILES>  (3) 
CCNc1c/c(=N/c2cccc(C(F)(F)F)c2)[n-]c2ccnn12

>  <Energy>  (3) 
80.35831887693398

>  <Genealogy>  (3) 
CCN=c1cc(Nc2cccc(C(F)(F)F)c2)[n-]c2ccnn12 (protonated)
CCNc1cc(=Nc2cccc(C(F)(F)F)c2)[n-]c2ccnn12 (tautomer)
CCNc1c/c(=N/c2cccc(C(F)(F)F)c2)[n-]c2ccnn12 (cis-trans isomerization)
CCNc1c/c(=N/c2cccc(C(F)(F)F)c2)[n-]c2ccnn12 (3D coordinates assigned)
CCNc1c/c(=N/c2cccc(C(F)(F)F)c2)[n-]c2ccnn12 (optimized conformer: 80.35831887693398 kcal/mol)

>  <smiles>  (3) 
CCN=c1cc(Nc2cccc(C(F)(F)F)c2)[nH]c2ccnn12

>  <score_type>  (3) 
oracle

>  <origin>  (3) 
autodockgpu

>  <m_score__min__energy>  (3) 
-6.1200000000000001

>  <m_primary>  (3) 
energy

>  <meeko>  (3) 
{"free_energy": -5.9, "intermolecular_energy": -7.4, "internal_energy": -0.77, "cluster_size": 19, "cluster_id": 1, "rank_in_cluster": 13}

>  <energy>  (3) 
-6.06

>  <cluster_rmsd>  (3) 
1.93

>  <rmsd>  (3) 
270.98

>  <cluster>  (3) 
1

$$$$
KNAQURWOGDABTO-UHFFFAOYNA-N
     RDKit          3D

 36 38  0  0  0  0  0  0  0  0999 V2000
  139.6998   78.1685  221.6450 H   0  0  0  0  0  0  0  0  0  0  0  0
  139.9520   77.0980  221.6670 C   0  0  0  0  0  0  0  0  0  0  0  0
  141.1120   76.5670  221.2130 N   0  0  0  0  0  0  0  0  0  0  0  0
  141.0400   75.2600  221.4040 N   0  0  0  0  0  0  0  0  0  0  0  0
  141.9770   74.3110  221.1200 C   0  0  0  0  0  0  0  0  0  0  0  0
  143.2430   74.6180  220.5020 N   0  0  0  0  0  0  0  0  0  0  0  0
  143.5440   75.6190  220.4820 H   0  0  0  0  0  0  0  0  0  0  0  0
  144.2160   73.6300  220.0340 C   0  0  0  0  0  0  0  0  0  0  0  0
  144.4306   73.8120  218.9706 H   0  0  0  0  0  0  0  0  0  0  0  0
  143.7909   72.6253  220.1746 H   0  0  0  0  0  0  0  0  0  0  0  0
  145.5160   73.7240  220.8290 C   0  0  0  0  0  0  0  0  0  0  0  0
  145.2896   73.7076  221.9053 H   0  0  0  0  0  0  0  0  0  0  0  0
  146.1623   72.8702  220.5772 H   0  0  0  0  0  0  0  0  0  0  0  0
  146.0328   74.6619  220.5772 H   0  0  0  0  0  0  0  0  0  0  0  0
  141.6810   72.9830  221.4760 C   0  0  0  0  0  0  0  0  0  0  0  0
  142.4084   72.1814  221.2803 H   0  0  0  0  0  0  0  0  0  0  0  0
  140.4440   72.6870  222.0860 C   0  0  0  0  0  0  0  0  0  0  0  0
  140.1640   71.4500  222.3820 N   0  0  0  0  0  0  0  0  0  0  0  0
  139.9690   70.9010  223.6970 C   0  0  0  0  0  0  0  0  0  0  0  0
  139.3070   69.6750  223.8200 C   0  0  0  0  0  0  0  0  0  0  0  0
  138.9194   69.1709  222.9224 H   0  0  0  0  0  0  0  0  0  0  0  0
  139.1350   69.0870  225.0740 C   0  0  0  0  0  0  0  0  0  0  0  0
  138.6050   68.1271  225.1616 H   0  0  0  0  0  0  0  0  0  0  0  0
  139.6340   69.7140  226.2180 C   0  0  0  0  0  0  0  0  0  0  0  0
  139.4980   69.2434  227.2029 H   0  0  0  0  0  0  0  0  0  0  0  0
  140.3090   70.9430  226.1180 C   0  0  0  0  0  0  0  0  0  0  0  0
  140.9120   71.5860  227.3410 C   0  0  0  0  0  0  0  0  0  0  0  0
  139.9530   72.2870  228.0510 F   0  0  0  0  0  0  0  0  0  0  0  0
  141.4460   70.6040  228.1540 F   0  0  0  0  0  0  0  0  0  0  0  0
  141.9150   72.4690  226.9820 F   0  0  0  0  0  0  0  0  0  0  0  0
  140.5020   71.5140  224.8470 C   0  0  0  0  0  0  0  0  0  0  0  0
  141.0747   72.4482  224.7507 H   0  0  0  0  0  0  0  0  0  0  0  0
  139.5460   73.6900  222.3200 N   0  0  0  0  0  0  0  0  0  0  0  0
  139.8690   74.9590  221.9760 C   0  0  0  0  0  0  0  0  0  0  0  0
  139.1250   76.0970  222.1650 C   0  0  0  0  0  0  0  0  0  0  0  0
  138.1206   76.1935  222.6031 H   0  0  0  0  0  0  0  0  0  0  0  0
  1  2  1  0
  2  3  2  0
  3  4  1  0
  4  5  1  0
  5  6  1  0
  6  7  1  0
  6  8  1  0
  8  9  1  0
  8 10  1  0
  8 11  1  0
 11 12  1  0
 11 13  1  0
 11 14  1  0
  5 15  2  0
 15 16  1  0
 15 17  1  0
 17 18  2  0
 18 19  1  0
 19 20  2  0
 20 21  1  0
 20 22  1  0
 22 23  1  0
 22 24  2  0
 24 25  1  0
 24 26  1  0
 26 27  1  0
 27 28  1  0
 27 29  1  0
 27 30  1  0
 26 31  2  0
 31 32  1  0
 17 33  1  0
 33 34  1  0
 34 35  2  0
 35 36  1  0
 35  2  1  0
 34  4  1  0
 31 19  1  0
M  CHG  1  33  -1
M  END
>  <UniqueID>  (4) 
5

>  <SMILES>  (4) 
CCNc1c/c(=N/c2cccc(C(F)(F)F)c2)[n-]c2ccnn12

>  <Energy>  (4) 
80.35831887693398

>  <Genealogy>  (4) 
CCN=c1cc(Nc2cccc(C(F)(F)F)c2)[n-]c2ccnn12 (protonated)
CCNc1cc(=Nc2cccc(C(F)(F)F)c2)[n-]c2ccnn12 (tautomer)
CCNc1c/c(=N/c2cccc(C(F)(F)F)c2)[n-]c2ccnn12 (cis-trans isomerization)
CCNc1c/c(=N/c2cccc(C(F)(F)F)c2)[n-]c2ccnn12 (3D coordinates assigned)
CCNc1c/c(=N/c2cccc(C(F)(F)F)c2)[n-]c2ccnn12 (optimized conformer: 80.35831887693398 kcal/mol)

>  <smiles>  (4) 
CCN=c1cc(Nc2cccc(C(F)(F)F)c2)[nH]c2ccnn12

>  <score_type>  (4) 
oracle

>  <origin>  (4) 
autodockgpu

>  <m_score__min__energy>  (4) 
-6.1200000000000001

>  <m_primary>  (4) 
energy

>  <meeko>  (4) 
{"free_energy": -5.89, "intermolecular_energy": -7.38, "internal_energy": -0.83, "cluster_size": 19, "cluster_id": 1, "rank_in_cluster": 15}

>  <energy>  (4) 
-6.03

>  <cluster_rmsd>  (4) 
1.88

>  <rmsd>  (4) 
270.99

>  <cluster>  (4) 
1

$$$$
KNAQURWOGDABTO-UHFFFAOYNA-N
     RDKit          3D

 36 38  0  0  0  0  0  0  0  0999 V2000
  141.5900   77.2776  220.5612 H   0  0  0  0  0  0  0  0  0  0  0  0
  141.4200   76.2380  220.8780 C   0  0  0  0  0  0  0  0  0  0  0  0
  142.2770   75.2120  220.6590 N   0  0  0  0  0  0  0  0  0  0  0  0
  141.7230   74.1290  221.1770 N   0  0  0  0  0  0  0  0  0  0  0  0
  142.2210   72.8600  221.2150 C   0  0  0  0  0  0  0  0  0  0  0  0
  143.4870   72.4960  220.6270 N   0  0  0  0  0  0  0  0  0  0  0  0
  143.6220   71.4980  220.3450 H   0  0  0  0  0  0  0  0  0  0  0  0
  144.5430   73.4340  220.2490 C   0  0  0  0  0  0  0  0  0  0  0  0
  144.1339   74.4551  220.2486 H   0  0  0  0  0  0  0  0  0  0  0  0
  144.9086   73.1649  219.2470 H   0  0  0  0  0  0  0  0  0  0  0  0
  145.7120   73.3650  221.2280 C   0  0  0  0  0  0  0  0  0  0  0  0
  145.3288   73.3876  222.2588 H   0  0  0  0  0  0  0  0  0  0  0  0
  146.2719   72.4322  221.0653 H   0  0  0  0  0  0  0  0  0  0  0  0
  146.3778   74.2254  221.0653 H   0  0  0  0  0  0  0  0  0  0  0  0
  141.4580   71.8850  221.8830 C   0  0  0  0  0  0  0  0  0  0  0  0
  141.8212   70.8491  221.9531 H   0  0  0  0  0  0  0  0  0  0  0  0
  140.2240   72.2460  222.4620 C   0  0  0  0  0  0  0  0  0  0  0  0
  139.5080   71.3300  223.0490 N   0  0  0  0  0  0  0  0  0  0  0  0
  139.7480   70.7450  224.3400 C   0  0  0  0  0  0  0  0  0  0  0  0
  139.5990   69.3620  224.4880 C   0  0  0  0  0  0  0  0  0  0  0  0
  139.2701   68.7533  223.6328 H   0  0  0  0  0  0  0  0  0  0  0  0
  139.8650   68.7490  225.7140 C   0  0  0  0  0  0  0  0  0  0  0  0
  139.7373   67.6619  225.8229 H   0  0  0  0  0  0  0  0  0  0  0  0
  140.2930   69.5130  226.8030 C   0  0  0  0  0  0  0  0  0  0  0  0
  140.5027   69.0238  227.7657 H   0  0  0  0  0  0  0  0  0  0  0  0
  140.4570   70.9030  226.6750 C   0  0  0  0  0  0  0  0  0  0  0  0
  140.9900   71.7190  227.8260 C   0  0  0  0  0  0  0  0  0  0  0  0
  141.7490   70.9330  228.6750 F   0  0  0  0  0  0  0  0  0  0  0  0
  141.7790   72.7400  227.3320 F   0  0  0  0  0  0  0  0  0  0  0  0
  139.9500   72.2660  228.5570 F   0  0  0  0  0  0  0  0  0  0  0  0
  140.2150   71.5080  225.4280 C   0  0  0  0  0  0  0  0  0  0  0  0
  140.3920   72.5863  225.3016 H   0  0  0  0  0  0  0  0  0  0  0  0
  139.7800   73.5350  222.3650 N   0  0  0  0  0  0  0  0  0  0  0  0
  140.5460   74.4500  221.7260 C   0  0  0  0  0  0  0  0  0  0  0  0
  140.2940   75.7890  221.5610 C   0  0  0  0  0  0  0  0  0  0  0  0
  139.4166   76.3660  221.8886 H   0  0  0  0  0  0  0  0  0  0  0  0
  1  2  1  0
  2  3  2  0
  3  4  1  0
  4  5  1  0
  5  6  1  0
  6  7  1  0
  6  8  1  0
  8  9  1  0
  8 10  1  0
  8 11  1  0
 11 12  1  0
 11 13  1  0
 11 14  1  0
  5 15  2  0
 15 16  1  0
 15 17  1  0
 17 18  2  0
 18 19  1  0
 19 20  2  0
 20 21  1  0
 20 22  1  0
 22 23  1  0
 22 24  2  0
 24 25  1  0
 24 26  1  0
 26 27  1  0
 27 28  1  0
 27 29  1  0
 27 30  1  0
 26 31  2  0
 31 32  1  0
 17 33  1  0
 33 34  1  0
 34 35  2  0
 35 36  1  0
 35  2  1  0
 34  4  1  0
 31 19  1  0
M  CHG  1  33  -1
M  END
>  <UniqueID>  (5) 
5

>  <SMILES>  (5) 
CCNc1c/c(=N/c2cccc(C(F)(F)F)c2)[n-]c2ccnn12

>  <Energy>  (5) 
80.35831887693398

>  <Genealogy>  (5) 
CCN=c1cc(Nc2cccc(C(F)(F)F)c2)[n-]c2ccnn12 (protonated)
CCNc1cc(=Nc2cccc(C(F)(F)F)c2)[n-]c2ccnn12 (tautomer)
CCNc1c/c(=N/c2cccc(C(F)(F)F)c2)[n-]c2ccnn12 (cis-trans isomerization)
CCNc1c/c(=N/c2cccc(C(F)(F)F)c2)[n-]c2ccnn12 (3D coordinates assigned)
CCNc1c/c(=N/c2cccc(C(F)(F)F)c2)[n-]c2ccnn12 (optimized conformer: 80.35831887693398 kcal/mol)

>  <smiles>  (5) 
CCN=c1cc(Nc2cccc(C(F)(F)F)c2)[nH]c2ccnn12

>  <score_type>  (5) 
oracle

>  <origin>  (5) 
autodockgpu

>  <m_score__min__energy>  (5) 
-6.1200000000000001

>  <m_primary>  (5) 
energy

>  <meeko>  (5) 
{"free_energy": -6.12, "intermolecular_energy": -7.61, "internal_energy": -0.65, "cluster_size": 19, "cluster_id": 1, "rank_in_cluster": 1}

>  <energy>  (5) 
-6.02

>  <cluster_rmsd>  (5) 
0.29

>  <rmsd>  (5) 
271.41

>  <cluster>  (5) 
1

$$$$
KNAQURWOGDABTO-UHFFFAOYNA-N
     RDKit          3D

 36 38  0  0  0  0  0  0  0  0999 V2000
  139.9912   78.2359  221.6997 H   0  0  0  0  0  0  0  0  0  0  0  0
  140.1650   77.1500  221.7230 C   0  0  0  0  0  0  0  0  0  0  0  0
  141.2960   76.5380  221.2970 N   0  0  0  0  0  0  0  0  0  0  0  0
  141.1240   75.2400  221.4780 N   0  0  0  0  0  0  0  0  0  0  0  0
  141.9970   74.2250  221.2140 C   0  0  0  0  0  0  0  0  0  0  0  0
  143.2980   74.4420  220.6310 N   0  0  0  0  0  0  0  0  0  0  0  0
  143.6320   75.4280  220.5430 H   0  0  0  0  0  0  0  0  0  0  0  0
  144.2560   73.3900  220.2900 C   0  0  0  0  0  0  0  0  0  0  0  0
  144.3226   73.3050  219.1953 H   0  0  0  0  0  0  0  0  0  0  0  0
  143.9085   72.4433  220.7293 H   0  0  0  0  0  0  0  0  0  0  0  0
  145.6390   73.7080  220.8510 C   0  0  0  0  0  0  0  0  0  0  0  0
  145.5997   73.6990  221.9503 H   0  0  0  0  0  0  0  0  0  0  0  0
  146.3584   72.9518  220.5036 H   0  0  0  0  0  0  0  0  0  0  0  0
  145.9559   74.7024  220.5036 H   0  0  0  0  0  0  0  0  0  0  0  0
  141.5950   72.9210  221.5540 C   0  0  0  0  0  0  0  0  0  0  0  0
  142.2668   72.0690  221.3728 H   0  0  0  0  0  0  0  0  0  0  0  0
  140.3240   72.7140  222.1290 C   0  0  0  0  0  0  0  0  0  0  0  0
  139.9470   71.4990  222.4110 N   0  0  0  0  0  0  0  0  0  0  0  0
  139.8870   70.8960  223.7140 C   0  0  0  0  0  0  0  0  0  0  0  0
  139.3740   69.5990  223.8290 C   0  0  0  0  0  0  0  0  0  0  0  0
  138.9968   69.0792  222.9360 H   0  0  0  0  0  0  0  0  0  0  0  0
  139.3380   68.9610  225.0700 C   0  0  0  0  0  0  0  0  0  0  0  0
  138.9233   67.9455  225.1525 H   0  0  0  0  0  0  0  0  0  0  0  0
  139.8270   69.6080  226.2080 C   0  0  0  0  0  0  0  0  0  0  0  0
  139.7992   69.0978  227.1821 H   0  0  0  0  0  0  0  0  0  0  0  0
  140.3540   70.9070  226.1140 C   0  0  0  0  0  0  0  0  0  0  0  0
  140.9500   71.5800  227.3250 C   0  0  0  0  0  0  0  0  0  0  0  0
  141.4600   70.6430  228.2060 F   0  0  0  0  0  0  0  0  0  0  0  0
  141.9700   72.4210  226.9220 F   0  0  0  0  0  0  0  0  0  0  0  0
  139.9900   72.3220  227.9910 F   0  0  0  0  0  0  0  0  0  0  0  0
  140.4120   71.5320  224.8550 C   0  0  0  0  0  0  0  0  0  0  0  0
  140.8718   72.5269  224.7612 H   0  0  0  0  0  0  0  0  0  0  0  0
  139.4950   73.7790  222.3450 N   0  0  0  0  0  0  0  0  0  0  0  0
  139.9190   75.0220  222.0170 C   0  0  0  0  0  0  0  0  0  0  0  0
  139.2550   76.2100  222.1940 C   0  0  0  0  0  0  0  0  0  0  0  0
  138.2494   76.3775  222.6072 H   0  0  0  0  0  0  0  0  0  0  0  0
  1  2  1  0
  2  3  2  0
  3  4  1  0
  4  5  1  0
  5  6  1  0
  6  7  1  0
  6  8  1  0
  8  9  1  0
  8 10  1  0
  8 11  1  0
 11 12  1  0
 11 13  1  0
 11 14  1  0
  5 15  2  0
 15 16  1  0
 15 17  1  0
 17 18  2  0
 18 19  1  0
 19 20  2  0
 20 21  1  0
 20 22  1  0
 22 23  1  0
 22 24  2  0
 24 25  1  0
 24 26  1  0
 26 27  1  0
 27 28  1  0
 27 29  1  0
 27 30  1  0
 26 31  2  0
 31 32  1  0
 17 33  1  0
 33 34  1  0
 34 35  2  0
 35 36  1  0
 35  2  1  0
 34  4  1  0
 31 19  1  0
M  CHG  1  33  -1
M  END
>  <UniqueID>  (6) 
5

>  <SMILES>  (6) 
CCNc1c/c(=N/c2cccc(C(F)(F)F)c2)[n-]c2ccnn12

>  <Energy>  (6) 
80.35831887693398

>  <Genealogy>  (6) 
CCN=c1cc(Nc2cccc(C(F)(F)F)c2)[n-]c2ccnn12 (protonated)
CCNc1cc(=Nc2cccc(C(F)(F)F)c2)[n-]c2ccnn12 (tautomer)
CCNc1c/c(=N/c2cccc(C(F)(F)F)c2)[n-]c2ccnn12 (cis-trans isomerization)
CCNc1c/c(=N/c2cccc(C(F)(F)F)c2)[n-]c2ccnn12 (3D coordinates assigned)
CCNc1c/c(=N/c2cccc(C(F)(F)F)c2)[n-]c2ccnn12 (optimized conformer: 80.35831887693398 kcal/mol)

>  <smiles>  (6) 
CCN=c1cc(Nc2cccc(C(F)(F)F)c2)[nH]c2ccnn12

>  <score_type>  (6) 
oracle

>  <origin>  (6) 
autodockgpu

>  <m_score__min__energy>  (6) 
-6.1200000000000001

>  <m_primary>  (6) 
energy

>  <meeko>  (6) 
{"free_energy": -5.81, "intermolecular_energy": -7.3, "internal_energy": -0.84, "cluster_size": 19, "cluster_id": 1, "rank_in_cluster": 19}

>  <energy>  (6) 
-6.01

>  <cluster_rmsd>  (6) 
1.88

>  <rmsd>  (6) 
271.0

>  <cluster>  (6) 
1

$$$$
KNAQURWOGDABTO-UHFFFAOYNA-N
     RDKit          3D

 36 38  0  0  0  0  0  0  0  0999 V2000
  140.7051   77.5468  220.8705 H   0  0  0  0  0  0  0  0  0  0  0  0
  140.7720   76.4740  221.1040 C   0  0  0  0  0  0  0  0  0  0  0  0
  141.6880   75.6250  220.5810 N   0  0  0  0  0  0  0  0  0  0  0  0
  141.4430   74.4300  221.0940 N   0  0  0  0  0  0  0  0  0  0  0  0
  142.1140   73.2630  220.8770 C   0  0  0  0  0  0  0  0  0  0  0  0
  143.2330   73.1570  219.9740 N   0  0  0  0  0  0  0  0  0  0  0  0
  143.1830   73.6870  219.0750 H   0  0  0  0  0  0  0  0  0  0  0  0
  144.5010   72.4920  220.2750 C   0  0  0  0  0  0  0  0  0  0  0  0
  144.9372   72.1090  219.3406 H   0  0  0  0  0  0  0  0  0  0  0  0
  144.3066   71.6667  220.9757 H   0  0  0  0  0  0  0  0  0  0  0  0
  145.4850   73.4610  220.9250 C   0  0  0  0  0  0  0  0  0  0  0  0
  145.4067   73.3839  222.0195 H   0  0  0  0  0  0  0  0  0  0  0  0
  146.5089   73.2088  220.6120 H   0  0  0  0  0  0  0  0  0  0  0  0
  145.2485   74.4887  220.6120 H   0  0  0  0  0  0  0  0  0  0  0  0
  141.6890   72.1300  221.5950 C   0  0  0  0  0  0  0  0  0  0  0  0
  142.2044   71.1668  221.4663 H   0  0  0  0  0  0  0  0  0  0  0  0
  140.5970   72.2390  222.4810 C   0  0  0  0  0  0  0  0  0  0  0  0
  140.1900   71.1770  223.1160 N   0  0  0  0  0  0  0  0  0  0  0  0
  140.4050   70.8680  224.5040 C   0  0  0  0  0  0  0  0  0  0  0  0
  140.8450   71.8850  225.3580 C   0  0  0  0  0  0  0  0  0  0  0  0
  141.0512   72.8869  224.9535 H   0  0  0  0  0  0  0  0  0  0  0  0
  141.0240   71.6370  226.7190 C   0  0  0  0  0  0  0  0  0  0  0  0
  141.3804   72.4404  227.3804 H   0  0  0  0  0  0  0  0  0  0  0  0
  140.7520   70.3710  227.2450 C   0  0  0  0  0  0  0  0  0  0  0  0
  140.8909   70.1833  228.3199 H   0  0  0  0  0  0  0  0  0  0  0  0
  140.3020   69.3370  226.4070 C   0  0  0  0  0  0  0  0  0  0  0  0
  139.9380   67.9910  226.9830 C   0  0  0  0  0  0  0  0  0  0  0  0
  140.9980   67.1070  226.8720 F   0  0  0  0  0  0  0  0  0  0  0  0
  139.6140   68.1400  228.3180 F   0  0  0  0  0  0  0  0  0  0  0  0
  138.8540   67.4520  226.3130 F   0  0  0  0  0  0  0  0  0  0  0  0
  140.0980   69.6030  225.0410 C   0  0  0  0  0  0  0  0  0  0  0  0
  139.6952   68.8160  224.3865 H   0  0  0  0  0  0  0  0  0  0  0  0
  139.9610   73.4390  222.6300 N   0  0  0  0  0  0  0  0  0  0  0  0
  140.4040   74.5110  221.9330 C   0  0  0  0  0  0  0  0  0  0  0  0
  139.9280   75.7980  221.9780 C   0  0  0  0  0  0  0  0  0  0  0  0
  139.0855   76.1966  222.5622 H   0  0  0  0  0  0  0  0  0  0  0  0
  1  2  1  0
  2  3  2  0
  3  4  1  0
  4  5  1  0
  5  6  1  0
  6  7  1  0
  6  8  1  0
  8  9  1  0
  8 10  1  0
  8 11  1  0
 11 12  1  0
 11 13  1  0
 11 14  1  0
  5 15  2  0
 15 16  1  0
 15 17  1  0
 17 18  2  0
 18 19  1  0
 19 20  2  0
 20 21  1  0
 20 22  1  0
 22 23  1  0
 22 24  2  0
 24 25  1  0
 24 26  1  0
 26 27  1  0
 27 28  1  0
 27 29  1  0
 27 30  1  0
 26 31  2  0
 31 32  1  0
 17 33  1  0
 33 34  1  0
 34 35  2  0
 35 36  1  0
 35  2  1  0
 34  4  1  0
 31 19  1  0
M  CHG  1  33  -1
M  END
>  <UniqueID>  (7) 
5

>  <SMILES>  (7) 
CCNc1c/c(=N/c2cccc(C(F)(F)F)c2)[n-]c2ccnn12

>  <Energy>  (7) 
80.35831887693398

>  <Genealogy>  (7) 
CCN=c1cc(Nc2cccc(C(F)(F)F)c2)[n-]c2ccnn12 (protonated)
CCNc1cc(=Nc2cccc(C(F)(F)F)c2)[n-]c2ccnn12 (tautomer)
CCNc1c/c(=N/c2cccc(C(F)(F)F)c2)[n-]c2ccnn12 (cis-trans isomerization)
CCNc1c/c(=N/c2cccc(C(F)(F)F)c2)[n-]c2ccnn12 (3D coordinates assigned)
CCNc1c/c(=N/c2cccc(C(F)(F)F)c2)[n-]c2ccnn12 (optimized conformer: 80.35831887693398 kcal/mol)

>  <smiles>  (7) 
CCN=c1cc(Nc2cccc(C(F)(F)F)c2)[nH]c2ccnn12

>  <score_type>  (7) 
oracle

>  <origin>  (7) 
autodockgpu

>  <m_score__min__energy>  (7) 
-6.1200000000000001

>  <m_primary>  (7) 
energy

>  <meeko>  (7) 
{"free_energy": -5.93, "intermolecular_energy": -7.42, "internal_energy": -0.81, "cluster_size": 19, "cluster_id": 1, "rank_in_cluster": 11}

>  <energy>  (7) 
-6.01

>  <cluster_rmsd>  (7) 
1.91

>  <rmsd>  (7) 
270.98

>  <cluster>  (7) 
1

$$$$
KNAQURWOGDABTO-UHFFFAOYNA-N
     RDKit          3D

 36 38  0  0  0  0  0  0  0  0999 V2000
  141.0516   77.4192  220.4270 H   0  0  0  0  0  0  0  0  0  0  0  0
  141.0530   76.3600  220.7240 C   0  0  0  0  0  0  0  0  0  0  0  0
  141.9660   75.4450  220.3210 N   0  0  0  0  0  0  0  0  0  0  0  0
  141.6300   74.2930  220.8770 N   0  0  0  0  0  0  0  0  0  0  0  0
  142.2630   73.0880  220.7760 C   0  0  0  0  0  0  0  0  0  0  0  0
  143.4400   72.8850  219.9690 N   0  0  0  0  0  0  0  0  0  0  0  0
  143.3800   73.1250  218.9530 H   0  0  0  0  0  0  0  0  0  0  0  0
  144.7610   72.5170  220.4800 C   0  0  0  0  0  0  0  0  0  0  0  0
  145.2751   71.8945  219.7328 H   0  0  0  0  0  0  0  0  0  0  0  0
  144.6307   71.9615  221.4205 H   0  0  0  0  0  0  0  0  0  0  0  0
  145.6040   73.7580  220.7610 C   0  0  0  0  0  0  0  0  0  0  0  0
  145.6992   73.8982  221.8479 H   0  0  0  0  0  0  0  0  0  0  0  0
  146.6031   73.6304  220.3188 H   0  0  0  0  0  0  0  0  0  0  0  0
  145.1172   74.6398  220.3188 H   0  0  0  0  0  0  0  0  0  0  0  0
  141.7350   72.0170  221.5190 C   0  0  0  0  0  0  0  0  0  0  0  0
  142.2138   71.0274  221.4813 H   0  0  0  0  0  0  0  0  0  0  0  0
  140.5870   72.2210  222.3130 C   0  0  0  0  0  0  0  0  0  0  0  0
  140.0860   71.2150  222.9710 N   0  0  0  0  0  0  0  0  0  0  0  0
  140.3250   70.8830  224.3500 C   0  0  0  0  0  0  0  0  0  0  0  0
  140.7610   71.8910  225.2160 C   0  0  0  0  0  0  0  0  0  0  0  0
  140.9468   72.9030  224.8270 H   0  0  0  0  0  0  0  0  0  0  0  0
  140.9620   71.6210  226.5710 C   0  0  0  0  0  0  0  0  0  0  0  0
  141.3134   72.4180  227.2429 H   0  0  0  0  0  0  0  0  0  0  0  0
  140.7180   70.3410  227.0760 C   0  0  0  0  0  0  0  0  0  0  0  0
  140.8751   70.1355  228.1452 H   0  0  0  0  0  0  0  0  0  0  0  0
  140.2730   69.3150  226.2250 C   0  0  0  0  0  0  0  0  0  0  0  0
  139.9380   67.9530  226.7800 C   0  0  0  0  0  0  0  0  0  0  0  0
  140.9910   67.0750  226.5910 F   0  0  0  0  0  0  0  0  0  0  0  0
  139.6820   68.0640  228.1340 F   0  0  0  0  0  0  0  0  0  0  0  0
  138.8220   67.4320  226.1500 F   0  0  0  0  0  0  0  0  0  0  0  0
  140.0450   69.6040  224.8670 C   0  0  0  0  0  0  0  0  0  0  0  0
  139.6444   68.8235  224.2034 H   0  0  0  0  0  0  0  0  0  0  0  0
  139.9960   73.4520  222.3470 N   0  0  0  0  0  0  0  0  0  0  0  0
  140.5370   74.4640  221.6290 C   0  0  0  0  0  0  0  0  0  0  0  0
  140.1170   75.7700  221.5670 C   0  0  0  0  0  0  0  0  0  0  0  0
  139.2523   76.2355  222.0626 H   0  0  0  0  0  0  0  0  0  0  0  0
  1  2  1  0
  2  3  2  0
  3  4  1  0
  4  5  1  0
  5  6  1  0
  6  7  1  0
  6  8  1  0
  8  9  1  0
  8 10  1  0
  8 11  1  0
 11 12  1  0
 11 13  1  0
 11 14  1  0
  5 15  2  0
 15 16  1  0
 15 17  1  0
 17 18  2  0
 18 19  1  0
 19 20  2  0
 20 21  1  0
 20 22  1  0
 22 23  1  0
 22 24  2  0
 24 25  1  0
 24 26  1  0
 26 27  1  0
 27 28  1  0
 27 29  1  0
 27 30  1  0
 26 31  2  0
 31 32  1  0
 17 33  1  0
 33 34  1  0
 34 35  2  0
 35 36  1  0
 35  2  1  0
 34  4  1  0
 31 19  1  0
M  CHG  1  33  -1
M  END
>  <UniqueID>  (8) 
5

>  <SMILES>  (8) 
CCNc1c/c(=N/c2cccc(C(F)(F)F)c2)[n-]c2ccnn12

>  <Energy>  (8) 
80.35831887693398

>  <Genealogy>  (8) 
CCN=c1cc(Nc2cccc(C(F)(F)F)c2)[n-]c2ccnn12 (protonated)
CCNc1cc(=Nc2cccc(C(F)(F)F)c2)[n-]c2ccnn12 (tautomer)
CCNc1c/c(=N/c2cccc(C(F)(F)F)c2)[n-]c2ccnn12 (cis-trans isomerization)
CCNc1c/c(=N/c2cccc(C(F)(F)F)c2)[n-]c2ccnn12 (3D coordinates assigned)
CCNc1c/c(=N/c2cccc(C(F)(F)F)c2)[n-]c2ccnn12 (optimized conformer: 80.35831887693398 kcal/mol)

>  <smiles>  (8) 
CCN=c1cc(Nc2cccc(C(F)(F)F)c2)[nH]c2ccnn12

>  <score_type>  (8) 
oracle

>  <origin>  (8) 
autodockgpu

>  <m_score__min__energy>  (8) 
-6.1200000000000001

>  <m_primary>  (8) 
energy

>  <meeko>  (8) 
{"free_energy": -6.01, "intermolecular_energy": -7.5, "internal_energy": -0.78, "cluster_size": 19, "cluster_id": 1, "rank_in_cluster": 7}

>  <energy>  (8) 
-5.99

>  <cluster_rmsd>  (8) 
1.91

>  <rmsd>  (8) 
270.99

>  <cluster>  (8) 
1

$$$$
KNAQURWOGDABTO-UHFFFAOYNA-N
     RDKit          3D

 36 38  0  0  0  0  0  0  0  0999 V2000
  140.6217   77.8623  221.2854 H   0  0  0  0  0  0  0  0  0  0  0  0
  140.7300   76.7710  221.3710 C   0  0  0  0  0  0  0  0  0  0  0  0
  141.7540   76.0530  220.8530 N   0  0  0  0  0  0  0  0  0  0  0  0
  141.5290   74.7850  221.1560 N   0  0  0  0  0  0  0  0  0  0  0  0
  142.2950   73.6960  220.8630 C   0  0  0  0  0  0  0  0  0  0  0  0
  143.5180   73.7780  220.1030 N   0  0  0  0  0  0  0  0  0  0  0  0
  143.6620   74.6230  219.5050 H   0  0  0  0  0  0  0  0  0  0  0  0
  144.6460   72.8530  220.2140 C   0  0  0  0  0  0  0  0  0  0  0  0
  145.0684   72.6790  219.2134 H   0  0  0  0  0  0  0  0  0  0  0  0
  144.2842   71.9096  220.6488 H   0  0  0  0  0  0  0  0  0  0  0  0
  145.7320   73.4220  221.1220 C   0  0  0  0  0  0  0  0  0  0  0  0
  145.4463   73.2723  222.1736 H   0  0  0  0  0  0  0  0  0  0  0  0
  146.6832   72.9064  220.9235 H   0  0  0  0  0  0  0  0  0  0  0  0
  145.8495   74.4975  220.9235 H   0  0  0  0  0  0  0  0  0  0  0  0
  141.8630   72.4500  221.3530 C   0  0  0  0  0  0  0  0  0  0  0  0
  142.4513   71.5420  221.1542 H   0  0  0  0  0  0  0  0  0  0  0  0
  140.6700   72.3740  222.1010 C   0  0  0  0  0  0  0  0  0  0  0  0
  140.2600   71.2120  222.5220 N   0  0  0  0  0  0  0  0  0  0  0  0
  140.0470   70.8160  223.8880 C   0  0  0  0  0  0  0  0  0  0  0  0
  139.3220   69.6470  224.1420 C   0  0  0  0  0  0  0  0  0  0  0  0
  138.9005   69.0724  223.3040 H   0  0  0  0  0  0  0  0  0  0  0  0
  139.1300   69.2050  225.4520 C   0  0  0  0  0  0  0  0  0  0  0  0
  138.5504   68.2897  225.6426 H   0  0  0  0  0  0  0  0  0  0  0  0
  139.6720   69.9220  226.5220 C   0  0  0  0  0  0  0  0  0  0  0  0
  139.5199   69.5667  227.5519 H   0  0  0  0  0  0  0  0  0  0  0  0
  140.4100   71.0940  226.2890 C   0  0  0  0  0  0  0  0  0  0  0  0
  141.0580   71.8300  227.4360 C   0  0  0  0  0  0  0  0  0  0  0  0
  140.1410   72.6440  228.0780 F   0  0  0  0  0  0  0  0  0  0  0  0
  141.5560   70.9120  228.3410 F   0  0  0  0  0  0  0  0  0  0  0  0
  142.0960   72.6240  226.9810 F   0  0  0  0  0  0  0  0  0  0  0  0
  140.6230   71.5170  224.9640 C   0  0  0  0  0  0  0  0  0  0  0  0
  141.2448   72.4028  224.7675 H   0  0  0  0  0  0  0  0  0  0  0  0
  139.9430   73.5070  222.3360 N   0  0  0  0  0  0  0  0  0  0  0  0
  140.3950   74.6910  221.8600 C   0  0  0  0  0  0  0  0  0  0  0  0
  139.8340   75.9330  222.0270 C   0  0  0  0  0  0  0  0  0  0  0  0
  138.9043   76.1999  222.5509 H   0  0  0  0  0  0  0  0  0  0  0  0
  1  2  1  0
  2  3  2  0
  3  4  1  0
  4  5  1  0
  5  6  1  0
  6  7  1  0
  6  8  1  0
  8  9  1  0
  8 10  1  0
  8 11  1  0
 11 12  1  0
 11 13  1  0
 11 14  1  0
  5 15  2  0
 15 16  1  0
 15 17  1  0
 17 18  2  0
 18 19  1  0
 19 20  2  0
 20 21  1  0
 20 22  1  0
 22 23  1  0
 22 24  2  0
 24 25  1  0
 24 26  1  0
 26 27  1  0
 27 28  1  0
 27 29  1  0
 27 30  1  0
 26 31  2  0
 31 32  1  0
 17 33  1  0
 33 34  1  0
 34 35  2  0
 35 36  1  0
 35  2  1  0
 34  4  1  0
 31 19  1  0
M  CHG  1  33  -1
M  END
>  <UniqueID>  (9) 
5

>  <SMILES>  (9) 
CCNc1c/c(=N/c2cccc(C(F)(F)F)c2)[n-]c2ccnn12

>  <Energy>  (9) 
80.35831887693398

>  <Genealogy>  (9) 
CCN=c1cc(Nc2cccc(C(F)(F)F)c2)[n-]c2ccnn12 (protonated)
CCNc1cc(=Nc2cccc(C(F)(F)F)c2)[n-]c2ccnn12 (tautomer)
CCNc1c/c(=N/c2cccc(C(F)(F)F)c2)[n-]c2ccnn12 (cis-trans isomerization)
CCNc1c/c(=N/c2cccc(C(F)(F)F)c2)[n-]c2ccnn12 (3D coordinates assigned)
CCNc1c/c(=N/c2cccc(C(F)(F)F)c2)[n-]c2ccnn12 (optimized conformer: 80.35831887693398 kcal/mol)

>  <smiles>  (9) 
CCN=c1cc(Nc2cccc(C(F)(F)F)c2)[nH]c2ccnn12

>  <score_type>  (9) 
oracle

>  <origin>  (9) 
autodockgpu

>  <m_score__min__energy>  (9) 
-6.1200000000000001

>  <m_primary>  (9) 
energy

>  <meeko>  (9) 
{"free_energy": -5.82, "intermolecular_energy": -7.32, "internal_energy": -0.85, "cluster_size": 19, "cluster_id": 1, "rank_in_cluster": 18}

>  <energy>  (9) 
-5.94

>  <cluster_rmsd>  (9) 
1.89

>  <rmsd>  (9) 
271.11

>  <cluster>  (9) 
1

$$$$
KNAQURWOGDABTO-UHFFFAOYNA-N
     RDKit          3D

 36 38  0  0  0  0  0  0  0  0999 V2000
  141.4232   77.3223  220.3123 H   0  0  0  0  0  0  0  0  0  0  0  0
  141.3620   76.2750  220.6430 C   0  0  0  0  0  0  0  0  0  0  0  0
  142.2350   75.3010  220.2920 N   0  0  0  0  0  0  0  0  0  0  0  0
  141.8260   74.1870  220.8770 N   0  0  0  0  0  0  0  0  0  0  0  0
  142.3960   72.9490  220.8310 C   0  0  0  0  0  0  0  0  0  0  0  0
  143.5800   72.6580  220.0590 N   0  0  0  0  0  0  0  0  0  0  0  0
  143.5580   71.8220  219.4330 H   0  0  0  0  0  0  0  0  0  0  0  0
  144.7570   73.5220  219.9620 C   0  0  0  0  0  0  0  0  0  0  0  0
  144.4298   74.5708  219.9068 H   0  0  0  0  0  0  0  0  0  0  0  0
  145.3208   73.2462  219.0586 H   0  0  0  0  0  0  0  0  0  0  0  0
  145.6660   73.3460  221.1750 C   0  0  0  0  0  0  0  0  0  0  0  0
  145.0751   73.4604  222.0957 H   0  0  0  0  0  0  0  0  0  0  0  0
  146.1184   72.3436  221.1518 H   0  0  0  0  0  0  0  0  0  0  0  0
  146.4598   74.1071  221.1518 H   0  0  0  0  0  0  0  0  0  0  0  0
  141.7970   71.9320  221.5950 C   0  0  0  0  0  0  0  0  0  0  0  0
  142.2250   70.9187  221.6016 H   0  0  0  0  0  0  0  0  0  0  0  0
  140.6430   72.2210  222.3530 C   0  0  0  0  0  0  0  0  0  0  0  0
  140.0750   71.2660  223.0310 N   0  0  0  0  0  0  0  0  0  0  0  0
  140.3330   70.9100  224.4000 C   0  0  0  0  0  0  0  0  0  0  0  0
  140.7760   71.9040  225.2790 C   0  0  0  0  0  0  0  0  0  0  0  0
  140.9522   72.9239  224.9065 H   0  0  0  0  0  0  0  0  0  0  0  0
  140.9960   71.6100  226.6260 C   0  0  0  0  0  0  0  0  0  0  0  0
  141.3522   72.3962  227.3080 H   0  0  0  0  0  0  0  0  0  0  0  0
  140.7650   70.3200  227.1100 C   0  0  0  0  0  0  0  0  0  0  0  0
  140.9380   70.0955  228.1729 H   0  0  0  0  0  0  0  0  0  0  0  0
  140.3130   69.3080  226.2470 C   0  0  0  0  0  0  0  0  0  0  0  0
  139.9930   67.9340  226.7810 C   0  0  0  0  0  0  0  0  0  0  0  0
  138.8500   67.4300  226.1840 F   0  0  0  0  0  0  0  0  0  0  0  0
  141.0510   67.0850  226.5160 F   0  0  0  0  0  0  0  0  0  0  0  0
  139.7820   67.9790  228.1470 F   0  0  0  0  0  0  0  0  0  0  0  0
  140.0670   69.6200  224.8970 C   0  0  0  0  0  0  0  0  0  0  0  0
  139.6633   68.8491  224.2241 H   0  0  0  0  0  0  0  0  0  0  0  0
  140.1160   73.4830  222.3320 N   0  0  0  0  0  0  0  0  0  0  0  0
  140.7260   74.4400  221.5950 C   0  0  0  0  0  0  0  0  0  0  0  0
  140.3770   75.7630  221.4810 C   0  0  0  0  0  0  0  0  0  0  0  0
  139.5269   76.2890  221.9399 H   0  0  0  0  0  0  0  0  0  0  0  0
  1  2  1  0
  2  3  2  0
  3  4  1  0
  4  5  1  0
  5  6  1  0
  6  7  1  0
  6  8  1  0
  8  9  1  0
  8 10  1  0
  8 11  1  0
 11 12  1  0
 11 13  1  0
 11 14  1  0
  5 15  2  0
 15 16  1  0
 15 17  1  0
 17 18  2  0
 18 19  1  0
 19 20  2  0
 20 21  1  0
 20 22  1  0
 22 23  1  0
 22 24  2  0
 24 25  1  0
 24 26  1  0
 26 27  1  0
 27 28  1  0
 27 29  1  0
 27 30  1  0
 26 31  2  0
 31 32  1  0
 17 33  1  0
 33 34  1  0
 34 35  2  0
 35 36  1  0
 35  2  1  0
 34  4  1  0
 31 19  1  0
M  CHG  1  33  -1
M  END
>  <UniqueID>  (10) 
5

>  <SMILES>  (10) 
CCNc1c/c(=N/c2cccc(C(F)(F)F)c2)[n-]c2ccnn12

>  <Energy>  (10) 
80.35831887693398

>  <Genealogy>  (10) 
CCN=c1cc(Nc2cccc(C(F)(F)F)c2)[n-]c2ccnn12 (protonated)
CCNc1cc(=Nc2cccc(C(F)(F)F)c2)[n-]c2ccnn12 (tautomer)
CCNc1c/c(=N/c2cccc(C(F)(F)F)c2)[n-]c2ccnn12 (cis-trans isomerization)
CCNc1c/c(=N/c2cccc(C(F)(F)F)c2)[n-]c2ccnn12 (3D coordinates assigned)
CCNc1c/c(=N/c2cccc(C(F)(F)F)c2)[n-]c2ccnn12 (optimized conformer: 80.35831887693398 kcal/mol)

>  <smiles>  (10) 
CCN=c1cc(Nc2cccc(C(F)(F)F)c2)[nH]c2ccnn12

>  <score_type>  (10) 
oracle

>  <origin>  (10) 
autodockgpu

>  <m_score__min__energy>  (10) 
-6.1200000000000001

>  <m_primary>  (10) 
energy

>  <meeko>  (10) 
{"free_energy": -6.1, "intermolecular_energy": -7.6, "internal_energy": -0.72, "cluster_size": 19, "cluster_id": 1, "rank_in_cluster": 2}

>  <energy>  (10) 
-5.93

>  <cluster_rmsd>  (10) 
1.89

>  <rmsd>  (10) 
271.07

>  <cluster>  (10) 
1

$$$$
KNAQURWOGDABTO-UHFFFAOYNA-N
     RDKit          3D

 36 38  0  0  0  0  0  0  0  0999 V2000
  139.5002   78.1431  221.5961 H   0  0  0  0  0  0  0  0  0  0  0  0
  139.8060   77.0870  221.6290 C   0  0  0  0  0  0  0  0  0  0  0  0
  140.9840   76.6080  221.1630 N   0  0  0  0  0  0  0  0  0  0  0  0
  140.9800   75.3020  221.3730 N   0  0  0  0  0  0  0  0  0  0  0  0
  141.9590   74.3960  221.0870 C   0  0  0  0  0  0  0  0  0  0  0  0
  143.1980   74.7560  220.4430 N   0  0  0  0  0  0  0  0  0  0  0  0
  143.4860   75.7600  220.4720 H   0  0  0  0  0  0  0  0  0  0  0  0
  144.1640   73.8110  219.8830 C   0  0  0  0  0  0  0  0  0  0  0  0
  144.4277   74.1277  218.8631 H   0  0  0  0  0  0  0  0  0  0  0  0
  143.7083   72.8099  219.8692 H   0  0  0  0  0  0  0  0  0  0  0  0
  145.4310   73.7580  220.7330 C   0  0  0  0  0  0  0  0  0  0  0  0
  145.1584   73.7694  221.7986 H   0  0  0  0  0  0  0  0  0  0  0  0
  145.9862   72.8358  220.5064 H   0  0  0  0  0  0  0  0  0  0  0  0
  146.0613   74.6306  220.5064 H   0  0  0  0  0  0  0  0  0  0  0  0
  141.7340   73.0600  221.4660 C   0  0  0  0  0  0  0  0  0  0  0  0
  142.4963   72.2920  221.2684 H   0  0  0  0  0  0  0  0  0  0  0  0
  140.5240   72.7130  222.1010 C   0  0  0  0  0  0  0  0  0  0  0  0
  140.3110   71.4680  222.4190 N   0  0  0  0  0  0  0  0  0  0  0  0
  140.0620   70.9450  223.7350 C   0  0  0  0  0  0  0  0  0  0  0  0
  139.3710   69.7340  223.8560 C   0  0  0  0  0  0  0  0  0  0  0  0
  139.0021   69.2228  222.9546 H   0  0  0  0  0  0  0  0  0  0  0  0
  139.1470   69.1710  225.1130 C   0  0  0  0  0  0  0  0  0  0  0  0
  138.5938   68.2241  225.1988 H   0  0  0  0  0  0  0  0  0  0  0  0
  139.6230   69.8060  226.2630 C   0  0  0  0  0  0  0  0  0  0  0  0
  139.4466   69.3541  227.2503 H   0  0  0  0  0  0  0  0  0  0  0  0
  140.3260   71.0190  226.1650 C   0  0  0  0  0  0  0  0  0  0  0  0
  140.9040   71.6690  227.3960 C   0  0  0  0  0  0  0  0  0  0  0  0
  139.9200   72.3280  228.1110 F   0  0  0  0  0  0  0  0  0  0  0  0
  141.4700   70.6970  228.2000 F   0  0  0  0  0  0  0  0  0  0  0  0
  141.8760   72.5910  227.0500 F   0  0  0  0  0  0  0  0  0  0  0  0
  140.5720   71.5650  224.8920 C   0  0  0  0  0  0  0  0  0  0  0  0
  141.1683   72.4847  224.7995 H   0  0  0  0  0  0  0  0  0  0  0  0
  139.5810   73.6740  222.3360 N   0  0  0  0  0  0  0  0  0  0  0  0
  139.8350   74.9510  221.9690 C   0  0  0  0  0  0  0  0  0  0  0  0
  139.0380   76.0540  222.1550 C   0  0  0  0  0  0  0  0  0  0  0  0
  138.0374   76.1072  222.6088 H   0  0  0  0  0  0  0  0  0  0  0  0
  1  2  1  0
  2  3  2  0
  3  4  1  0
  4  5  1  0
  5  6  1  0
  6  7  1  0
  6  8  1  0
  8  9  1  0
  8 10  1  0
  8 11  1  0
 11 12  1  0
 11 13  1  0
 11 14  1  0
  5 15  2  0
 15 16  1  0
 15 17  1  0
 17 18  2  0
 18 19  1  0
 19 20  2  0
 20 21  1  0
 20 22  1  0
 22 23  1  0
 22 24  2  0
 24 25  1  0
 24 26  1  0
 26 27  1  0
 27 28  1  0
 27 29  1  0
 27 30  1  0
 26 31  2  0
 31 32  1  0
 17 33  1  0
 33 34  1  0
 34 35  2  0
 35 36  1  0
 35  2  1  0
 34  4  1  0
 31 19  1  0
M  CHG  1  33  -1
M  END
>  <UniqueID>  (11) 
5

>  <SMILES>  (11) 
CCNc1c/c(=N/c2cccc(C(F)(F)F)c2)[n-]c2ccnn12

>  <Energy>  (11) 
80.35831887693398

>  <Genealogy>  (11) 
CCN=c1cc(Nc2cccc(C(F)(F)F)c2)[n-]c2ccnn12 (protonated)
CCNc1cc(=Nc2cccc(C(F)(F)F)c2)[n-]c2ccnn12 (tautomer)
CCNc1c/c(=N/c2cccc(C(F)(F)F)c2)[n-]c2ccnn12 (cis-trans isomerization)
CCNc1c/c(=N/c2cccc(C(F)(F)F)c2)[n-]c2ccnn12 (3D coordinates assigned)
CCNc1c/c(=N/c2cccc(C(F)(F)F)c2)[n-]c2ccnn12 (optimized conformer: 80.35831887693398 kcal/mol)

>  <smiles>  (11) 
CCN=c1cc(Nc2cccc(C(F)(F)F)c2)[nH]c2ccnn12

>  <score_type>  (11) 
oracle

>  <origin>  (11) 
autodockgpu

>  <m_score__min__energy>  (11) 
-6.1200000000000001

>  <m_primary>  (11) 
energy

>  <meeko>  (11) 
{"free_energy": -5.88, "intermolecular_energy": -7.38, "internal_energy": -0.83, "cluster_size": 19, "cluster_id": 1, "rank_in_cluster": 16}

>  <energy>  (11) 
-5.93

>  <cluster_rmsd>  (11) 
1.91

>  <rmsd>  (11) 
271.1

>  <cluster>  (11) 
1

$$$$
KNAQURWOGDABTO-UHFFFAOYNA-N
     RDKit          3D

 36 38  0  0  0  0  0  0  0  0999 V2000
  141.5503   77.2077  220.2878 H   0  0  0  0  0  0  0  0  0  0  0  0
  141.4520   76.1640  220.6210 C   0  0  0  0  0  0  0  0  0  0  0  0
  142.2520   75.1470  220.2230 N   0  0  0  0  0  0  0  0  0  0  0  0
  141.8170   74.0540  220.8300 N   0  0  0  0  0  0  0  0  0  0  0  0
  142.3180   72.7880  220.7530 C   0  0  0  0  0  0  0  0  0  0  0  0
  143.4410   72.4380  219.9180 N   0  0  0  0  0  0  0  0  0  0  0  0
  143.2630   72.3020  218.8970 H   0  0  0  0  0  0  0  0  0  0  0  0
  144.8380   72.4050  220.3520 C   0  0  0  0  0  0  0  0  0  0  0  0
  145.4685   72.0799  219.5113 H   0  0  0  0  0  0  0  0  0  0  0  0
  144.9273   71.7029  221.1941 H   0  0  0  0  0  0  0  0  0  0  0  0
  145.2980   73.7840  220.8170 C   0  0  0  0  0  0  0  0  0  0  0  0
  145.3085   73.8156  221.9165 H   0  0  0  0  0  0  0  0  0  0  0  0
  146.3105   73.9809  220.4348 H   0  0  0  0  0  0  0  0  0  0  0  0
  144.6065   74.5494  220.4348 H   0  0  0  0  0  0  0  0  0  0  0  0
  141.7080   71.8020  221.5480 C   0  0  0  0  0  0  0  0  0  0  0  0
  142.0808   70.7672  221.5308 H   0  0  0  0  0  0  0  0  0  0  0  0
  140.6140   72.1500  222.3680 C   0  0  0  0  0  0  0  0  0  0  0  0
  140.0340   71.2230  223.0760 N   0  0  0  0  0  0  0  0  0  0  0  0
  140.3180   70.8790  224.4430 C   0  0  0  0  0  0  0  0  0  0  0  0
  140.7690   71.8830  225.3070 C   0  0  0  0  0  0  0  0  0  0  0  0
  140.9307   72.9015  224.9243 H   0  0  0  0  0  0  0  0  0  0  0  0
  141.0150   71.6000  226.6520 C   0  0  0  0  0  0  0  0  0  0  0  0
  141.3782   72.3932  227.3220 H   0  0  0  0  0  0  0  0  0  0  0  0
  140.8010   70.3120  227.1490 C   0  0  0  0  0  0  0  0  0  0  0  0
  140.9937   70.0965  228.2103 H   0  0  0  0  0  0  0  0  0  0  0  0
  140.3410   69.2900  226.3010 C   0  0  0  0  0  0  0  0  0  0  0  0
  140.0390   67.9180  226.8500 C   0  0  0  0  0  0  0  0  0  0  0  0
  141.0760   67.0420  226.5800 F   0  0  0  0  0  0  0  0  0  0  0  0
  139.8680   68.0040  228.2190 F   0  0  0  0  0  0  0  0  0  0  0  0
  138.8840   67.4100  226.2820 F   0  0  0  0  0  0  0  0  0  0  0  0
  140.0690   69.5910  224.9540 C   0  0  0  0  0  0  0  0  0  0  0  0
  139.6580   68.8129  224.2940 H   0  0  0  0  0  0  0  0  0  0  0  0
  140.1550   73.4370  222.3760 N   0  0  0  0  0  0  0  0  0  0  0  0
  140.7730   74.3630  221.6070 C   0  0  0  0  0  0  0  0  0  0  0  0
  140.4880   75.7020  221.5110 C   0  0  0  0  0  0  0  0  0  0  0  0
  139.6923   76.2706  222.0145 H   0  0  0  0  0  0  0  0  0  0  0  0
  1  2  1  0
  2  3  2  0
  3  4  1  0
  4  5  1  0
  5  6  1  0
  6  7  1  0
  6  8  1  0
  8  9  1  0
  8 10  1  0
  8 11  1  0
 11 12  1  0
 11 13  1  0
 11 14  1  0
  5 15  2  0
 15 16  1  0
 15 17  1  0
 17 18  2  0
 18 19  1  0
 19 20  2  0
 20 21  1  0
 20 22  1  0
 22 23  1  0
 22 24  2  0
 24 25  1  0
 24 26  1  0
 26 27  1  0
 27 28  1  0
 27 29  1  0
 27 30  1  0
 26 31  2  0
 31 32  1  0
 17 33  1  0
 33 34  1  0
 34 35  2  0
 35 36  1  0
 35  2  1  0
 34  4  1  0
 31 19  1  0
M  CHG  1  33  -1
M  END
>  <UniqueID>  (12) 
5

>  <SMILES>  (12) 
CCNc1c/c(=N/c2cccc(C(F)(F)F)c2)[n-]c2ccnn12

>  <Energy>  (12) 
80.35831887693398

>  <Genealogy>  (12) 
CCN=c1cc(Nc2cccc(C(F)(F)F)c2)[n-]c2ccnn12 (protonated)
CCNc1cc(=Nc2cccc(C(F)(F)F)c2)[n-]c2ccnn12 (tautomer)
CCNc1c/c(=N/c2cccc(C(F)(F)F)c2)[n-]c2ccnn12 (cis-trans isomerization)
CCNc1c/c(=N/c2cccc(C(F)(F)F)c2)[n-]c2ccnn12 (3D coordinates assigned)
CCNc1c/c(=N/c2cccc(C(F)(F)F)c2)[n-]c2ccnn12 (optimized conformer: 80.35831887693398 kcal/mol)

>  <smiles>  (12) 
CCN=c1cc(Nc2cccc(C(F)(F)F)c2)[nH]c2ccnn12

>  <score_type>  (12) 
oracle

>  <origin>  (12) 
autodockgpu

>  <m_score__min__energy>  (12) 
-6.1200000000000001

>  <m_primary>  (12) 
energy

>  <meeko>  (12) 
{"free_energy": -6.01, "intermolecular_energy": -7.5, "internal_energy": -0.78, "cluster_size": 19, "cluster_id": 1, "rank_in_cluster": 6}

>  <energy>  (12) 
-5.91

>  <cluster_rmsd>  (12) 
0.5

>  <rmsd>  (12) 
271.37

>  <cluster>  (12) 
1

$$$$
KNAQURWOGDABTO-UHFFFAOYNA-N
     RDKit          3D

 36 38  0  0  0  0  0  0  0  0999 V2000
  145.4249   72.9192  219.2800 H   0  0  0  0  0  0  0  0  0  0  0  0
  144.4800   72.9100  219.8430 C   0  0  0  0  0  0  0  0  0  0  0  0
  143.7420   74.0070  220.1320 N   0  0  0  0  0  0  0  0  0  0  0  0
  142.6910   73.5950  220.8220 N   0  0  0  0  0  0  0  0  0  0  0  0
  141.6590   74.3380  221.3170 C   0  0  0  0  0  0  0  0  0  0  0  0
  141.5860   75.7710  221.1770 N   0  0  0  0  0  0  0  0  0  0  0  0
  142.4840   76.2930  221.0580 H   0  0  0  0  0  0  0  0  0  0  0  0
  140.3520   76.5440  221.0330 C   0  0  0  0  0  0  0  0  0  0  0  0
  139.5282   75.8621  220.7755 H   0  0  0  0  0  0  0  0  0  0  0  0
  140.4965   77.2906  220.2382 H   0  0  0  0  0  0  0  0  0  0  0  0
  140.0100   77.2730  222.3290 C   0  0  0  0  0  0  0  0  0  0  0  0
  140.3019   76.6507  223.1878 H   0  0  0  0  0  0  0  0  0  0  0  0
  140.5538   78.2284  222.3668 H   0  0  0  0  0  0  0  0  0  0  0  0
  138.9276   77.4655  222.3668 H   0  0  0  0  0  0  0  0  0  0  0  0
  140.6220   73.6490  221.9700 C   0  0  0  0  0  0  0  0  0  0  0  0
  139.7609   74.1997  222.3765 H   0  0  0  0  0  0  0  0  0  0  0  0
  140.6940   72.2460  222.1000 C   0  0  0  0  0  0  0  0  0  0  0  0
  139.7450   71.6200  222.7350 N   0  0  0  0  0  0  0  0  0  0  0  0
  139.8500   70.9610  224.0090 C   0  0  0  0  0  0  0  0  0  0  0  0
  139.5500   69.5960  224.0840 C   0  0  0  0  0  0  0  0  0  0  0  0
  139.2088   69.0612  223.1853 H   0  0  0  0  0  0  0  0  0  0  0  0
  139.6810   68.9090  225.2920 C   0  0  0  0  0  0  0  0  0  0  0  0
  139.4338   67.8384  225.3437 H   0  0  0  0  0  0  0  0  0  0  0  0
  140.1250   69.5770  226.4350 C   0  0  0  0  0  0  0  0  0  0  0  0
  140.2304   69.0284  227.3826 H   0  0  0  0  0  0  0  0  0  0  0  0
  140.4380   70.9460  226.3820 C   0  0  0  0  0  0  0  0  0  0  0  0
  140.9870   71.6530  227.5950 C   0  0  0  0  0  0  0  0  0  0  0  0
  141.6110   70.7570  228.4450 F   0  0  0  0  0  0  0  0  0  0  0  0
  141.9040   72.6050  227.1910 F   0  0  0  0  0  0  0  0  0  0  0  0
  139.9700   72.2760  228.2970 F   0  0  0  0  0  0  0  0  0  0  0  0
  140.3300   71.6240  225.1540 C   0  0  0  0  0  0  0  0  0  0  0  0
  140.6234   72.6821  225.0881 H   0  0  0  0  0  0  0  0  0  0  0  0
  141.7710   71.5720  221.5960 N   0  0  0  0  0  0  0  0  0  0  0  0
  142.7450   72.2660  220.9620 C   0  0  0  0  0  0  0  0  0  0  0  0
  143.8740   71.7690  220.3590 C   0  0  0  0  0  0  0  0  0  0  0  0
  144.2154   70.7251  220.2987 H   0  0  0  0  0  0  0  0  0  0  0  0
  1  2  1  0
  2  3  2  0
  3  4  1  0
  4  5  1  0
  5  6  1  0
  6  7  1  0
  6  8  1  0
  8  9  1  0
  8 10  1  0
  8 11  1  0
 11 12  1  0
 11 13  1  0
 11 14  1  0
  5 15  2  0
 15 16  1  0
 15 17  1  0
 17 18  2  0
 18 19  1  0
 19 20  2  0
 20 21  1  0
 20 22  1  0
 22 23  1  0
 22 24  2  0
 24 25  1  0
 24 26  1  0
 26 27  1  0
 27 28  1  0
 27 29  1  0
 27 30  1  0
 26 31  2  0
 31 32  1  0
 17 33  1  0
 33 34  1  0
 34 35  2  0
 35 36  1  0
 35  2  1  0
 34  4  1  0
 31 19  1  0
M  CHG  1  33  -1
M  END
>  <UniqueID>  (13) 
5

>  <SMILES>  (13) 
CCNc1c/c(=N/c2cccc(C(F)(F)F)c2)[n-]c2ccnn12

>  <Energy>  (13) 
80.35831887693398

>  <Genealogy>  (13) 
CCN=c1cc(Nc2cccc(C(F)(F)F)c2)[n-]c2ccnn12 (protonated)
CCNc1cc(=Nc2cccc(C(F)(F)F)c2)[n-]c2ccnn12 (tautomer)
CCNc1c/c(=N/c2cccc(C(F)(F)F)c2)[n-]c2ccnn12 (cis-trans isomerization)
CCNc1c/c(=N/c2cccc(C(F)(F)F)c2)[n-]c2ccnn12 (3D coordinates assigned)
CCNc1c/c(=N/c2cccc(C(F)(F)F)c2)[n-]c2ccnn12 (optimized conformer: 80.35831887693398 kcal/mol)

>  <smiles>  (13) 
CCN=c1cc(Nc2cccc(C(F)(F)F)c2)[nH]c2ccnn12

>  <score_type>  (13) 
oracle

>  <origin>  (13) 
autodockgpu

>  <m_score__min__energy>  (13) 
-6.1200000000000001

>  <m_primary>  (13) 
energy

>  <meeko>  (13) 
{"free_energy": -5.36, "intermolecular_energy": -6.85, "internal_energy": -0.81, "cluster_size": 1, "cluster_id": 2, "rank_in_cluster": 1}

>  <energy>  (13) 
-5.9

>  <cluster_rmsd>  (13) 
0.47

>  <rmsd>  (13) 
271.36

>  <cluster>  (13) 
1

$$$$
KNAQURWOGDABTO-UHFFFAOYNA-N
     RDKit          3D

 36 38  0  0  0  0  0  0  0  0999 V2000
  140.7872   77.4609  220.7395 H   0  0  0  0  0  0  0  0  0  0  0  0
  140.8420   76.3910  220.9890 C   0  0  0  0  0  0  0  0  0  0  0  0
  141.7450   75.5220  220.4750 N   0  0  0  0  0  0  0  0  0  0  0  0
  141.4870   74.3390  221.0060 N   0  0  0  0  0  0  0  0  0  0  0  0
  142.1420   73.1590  220.8040 C   0  0  0  0  0  0  0  0  0  0  0  0
  143.2560   73.0260  219.8970 N   0  0  0  0  0  0  0  0  0  0  0  0
  143.1360   73.3910  218.9250 H   0  0  0  0  0  0  0  0  0  0  0  0
  144.5940   72.5620  220.2660 C   0  0  0  0  0  0  0  0  0  0  0  0
  145.0839   72.1341  219.3789 H   0  0  0  0  0  0  0  0  0  0  0  0
  144.4965   71.8026  221.0558 H   0  0  0  0  0  0  0  0  0  0  0  0
  145.4430   73.7120  220.7990 C   0  0  0  0  0  0  0  0  0  0  0  0
  145.4318   73.6969  221.8988 H   0  0  0  0  0  0  0  0  0  0  0  0
  146.4772   73.6007  220.4412 H   0  0  0  0  0  0  0  0  0  0  0  0
  145.0321   74.6676  220.4412 H   0  0  0  0  0  0  0  0  0  0  0  0
  141.7070   72.0430  221.5400 C   0  0  0  0  0  0  0  0  0  0  0  0
  142.2098   71.0717  221.4227 H   0  0  0  0  0  0  0  0  0  0  0  0
  140.6210   72.1780  222.4300 C   0  0  0  0  0  0  0  0  0  0  0  0
  140.2030   71.1320  223.0830 N   0  0  0  0  0  0  0  0  0  0  0  0
  140.4110   70.8460  224.4760 C   0  0  0  0  0  0  0  0  0  0  0  0
  140.7920   71.8900  225.3260 C   0  0  0  0  0  0  0  0  0  0  0  0
  140.9596   72.8961  224.9140 H   0  0  0  0  0  0  0  0  0  0  0  0
  140.9610   71.6640  226.6930 C   0  0  0  0  0  0  0  0  0  0  0  0
  141.2690   72.4895  227.3515 H   0  0  0  0  0  0  0  0  0  0  0  0
  140.7400   70.3920  227.2270 C   0  0  0  0  0  0  0  0  0  0  0  0
  140.8721   70.2211  228.3056 H   0  0  0  0  0  0  0  0  0  0  0  0
  140.3500   69.3300  226.3940 C   0  0  0  0  0  0  0  0  0  0  0  0
  140.0400   67.9740  226.9770 C   0  0  0  0  0  0  0  0  0  0  0  0
  139.8550   68.0590  228.3460 F   0  0  0  0  0  0  0  0  0  0  0  0
  138.8840   67.4830  226.3970 F   0  0  0  0  0  0  0  0  0  0  0  0
  141.0760   67.0900  226.7350 F   0  0  0  0  0  0  0  0  0  0  0  0
  140.1540   69.5730  225.0220 C   0  0  0  0  0  0  0  0  0  0  0  0
  139.7971   68.7620  224.3701 H   0  0  0  0  0  0  0  0  0  0  0  0
  140.0010   73.3890  222.5640 N   0  0  0  0  0  0  0  0  0  0  0  0
  140.4540   74.4450  221.8490 C   0  0  0  0  0  0  0  0  0  0  0  0
  139.9940   75.7380  221.8770 C   0  0  0  0  0  0  0  0  0  0  0  0
  139.1592   76.1554  222.4592 H   0  0  0  0  0  0  0  0  0  0  0  0
  1  2  1  0
  2  3  2  0
  3  4  1  0
  4  5  1  0
  5  6  1  0
  6  7  1  0
  6  8  1  0
  8  9  1  0
  8 10  1  0
  8 11  1  0
 11 12  1  0
 11 13  1  0
 11 14  1  0
  5 15  2  0
 15 16  1  0
 15 17  1  0
 17 18  2  0
 18 19  1  0
 19 20  2  0
 20 21  1  0
 20 22  1  0
 22 23  1  0
 22 24  2  0
 24 25  1  0
 24 26  1  0
 26 27  1  0
 27 28  1  0
 27 29  1  0
 27 30  1  0
 26 31  2  0
 31 32  1  0
 17 33  1  0
 33 34  1  0
 34 35  2  0
 35 36  1  0
 35  2  1  0
 34  4  1  0
 31 19  1  0
M  CHG  1  33  -1
M  END
>  <UniqueID>  (14) 
5

>  <SMILES>  (14) 
CCNc1c/c(=N/c2cccc(C(F)(F)F)c2)[n-]c2ccnn12

>  <Energy>  (14) 
80.35831887693398

>  <Genealogy>  (14) 
CCN=c1cc(Nc2cccc(C(F)(F)F)c2)[n-]c2ccnn12 (protonated)
CCNc1cc(=Nc2cccc(C(F)(F)F)c2)[n-]c2ccnn12 (tautomer)
CCNc1c/c(=N/c2cccc(C(F)(F)F)c2)[n-]c2ccnn12 (cis-trans isomerization)
CCNc1c/c(=N/c2cccc(C(F)(F)F)c2)[n-]c2ccnn12 (3D coordinates assigned)
CCNc1c/c(=N/c2cccc(C(F)(F)F)c2)[n-]c2ccnn12 (optimized conformer: 80.35831887693398 kcal/mol)

>  <smiles>  (14) 
CCN=c1cc(Nc2cccc(C(F)(F)F)c2)[nH]c2ccnn12

>  <score_type>  (14) 
oracle

>  <origin>  (14) 
autodockgpu

>  <m_score__min__energy>  (14) 
-6.1200000000000001

>  <m_primary>  (14) 
energy

>  <meeko>  (14) 
{"free_energy": -5.93, "intermolecular_energy": -7.42, "internal_energy": -0.79, "cluster_size": 19, "cluster_id": 1, "rank_in_cluster": 10}

>  <energy>  (14) 
-5.9

>  <cluster_rmsd>  (14) 
1.37

>  <rmsd>  (14) 
271.27

>  <cluster>  (14) 
1

$$$$
KNAQURWOGDABTO-UHFFFAOYNA-N
     RDKit          3D

 36 38  0  0  0  0  0  0  0  0999 V2000
  141.5665   77.3377  220.9112 H   0  0  0  0  0  0  0  0  0  0  0  0
  141.4110   76.2700  221.1250 C   0  0  0  0  0  0  0  0  0  0  0  0
  142.1840   75.2660  220.6490 N   0  0  0  0  0  0  0  0  0  0  0  0
  141.6810   74.1360  221.1170 N   0  0  0  0  0  0  0  0  0  0  0  0
  142.1320   72.8640  220.9220 C   0  0  0  0  0  0  0  0  0  0  0  0
  143.2740   72.5540  220.0970 N   0  0  0  0  0  0  0  0  0  0  0  0
  143.1340   72.5370  219.0620 H   0  0  0  0  0  0  0  0  0  0  0  0
  144.6490   72.4120  220.5780 C   0  0  0  0  0  0  0  0  0  0  0  0
  145.2354   71.8550  219.8325 H   0  0  0  0  0  0  0  0  0  0  0  0
  144.6317   71.8715  221.5359 H   0  0  0  0  0  0  0  0  0  0  0  0
  145.2930   73.7780  220.8010 C   0  0  0  0  0  0  0  0  0  0  0  0
  145.3831   73.9691  221.8805 H   0  0  0  0  0  0  0  0  0  0  0  0
  146.2924   73.7916  220.3416 H   0  0  0  0  0  0  0  0  0  0  0  0
  144.6676   74.5576  220.3416 H   0  0  0  0  0  0  0  0  0  0  0  0
  141.4490   71.8270  221.5830 C   0  0  0  0  0  0  0  0  0  0  0  0
  141.7805   70.7844  221.4690 H   0  0  0  0  0  0  0  0  0  0  0  0
  140.3360   72.1340  222.3930 C   0  0  0  0  0  0  0  0  0  0  0  0
  139.6900   71.1640  222.9740 N   0  0  0  0  0  0  0  0  0  0  0  0
  139.8930   70.6720  224.3100 C   0  0  0  0  0  0  0  0  0  0  0  0
  139.7440   69.3010  224.5490 C   0  0  0  0  0  0  0  0  0  0  0  0
  139.4431   68.6325  223.7289 H   0  0  0  0  0  0  0  0  0  0  0  0
  139.9750   68.7770  225.8220 C   0  0  0  0  0  0  0  0  0  0  0  0
  139.8455   67.6998  226.0033 H   0  0  0  0  0  0  0  0  0  0  0  0
  140.3700   69.6160  226.8660 C   0  0  0  0  0  0  0  0  0  0  0  0
  140.5546   69.1955  227.8656 H   0  0  0  0  0  0  0  0  0  0  0  0
  140.5330   70.9940  226.6470 C   0  0  0  0  0  0  0  0  0  0  0  0
  141.0300   71.8910  227.7540 C   0  0  0  0  0  0  0  0  0  0  0  0
  141.8100   72.9140  227.2440 F   0  0  0  0  0  0  0  0  0  0  0  0
  139.9470   72.4390  228.4160 F   0  0  0  0  0  0  0  0  0  0  0  0
  141.7940   71.1730  228.6560 F   0  0  0  0  0  0  0  0  0  0  0  0
  140.3260   71.5100  225.3550 C   0  0  0  0  0  0  0  0  0  0  0  0
  140.5040   72.5777  225.1594 H   0  0  0  0  0  0  0  0  0  0  0  0
  139.9300   73.4320  222.5240 N   0  0  0  0  0  0  0  0  0  0  0  0
  140.6180   74.4070  221.8830 C   0  0  0  0  0  0  0  0  0  0  0  0
  140.3920   75.7600  221.9230 C   0  0  0  0  0  0  0  0  0  0  0  0
  139.5998   76.3069  222.4553 H   0  0  0  0  0  0  0  0  0  0  0  0
  1  2  1  0
  2  3  2  0
  3  4  1  0
  4  5  1  0
  5  6  1  0
  6  7  1  0
  6  8  1  0
  8  9  1  0
  8 10  1  0
  8 11  1  0
 11 12  1  0
 11 13  1  0
 11 14  1  0
  5 15  2  0
 15 16  1  0
 15 17  1  0
 17 18  2  0
 18 19  1  0
 19 20  2  0
 20 21  1  0
 20 22  1  0
 22 23  1  0
 22 24  2  0
 24 25  1  0
 24 26  1  0
 26 27  1  0
 27 28  1  0
 27 29  1  0
 27 30  1  0
 26 31  2  0
 31 32  1  0
 17 33  1  0
 33 34  1  0
 34 35  2  0
 35 36  1  0
 35  2  1  0
 34  4  1  0
 31 19  1  0
M  CHG  1  33  -1
M  END
>  <UniqueID>  (15) 
5

>  <SMILES>  (15) 
CCNc1c/c(=N/c2cccc(C(F)(F)F)c2)[n-]c2ccnn12

>  <Energy>  (15) 
80.35831887693398

>  <Genealogy>  (15) 
CCN=c1cc(Nc2cccc(C(F)(F)F)c2)[n-]c2ccnn12 (protonated)
CCNc1cc(=Nc2cccc(C(F)(F)F)c2)[n-]c2ccnn12 (tautomer)
CCNc1c/c(=N/c2cccc(C(F)(F)F)c2)[n-]c2ccnn12 (cis-trans isomerization)
CCNc1c/c(=N/c2cccc(C(F)(F)F)c2)[n-]c2ccnn12 (3D coordinates assigned)
CCNc1c/c(=N/c2cccc(C(F)(F)F)c2)[n-]c2ccnn12 (optimized conformer: 80.35831887693398 kcal/mol)

>  <smiles>  (15) 
CCN=c1cc(Nc2cccc(C(F)(F)F)c2)[nH]c2ccnn12

>  <score_type>  (15) 
oracle

>  <origin>  (15) 
autodockgpu

>  <m_score__min__energy>  (15) 
-6.1200000000000001

>  <m_primary>  (15) 
energy

>  <meeko>  (15) 
{"free_energy": -5.91, "intermolecular_energy": -7.41, "internal_energy": -0.78, "cluster_size": 19, "cluster_id": 1, "rank_in_cluster": 12}

>  <energy>  (15) 
-5.89

>  <cluster_rmsd>  (15) 
1.27

>  <rmsd>  (15) 
271.26

>  <cluster>  (15) 
1

$$$$
KNAQURWOGDABTO-UHFFFAOYNA-N
     RDKit          3D

 36 38  0  0  0  0  0  0  0  0999 V2000
  141.7880   77.2191  220.2957 H   0  0  0  0  0  0  0  0  0  0  0  0
  141.5390   76.2090  220.6530 C   0  0  0  0  0  0  0  0  0  0  0  0
  142.2600   75.0950  220.3860 N   0  0  0  0  0  0  0  0  0  0  0  0
  141.6450   74.0850  220.9780 N   0  0  0  0  0  0  0  0  0  0  0  0
  142.0080   72.7710  221.0040 C   0  0  0  0  0  0  0  0  0  0  0  0
  143.1700   72.2640  220.3170 N   0  0  0  0  0  0  0  0  0  0  0  0
  143.0370   71.8890  219.3500 H   0  0  0  0  0  0  0  0  0  0  0  0
  144.5480   72.3700  220.7960 C   0  0  0  0  0  0  0  0  0  0  0  0
  145.1596   71.5978  220.3064 H   0  0  0  0  0  0  0  0  0  0  0  0
  144.5518   72.2298  221.8870 H   0  0  0  0  0  0  0  0  0  0  0  0
  145.1320   73.7440  220.4800 C   0  0  0  0  0  0  0  0  0  0  0  0
  145.3563   74.2718  221.4187 H   0  0  0  0  0  0  0  0  0  0  0  0
  146.0569   73.6240  219.8968 H   0  0  0  0  0  0  0  0  0  0  0  0
  144.4037   74.3266  219.8968 H   0  0  0  0  0  0  0  0  0  0  0  0
  141.2090   71.8940  221.7610 C   0  0  0  0  0  0  0  0  0  0  0  0
  141.4655   70.8263  221.8256 H   0  0  0  0  0  0  0  0  0  0  0  0
  140.0770   72.3950  222.4360 C   0  0  0  0  0  0  0  0  0  0  0  0
  139.3250   71.5700  223.1070 N   0  0  0  0  0  0  0  0  0  0  0  0
  139.6680   70.8860  224.3240 C   0  0  0  0  0  0  0  0  0  0  0  0
  139.6230   69.4870  224.3430 C   0  0  0  0  0  0  0  0  0  0  0  0
  139.2958   68.9383  223.4475 H   0  0  0  0  0  0  0  0  0  0  0  0
  139.9910   68.7840  225.4920 C   0  0  0  0  0  0  0  0  0  0  0  0
  139.9443   67.6850  225.5006 H   0  0  0  0  0  0  0  0  0  0  0  0
  140.4180   69.4710  226.6300 C   0  0  0  0  0  0  0  0  0  0  0  0
  140.7082   68.9102  227.5307 H   0  0  0  0  0  0  0  0  0  0  0  0
  140.4790   70.8750  226.6310 C   0  0  0  0  0  0  0  0  0  0  0  0
  141.0090   71.6170  227.8320 C   0  0  0  0  0  0  0  0  0  0  0  0
  139.9730   72.1650  228.5680 F   0  0  0  0  0  0  0  0  0  0  0  0
  141.7150   70.7390  228.6330 F   0  0  0  0  0  0  0  0  0  0  0  0
  141.8490   72.6440  227.4390 F   0  0  0  0  0  0  0  0  0  0  0  0
  140.1340   71.5750  225.4600 C   0  0  0  0  0  0  0  0  0  0  0  0
  140.2293   72.6705  225.4319 H   0  0  0  0  0  0  0  0  0  0  0  0
  139.7650   73.7220  222.3460 N   0  0  0  0  0  0  0  0  0  0  0  0
  140.5620   74.5390  221.6190 C   0  0  0  0  0  0  0  0  0  0  0  0
  140.4390   75.8950  221.4430 C   0  0  0  0  0  0  0  0  0  0  0  0
  139.6607   76.5681  221.8318 H   0  0  0  0  0  0  0  0  0  0  0  0
  1  2  1  0
  2  3  2  0
  3  4  1  0
  4  5  1  0
  5  6  1  0
  6  7  1  0
  6  8  1  0
  8  9  1  0
  8 10  1  0
  8 11  1  0
 11 12  1  0
 11 13  1  0
 11 14  1  0
  5 15  2  0
 15 16  1  0
 15 17  1  0
 17 18  2  0
 18 19  1  0
 19 20  2  0
 20 21  1  0
 20 22  1  0
 22 23  1  0
 22 24  2  0
 24 25  1  0
 24 26  1  0
 26 27  1  0
 27 28  1  0
 27 29  1  0
 27 30  1  0
 26 31  2  0
 31 32  1  0
 17 33  1  0
 33 34  1  0
 34 35  2  0
 35 36  1  0
 35  2  1  0
 34  4  1  0
 31 19  1  0
M  CHG  1  33  -1
M  END
>  <UniqueID>  (16) 
5

>  <SMILES>  (16) 
CCNc1c/c(=N/c2cccc(C(F)(F)F)c2)[n-]c2ccnn12

>  <Energy>  (16) 
80.35831887693398

>  <Genealogy>  (16) 
CCN=c1cc(Nc2cccc(C(F)(F)F)c2)[n-]c2ccnn12 (protonated)
CCNc1cc(=Nc2cccc(C(F)(F)F)c2)[n-]c2ccnn12 (tautomer)
CCNc1c/c(=N/c2cccc(C(F)(F)F)c2)[n-]c2ccnn12 (cis-trans isomerization)
CCNc1c/c(=N/c2cccc(C(F)(F)F)c2)[n-]c2ccnn12 (3D coordinates assigned)
CCNc1c/c(=N/c2cccc(C(F)(F)F)c2)[n-]c2ccnn12 (optimized conformer: 80.35831887693398 kcal/mol)

>  <smiles>  (16) 
CCN=c1cc(Nc2cccc(C(F)(F)F)c2)[nH]c2ccnn12

>  <score_type>  (16) 
oracle

>  <origin>  (16) 
autodockgpu

>  <m_score__min__energy>  (16) 
-6.1200000000000001

>  <m_primary>  (16) 
energy

>  <meeko>  (16) 
{"free_energy": -5.85, "intermolecular_energy": -7.35, "internal_energy": -0.75, "cluster_size": 19, "cluster_id": 1, "rank_in_cluster": 17}

>  <energy>  (16) 
-5.88

>  <cluster_rmsd>  (16) 
1.31

>  <rmsd>  (16) 
271.28

>  <cluster>  (16) 
1

$$$$
KNAQURWOGDABTO-UHFFFAOYNA-N
     RDKit          3D

 36 38  0  0  0  0  0  0  0  0999 V2000
  139.2680   78.1360  221.5750 H   0  0  0  0  0  0  0  0  0  0  0  0
  139.6210   77.0950  221.6160 C   0  0  0  0  0  0  0  0  0  0  0  0
  140.8160   76.6650  221.1470 N   0  0  0  0  0  0  0  0  0  0  0  0
  140.8720   75.3630  221.3690 N   0  0  0  0  0  0  0  0  0  0  0  0
  141.8890   74.4990  221.0840 C   0  0  0  0  0  0  0  0  0  0  0  0
  143.1060   74.9080  220.4290 N   0  0  0  0  0  0  0  0  0  0  0  0
  143.3600   75.9210  220.4660 H   0  0  0  0  0  0  0  0  0  0  0  0
  144.0970   74.0030  219.8460 C   0  0  0  0  0  0  0  0  0  0  0  0
  144.4769   74.4398  218.9106 H   0  0  0  0  0  0  0  0  0  0  0  0
  143.6147   73.0339  219.6505 H   0  0  0  0  0  0  0  0  0  0  0  0
  145.2650   73.7810  220.8040 C   0  0  0  0  0  0  0  0  0  0  0  0
  144.9062   73.8492  221.8416 H   0  0  0  0  0  0  0  0  0  0  0  0
  145.6974   72.7846  220.6303 H   0  0  0  0  0  0  0  0  0  0  0  0
  146.0328   74.5493  220.6303 H   0  0  0  0  0  0  0  0  0  0  0  0
  141.7270   73.1580  221.4770 C   0  0  0  0  0  0  0  0  0  0  0  0
  142.5224   72.4236  221.2820 H   0  0  0  0  0  0  0  0  0  0  0  0
  140.5370   72.7620  222.1230 C   0  0  0  0  0  0  0  0  0  0  0  0
  140.3820   71.5120  222.4530 N   0  0  0  0  0  0  0  0  0  0  0  0
  140.0810   70.9970  223.7610 C   0  0  0  0  0  0  0  0  0  0  0  0
  139.3160   69.8300  223.8630 C   0  0  0  0  0  0  0  0  0  0  0  0
  138.9303   69.3483  222.9524 H   0  0  0  0  0  0  0  0  0  0  0  0
  139.0390   69.2730  225.1120 C   0  0  0  0  0  0  0  0  0  0  0  0
  138.4295   68.3600  225.1824 H   0  0  0  0  0  0  0  0  0  0  0  0
  139.5340   69.8720  226.2740 C   0  0  0  0  0  0  0  0  0  0  0  0
  139.3140   69.4266  227.2554 H   0  0  0  0  0  0  0  0  0  0  0  0
  140.3110   71.0400  226.1950 C   0  0  0  0  0  0  0  0  0  0  0  0
  140.9080   71.6460  227.4400 C   0  0  0  0  0  0  0  0  0  0  0  0
  141.4950   70.6720  228.2280 F   0  0  0  0  0  0  0  0  0  0  0  0
  141.8690   72.5720  227.0780 F   0  0  0  0  0  0  0  0  0  0  0  0
  139.9320   72.2790  228.1900 F   0  0  0  0  0  0  0  0  0  0  0  0
  140.6090   71.5780  224.9300 C   0  0  0  0  0  0  0  0  0  0  0  0
  141.2606   72.4609  224.8532 H   0  0  0  0  0  0  0  0  0  0  0  0
  139.5530   73.6820  222.3550 N   0  0  0  0  0  0  0  0  0  0  0  0
  139.7470   74.9660  221.9750 C   0  0  0  0  0  0  0  0  0  0  0  0
  138.9030   76.0340  222.1570 C   0  0  0  0  0  0  0  0  0  0  0  0
  137.9042   76.0470  222.6176 H   0  0  0  0  0  0  0  0  0  0  0  0
  1  2  1  0
  2  3  2  0
  3  4  1  0
  4  5  1  0
  5  6  1  0
  6  7  1  0
  6  8  1  0
  8  9  1  0
  8 10  1  0
  8 11  1  0
 11 12  1  0
 11 13  1  0
 11 14  1  0
  5 15  2  0
 15 16  1  0
 15 17  1  0
 17 18  2  0
 18 19  1  0
 19 20  2  0
 20 21  1  0
 20 22  1  0
 22 23  1  0
 22 24  2  0
 24 25  1  0
 24 26  1  0
 26 27  1  0
 27 28  1  0
 27 29  1  0
 27 30  1  0
 26 31  2  0
 31 32  1  0
 17 33  1  0
 33 34  1  0
 34 35  2  0
 35 36  1  0
 35  2  1  0
 34  4  1  0
 31 19  1  0
M  CHG  1  33  -1
M  END
>  <UniqueID>  (17) 
5

>  <SMILES>  (17) 
CCNc1c/c(=N/c2cccc(C(F)(F)F)c2)[n-]c2ccnn12

>  <Energy>  (17) 
80.35831887693398

>  <Genealogy>  (17) 
CCN=c1cc(Nc2cccc(C(F)(F)F)c2)[n-]c2ccnn12 (protonated)
CCNc1cc(=Nc2cccc(C(F)(F)F)c2)[n-]c2ccnn12 (tautomer)
CCNc1c/c(=N/c2cccc(C(F)(F)F)c2)[n-]c2ccnn12 (cis-trans isomerization)
CCNc1c/c(=N/c2cccc(C(F)(F)F)c2)[n-]c2ccnn12 (3D coordinates assigned)
CCNc1c/c(=N/c2cccc(C(F)(F)F)c2)[n-]c2ccnn12 (optimized conformer: 80.35831887693398 kcal/mol)

>  <smiles>  (17) 
CCN=c1cc(Nc2cccc(C(F)(F)F)c2)[nH]c2ccnn12

>  <score_type>  (17) 
oracle

>  <origin>  (17) 
autodockgpu

>  <m_score__min__energy>  (17) 
-6.1200000000000001

>  <m_primary>  (17) 
energy

>  <meeko>  (17) 
{"free_energy": -5.9, "intermolecular_energy": -7.39, "internal_energy": -0.82, "cluster_size": 19, "cluster_id": 1, "rank_in_cluster": 14}

>  <energy>  (17) 
-5.85

>  <cluster_rmsd>  (17) 
0.44

>  <rmsd>  (17) 
271.28

>  <cluster>  (17) 
1

$$$$
KNAQURWOGDABTO-UHFFFAOYNA-N
     RDKit          3D

 36 38  0  0  0  0  0  0  0  0999 V2000
  141.5012   77.1912  220.0942 H   0  0  0  0  0  0  0  0  0  0  0  0
  141.3730   76.1780  220.5030 C   0  0  0  0  0  0  0  0  0  0  0  0
  142.1850   75.1290  220.2370 N   0  0  0  0  0  0  0  0  0  0  0  0
  141.7050   74.0900  220.9000 N   0  0  0  0  0  0  0  0  0  0  0  0
  142.1970   72.8190  220.9540 C   0  0  0  0  0  0  0  0  0  0  0  0
  143.3650   72.3980  220.2200 N   0  0  0  0  0  0  0  0  0  0  0  0
  143.2260   72.0470  219.2460 H   0  0  0  0  0  0  0  0  0  0  0  0
  144.7490   72.5640  220.6670 C   0  0  0  0  0  0  0  0  0  0  0  0
  145.4015   71.9124  220.0673 H   0  0  0  0  0  0  0  0  0  0  0  0
  144.8086   72.2937  221.7316 H   0  0  0  0  0  0  0  0  0  0  0  0
  145.2050   74.0120  220.5060 C   0  0  0  0  0  0  0  0  0  0  0  0
  145.3474   74.4641  221.4986 H   0  0  0  0  0  0  0  0  0  0  0  0
  146.1548   74.0378  219.9517 H   0  0  0  0  0  0  0  0  0  0  0  0
  144.4414   74.5774  219.9517 H   0  0  0  0  0  0  0  0  0  0  0  0
  141.5310   71.9020  221.7870 C   0  0  0  0  0  0  0  0  0  0  0  0
  141.8955   70.8680  221.8763 H   0  0  0  0  0  0  0  0  0  0  0  0
  140.3920   72.3190  222.5070 C   0  0  0  0  0  0  0  0  0  0  0  0
  139.7620   71.4550  223.2500 N   0  0  0  0  0  0  0  0  0  0  0  0
  140.1590   70.9830  224.5490 C   0  0  0  0  0  0  0  0  0  0  0  0
  140.7470   71.8880  225.4400 C   0  0  0  0  0  0  0  0  0  0  0  0
  140.9267   72.9264  225.1247 H   0  0  0  0  0  0  0  0  0  0  0  0
  141.1070   71.4820  226.7260 C   0  0  0  0  0  0  0  0  0  0  0  0
  141.5775   72.1980  227.4159 H   0  0  0  0  0  0  0  0  0  0  0  0
  140.8710   70.1680  227.1390 C   0  0  0  0  0  0  0  0  0  0  0  0
  141.1541   69.8549  228.1548 H   0  0  0  0  0  0  0  0  0  0  0  0
  140.2740   69.2440  226.2640 C   0  0  0  0  0  0  0  0  0  0  0  0
  139.9520   67.8470  226.7310 C   0  0  0  0  0  0  0  0  0  0  0  0
  138.8090   67.3740  226.1100 F   0  0  0  0  0  0  0  0  0  0  0  0
  141.0090   67.0100  226.4260 F   0  0  0  0  0  0  0  0  0  0  0  0
  139.7400   67.8270  228.0980 F   0  0  0  0  0  0  0  0  0  0  0  0
  139.8890   69.6700  224.9790 C   0  0  0  0  0  0  0  0  0  0  0  0
  139.3726   68.9709  224.3048 H   0  0  0  0  0  0  0  0  0  0  0  0
  139.9460   73.6050  222.3860 N   0  0  0  0  0  0  0  0  0  0  0  0
  140.6180   74.4640  221.5850 C   0  0  0  0  0  0  0  0  0  0  0  0
  140.3530   75.7930  221.3670 C   0  0  0  0  0  0  0  0  0  0  0  0
  139.5345   76.4040  221.7755 H   0  0  0  0  0  0  0  0  0  0  0  0
  1  2  1  0
  2  3  2  0
  3  4  1  0
  4  5  1  0
  5  6  1  0
  6  7  1  0
  6  8  1  0
  8  9  1  0
  8 10  1  0
  8 11  1  0
 11 12  1  0
 11 13  1  0
 11 14  1  0
  5 15  2  0
 15 16  1  0
 15 17  1  0
 17 18  2  0
 18 19  1  0
 19 20  2  0
 20 21  1  0
 20 22  1  0
 22 23  1  0
 22 24  2  0
 24 25  1  0
 24 26  1  0
 26 27  1  0
 27 28  1  0
 27 29  1  0
 27 30  1  0
 26 31  2  0
 31 32  1  0
 17 33  1  0
 33 34  1  0
 34 35  2  0
 35 36  1  0
 35  2  1  0
 34  4  1  0
 31 19  1  0
M  CHG  1  33  -1
M  END
>  <UniqueID>  (18) 
5

>  <SMILES>  (18) 
CCNc1c/c(=N/c2cccc(C(F)(F)F)c2)[n-]c2ccnn12

>  <Energy>  (18) 
80.35831887693398

>  <Genealogy>  (18) 
CCN=c1cc(Nc2cccc(C(F)(F)F)c2)[n-]c2ccnn12 (protonated)
CCNc1cc(=Nc2cccc(C(F)(F)F)c2)[n-]c2ccnn12 (tautomer)
CCNc1c/c(=N/c2cccc(C(F)(F)F)c2)[n-]c2ccnn12 (cis-trans isomerization)
CCNc1c/c(=N/c2cccc(C(F)(F)F)c2)[n-]c2ccnn12 (3D coordinates assigned)
CCNc1c/c(=N/c2cccc(C(F)(F)F)c2)[n-]c2ccnn12 (optimized conformer: 80.35831887693398 kcal/mol)

>  <smiles>  (18) 
CCN=c1cc(Nc2cccc(C(F)(F)F)c2)[nH]c2ccnn12

>  <score_type>  (18) 
oracle

>  <origin>  (18) 
autodockgpu

>  <m_score__min__energy>  (18) 
-6.1200000000000001

>  <m_primary>  (18) 
energy

>  <meeko>  (18) 
{"free_energy": -5.99, "intermolecular_energy": -7.48, "internal_energy": -0.76, "cluster_size": 19, "cluster_id": 1, "rank_in_cluster": 8}

>  <energy>  (18) 
-5.82

>  <cluster_rmsd>  (18) 
0.95

>  <rmsd>  (18) 
271.33

>  <cluster>  (18) 
1

$$$$
KNAQURWOGDABTO-UHFFFAOYNA-N
     RDKit          3D

 36 38  0  0  0  0  0  0  0  0999 V2000
  141.5590   77.3443  220.3028 H   0  0  0  0  0  0  0  0  0  0  0  0
  141.4500   76.3010  220.6340 C   0  0  0  0  0  0  0  0  0  0  0  0
  142.2580   75.2820  220.2580 N   0  0  0  0  0  0  0  0  0  0  0  0
  141.8060   74.1900  220.8540 N   0  0  0  0  0  0  0  0  0  0  0  0
  142.3070   72.9230  220.7910 C   0  0  0  0  0  0  0  0  0  0  0  0
  143.4510   72.5710  219.9870 N   0  0  0  0  0  0  0  0  0  0  0  0
  143.3310   72.5630  218.9490 H   0  0  0  0  0  0  0  0  0  0  0  0
  144.8100   72.3710  220.4930 C   0  0  0  0  0  0  0  0  0  0  0  0
  145.4064   71.8531  219.7275 H   0  0  0  0  0  0  0  0  0  0  0  0
  144.7570   71.7691  221.4122 H   0  0  0  0  0  0  0  0  0  0  0  0
  145.4720   73.7060  220.8230 C   0  0  0  0  0  0  0  0  0  0  0  0
  145.5314   73.8258  221.9148 H   0  0  0  0  0  0  0  0  0  0  0  0
  146.4855   73.7282  220.3960 H   0  0  0  0  0  0  0  0  0  0  0  0
  144.8762   74.5262  220.3960 H   0  0  0  0  0  0  0  0  0  0  0  0
  141.6750   71.9380  221.5710 C   0  0  0  0  0  0  0  0  0  0  0  0
  142.0472   70.9029  221.5651 H   0  0  0  0  0  0  0  0  0  0  0  0
  140.5600   72.2880  222.3610 C   0  0  0  0  0  0  0  0  0  0  0  0
  139.9600   71.3630  223.0540 N   0  0  0  0  0  0  0  0  0  0  0  0
  140.2850   70.9400  224.3890 C   0  0  0  0  0  0  0  0  0  0  0  0
  140.7820   71.8880  225.2910 C   0  0  0  0  0  0  0  0  0  0  0  0
  140.9474   72.9237  224.9593 H   0  0  0  0  0  0  0  0  0  0  0  0
  141.0690   71.5280  226.6080 C   0  0  0  0  0  0  0  0  0  0  0  0
  141.4682   72.2779  227.3068 H   0  0  0  0  0  0  0  0  0  0  0  0
  140.8510   70.2180  227.0420 C   0  0  0  0  0  0  0  0  0  0  0  0
  141.0766   69.9415  228.0825 H   0  0  0  0  0  0  0  0  0  0  0  0
  140.3450   69.2520  226.1560 C   0  0  0  0  0  0  0  0  0  0  0  0
  140.0390   67.8560  226.6400 C   0  0  0  0  0  0  0  0  0  0  0  0
  138.8650   67.3880  226.0760 F   0  0  0  0  0  0  0  0  0  0  0  0
  141.0760   67.0140  226.2850 F   0  0  0  0  0  0  0  0  0  0  0  0
  139.8940   67.8390  228.0160 F   0  0  0  0  0  0  0  0  0  0  0  0
  140.0320   69.6300  224.8380 C   0  0  0  0  0  0  0  0  0  0  0  0
  139.5854   68.8954  224.1518 H   0  0  0  0  0  0  0  0  0  0  0  0
  140.1020   73.5760  222.3560 N   0  0  0  0  0  0  0  0  0  0  0  0
  140.7420   74.5010  221.6030 C   0  0  0  0  0  0  0  0  0  0  0  0
  140.4620   75.8410  221.4990 C   0  0  0  0  0  0  0  0  0  0  0  0
  139.6544   76.4113  221.9813 H   0  0  0  0  0  0  0  0  0  0  0  0
  1  2  1  0
  2  3  2  0
  3  4  1  0
  4  5  1  0
  5  6  1  0
  6  7  1  0
  6  8  1  0
  8  9  1  0
  8 10  1  0
  8 11  1  0
 11 12  1  0
 11 13  1  0
 11 14  1  0
  5 15  2  0
 15 16  1  0
 15 17  1  0
 17 18  2  0
 18 19  1  0
 19 20  2  0
 20 21  1  0
 20 22  1  0
 22 23  1  0
 22 24  2  0
 24 25  1  0
 24 26  1  0
 26 27  1  0
 27 28  1  0
 27 29  1  0
 27 30  1  0
 26 31  2  0
 31 32  1  0
 17 33  1  0
 33 34  1  0
 34 35  2  0
 35 36  1  0
 35  2  1  0
 34  4  1  0
 31 19  1  0
M  CHG  1  33  -1
M  END
>  <UniqueID>  (19) 
5

>  <SMILES>  (19) 
CCNc1c/c(=N/c2cccc(C(F)(F)F)c2)[n-]c2ccnn12

>  <Energy>  (19) 
80.35831887693398

>  <Genealogy>  (19) 
CCN=c1cc(Nc2cccc(C(F)(F)F)c2)[n-]c2ccnn12 (protonated)
CCNc1cc(=Nc2cccc(C(F)(F)F)c2)[n-]c2ccnn12 (tautomer)
CCNc1c/c(=N/c2cccc(C(F)(F)F)c2)[n-]c2ccnn12 (cis-trans isomerization)
CCNc1c/c(=N/c2cccc(C(F)(F)F)c2)[n-]c2ccnn12 (3D coordinates assigned)
CCNc1c/c(=N/c2cccc(C(F)(F)F)c2)[n-]c2ccnn12 (optimized conformer: 80.35831887693398 kcal/mol)

>  <smiles>  (19) 
CCN=c1cc(Nc2cccc(C(F)(F)F)c2)[nH]c2ccnn12

>  <score_type>  (19) 
oracle

>  <origin>  (19) 
autodockgpu

>  <m_score__min__energy>  (19) 
-6.1200000000000001

>  <m_primary>  (19) 
energy

>  <meeko>  (19) 
{"free_energy": -6.06, "intermolecular_energy": -7.55, "internal_energy": -0.78, "cluster_size": 19, "cluster_id": 1, "rank_in_cluster": 3}

>  <energy>  (19) 
-5.81

>  <cluster_rmsd>  (19) 
1.22

>  <rmsd>  (19) 
271.31

>  <cluster>  (19) 
1

$$$$
KNAQURWOGDABTO-UHFFFAOYNA-N
     RDKit          3D

 36 38  0  0  0  0  0  0  0  0999 V2000
  141.4965   77.2170  220.2463 H   0  0  0  0  0  0  0  0  0  0  0  0
  141.3920   76.1790  220.5950 C   0  0  0  0  0  0  0  0  0  0  0  0
  142.1910   75.1530  220.2190 N   0  0  0  0  0  0  0  0  0  0  0  0
  141.7490   74.0720  220.8400 N   0  0  0  0  0  0  0  0  0  0  0  0
  142.2460   72.8030  220.7860 C   0  0  0  0  0  0  0  0  0  0  0  0
  143.3730   72.4350  219.9660 N   0  0  0  0  0  0  0  0  0  0  0  0
  143.2070   72.3070  218.9420 H   0  0  0  0  0  0  0  0  0  0  0  0
  144.7630   72.3750  220.4180 C   0  0  0  0  0  0  0  0  0  0  0  0
  145.3821   71.9378  219.6208 H   0  0  0  0  0  0  0  0  0  0  0  0
  144.8102   71.7555  221.3257 H   0  0  0  0  0  0  0  0  0  0  0  0
  145.2900   73.7690  220.7520 C   0  0  0  0  0  0  0  0  0  0  0  0
  145.3363   73.8915  221.8442 H   0  0  0  0  0  0  0  0  0  0  0  0
  146.2967   73.8921  220.3262 H   0  0  0  0  0  0  0  0  0  0  0  0
  144.6165   74.5273  220.3262 H   0  0  0  0  0  0  0  0  0  0  0  0
  141.6270   71.8310  221.5930 C   0  0  0  0  0  0  0  0  0  0  0  0
  141.9971   70.7951  221.5955 H   0  0  0  0  0  0  0  0  0  0  0  0
  140.5280   72.1950  222.3990 C   0  0  0  0  0  0  0  0  0  0  0  0
  139.9410   71.2820  223.1180 N   0  0  0  0  0  0  0  0  0  0  0  0
  140.2620   70.9100  224.4690 C   0  0  0  0  0  0  0  0  0  0  0  0
  140.7860   71.8840  225.3260 C   0  0  0  0  0  0  0  0  0  0  0  0
  140.9746   72.8996  224.9480 H   0  0  0  0  0  0  0  0  0  0  0  0
  141.0710   71.5760  226.6570 C   0  0  0  0  0  0  0  0  0  0  0  0
  141.4926   72.3457  227.3203 H   0  0  0  0  0  0  0  0  0  0  0  0
  140.8220   70.2920  227.1490 C   0  0  0  0  0  0  0  0  0  0  0  0
  141.0446   70.0566  228.2002 H   0  0  0  0  0  0  0  0  0  0  0  0
  140.2890   69.3000  226.3090 C   0  0  0  0  0  0  0  0  0  0  0  0
  139.9510   67.9360  226.8550 C   0  0  0  0  0  0  0  0  0  0  0  0
  141.0100   67.0620  226.6840 F   0  0  0  0  0  0  0  0  0  0  0  0
  139.6690   68.0430  228.2040 F   0  0  0  0  0  0  0  0  0  0  0  0
  138.8480   67.4100  226.2050 F   0  0  0  0  0  0  0  0  0  0  0  0
  139.9780   69.6280  224.9760 C   0  0  0  0  0  0  0  0  0  0  0  0
  139.5089   68.8758  224.3247 H   0  0  0  0  0  0  0  0  0  0  0  0
  140.0730   73.4840  222.3840 N   0  0  0  0  0  0  0  0  0  0  0  0
  140.7000   74.3960  221.6040 C   0  0  0  0  0  0  0  0  0  0  0  0
  140.4200   75.7340  221.4850 C   0  0  0  0  0  0  0  0  0  0  0  0
  139.6224   76.3128  221.9736 H   0  0  0  0  0  0  0  0  0  0  0  0
  1  2  1  0
  2  3  2  0
  3  4  1  0
  4  5  1  0
  5  6  1  0
  6  7  1  0
  6  8  1  0
  8  9  1  0
  8 10  1  0
  8 11  1  0
 11 12  1  0
 11 13  1  0
 11 14  1  0
  5 15  2  0
 15 16  1  0
 15 17  1  0
 17 18  2  0
 18 19  1  0
 19 20  2  0
 20 21  1  0
 20 22  1  0
 22 23  1  0
 22 24  2  0
 24 25  1  0
 24 26  1  0
 26 27  1  0
 27 28  1  0
 27 29  1  0
 27 30  1  0
 26 31  2  0
 31 32  1  0
 17 33  1  0
 33 34  1  0
 34 35  2  0
 35 36  1  0
 35  2  1  0
 34  4  1  0
 31 19  1  0
M  CHG  1  33  -1
M  END
>  <UniqueID>  (20) 
5

>  <SMILES>  (20) 
CCNc1c/c(=N/c2cccc(C(F)(F)F)c2)[n-]c2ccnn12

>  <Energy>  (20) 
80.35831887693398

>  <Genealogy>  (20) 
CCN=c1cc(Nc2cccc(C(F)(F)F)c2)[n-]c2ccnn12 (protonated)
CCNc1cc(=Nc2cccc(C(F)(F)F)c2)[n-]c2ccnn12 (tautomer)
CCNc1c/c(=N/c2cccc(C(F)(F)F)c2)[n-]c2ccnn12 (cis-trans isomerization)
CCNc1c/c(=N/c2cccc(C(F)(F)F)c2)[n-]c2ccnn12 (3D coordinates assigned)
CCNc1c/c(=N/c2cccc(C(F)(F)F)c2)[n-]c2ccnn12 (optimized conformer: 80.35831887693398 kcal/mol)

>  <smiles>  (20) 
CCN=c1cc(Nc2cccc(C(F)(F)F)c2)[nH]c2ccnn12

>  <score_type>  (20) 
oracle

>  <origin>  (20) 
autodockgpu

>  <m_score__min__energy>  (20) 
-6.1200000000000001

>  <m_primary>  (20) 
energy

>  <meeko>  (20) 
{"free_energy": -6.03, "intermolecular_energy": -7.52, "internal_energy": -0.78, "cluster_size": 19, "cluster_id": 1, "rank_in_cluster": 4}

>  <energy>  (20) 
-5.36

>  <cluster_rmsd>  (20) 
0.0

>  <rmsd>  (20) 
271.32

>  <cluster>  (20) 
2

$$$$
RBQYZXQNNWWOGL-RGEXLXHINA-N
     RDKit          3D

 37 39  0  0  0  0  0  0  0  0999 V2000
  138.9889   67.5896  225.6604 H   0  0  0  0  0  0  0  0  0  0  0  0
  139.3150   68.6240  225.4770 C   0  0  0  0  0  0  0  0  0  0  0  0
  139.1890   69.1780  224.2010 C   0  0  0  0  0  0  0  0  0  0  0  0
  138.7680   68.5758  223.3824 H   0  0  0  0  0  0  0  0  0  0  0  0
  139.5960   70.4970  223.9580 C   0  0  0  0  0  0  0  0  0  0  0  0
  139.4930   71.0330  222.6270 N   0  0  0  0  0  0  0  0  0  0  0  0
  138.8950   70.5230  221.9390 H   0  0  0  0  0  0  0  0  0  0  0  0
  140.1670   72.2160  222.1710 C   0  0  0  0  0  0  0  0  0  0  0  0
  139.5750   73.4270  222.3600 N   0  0  0  0  0  0  0  0  0  0  0  0
  140.2130   74.5500  221.9590 C   0  0  0  0  0  0  0  0  0  0  0  0
  139.7550   75.8410  222.0730 C   0  0  0  0  0  0  0  0  0  0  0  0
  138.8028   76.1924  222.4970 H   0  0  0  0  0  0  0  0  0  0  0  0
  140.7800   76.5920  221.5260 C   0  0  0  0  0  0  0  0  0  0  0  0
  140.7830   77.6883  221.4355 H   0  0  0  0  0  0  0  0  0  0  0  0
  141.7760   75.7760  221.1200 N   0  0  0  0  0  0  0  0  0  0  0  0
  142.6460   76.1220  220.6770 H   0  0  0  0  0  0  0  0  0  0  0  0
  141.4290   74.5200  221.3820 N   0  0  0  0  0  0  0  0  0  0  0  0
  142.0950   73.3320  221.1790 C   0  0  0  0  0  0  0  0  0  0  0  0
  143.2800   73.2070  220.6400 N   0  0  0  0  0  0  0  0  0  0  0  0
  144.3900   74.1380  220.4730 C   0  0  0  0  0  0  0  0  0  0  0  0
  144.1844   75.0502  221.0523 H   0  0  0  0  0  0  0  0  0  0  0  0
  144.4905   74.3745  219.4034 H   0  0  0  0  0  0  0  0  0  0  0  0
  145.7010   73.5220  220.9600 C   0  0  0  0  0  0  0  0  0  0  0  0
  145.7164   73.5148  222.0599 H   0  0  0  0  0  0  0  0  0  0  0  0
  145.7832   72.4910  220.5853 H   0  0  0  0  0  0  0  0  0  0  0  0
  146.5471   74.1168  220.5853 H   0  0  0  0  0  0  0  0  0  0  0  0
  141.4540   72.1520  221.5940 C   0  0  0  0  0  0  0  0  0  0  0  0
  141.9542   71.1803  221.4694 H   0  0  0  0  0  0  0  0  0  0  0  0
  140.1630   71.2460  225.0050 C   0  0  0  0  0  0  0  0  0  0  0  0
  140.5293   72.2647  224.8097 H   0  0  0  0  0  0  0  0  0  0  0  0
  140.2660   70.7050  226.2990 C   0  0  0  0  0  0  0  0  0  0  0  0
  140.9080   71.5020  227.4070 C   0  0  0  0  0  0  0  0  0  0  0  0
  141.8850   72.3230  226.8720 F   0  0  0  0  0  0  0  0  0  0  0  0
  141.4880   70.6630  228.3430 F   0  0  0  0  0  0  0  0  0  0  0  0
  139.9660   72.2850  228.0520 F   0  0  0  0  0  0  0  0  0  0  0  0
  139.8540   69.3800  226.5210 C   0  0  0  0  0  0  0  0  0  0  0  0
  139.9564   68.9357  227.5220 H   0  0  0  0  0  0  0  0  0  0  0  0
  1  2  1  0
  2  3  2  0
  3  4  1  0
  3  5  1  0
  5  6  1  0
  6  7  1  0
  6  8  1  0
  8  9  1  0
  9 10  2  0
 10 11  1  0
 11 12  1  0
 11 13  2  0
 13 14  1  0
 13 15  1  0
 15 16  1  0
 15 17  1  0
 17 18  1  0
 18 19  2  0
 19 20  1  0
 20 21  1  0
 20 22  1  0
 20 23  1  0
 23 24  1  0
 23 25  1  0
 23 26  1  0
 18 27  1  0
 27 28  1  0
  5 29  2  0
 29 30  1  0
 29 31  1  0
 31 32  1  0
 32 33  1  0
 32 34  1  0
 32 35  1  0
 31 36  2  0
 36 37  1  0
 36  2  1  0
 27  8  2  0
 17 10  1  0
M  END
>  <UniqueID>  (21) 
6

>  <SMILES>  (21) 
CC/N=c1/cc(Nc2cccc(C(F)(F)F)c2)nc2cc[nH]n12

>  <Energy>  (21) 
90.82043111404643

>  <Genealogy>  (21) 
CCN=c1cc(Nc2cccc(C(F)(F)F)c2)nc2cc[nH]n12 (tautomer)
CC/N=c1/cc(Nc2cccc(C(F)(F)F)c2)nc2cc[nH]n12 (cis-trans isomerization)
CC/N=c1/cc(Nc2cccc(C(F)(F)F)c2)nc2cc[nH]n12 (3D coordinates assigned)
CC/N=c1/cc(Nc2cccc(C(F)(F)F)c2)nc2cc[nH]n12 (optimized conformer: 90.82043111404643 kcal/mol)

>  <smiles>  (21) 
CCN=c1cc(Nc2cccc(C(F)(F)F)c2)[nH]c2ccnn12

>  <score_type>  (21) 
oracle

>  <origin>  (21) 
autodockgpu

>  <m_score__min__energy>  (21) 
-6.21

>  <m_primary>  (21) 
energy

>  <meeko>  (21) 
{"free_energy": -6.21, "intermolecular_energy": -7.7, "internal_energy": -0.52, "cluster_size": 18, "cluster_id": 1, "rank_in_cluster": 3}

>  <energy>  (21) 
-6.21

>  <cluster_rmsd>  (21) 
0.0

>  <rmsd>  (21) 
271.9

>  <cluster>  (21) 
1

$$$$
RBQYZXQNNWWOGL-RGEXLXHINA-N
     RDKit          3D

 37 39  0  0  0  0  0  0  0  0999 V2000
  141.3110   72.4392  227.2388 H   0  0  0  0  0  0  0  0  0  0  0  0
  140.9610   71.6350  226.5750 C   0  0  0  0  0  0  0  0  0  0  0  0
  140.7060   71.9050  225.2290 C   0  0  0  0  0  0  0  0  0  0  0  0
  140.8521   72.9228  224.8383 H   0  0  0  0  0  0  0  0  0  0  0  0
  140.2650   70.8870  224.3730 C   0  0  0  0  0  0  0  0  0  0  0  0
  139.9710   71.1970  223.0000 N   0  0  0  0  0  0  0  0  0  0  0  0
  139.2720   70.6010  222.5020 H   0  0  0  0  0  0  0  0  0  0  0  0
  140.5830   72.2620  222.2560 C   0  0  0  0  0  0  0  0  0  0  0  0
  140.0360   73.5080  222.3160 N   0  0  0  0  0  0  0  0  0  0  0  0
  140.6190   74.5240  221.6410 C   0  0  0  0  0  0  0  0  0  0  0  0
  140.1940   75.8310  221.5950 C   0  0  0  0  0  0  0  0  0  0  0  0
  139.3165   76.2808  222.0824 H   0  0  0  0  0  0  0  0  0  0  0  0
  141.1360   76.4440  220.7880 C   0  0  0  0  0  0  0  0  0  0  0  0
  141.1364   77.5085  220.5110 H   0  0  0  0  0  0  0  0  0  0  0  0
  142.0550   75.5370  220.3920 N   0  0  0  0  0  0  0  0  0  0  0  0
  142.8550   75.7740  219.7780 H   0  0  0  0  0  0  0  0  0  0  0  0
  141.7380   74.3570  220.9120 N   0  0  0  0  0  0  0  0  0  0  0  0
  142.3560   73.1290  220.8250 C   0  0  0  0  0  0  0  0  0  0  0  0
  143.4500   72.8750  220.1530 N   0  0  0  0  0  0  0  0  0  0  0  0
  144.6810   73.6300  219.9520 C   0  0  0  0  0  0  0  0  0  0  0  0
  144.4422   74.7030  219.9115 H   0  0  0  0  0  0  0  0  0  0  0  0
  145.1430   73.3017  219.0092 H   0  0  0  0  0  0  0  0  0  0  0  0
  145.6690   73.3810  221.0900 C   0  0  0  0  0  0  0  0  0  0  0  0
  145.1569   73.5100  222.0550 H   0  0  0  0  0  0  0  0  0  0  0  0
  146.0613   72.3559  221.0173 H   0  0  0  0  0  0  0  0  0  0  0  0
  146.5003   74.0977  221.0173 H   0  0  0  0  0  0  0  0  0  0  0  0
  141.7710   72.0580  221.5230 C   0  0  0  0  0  0  0  0  0  0  0  0
  142.2387   71.0627  221.4976 H   0  0  0  0  0  0  0  0  0  0  0  0
  140.0500   69.5970  224.8920 C   0  0  0  0  0  0  0  0  0  0  0  0
  139.6567   68.8052  224.2375 H   0  0  0  0  0  0  0  0  0  0  0  0
  140.3330   69.3100  226.2390 C   0  0  0  0  0  0  0  0  0  0  0  0
  140.0670   67.9340  226.7960 C   0  0  0  0  0  0  0  0  0  0  0  0
  138.8240   67.5030  226.3700 F   0  0  0  0  0  0  0  0  0  0  0  0
  140.0880   67.9520  228.1800 F   0  0  0  0  0  0  0  0  0  0  0  0
  141.0280   67.0390  226.3610 F   0  0  0  0  0  0  0  0  0  0  0  0
  140.7730   70.3470  227.0810 C   0  0  0  0  0  0  0  0  0  0  0  0
  140.9701   70.1425  228.1437 H   0  0  0  0  0  0  0  0  0  0  0  0
  1  2  1  0
  2  3  2  0
  3  4  1  0
  3  5  1  0
  5  6  1  0
  6  7  1  0
  6  8  1  0
  8  9  1  0
  9 10  2  0
 10 11  1  0
 11 12  1  0
 11 13  2  0
 13 14  1  0
 13 15  1  0
 15 16  1  0
 15 17  1  0
 17 18  1  0
 18 19  2  0
 19 20  1  0
 20 21  1  0
 20 22  1  0
 20 23  1  0
 23 24  1  0
 23 25  1  0
 23 26  1  0
 18 27  1  0
 27 28  1  0
  5 29  2  0
 29 30  1  0
 29 31  1  0
 31 32  1  0
 32 33  1  0
 32 34  1  0
 32 35  1  0
 31 36  2  0
 36 37  1  0
 36  2  1  0
 27  8  2  0
 17 10  1  0
M  END
>  <UniqueID>  (22) 
6

>  <SMILES>  (22) 
CC/N=c1/cc(Nc2cccc(C(F)(F)F)c2)nc2cc[nH]n12

>  <Energy>  (22) 
90.82043111404643

>  <Genealogy>  (22) 
CCN=c1cc(Nc2cccc(C(F)(F)F)c2)nc2cc[nH]n12 (tautomer)
CC/N=c1/cc(Nc2cccc(C(F)(F)F)c2)nc2cc[nH]n12 (cis-trans isomerization)
CC/N=c1/cc(Nc2cccc(C(F)(F)F)c2)nc2cc[nH]n12 (3D coordinates assigned)
CC/N=c1/cc(Nc2cccc(C(F)(F)F)c2)nc2cc[nH]n12 (optimized conformer: 90.82043111404643 kcal/mol)

>  <smiles>  (22) 
CCN=c1cc(Nc2cccc(C(F)(F)F)c2)[nH]c2ccnn12

>  <score_type>  (22) 
oracle

>  <origin>  (22) 
autodockgpu

>  <m_score__min__energy>  (22) 
-6.21

>  <m_primary>  (22) 
energy

>  <meeko>  (22) 
{"free_energy": -6.12, "intermolecular_energy": -7.61, "internal_energy": -0.55, "cluster_size": 18, "cluster_id": 1, "rank_in_cluster": 11}

>  <energy>  (22) 
-6.21

>  <cluster_rmsd>  (22) 
0.08

>  <rmsd>  (22) 
271.95

>  <cluster>  (22) 
1

$$$$
RBQYZXQNNWWOGL-RGEXLXHINA-N
     RDKit          3D

 37 39  0  0  0  0  0  0  0  0999 V2000
  138.5470   68.0539  225.7221 H   0  0  0  0  0  0  0  0  0  0  0  0
  139.0420   69.0110  225.5010 C   0  0  0  0  0  0  0  0  0  0  0  0
  139.0120   69.5270  224.2040 C   0  0  0  0  0  0  0  0  0  0  0  0
  138.4954   68.9725  223.4067 H   0  0  0  0  0  0  0  0  0  0  0  0
  139.6360   70.7470  223.9120 C   0  0  0  0  0  0  0  0  0  0  0  0
  139.6260   71.2390  222.5610 N   0  0  0  0  0  0  0  0  0  0  0  0
  139.1350   70.6690  221.8350 H   0  0  0  0  0  0  0  0  0  0  0  0
  140.2590   72.4550  222.1320 C   0  0  0  0  0  0  0  0  0  0  0  0
  139.6210   73.6390  222.3430 N   0  0  0  0  0  0  0  0  0  0  0  0
  140.2200   74.7930  221.9670 C   0  0  0  0  0  0  0  0  0  0  0  0
  139.7130   76.0640  222.1050 C   0  0  0  0  0  0  0  0  0  0  0  0
  138.7466   76.3713  222.5311 H   0  0  0  0  0  0  0  0  0  0  0  0
  140.7130   76.8630  221.5780 C   0  0  0  0  0  0  0  0  0  0  0  0
  140.6766   77.9603  221.5100 H   0  0  0  0  0  0  0  0  0  0  0  0
  141.7400   76.0920  221.1600 N   0  0  0  0  0  0  0  0  0  0  0  0
  142.5990   76.4790  220.7300 H   0  0  0  0  0  0  0  0  0  0  0  0
  141.4380   74.8200  221.3960 N   0  0  0  0  0  0  0  0  0  0  0  0
  142.1480   73.6610  221.1720 C   0  0  0  0  0  0  0  0  0  0  0  0
  143.3400   73.5910  220.6370 N   0  0  0  0  0  0  0  0  0  0  0  0
  144.4460   72.6560  220.8130 C   0  0  0  0  0  0  0  0  0  0  0  0
  144.5975   72.0973  219.8776 H   0  0  0  0  0  0  0  0  0  0  0  0
  144.1976   71.9689  221.6353 H   0  0  0  0  0  0  0  0  0  0  0  0
  145.7350   73.3960  221.1680 C   0  0  0  0  0  0  0  0  0  0  0  0
  145.8353   73.4536  222.2619 H   0  0  0  0  0  0  0  0  0  0  0  0
  146.5959   72.8546  220.7488 H   0  0  0  0  0  0  0  0  0  0  0  0
  145.7016   74.4125  220.7488 H   0  0  0  0  0  0  0  0  0  0  0  0
  141.5490   72.4500  221.5600 C   0  0  0  0  0  0  0  0  0  0  0  0
  142.0850   71.5000  221.4180 H   0  0  0  0  0  0  0  0  0  0  0  0
  140.3190   71.4320  224.9330 C   0  0  0  0  0  0  0  0  0  0  0  0
  140.8513   72.3661  224.7005 H   0  0  0  0  0  0  0  0  0  0  0  0
  140.3280   70.9340  226.2490 C   0  0  0  0  0  0  0  0  0  0  0  0
  141.0930   71.6560  227.3300 C   0  0  0  0  0  0  0  0  0  0  0  0
  142.1940   72.2790  226.7700 F   0  0  0  0  0  0  0  0  0  0  0  0
  141.5230   70.7700  228.3030 F   0  0  0  0  0  0  0  0  0  0  0  0
  140.2950   72.6100  227.9370 F   0  0  0  0  0  0  0  0  0  0  0  0
  139.6990   69.7070  226.5190 C   0  0  0  0  0  0  0  0  0  0  0  0
  139.7239   69.2920  227.5374 H   0  0  0  0  0  0  0  0  0  0  0  0
  1  2  1  0
  2  3  2  0
  3  4  1  0
  3  5  1  0
  5  6  1  0
  6  7  1  0
  6  8  1  0
  8  9  1  0
  9 10  2  0
 10 11  1  0
 11 12  1  0
 11 13  2  0
 13 14  1  0
 13 15  1  0
 15 16  1  0
 15 17  1  0
 17 18  1  0
 18 19  2  0
 19 20  1  0
 20 21  1  0
 20 22  1  0
 20 23  1  0
 23 24  1  0
 23 25  1  0
 23 26  1  0
 18 27  1  0
 27 28  1  0
  5 29  2  0
 29 30  1  0
 29 31  1  0
 31 32  1  0
 32 33  1  0
 32 34  1  0
 32 35  1  0
 31 36  2  0
 36 37  1  0
 36  2  1  0
 27  8  2  0
 17 10  1  0
M  END
>  <UniqueID>  (23) 
6

>  <SMILES>  (23) 
CC/N=c1/cc(Nc2cccc(C(F)(F)F)c2)nc2cc[nH]n12

>  <Energy>  (23) 
90.82043111404643

>  <Genealogy>  (23) 
CCN=c1cc(Nc2cccc(C(F)(F)F)c2)nc2cc[nH]n12 (tautomer)
CC/N=c1/cc(Nc2cccc(C(F)(F)F)c2)nc2cc[nH]n12 (cis-trans isomerization)
CC/N=c1/cc(Nc2cccc(C(F)(F)F)c2)nc2cc[nH]n12 (3D coordinates assigned)
CC/N=c1/cc(Nc2cccc(C(F)(F)F)c2)nc2cc[nH]n12 (optimized conformer: 90.82043111404643 kcal/mol)

>  <smiles>  (23) 
CCN=c1cc(Nc2cccc(C(F)(F)F)c2)[nH]c2ccnn12

>  <score_type>  (23) 
oracle

>  <origin>  (23) 
autodockgpu

>  <m_score__min__energy>  (23) 
-6.21

>  <m_primary>  (23) 
energy

>  <meeko>  (23) 
{"free_energy": -6.11, "intermolecular_energy": -7.6, "internal_energy": -0.54, "cluster_size": 18, "cluster_id": 1, "rank_in_cluster": 12}

>  <energy>  (23) 
-6.21

>  <cluster_rmsd>  (23) 
0.02

>  <rmsd>  (23) 
271.91

>  <cluster>  (23) 
1

$$$$
RBQYZXQNNWWOGL-RGEXLXHINA-N
     RDKit          3D

 37 39  0  0  0  0  0  0  0  0999 V2000
  141.5300   72.2643  227.3292 H   0  0  0  0  0  0  0  0  0  0  0  0
  141.0770   71.5280  226.6490 C   0  0  0  0  0  0  0  0  0  0  0  0
  140.7070   71.9090  225.3580 C   0  0  0  0  0  0  0  0  0  0  0  0
  140.8652   72.9461  225.0272 H   0  0  0  0  0  0  0  0  0  0  0  0
  140.1350   70.9770  224.4810 C   0  0  0  0  0  0  0  0  0  0  0  0
  139.7260   71.4010  223.1690 N   0  0  0  0  0  0  0  0  0  0  0  0
  138.8560   70.9850  222.7690 H   0  0  0  0  0  0  0  0  0  0  0  0
  140.4400   72.3490  222.3600 C   0  0  0  0  0  0  0  0  0  0  0  0
  140.0220   73.6450  222.3390 N   0  0  0  0  0  0  0  0  0  0  0  0
  140.7030   74.5520  221.6020 C   0  0  0  0  0  0  0  0  0  0  0  0
  140.4120   75.8900  221.4710 C   0  0  0  0  0  0  0  0  0  0  0  0
  139.5866   76.4569  221.9264 H   0  0  0  0  0  0  0  0  0  0  0  0
  141.4080   76.3510  220.6280 C   0  0  0  0  0  0  0  0  0  0  0  0
  141.5153   77.3900  220.2832 H   0  0  0  0  0  0  0  0  0  0  0  0
  142.2280   75.3320  220.2930 N   0  0  0  0  0  0  0  0  0  0  0  0
  143.0450   75.4470  219.6670 H   0  0  0  0  0  0  0  0  0  0  0  0
  141.7950   74.2260  220.8870 N   0  0  0  0  0  0  0  0  0  0  0  0
  142.2860   72.9380  220.8800 C   0  0  0  0  0  0  0  0  0  0  0  0
  143.3450   72.5320  220.2280 N   0  0  0  0  0  0  0  0  0  0  0  0
  144.7500   72.4170  220.6040 C   0  0  0  0  0  0  0  0  0  0  0  0
  145.2999   71.9177  219.7926 H   0  0  0  0  0  0  0  0  0  0  0  0
  144.8176   71.8312  221.5326 H   0  0  0  0  0  0  0  0  0  0  0  0
  145.3650   73.7940  220.8510 C   0  0  0  0  0  0  0  0  0  0  0  0
  145.4442   73.9713  221.9337 H   0  0  0  0  0  0  0  0  0  0  0  0
  146.3668   73.8347  220.3985 H   0  0  0  0  0  0  0  0  0  0  0  0
  144.7267   74.5672  220.3985 H   0  0  0  0  0  0  0  0  0  0  0  0
  141.5980   71.9790  221.6440 C   0  0  0  0  0  0  0  0  0  0  0  0
  141.9621   70.9417  221.6834 H   0  0  0  0  0  0  0  0  0  0  0  0
  139.9080   69.6620  224.9270 C   0  0  0  0  0  0  0  0  0  0  0  0
  139.4150   68.9385  224.2611 H   0  0  0  0  0  0  0  0  0  0  0  0
  140.3050   69.2640  226.2150 C   0  0  0  0  0  0  0  0  0  0  0  0
  140.0260   67.8620  226.6980 C   0  0  0  0  0  0  0  0  0  0  0  0
  140.0590   67.8420  228.0810 F   0  0  0  0  0  0  0  0  0  0  0  0
  140.9720   66.9770  226.2110 F   0  0  0  0  0  0  0  0  0  0  0  0
  138.7780   67.4400  226.2710 F   0  0  0  0  0  0  0  0  0  0  0  0
  140.8740   70.2150  227.0800 C   0  0  0  0  0  0  0  0  0  0  0  0
  141.1607   69.9236  228.1012 H   0  0  0  0  0  0  0  0  0  0  0  0
  1  2  1  0
  2  3  2  0
  3  4  1  0
  3  5  1  0
  5  6  1  0
  6  7  1  0
  6  8  1  0
  8  9  1  0
  9 10  2  0
 10 11  1  0
 11 12  1  0
 11 13  2  0
 13 14  1  0
 13 15  1  0
 15 16  1  0
 15 17  1  0
 17 18  1  0
 18 19  2  0
 19 20  1  0
 20 21  1  0
 20 22  1  0
 20 23  1  0
 23 24  1  0
 23 25  1  0
 23 26  1  0
 18 27  1  0
 27 28  1  0
  5 29  2  0
 29 30  1  0
 29 31  1  0
 31 32  1  0
 32 33  1  0
 32 34  1  0
 32 35  1  0
 31 36  2  0
 36 37  1  0
 36  2  1  0
 27  8  2  0
 17 10  1  0
M  END
>  <UniqueID>  (24) 
6

>  <SMILES>  (24) 
CC/N=c1/cc(Nc2cccc(C(F)(F)F)c2)nc2cc[nH]n12

>  <Energy>  (24) 
90.82043111404643

>  <Genealogy>  (24) 
CCN=c1cc(Nc2cccc(C(F)(F)F)c2)nc2cc[nH]n12 (tautomer)
CC/N=c1/cc(Nc2cccc(C(F)(F)F)c2)nc2cc[nH]n12 (cis-trans isomerization)
CC/N=c1/cc(Nc2cccc(C(F)(F)F)c2)nc2cc[nH]n12 (3D coordinates assigned)
CC/N=c1/cc(Nc2cccc(C(F)(F)F)c2)nc2cc[nH]n12 (optimized conformer: 90.82043111404643 kcal/mol)

>  <smiles>  (24) 
CCN=c1cc(Nc2cccc(C(F)(F)F)c2)[nH]c2ccnn12

>  <score_type>  (24) 
oracle

>  <origin>  (24) 
autodockgpu

>  <m_score__min__energy>  (24) 
-6.21

>  <m_primary>  (24) 
energy

>  <meeko>  (24) 
{"free_energy": -6.03, "intermolecular_energy": -7.52, "internal_energy": -0.58, "cluster_size": 18, "cluster_id": 1, "rank_in_cluster": 17}

>  <energy>  (24) 
-6.2

>  <cluster_rmsd>  (24) 
0.05

>  <rmsd>  (24) 
271.9

>  <cluster>  (24) 
1

$$$$
RBQYZXQNNWWOGL-RGEXLXHINA-N
     RDKit          3D

 37 39  0  0  0  0  0  0  0  0999 V2000
  138.9660   67.5782  225.6588 H   0  0  0  0  0  0  0  0  0  0  0  0
  139.2970   68.6110  225.4750 C   0  0  0  0  0  0  0  0  0  0  0  0
  139.1780   69.1630  224.1980 C   0  0  0  0  0  0  0  0  0  0  0  0
  138.7578   68.5609  223.3789 H   0  0  0  0  0  0  0  0  0  0  0  0
  139.5910   70.4800  223.9540 C   0  0  0  0  0  0  0  0  0  0  0  0
  139.4950   71.0140  222.6220 N   0  0  0  0  0  0  0  0  0  0  0  0
  138.9030   70.5010  221.9300 H   0  0  0  0  0  0  0  0  0  0  0  0
  140.1700   72.1970  222.1680 C   0  0  0  0  0  0  0  0  0  0  0  0
  139.5730   73.4070  222.3510 N   0  0  0  0  0  0  0  0  0  0  0  0
  140.2110   74.5310  221.9520 C   0  0  0  0  0  0  0  0  0  0  0  0
  139.7480   75.8220  222.0600 C   0  0  0  0  0  0  0  0  0  0  0  0
  138.7917   76.1719  222.4759 H   0  0  0  0  0  0  0  0  0  0  0  0
  140.7760   76.5740  221.5190 C   0  0  0  0  0  0  0  0  0  0  0  0
  140.7773   77.6701  221.4264 H   0  0  0  0  0  0  0  0  0  0  0  0
  141.7770   75.7600  221.1220 N   0  0  0  0  0  0  0  0  0  0  0  0
  142.6490   76.1080  220.6850 H   0  0  0  0  0  0  0  0  0  0  0  0
  141.4310   74.5040  221.3840 N   0  0  0  0  0  0  0  0  0  0  0  0
  142.1010   73.3170  221.1890 C   0  0  0  0  0  0  0  0  0  0  0  0
  143.2910   73.1940  220.6580 N   0  0  0  0  0  0  0  0  0  0  0  0
  144.3860   74.1380  220.4650 C   0  0  0  0  0  0  0  0  0  0  0  0
  144.1883   75.0443  221.0562 H   0  0  0  0  0  0  0  0  0  0  0  0
  144.4530   74.3836  219.3949 H   0  0  0  0  0  0  0  0  0  0  0  0
  145.7160   73.5310  220.9100 C   0  0  0  0  0  0  0  0  0  0  0  0
  145.7604   73.5107  222.0089 H   0  0  0  0  0  0  0  0  0  0  0  0
  145.7996   72.5056  220.5207 H   0  0  0  0  0  0  0  0  0  0  0  0
  146.5454   74.1397  220.5207 H   0  0  0  0  0  0  0  0  0  0  0  0
  141.4600   72.1360  221.6010 C   0  0  0  0  0  0  0  0  0  0  0  0
  141.9637   71.1655  221.4814 H   0  0  0  0  0  0  0  0  0  0  0  0
  140.1560   71.2290  225.0020 C   0  0  0  0  0  0  0  0  0  0  0  0
  140.5265   72.2460  224.8061 H   0  0  0  0  0  0  0  0  0  0  0  0
  140.2520   70.6910  226.2970 C   0  0  0  0  0  0  0  0  0  0  0  0
  140.8920   71.4870  227.4070 C   0  0  0  0  0  0  0  0  0  0  0  0
  141.8640   72.3140  226.8720 F   0  0  0  0  0  0  0  0  0  0  0  0
  141.4770   70.6480  228.3400 F   0  0  0  0  0  0  0  0  0  0  0  0
  139.9470   72.2640  228.0560 F   0  0  0  0  0  0  0  0  0  0  0  0
  139.8350   69.3660  226.5200 C   0  0  0  0  0  0  0  0  0  0  0  0
  139.9331   68.9225  227.5218 H   0  0  0  0  0  0  0  0  0  0  0  0
  1  2  1  0
  2  3  2  0
  3  4  1  0
  3  5  1  0
  5  6  1  0
  6  7  1  0
  6  8  1  0
  8  9  1  0
  9 10  2  0
 10 11  1  0
 11 12  1  0
 11 13  2  0
 13 14  1  0
 13 15  1  0
 15 16  1  0
 15 17  1  0
 17 18  1  0
 18 19  2  0
 19 20  1  0
 20 21  1  0
 20 22  1  0
 20 23  1  0
 23 24  1  0
 23 25  1  0
 23 26  1  0
 18 27  1  0
 27 28  1  0
  5 29  2  0
 29 30  1  0
 29 31  1  0
 31 32  1  0
 32 33  1  0
 32 34  1  0
 32 35  1  0
 31 36  2  0
 36 37  1  0
 36  2  1  0
 27  8  2  0
 17 10  1  0
M  END
>  <UniqueID>  (25) 
6

>  <SMILES>  (25) 
CC/N=c1/cc(Nc2cccc(C(F)(F)F)c2)nc2cc[nH]n12

>  <Energy>  (25) 
90.82043111404643

>  <Genealogy>  (25) 
CCN=c1cc(Nc2cccc(C(F)(F)F)c2)nc2cc[nH]n12 (tautomer)
CC/N=c1/cc(Nc2cccc(C(F)(F)F)c2)nc2cc[nH]n12 (cis-trans isomerization)
CC/N=c1/cc(Nc2cccc(C(F)(F)F)c2)nc2cc[nH]n12 (3D coordinates assigned)
CC/N=c1/cc(Nc2cccc(C(F)(F)F)c2)nc2cc[nH]n12 (optimized conformer: 90.82043111404643 kcal/mol)

>  <smiles>  (25) 
CCN=c1cc(Nc2cccc(C(F)(F)F)c2)[nH]c2ccnn12

>  <score_type>  (25) 
oracle

>  <origin>  (25) 
autodockgpu

>  <m_score__min__energy>  (25) 
-6.21

>  <m_primary>  (25) 
energy

>  <meeko>  (25) 
{"free_energy": -6.21, "intermolecular_energy": -7.71, "internal_energy": -0.52, "cluster_size": 18, "cluster_id": 1, "rank_in_cluster": 1}

>  <energy>  (25) 
-6.19

>  <cluster_rmsd>  (25) 
1.75

>  <rmsd>  (25) 
271.77

>  <cluster>  (25) 
1

$$$$
RBQYZXQNNWWOGL-RGEXLXHINA-N
     RDKit          3D

 37 39  0  0  0  0  0  0  0  0999 V2000
  141.3692   72.4432  227.1936 H   0  0  0  0  0  0  0  0  0  0  0  0
  140.9910   71.6450  226.5380 C   0  0  0  0  0  0  0  0  0  0  0  0
  140.7720   71.9020  225.1830 C   0  0  0  0  0  0  0  0  0  0  0  0
  140.9761   72.9035  224.7763 H   0  0  0  0  0  0  0  0  0  0  0  0
  140.2940   70.8920  224.3390 C   0  0  0  0  0  0  0  0  0  0  0  0
  140.0380   71.1910  222.9550 N   0  0  0  0  0  0  0  0  0  0  0  0
  139.4300   70.5340  222.4160 H   0  0  0  0  0  0  0  0  0  0  0  0
  140.5720   72.3250  222.2540 C   0  0  0  0  0  0  0  0  0  0  0  0
  139.9360   73.5240  222.3580 N   0  0  0  0  0  0  0  0  0  0  0  0
  140.4450   74.6050  221.7240 C   0  0  0  0  0  0  0  0  0  0  0  0
  139.9260   75.8780  221.7250 C   0  0  0  0  0  0  0  0  0  0  0  0
  139.0172   76.2442  222.2249 H   0  0  0  0  0  0  0  0  0  0  0  0
  140.8230   76.5880  220.9450 C   0  0  0  0  0  0  0  0  0  0  0  0
  140.7468   77.6595  220.7082 H   0  0  0  0  0  0  0  0  0  0  0  0
  141.8060   75.7650  220.5190 N   0  0  0  0  0  0  0  0  0  0  0  0
  142.5870   76.0820  219.9180 H   0  0  0  0  0  0  0  0  0  0  0  0
  141.5740   74.5460  220.9940 N   0  0  0  0  0  0  0  0  0  0  0  0
  142.2800   73.3700  220.8640 C   0  0  0  0  0  0  0  0  0  0  0  0
  143.3900   73.2210  220.1870 N   0  0  0  0  0  0  0  0  0  0  0  0
  144.6850   72.6460  220.5330 C   0  0  0  0  0  0  0  0  0  0  0  0
  145.0456   72.0387  219.6897 H   0  0  0  0  0  0  0  0  0  0  0  0
  144.5629   72.0240  221.4320 H   0  0  0  0  0  0  0  0  0  0  0  0
  145.7080   73.7400  220.8340 C   0  0  0  0  0  0  0  0  0  0  0  0
  145.8140   73.8533  221.9230 H   0  0  0  0  0  0  0  0  0  0  0  0
  146.6793   73.4637  220.3979 H   0  0  0  0  0  0  0  0  0  0  0  0
  145.3673   74.6906  220.3979 H   0  0  0  0  0  0  0  0  0  0  0  0
  141.7730   72.2350  221.5190 C   0  0  0  0  0  0  0  0  0  0  0  0
  142.3116   71.2778  221.4588 H   0  0  0  0  0  0  0  0  0  0  0  0
  140.0080   69.6240  224.8760 C   0  0  0  0  0  0  0  0  0  0  0  0
  139.5878   68.8404  224.2284 H   0  0  0  0  0  0  0  0  0  0  0  0
  140.2540   69.3480  226.2330 C   0  0  0  0  0  0  0  0  0  0  0  0
  139.9110   67.9970  226.8090 C   0  0  0  0  0  0  0  0  0  0  0  0
  138.8060   67.4890  226.1510 F   0  0  0  0  0  0  0  0  0  0  0  0
  139.6250   68.0980  228.1600 F   0  0  0  0  0  0  0  0  0  0  0  0
  140.9710   67.1200  226.6560 F   0  0  0  0  0  0  0  0  0  0  0  0
  140.7310   70.3770  227.0630 C   0  0  0  0  0  0  0  0  0  0  0  0
  140.9006   70.1827  228.1323 H   0  0  0  0  0  0  0  0  0  0  0  0
  1  2  1  0
  2  3  2  0
  3  4  1  0
  3  5  1  0
  5  6  1  0
  6  7  1  0
  6  8  1  0
  8  9  1  0
  9 10  2  0
 10 11  1  0
 11 12  1  0
 11 13  2  0
 13 14  1  0
 13 15  1  0
 15 16  1  0
 15 17  1  0
 17 18  1  0
 18 19  2  0
 19 20  1  0
 20 21  1  0
 20 22  1  0
 20 23  1  0
 23 24  1  0
 23 25  1  0
 23 26  1  0
 18 27  1  0
 27 28  1  0
  5 29  2  0
 29 30  1  0
 29 31  1  0
 31 32  1  0
 32 33  1  0
 32 34  1  0
 32 35  1  0
 31 36  2  0
 36 37  1  0
 36  2  1  0
 27  8  2  0
 17 10  1  0
M  END
>  <UniqueID>  (26) 
6

>  <SMILES>  (26) 
CC/N=c1/cc(Nc2cccc(C(F)(F)F)c2)nc2cc[nH]n12

>  <Energy>  (26) 
90.82043111404643

>  <Genealogy>  (26) 
CCN=c1cc(Nc2cccc(C(F)(F)F)c2)nc2cc[nH]n12 (tautomer)
CC/N=c1/cc(Nc2cccc(C(F)(F)F)c2)nc2cc[nH]n12 (cis-trans isomerization)
CC/N=c1/cc(Nc2cccc(C(F)(F)F)c2)nc2cc[nH]n12 (3D coordinates assigned)
CC/N=c1/cc(Nc2cccc(C(F)(F)F)c2)nc2cc[nH]n12 (optimized conformer: 90.82043111404643 kcal/mol)

>  <smiles>  (26) 
CCN=c1cc(Nc2cccc(C(F)(F)F)c2)[nH]c2ccnn12

>  <score_type>  (26) 
oracle

>  <origin>  (26) 
autodockgpu

>  <m_score__min__energy>  (26) 
-6.21

>  <m_primary>  (26) 
energy

>  <meeko>  (26) 
{"free_energy": -6.05, "intermolecular_energy": -7.54, "internal_energy": -0.54, "cluster_size": 18, "cluster_id": 1, "rank_in_cluster": 15}

>  <energy>  (26) 
-6.17

>  <cluster_rmsd>  (26) 
0.1

>  <rmsd>  (26) 
271.89

>  <cluster>  (26) 
1

$$$$
RBQYZXQNNWWOGL-RGEXLXHINA-N
     RDKit          3D

 37 39  0  0  0  0  0  0  0  0999 V2000
  138.6645   67.9423  225.8653 H   0  0  0  0  0  0  0  0  0  0  0  0
  139.1320   68.9060  225.6150 C   0  0  0  0  0  0  0  0  0  0  0  0
  139.0900   69.3800  224.3030 C   0  0  0  0  0  0  0  0  0  0  0  0
  138.5916   68.7861  223.5227 H   0  0  0  0  0  0  0  0  0  0  0  0
  139.6790   70.6080  223.9740 C   0  0  0  0  0  0  0  0  0  0  0  0
  139.6580   71.0570  222.6070 N   0  0  0  0  0  0  0  0  0  0  0  0
  139.1510   70.4710  221.9060 H   0  0  0  0  0  0  0  0  0  0  0  0
  140.2980   72.2520  222.1320 C   0  0  0  0  0  0  0  0  0  0  0  0
  139.6930   73.4530  222.3440 N   0  0  0  0  0  0  0  0  0  0  0  0
  140.3000   74.5870  221.9240 C   0  0  0  0  0  0  0  0  0  0  0  0
  139.8250   75.8700  222.0560 C   0  0  0  0  0  0  0  0  0  0  0  0
  138.8813   76.2049  222.5113 H   0  0  0  0  0  0  0  0  0  0  0  0
  140.8200   76.6390  221.4780 C   0  0  0  0  0  0  0  0  0  0  0  0
  140.8026   77.7353  221.3901 H   0  0  0  0  0  0  0  0  0  0  0  0
  141.8160   75.8390  221.0380 N   0  0  0  0  0  0  0  0  0  0  0  0
  142.6650   76.2000  220.5690 H   0  0  0  0  0  0  0  0  0  0  0  0
  141.4970   74.5780  221.3090 N   0  0  0  0  0  0  0  0  0  0  0  0
  142.1750   73.4000  221.0820 C   0  0  0  0  0  0  0  0  0  0  0  0
  143.3440   73.2960  220.5050 N   0  0  0  0  0  0  0  0  0  0  0  0
  144.5340   74.1400  220.5260 C   0  0  0  0  0  0  0  0  0  0  0  0
  144.3144   75.0574  221.0918 H   0  0  0  0  0  0  0  0  0  0  0  0
  144.8094   74.3833  219.4892 H   0  0  0  0  0  0  0  0  0  0  0  0
  145.7070   73.4160  221.1840 C   0  0  0  0  0  0  0  0  0  0  0  0
  145.6084   73.4769  222.2779 H   0  0  0  0  0  0  0  0  0  0  0  0
  145.7069   72.3606  220.8740 H   0  0  0  0  0  0  0  0  0  0  0  0
  146.6504   73.8892  220.8740 H   0  0  0  0  0  0  0  0  0  0  0  0
  141.5660   72.2090  221.5140 C   0  0  0  0  0  0  0  0  0  0  0  0
  142.0768   71.2454  221.3706 H   0  0  0  0  0  0  0  0  0  0  0  0
  140.3410   71.3440  224.9740 C   0  0  0  0  0  0  0  0  0  0  0  0
  140.8476   72.2848  224.7129 H   0  0  0  0  0  0  0  0  0  0  0  0
  140.3610   70.8880  226.3040 C   0  0  0  0  0  0  0  0  0  0  0  0
  141.1030   71.6640  227.3620 C   0  0  0  0  0  0  0  0  0  0  0  0
  141.5510   70.7910  228.3380 F   0  0  0  0  0  0  0  0  0  0  0  0
  140.2780   72.6090  227.9480 F   0  0  0  0  0  0  0  0  0  0  0  0
  142.1900   72.3210  226.8120 F   0  0  0  0  0  0  0  0  0  0  0  0
  139.7660   69.6520  226.6110 C   0  0  0  0  0  0  0  0  0  0  0  0
  139.8000   69.2700  227.6420 H   0  0  0  0  0  0  0  0  0  0  0  0
  1  2  1  0
  2  3  2  0
  3  4  1  0
  3  5  1  0
  5  6  1  0
  6  7  1  0
  6  8  1  0
  8  9  1  0
  9 10  2  0
 10 11  1  0
 11 12  1  0
 11 13  2  0
 13 14  1  0
 13 15  1  0
 15 16  1  0
 15 17  1  0
 17 18  1  0
 18 19  2  0
 19 20  1  0
 20 21  1  0
 20 22  1  0
 20 23  1  0
 23 24  1  0
 23 25  1  0
 23 26  1  0
 18 27  1  0
 27 28  1  0
  5 29  2  0
 29 30  1  0
 29 31  1  0
 31 32  1  0
 32 33  1  0
 32 34  1  0
 32 35  1  0
 31 36  2  0
 36 37  1  0
 36  2  1  0
 27  8  2  0
 17 10  1  0
M  END
>  <UniqueID>  (27) 
6

>  <SMILES>  (27) 
CC/N=c1/cc(Nc2cccc(C(F)(F)F)c2)nc2cc[nH]n12

>  <Energy>  (27) 
90.82043111404643

>  <Genealogy>  (27) 
CCN=c1cc(Nc2cccc(C(F)(F)F)c2)nc2cc[nH]n12 (tautomer)
CC/N=c1/cc(Nc2cccc(C(F)(F)F)c2)nc2cc[nH]n12 (cis-trans isomerization)
CC/N=c1/cc(Nc2cccc(C(F)(F)F)c2)nc2cc[nH]n12 (3D coordinates assigned)
CC/N=c1/cc(Nc2cccc(C(F)(F)F)c2)nc2cc[nH]n12 (optimized conformer: 90.82043111404643 kcal/mol)

>  <smiles>  (27) 
CCN=c1cc(Nc2cccc(C(F)(F)F)c2)[nH]c2ccnn12

>  <score_type>  (27) 
oracle

>  <origin>  (27) 
autodockgpu

>  <m_score__min__energy>  (27) 
-6.21

>  <m_primary>  (27) 
energy

>  <meeko>  (27) 
{"free_energy": -6.12, "intermolecular_energy": -7.62, "internal_energy": -0.55, "cluster_size": 18, "cluster_id": 1, "rank_in_cluster": 10}

>  <energy>  (27) 
-6.17

>  <cluster_rmsd>  (27) 
0.06

>  <rmsd>  (27) 
271.9

>  <cluster>  (27) 
1

$$$$
RBQYZXQNNWWOGL-RGEXLXHINA-N
     RDKit          3D

 37 39  0  0  0  0  0  0  0  0999 V2000
  139.2504   67.4955  226.4170 H   0  0  0  0  0  0  0  0  0  0  0  0
  139.5750   68.5040  226.1210 C   0  0  0  0  0  0  0  0  0  0  0  0
  139.5300   68.8840  224.7780 C   0  0  0  0  0  0  0  0  0  0  0  0
  139.1736   68.1711  224.0199 H   0  0  0  0  0  0  0  0  0  0  0  0
  139.9360   70.1680  224.3900 C   0  0  0  0  0  0  0  0  0  0  0  0
  139.9180   70.5230  222.9960 N   0  0  0  0  0  0  0  0  0  0  0  0
  139.4280   69.8800  222.3340 H   0  0  0  0  0  0  0  0  0  0  0  0
  140.5400   71.6940  222.4460 C   0  0  0  0  0  0  0  0  0  0  0  0
  141.7120   71.5600  221.7660 N   0  0  0  0  0  0  0  0  0  0  0  0
  142.2930   72.6530  221.2200 C   0  0  0  0  0  0  0  0  0  0  0  0
  143.4700   72.6890  220.5100 C   0  0  0  0  0  0  0  0  0  0  0  0
  144.1451   71.8560  220.2644 H   0  0  0  0  0  0  0  0  0  0  0  0
  143.6000   74.0270  220.1790 C   0  0  0  0  0  0  0  0  0  0  0  0
  144.4309   74.4585  219.6016 H   0  0  0  0  0  0  0  0  0  0  0  0
  142.5530   74.7220  220.6720 N   0  0  0  0  0  0  0  0  0  0  0  0
  142.4430   75.7440  220.5450 H   0  0  0  0  0  0  0  0  0  0  0  0
  141.7500   73.8810  221.3140 N   0  0  0  0  0  0  0  0  0  0  0  0
  140.5560   74.0850  221.9700 C   0  0  0  0  0  0  0  0  0  0  0  0
  139.9480   75.2360  222.1010 N   0  0  0  0  0  0  0  0  0  0  0  0
  140.1850   76.5490  221.5110 C   0  0  0  0  0  0  0  0  0  0  0  0
  139.2242   76.9782  221.1906 H   0  0  0  0  0  0  0  0  0  0  0  0
  140.8598   76.4302  220.6504 H   0  0  0  0  0  0  0  0  0  0  0  0
  140.8420   77.4910  222.5190 C   0  0  0  0  0  0  0  0  0  0  0  0
  140.6083   77.1559  223.5403 H   0  0  0  0  0  0  0  0  0  0  0  0
  141.9320   77.4838  222.3711 H   0  0  0  0  0  0  0  0  0  0  0  0
  140.4587   78.5114  222.3711 H   0  0  0  0  0  0  0  0  0  0  0  0
  139.9300   72.9630  222.5400 C   0  0  0  0  0  0  0  0  0  0  0  0
  138.9662   73.0739  223.0585 H   0  0  0  0  0  0  0  0  0  0  0  0
  140.4200   71.0600  225.3650 C   0  0  0  0  0  0  0  0  0  0  0  0
  140.7863   72.0519  225.0617 H   0  0  0  0  0  0  0  0  0  0  0  0
  140.4400   70.6960  226.7230 C   0  0  0  0  0  0  0  0  0  0  0  0
  140.9930   71.6440  227.7560 C   0  0  0  0  0  0  0  0  0  0  0  0
  139.9450   72.2670  228.4100 F   0  0  0  0  0  0  0  0  0  0  0  0
  141.7900   72.6080  227.1620 F   0  0  0  0  0  0  0  0  0  0  0  0
  141.7610   70.9610  228.6830 F   0  0  0  0  0  0  0  0  0  0  0  0
  140.0310   69.4010  227.0890 C   0  0  0  0  0  0  0  0  0  0  0  0
  140.0706   69.0930  228.1443 H   0  0  0  0  0  0  0  0  0  0  0  0
  1  2  1  0
  2  3  2  0
  3  4  1  0
  3  5  1  0
  5  6  1  0
  6  7  1  0
  6  8  1  0
  8  9  1  0
  9 10  2  0
 10 11  1  0
 11 12  1  0
 11 13  2  0
 13 14  1  0
 13 15  1  0
 15 16  1  0
 15 17  1  0
 17 18  1  0
 18 19  2  0
 19 20  1  0
 20 21  1  0
 20 22  1  0
 20 23  1  0
 23 24  1  0
 23 25  1  0
 23 26  1  0
 18 27  1  0
 27 28  1  0
  5 29  2  0
 29 30  1  0
 29 31  1  0
 31 32  1  0
 32 33  1  0
 32 34  1  0
 32 35  1  0
 31 36  2  0
 36 37  1  0
 36  2  1  0
 27  8  2  0
 17 10  1  0
M  END
>  <UniqueID>  (28) 
6

>  <SMILES>  (28) 
CC/N=c1/cc(Nc2cccc(C(F)(F)F)c2)nc2cc[nH]n12

>  <Energy>  (28) 
90.82043111404643

>  <Genealogy>  (28) 
CCN=c1cc(Nc2cccc(C(F)(F)F)c2)nc2cc[nH]n12 (tautomer)
CC/N=c1/cc(Nc2cccc(C(F)(F)F)c2)nc2cc[nH]n12 (cis-trans isomerization)
CC/N=c1/cc(Nc2cccc(C(F)(F)F)c2)nc2cc[nH]n12 (3D coordinates assigned)
CC/N=c1/cc(Nc2cccc(C(F)(F)F)c2)nc2cc[nH]n12 (optimized conformer: 90.82043111404643 kcal/mol)

>  <smiles>  (28) 
CCN=c1cc(Nc2cccc(C(F)(F)F)c2)[nH]c2ccnn12

>  <score_type>  (28) 
oracle

>  <origin>  (28) 
autodockgpu

>  <m_score__min__energy>  (28) 
-6.21

>  <m_primary>  (28) 
energy

>  <meeko>  (28) 
{"free_energy": -5.66, "intermolecular_energy": -7.15, "internal_energy": -0.52, "cluster_size": 18, "cluster_id": 1, "rank_in_cluster": 18}

>  <energy>  (28) 
-6.14

>  <cluster_rmsd>  (28) 
1.76

>  <rmsd>  (28) 
271.77

>  <cluster>  (28) 
1

$$$$
RBQYZXQNNWWOGL-RGEXLXHINA-N
     RDKit          3D

 37 39  0  0  0  0  0  0  0  0999 V2000
  138.5789   67.7348  225.7055 H   0  0  0  0  0  0  0  0  0  0  0  0
  139.0220   68.7200  225.4980 C   0  0  0  0  0  0  0  0  0  0  0  0
  138.9830   69.2420  224.2040 C   0  0  0  0  0  0  0  0  0  0  0  0
  138.5127   68.6635  223.3952 H   0  0  0  0  0  0  0  0  0  0  0  0
  139.5390   70.4980  223.9290 C   0  0  0  0  0  0  0  0  0  0  0  0
  139.5210   70.9980  222.5800 N   0  0  0  0  0  0  0  0  0  0  0  0
  138.9910   70.4540  221.8630 H   0  0  0  0  0  0  0  0  0  0  0  0
  140.1960   72.1880  222.1440 C   0  0  0  0  0  0  0  0  0  0  0  0
  139.5990   73.3950  222.3460 N   0  0  0  0  0  0  0  0  0  0  0  0
  140.2370   74.5250  221.9630 C   0  0  0  0  0  0  0  0  0  0  0  0
  139.7750   75.8140  222.0930 C   0  0  0  0  0  0  0  0  0  0  0  0
  138.8197   76.1573  222.5168 H   0  0  0  0  0  0  0  0  0  0  0  0
  140.8020   76.5750  221.5620 C   0  0  0  0  0  0  0  0  0  0  0  0
  140.8035   77.6724  221.4869 H   0  0  0  0  0  0  0  0  0  0  0  0
  141.8020   75.7660  221.1500 N   0  0  0  0  0  0  0  0  0  0  0  0
  142.6730   76.1200  220.7170 H   0  0  0  0  0  0  0  0  0  0  0  0
  141.4560   74.5060  221.3930 N   0  0  0  0  0  0  0  0  0  0  0  0
  142.1260   73.3220  221.1780 C   0  0  0  0  0  0  0  0  0  0  0  0
  143.3140   73.2070  220.6430 N   0  0  0  0  0  0  0  0  0  0  0  0
  144.4070   74.1550  220.4560 C   0  0  0  0  0  0  0  0  0  0  0  0
  144.1794   75.0796  221.0068 H   0  0  0  0  0  0  0  0  0  0  0  0
  144.5107   74.3624  219.3807 H   0  0  0  0  0  0  0  0  0  0  0  0
  145.7260   73.5790  220.9700 C   0  0  0  0  0  0  0  0  0  0  0  0
  145.7228   73.5804  222.0700 H   0  0  0  0  0  0  0  0  0  0  0  0
  145.8428   72.5479  220.6050 H   0  0  0  0  0  0  0  0  0  0  0  0
  146.5617   74.1941  220.6050 H   0  0  0  0  0  0  0  0  0  0  0  0
  141.4850   72.1350  221.5730 C   0  0  0  0  0  0  0  0  0  0  0  0
  141.9877   71.1661  221.4371 H   0  0  0  0  0  0  0  0  0  0  0  0
  140.1660   71.2140  224.9650 C   0  0  0  0  0  0  0  0  0  0  0  0
  140.6471   72.1788  224.7463 H   0  0  0  0  0  0  0  0  0  0  0  0
  140.1840   70.7090  226.2770 C   0  0  0  0  0  0  0  0  0  0  0  0
  140.8890   71.4660  227.3740 C   0  0  0  0  0  0  0  0  0  0  0  0
  141.4740   70.5660  228.2450 F   0  0  0  0  0  0  0  0  0  0  0  0
  139.9960   72.2580  228.0760 F   0  0  0  0  0  0  0  0  0  0  0  0
  141.8710   72.2860  226.8460 F   0  0  0  0  0  0  0  0  0  0  0  0
  139.6220   69.4450  226.5300 C   0  0  0  0  0  0  0  0  0  0  0  0
  139.6551   69.0250  227.5461 H   0  0  0  0  0  0  0  0  0  0  0  0
  1  2  1  0
  2  3  2  0
  3  4  1  0
  3  5  1  0
  5  6  1  0
  6  7  1  0
  6  8  1  0
  8  9  1  0
  9 10  2  0
 10 11  1  0
 11 12  1  0
 11 13  2  0
 13 14  1  0
 13 15  1  0
 15 16  1  0
 15 17  1  0
 17 18  1  0
 18 19  2  0
 19 20  1  0
 20 21  1  0
 20 22  1  0
 20 23  1  0
 23 24  1  0
 23 25  1  0
 23 26  1  0
 18 27  1  0
 27 28  1  0
  5 29  2  0
 29 30  1  0
 29 31  1  0
 31 32  1  0
 32 33  1  0
 32 34  1  0
 32 35  1  0
 31 36  2  0
 36 37  1  0
 36  2  1  0
 27  8  2  0
 17 10  1  0
M  END
>  <UniqueID>  (29) 
6

>  <SMILES>  (29) 
CC/N=c1/cc(Nc2cccc(C(F)(F)F)c2)nc2cc[nH]n12

>  <Energy>  (29) 
90.82043111404643

>  <Genealogy>  (29) 
CCN=c1cc(Nc2cccc(C(F)(F)F)c2)nc2cc[nH]n12 (tautomer)
CC/N=c1/cc(Nc2cccc(C(F)(F)F)c2)nc2cc[nH]n12 (cis-trans isomerization)
CC/N=c1/cc(Nc2cccc(C(F)(F)F)c2)nc2cc[nH]n12 (3D coordinates assigned)
CC/N=c1/cc(Nc2cccc(C(F)(F)F)c2)nc2cc[nH]n12 (optimized conformer: 90.82043111404643 kcal/mol)

>  <smiles>  (29) 
CCN=c1cc(Nc2cccc(C(F)(F)F)c2)[nH]c2ccnn12

>  <score_type>  (29) 
oracle

>  <origin>  (29) 
autodockgpu

>  <m_score__min__energy>  (29) 
-6.21

>  <m_primary>  (29) 
energy

>  <meeko>  (29) 
{"free_energy": -6.17, "intermolecular_energy": -7.67, "internal_energy": -0.52, "cluster_size": 18, "cluster_id": 1, "rank_in_cluster": 6}

>  <energy>  (29) 
-6.13

>  <cluster_rmsd>  (29) 
0.41

>  <rmsd>  (29) 
272.02

>  <cluster>  (29) 
1

$$$$
RBQYZXQNNWWOGL-RGEXLXHINA-N
     RDKit          3D

 37 39  0  0  0  0  0  0  0  0999 V2000
  141.3003   72.4632  227.3141 H   0  0  0  0  0  0  0  0  0  0  0  0
  141.0040   71.6370  226.6510 C   0  0  0  0  0  0  0  0  0  0  0  0
  140.7220   71.8900  225.3070 C   0  0  0  0  0  0  0  0  0  0  0  0
  140.7930   72.9161  224.9171 H   0  0  0  0  0  0  0  0  0  0  0  0
  140.3490   70.8440  224.4520 C   0  0  0  0  0  0  0  0  0  0  0  0
  140.0260   71.1340  223.0810 N   0  0  0  0  0  0  0  0  0  0  0  0
  139.2960   70.5490  222.6160 H   0  0  0  0  0  0  0  0  0  0  0  0
  140.6480   72.1640  222.2980 C   0  0  0  0  0  0  0  0  0  0  0  0
  140.1330   73.4240  222.3370 N   0  0  0  0  0  0  0  0  0  0  0  0
  140.7270   74.4080  221.6240 C   0  0  0  0  0  0  0  0  0  0  0  0
  140.3330   75.7240  221.5530 C   0  0  0  0  0  0  0  0  0  0  0  0
  139.4773   76.2081  222.0464 H   0  0  0  0  0  0  0  0  0  0  0  0
  141.2730   76.2920  220.7110 C   0  0  0  0  0  0  0  0  0  0  0  0
  141.2941   77.3489  220.4068 H   0  0  0  0  0  0  0  0  0  0  0  0
  142.1610   75.3520  220.3190 N   0  0  0  0  0  0  0  0  0  0  0  0
  142.9520   75.5530  219.6830 H   0  0  0  0  0  0  0  0  0  0  0  0
  141.8250   74.1940  220.8760 N   0  0  0  0  0  0  0  0  0  0  0  0
  142.4110   72.9490  220.8080 C   0  0  0  0  0  0  0  0  0  0  0  0
  143.4830   72.6500  220.1200 N   0  0  0  0  0  0  0  0  0  0  0  0
  144.7390   73.3580  219.8940 C   0  0  0  0  0  0  0  0  0  0  0  0
  144.5203   74.4027  219.6279 H   0  0  0  0  0  0  0  0  0  0  0  0
  145.2814   72.8581  219.0780 H   0  0  0  0  0  0  0  0  0  0  0  0
  145.6140   73.3340  221.1470 C   0  0  0  0  0  0  0  0  0  0  0  0
  144.9740   73.3516  222.0415 H   0  0  0  0  0  0  0  0  0  0  0  0
  146.2242   72.4188  221.1506 H   0  0  0  0  0  0  0  0  0  0  0  0
  146.2735   74.2144  221.1506 H   0  0  0  0  0  0  0  0  0  0  0  0
  141.8150   71.9110  221.5450 C   0  0  0  0  0  0  0  0  0  0  0  0
  142.2570   70.9037  221.5350 H   0  0  0  0  0  0  0  0  0  0  0  0
  140.2310   69.5410  224.9700 C   0  0  0  0  0  0  0  0  0  0  0  0
  139.8930   68.7235  224.3163 H   0  0  0  0  0  0  0  0  0  0  0  0
  140.5410   69.2740  226.3150 C   0  0  0  0  0  0  0  0  0  0  0  0
  140.3780   67.8820  226.8720 C   0  0  0  0  0  0  0  0  0  0  0  0
  141.1440   67.0010  226.1290 F   0  0  0  0  0  0  0  0  0  0  0  0
  139.0530   67.4830  226.8170 F   0  0  0  0  0  0  0  0  0  0  0  0
  140.7890   67.8340  228.1920 F   0  0  0  0  0  0  0  0  0  0  0  0
  140.9110   70.3380  227.1560 C   0  0  0  0  0  0  0  0  0  0  0  0
  141.1284   70.1466  228.2172 H   0  0  0  0  0  0  0  0  0  0  0  0
  1  2  1  0
  2  3  2  0
  3  4  1  0
  3  5  1  0
  5  6  1  0
  6  7  1  0
  6  8  1  0
  8  9  1  0
  9 10  2  0
 10 11  1  0
 11 12  1  0
 11 13  2  0
 13 14  1  0
 13 15  1  0
 15 16  1  0
 15 17  1  0
 17 18  1  0
 18 19  2  0
 19 20  1  0
 20 21  1  0
 20 22  1  0
 20 23  1  0
 23 24  1  0
 23 25  1  0
 23 26  1  0
 18 27  1  0
 27 28  1  0
  5 29  2  0
 29 30  1  0
 29 31  1  0
 31 32  1  0
 32 33  1  0
 32 34  1  0
 32 35  1  0
 31 36  2  0
 36 37  1  0
 36  2  1  0
 27  8  2  0
 17 10  1  0
M  END
>  <UniqueID>  (30) 
6

>  <SMILES>  (30) 
CC/N=c1/cc(Nc2cccc(C(F)(F)F)c2)nc2cc[nH]n12

>  <Energy>  (30) 
90.82043111404643

>  <Genealogy>  (30) 
CCN=c1cc(Nc2cccc(C(F)(F)F)c2)nc2cc[nH]n12 (tautomer)
CC/N=c1/cc(Nc2cccc(C(F)(F)F)c2)nc2cc[nH]n12 (cis-trans isomerization)
CC/N=c1/cc(Nc2cccc(C(F)(F)F)c2)nc2cc[nH]n12 (3D coordinates assigned)
CC/N=c1/cc(Nc2cccc(C(F)(F)F)c2)nc2cc[nH]n12 (optimized conformer: 90.82043111404643 kcal/mol)

>  <smiles>  (30) 
CCN=c1cc(Nc2cccc(C(F)(F)F)c2)[nH]c2ccnn12

>  <score_type>  (30) 
oracle

>  <origin>  (30) 
autodockgpu

>  <m_score__min__energy>  (30) 
-6.21

>  <m_primary>  (30) 
energy

>  <meeko>  (30) 
{"free_energy": -6.1, "intermolecular_energy": -7.59, "internal_energy": -0.56, "cluster_size": 18, "cluster_id": 1, "rank_in_cluster": 13}

>  <energy>  (30) 
-6.12

>  <cluster_rmsd>  (30) 
0.23

>  <rmsd>  (30) 
271.97

>  <cluster>  (30) 
1

$$$$
RBQYZXQNNWWOGL-RGEXLXHINA-N
     RDKit          3D

 37 39  0  0  0  0  0  0  0  0999 V2000
  140.7587   67.1390  227.6603 H   0  0  0  0  0  0  0  0  0  0  0  0
  140.6030   68.1300  227.2090 C   0  0  0  0  0  0  0  0  0  0  0  0
  140.1540   68.2320  225.8910 C   0  0  0  0  0  0  0  0  0  0  0  0
  139.9616   67.3201  225.3067 H   0  0  0  0  0  0  0  0  0  0  0  0
  139.9470   69.4900  225.3080 C   0  0  0  0  0  0  0  0  0  0  0  0
  139.5220   69.5700  223.9360 N   0  0  0  0  0  0  0  0  0  0  0  0
  139.4740   68.6840  223.3850 H   0  0  0  0  0  0  0  0  0  0  0  0
  139.1720   70.7890  223.2620 C   0  0  0  0  0  0  0  0  0  0  0  0
  137.8610   71.0370  222.9890 N   0  0  0  0  0  0  0  0  0  0  0  0
  137.5170   72.1950  222.3780 C   0  0  0  0  0  0  0  0  0  0  0  0
  136.2480   72.5940  222.0310 C   0  0  0  0  0  0  0  0  0  0  0  0
  135.2995   72.0561  222.1761 H   0  0  0  0  0  0  0  0  0  0  0  0
  136.4520   73.8360  221.4550 C   0  0  0  0  0  0  0  0  0  0  0  0
  135.6612   74.4822  221.0462 H   0  0  0  0  0  0  0  0  0  0  0  0
  137.7690   74.1340  221.4710 N   0  0  0  0  0  0  0  0  0  0  0  0
  138.1530   75.0170  221.0880 H   0  0  0  0  0  0  0  0  0  0  0  0
  138.4250   73.1260  222.0350 N   0  0  0  0  0  0  0  0  0  0  0  0
  139.7650   72.9490  222.3010 C   0  0  0  0  0  0  0  0  0  0  0  0
  140.7160   73.8020  222.0170 N   0  0  0  0  0  0  0  0  0  0  0  0
  140.7510   74.9970  221.1800 C   0  0  0  0  0  0  0  0  0  0  0  0
  140.0176   74.8889  220.3674 H   0  0  0  0  0  0  0  0  0  0  0  0
  141.7657   75.1089  220.7701 H   0  0  0  0  0  0  0  0  0  0  0  0
  140.4140   76.2450  221.9950 C   0  0  0  0  0  0  0  0  0  0  0  0
  140.4773   76.0105  223.0678 H   0  0  0  0  0  0  0  0  0  0  0  0
  141.1281   77.0456  221.7519 H   0  0  0  0  0  0  0  0  0  0  0  0
  139.3940   76.5773  221.7519 H   0  0  0  0  0  0  0  0  0  0  0  0
  140.1470   71.7570  222.9400 C   0  0  0  0  0  0  0  0  0  0  0  0
  141.2037   71.5790  223.1886 H   0  0  0  0  0  0  0  0  0  0  0  0
  140.2280   70.6480  226.0540 C   0  0  0  0  0  0  0  0  0  0  0  0
  140.1152   71.6374  225.5868 H   0  0  0  0  0  0  0  0  0  0  0  0
  140.6520   70.5540  227.3920 C   0  0  0  0  0  0  0  0  0  0  0  0
  140.9850   71.8000  228.1740 C   0  0  0  0  0  0  0  0  0  0  0  0
  141.9740   71.5090  229.0960 F   0  0  0  0  0  0  0  0  0  0  0  0
  139.8700   72.2730  228.8430 F   0  0  0  0  0  0  0  0  0  0  0  0
  141.4370   72.7990  227.3290 F   0  0  0  0  0  0  0  0  0  0  0  0
  140.8550   69.2830  227.9560 C   0  0  0  0  0  0  0  0  0  0  0  0
  141.2145   69.1956  228.9919 H   0  0  0  0  0  0  0  0  0  0  0  0
  1  2  1  0
  2  3  2  0
  3  4  1  0
  3  5  1  0
  5  6  1  0
  6  7  1  0
  6  8  1  0
  8  9  1  0
  9 10  2  0
 10 11  1  0
 11 12  1  0
 11 13  2  0
 13 14  1  0
 13 15  1  0
 15 16  1  0
 15 17  1  0
 17 18  1  0
 18 19  2  0
 19 20  1  0
 20 21  1  0
 20 22  1  0
 20 23  1  0
 23 24  1  0
 23 25  1  0
 23 26  1  0
 18 27  1  0
 27 28  1  0
  5 29  2  0
 29 30  1  0
 29 31  1  0
 31 32  1  0
 32 33  1  0
 32 34  1  0
 32 35  1  0
 31 36  2  0
 36 37  1  0
 36  2  1  0
 27  8  2  0
 17 10  1  0
M  END
>  <UniqueID>  (31) 
6

>  <SMILES>  (31) 
CC/N=c1/cc(Nc2cccc(C(F)(F)F)c2)nc2cc[nH]n12

>  <Energy>  (31) 
90.82043111404643

>  <Genealogy>  (31) 
CCN=c1cc(Nc2cccc(C(F)(F)F)c2)nc2cc[nH]n12 (tautomer)
CC/N=c1/cc(Nc2cccc(C(F)(F)F)c2)nc2cc[nH]n12 (cis-trans isomerization)
CC/N=c1/cc(Nc2cccc(C(F)(F)F)c2)nc2cc[nH]n12 (3D coordinates assigned)
CC/N=c1/cc(Nc2cccc(C(F)(F)F)c2)nc2cc[nH]n12 (optimized conformer: 90.82043111404643 kcal/mol)

>  <smiles>  (31) 
CCN=c1cc(Nc2cccc(C(F)(F)F)c2)[nH]c2ccnn12

>  <score_type>  (31) 
oracle

>  <origin>  (31) 
autodockgpu

>  <m_score__min__energy>  (31) 
-6.21

>  <m_primary>  (31) 
energy

>  <meeko>  (31) 
{"free_energy": -5.73, "intermolecular_energy": -7.23, "internal_energy": -0.54, "cluster_size": 2, "cluster_id": 2, "rank_in_cluster": 2}

>  <energy>  (31) 
-6.12

>  <cluster_rmsd>  (31) 
1.7

>  <rmsd>  (31) 
271.74

>  <cluster>  (31) 
1

$$$$
RBQYZXQNNWWOGL-RGEXLXHINA-N
     RDKit          3D

 37 39  0  0  0  0  0  0  0  0999 V2000
  138.8496   67.6330  225.6656 H   0  0  0  0  0  0  0  0  0  0  0  0
  139.2210   68.6500  225.4710 C   0  0  0  0  0  0  0  0  0  0  0  0
  139.1260   69.1920  224.1880 C   0  0  0  0  0  0  0  0  0  0  0  0
  138.6834   68.5979  223.3749 H   0  0  0  0  0  0  0  0  0  0  0  0
  139.5910   70.4880  223.9300 C   0  0  0  0  0  0  0  0  0  0  0  0
  139.5190   71.0110  222.5910 N   0  0  0  0  0  0  0  0  0  0  0  0
  138.9540   70.4820  221.8890 H   0  0  0  0  0  0  0  0  0  0  0  0
  140.1830   72.2040  222.1460 C   0  0  0  0  0  0  0  0  0  0  0  0
  139.5840   73.4080  222.3560 N   0  0  0  0  0  0  0  0  0  0  0  0
  140.2130   74.5410  221.9640 C   0  0  0  0  0  0  0  0  0  0  0  0
  139.7470   75.8280  222.0990 C   0  0  0  0  0  0  0  0  0  0  0  0
  138.7959   76.1678  222.5348 H   0  0  0  0  0  0  0  0  0  0  0  0
  140.7640   76.5920  221.5540 C   0  0  0  0  0  0  0  0  0  0  0  0
  140.7604   77.6894  221.4779 H   0  0  0  0  0  0  0  0  0  0  0  0
  141.7610   75.7870  221.1300 N   0  0  0  0  0  0  0  0  0  0  0  0
  142.6260   76.1450  220.6850 H   0  0  0  0  0  0  0  0  0  0  0  0
  141.4240   74.5270  221.3780 N   0  0  0  0  0  0  0  0  0  0  0  0
  142.0950   73.3450  221.1540 C   0  0  0  0  0  0  0  0  0  0  0  0
  143.2780   73.2350  220.6050 N   0  0  0  0  0  0  0  0  0  0  0  0
  144.4230   74.1350  220.5420 C   0  0  0  0  0  0  0  0  0  0  0  0
  144.2084   75.0326  221.1406 H   0  0  0  0  0  0  0  0  0  0  0  0
  144.5983   74.4059  219.4904 H   0  0  0  0  0  0  0  0  0  0  0  0
  145.6810   73.4600  221.0870 C   0  0  0  0  0  0  0  0  0  0  0  0
  145.6569   73.4729  222.1867 H   0  0  0  0  0  0  0  0  0  0  0  0
  145.7212   72.4192  220.7333 H   0  0  0  0  0  0  0  0  0  0  0  0
  146.5705   74.0020  220.7333 H   0  0  0  0  0  0  0  0  0  0  0  0
  141.4650   72.1550  221.5580 C   0  0  0  0  0  0  0  0  0  0  0  0
  141.9700   71.1881  221.4162 H   0  0  0  0  0  0  0  0  0  0  0  0
  140.1840   71.2260  224.9700 C   0  0  0  0  0  0  0  0  0  0  0  0
  140.5955   72.2250  224.7632 H   0  0  0  0  0  0  0  0  0  0  0  0
  140.2560   70.6990  226.2720 C   0  0  0  0  0  0  0  0  0  0  0  0
  140.9240   71.4820  227.3740 C   0  0  0  0  0  0  0  0  0  0  0  0
  139.9820   72.2710  228.0090 F   0  0  0  0  0  0  0  0  0  0  0  0
  141.9220   72.2950  226.8640 F   0  0  0  0  0  0  0  0  0  0  0  0
  141.4950   70.6280  228.3010 F   0  0  0  0  0  0  0  0  0  0  0  0
  139.7860   69.3950  226.5080 C   0  0  0  0  0  0  0  0  0  0  0  0
  139.8638   68.9594  227.5151 H   0  0  0  0  0  0  0  0  0  0  0  0
  1  2  1  0
  2  3  2  0
  3  4  1  0
  3  5  1  0
  5  6  1  0
  6  7  1  0
  6  8  1  0
  8  9  1  0
  9 10  2  0
 10 11  1  0
 11 12  1  0
 11 13  2  0
 13 14  1  0
 13 15  1  0
 15 16  1  0
 15 17  1  0
 17 18  1  0
 18 19  2  0
 19 20  1  0
 20 21  1  0
 20 22  1  0
 20 23  1  0
 23 24  1  0
 23 25  1  0
 23 26  1  0
 18 27  1  0
 27 28  1  0
  5 29  2  0
 29 30  1  0
 29 31  1  0
 31 32  1  0
 32 33  1  0
 32 34  1  0
 32 35  1  0
 31 36  2  0
 36 37  1  0
 36  2  1  0
 27  8  2  0
 17 10  1  0
M  END
>  <UniqueID>  (32) 
6

>  <SMILES>  (32) 
CC/N=c1/cc(Nc2cccc(C(F)(F)F)c2)nc2cc[nH]n12

>  <Energy>  (32) 
90.82043111404643

>  <Genealogy>  (32) 
CCN=c1cc(Nc2cccc(C(F)(F)F)c2)nc2cc[nH]n12 (tautomer)
CC/N=c1/cc(Nc2cccc(C(F)(F)F)c2)nc2cc[nH]n12 (cis-trans isomerization)
CC/N=c1/cc(Nc2cccc(C(F)(F)F)c2)nc2cc[nH]n12 (3D coordinates assigned)
CC/N=c1/cc(Nc2cccc(C(F)(F)F)c2)nc2cc[nH]n12 (optimized conformer: 90.82043111404643 kcal/mol)

>  <smiles>  (32) 
CCN=c1cc(Nc2cccc(C(F)(F)F)c2)[nH]c2ccnn12

>  <score_type>  (32) 
oracle

>  <origin>  (32) 
autodockgpu

>  <m_score__min__energy>  (32) 
-6.21

>  <m_primary>  (32) 
energy

>  <meeko>  (32) 
{"free_energy": -6.17, "intermolecular_energy": -7.66, "internal_energy": -0.53, "cluster_size": 18, "cluster_id": 1, "rank_in_cluster": 7}

>  <energy>  (32) 
-6.11

>  <cluster_rmsd>  (32) 
0.44

>  <rmsd>  (32) 
271.98

>  <cluster>  (32) 
1

$$$$
RBQYZXQNNWWOGL-RGEXLXHINA-N
     RDKit          3D

 37 39  0  0  0  0  0  0  0  0999 V2000
  139.0864   67.6064  225.6585 H   0  0  0  0  0  0  0  0  0  0  0  0
  139.3820   68.6520  225.4870 C   0  0  0  0  0  0  0  0  0  0  0  0
  139.2310   69.2190  224.2200 C   0  0  0  0  0  0  0  0  0  0  0  0
  138.8216   68.6159  223.3962 H   0  0  0  0  0  0  0  0  0  0  0  0
  139.5980   70.5520  223.9920 C   0  0  0  0  0  0  0  0  0  0  0  0
  139.4700   71.1030  222.6690 N   0  0  0  0  0  0  0  0  0  0  0  0
  138.8400   70.6140  221.9940 H   0  0  0  0  0  0  0  0  0  0  0  0
  140.1610   72.2730  222.2040 C   0  0  0  0  0  0  0  0  0  0  0  0
  139.5790   73.4920  222.3710 N   0  0  0  0  0  0  0  0  0  0  0  0
  140.2320   74.6030  221.9600 C   0  0  0  0  0  0  0  0  0  0  0  0
  139.7850   75.9000  222.0520 C   0  0  0  0  0  0  0  0  0  0  0  0
  138.8317   76.2661  222.4609 H   0  0  0  0  0  0  0  0  0  0  0  0
  140.8240   76.6340  221.5060 C   0  0  0  0  0  0  0  0  0  0  0  0
  140.8396   77.7290  221.4021 H   0  0  0  0  0  0  0  0  0  0  0  0
  141.8160   75.8020  221.1200 N   0  0  0  0  0  0  0  0  0  0  0  0
  142.6930   76.1340  220.6820 H   0  0  0  0  0  0  0  0  0  0  0  0
  141.4530   74.5540  221.3960 N   0  0  0  0  0  0  0  0  0  0  0  0
  142.1090   73.3560  221.2160 C   0  0  0  0  0  0  0  0  0  0  0  0
  143.2990   73.2120  220.6910 N   0  0  0  0  0  0  0  0  0  0  0  0
  144.4030   74.1410  220.4830 C   0  0  0  0  0  0  0  0  0  0  0  0
  144.2085   75.0634  221.0498 H   0  0  0  0  0  0  0  0  0  0  0  0
  144.4800   74.3584  219.4075 H   0  0  0  0  0  0  0  0  0  0  0  0
  145.7250   73.5350  220.9530 C   0  0  0  0  0  0  0  0  0  0  0  0
  145.7522   73.5225  222.0526 H   0  0  0  0  0  0  0  0  0  0  0  0
  145.8129   72.5067  220.5723 H   0  0  0  0  0  0  0  0  0  0  0  0
  146.5614   74.1396  220.5723 H   0  0  0  0  0  0  0  0  0  0  0  0
  141.4520   72.1880  221.6410 C   0  0  0  0  0  0  0  0  0  0  0  0
  141.9435   71.2097  221.5348 H   0  0  0  0  0  0  0  0  0  0  0  0
  140.1510   71.3030  225.0450 C   0  0  0  0  0  0  0  0  0  0  0  0
  140.4866   72.3343  224.8609 H   0  0  0  0  0  0  0  0  0  0  0  0
  140.2790   70.7480  226.3310 C   0  0  0  0  0  0  0  0  0  0  0  0
  140.9050   71.5480  227.4460 C   0  0  0  0  0  0  0  0  0  0  0  0
  141.4880   70.6830  228.3550 F   0  0  0  0  0  0  0  0  0  0  0  0
  139.9530   72.3130  228.0970 F   0  0  0  0  0  0  0  0  0  0  0  0
  141.8770   72.3990  226.9480 F   0  0  0  0  0  0  0  0  0  0  0  0
  139.9070   69.4080  226.5370 C   0  0  0  0  0  0  0  0  0  0  0  0
  140.0302   68.9526  227.5307 H   0  0  0  0  0  0  0  0  0  0  0  0
  1  2  1  0
  2  3  2  0
  3  4  1  0
  3  5  1  0
  5  6  1  0
  6  7  1  0
  6  8  1  0
  8  9  1  0
  9 10  2  0
 10 11  1  0
 11 12  1  0
 11 13  2  0
 13 14  1  0
 13 15  1  0
 15 16  1  0
 15 17  1  0
 17 18  1  0
 18 19  2  0
 19 20  1  0
 20 21  1  0
 20 22  1  0
 20 23  1  0
 23 24  1  0
 23 25  1  0
 23 26  1  0
 18 27  1  0
 27 28  1  0
  5 29  2  0
 29 30  1  0
 29 31  1  0
 31 32  1  0
 32 33  1  0
 32 34  1  0
 32 35  1  0
 31 36  2  0
 36 37  1  0
 36  2  1  0
 27  8  2  0
 17 10  1  0
M  END
>  <UniqueID>  (33) 
6

>  <SMILES>  (33) 
CC/N=c1/cc(Nc2cccc(C(F)(F)F)c2)nc2cc[nH]n12

>  <Energy>  (33) 
90.82043111404643

>  <Genealogy>  (33) 
CCN=c1cc(Nc2cccc(C(F)(F)F)c2)nc2cc[nH]n12 (tautomer)
CC/N=c1/cc(Nc2cccc(C(F)(F)F)c2)nc2cc[nH]n12 (cis-trans isomerization)
CC/N=c1/cc(Nc2cccc(C(F)(F)F)c2)nc2cc[nH]n12 (3D coordinates assigned)
CC/N=c1/cc(Nc2cccc(C(F)(F)F)c2)nc2cc[nH]n12 (optimized conformer: 90.82043111404643 kcal/mol)

>  <smiles>  (33) 
CCN=c1cc(Nc2cccc(C(F)(F)F)c2)[nH]c2ccnn12

>  <score_type>  (33) 
oracle

>  <origin>  (33) 
autodockgpu

>  <m_score__min__energy>  (33) 
-6.21

>  <m_primary>  (33) 
energy

>  <meeko>  (33) 
{"free_energy": -6.21, "intermolecular_energy": -7.7, "internal_energy": -0.52, "cluster_size": 18, "cluster_id": 1, "rank_in_cluster": 2}

>  <energy>  (33) 
-6.1

>  <cluster_rmsd>  (33) 
1.72

>  <rmsd>  (33) 
271.8

>  <cluster>  (33) 
1

$$$$
RBQYZXQNNWWOGL-RGEXLXHINA-N
     RDKit          3D

 37 39  0  0  0  0  0  0  0  0999 V2000
  139.7734   67.6531  225.6168 H   0  0  0  0  0  0  0  0  0  0  0  0
  139.8640   68.7450  225.5190 C   0  0  0  0  0  0  0  0  0  0  0  0
  139.5330   69.3660  224.3130 C   0  0  0  0  0  0  0  0  0  0  0  0
  139.1862   68.7599  223.4631 H   0  0  0  0  0  0  0  0  0  0  0  0
  139.6400   70.7570  224.1790 C   0  0  0  0  0  0  0  0  0  0  0  0
  139.3310   71.3700  222.9150 N   0  0  0  0  0  0  0  0  0  0  0  0
  138.4930   71.0250  222.3950 H   0  0  0  0  0  0  0  0  0  0  0  0
  140.1040   72.4160  222.3070 C   0  0  0  0  0  0  0  0  0  0  0  0
  139.6350   73.6930  222.3520 N   0  0  0  0  0  0  0  0  0  0  0  0
  140.3680   74.6910  221.8060 C   0  0  0  0  0  0  0  0  0  0  0  0
  140.0380   76.0250  221.7650 C   0  0  0  0  0  0  0  0  0  0  0  0
  139.1343   76.5169  222.1541 H   0  0  0  0  0  0  0  0  0  0  0  0
  141.1170   76.6000  221.1160 C   0  0  0  0  0  0  0  0  0  0  0  0
  141.2234   77.6715  220.8911 H   0  0  0  0  0  0  0  0  0  0  0  0
  142.0190   75.6460  220.8010 N   0  0  0  0  0  0  0  0  0  0  0  0
  142.9070   75.8490  220.3080 H   0  0  0  0  0  0  0  0  0  0  0  0
  141.5600   74.4720  221.2220 N   0  0  0  0  0  0  0  0  0  0  0  0
  142.1040   73.2080  221.1590 C   0  0  0  0  0  0  0  0  0  0  0  0
  143.2580   72.9030  220.6240 N   0  0  0  0  0  0  0  0  0  0  0  0
  144.3950   73.7140  220.2030 C   0  0  0  0  0  0  0  0  0  0  0  0
  144.1270   74.7779  220.2820 H   0  0  0  0  0  0  0  0  0  0  0  0
  144.6440   73.4557  219.1632 H   0  0  0  0  0  0  0  0  0  0  0  0
  145.6170   73.4400  221.0790 C   0  0  0  0  0  0  0  0  0  0  0  0
  145.3301   73.5043  222.1390 H   0  0  0  0  0  0  0  0  0  0  0  0
  146.0037   72.4329  220.8642 H   0  0  0  0  0  0  0  0  0  0  0  0
  146.3967   74.1856  220.8642 H   0  0  0  0  0  0  0  0  0  0  0  0
  141.3640   72.1560  221.7260 C   0  0  0  0  0  0  0  0  0  0  0  0
  141.7659   71.1321  221.7170 H   0  0  0  0  0  0  0  0  0  0  0  0
  140.1150   71.5180  225.2630 C   0  0  0  0  0  0  0  0  0  0  0  0
  140.2475   72.6041  225.1493 H   0  0  0  0  0  0  0  0  0  0  0  0
  140.4220   70.9040  226.4900 C   0  0  0  0  0  0  0  0  0  0  0  0
  140.9640   71.7220  227.6350 C   0  0  0  0  0  0  0  0  0  0  0  0
  141.6330   70.8880  228.5140 F   0  0  0  0  0  0  0  0  0  0  0  0
  139.9390   72.3610  228.3120 F   0  0  0  0  0  0  0  0  0  0  0  0
  141.8430   72.6860  227.1720 F   0  0  0  0  0  0  0  0  0  0  0  0
  140.3100   69.5070  226.6020 C   0  0  0  0  0  0  0  0  0  0  0  0
  140.5749   69.0111  227.5475 H   0  0  0  0  0  0  0  0  0  0  0  0
  1  2  1  0
  2  3  2  0
  3  4  1  0
  3  5  1  0
  5  6  1  0
  6  7  1  0
  6  8  1  0
  8  9  1  0
  9 10  2  0
 10 11  1  0
 11 12  1  0
 11 13  2  0
 13 14  1  0
 13 15  1  0
 15 16  1  0
 15 17  1  0
 17 18  1  0
 18 19  2  0
 19 20  1  0
 20 21  1  0
 20 22  1  0
 20 23  1  0
 23 24  1  0
 23 25  1  0
 23 26  1  0
 18 27  1  0
 27 28  1  0
  5 29  2  0
 29 30  1  0
 29 31  1  0
 31 32  1  0
 32 33  1  0
 32 34  1  0
 32 35  1  0
 31 36  2  0
 36 37  1  0
 36  2  1  0
 27  8  2  0
 17 10  1  0
M  END
>  <UniqueID>  (34) 
6

>  <SMILES>  (34) 
CC/N=c1/cc(Nc2cccc(C(F)(F)F)c2)nc2cc[nH]n12

>  <Energy>  (34) 
90.82043111404643

>  <Genealogy>  (34) 
CCN=c1cc(Nc2cccc(C(F)(F)F)c2)nc2cc[nH]n12 (tautomer)
CC/N=c1/cc(Nc2cccc(C(F)(F)F)c2)nc2cc[nH]n12 (cis-trans isomerization)
CC/N=c1/cc(Nc2cccc(C(F)(F)F)c2)nc2cc[nH]n12 (3D coordinates assigned)
CC/N=c1/cc(Nc2cccc(C(F)(F)F)c2)nc2cc[nH]n12 (optimized conformer: 90.82043111404643 kcal/mol)

>  <smiles>  (34) 
CCN=c1cc(Nc2cccc(C(F)(F)F)c2)[nH]c2ccnn12

>  <score_type>  (34) 
oracle

>  <origin>  (34) 
autodockgpu

>  <m_score__min__energy>  (34) 
-6.21

>  <m_primary>  (34) 
energy

>  <meeko>  (34) 
{"free_energy": -6.13, "intermolecular_energy": -7.63, "internal_energy": -0.52, "cluster_size": 18, "cluster_id": 1, "rank_in_cluster": 9}

>  <energy>  (34) 
-6.08

>  <cluster_rmsd>  (34) 
0.43

>  <rmsd>  (34) 
271.95

>  <cluster>  (34) 
1

$$$$
RBQYZXQNNWWOGL-RGEXLXHINA-N
     RDKit          3D

 37 39  0  0  0  0  0  0  0  0999 V2000
  138.8303   67.6212  225.6653 H   0  0  0  0  0  0  0  0  0  0  0  0
  139.2050   68.6370  225.4710 C   0  0  0  0  0  0  0  0  0  0  0  0
  139.1250   69.1740  224.1850 C   0  0  0  0  0  0  0  0  0  0  0  0
  138.6912   68.5770  223.3693 H   0  0  0  0  0  0  0  0  0  0  0  0
  139.5940   70.4690  223.9270 C   0  0  0  0  0  0  0  0  0  0  0  0
  139.5370   70.9860  222.5860 N   0  0  0  0  0  0  0  0  0  0  0  0
  138.9870   70.4510  221.8770 H   0  0  0  0  0  0  0  0  0  0  0  0
  140.1980   72.1820  222.1450 C   0  0  0  0  0  0  0  0  0  0  0  0
  139.5900   73.3840  222.3470 N   0  0  0  0  0  0  0  0  0  0  0  0
  140.2160   74.5190  221.9600 C   0  0  0  0  0  0  0  0  0  0  0  0
  139.7400   75.8030  222.0880 C   0  0  0  0  0  0  0  0  0  0  0  0
  138.7818   76.1368  222.5129 H   0  0  0  0  0  0  0  0  0  0  0  0
  140.7580   76.5740  221.5530 C   0  0  0  0  0  0  0  0  0  0  0  0
  140.7479   77.6712  221.4758 H   0  0  0  0  0  0  0  0  0  0  0  0
  141.7660   75.7740  221.1400 N   0  0  0  0  0  0  0  0  0  0  0  0
  142.6320   76.1370  220.7050 H   0  0  0  0  0  0  0  0  0  0  0  0
  141.4330   74.5120  221.3870 N   0  0  0  0  0  0  0  0  0  0  0  0
  142.1150   73.3340  221.1730 C   0  0  0  0  0  0  0  0  0  0  0  0
  143.3030   73.2300  220.6360 N   0  0  0  0  0  0  0  0  0  0  0  0
  144.3940   74.1840  220.4640 C   0  0  0  0  0  0  0  0  0  0  0  0
  144.1825   75.0838  221.0603 H   0  0  0  0  0  0  0  0  0  0  0  0
  144.4721   74.4389  219.3968 H   0  0  0  0  0  0  0  0  0  0  0  0
  145.7230   73.5830  220.9200 C   0  0  0  0  0  0  0  0  0  0  0  0
  145.7599   73.5663  222.0193 H   0  0  0  0  0  0  0  0  0  0  0  0
  145.8128   72.5567  220.5345 H   0  0  0  0  0  0  0  0  0  0  0  0
  146.5529   74.1934  220.5345 H   0  0  0  0  0  0  0  0  0  0  0  0
  141.4870   72.1410  221.5720 C   0  0  0  0  0  0  0  0  0  0  0  0
  141.9997   71.1771  221.4377 H   0  0  0  0  0  0  0  0  0  0  0  0
  140.1770   71.2100  224.9710 C   0  0  0  0  0  0  0  0  0  0  0  0
  140.5923   72.2075  224.7650 H   0  0  0  0  0  0  0  0  0  0  0  0
  140.2340   70.6880  226.2750 C   0  0  0  0  0  0  0  0  0  0  0  0
  140.8920   71.4740  227.3810 C   0  0  0  0  0  0  0  0  0  0  0  0
  141.4630   70.5970  228.2860 F   0  0  0  0  0  0  0  0  0  0  0  0
  139.9660   72.2630  228.0410 F   0  0  0  0  0  0  0  0  0  0  0  0
  141.8780   72.3010  226.8710 F   0  0  0  0  0  0  0  0  0  0  0  0
  139.7590   69.3850  226.5110 C   0  0  0  0  0  0  0  0  0  0  0  0
  139.8246   68.9534  227.5206 H   0  0  0  0  0  0  0  0  0  0  0  0
  1  2  1  0
  2  3  2  0
  3  4  1  0
  3  5  1  0
  5  6  1  0
  6  7  1  0
  6  8  1  0
  8  9  1  0
  9 10  2  0
 10 11  1  0
 11 12  1  0
 11 13  2  0
 13 14  1  0
 13 15  1  0
 15 16  1  0
 15 17  1  0
 17 18  1  0
 18 19  2  0
 19 20  1  0
 20 21  1  0
 20 22  1  0
 20 23  1  0
 23 24  1  0
 23 25  1  0
 23 26  1  0
 18 27  1  0
 27 28  1  0
  5 29  2  0
 29 30  1  0
 29 31  1  0
 31 32  1  0
 32 33  1  0
 32 34  1  0
 32 35  1  0
 31 36  2  0
 36 37  1  0
 36  2  1  0
 27  8  2  0
 17 10  1  0
M  END
>  <UniqueID>  (35) 
6

>  <SMILES>  (35) 
CC/N=c1/cc(Nc2cccc(C(F)(F)F)c2)nc2cc[nH]n12

>  <Energy>  (35) 
90.82043111404643

>  <Genealogy>  (35) 
CCN=c1cc(Nc2cccc(C(F)(F)F)c2)nc2cc[nH]n12 (tautomer)
CC/N=c1/cc(Nc2cccc(C(F)(F)F)c2)nc2cc[nH]n12 (cis-trans isomerization)
CC/N=c1/cc(Nc2cccc(C(F)(F)F)c2)nc2cc[nH]n12 (3D coordinates assigned)
CC/N=c1/cc(Nc2cccc(C(F)(F)F)c2)nc2cc[nH]n12 (optimized conformer: 90.82043111404643 kcal/mol)

>  <smiles>  (35) 
CCN=c1cc(Nc2cccc(C(F)(F)F)c2)[nH]c2ccnn12

>  <score_type>  (35) 
oracle

>  <origin>  (35) 
autodockgpu

>  <m_score__min__energy>  (35) 
-6.21

>  <m_primary>  (35) 
energy

>  <meeko>  (35) 
{"free_energy": -6.2, "intermolecular_energy": -7.69, "internal_energy": -0.52, "cluster_size": 18, "cluster_id": 1, "rank_in_cluster": 4}

>  <energy>  (35) 
-6.05

>  <cluster_rmsd>  (35) 
1.7

>  <rmsd>  (35) 
271.74

>  <cluster>  (35) 
1

$$$$
RBQYZXQNNWWOGL-RGEXLXHINA-N
     RDKit          3D

 37 39  0  0  0  0  0  0  0  0999 V2000
  140.5441   67.1649  227.6784 H   0  0  0  0  0  0  0  0  0  0  0  0
  140.4400   68.1590  227.2190 C   0  0  0  0  0  0  0  0  0  0  0  0
  140.0210   68.2720  225.8910 C   0  0  0  0  0  0  0  0  0  0  0  0
  139.7999   67.3658  225.3080 H   0  0  0  0  0  0  0  0  0  0  0  0
  139.8810   69.5340  225.2980 C   0  0  0  0  0  0  0  0  0  0  0  0
  139.4870   69.6240  223.9170 N   0  0  0  0  0  0  0  0  0  0  0  0
  139.4570   68.7430  223.3580 H   0  0  0  0  0  0  0  0  0  0  0  0
  139.1450   70.8470  223.2470 C   0  0  0  0  0  0  0  0  0  0  0  0
  137.8340   71.1150  222.9920 N   0  0  0  0  0  0  0  0  0  0  0  0
  137.4980   72.2760  222.3850 C   0  0  0  0  0  0  0  0  0  0  0  0
  136.2300   72.6940  222.0560 C   0  0  0  0  0  0  0  0  0  0  0  0
  135.2757   72.1710  222.2165 H   0  0  0  0  0  0  0  0  0  0  0  0
  136.4440   73.9320  221.4740 C   0  0  0  0  0  0  0  0  0  0  0  0
  135.6571   74.5893  221.0755 H   0  0  0  0  0  0  0  0  0  0  0  0
  137.7660   74.2100  221.4700 N   0  0  0  0  0  0  0  0  0  0  0  0
  138.1570   75.0860  221.0810 H   0  0  0  0  0  0  0  0  0  0  0  0
  138.4150   73.1930  222.0270 N   0  0  0  0  0  0  0  0  0  0  0  0
  139.7560   72.9970  222.2730 C   0  0  0  0  0  0  0  0  0  0  0  0
  140.7150   73.8350  221.9730 N   0  0  0  0  0  0  0  0  0  0  0  0
  140.7370   75.0730  221.2010 C   0  0  0  0  0  0  0  0  0  0  0  0
  140.0239   74.9900  220.3675 H   0  0  0  0  0  0  0  0  0  0  0  0
  141.7571   75.2311  220.8209 H   0  0  0  0  0  0  0  0  0  0  0  0
  140.3510   76.2680  222.0720 C   0  0  0  0  0  0  0  0  0  0  0  0
  140.4401   75.9923  223.1332 H   0  0  0  0  0  0  0  0  0  0  0  0
  141.0222   77.1120  221.8549 H   0  0  0  0  0  0  0  0  0  0  0  0
  139.3129   76.5599  221.8549 H   0  0  0  0  0  0  0  0  0  0  0  0
  140.1290   71.8000  222.9090 C   0  0  0  0  0  0  0  0  0  0  0  0
  141.1864   71.6067  223.1428 H   0  0  0  0  0  0  0  0  0  0  0  0
  140.1970   70.6840  226.0440 C   0  0  0  0  0  0  0  0  0  0  0  0
  140.1360   71.6745  225.5696 H   0  0  0  0  0  0  0  0  0  0  0  0
  140.5900   70.5800  227.3900 C   0  0  0  0  0  0  0  0  0  0  0  0
  140.9610   71.8150  228.1720 C   0  0  0  0  0  0  0  0  0  0  0  0
  139.8480   72.2760  228.8500 F   0  0  0  0  0  0  0  0  0  0  0  0
  141.4210   72.8110  227.3280 F   0  0  0  0  0  0  0  0  0  0  0  0
  141.9600   71.5300  229.0870 F   0  0  0  0  0  0  0  0  0  0  0  0
  140.7270   69.3040  227.9650 C   0  0  0  0  0  0  0  0  0  0  0  0
  141.0621   69.2073  229.0082 H   0  0  0  0  0  0  0  0  0  0  0  0
  1  2  1  0
  2  3  2  0
  3  4  1  0
  3  5  1  0
  5  6  1  0
  6  7  1  0
  6  8  1  0
  8  9  1  0
  9 10  2  0
 10 11  1  0
 11 12  1  0
 11 13  2  0
 13 14  1  0
 13 15  1  0
 15 16  1  0
 15 17  1  0
 17 18  1  0
 18 19  2  0
 19 20  1  0
 20 21  1  0
 20 22  1  0
 20 23  1  0
 23 24  1  0
 23 25  1  0
 23 26  1  0
 18 27  1  0
 27 28  1  0
  5 29  2  0
 29 30  1  0
 29 31  1  0
 31 32  1  0
 32 33  1  0
 32 34  1  0
 32 35  1  0
 31 36  2  0
 36 37  1  0
 36  2  1  0
 27  8  2  0
 17 10  1  0
M  END
>  <UniqueID>  (36) 
6

>  <SMILES>  (36) 
CC/N=c1/cc(Nc2cccc(C(F)(F)F)c2)nc2cc[nH]n12

>  <Energy>  (36) 
90.82043111404643

>  <Genealogy>  (36) 
CCN=c1cc(Nc2cccc(C(F)(F)F)c2)nc2cc[nH]n12 (tautomer)
CC/N=c1/cc(Nc2cccc(C(F)(F)F)c2)nc2cc[nH]n12 (cis-trans isomerization)
CC/N=c1/cc(Nc2cccc(C(F)(F)F)c2)nc2cc[nH]n12 (3D coordinates assigned)
CC/N=c1/cc(Nc2cccc(C(F)(F)F)c2)nc2cc[nH]n12 (optimized conformer: 90.82043111404643 kcal/mol)

>  <smiles>  (36) 
CCN=c1cc(Nc2cccc(C(F)(F)F)c2)[nH]c2ccnn12

>  <score_type>  (36) 
oracle

>  <origin>  (36) 
autodockgpu

>  <m_score__min__energy>  (36) 
-6.21

>  <m_primary>  (36) 
energy

>  <meeko>  (36) 
{"free_energy": -5.74, "intermolecular_energy": -7.23, "internal_energy": -0.54, "cluster_size": 2, "cluster_id": 2, "rank_in_cluster": 1}

>  <energy>  (36) 
-6.05

>  <cluster_rmsd>  (36) 
0.36

>  <rmsd>  (36) 
271.97

>  <cluster>  (36) 
1

$$$$
RBQYZXQNNWWOGL-RGEXLXHINA-N
     RDKit          3D

 37 39  0  0  0  0  0  0  0  0999 V2000
  138.8663   67.8760  225.8370 H   0  0  0  0  0  0  0  0  0  0  0  0
  139.2710   68.8710  225.6000 C   0  0  0  0  0  0  0  0  0  0  0  0
  139.1870   69.3640  224.2960 C   0  0  0  0  0  0  0  0  0  0  0  0
  138.7194   68.7534  223.5095 H   0  0  0  0  0  0  0  0  0  0  0  0
  139.6950   70.6320  223.9840 C   0  0  0  0  0  0  0  0  0  0  0  0
  139.6330   71.1030  222.6260 N   0  0  0  0  0  0  0  0  0  0  0  0
  139.0940   70.5340  221.9350 H   0  0  0  0  0  0  0  0  0  0  0  0
  140.2740   72.2950  222.1470 C   0  0  0  0  0  0  0  0  0  0  0  0
  139.6890   73.5010  222.3910 N   0  0  0  0  0  0  0  0  0  0  0  0
  140.2970   74.6330  221.9680 C   0  0  0  0  0  0  0  0  0  0  0  0
  139.8410   75.9200  222.1290 C   0  0  0  0  0  0  0  0  0  0  0  0
  138.9150   76.2605  222.6154 H   0  0  0  0  0  0  0  0  0  0  0  0
  140.8290   76.6840  221.5310 C   0  0  0  0  0  0  0  0  0  0  0  0
  140.8229   77.7815  221.4567 H   0  0  0  0  0  0  0  0  0  0  0  0
  141.8010   75.8780  221.0530 N   0  0  0  0  0  0  0  0  0  0  0  0
  142.6410   76.2350  220.5630 H   0  0  0  0  0  0  0  0  0  0  0  0
  141.4750   74.6170  221.3170 N   0  0  0  0  0  0  0  0  0  0  0  0
  142.1320   73.4350  221.0560 C   0  0  0  0  0  0  0  0  0  0  0  0
  143.2830   73.3240  220.4440 N   0  0  0  0  0  0  0  0  0  0  0  0
  144.5590   72.7390  220.8410 C   0  0  0  0  0  0  0  0  0  0  0  0
  144.8267   71.9434  220.1301 H   0  0  0  0  0  0  0  0  0  0  0  0
  144.4559   72.3295  221.8567 H   0  0  0  0  0  0  0  0  0  0  0  0
  145.6650   73.7930  220.8510 C   0  0  0  0  0  0  0  0  0  0  0  0
  145.9255   74.0413  221.8905 H   0  0  0  0  0  0  0  0  0  0  0  0
  146.5525   73.3981  220.3349 H   0  0  0  0  0  0  0  0  0  0  0  0
  145.3133   74.6985  220.3349 H   0  0  0  0  0  0  0  0  0  0  0  0
  141.5220   72.2460  221.4920 C   0  0  0  0  0  0  0  0  0  0  0  0
  142.0174   71.2786  221.3225 H   0  0  0  0  0  0  0  0  0  0  0  0
  140.3190   71.3900  224.9920 C   0  0  0  0  0  0  0  0  0  0  0  0
  140.7629   72.3653  224.7435 H   0  0  0  0  0  0  0  0  0  0  0  0
  140.3810   70.9140  226.3130 C   0  0  0  0  0  0  0  0  0  0  0  0
  141.0820   71.7170  227.3790 C   0  0  0  0  0  0  0  0  0  0  0  0
  141.5660   70.8590  228.3510 F   0  0  0  0  0  0  0  0  0  0  0  0
  140.2130   72.6190  227.9670 F   0  0  0  0  0  0  0  0  0  0  0  0
  142.1400   72.4260  226.8370 F   0  0  0  0  0  0  0  0  0  0  0  0
  139.8670   69.6370  226.6040 C   0  0  0  0  0  0  0  0  0  0  0  0
  139.9350   69.2400  227.6276 H   0  0  0  0  0  0  0  0  0  0  0  0
  1  2  1  0
  2  3  2  0
  3  4  1  0
  3  5  1  0
  5  6  1  0
  6  7  1  0
  6  8  1  0
  8  9  1  0
  9 10  2  0
 10 11  1  0
 11 12  1  0
 11 13  2  0
 13 14  1  0
 13 15  1  0
 15 16  1  0
 15 17  1  0
 17 18  1  0
 18 19  2  0
 19 20  1  0
 20 21  1  0
 20 22  1  0
 20 23  1  0
 23 24  1  0
 23 25  1  0
 23 26  1  0
 18 27  1  0
 27 28  1  0
  5 29  2  0
 29 30  1  0
 29 31  1  0
 31 32  1  0
 32 33  1  0
 32 34  1  0
 32 35  1  0
 31 36  2  0
 36 37  1  0
 36  2  1  0
 27  8  2  0
 17 10  1  0
M  END
>  <UniqueID>  (37) 
6

>  <SMILES>  (37) 
CC/N=c1/cc(Nc2cccc(C(F)(F)F)c2)nc2cc[nH]n12

>  <Energy>  (37) 
90.82043111404643

>  <Genealogy>  (37) 
CCN=c1cc(Nc2cccc(C(F)(F)F)c2)nc2cc[nH]n12 (tautomer)
CC/N=c1/cc(Nc2cccc(C(F)(F)F)c2)nc2cc[nH]n12 (cis-trans isomerization)
CC/N=c1/cc(Nc2cccc(C(F)(F)F)c2)nc2cc[nH]n12 (3D coordinates assigned)
CC/N=c1/cc(Nc2cccc(C(F)(F)F)c2)nc2cc[nH]n12 (optimized conformer: 90.82043111404643 kcal/mol)

>  <smiles>  (37) 
CCN=c1cc(Nc2cccc(C(F)(F)F)c2)[nH]c2ccnn12

>  <score_type>  (37) 
oracle

>  <origin>  (37) 
autodockgpu

>  <m_score__min__energy>  (37) 
-6.21

>  <m_primary>  (37) 
energy

>  <meeko>  (37) 
{"free_energy": -6.05, "intermolecular_energy": -7.54, "internal_energy": -0.55, "cluster_size": 18, "cluster_id": 1, "rank_in_cluster": 16}

>  <energy>  (37) 
-6.03

>  <cluster_rmsd>  (37) 
1.8

>  <rmsd>  (37) 
271.73

>  <cluster>  (37) 
1

$$$$
RBQYZXQNNWWOGL-RGEXLXHINA-N
     RDKit          3D

 37 39  0  0  0  0  0  0  0  0999 V2000
  141.4494   72.3238  227.3077 H   0  0  0  0  0  0  0  0  0  0  0  0
  141.0370   71.5530  226.6400 C   0  0  0  0  0  0  0  0  0  0  0  0
  140.7450   71.8670  225.3110 C   0  0  0  0  0  0  0  0  0  0  0  0
  140.9252   72.8858  224.9375 H   0  0  0  0  0  0  0  0  0  0  0  0
  140.2240   70.8920  224.4510 C   0  0  0  0  0  0  0  0  0  0  0  0
  139.8930   71.2490  223.0970 N   0  0  0  0  0  0  0  0  0  0  0  0
  139.1050   70.7420  222.6360 H   0  0  0  0  0  0  0  0  0  0  0  0
  140.5820   72.2450  222.3260 C   0  0  0  0  0  0  0  0  0  0  0  0
  140.1290   73.5290  222.3530 N   0  0  0  0  0  0  0  0  0  0  0  0
  140.7850   74.4810  221.6520 C   0  0  0  0  0  0  0  0  0  0  0  0
  140.4580   75.8150  221.5710 C   0  0  0  0  0  0  0  0  0  0  0  0
  139.6168   76.3418  222.0451 H   0  0  0  0  0  0  0  0  0  0  0  0
  141.4430   76.3340  220.7490 C   0  0  0  0  0  0  0  0  0  0  0  0
  141.5231   77.3880  220.4446 H   0  0  0  0  0  0  0  0  0  0  0  0
  142.2910   75.3510  220.3770 N   0  0  0  0  0  0  0  0  0  0  0  0
  143.1050   75.5120  219.7570 H   0  0  0  0  0  0  0  0  0  0  0  0
  141.8880   74.2120  220.9280 N   0  0  0  0  0  0  0  0  0  0  0  0
  142.4130   72.9400  220.8740 C   0  0  0  0  0  0  0  0  0  0  0  0
  143.4840   72.5870  220.2100 N   0  0  0  0  0  0  0  0  0  0  0  0
  144.7490   73.2640  219.9480 C   0  0  0  0  0  0  0  0  0  0  0  0
  144.5441   74.2835  219.5894 H   0  0  0  0  0  0  0  0  0  0  0  0
  145.3020   72.6928  219.1878 H   0  0  0  0  0  0  0  0  0  0  0  0
  145.6000   73.3410  221.2150 C   0  0  0  0  0  0  0  0  0  0  0  0
  144.9479   73.2820  222.0989 H   0  0  0  0  0  0  0  0  0  0  0  0
  146.3133   72.5037  221.2290 H   0  0  0  0  0  0  0  0  0  0  0  0
  146.1514   74.2927  221.2290 H   0  0  0  0  0  0  0  0  0  0  0  0
  141.7510   71.9340  221.5990 C   0  0  0  0  0  0  0  0  0  0  0  0
  142.1433   70.9063  221.5997 H   0  0  0  0  0  0  0  0  0  0  0  0
  139.9690   69.6010  224.9480 C   0  0  0  0  0  0  0  0  0  0  0  0
  139.5156   68.8443  224.2909 H   0  0  0  0  0  0  0  0  0  0  0  0
  140.2880   69.2680  226.2770 C   0  0  0  0  0  0  0  0  0  0  0  0
  139.9790   67.8930  226.8120 C   0  0  0  0  0  0  0  0  0  0  0  0
  139.7670   67.9720  228.1770 F   0  0  0  0  0  0  0  0  0  0  0  0
  141.0280   67.0230  226.5680 F   0  0  0  0  0  0  0  0  0  0  0  0
  138.8430   67.3800  226.2100 F   0  0  0  0  0  0  0  0  0  0  0  0
  140.8070   70.2630  227.1240 C   0  0  0  0  0  0  0  0  0  0  0  0
  141.0332   70.0243  228.1737 H   0  0  0  0  0  0  0  0  0  0  0  0
  1  2  1  0
  2  3  2  0
  3  4  1  0
  3  5  1  0
  5  6  1  0
  6  7  1  0
  6  8  1  0
  8  9  1  0
  9 10  2  0
 10 11  1  0
 11 12  1  0
 11 13  2  0
 13 14  1  0
 13 15  1  0
 15 16  1  0
 15 17  1  0
 17 18  1  0
 18 19  2  0
 19 20  1  0
 20 21  1  0
 20 22  1  0
 20 23  1  0
 23 24  1  0
 23 25  1  0
 23 26  1  0
 18 27  1  0
 27 28  1  0
  5 29  2  0
 29 30  1  0
 29 31  1  0
 31 32  1  0
 32 33  1  0
 32 34  1  0
 32 35  1  0
 31 36  2  0
 36 37  1  0
 36  2  1  0
 27  8  2  0
 17 10  1  0
M  END
>  <UniqueID>  (38) 
6

>  <SMILES>  (38) 
CC/N=c1/cc(Nc2cccc(C(F)(F)F)c2)nc2cc[nH]n12

>  <Energy>  (38) 
90.82043111404643

>  <Genealogy>  (38) 
CCN=c1cc(Nc2cccc(C(F)(F)F)c2)nc2cc[nH]n12 (tautomer)
CC/N=c1/cc(Nc2cccc(C(F)(F)F)c2)nc2cc[nH]n12 (cis-trans isomerization)
CC/N=c1/cc(Nc2cccc(C(F)(F)F)c2)nc2cc[nH]n12 (3D coordinates assigned)
CC/N=c1/cc(Nc2cccc(C(F)(F)F)c2)nc2cc[nH]n12 (optimized conformer: 90.82043111404643 kcal/mol)

>  <smiles>  (38) 
CCN=c1cc(Nc2cccc(C(F)(F)F)c2)[nH]c2ccnn12

>  <score_type>  (38) 
oracle

>  <origin>  (38) 
autodockgpu

>  <m_score__min__energy>  (38) 
-6.21

>  <m_primary>  (38) 
energy

>  <meeko>  (38) 
{"free_energy": -6.14, "intermolecular_energy": -7.63, "internal_energy": -0.56, "cluster_size": 18, "cluster_id": 1, "rank_in_cluster": 8}

>  <energy>  (38) 
-5.66

>  <cluster_rmsd>  (38) 
1.77

>  <rmsd>  (38) 
272.07

>  <cluster>  (38) 
1

$$$$
RBQYZXQNNWWOGL-RGEXLXHINA-N
     RDKit          3D

 37 39  0  0  0  0  0  0  0  0999 V2000
  139.3805   67.6503  225.3704 H   0  0  0  0  0  0  0  0  0  0  0  0
  139.6040   68.7210  225.2540 C   0  0  0  0  0  0  0  0  0  0  0  0
  139.3980   69.3450  224.0220 C   0  0  0  0  0  0  0  0  0  0  0  0
  139.0159   68.7620  223.1711 H   0  0  0  0  0  0  0  0  0  0  0  0
  139.6750   70.7090  223.8630 C   0  0  0  0  0  0  0  0  0  0  0  0
  139.4930   71.3210  222.5740 N   0  0  0  0  0  0  0  0  0  0  0  0
  138.8370   70.8640  221.9030 H   0  0  0  0  0  0  0  0  0  0  0  0
  140.1640   72.5130  222.1370 C   0  0  0  0  0  0  0  0  0  0  0  0
  139.5690   73.7200  222.3480 N   0  0  0  0  0  0  0  0  0  0  0  0
  140.2030   74.8510  221.9640 C   0  0  0  0  0  0  0  0  0  0  0  0
  139.7420   76.1390  222.1010 C   0  0  0  0  0  0  0  0  0  0  0  0
  138.7900   76.4807  222.5334 H   0  0  0  0  0  0  0  0  0  0  0  0
  140.7640   76.9020  221.5640 C   0  0  0  0  0  0  0  0  0  0  0  0
  140.7642   77.9996  221.4918 H   0  0  0  0  0  0  0  0  0  0  0  0
  141.7610   76.0950  221.1420 N   0  0  0  0  0  0  0  0  0  0  0  0
  142.6290   76.4510  220.7040 H   0  0  0  0  0  0  0  0  0  0  0  0
  141.4180   74.8340  221.3840 N   0  0  0  0  0  0  0  0  0  0  0  0
  142.0860   73.6510  221.1600 C   0  0  0  0  0  0  0  0  0  0  0  0
  143.2710   73.5380  220.6160 N   0  0  0  0  0  0  0  0  0  0  0  0
  144.3780   72.6170  220.8470 C   0  0  0  0  0  0  0  0  0  0  0  0
  144.4981   71.9708  219.9650 H   0  0  0  0  0  0  0  0  0  0  0  0
  144.1517   72.0143  221.7389 H   0  0  0  0  0  0  0  0  0  0  0  0
  145.6810   73.3760  221.0910 C   0  0  0  0  0  0  0  0  0  0  0  0
  145.8506   73.4748  222.1733 H   0  0  0  0  0  0  0  0  0  0  0  0
  146.5174   72.8238  220.6377 H   0  0  0  0  0  0  0  0  0  0  0  0
  145.6133   74.3760  220.6377 H   0  0  0  0  0  0  0  0  0  0  0  0
  141.4490   72.4630  221.5560 C   0  0  0  0  0  0  0  0  0  0  0  0
  141.9514   71.4949  221.4133 H   0  0  0  0  0  0  0  0  0  0  0  0
  140.1930   71.4370  224.9500 C   0  0  0  0  0  0  0  0  0  0  0  0
  140.4588   72.4963  224.8191 H   0  0  0  0  0  0  0  0  0  0  0  0
  140.3740   70.8230  226.2020 C   0  0  0  0  0  0  0  0  0  0  0  0
  140.9630   71.6010  227.3530 C   0  0  0  0  0  0  0  0  0  0  0  0
  141.9380   72.4560  226.8730 F   0  0  0  0  0  0  0  0  0  0  0  0
  141.5290   70.7480  228.2840 F   0  0  0  0  0  0  0  0  0  0  0  0
  139.9840   72.3450  227.9880 F   0  0  0  0  0  0  0  0  0  0  0  0
  140.0930   69.4520  226.3390 C   0  0  0  0  0  0  0  0  0  0  0  0
  140.2591   68.9530  227.3051 H   0  0  0  0  0  0  0  0  0  0  0  0
  1  2  1  0
  2  3  2  0
  3  4  1  0
  3  5  1  0
  5  6  1  0
  6  7  1  0
  6  8  1  0
  8  9  1  0
  9 10  2  0
 10 11  1  0
 11 12  1  0
 11 13  2  0
 13 14  1  0
 13 15  1  0
 15 16  1  0
 15 17  1  0
 17 18  1  0
 18 19  2  0
 19 20  1  0
 20 21  1  0
 20 22  1  0
 20 23  1  0
 23 24  1  0
 23 25  1  0
 23 26  1  0
 18 27  1  0
 27 28  1  0
  5 29  2  0
 29 30  1  0
 29 31  1  0
 31 32  1  0
 32 33  1  0
 32 34  1  0
 32 35  1  0
 31 36  2  0
 36 37  1  0
 36  2  1  0
 27  8  2  0
 17 10  1  0
M  END
>  <UniqueID>  (39) 
6

>  <SMILES>  (39) 
CC/N=c1/cc(Nc2cccc(C(F)(F)F)c2)nc2cc[nH]n12

>  <Energy>  (39) 
90.82043111404643

>  <Genealogy>  (39) 
CCN=c1cc(Nc2cccc(C(F)(F)F)c2)nc2cc[nH]n12 (tautomer)
CC/N=c1/cc(Nc2cccc(C(F)(F)F)c2)nc2cc[nH]n12 (cis-trans isomerization)
CC/N=c1/cc(Nc2cccc(C(F)(F)F)c2)nc2cc[nH]n12 (3D coordinates assigned)
CC/N=c1/cc(Nc2cccc(C(F)(F)F)c2)nc2cc[nH]n12 (optimized conformer: 90.82043111404643 kcal/mol)

>  <smiles>  (39) 
CCN=c1cc(Nc2cccc(C(F)(F)F)c2)[nH]c2ccnn12

>  <score_type>  (39) 
oracle

>  <origin>  (39) 
autodockgpu

>  <m_score__min__energy>  (39) 
-6.21

>  <m_primary>  (39) 
energy

>  <meeko>  (39) 
{"free_energy": -6.08, "intermolecular_energy": -7.58, "internal_energy": -0.53, "cluster_size": 18, "cluster_id": 1, "rank_in_cluster": 14}

>  <energy>  (39) 
-5.74

>  <cluster_rmsd>  (39) 
0.0

>  <rmsd>  (39) 
271.74

>  <cluster>  (39) 
2

$$$$
RBQYZXQNNWWOGL-RGEXLXHINA-N
     RDKit          3D

 37 39  0  0  0  0  0  0  0  0999 V2000
  141.4036   72.3213  227.2776 H   0  0  0  0  0  0  0  0  0  0  0  0
  141.0070   71.5580  226.5920 C   0  0  0  0  0  0  0  0  0  0  0  0
  140.7310   71.8910  225.2640 C   0  0  0  0  0  0  0  0  0  0  0  0
  140.9072   72.9173  224.9094 H   0  0  0  0  0  0  0  0  0  0  0  0
  140.2310   70.9250  224.3810 C   0  0  0  0  0  0  0  0  0  0  0  0
  139.9170   71.3010  223.0280 N   0  0  0  0  0  0  0  0  0  0  0  0
  139.1590   70.7750  222.5370 H   0  0  0  0  0  0  0  0  0  0  0  0
  140.5840   72.3400  222.2960 C   0  0  0  0  0  0  0  0  0  0  0  0
  140.0800   73.6040  222.3390 N   0  0  0  0  0  0  0  0  0  0  0  0
  140.7150   74.5970  221.6740 C   0  0  0  0  0  0  0  0  0  0  0  0
  140.3380   75.9180  221.6140 C   0  0  0  0  0  0  0  0  0  0  0  0
  139.4661   76.4010  222.0794 H   0  0  0  0  0  0  0  0  0  0  0  0
  141.3200   76.4930  220.8270 C   0  0  0  0  0  0  0  0  0  0  0  0
  141.3643   77.5555  220.5459 H   0  0  0  0  0  0  0  0  0  0  0  0
  142.2160   75.5530  220.4560 N   0  0  0  0  0  0  0  0  0  0  0  0
  143.0370   75.7590  219.8610 H   0  0  0  0  0  0  0  0  0  0  0  0
  141.8440   74.3870  220.9730 N   0  0  0  0  0  0  0  0  0  0  0  0
  142.4200   73.1370  220.9040 C   0  0  0  0  0  0  0  0  0  0  0  0
  143.5200   72.8410  220.2600 N   0  0  0  0  0  0  0  0  0  0  0  0
  144.7770   73.5580  220.0730 C   0  0  0  0  0  0  0  0  0  0  0  0
  144.5692   74.6357  220.0004 H   0  0  0  0  0  0  0  0  0  0  0  0
  145.2541   73.1949  219.1507 H   0  0  0  0  0  0  0  0  0  0  0  0
  145.7270   73.3100  221.2430 C   0  0  0  0  0  0  0  0  0  0  0  0
  145.1864   73.4511  222.1905 H   0  0  0  0  0  0  0  0  0  0  0  0
  146.1125   72.2811  221.1905 H   0  0  0  0  0  0  0  0  0  0  0  0
  146.5663   74.0192  221.1905 H   0  0  0  0  0  0  0  0  0  0  0  0
  141.7810   72.0910  221.5920 C   0  0  0  0  0  0  0  0  0  0  0  0
  142.2136   71.0797  221.5815 H   0  0  0  0  0  0  0  0  0  0  0  0
  139.9790   69.6240  224.8540 C   0  0  0  0  0  0  0  0  0  0  0  0
  139.5409   68.8742  224.1788 H   0  0  0  0  0  0  0  0  0  0  0  0
  140.2820   69.2730  226.1820 C   0  0  0  0  0  0  0  0  0  0  0  0
  139.9770   67.8870  226.6910 C   0  0  0  0  0  0  0  0  0  0  0  0
  139.7840   67.9370  228.0600 F   0  0  0  0  0  0  0  0  0  0  0  0
  141.0200   67.0210  226.4140 F   0  0  0  0  0  0  0  0  0  0  0  0
  138.8320   67.3900  226.0920 F   0  0  0  0  0  0  0  0  0  0  0  0
  140.7810   70.2590  227.0520 C   0  0  0  0  0  0  0  0  0  0  0  0
  140.9945   70.0055  228.1009 H   0  0  0  0  0  0  0  0  0  0  0  0
  1  2  1  0
  2  3  2  0
  3  4  1  0
  3  5  1  0
  5  6  1  0
  6  7  1  0
  6  8  1  0
  8  9  1  0
  9 10  2  0
 10 11  1  0
 11 12  1  0
 11 13  2  0
 13 14  1  0
 13 15  1  0
 15 16  1  0
 15 17  1  0
 17 18  1  0
 18 19  2  0
 19 20  1  0
 20 21  1  0
 20 22  1  0
 20 23  1  0
 23 24  1  0
 23 25  1  0
 23 26  1  0
 18 27  1  0
 27 28  1  0
  5 29  2  0
 29 30  1  0
 29 31  1  0
 31 32  1  0
 32 33  1  0
 32 34  1  0
 32 35  1  0
 31 36  2  0
 36 37  1  0
 36  2  1  0
 27  8  2  0
 17 10  1  0
M  END
>  <UniqueID>  (40) 
6

>  <SMILES>  (40) 
CC/N=c1/cc(Nc2cccc(C(F)(F)F)c2)nc2cc[nH]n12

>  <Energy>  (40) 
90.82043111404643

>  <Genealogy>  (40) 
CCN=c1cc(Nc2cccc(C(F)(F)F)c2)nc2cc[nH]n12 (tautomer)
CC/N=c1/cc(Nc2cccc(C(F)(F)F)c2)nc2cc[nH]n12 (cis-trans isomerization)
CC/N=c1/cc(Nc2cccc(C(F)(F)F)c2)nc2cc[nH]n12 (3D coordinates assigned)
CC/N=c1/cc(Nc2cccc(C(F)(F)F)c2)nc2cc[nH]n12 (optimized conformer: 90.82043111404643 kcal/mol)

>  <smiles>  (40) 
CCN=c1cc(Nc2cccc(C(F)(F)F)c2)[nH]c2ccnn12

>  <score_type>  (40) 
oracle

>  <origin>  (40) 
autodockgpu

>  <m_score__min__energy>  (40) 
-6.21

>  <m_primary>  (40) 
energy

>  <meeko>  (40) 
{"free_energy": -6.19, "intermolecular_energy": -7.68, "internal_energy": -0.55, "cluster_size": 18, "cluster_id": 1, "rank_in_cluster": 5}

>  <energy>  (40) 
-5.73

>  <cluster_rmsd>  (40) 
0.08

>  <rmsd>  (40) 
271.75

>  <cluster>  (40) 
2

$$$$
NKOKKRJJRODGEW-PRFFWXOMNA-O
     RDKit          3D

 37 39  0  0  0  0  0  0  0  0999 V2000
  140.1195   66.8416  226.9247 H   0  0  0  0  0  0  0  0  0  0  0  0
  140.0500   67.7860  226.3650 C   0  0  0  0  0  0  0  0  0  0  0  0
  140.7450   68.9110  226.6580 N   0  0  0  0  0  0  0  0  0  0  0  0
  140.3870   69.8200  225.7660 N   0  0  0  0  0  0  0  0  0  0  0  0
  140.8380   71.0970  225.6650 C   0  0  0  0  0  0  0  0  0  0  0  0
  141.7240   71.5390  226.5160 N   0  0  0  0  0  0  0  0  0  0  0  0
  141.4700   72.2700  227.7580 C   0  0  0  0  0  0  0  0  0  0  0  0
  141.3913   73.3442  227.5346 H   0  0  0  0  0  0  0  0  0  0  0  0
  142.3017   72.0835  228.4533 H   0  0  0  0  0  0  0  0  0  0  0  0
  140.1730   71.7980  228.4090 C   0  0  0  0  0  0  0  0  0  0  0  0
  140.2771   71.8359  229.5034 H   0  0  0  0  0  0  0  0  0  0  0  0
  139.3464   72.4529  228.0964 H   0  0  0  0  0  0  0  0  0  0  0  0
  139.9606   70.7649  228.0964 H   0  0  0  0  0  0  0  0  0  0  0  0
  140.3090   71.8880  224.6200 C   0  0  0  0  0  0  0  0  0  0  0  0
  140.6323   72.9317  224.4926 H   0  0  0  0  0  0  0  0  0  0  0  0
  139.3570   71.3190  223.7390 C   0  0  0  0  0  0  0  0  0  0  0  0
  138.8400   72.0810  222.6350 N   0  0  0  0  0  0  0  0  0  0  0  0
  138.0820   72.7240  222.9650 H   0  0  0  0  0  0  0  0  0  0  0  0
  138.4130   71.4350  221.9310 H   0  0  0  0  0  0  0  0  0  0  0  0
  139.9110   72.8310  222.0300 C   0  0  0  0  0  0  0  0  0  0  0  0
  141.0070   72.1670  221.4530 C   0  0  0  0  0  0  0  0  0  0  0  0
  141.0575   71.0685  221.4798 H   0  0  0  0  0  0  0  0  0  0  0  0
  142.0320   72.8950  220.8460 C   0  0  0  0  0  0  0  0  0  0  0  0
  142.8918   72.3688  220.4058 H   0  0  0  0  0  0  0  0  0  0  0  0
  141.9690   74.2890  220.7960 C   0  0  0  0  0  0  0  0  0  0  0  0
  142.7901   74.8566  220.3338 H   0  0  0  0  0  0  0  0  0  0  0  0
  140.8640   74.9720  221.3320 C   0  0  0  0  0  0  0  0  0  0  0  0
  140.8140   76.4790  221.3140 C   0  0  0  0  0  0  0  0  0  0  0  0
  139.5980   76.9190  220.8180 F   0  0  0  0  0  0  0  0  0  0  0  0
  140.9740   76.9560  222.6010 F   0  0  0  0  0  0  0  0  0  0  0  0
  141.8190   76.9940  220.5130 F   0  0  0  0  0  0  0  0  0  0  0  0
  139.8480   74.2350  221.9670 C   0  0  0  0  0  0  0  0  0  0  0  0
  138.9950   74.7622  222.4192 H   0  0  0  0  0  0  0  0  0  0  0  0
  138.9680   70.0190  223.9020 N   0  0  0  0  0  0  0  0  0  0  0  0
  139.4920   69.2990  224.9210 C   0  0  0  0  0  0  0  0  0  0  0  0
  139.2350   67.9940  225.2550 C   0  0  0  0  0  0  0  0  0  0  0  0
  138.5517   67.2845  224.7655 H   0  0  0  0  0  0  0  0  0  0  0  0
  1  2  1  0
  2  3  2  0
  3  4  1  0
  4  5  1  0
  5  6  2  0
  6  7  1  0
  7  8  1  0
  7  9  1  0
  7 10  1  0
 10 11  1  0
 10 12  1  0
 10 13  1  0
  5 14  1  0
 14 15  1  0
 14 16  2  0
 16 17  1  0
 17 18  1  0
 17 19  1  0
 17 20  1  0
 20 21  2  0
 21 22  1  0
 21 23  1  0
 23 24  1  0
 23 25  2  0
 25 26  1  0
 25 27  1  0
 27 28  1  0
 28 29  1  0
 28 30  1  0
 28 31  1  0
 27 32  2  0
 32 33  1  0
 16 34  1  0
 34 35  1  0
 35 36  2  0
 36 37  1  0
 36  2  1  0
 35  4  1  0
 32 20  1  0
M  CHG  2  17   1  34  -1
M  END
>  <UniqueID>  (41) 
7

>  <SMILES>  (41) 
CC/N=c1\cc([NH2+]c2cccc(C(F)(F)F)c2)[n-]c2ccnn12

>  <Energy>  (41) 
76.94662757851549

>  <Genealogy>  (41) 
CCN=c1cc([NH2+]c2cccc(C(F)(F)F)c2)[n-]c2ccnn12 (protonated)
CC/N=c1\cc([NH2+]c2cccc(C(F)(F)F)c2)[n-]c2ccnn12 (cis-trans isomerization)
CC/N=c1\cc([NH2+]c2cccc(C(F)(F)F)c2)[n-]c2ccnn12 (3D coordinates assigned)
CC/N=c1\cc([NH2+]c2cccc(C(F)(F)F)c2)[n-]c2ccnn12 (optimized conformer: 76.94662757851549 kcal/mol)

>  <smiles>  (41) 
CCN=c1cc(Nc2cccc(C(F)(F)F)c2)[nH]c2ccnn12

>  <score_type>  (41) 
oracle

>  <origin>  (41) 
autodockgpu

>  <m_score__min__energy>  (41) 
-5.9800000000000004

>  <m_primary>  (41) 
energy

>  <meeko>  (41) 
{"free_energy": -5.46, "intermolecular_energy": -6.95, "internal_energy": -0.85, "cluster_size": 4, "cluster_id": 2, "rank_in_cluster": 1}

>  <energy>  (41) 
-5.98

>  <cluster_rmsd>  (41) 
0.0

>  <rmsd>  (41) 
271.66

>  <cluster>  (41) 
1

$$$$
NKOKKRJJRODGEW-PRFFWXOMNA-O
     RDKit          3D

 37 39  0  0  0  0  0  0  0  0999 V2000
  141.7912   67.0527  227.7464 H   0  0  0  0  0  0  0  0  0  0  0  0
  141.1430   67.6920  227.1290 C   0  0  0  0  0  0  0  0  0  0  0  0
  141.3540   69.0090  226.8950 N   0  0  0  0  0  0  0  0  0  0  0  0
  140.3650   69.4190  226.1180 N   0  0  0  0  0  0  0  0  0  0  0  0
  140.1710   70.6680  225.6210 C   0  0  0  0  0  0  0  0  0  0  0  0
  141.0220   71.6160  225.9060 N   0  0  0  0  0  0  0  0  0  0  0  0
  141.2250   72.2610  227.2040 C   0  0  0  0  0  0  0  0  0  0  0  0
  140.9403   73.3208  227.1284 H   0  0  0  0  0  0  0  0  0  0  0  0
  142.2853   72.1680  227.4817 H   0  0  0  0  0  0  0  0  0  0  0  0
  140.3770   71.5910  228.2810 C   0  0  0  0  0  0  0  0  0  0  0  0
  140.7476   71.8838  229.2744 H   0  0  0  0  0  0  0  0  0  0  0  0
  139.3292   71.9078  228.1725 H   0  0  0  0  0  0  0  0  0  0  0  0
  140.4428   70.4983  228.1725 H   0  0  0  0  0  0  0  0  0  0  0  0
  139.0350   70.8690  224.8060 C   0  0  0  0  0  0  0  0  0  0  0  0
  138.8230   71.8609  224.3803 H   0  0  0  0  0  0  0  0  0  0  0  0
  138.1720   69.7760  224.5440 C   0  0  0  0  0  0  0  0  0  0  0  0
  137.0380   69.9370  223.6760 N   0  0  0  0  0  0  0  0  0  0  0  0
  136.5230   69.0300  223.5820 H   0  0  0  0  0  0  0  0  0  0  0  0
  137.3640   70.2080  222.7180 H   0  0  0  0  0  0  0  0  0  0  0  0
  136.1710   70.9580  224.2080 C   0  0  0  0  0  0  0  0  0  0  0  0
  136.2060   72.2630  223.6890 C   0  0  0  0  0  0  0  0  0  0  0  0
  136.9123   72.5133  222.8837 H   0  0  0  0  0  0  0  0  0  0  0  0
  135.3480   73.2440  224.1910 C   0  0  0  0  0  0  0  0  0  0  0  0
  135.3892   74.2667  223.7879 H   0  0  0  0  0  0  0  0  0  0  0  0
  134.4380   72.9310  225.2030 C   0  0  0  0  0  0  0  0  0  0  0  0
  133.7794   73.7140  225.6069 H   0  0  0  0  0  0  0  0  0  0  0  0
  134.3580   71.6220  225.7090 C   0  0  0  0  0  0  0  0  0  0  0  0
  133.4040   71.2920  226.8290 C   0  0  0  0  0  0  0  0  0  0  0  0
  132.5330   70.2870  226.4450 F   0  0  0  0  0  0  0  0  0  0  0  0
  134.1230   70.8680  227.9300 F   0  0  0  0  0  0  0  0  0  0  0  0
  132.6560   72.4030  227.1800 F   0  0  0  0  0  0  0  0  0  0  0  0
  135.2440   70.6450  225.2200 C   0  0  0  0  0  0  0  0  0  0  0  0
  135.2121   69.6258  225.6327 H   0  0  0  0  0  0  0  0  0  0  0  0
  138.4480   68.5470  225.0720 N   0  0  0  0  0  0  0  0  0  0  0  0
  139.5410   68.3990  225.8560 C   0  0  0  0  0  0  0  0  0  0  0  0
  139.9900   67.2610  226.4780 C   0  0  0  0  0  0  0  0  0  0  0  0
  139.5472   66.2542  226.4653 H   0  0  0  0  0  0  0  0  0  0  0  0
  1  2  1  0
  2  3  2  0
  3  4  1  0
  4  5  1  0
  5  6  2  0
  6  7  1  0
  7  8  1  0
  7  9  1  0
  7 10  1  0
 10 11  1  0
 10 12  1  0
 10 13  1  0
  5 14  1  0
 14 15  1  0
 14 16  2  0
 16 17  1  0
 17 18  1  0
 17 19  1  0
 17 20  1  0
 20 21  2  0
 21 22  1  0
 21 23  1  0
 23 24  1  0
 23 25  2  0
 25 26  1  0
 25 27  1  0
 27 28  1  0
 28 29  1  0
 28 30  1  0
 28 31  1  0
 27 32  2  0
 32 33  1  0
 16 34  1  0
 34 35  1  0
 35 36  2  0
 36 37  1  0
 36  2  1  0
 35  4  1  0
 32 20  1  0
M  CHG  2  17   1  34  -1
M  END
>  <UniqueID>  (42) 
7

>  <SMILES>  (42) 
CC/N=c1\cc([NH2+]c2cccc(C(F)(F)F)c2)[n-]c2ccnn12

>  <Energy>  (42) 
76.94662757851549

>  <Genealogy>  (42) 
CCN=c1cc([NH2+]c2cccc(C(F)(F)F)c2)[n-]c2ccnn12 (protonated)
CC/N=c1\cc([NH2+]c2cccc(C(F)(F)F)c2)[n-]c2ccnn12 (cis-trans isomerization)
CC/N=c1\cc([NH2+]c2cccc(C(F)(F)F)c2)[n-]c2ccnn12 (3D coordinates assigned)
CC/N=c1\cc([NH2+]c2cccc(C(F)(F)F)c2)[n-]c2ccnn12 (optimized conformer: 76.94662757851549 kcal/mol)

>  <smiles>  (42) 
CCN=c1cc(Nc2cccc(C(F)(F)F)c2)[nH]c2ccnn12

>  <score_type>  (42) 
oracle

>  <origin>  (42) 
autodockgpu

>  <m_score__min__energy>  (42) 
-5.9800000000000004

>  <m_primary>  (42) 
energy

>  <meeko>  (42) 
{"free_energy": -5.38, "intermolecular_energy": -6.87, "internal_energy": -0.84, "cluster_size": 1, "cluster_id": 4, "rank_in_cluster": 1}

>  <energy>  (42) 
-5.87

>  <cluster_rmsd>  (42) 
0.48

>  <rmsd>  (42) 
271.69

>  <cluster>  (42) 
1

$$$$
NKOKKRJJRODGEW-PRFFWXOMNA-O
     RDKit          3D

 37 39  0  0  0  0  0  0  0  0999 V2000
  142.1208   77.0398  220.0907 H   0  0  0  0  0  0  0  0  0  0  0  0
  141.7900   76.0830  220.5210 C   0  0  0  0  0  0  0  0  0  0  0  0
  142.4420   74.9030  220.3770 N   0  0  0  0  0  0  0  0  0  0  0  0
  141.7340   73.9970  221.0320 N   0  0  0  0  0  0  0  0  0  0  0  0
  142.0140   72.6760  221.1700 C   0  0  0  0  0  0  0  0  0  0  0  0
  143.0880   72.1810  220.6150 N   0  0  0  0  0  0  0  0  0  0  0  0
  144.2450   72.9220  220.1120 C   0  0  0  0  0  0  0  0  0  0  0  0
  143.9217   73.9252  219.7973 H   0  0  0  0  0  0  0  0  0  0  0  0
  144.6724   72.3726  219.2602 H   0  0  0  0  0  0  0  0  0  0  0  0
  145.3140   73.0570  221.1930 C   0  0  0  0  0  0  0  0  0  0  0  0
  144.8421   72.9974  222.1848 H   0  0  0  0  0  0  0  0  0  0  0  0
  146.0477   72.2444  221.0866 H   0  0  0  0  0  0  0  0  0  0  0  0
  145.8226   74.0265  221.0866 H   0  0  0  0  0  0  0  0  0  0  0  0
  141.1060   71.8980  221.9220 C   0  0  0  0  0  0  0  0  0  0  0  0
  141.2767   70.8202  222.0602 H   0  0  0  0  0  0  0  0  0  0  0  0
  139.9720   72.5250  222.4960 C   0  0  0  0  0  0  0  0  0  0  0  0
  139.0590   71.7720  223.3100 N   0  0  0  0  0  0  0  0  0  0  0  0
  138.5690   71.0490  222.7310 H   0  0  0  0  0  0  0  0  0  0  0  0
  138.3230   72.4100  223.6950 H   0  0  0  0  0  0  0  0  0  0  0  0
  139.7830   71.1500  224.3890 C   0  0  0  0  0  0  0  0  0  0  0  0
  140.6880   71.8960  225.1620 C   0  0  0  0  0  0  0  0  0  0  0  0
  140.8590   72.9579  224.9315 H   0  0  0  0  0  0  0  0  0  0  0  0
  141.3720   71.2960  226.2220 C   0  0  0  0  0  0  0  0  0  0  0  0
  142.0875   71.8838  226.8158 H   0  0  0  0  0  0  0  0  0  0  0  0
  141.1500   69.9520  226.5300 C   0  0  0  0  0  0  0  0  0  0  0  0
  141.7065   69.4814  227.3539 H   0  0  0  0  0  0  0  0  0  0  0  0
  140.2210   69.1970  225.7950 C   0  0  0  0  0  0  0  0  0  0  0  0
  140.0090   67.7360  226.1010 C   0  0  0  0  0  0  0  0  0  0  0  0
  139.4020   67.0980  225.0320 F   0  0  0  0  0  0  0  0  0  0  0  0
  141.2320   67.1400  226.3450 F   0  0  0  0  0  0  0  0  0  0  0  0
  139.2000   67.5790  227.2130 F   0  0  0  0  0  0  0  0  0  0  0  0
  139.5560   69.7990  224.7110 C   0  0  0  0  0  0  0  0  0  0  0  0
  138.8510   69.2072  224.1087 H   0  0  0  0  0  0  0  0  0  0  0  0
  139.7720   73.8660  222.3210 N   0  0  0  0  0  0  0  0  0  0  0  0
  140.6610   74.5720  221.5840 C   0  0  0  0  0  0  0  0  0  0  0  0
  140.6420   75.9120  221.2910 C   0  0  0  0  0  0  0  0  0  0  0  0
  139.9008   76.6674  221.5910 H   0  0  0  0  0  0  0  0  0  0  0  0
  1  2  1  0
  2  3  2  0
  3  4  1  0
  4  5  1  0
  5  6  2  0
  6  7  1  0
  7  8  1  0
  7  9  1  0
  7 10  1  0
 10 11  1  0
 10 12  1  0
 10 13  1  0
  5 14  1  0
 14 15  1  0
 14 16  2  0
 16 17  1  0
 17 18  1  0
 17 19  1  0
 17 20  1  0
 20 21  2  0
 21 22  1  0
 21 23  1  0
 23 24  1  0
 23 25  2  0
 25 26  1  0
 25 27  1  0
 27 28  1  0
 28 29  1  0
 28 30  1  0
 28 31  1  0
 27 32  2  0
 32 33  1  0
 16 34  1  0
 34 35  1  0
 35 36  2  0
 36 37  1  0
 36  2  1  0
 35  4  1  0
 32 20  1  0
M  CHG  2  17   1  34  -1
M  END
>  <UniqueID>  (43) 
7

>  <SMILES>  (43) 
CC/N=c1\cc([NH2+]c2cccc(C(F)(F)F)c2)[n-]c2ccnn12

>  <Energy>  (43) 
76.94662757851549

>  <Genealogy>  (43) 
CCN=c1cc([NH2+]c2cccc(C(F)(F)F)c2)[n-]c2ccnn12 (protonated)
CC/N=c1\cc([NH2+]c2cccc(C(F)(F)F)c2)[n-]c2ccnn12 (cis-trans isomerization)
CC/N=c1\cc([NH2+]c2cccc(C(F)(F)F)c2)[n-]c2ccnn12 (3D coordinates assigned)
CC/N=c1\cc([NH2+]c2cccc(C(F)(F)F)c2)[n-]c2ccnn12 (optimized conformer: 76.94662757851549 kcal/mol)

>  <smiles>  (43) 
CCN=c1cc(Nc2cccc(C(F)(F)F)c2)[nH]c2ccnn12

>  <score_type>  (43) 
oracle

>  <origin>  (43) 
autodockgpu

>  <m_score__min__energy>  (43) 
-5.9800000000000004

>  <m_primary>  (43) 
energy

>  <meeko>  (43) 
{"free_energy": -5.98, "intermolecular_energy": -7.47, "internal_energy": -0.59, "cluster_size": 9, "cluster_id": 1, "rank_in_cluster": 1}

>  <energy>  (43) 
-5.84

>  <cluster_rmsd>  (43) 
0.48

>  <rmsd>  (43) 
271.68

>  <cluster>  (43) 
1

$$$$
NKOKKRJJRODGEW-PRFFWXOMNA-O
     RDKit          3D

 37 39  0  0  0  0  0  0  0  0999 V2000
  142.1617   76.7397  219.9964 H   0  0  0  0  0  0  0  0  0  0  0  0
  141.8270   75.7990  220.4580 C   0  0  0  0  0  0  0  0  0  0  0  0
  142.4750   74.6140  220.3550 N   0  0  0  0  0  0  0  0  0  0  0  0
  141.7640   73.7320  221.0390 N   0  0  0  0  0  0  0  0  0  0  0  0
  142.0400   72.4150  221.2210 C   0  0  0  0  0  0  0  0  0  0  0  0
  143.1130   71.8990  220.6850 N   0  0  0  0  0  0  0  0  0  0  0  0
  143.8370   72.3870  219.5100 C   0  0  0  0  0  0  0  0  0  0  0  0
  143.2390   73.1672  219.0164 H   0  0  0  0  0  0  0  0  0  0  0  0
  144.0064   71.5433  218.8248 H   0  0  0  0  0  0  0  0  0  0  0  0
  145.1890   72.9710  219.9100 C   0  0  0  0  0  0  0  0  0  0  0  0
  145.2643   73.0035  221.0069 H   0  0  0  0  0  0  0  0  0  0  0  0
  145.9948   72.3407  219.5057 H   0  0  0  0  0  0  0  0  0  0  0  0
  145.2825   73.9897  219.5057 H   0  0  0  0  0  0  0  0  0  0  0  0
  141.1280   71.6660  221.9980 C   0  0  0  0  0  0  0  0  0  0  0  0
  141.2955   70.5931  222.1736 H   0  0  0  0  0  0  0  0  0  0  0  0
  139.9950   72.3150  222.5480 C   0  0  0  0  0  0  0  0  0  0  0  0
  139.0780   71.5920  223.3860 N   0  0  0  0  0  0  0  0  0  0  0  0
  138.6400   70.8070  222.8490 H   0  0  0  0  0  0  0  0  0  0  0  0
  138.3040   72.2280  223.6900 H   0  0  0  0  0  0  0  0  0  0  0  0
  139.7810   71.0870  224.5370 C   0  0  0  0  0  0  0  0  0  0  0  0
  140.6940   71.9020  225.2280 C   0  0  0  0  0  0  0  0  0  0  0  0
  140.8880   72.9262  224.8768 H   0  0  0  0  0  0  0  0  0  0  0  0
  141.3560   71.4180  226.3580 C   0  0  0  0  0  0  0  0  0  0  0  0
  142.0769   72.0585  226.8872 H   0  0  0  0  0  0  0  0  0  0  0  0
  141.1060   70.1230  226.8190 C   0  0  0  0  0  0  0  0  0  0  0  0
  141.6467   69.7419  227.6979 H   0  0  0  0  0  0  0  0  0  0  0  0
  140.1680   69.3040  226.1670 C   0  0  0  0  0  0  0  0  0  0  0  0
  139.9260   67.8930  226.6390 C   0  0  0  0  0  0  0  0  0  0  0  0
  140.9390   67.0550  226.2070 F   0  0  0  0  0  0  0  0  0  0  0  0
  139.8850   67.8760  228.0200 F   0  0  0  0  0  0  0  0  0  0  0  0
  138.7260   67.4100  226.1460 F   0  0  0  0  0  0  0  0  0  0  0  0
  139.5250   69.7880  225.0130 C   0  0  0  0  0  0  0  0  0  0  0  0
  138.8135   69.1431  224.4764 H   0  0  0  0  0  0  0  0  0  0  0  0
  139.7990   73.6490  222.3280 N   0  0  0  0  0  0  0  0  0  0  0  0
  140.6910   74.3280  221.5690 C   0  0  0  0  0  0  0  0  0  0  0  0
  140.6770   75.6580  221.2310 C   0  0  0  0  0  0  0  0  0  0  0  0
  139.9378   76.4255  221.5040 H   0  0  0  0  0  0  0  0  0  0  0  0
  1  2  1  0
  2  3  2  0
  3  4  1  0
  4  5  1  0
  5  6  2  0
  6  7  1  0
  7  8  1  0
  7  9  1  0
  7 10  1  0
 10 11  1  0
 10 12  1  0
 10 13  1  0
  5 14  1  0
 14 15  1  0
 14 16  2  0
 16 17  1  0
 17 18  1  0
 17 19  1  0
 17 20  1  0
 20 21  2  0
 21 22  1  0
 21 23  1  0
 23 24  1  0
 23 25  2  0
 25 26  1  0
 25 27  1  0
 27 28  1  0
 28 29  1  0
 28 30  1  0
 28 31  1  0
 27 32  2  0
 32 33  1  0
 16 34  1  0
 34 35  1  0
 35 36  2  0
 36 37  1  0
 36  2  1  0
 35  4  1  0
 32 20  1  0
M  CHG  2  17   1  34  -1
M  END
>  <UniqueID>  (44) 
7

>  <SMILES>  (44) 
CC/N=c1\cc([NH2+]c2cccc(C(F)(F)F)c2)[n-]c2ccnn12

>  <Energy>  (44) 
76.94662757851549

>  <Genealogy>  (44) 
CCN=c1cc([NH2+]c2cccc(C(F)(F)F)c2)[n-]c2ccnn12 (protonated)
CC/N=c1\cc([NH2+]c2cccc(C(F)(F)F)c2)[n-]c2ccnn12 (cis-trans isomerization)
CC/N=c1\cc([NH2+]c2cccc(C(F)(F)F)c2)[n-]c2ccnn12 (3D coordinates assigned)
CC/N=c1\cc([NH2+]c2cccc(C(F)(F)F)c2)[n-]c2ccnn12 (optimized conformer: 76.94662757851549 kcal/mol)

>  <smiles>  (44) 
CCN=c1cc(Nc2cccc(C(F)(F)F)c2)[nH]c2ccnn12

>  <score_type>  (44) 
oracle

>  <origin>  (44) 
autodockgpu

>  <m_score__min__energy>  (44) 
-5.9800000000000004

>  <m_primary>  (44) 
energy

>  <meeko>  (44) 
{"free_energy": -5.82, "intermolecular_energy": -7.31, "internal_energy": -0.62, "cluster_size": 9, "cluster_id": 1, "rank_in_cluster": 4}

>  <energy>  (44) 
-5.82

>  <cluster_rmsd>  (44) 
0.49

>  <rmsd>  (44) 
271.68

>  <cluster>  (44) 
1

$$$$
NKOKKRJJRODGEW-PRFFWXOMNA-O
     RDKit          3D

 37 39  0  0  0  0  0  0  0  0999 V2000
  146.5208   71.4674  220.6572 H   0  0  0  0  0  0  0  0  0  0  0  0
  145.9460   72.2950  220.2160 C   0  0  0  0  0  0  0  0  0  0  0  0
  145.6060   72.3890  218.9080 N   0  0  0  0  0  0  0  0  0  0  0  0
  144.9280   73.5160  218.7730 N   0  0  0  0  0  0  0  0  0  0  0  0
  144.3790   74.0160  217.6360 C   0  0  0  0  0  0  0  0  0  0  0  0
  144.5000   73.3570  216.5150 N   0  0  0  0  0  0  0  0  0  0  0  0
  145.6520   73.3510  215.6130 C   0  0  0  0  0  0  0  0  0  0  0  0
  145.3019   73.4932  214.5800 H   0  0  0  0  0  0  0  0  0  0  0  0
  146.1720   72.3867  215.7118 H   0  0  0  0  0  0  0  0  0  0  0  0
  146.6260   74.4710  215.9700 C   0  0  0  0  0  0  0  0  0  0  0  0
  146.7008   74.5570  217.0641 H   0  0  0  0  0  0  0  0  0  0  0  0
  147.6172   74.2421  215.5516 H   0  0  0  0  0  0  0  0  0  0  0  0
  146.2618   75.4209  215.5516 H   0  0  0  0  0  0  0  0  0  0  0  0
  143.6940   75.2480  217.7370 C   0  0  0  0  0  0  0  0  0  0  0  0
  143.2360   75.7055  216.8477 H   0  0  0  0  0  0  0  0  0  0  0  0
  143.6050   75.8860  218.9990 C   0  0  0  0  0  0  0  0  0  0  0  0
  142.8700   77.1130  219.1430 N   0  0  0  0  0  0  0  0  0  0  0  0
  142.3440   77.3240  218.2620 H   0  0  0  0  0  0  0  0  0  0  0  0
  143.5360   77.9050  219.3040 H   0  0  0  0  0  0  0  0  0  0  0  0
  141.9640   76.9970  220.2580 C   0  0  0  0  0  0  0  0  0  0  0  0
  141.2470   75.8090  220.4710 C   0  0  0  0  0  0  0  0  0  0  0  0
  141.3627   74.9668  219.7730 H   0  0  0  0  0  0  0  0  0  0  0  0
  140.3870   75.6920  221.5660 C   0  0  0  0  0  0  0  0  0  0  0  0
  139.8192   74.7626  221.7203 H   0  0  0  0  0  0  0  0  0  0  0  0
  140.2460   76.7510  222.4650 C   0  0  0  0  0  0  0  0  0  0  0  0
  139.5524   76.6584  223.3137 H   0  0  0  0  0  0  0  0  0  0  0  0
  140.9840   77.9340  222.2930 C   0  0  0  0  0  0  0  0  0  0  0  0
  140.8030   79.0930  223.2400 C   0  0  0  0  0  0  0  0  0  0  0  0
  141.6840   78.9940  224.3040 F   0  0  0  0  0  0  0  0  0  0  0  0
  141.0440   80.2750  222.5660 F   0  0  0  0  0  0  0  0  0  0  0  0
  139.5150   79.1170  223.7470 F   0  0  0  0  0  0  0  0  0  0  0  0
  141.8270   78.0570  221.1740 C   0  0  0  0  0  0  0  0  0  0  0  0
  142.3850   78.9912  221.0129 H   0  0  0  0  0  0  0  0  0  0  0  0
  144.1740   75.3070  220.0980 N   0  0  0  0  0  0  0  0  0  0  0  0
  144.8310   74.1320  219.9550 C   0  0  0  0  0  0  0  0  0  0  0  0
  145.4650   73.3940  220.9230 C   0  0  0  0  0  0  0  0  0  0  0  0
  145.5680   73.6163  221.9954 H   0  0  0  0  0  0  0  0  0  0  0  0
  1  2  1  0
  2  3  2  0
  3  4  1  0
  4  5  1  0
  5  6  2  0
  6  7  1  0
  7  8  1  0
  7  9  1  0
  7 10  1  0
 10 11  1  0
 10 12  1  0
 10 13  1  0
  5 14  1  0
 14 15  1  0
 14 16  2  0
 16 17  1  0
 17 18  1  0
 17 19  1  0
 17 20  1  0
 20 21  2  0
 21 22  1  0
 21 23  1  0
 23 24  1  0
 23 25  2  0
 25 26  1  0
 25 27  1  0
 27 28  1  0
 28 29  1  0
 28 30  1  0
 28 31  1  0
 27 32  2  0
 32 33  1  0
 16 34  1  0
 34 35  1  0
 35 36  2  0
 36 37  1  0
 36  2  1  0
 35  4  1  0
 32 20  1  0
M  CHG  2  17   1  34  -1
M  END
>  <UniqueID>  (45) 
7

>  <SMILES>  (45) 
CC/N=c1\cc([NH2+]c2cccc(C(F)(F)F)c2)[n-]c2ccnn12

>  <Energy>  (45) 
76.94662757851549

>  <Genealogy>  (45) 
CCN=c1cc([NH2+]c2cccc(C(F)(F)F)c2)[n-]c2ccnn12 (protonated)
CC/N=c1\cc([NH2+]c2cccc(C(F)(F)F)c2)[n-]c2ccnn12 (cis-trans isomerization)
CC/N=c1\cc([NH2+]c2cccc(C(F)(F)F)c2)[n-]c2ccnn12 (3D coordinates assigned)
CC/N=c1\cc([NH2+]c2cccc(C(F)(F)F)c2)[n-]c2ccnn12 (optimized conformer: 76.94662757851549 kcal/mol)

>  <smiles>  (45) 
CCN=c1cc(Nc2cccc(C(F)(F)F)c2)[nH]c2ccnn12

>  <score_type>  (45) 
oracle

>  <origin>  (45) 
autodockgpu

>  <m_score__min__energy>  (45) 
-5.9800000000000004

>  <m_primary>  (45) 
energy

>  <meeko>  (45) 
{"free_energy": -5.28, "intermolecular_energy": -6.77, "internal_energy": -0.88, "cluster_size": 3, "cluster_id": 5, "rank_in_cluster": 2}

>  <energy>  (45) 
-5.79

>  <cluster_rmsd>  (45) 
0.48

>  <rmsd>  (45) 
271.64

>  <cluster>  (45) 
1

$$$$
NKOKKRJJRODGEW-PRFFWXOMNA-O
     RDKit          3D

 37 39  0  0  0  0  0  0  0  0999 V2000
  142.0611   76.9697  220.1945 H   0  0  0  0  0  0  0  0  0  0  0  0
  141.7260   75.9920  220.5710 C   0  0  0  0  0  0  0  0  0  0  0  0
  142.3090   74.8060  220.2710 N   0  0  0  0  0  0  0  0  0  0  0  0
  141.6210   73.8730  220.9080 N   0  0  0  0  0  0  0  0  0  0  0  0
  141.8510   72.5350  220.9080 C   0  0  0  0  0  0  0  0  0  0  0  0
  142.8500   72.0520  220.2190 N   0  0  0  0  0  0  0  0  0  0  0  0
  144.2410   71.9180  220.6530 C   0  0  0  0  0  0  0  0  0  0  0  0
  144.7930   71.3181  219.9145 H   0  0  0  0  0  0  0  0  0  0  0  0
  144.2576   71.4250  221.6362 H   0  0  0  0  0  0  0  0  0  0  0  0
  144.9030   73.2870  220.7810 C   0  0  0  0  0  0  0  0  0  0  0  0
  145.0242   73.5376  221.8452 H   0  0  0  0  0  0  0  0  0  0  0  0
  145.8896   73.2641  220.2950 H   0  0  0  0  0  0  0  0  0  0  0  0
  144.2724   74.0461  220.2950 H   0  0  0  0  0  0  0  0  0  0  0  0
  140.9770   71.7290  221.6700 C   0  0  0  0  0  0  0  0  0  0  0  0
  141.1102   70.6375  221.7012 H   0  0  0  0  0  0  0  0  0  0  0  0
  139.9260   72.3450  222.3940 C   0  0  0  0  0  0  0  0  0  0  0  0
  139.0530   71.5570  223.2200 N   0  0  0  0  0  0  0  0  0  0  0  0
  138.6560   70.7600  222.6690 H   0  0  0  0  0  0  0  0  0  0  0  0
  138.2460   72.1450  223.5380 H   0  0  0  0  0  0  0  0  0  0  0  0
  139.7870   71.0700  224.3600 C   0  0  0  0  0  0  0  0  0  0  0  0
  140.7240   71.8920  225.0080 C   0  0  0  0  0  0  0  0  0  0  0  0
  140.9128   72.9086  224.6326 H   0  0  0  0  0  0  0  0  0  0  0  0
  141.4170   71.4240  226.1270 C   0  0  0  0  0  0  0  0  0  0  0  0
  142.1580   72.0688  226.6222 H   0  0  0  0  0  0  0  0  0  0  0  0
  141.1720   70.1400  226.6190 C   0  0  0  0  0  0  0  0  0  0  0  0
  141.7352   69.7719  227.4893 H   0  0  0  0  0  0  0  0  0  0  0  0
  140.2110   69.3150  226.0100 C   0  0  0  0  0  0  0  0  0  0  0  0
  139.9750   67.9150  226.5150 C   0  0  0  0  0  0  0  0  0  0  0  0
  140.9810   67.0660  226.0860 F   0  0  0  0  0  0  0  0  0  0  0  0
  139.9550   67.9260  227.8970 F   0  0  0  0  0  0  0  0  0  0  0  0
  138.7670   67.4230  226.0510 F   0  0  0  0  0  0  0  0  0  0  0  0
  139.5370   69.7810  224.8670 C   0  0  0  0  0  0  0  0  0  0  0  0
  138.8063   69.1309  224.3636 H   0  0  0  0  0  0  0  0  0  0  0  0
  139.7720   73.7020  222.3510 N   0  0  0  0  0  0  0  0  0  0  0  0
  140.6250   74.4370  221.6000 C   0  0  0  0  0  0  0  0  0  0  0  0
  140.6420   75.7970  221.4240 C   0  0  0  0  0  0  0  0  0  0  0  0
  139.9645   76.5505  221.8522 H   0  0  0  0  0  0  0  0  0  0  0  0
  1  2  1  0
  2  3  2  0
  3  4  1  0
  4  5  1  0
  5  6  2  0
  6  7  1  0
  7  8  1  0
  7  9  1  0
  7 10  1  0
 10 11  1  0
 10 12  1  0
 10 13  1  0
  5 14  1  0
 14 15  1  0
 14 16  2  0
 16 17  1  0
 17 18  1  0
 17 19  1  0
 17 20  1  0
 20 21  2  0
 21 22  1  0
 21 23  1  0
 23 24  1  0
 23 25  2  0
 25 26  1  0
 25 27  1  0
 27 28  1  0
 28 29  1  0
 28 30  1  0
 28 31  1  0
 27 32  2  0
 32 33  1  0
 16 34  1  0
 34 35  1  0
 35 36  2  0
 36 37  1  0
 36  2  1  0
 35  4  1  0
 32 20  1  0
M  CHG  2  17   1  34  -1
M  END
>  <UniqueID>  (46) 
7

>  <SMILES>  (46) 
CC/N=c1\cc([NH2+]c2cccc(C(F)(F)F)c2)[n-]c2ccnn12

>  <Energy>  (46) 
76.94662757851549

>  <Genealogy>  (46) 
CCN=c1cc([NH2+]c2cccc(C(F)(F)F)c2)[n-]c2ccnn12 (protonated)
CC/N=c1\cc([NH2+]c2cccc(C(F)(F)F)c2)[n-]c2ccnn12 (cis-trans isomerization)
CC/N=c1\cc([NH2+]c2cccc(C(F)(F)F)c2)[n-]c2ccnn12 (3D coordinates assigned)
CC/N=c1\cc([NH2+]c2cccc(C(F)(F)F)c2)[n-]c2ccnn12 (optimized conformer: 76.94662757851549 kcal/mol)

>  <smiles>  (46) 
CCN=c1cc(Nc2cccc(C(F)(F)F)c2)[nH]c2ccnn12

>  <score_type>  (46) 
oracle

>  <origin>  (46) 
autodockgpu

>  <m_score__min__energy>  (46) 
-5.9800000000000004

>  <m_primary>  (46) 
energy

>  <meeko>  (46) 
{"free_energy": -5.79, "intermolecular_energy": -7.28, "internal_energy": -0.85, "cluster_size": 9, "cluster_id": 1, "rank_in_cluster": 5}

>  <energy>  (46) 
-5.78

>  <cluster_rmsd>  (46) 
0.53

>  <rmsd>  (46) 
271.62

>  <cluster>  (46) 
1

$$$$
NKOKKRJJRODGEW-PRFFWXOMNA-O
     RDKit          3D

 37 39  0  0  0  0  0  0  0  0999 V2000
  140.2795   71.7007  222.0051 H   0  0  0  0  0  0  0  0  0  0  0  0
  140.4070   72.7850  221.8710 C   0  0  0  0  0  0  0  0  0  0  0  0
  139.5560   73.7280  222.3430 N   0  0  0  0  0  0  0  0  0  0  0  0
  140.0490   74.9000  221.9770 N   0  0  0  0  0  0  0  0  0  0  0  0
  139.5330   76.1290  222.2410 C   0  0  0  0  0  0  0  0  0  0  0  0
  138.4280   76.2320  222.9270 N   0  0  0  0  0  0  0  0  0  0  0  0
  137.2000   76.9210  222.5280 C   0  0  0  0  0  0  0  0  0  0  0  0
  136.3709   76.5776  223.1641 H   0  0  0  0  0  0  0  0  0  0  0  0
  136.9936   76.6906  221.4724 H   0  0  0  0  0  0  0  0  0  0  0  0
  137.3530   78.4320  222.6780 C   0  0  0  0  0  0  0  0  0  0  0  0
  137.3795   78.6936  223.7461 H   0  0  0  0  0  0  0  0  0  0  0  0
  138.2885   78.7553  222.1980 H   0  0  0  0  0  0  0  0  0  0  0  0
  136.5013   78.9362  222.1980 H   0  0  0  0  0  0  0  0  0  0  0  0
  140.2420   77.2460  221.7440 C   0  0  0  0  0  0  0  0  0  0  0  0
  139.8687   78.2657  221.9197 H   0  0  0  0  0  0  0  0  0  0  0  0
  141.4390   77.0360  221.0170 C   0  0  0  0  0  0  0  0  0  0  0  0
  142.2090   78.1540  220.5450 N   0  0  0  0  0  0  0  0  0  0  0  0
  141.9360   78.3910  219.5620 H   0  0  0  0  0  0  0  0  0  0  0  0
  143.2250   77.8990  220.5310 H   0  0  0  0  0  0  0  0  0  0  0  0
  141.9960   79.2810  221.4160 C   0  0  0  0  0  0  0  0  0  0  0  0
  142.5260   79.2850  222.7180 C   0  0  0  0  0  0  0  0  0  0  0  0
  143.0921   78.4147  223.0815 H   0  0  0  0  0  0  0  0  0  0  0  0
  142.3370   80.3890  223.5520 C   0  0  0  0  0  0  0  0  0  0  0  0
  142.7435   80.3801  224.5741 H   0  0  0  0  0  0  0  0  0  0  0  0
  141.6330   81.5050  223.0920 C   0  0  0  0  0  0  0  0  0  0  0  0
  141.4729   82.3633  223.7611 H   0  0  0  0  0  0  0  0  0  0  0  0
  141.1280   81.5390  221.7810 C   0  0  0  0  0  0  0  0  0  0  0  0
  140.3340   82.7250  221.2970 C   0  0  0  0  0  0  0  0  0  0  0  0
  141.0320   83.9000  221.5180 F   0  0  0  0  0  0  0  0  0  0  0  0
  140.0950   82.5910  219.9430 F   0  0  0  0  0  0  0  0  0  0  0  0
  139.1230   82.8100  221.9630 F   0  0  0  0  0  0  0  0  0  0  0  0
  141.2970   80.4120  220.9560 C   0  0  0  0  0  0  0  0  0  0  0  0
  140.8776   80.4152  219.9391 H   0  0  0  0  0  0  0  0  0  0  0  0
  141.8970   75.7650  220.8090 N   0  0  0  0  0  0  0  0  0  0  0  0
  141.1830   74.7220  221.2920 C   0  0  0  0  0  0  0  0  0  0  0  0
  141.4660   73.3830  221.1920 C   0  0  0  0  0  0  0  0  0  0  0  0
  142.3209   72.8997  220.6964 H   0  0  0  0  0  0  0  0  0  0  0  0
  1  2  1  0
  2  3  2  0
  3  4  1  0
  4  5  1  0
  5  6  2  0
  6  7  1  0
  7  8  1  0
  7  9  1  0
  7 10  1  0
 10 11  1  0
 10 12  1  0
 10 13  1  0
  5 14  1  0
 14 15  1  0
 14 16  2  0
 16 17  1  0
 17 18  1  0
 17 19  1  0
 17 20  1  0
 20 21  2  0
 21 22  1  0
 21 23  1  0
 23 24  1  0
 23 25  2  0
 25 26  1  0
 25 27  1  0
 27 28  1  0
 28 29  1  0
 28 30  1  0
 28 31  1  0
 27 32  2  0
 32 33  1  0
 16 34  1  0
 34 35  1  0
 35 36  2  0
 36 37  1  0
 36  2  1  0
 35  4  1  0
 32 20  1  0
M  CHG  2  17   1  34  -1
M  END
>  <UniqueID>  (47) 
7

>  <SMILES>  (47) 
CC/N=c1\cc([NH2+]c2cccc(C(F)(F)F)c2)[n-]c2ccnn12

>  <Energy>  (47) 
76.94662757851549

>  <Genealogy>  (47) 
CCN=c1cc([NH2+]c2cccc(C(F)(F)F)c2)[n-]c2ccnn12 (protonated)
CC/N=c1\cc([NH2+]c2cccc(C(F)(F)F)c2)[n-]c2ccnn12 (cis-trans isomerization)
CC/N=c1\cc([NH2+]c2cccc(C(F)(F)F)c2)[n-]c2ccnn12 (3D coordinates assigned)
CC/N=c1\cc([NH2+]c2cccc(C(F)(F)F)c2)[n-]c2ccnn12 (optimized conformer: 76.94662757851549 kcal/mol)

>  <smiles>  (47) 
CCN=c1cc(Nc2cccc(C(F)(F)F)c2)[nH]c2ccnn12

>  <score_type>  (47) 
oracle

>  <origin>  (47) 
autodockgpu

>  <m_score__min__energy>  (47) 
-5.9800000000000004

>  <m_primary>  (47) 
energy

>  <meeko>  (47) 
{"free_energy": -5.39, "intermolecular_energy": -6.89, "internal_energy": -0.81, "cluster_size": 2, "cluster_id": 3, "rank_in_cluster": 2}

>  <energy>  (47) 
-5.74

>  <cluster_rmsd>  (47) 
0.56

>  <rmsd>  (47) 
271.59

>  <cluster>  (47) 
1

$$$$
NKOKKRJJRODGEW-PRFFWXOMNA-O
     RDKit          3D

 37 39  0  0  0  0  0  0  0  0999 V2000
  141.8917   77.1259  220.3534 H   0  0  0  0  0  0  0  0  0  0  0  0
  141.6010   76.1250  220.7050 C   0  0  0  0  0  0  0  0  0  0  0  0
  142.2710   74.9820  220.4230 N   0  0  0  0  0  0  0  0  0  0  0  0
  141.6140   74.0010  221.0200 N   0  0  0  0  0  0  0  0  0  0  0  0
  141.9290   72.6800  221.0200 C   0  0  0  0  0  0  0  0  0  0  0  0
  142.9870   72.2670  220.3760 N   0  0  0  0  0  0  0  0  0  0  0  0
  144.3730   72.2950  220.8430 C   0  0  0  0  0  0  0  0  0  0  0  0
  144.9320   71.4786  220.3624 H   0  0  0  0  0  0  0  0  0  0  0  0
  144.3792   72.1719  221.9361 H   0  0  0  0  0  0  0  0  0  0  0  0
  145.0350   73.6260  220.4970 C   0  0  0  0  0  0  0  0  0  0  0  0
  145.2987   74.1563  221.4240 H   0  0  0  0  0  0  0  0  0  0  0  0
  145.9459   73.4405  219.9088 H   0  0  0  0  0  0  0  0  0  0  0  0
  144.3375   74.2405  219.9088 H   0  0  0  0  0  0  0  0  0  0  0  0
  141.0720   71.8120  221.7350 C   0  0  0  0  0  0  0  0  0  0  0  0
  141.2729   70.7309  221.7653 H   0  0  0  0  0  0  0  0  0  0  0  0
  139.9510   72.3530  222.4120 C   0  0  0  0  0  0  0  0  0  0  0  0
  139.0920   71.5040  223.1900 N   0  0  0  0  0  0  0  0  0  0  0  0
  138.7610   70.6970  222.6100 H   0  0  0  0  0  0  0  0  0  0  0  0
  138.2430   72.0400  223.4880 H   0  0  0  0  0  0  0  0  0  0  0  0
  139.8080   71.0340  224.3480 C   0  0  0  0  0  0  0  0  0  0  0  0
  140.7120   71.8770  225.0170 C   0  0  0  0  0  0  0  0  0  0  0  0
  140.8885   72.8966  224.6439 H   0  0  0  0  0  0  0  0  0  0  0  0
  141.3870   71.4260  226.1530 C   0  0  0  0  0  0  0  0  0  0  0  0
  142.1019   72.0875  226.6642 H   0  0  0  0  0  0  0  0  0  0  0  0
  141.1580   70.1380  226.6430 C   0  0  0  0  0  0  0  0  0  0  0  0
  141.7077   69.7840  227.5276 H   0  0  0  0  0  0  0  0  0  0  0  0
  140.2300   69.2920  226.0130 C   0  0  0  0  0  0  0  0  0  0  0  0
  140.0100   67.8880  226.5160 C   0  0  0  0  0  0  0  0  0  0  0  0
  139.9440   67.8710  227.8990 F   0  0  0  0  0  0  0  0  0  0  0  0
  138.8240   67.4000  226.0020 F   0  0  0  0  0  0  0  0  0  0  0  0
  141.0470   67.0580  226.1230 F   0  0  0  0  0  0  0  0  0  0  0  0
  139.5730   69.7410  224.8530 C   0  0  0  0  0  0  0  0  0  0  0  0
  138.8679   69.0745  224.3348 H   0  0  0  0  0  0  0  0  0  0  0  0
  139.7150   73.6980  222.3720 N   0  0  0  0  0  0  0  0  0  0  0  0
  140.5540   74.4930  221.6680 C   0  0  0  0  0  0  0  0  0  0  0  0
  140.4920   75.8540  221.5030 C   0  0  0  0  0  0  0  0  0  0  0  0
  139.7482   76.5587  221.9032 H   0  0  0  0  0  0  0  0  0  0  0  0
  1  2  1  0
  2  3  2  0
  3  4  1  0
  4  5  1  0
  5  6  2  0
  6  7  1  0
  7  8  1  0
  7  9  1  0
  7 10  1  0
 10 11  1  0
 10 12  1  0
 10 13  1  0
  5 14  1  0
 14 15  1  0
 14 16  2  0
 16 17  1  0
 17 18  1  0
 17 19  1  0
 17 20  1  0
 20 21  2  0
 21 22  1  0
 21 23  1  0
 23 24  1  0
 23 25  2  0
 25 26  1  0
 25 27  1  0
 27 28  1  0
 28 29  1  0
 28 30  1  0
 28 31  1  0
 27 32  2  0
 32 33  1  0
 16 34  1  0
 34 35  1  0
 35 36  2  0
 36 37  1  0
 36  2  1  0
 35  4  1  0
 32 20  1  0
M  CHG  2  17   1  34  -1
M  END
>  <UniqueID>  (48) 
7

>  <SMILES>  (48) 
CC/N=c1\cc([NH2+]c2cccc(C(F)(F)F)c2)[n-]c2ccnn12

>  <Energy>  (48) 
76.94662757851549

>  <Genealogy>  (48) 
CCN=c1cc([NH2+]c2cccc(C(F)(F)F)c2)[n-]c2ccnn12 (protonated)
CC/N=c1\cc([NH2+]c2cccc(C(F)(F)F)c2)[n-]c2ccnn12 (cis-trans isomerization)
CC/N=c1\cc([NH2+]c2cccc(C(F)(F)F)c2)[n-]c2ccnn12 (3D coordinates assigned)
CC/N=c1\cc([NH2+]c2cccc(C(F)(F)F)c2)[n-]c2ccnn12 (optimized conformer: 76.94662757851549 kcal/mol)

>  <smiles>  (48) 
CCN=c1cc(Nc2cccc(C(F)(F)F)c2)[nH]c2ccnn12

>  <score_type>  (48) 
oracle

>  <origin>  (48) 
autodockgpu

>  <m_score__min__energy>  (48) 
-5.9800000000000004

>  <m_primary>  (48) 
energy

>  <meeko>  (48) 
{"free_energy": -5.84, "intermolecular_energy": -7.33, "internal_energy": -0.84, "cluster_size": 9, "cluster_id": 1, "rank_in_cluster": 3}

>  <energy>  (48) 
-5.62

>  <cluster_rmsd>  (48) 
2.0

>  <rmsd>  (48) 
272.01

>  <cluster>  (48) 
1

$$$$
NKOKKRJJRODGEW-PRFFWXOMNA-O
     RDKit          3D

 37 39  0  0  0  0  0  0  0  0999 V2000
  142.3607   76.5112  220.2391 H   0  0  0  0  0  0  0  0  0  0  0  0
  141.9400   75.5940  220.6770 C   0  0  0  0  0  0  0  0  0  0  0  0
  142.5480   74.3840  220.6680 N   0  0  0  0  0  0  0  0  0  0  0  0
  141.7320   73.5450  221.2840 N   0  0  0  0  0  0  0  0  0  0  0  0
  141.9330   72.2230  221.5200 C   0  0  0  0  0  0  0  0  0  0  0  0
  143.0380   71.6560  221.1170 N   0  0  0  0  0  0  0  0  0  0  0  0
  143.7760   71.9330  219.8840 C   0  0  0  0  0  0  0  0  0  0  0  0
  143.1583   72.5640  219.2280 H   0  0  0  0  0  0  0  0  0  0  0  0
  144.0075   70.9781  219.3895 H   0  0  0  0  0  0  0  0  0  0  0  0
  145.0850   72.6570  220.1870 C   0  0  0  0  0  0  0  0  0  0  0  0
  145.2193   72.7313  221.2762 H   0  0  0  0  0  0  0  0  0  0  0  0
  145.9243   72.0948  219.7516 H   0  0  0  0  0  0  0  0  0  0  0  0
  145.0549   73.6667  219.7516 H   0  0  0  0  0  0  0  0  0  0  0  0
  140.9110   71.5260  222.2030 C   0  0  0  0  0  0  0  0  0  0  0  0
  141.0149   70.4516  222.4150 H   0  0  0  0  0  0  0  0  0  0  0  0
  139.7510   72.2290  222.6110 C   0  0  0  0  0  0  0  0  0  0  0  0
  138.7190   71.5590  223.3530 N   0  0  0  0  0  0  0  0  0  0  0  0
  138.1860   70.9100  222.7260 H   0  0  0  0  0  0  0  0  0  0  0  0
  138.0360   72.2640  223.7200 H   0  0  0  0  0  0  0  0  0  0  0  0
  139.3120   70.8320  224.4460 C   0  0  0  0  0  0  0  0  0  0  0  0
  139.3700   69.4290  224.4200 C   0  0  0  0  0  0  0  0  0  0  0  0
  138.9430   68.8794  223.5682 H   0  0  0  0  0  0  0  0  0  0  0  0
  139.9670   68.7280  225.4700 C   0  0  0  0  0  0  0  0  0  0  0  0
  139.9972   67.6286  225.4483 H   0  0  0  0  0  0  0  0  0  0  0  0
  140.5260   69.4190  226.5480 C   0  0  0  0  0  0  0  0  0  0  0  0
  140.9787   68.8594  227.3798 H   0  0  0  0  0  0  0  0  0  0  0  0
  140.5140   70.8240  226.5770 C   0  0  0  0  0  0  0  0  0  0  0  0
  141.0800   71.5700  227.7580 C   0  0  0  0  0  0  0  0  0  0  0  0
  141.9610   72.5510  227.3370 F   0  0  0  0  0  0  0  0  0  0  0  0
  140.0480   72.1630  228.4600 F   0  0  0  0  0  0  0  0  0  0  0  0
  141.7620   70.7090  228.6010 F   0  0  0  0  0  0  0  0  0  0  0  0
  139.8860   71.5230  225.5300 C   0  0  0  0  0  0  0  0  0  0  0  0
  139.8430   72.6218  225.5586 H   0  0  0  0  0  0  0  0  0  0  0  0
  139.6340   73.5640  222.3460 N   0  0  0  0  0  0  0  0  0  0  0  0
  140.6310   74.1920  221.6800 C   0  0  0  0  0  0  0  0  0  0  0  0
  140.7070   75.5130  221.3190 C   0  0  0  0  0  0  0  0  0  0  0  0
  139.9729   76.3133  221.4940 H   0  0  0  0  0  0  0  0  0  0  0  0
  1  2  1  0
  2  3  2  0
  3  4  1  0
  4  5  1  0
  5  6  2  0
  6  7  1  0
  7  8  1  0
  7  9  1  0
  7 10  1  0
 10 11  1  0
 10 12  1  0
 10 13  1  0
  5 14  1  0
 14 15  1  0
 14 16  2  0
 16 17  1  0
 17 18  1  0
 17 19  1  0
 17 20  1  0
 20 21  2  0
 21 22  1  0
 21 23  1  0
 23 24  1  0
 23 25  2  0
 25 26  1  0
 25 27  1  0
 27 28  1  0
 28 29  1  0
 28 30  1  0
 28 31  1  0
 27 32  2  0
 32 33  1  0
 16 34  1  0
 34 35  1  0
 35 36  2  0
 36 37  1  0
 36  2  1  0
 35  4  1  0
 32 20  1  0
M  CHG  2  17   1  34  -1
M  END
>  <UniqueID>  (49) 
7

>  <SMILES>  (49) 
CC/N=c1\cc([NH2+]c2cccc(C(F)(F)F)c2)[n-]c2ccnn12

>  <Energy>  (49) 
76.94662757851549

>  <Genealogy>  (49) 
CCN=c1cc([NH2+]c2cccc(C(F)(F)F)c2)[n-]c2ccnn12 (protonated)
CC/N=c1\cc([NH2+]c2cccc(C(F)(F)F)c2)[n-]c2ccnn12 (cis-trans isomerization)
CC/N=c1\cc([NH2+]c2cccc(C(F)(F)F)c2)[n-]c2ccnn12 (3D coordinates assigned)
CC/N=c1\cc([NH2+]c2cccc(C(F)(F)F)c2)[n-]c2ccnn12 (optimized conformer: 76.94662757851549 kcal/mol)

>  <smiles>  (49) 
CCN=c1cc(Nc2cccc(C(F)(F)F)c2)[nH]c2ccnn12

>  <score_type>  (49) 
oracle

>  <origin>  (49) 
autodockgpu

>  <m_score__min__energy>  (49) 
-5.9800000000000004

>  <m_primary>  (49) 
energy

>  <meeko>  (49) 
{"free_energy": -5.62, "intermolecular_energy": -7.11, "internal_energy": -0.74, "cluster_size": 9, "cluster_id": 1, "rank_in_cluster": 8}

>  <energy>  (49) 
-5.49

>  <cluster_rmsd>  (49) 
1.97

>  <rmsd>  (49) 
271.86

>  <cluster>  (49) 
1

$$$$
NKOKKRJJRODGEW-PRFFWXOMNA-O
     RDKit          3D

 37 39  0  0  0  0  0  0  0  0999 V2000
  141.9911   77.0475  220.2486 H   0  0  0  0  0  0  0  0  0  0  0  0
  141.6860   76.0600  220.6250 C   0  0  0  0  0  0  0  0  0  0  0  0
  142.3390   74.9000  220.3710 N   0  0  0  0  0  0  0  0  0  0  0  0
  141.6670   73.9440  220.9910 N   0  0  0  0  0  0  0  0  0  0  0  0
  141.9610   72.6180  221.0230 C   0  0  0  0  0  0  0  0  0  0  0  0
  143.0130   72.1740  220.3890 N   0  0  0  0  0  0  0  0  0  0  0  0
  144.4080   72.2630  220.8200 C   0  0  0  0  0  0  0  0  0  0  0  0
  144.9525   71.3756  220.4649 H   0  0  0  0  0  0  0  0  0  0  0  0
  144.4350   72.3147  221.9185 H   0  0  0  0  0  0  0  0  0  0  0  0
  145.0710   73.5160  220.2550 C   0  0  0  0  0  0  0  0  0  0  0  0
  145.4099   74.1564  221.0826 H   0  0  0  0  0  0  0  0  0  0  0  0
  145.9344   73.2273  219.6376 H   0  0  0  0  0  0  0  0  0  0  0  0
  144.3466   74.0674  219.6376 H   0  0  0  0  0  0  0  0  0  0  0  0
  141.0920   71.7810  221.7580 C   0  0  0  0  0  0  0  0  0  0  0  0
  141.2758   70.6979  221.8135 H   0  0  0  0  0  0  0  0  0  0  0  0
  139.9800   72.3560  222.4230 C   0  0  0  0  0  0  0  0  0  0  0  0
  139.1090   71.5390  223.2220 N   0  0  0  0  0  0  0  0  0  0  0  0
  138.7450   70.7370  222.6540 H   0  0  0  0  0  0  0  0  0  0  0  0
  138.2800   72.1020  223.5260 H   0  0  0  0  0  0  0  0  0  0  0  0
  139.8280   71.0590  224.3730 C   0  0  0  0  0  0  0  0  0  0  0  0
  140.7460   71.8900  225.0360 C   0  0  0  0  0  0  0  0  0  0  0  0
  140.9312   72.9081  224.6628 H   0  0  0  0  0  0  0  0  0  0  0  0
  141.4250   71.4300  226.1670 C   0  0  0  0  0  0  0  0  0  0  0  0
  142.1514   72.0823  226.6738 H   0  0  0  0  0  0  0  0  0  0  0  0
  141.1840   70.1440  226.6560 C   0  0  0  0  0  0  0  0  0  0  0  0
  141.7367   69.7817  227.5354 H   0  0  0  0  0  0  0  0  0  0  0  0
  140.2410   69.3100  226.0330 C   0  0  0  0  0  0  0  0  0  0  0  0
  140.0090   67.9080  226.5360 C   0  0  0  0  0  0  0  0  0  0  0  0
  141.0160   67.0620  226.1020 F   0  0  0  0  0  0  0  0  0  0  0  0
  139.9920   67.9160  227.9170 F   0  0  0  0  0  0  0  0  0  0  0  0
  138.8010   67.4140  226.0730 F   0  0  0  0  0  0  0  0  0  0  0  0
  139.5810   69.7680  224.8780 C   0  0  0  0  0  0  0  0  0  0  0  0
  138.8644   69.1106  224.3640 H   0  0  0  0  0  0  0  0  0  0  0  0
  139.7640   73.7030  222.3510 N   0  0  0  0  0  0  0  0  0  0  0  0
  140.6150   74.4680  221.6280 C   0  0  0  0  0  0  0  0  0  0  0  0
  140.5740   75.8250  221.4300 C   0  0  0  0  0  0  0  0  0  0  0  0
  139.8415   76.5505  221.8135 H   0  0  0  0  0  0  0  0  0  0  0  0
  1  2  1  0
  2  3  2  0
  3  4  1  0
  4  5  1  0
  5  6  2  0
  6  7  1  0
  7  8  1  0
  7  9  1  0
  7 10  1  0
 10 11  1  0
 10 12  1  0
 10 13  1  0
  5 14  1  0
 14 15  1  0
 14 16  2  0
 16 17  1  0
 17 18  1  0
 17 19  1  0
 17 20  1  0
 20 21  2  0
 21 22  1  0
 21 23  1  0
 23 24  1  0
 23 25  2  0
 25 26  1  0
 25 27  1  0
 27 28  1  0
 28 29  1  0
 28 30  1  0
 28 31  1  0
 27 32  2  0
 32 33  1  0
 16 34  1  0
 34 35  1  0
 35 36  2  0
 36 37  1  0
 36  2  1  0
 35  4  1  0
 32 20  1  0
M  CHG  2  17   1  34  -1
M  END
>  <UniqueID>  (50) 
7

>  <SMILES>  (50) 
CC/N=c1\cc([NH2+]c2cccc(C(F)(F)F)c2)[n-]c2ccnn12

>  <Energy>  (50) 
76.94662757851549

>  <Genealogy>  (50) 
CCN=c1cc([NH2+]c2cccc(C(F)(F)F)c2)[n-]c2ccnn12 (protonated)
CC/N=c1\cc([NH2+]c2cccc(C(F)(F)F)c2)[n-]c2ccnn12 (cis-trans isomerization)
CC/N=c1\cc([NH2+]c2cccc(C(F)(F)F)c2)[n-]c2ccnn12 (3D coordinates assigned)
CC/N=c1\cc([NH2+]c2cccc(C(F)(F)F)c2)[n-]c2ccnn12 (optimized conformer: 76.94662757851549 kcal/mol)

>  <smiles>  (50) 
CCN=c1cc(Nc2cccc(C(F)(F)F)c2)[nH]c2ccnn12

>  <score_type>  (50) 
oracle

>  <origin>  (50) 
autodockgpu

>  <m_score__min__energy>  (50) 
-5.9800000000000004

>  <m_primary>  (50) 
energy

>  <meeko>  (50) 
{"free_energy": -5.87, "intermolecular_energy": -7.36, "internal_energy": -0.83, "cluster_size": 9, "cluster_id": 1, "rank_in_cluster": 2}

>  <energy>  (50) 
-5.46

>  <cluster_rmsd>  (50) 
0.0

>  <rmsd>  (50) 
271.81

>  <cluster>  (50) 
2

$$$$
NKOKKRJJRODGEW-PRFFWXOMNA-O
     RDKit          3D

 37 39  0  0  0  0  0  0  0  0999 V2000
  141.4937   71.7257  228.6959 H   0  0  0  0  0  0  0  0  0  0  0  0
  141.0970   71.4790  227.7000 C   0  0  0  0  0  0  0  0  0  0  0  0
  140.3570   70.3820  227.4130 N   0  0  0  0  0  0  0  0  0  0  0  0
  140.0770   70.4410  226.1210 N   0  0  0  0  0  0  0  0  0  0  0  0
  139.3470   69.5560  225.3950 C   0  0  0  0  0  0  0  0  0  0  0  0
  138.8360   68.5060  225.9800 N   0  0  0  0  0  0  0  0  0  0  0  0
  139.5630   67.3850  226.5760 C   0  0  0  0  0  0  0  0  0  0  0  0
  139.3041   66.4609  226.0384 H   0  0  0  0  0  0  0  0  0  0  0  0
  139.2789   67.3046  227.6356 H   0  0  0  0  0  0  0  0  0  0  0  0
  141.0700   67.6080  226.4900 C   0  0  0  0  0  0  0  0  0  0  0  0
  141.4900   67.6701  227.5048 H   0  0  0  0  0  0  0  0  0  0  0  0
  141.5347   66.7688  225.9516 H   0  0  0  0  0  0  0  0  0  0  0  0
  141.2718   68.5458  225.9516 H   0  0  0  0  0  0  0  0  0  0  0  0
  139.1790   69.8310  224.0190 C   0  0  0  0  0  0  0  0  0  0  0  0
  138.6027   69.1463  223.3794 H   0  0  0  0  0  0  0  0  0  0  0  0
  139.7640   71.0020  223.4750 C   0  0  0  0  0  0  0  0  0  0  0  0
  139.5670   71.3360  222.0910 N   0  0  0  0  0  0  0  0  0  0  0  0
  138.5510   71.5150  221.9030 H   0  0  0  0  0  0  0  0  0  0  0  0
  139.8550   70.5290  221.4900 H   0  0  0  0  0  0  0  0  0  0  0  0
  140.3530   72.4980  221.7640 C   0  0  0  0  0  0  0  0  0  0  0  0
  141.6260   72.3570  221.1860 C   0  0  0  0  0  0  0  0  0  0  0  0
  142.0336   71.3527  220.9982 H   0  0  0  0  0  0  0  0  0  0  0  0
  142.3760   73.4850  220.8490 C   0  0  0  0  0  0  0  0  0  0  0  0
  143.3764   73.3664  220.4073 H   0  0  0  0  0  0  0  0  0  0  0  0
  141.8600   74.7640  221.0710 C   0  0  0  0  0  0  0  0  0  0  0  0
  142.4648   75.6480  220.8205 H   0  0  0  0  0  0  0  0  0  0  0  0
  140.5740   74.9290  221.6120 C   0  0  0  0  0  0  0  0  0  0  0  0
  140.0320   76.3090  221.8890 C   0  0  0  0  0  0  0  0  0  0  0  0
  139.7810   76.9800  220.7040 F   0  0  0  0  0  0  0  0  0  0  0  0
  138.8540   76.2000  222.6030 F   0  0  0  0  0  0  0  0  0  0  0  0
  140.9380   77.0540  222.6240 F   0  0  0  0  0  0  0  0  0  0  0  0
  139.8340   73.7890  221.9750 C   0  0  0  0  0  0  0  0  0  0  0  0
  138.8390   73.9080  222.4287 H   0  0  0  0  0  0  0  0  0  0  0  0
  140.4720   71.8480  224.2790 N   0  0  0  0  0  0  0  0  0  0  0  0
  140.6170   71.5420  225.5900 C   0  0  0  0  0  0  0  0  0  0  0  0
  141.2850   72.2510  226.5560 C   0  0  0  0  0  0  0  0  0  0  0  0
  141.8349   73.1980  226.4524 H   0  0  0  0  0  0  0  0  0  0  0  0
  1  2  1  0
  2  3  2  0
  3  4  1  0
  4  5  1  0
  5  6  2  0
  6  7  1  0
  7  8  1  0
  7  9  1  0
  7 10  1  0
 10 11  1  0
 10 12  1  0
 10 13  1  0
  5 14  1  0
 14 15  1  0
 14 16  2  0
 16 17  1  0
 17 18  1  0
 17 19  1  0
 17 20  1  0
 20 21  2  0
 21 22  1  0
 21 23  1  0
 23 24  1  0
 23 25  2  0
 25 26  1  0
 25 27  1  0
 27 28  1  0
 28 29  1  0
 28 30  1  0
 28 31  1  0
 27 32  2  0
 32 33  1  0
 16 34  1  0
 34 35  1  0
 35 36  2  0
 36 37  1  0
 36  2  1  0
 35  4  1  0
 32 20  1  0
M  CHG  2  17   1  34  -1
M  END
>  <UniqueID>  (51) 
7

>  <SMILES>  (51) 
CC/N=c1\cc([NH2+]c2cccc(C(F)(F)F)c2)[n-]c2ccnn12

>  <Energy>  (51) 
76.94662757851549

>  <Genealogy>  (51) 
CCN=c1cc([NH2+]c2cccc(C(F)(F)F)c2)[n-]c2ccnn12 (protonated)
CC/N=c1\cc([NH2+]c2cccc(C(F)(F)F)c2)[n-]c2ccnn12 (cis-trans isomerization)
CC/N=c1\cc([NH2+]c2cccc(C(F)(F)F)c2)[n-]c2ccnn12 (3D coordinates assigned)
CC/N=c1\cc([NH2+]c2cccc(C(F)(F)F)c2)[n-]c2ccnn12 (optimized conformer: 76.94662757851549 kcal/mol)

>  <smiles>  (51) 
CCN=c1cc(Nc2cccc(C(F)(F)F)c2)[nH]c2ccnn12

>  <score_type>  (51) 
oracle

>  <origin>  (51) 
autodockgpu

>  <m_score__min__energy>  (51) 
-5.9800000000000004

>  <m_primary>  (51) 
energy

>  <meeko>  (51) 
{"free_energy": -5.39, "intermolecular_energy": -6.89, "internal_energy": -0.86, "cluster_size": 4, "cluster_id": 2, "rank_in_cluster": 3}

>  <energy>  (51) 
-5.45

>  <cluster_rmsd>  (51) 
0.06

>  <rmsd>  (51) 
271.8

>  <cluster>  (51) 
2

$$$$
NKOKKRJJRODGEW-PRFFWXOMNA-O
     RDKit          3D

 37 39  0  0  0  0  0  0  0  0999 V2000
  142.0909   76.8037  220.0866 H   0  0  0  0  0  0  0  0  0  0  0  0
  141.7320   75.8470  220.4940 C   0  0  0  0  0  0  0  0  0  0  0  0
  142.2540   74.6330  220.1930 N   0  0  0  0  0  0  0  0  0  0  0  0
  141.5560   73.7400  220.8750 N   0  0  0  0  0  0  0  0  0  0  0  0
  141.7330   72.3940  220.8920 C   0  0  0  0  0  0  0  0  0  0  0  0
  142.6820   71.8580  220.1730 N   0  0  0  0  0  0  0  0  0  0  0  0
  144.0830   71.6740  220.5550 C   0  0  0  0  0  0  0  0  0  0  0  0
  144.6055   71.1265  219.7567 H   0  0  0  0  0  0  0  0  0  0  0  0
  144.1200   71.1062  221.4964 H   0  0  0  0  0  0  0  0  0  0  0  0
  144.7680   73.0210  220.7690 C   0  0  0  0  0  0  0  0  0  0  0  0
  144.8667   73.2150  221.8473 H   0  0  0  0  0  0  0  0  0  0  0  0
  145.7661   73.0023  220.3070 H   0  0  0  0  0  0  0  0  0  0  0  0
  144.1650   73.8165  220.3070 H   0  0  0  0  0  0  0  0  0  0  0  0
  140.8590   71.6380  221.7040 C   0  0  0  0  0  0  0  0  0  0  0  0
  140.9500   70.5428  221.7514 H   0  0  0  0  0  0  0  0  0  0  0  0
  139.8630   72.3090  222.4570 C   0  0  0  0  0  0  0  0  0  0  0  0
  138.9940   71.5720  223.3330 N   0  0  0  0  0  0  0  0  0  0  0  0
  138.5410   70.7840  222.8120 H   0  0  0  0  0  0  0  0  0  0  0  0
  138.2270   72.1980  223.6750 H   0  0  0  0  0  0  0  0  0  0  0  0
  139.7550   71.0700  224.4480 C   0  0  0  0  0  0  0  0  0  0  0  0
  140.7000   71.8880  225.0900 C   0  0  0  0  0  0  0  0  0  0  0  0
  140.8741   72.9119  224.7275 H   0  0  0  0  0  0  0  0  0  0  0  0
  141.4190   71.4070  226.1860 C   0  0  0  0  0  0  0  0  0  0  0  0
  142.1658   72.0489  226.6763 H   0  0  0  0  0  0  0  0  0  0  0  0
  141.1930   70.1130  226.6620 C   0  0  0  0  0  0  0  0  0  0  0  0
  141.7770   69.7345  227.5139 H   0  0  0  0  0  0  0  0  0  0  0  0
  140.2250   69.2920  226.0600 C   0  0  0  0  0  0  0  0  0  0  0  0
  140.0080   67.8810  226.5470 C   0  0  0  0  0  0  0  0  0  0  0  0
  141.0260   67.0530  226.1070 F   0  0  0  0  0  0  0  0  0  0  0  0
  139.9870   67.8750  227.9280 F   0  0  0  0  0  0  0  0  0  0  0  0
  138.8080   67.3790  226.0750 F   0  0  0  0  0  0  0  0  0  0  0  0
  139.5240   69.7720  224.9390 C   0  0  0  0  0  0  0  0  0  0  0  0
  138.7869   69.1252  224.4406 H   0  0  0  0  0  0  0  0  0  0  0  0
  139.7630   73.6700  222.3940 N   0  0  0  0  0  0  0  0  0  0  0  0
  140.6130   74.3560  221.5950 C   0  0  0  0  0  0  0  0  0  0  0  0
  140.6760   75.7110  221.3930 C   0  0  0  0  0  0  0  0  0  0  0  0
  140.0465   76.4984  221.8332 H   0  0  0  0  0  0  0  0  0  0  0  0
  1  2  1  0
  2  3  2  0
  3  4  1  0
  4  5  1  0
  5  6  2  0
  6  7  1  0
  7  8  1  0
  7  9  1  0
  7 10  1  0
 10 11  1  0
 10 12  1  0
 10 13  1  0
  5 14  1  0
 14 15  1  0
 14 16  2  0
 16 17  1  0
 17 18  1  0
 17 19  1  0
 17 20  1  0
 20 21  2  0
 21 22  1  0
 21 23  1  0
 23 24  1  0
 23 25  2  0
 25 26  1  0
 25 27  1  0
 27 28  1  0
 28 29  1  0
 28 30  1  0
 28 31  1  0
 27 32  2  0
 32 33  1  0
 16 34  1  0
 34 35  1  0
 35 36  2  0
 36 37  1  0
 36  2  1  0
 35  4  1  0
 32 20  1  0
M  CHG  2  17   1  34  -1
M  END
>  <UniqueID>  (52) 
7

>  <SMILES>  (52) 
CC/N=c1\cc([NH2+]c2cccc(C(F)(F)F)c2)[n-]c2ccnn12

>  <Energy>  (52) 
76.94662757851549

>  <Genealogy>  (52) 
CCN=c1cc([NH2+]c2cccc(C(F)(F)F)c2)[n-]c2ccnn12 (protonated)
CC/N=c1\cc([NH2+]c2cccc(C(F)(F)F)c2)[n-]c2ccnn12 (cis-trans isomerization)
CC/N=c1\cc([NH2+]c2cccc(C(F)(F)F)c2)[n-]c2ccnn12 (3D coordinates assigned)
CC/N=c1\cc([NH2+]c2cccc(C(F)(F)F)c2)[n-]c2ccnn12 (optimized conformer: 76.94662757851549 kcal/mol)

>  <smiles>  (52) 
CCN=c1cc(Nc2cccc(C(F)(F)F)c2)[nH]c2ccnn12

>  <score_type>  (52) 
oracle

>  <origin>  (52) 
autodockgpu

>  <m_score__min__energy>  (52) 
-5.9800000000000004

>  <m_primary>  (52) 
energy

>  <meeko>  (52) 
{"free_energy": -5.78, "intermolecular_energy": -7.27, "internal_energy": -0.86, "cluster_size": 9, "cluster_id": 1, "rank_in_cluster": 6}

>  <energy>  (52) 
-5.39

>  <cluster_rmsd>  (52) 
1.78

>  <rmsd>  (52) 
271.75

>  <cluster>  (52) 
2

$$$$
NKOKKRJJRODGEW-PRFFWXOMNA-O
     RDKit          3D

 37 39  0  0  0  0  0  0  0  0999 V2000
  140.3302   71.6828  222.0362 H   0  0  0  0  0  0  0  0  0  0  0  0
  140.4450   72.7670  221.8900 C   0  0  0  0  0  0  0  0  0  0  0  0
  139.5800   73.7050  222.3470 N   0  0  0  0  0  0  0  0  0  0  0  0
  140.0600   74.8780  221.9700 N   0  0  0  0  0  0  0  0  0  0  0  0
  139.5290   76.1030  222.2170 C   0  0  0  0  0  0  0  0  0  0  0  0
  138.4180   76.2010  222.8960 N   0  0  0  0  0  0  0  0  0  0  0  0
  137.2120   76.9390  222.5180 C   0  0  0  0  0  0  0  0  0  0  0  0
  136.3704   76.5963  223.1379 H   0  0  0  0  0  0  0  0  0  0  0  0
  137.0043   76.7535  221.4538 H   0  0  0  0  0  0  0  0  0  0  0  0
  137.4070   78.4380  222.7240 C   0  0  0  0  0  0  0  0  0  0  0  0
  137.4358   78.6594  223.8011 H   0  0  0  0  0  0  0  0  0  0  0  0
  138.3535   78.7519  222.2597 H   0  0  0  0  0  0  0  0  0  0  0  0
  136.5723   78.9836  222.2597 H   0  0  0  0  0  0  0  0  0  0  0  0
  140.2260   77.2240  221.7110 C   0  0  0  0  0  0  0  0  0  0  0  0
  139.8390   78.2409  221.8725 H   0  0  0  0  0  0  0  0  0  0  0  0
  141.4300   77.0190  220.9930 C   0  0  0  0  0  0  0  0  0  0  0  0
  142.1890   78.1410  220.5130 N   0  0  0  0  0  0  0  0  0  0  0  0
  141.8930   78.3870  219.5380 H   0  0  0  0  0  0  0  0  0  0  0  0
  143.2040   77.8870  220.4730 H   0  0  0  0  0  0  0  0  0  0  0  0
  141.9960   79.2620  221.3970 C   0  0  0  0  0  0  0  0  0  0  0  0
  142.5400   79.2480  222.6930 C   0  0  0  0  0  0  0  0  0  0  0  0
  143.1015   78.3687  223.0415 H   0  0  0  0  0  0  0  0  0  0  0  0
  142.3710   80.3450  223.5400 C   0  0  0  0  0  0  0  0  0  0  0  0
  142.7892   80.3219  224.5571 H   0  0  0  0  0  0  0  0  0  0  0  0
  141.6730   81.4710  223.1000 C   0  0  0  0  0  0  0  0  0  0  0  0
  141.5282   82.3237  223.7796 H   0  0  0  0  0  0  0  0  0  0  0  0
  141.1540   81.5230  221.7950 C   0  0  0  0  0  0  0  0  0  0  0  0
  140.3660   82.7220  221.3320 C   0  0  0  0  0  0  0  0  0  0  0  0
  139.1540   82.7940  221.9960 F   0  0  0  0  0  0  0  0  0  0  0  0
  141.0900   83.8710  221.5910 F   0  0  0  0  0  0  0  0  0  0  0  0
  140.1110   82.6470  219.9730 F   0  0  0  0  0  0  0  0  0  0  0  0
  141.3030   80.4040  220.9560 C   0  0  0  0  0  0  0  0  0  0  0  0
  140.8728   80.4220  219.9437 H   0  0  0  0  0  0  0  0  0  0  0  0
  141.9040   75.7520  220.8020 N   0  0  0  0  0  0  0  0  0  0  0  0
  141.2000   74.7060  221.2930 C   0  0  0  0  0  0  0  0  0  0  0  0
  141.5000   73.3700  221.2090 C   0  0  0  0  0  0  0  0  0  0  0  0
  142.3629   72.8917  220.7226 H   0  0  0  0  0  0  0  0  0  0  0  0
  1  2  1  0
  2  3  2  0
  3  4  1  0
  4  5  1  0
  5  6  2  0
  6  7  1  0
  7  8  1  0
  7  9  1  0
  7 10  1  0
 10 11  1  0
 10 12  1  0
 10 13  1  0
  5 14  1  0
 14 15  1  0
 14 16  2  0
 16 17  1  0
 17 18  1  0
 17 19  1  0
 17 20  1  0
 20 21  2  0
 21 22  1  0
 21 23  1  0
 23 24  1  0
 23 25  2  0
 25 26  1  0
 25 27  1  0
 27 28  1  0
 28 29  1  0
 28 30  1  0
 28 31  1  0
 27 32  2  0
 32 33  1  0
 16 34  1  0
 34 35  1  0
 35 36  2  0
 36 37  1  0
 36  2  1  0
 35  4  1  0
 32 20  1  0
M  CHG  2  17   1  34  -1
M  END
>  <UniqueID>  (53) 
7

>  <SMILES>  (53) 
CC/N=c1\cc([NH2+]c2cccc(C(F)(F)F)c2)[n-]c2ccnn12

>  <Energy>  (53) 
76.94662757851549

>  <Genealogy>  (53) 
CCN=c1cc([NH2+]c2cccc(C(F)(F)F)c2)[n-]c2ccnn12 (protonated)
CC/N=c1\cc([NH2+]c2cccc(C(F)(F)F)c2)[n-]c2ccnn12 (cis-trans isomerization)
CC/N=c1\cc([NH2+]c2cccc(C(F)(F)F)c2)[n-]c2ccnn12 (3D coordinates assigned)
CC/N=c1\cc([NH2+]c2cccc(C(F)(F)F)c2)[n-]c2ccnn12 (optimized conformer: 76.94662757851549 kcal/mol)

>  <smiles>  (53) 
CCN=c1cc(Nc2cccc(C(F)(F)F)c2)[nH]c2ccnn12

>  <score_type>  (53) 
oracle

>  <origin>  (53) 
autodockgpu

>  <m_score__min__energy>  (53) 
-5.9800000000000004

>  <m_primary>  (53) 
energy

>  <meeko>  (53) 
{"free_energy": -5.4, "intermolecular_energy": -6.89, "internal_energy": -0.81, "cluster_size": 2, "cluster_id": 3, "rank_in_cluster": 1}

>  <energy>  (53) 
-5.39

>  <cluster_rmsd>  (53) 
1.74

>  <rmsd>  (53) 
271.77

>  <cluster>  (53) 
2

$$$$
NKOKKRJJRODGEW-PRFFWXOMNA-O
     RDKit          3D

 37 39  0  0  0  0  0  0  0  0999 V2000
  142.2159   76.7678  220.1445 H   0  0  0  0  0  0  0  0  0  0  0  0
  141.8320   75.8110  220.5280 C   0  0  0  0  0  0  0  0  0  0  0  0
  142.3070   74.5910  220.1780 N   0  0  0  0  0  0  0  0  0  0  0  0
  141.5910   73.7000  220.8450 N   0  0  0  0  0  0  0  0  0  0  0  0
  141.7230   72.3490  220.8140 C   0  0  0  0  0  0  0  0  0  0  0  0
  142.6400   71.8060  220.0610 N   0  0  0  0  0  0  0  0  0  0  0  0
  144.0400   71.5600  220.4100 C   0  0  0  0  0  0  0  0  0  0  0  0
  144.5517   71.1046  219.5493 H   0  0  0  0  0  0  0  0  0  0  0  0
  144.0739   70.8838  221.2769 H   0  0  0  0  0  0  0  0  0  0  0  0
  144.7430   72.8630  220.7780 C   0  0  0  0  0  0  0  0  0  0  0  0
  144.7932   72.9560  221.8729 H   0  0  0  0  0  0  0  0  0  0  0  0
  145.7618   72.8598  220.3632 H   0  0  0  0  0  0  0  0  0  0  0  0
  144.1809   73.7127  220.3632 H   0  0  0  0  0  0  0  0  0  0  0  0
  140.8380   71.5960  221.6190 C   0  0  0  0  0  0  0  0  0  0  0  0
  140.8923   70.4974  221.6296 H   0  0  0  0  0  0  0  0  0  0  0  0
  139.8800   72.2750  222.4120 C   0  0  0  0  0  0  0  0  0  0  0  0
  139.0030   71.5400  223.2810 N   0  0  0  0  0  0  0  0  0  0  0  0
  138.5650   70.7420  222.7610 H   0  0  0  0  0  0  0  0  0  0  0  0
  138.2250   72.1620  223.6040 H   0  0  0  0  0  0  0  0  0  0  0  0
  139.7490   71.0560  224.4140 C   0  0  0  0  0  0  0  0  0  0  0  0
  140.6840   71.8840  225.0560 C   0  0  0  0  0  0  0  0  0  0  0  0
  140.8620   72.9026  224.6807 H   0  0  0  0  0  0  0  0  0  0  0  0
  141.3890   71.4200  226.1690 C   0  0  0  0  0  0  0  0  0  0  0  0
  142.1286   72.0699  226.6595 H   0  0  0  0  0  0  0  0  0  0  0  0
  141.1580   70.1340  226.6610 C   0  0  0  0  0  0  0  0  0  0  0  0
  141.7310   69.7694  227.5263 H   0  0  0  0  0  0  0  0  0  0  0  0
  140.1990   69.3020  226.0590 C   0  0  0  0  0  0  0  0  0  0  0  0
  139.9770   67.9000  226.5640 C   0  0  0  0  0  0  0  0  0  0  0  0
  139.9430   67.8810  227.9480 F   0  0  0  0  0  0  0  0  0  0  0  0
  138.7730   67.4260  226.0780 F   0  0  0  0  0  0  0  0  0  0  0  0
  140.9950   67.0600  226.1450 F   0  0  0  0  0  0  0  0  0  0  0  0
  139.5120   69.7640  224.9220 C   0  0  0  0  0  0  0  0  0  0  0  0
  138.7817   69.1091  224.4242 H   0  0  0  0  0  0  0  0  0  0  0  0
  139.8250   73.6400  222.3950 N   0  0  0  0  0  0  0  0  0  0  0  0
  140.6830   74.3230  221.6030 C   0  0  0  0  0  0  0  0  0  0  0  0
  140.7890   75.6820  221.4420 C   0  0  0  0  0  0  0  0  0  0  0  0
  140.1950   76.4757  221.9186 H   0  0  0  0  0  0  0  0  0  0  0  0
  1  2  1  0
  2  3  2  0
  3  4  1  0
  4  5  1  0
  5  6  2  0
  6  7  1  0
  7  8  1  0
  7  9  1  0
  7 10  1  0
 10 11  1  0
 10 12  1  0
 10 13  1  0
  5 14  1  0
 14 15  1  0
 14 16  2  0
 16 17  1  0
 17 18  1  0
 17 19  1  0
 17 20  1  0
 20 21  2  0
 21 22  1  0
 21 23  1  0
 23 24  1  0
 23 25  2  0
 25 26  1  0
 25 27  1  0
 27 28  1  0
 28 29  1  0
 28 30  1  0
 28 31  1  0
 27 32  2  0
 32 33  1  0
 16 34  1  0
 34 35  1  0
 35 36  2  0
 36 37  1  0
 36  2  1  0
 35  4  1  0
 32 20  1  0
M  CHG  2  17   1  34  -1
M  END
>  <UniqueID>  (54) 
7

>  <SMILES>  (54) 
CC/N=c1\cc([NH2+]c2cccc(C(F)(F)F)c2)[n-]c2ccnn12

>  <Energy>  (54) 
76.94662757851549

>  <Genealogy>  (54) 
CCN=c1cc([NH2+]c2cccc(C(F)(F)F)c2)[n-]c2ccnn12 (protonated)
CC/N=c1\cc([NH2+]c2cccc(C(F)(F)F)c2)[n-]c2ccnn12 (cis-trans isomerization)
CC/N=c1\cc([NH2+]c2cccc(C(F)(F)F)c2)[n-]c2ccnn12 (3D coordinates assigned)
CC/N=c1\cc([NH2+]c2cccc(C(F)(F)F)c2)[n-]c2ccnn12 (optimized conformer: 76.94662757851549 kcal/mol)

>  <smiles>  (54) 
CCN=c1cc(Nc2cccc(C(F)(F)F)c2)[nH]c2ccnn12

>  <score_type>  (54) 
oracle

>  <origin>  (54) 
autodockgpu

>  <m_score__min__energy>  (54) 
-5.9800000000000004

>  <m_primary>  (54) 
energy

>  <meeko>  (54) 
{"free_energy": -5.74, "intermolecular_energy": -7.23, "internal_energy": -0.86, "cluster_size": 9, "cluster_id": 1, "rank_in_cluster": 7}

>  <energy>  (54) 
-5.4

>  <cluster_rmsd>  (54) 
0.0

>  <rmsd>  (54) 
272.06

>  <cluster>  (54) 
3

$$$$
NKOKKRJJRODGEW-PRFFWXOMNA-O
     RDKit          3D

 37 39  0  0  0  0  0  0  0  0999 V2000
  142.3732   76.6111  220.3182 H   0  0  0  0  0  0  0  0  0  0  0  0
  141.9170   75.6850  220.6980 C   0  0  0  0  0  0  0  0  0  0  0  0
  142.4310   74.4430  220.5270 N   0  0  0  0  0  0  0  0  0  0  0  0
  141.6000   73.6040  221.1220 N   0  0  0  0  0  0  0  0  0  0  0  0
  141.7180   72.2540  221.2150 C   0  0  0  0  0  0  0  0  0  0  0  0
  142.7460   71.6570  220.6760 N   0  0  0  0  0  0  0  0  0  0  0  0
  144.1510   72.0580  220.7690 C   0  0  0  0  0  0  0  0  0  0  0  0
  144.7148   71.2764  221.2993 H   0  0  0  0  0  0  0  0  0  0  0  0
  144.2105   73.0106  221.3158 H   0  0  0  0  0  0  0  0  0  0  0  0
  144.7520   72.2530  219.3790 C   0  0  0  0  0  0  0  0  0  0  0  0
  145.7944   72.5912  219.4744 H   0  0  0  0  0  0  0  0  0  0  0  0
  144.7245   71.2998  218.8306 H   0  0  0  0  0  0  0  0  0  0  0  0
  144.1701   73.0084  218.8306 H   0  0  0  0  0  0  0  0  0  0  0  0
  140.6980   71.5620  221.9060 C   0  0  0  0  0  0  0  0  0  0  0  0
  140.7368   70.4674  222.0073 H   0  0  0  0  0  0  0  0  0  0  0  0
  139.6240   72.2980  222.4670 C   0  0  0  0  0  0  0  0  0  0  0  0
  138.6000   71.6280  223.2210 N   0  0  0  0  0  0  0  0  0  0  0  0
  138.0490   70.9930  222.5960 H   0  0  0  0  0  0  0  0  0  0  0  0
  137.9320   72.3340  223.6100 H   0  0  0  0  0  0  0  0  0  0  0  0
  139.2080   70.8810  224.2920 C   0  0  0  0  0  0  0  0  0  0  0  0
  139.2750   69.4790  224.2340 C   0  0  0  0  0  0  0  0  0  0  0  0
  138.8447   68.9457  223.3735 H   0  0  0  0  0  0  0  0  0  0  0  0
  139.8850   68.7590  225.2630 C   0  0  0  0  0  0  0  0  0  0  0  0
  139.9231   67.6607  225.2159 H   0  0  0  0  0  0  0  0  0  0  0  0
  140.4470   69.4290  226.3520 C   0  0  0  0  0  0  0  0  0  0  0  0
  140.9091   68.8541  227.1680 H   0  0  0  0  0  0  0  0  0  0  0  0
  140.4260   70.8330  226.4120 C   0  0  0  0  0  0  0  0  0  0  0  0
  140.9970   71.5560  227.6060 C   0  0  0  0  0  0  0  0  0  0  0  0
  140.0000   72.2310  228.2890 F   0  0  0  0  0  0  0  0  0  0  0  0
  141.5840   70.6390  228.4560 F   0  0  0  0  0  0  0  0  0  0  0  0
  141.9510   72.4790  227.2100 F   0  0  0  0  0  0  0  0  0  0  0  0
  139.7860   71.5510  225.3870 C   0  0  0  0  0  0  0  0  0  0  0  0
  139.7362   72.6485  225.4410 H   0  0  0  0  0  0  0  0  0  0  0  0
  139.5890   73.6580  222.3400 N   0  0  0  0  0  0  0  0  0  0  0  0
  140.5810   74.2800  221.6620 C   0  0  0  0  0  0  0  0  0  0  0  0
  140.7290   75.6230  221.4230 C   0  0  0  0  0  0  0  0  0  0  0  0
  140.0704   76.4491  221.7291 H   0  0  0  0  0  0  0  0  0  0  0  0
  1  2  1  0
  2  3  2  0
  3  4  1  0
  4  5  1  0
  5  6  2  0
  6  7  1  0
  7  8  1  0
  7  9  1  0
  7 10  1  0
 10 11  1  0
 10 12  1  0
 10 13  1  0
  5 14  1  0
 14 15  1  0
 14 16  2  0
 16 17  1  0
 17 18  1  0
 17 19  1  0
 17 20  1  0
 20 21  2  0
 21 22  1  0
 21 23  1  0
 23 24  1  0
 23 25  2  0
 25 26  1  0
 25 27  1  0
 27 28  1  0
 28 29  1  0
 28 30  1  0
 28 31  1  0
 27 32  2  0
 32 33  1  0
 16 34  1  0
 34 35  1  0
 35 36  2  0
 36 37  1  0
 36  2  1  0
 35  4  1  0
 32 20  1  0
M  CHG  2  17   1  34  -1
M  END
>  <UniqueID>  (55) 
7

>  <SMILES>  (55) 
CC/N=c1\cc([NH2+]c2cccc(C(F)(F)F)c2)[n-]c2ccnn12

>  <Energy>  (55) 
76.94662757851549

>  <Genealogy>  (55) 
CCN=c1cc([NH2+]c2cccc(C(F)(F)F)c2)[n-]c2ccnn12 (protonated)
CC/N=c1\cc([NH2+]c2cccc(C(F)(F)F)c2)[n-]c2ccnn12 (cis-trans isomerization)
CC/N=c1\cc([NH2+]c2cccc(C(F)(F)F)c2)[n-]c2ccnn12 (3D coordinates assigned)
CC/N=c1\cc([NH2+]c2cccc(C(F)(F)F)c2)[n-]c2ccnn12 (optimized conformer: 76.94662757851549 kcal/mol)

>  <smiles>  (55) 
CCN=c1cc(Nc2cccc(C(F)(F)F)c2)[nH]c2ccnn12

>  <score_type>  (55) 
oracle

>  <origin>  (55) 
autodockgpu

>  <m_score__min__energy>  (55) 
-5.9800000000000004

>  <m_primary>  (55) 
energy

>  <meeko>  (55) 
{"free_energy": -5.49, "intermolecular_energy": -6.98, "internal_energy": -0.81, "cluster_size": 9, "cluster_id": 1, "rank_in_cluster": 9}

>  <energy>  (55) 
-5.39

>  <cluster_rmsd>  (55) 
0.05

>  <rmsd>  (55) 
272.06

>  <cluster>  (55) 
3

$$$$
NKOKKRJJRODGEW-PRFFWXOMNA-O
     RDKit          3D

 37 39  0  0  0  0  0  0  0  0999 V2000
  144.5520   72.5855  219.5213 H   0  0  0  0  0  0  0  0  0  0  0  0
  143.6170   72.6310  220.0990 C   0  0  0  0  0  0  0  0  0  0  0  0
  142.9440   73.7700  220.3930 N   0  0  0  0  0  0  0  0  0  0  0  0
  141.8830   73.4120  221.0970 N   0  0  0  0  0  0  0  0  0  0  0  0
  140.9160   74.2220  221.5990 C   0  0  0  0  0  0  0  0  0  0  0  0
  140.9850   75.5110  221.4000 N   0  0  0  0  0  0  0  0  0  0  0  0
  140.1510   76.5460  222.0120 C   0  0  0  0  0  0  0  0  0  0  0  0
  139.6494   76.1282  222.8973 H   0  0  0  0  0  0  0  0  0  0  0  0
  139.4079   76.8822  221.2739 H   0  0  0  0  0  0  0  0  0  0  0  0
  140.9970   77.7440  222.4350 C   0  0  0  0  0  0  0  0  0  0  0  0
  141.0344   77.7970  223.5331 H   0  0  0  0  0  0  0  0  0  0  0  0
  142.0168   77.6311  222.0384 H   0  0  0  0  0  0  0  0  0  0  0  0
  140.5495   78.6673  222.0384 H   0  0  0  0  0  0  0  0  0  0  0  0
  139.8700   73.6080  222.3230 C   0  0  0  0  0  0  0  0  0  0  0  0
  139.0633   74.2149  222.7598 H   0  0  0  0  0  0  0  0  0  0  0  0
  139.8740   72.1990  222.4790 C   0  0  0  0  0  0  0  0  0  0  0  0
  138.7960   71.5400  223.1650 N   0  0  0  0  0  0  0  0  0  0  0  0
  138.2990   70.8880  222.5130 H   0  0  0  0  0  0  0  0  0  0  0  0
  138.0970   72.2510  223.4840 H   0  0  0  0  0  0  0  0  0  0  0  0
  139.3200   70.8210  224.2970 C   0  0  0  0  0  0  0  0  0  0  0  0
  139.3280   69.4160  224.3070 C   0  0  0  0  0  0  0  0  0  0  0  0
  138.9145   68.8605  223.4523 H   0  0  0  0  0  0  0  0  0  0  0  0
  139.8580   68.7210  225.3960 C   0  0  0  0  0  0  0  0  0  0  0  0
  139.8503   67.6210  225.4011 H   0  0  0  0  0  0  0  0  0  0  0  0
  140.3980   69.4190  226.4790 C   0  0  0  0  0  0  0  0  0  0  0  0
  140.7956   68.8649  227.3421 H   0  0  0  0  0  0  0  0  0  0  0  0
  140.4370   70.8230  226.4740 C   0  0  0  0  0  0  0  0  0  0  0  0
  140.9830   71.5780  227.6590 C   0  0  0  0  0  0  0  0  0  0  0  0
  139.9620   72.2130  228.3440 F   0  0  0  0  0  0  0  0  0  0  0  0
  141.6150   70.6930  228.5100 F   0  0  0  0  0  0  0  0  0  0  0  0
  141.8930   72.5390  227.2510 F   0  0  0  0  0  0  0  0  0  0  0  0
  139.8760   71.5180  225.3860 C   0  0  0  0  0  0  0  0  0  0  0  0
  139.8721   72.6180  225.3869 H   0  0  0  0  0  0  0  0  0  0  0  0
  140.8790   71.4550  221.9290 N   0  0  0  0  0  0  0  0  0  0  0  0
  141.8680   72.0840  221.2520 C   0  0  0  0  0  0  0  0  0  0  0  0
  142.9570   71.5260  220.6320 C   0  0  0  0  0  0  0  0  0  0  0  0
  143.2401   70.4648  220.5707 H   0  0  0  0  0  0  0  0  0  0  0  0
  1  2  1  0
  2  3  2  0
  3  4  1  0
  4  5  1  0
  5  6  2  0
  6  7  1  0
  7  8  1  0
  7  9  1  0
  7 10  1  0
 10 11  1  0
 10 12  1  0
 10 13  1  0
  5 14  1  0
 14 15  1  0
 14 16  2  0
 16 17  1  0
 17 18  1  0
 17 19  1  0
 17 20  1  0
 20 21  2  0
 21 22  1  0
 21 23  1  0
 23 24  1  0
 23 25  2  0
 25 26  1  0
 25 27  1  0
 27 28  1  0
 28 29  1  0
 28 30  1  0
 28 31  1  0
 27 32  2  0
 32 33  1  0
 16 34  1  0
 34 35  1  0
 35 36  2  0
 36 37  1  0
 36  2  1  0
 35  4  1  0
 32 20  1  0
M  CHG  2  17   1  34  -1
M  END
>  <UniqueID>  (56) 
7

>  <SMILES>  (56) 
CC/N=c1\cc([NH2+]c2cccc(C(F)(F)F)c2)[n-]c2ccnn12

>  <Energy>  (56) 
76.94662757851549

>  <Genealogy>  (56) 
CCN=c1cc([NH2+]c2cccc(C(F)(F)F)c2)[n-]c2ccnn12 (protonated)
CC/N=c1\cc([NH2+]c2cccc(C(F)(F)F)c2)[n-]c2ccnn12 (cis-trans isomerization)
CC/N=c1\cc([NH2+]c2cccc(C(F)(F)F)c2)[n-]c2ccnn12 (3D coordinates assigned)
CC/N=c1\cc([NH2+]c2cccc(C(F)(F)F)c2)[n-]c2ccnn12 (optimized conformer: 76.94662757851549 kcal/mol)

>  <smiles>  (56) 
CCN=c1cc(Nc2cccc(C(F)(F)F)c2)[nH]c2ccnn12

>  <score_type>  (56) 
oracle

>  <origin>  (56) 
autodockgpu

>  <m_score__min__energy>  (56) 
-5.9800000000000004

>  <m_primary>  (56) 
energy

>  <meeko>  (56) 
{"free_energy": -5.24, "intermolecular_energy": -6.73, "internal_energy": -0.78, "cluster_size": 1, "cluster_id": 6, "rank_in_cluster": 1}

>  <energy>  (56) 
-5.38

>  <cluster_rmsd>  (56) 
0.0

>  <rmsd>  (56) 
271.5

>  <cluster>  (56) 
4

$$$$
NKOKKRJJRODGEW-PRFFWXOMNA-O
     RDKit          3D

 37 39  0  0  0  0  0  0  0  0999 V2000
  146.5320   71.5008  220.6981 H   0  0  0  0  0  0  0  0  0  0  0  0
  145.9520   72.3210  220.2500 C   0  0  0  0  0  0  0  0  0  0  0  0
  145.6200   72.4070  218.9390 N   0  0  0  0  0  0  0  0  0  0  0  0
  144.9320   73.5280  218.7960 N   0  0  0  0  0  0  0  0  0  0  0  0
  144.3860   74.0180  217.6530 C   0  0  0  0  0  0  0  0  0  0  0  0
  144.5220   73.3570  216.5360 N   0  0  0  0  0  0  0  0  0  0  0  0
  145.4470   73.6510  215.4410 C   0  0  0  0  0  0  0  0  0  0  0  0
  144.9936   74.4024  214.7778 H   0  0  0  0  0  0  0  0  0  0  0  0
  145.6449   72.7214  214.8873 H   0  0  0  0  0  0  0  0  0  0  0  0
  146.7690   74.1910  215.9790 C   0  0  0  0  0  0  0  0  0  0  0  0
  146.7482   74.1825  217.0788 H   0  0  0  0  0  0  0  0  0  0  0  0
  147.5955   73.5584  215.6230 H   0  0  0  0  0  0  0  0  0  0  0  0
  146.9163   75.2213  215.6230 H   0  0  0  0  0  0  0  0  0  0  0  0
  143.6870   75.2430  217.7450 C   0  0  0  0  0  0  0  0  0  0  0  0
  143.2298   75.6923  216.8511 H   0  0  0  0  0  0  0  0  0  0  0  0
  143.5830   75.8850  219.0050 C   0  0  0  0  0  0  0  0  0  0  0  0
  142.8350   77.1040  219.1400 N   0  0  0  0  0  0  0  0  0  0  0  0
  142.2950   77.2950  218.2620 H   0  0  0  0  0  0  0  0  0  0  0  0
  143.4930   77.9070  219.2790 H   0  0  0  0  0  0  0  0  0  0  0  0
  141.9450   76.9950  220.2680 C   0  0  0  0  0  0  0  0  0  0  0  0
  141.2180   75.8130  220.4890 C   0  0  0  0  0  0  0  0  0  0  0  0
  141.3141   74.9716  219.7870 H   0  0  0  0  0  0  0  0  0  0  0  0
  140.3740   75.7020  221.5960 C   0  0  0  0  0  0  0  0  0  0  0  0
  139.7979   74.7786  221.7559 H   0  0  0  0  0  0  0  0  0  0  0  0
  140.2590   76.7600  222.5010 C   0  0  0  0  0  0  0  0  0  0  0  0
  139.5782   76.6719  223.3605 H   0  0  0  0  0  0  0  0  0  0  0  0
  141.0070   77.9360  222.3210 C   0  0  0  0  0  0  0  0  0  0  0  0
  140.8530   79.0940  223.2740 C   0  0  0  0  0  0  0  0  0  0  0  0
  139.5610   79.1500  223.7680 F   0  0  0  0  0  0  0  0  0  0  0  0
  141.7310   78.9340  224.3290 F   0  0  0  0  0  0  0  0  0  0  0  0
  141.1260   80.2930  222.6380 F   0  0  0  0  0  0  0  0  0  0  0  0
  141.8330   78.0530  221.1890 C   0  0  0  0  0  0  0  0  0  0  0  0
  142.3979   78.9819  221.0216 H   0  0  0  0  0  0  0  0  0  0  0  0
  144.1500   75.3150  220.1090 N   0  0  0  0  0  0  0  0  0  0  0  0
  144.8200   74.1460  219.9760 C   0  0  0  0  0  0  0  0  0  0  0  0
  145.4550   73.4180  220.9500 C   0  0  0  0  0  0  0  0  0  0  0  0
  145.5488   73.6451  222.0222 H   0  0  0  0  0  0  0  0  0  0  0  0
  1  2  1  0
  2  3  2  0
  3  4  1  0
  4  5  1  0
  5  6  2  0
  6  7  1  0
  7  8  1  0
  7  9  1  0
  7 10  1  0
 10 11  1  0
 10 12  1  0
 10 13  1  0
  5 14  1  0
 14 15  1  0
 14 16  2  0
 16 17  1  0
 17 18  1  0
 17 19  1  0
 17 20  1  0
 20 21  2  0
 21 22  1  0
 21 23  1  0
 23 24  1  0
 23 25  2  0
 25 26  1  0
 25 27  1  0
 27 28  1  0
 28 29  1  0
 28 30  1  0
 28 31  1  0
 27 32  2  0
 32 33  1  0
 16 34  1  0
 34 35  1  0
 35 36  2  0
 36 37  1  0
 36  2  1  0
 35  4  1  0
 32 20  1  0
M  CHG  2  17   1  34  -1
M  END
>  <UniqueID>  (57) 
7

>  <SMILES>  (57) 
CC/N=c1\cc([NH2+]c2cccc(C(F)(F)F)c2)[n-]c2ccnn12

>  <Energy>  (57) 
76.94662757851549

>  <Genealogy>  (57) 
CCN=c1cc([NH2+]c2cccc(C(F)(F)F)c2)[n-]c2ccnn12 (protonated)
CC/N=c1\cc([NH2+]c2cccc(C(F)(F)F)c2)[n-]c2ccnn12 (cis-trans isomerization)
CC/N=c1\cc([NH2+]c2cccc(C(F)(F)F)c2)[n-]c2ccnn12 (3D coordinates assigned)
CC/N=c1\cc([NH2+]c2cccc(C(F)(F)F)c2)[n-]c2ccnn12 (optimized conformer: 76.94662757851549 kcal/mol)

>  <smiles>  (57) 
CCN=c1cc(Nc2cccc(C(F)(F)F)c2)[nH]c2ccnn12

>  <score_type>  (57) 
oracle

>  <origin>  (57) 
autodockgpu

>  <m_score__min__energy>  (57) 
-5.9800000000000004

>  <m_primary>  (57) 
energy

>  <meeko>  (57) 
{"free_energy": -5.29, "intermolecular_energy": -6.78, "internal_energy": -0.87, "cluster_size": 3, "cluster_id": 5, "rank_in_cluster": 1}

>  <energy>  (57) 
-5.29

>  <cluster_rmsd>  (57) 
0.0

>  <rmsd>  (57) 
271.34

>  <cluster>  (57) 
5

$$$$
NKOKKRJJRODGEW-PRFFWXOMNA-O
     RDKit          3D

 37 39  0  0  0  0  0  0  0  0999 V2000
  140.1172   66.8343  226.9455 H   0  0  0  0  0  0  0  0  0  0  0  0
  140.0400   67.7800  226.3890 C   0  0  0  0  0  0  0  0  0  0  0  0
  140.7300   68.9080  226.6830 N   0  0  0  0  0  0  0  0  0  0  0  0
  140.3650   69.8170  225.7940 N   0  0  0  0  0  0  0  0  0  0  0  0
  140.8080   71.0970  225.6950 C   0  0  0  0  0  0  0  0  0  0  0  0
  141.6950   71.5410  226.5440 N   0  0  0  0  0  0  0  0  0  0  0  0
  141.4410   72.2630  227.7910 C   0  0  0  0  0  0  0  0  0  0  0  0
  141.3994   73.3419  227.5809 H   0  0  0  0  0  0  0  0  0  0  0  0
  142.2538   72.0414  228.4983 H   0  0  0  0  0  0  0  0  0  0  0  0
  140.1180   71.8230  228.4130 C   0  0  0  0  0  0  0  0  0  0  0  0
  140.2012   71.8507  229.5095 H   0  0  0  0  0  0  0  0  0  0  0  0
  139.3163   72.5029  228.0888 H   0  0  0  0  0  0  0  0  0  0  0  0
  139.8832   70.7984  228.0888 H   0  0  0  0  0  0  0  0  0  0  0  0
  140.2710   71.8880  224.6550 C   0  0  0  0  0  0  0  0  0  0  0  0
  140.5876   72.9340  224.5300 H   0  0  0  0  0  0  0  0  0  0  0  0
  139.3190   71.3160  223.7750 C   0  0  0  0  0  0  0  0  0  0  0  0
  138.7940   72.0790  222.6760 N   0  0  0  0  0  0  0  0  0  0  0  0
  138.0420   72.7260  223.0120 H   0  0  0  0  0  0  0  0  0  0  0  0
  138.3570   71.4330  221.9770 H   0  0  0  0  0  0  0  0  0  0  0  0
  139.8630   72.8220  222.0580 C   0  0  0  0  0  0  0  0  0  0  0  0
  140.9600   72.1520  221.4900 C   0  0  0  0  0  0  0  0  0  0  0  0
  141.0133   71.0541  221.5331 H   0  0  0  0  0  0  0  0  0  0  0  0
  141.9830   72.8740  220.8710 C   0  0  0  0  0  0  0  0  0  0  0  0
  142.8449   72.3438  220.4397 H   0  0  0  0  0  0  0  0  0  0  0  0
  141.9150   74.2670  220.7980 C   0  0  0  0  0  0  0  0  0  0  0  0
  142.7336   74.8297  220.3255 H   0  0  0  0  0  0  0  0  0  0  0  0
  140.8080   74.9550  221.3240 C   0  0  0  0  0  0  0  0  0  0  0  0
  140.7520   76.4610  221.2810 C   0  0  0  0  0  0  0  0  0  0  0  0
  139.5540   76.8880  220.7350 F   0  0  0  0  0  0  0  0  0  0  0  0
  140.8630   76.9570  222.5660 F   0  0  0  0  0  0  0  0  0  0  0  0
  141.7840   76.9690  220.5100 F   0  0  0  0  0  0  0  0  0  0  0  0
  139.7950   74.2250  221.9710 C   0  0  0  0  0  0  0  0  0  0  0  0
  138.9399   74.7565  222.4140 H   0  0  0  0  0  0  0  0  0  0  0  0
  138.9370   70.0140  223.9360 N   0  0  0  0  0  0  0  0  0  0  0  0
  139.4680   69.2940  224.9510 C   0  0  0  0  0  0  0  0  0  0  0  0
  139.2190   67.9860  225.2830 C   0  0  0  0  0  0  0  0  0  0  0  0
  138.5373   67.2740  224.7948 H   0  0  0  0  0  0  0  0  0  0  0  0
  1  2  1  0
  2  3  2  0
  3  4  1  0
  4  5  1  0
  5  6  2  0
  6  7  1  0
  7  8  1  0
  7  9  1  0
  7 10  1  0
 10 11  1  0
 10 12  1  0
 10 13  1  0
  5 14  1  0
 14 15  1  0
 14 16  2  0
 16 17  1  0
 17 18  1  0
 17 19  1  0
 17 20  1  0
 20 21  2  0
 21 22  1  0
 21 23  1  0
 23 24  1  0
 23 25  2  0
 25 26  1  0
 25 27  1  0
 27 28  1  0
 28 29  1  0
 28 30  1  0
 28 31  1  0
 27 32  2  0
 32 33  1  0
 16 34  1  0
 34 35  1  0
 35 36  2  0
 36 37  1  0
 36  2  1  0
 35  4  1  0
 32 20  1  0
M  CHG  2  17   1  34  -1
M  END
>  <UniqueID>  (58) 
7

>  <SMILES>  (58) 
CC/N=c1\cc([NH2+]c2cccc(C(F)(F)F)c2)[n-]c2ccnn12

>  <Energy>  (58) 
76.94662757851549

>  <Genealogy>  (58) 
CCN=c1cc([NH2+]c2cccc(C(F)(F)F)c2)[n-]c2ccnn12 (protonated)
CC/N=c1\cc([NH2+]c2cccc(C(F)(F)F)c2)[n-]c2ccnn12 (cis-trans isomerization)
CC/N=c1\cc([NH2+]c2cccc(C(F)(F)F)c2)[n-]c2ccnn12 (3D coordinates assigned)
CC/N=c1\cc([NH2+]c2cccc(C(F)(F)F)c2)[n-]c2ccnn12 (optimized conformer: 76.94662757851549 kcal/mol)

>  <smiles>  (58) 
CCN=c1cc(Nc2cccc(C(F)(F)F)c2)[nH]c2ccnn12

>  <score_type>  (58) 
oracle

>  <origin>  (58) 
autodockgpu

>  <m_score__min__energy>  (58) 
-5.9800000000000004

>  <m_primary>  (58) 
energy

>  <meeko>  (58) 
{"free_energy": -5.45, "intermolecular_energy": -6.94, "internal_energy": -0.85, "cluster_size": 4, "cluster_id": 2, "rank_in_cluster": 2}

>  <energy>  (58) 
-5.28

>  <cluster_rmsd>  (58) 
0.11

>  <rmsd>  (58) 
271.33

>  <cluster>  (58) 
5

$$$$
NKOKKRJJRODGEW-PRFFWXOMNA-O
     RDKit          3D

 37 39  0  0  0  0  0  0  0  0999 V2000
  146.4902   71.5021  220.6792 H   0  0  0  0  0  0  0  0  0  0  0  0
  145.9170   72.3260  220.2290 C   0  0  0  0  0  0  0  0  0  0  0  0
  145.6190   72.4310  218.9120 N   0  0  0  0  0  0  0  0  0  0  0  0
  144.9270   73.5500  218.7680 N   0  0  0  0  0  0  0  0  0  0  0  0
  144.4080   74.0550  217.6190 C   0  0  0  0  0  0  0  0  0  0  0  0
  144.5760   73.4120  216.4960 N   0  0  0  0  0  0  0  0  0  0  0  0
  145.6220   73.6370  215.4970 C   0  0  0  0  0  0  0  0  0  0  0  0
  145.2736   74.3885  214.7732 H   0  0  0  0  0  0  0  0  0  0  0  0
  145.8343   72.6850  214.9885 H   0  0  0  0  0  0  0  0  0  0  0  0
  146.9040   74.1350  216.1570 C   0  0  0  0  0  0  0  0  0  0  0  0
  146.7939   74.0922  217.2506 H   0  0  0  0  0  0  0  0  0  0  0  0
  147.7465   73.4987  215.8481 H   0  0  0  0  0  0  0  0  0  0  0  0
  147.0961   75.1731  215.8481 H   0  0  0  0  0  0  0  0  0  0  0  0
  143.7000   75.2740  217.7130 C   0  0  0  0  0  0  0  0  0  0  0  0
  143.2630   75.7351  216.8150 H   0  0  0  0  0  0  0  0  0  0  0  0
  143.5600   75.8950  218.9790 C   0  0  0  0  0  0  0  0  0  0  0  0
  142.8000   77.1080  219.1130 N   0  0  0  0  0  0  0  0  0  0  0  0
  142.2500   77.2880  218.2400 H   0  0  0  0  0  0  0  0  0  0  0  0
  143.4520   77.9180  219.2410 H   0  0  0  0  0  0  0  0  0  0  0  0
  141.9230   76.9980  220.2510 C   0  0  0  0  0  0  0  0  0  0  0  0
  141.1970   75.8170  220.4770 C   0  0  0  0  0  0  0  0  0  0  0  0
  141.2842   74.9773  219.7718 H   0  0  0  0  0  0  0  0  0  0  0  0
  140.3650   75.7040  221.5930 C   0  0  0  0  0  0  0  0  0  0  0  0
  139.7898   74.7808  221.7569 H   0  0  0  0  0  0  0  0  0  0  0  0
  140.2610   76.7600  222.5020 C   0  0  0  0  0  0  0  0  0  0  0  0
  139.5894   76.6710  223.3686 H   0  0  0  0  0  0  0  0  0  0  0  0
  141.0090   77.9350  222.3160 C   0  0  0  0  0  0  0  0  0  0  0  0
  140.8680   79.0910  223.2740 C   0  0  0  0  0  0  0  0  0  0  0  0
  139.5540   79.2180  223.6940 F   0  0  0  0  0  0  0  0  0  0  0  0
  141.6720   78.8700  224.3760 F   0  0  0  0  0  0  0  0  0  0  0  0
  141.2450   80.2780  222.6700 F   0  0  0  0  0  0  0  0  0  0  0  0
  141.8230   78.0540  221.1760 C   0  0  0  0  0  0  0  0  0  0  0  0
  142.3878   78.9824  221.0051 H   0  0  0  0  0  0  0  0  0  0  0  0
  144.1020   75.3110  220.0890 N   0  0  0  0  0  0  0  0  0  0  0  0
  144.7810   74.1490  219.9540 C   0  0  0  0  0  0  0  0  0  0  0  0
  145.3950   73.4090  220.9330 C   0  0  0  0  0  0  0  0  0  0  0  0
  145.4593   73.6195  222.0107 H   0  0  0  0  0  0  0  0  0  0  0  0
  1  2  1  0
  2  3  2  0
  3  4  1  0
  4  5  1  0
  5  6  2  0
  6  7  1  0
  7  8  1  0
  7  9  1  0
  7 10  1  0
 10 11  1  0
 10 12  1  0
 10 13  1  0
  5 14  1  0
 14 15  1  0
 14 16  2  0
 16 17  1  0
 17 18  1  0
 17 19  1  0
 17 20  1  0
 20 21  2  0
 21 22  1  0
 21 23  1  0
 23 24  1  0
 23 25  2  0
 25 26  1  0
 25 27  1  0
 27 28  1  0
 28 29  1  0
 28 30  1  0
 28 31  1  0
 27 32  2  0
 32 33  1  0
 16 34  1  0
 34 35  1  0
 35 36  2  0
 36 37  1  0
 36  2  1  0
 35  4  1  0
 32 20  1  0
M  CHG  2  17   1  34  -1
M  END
>  <UniqueID>  (59) 
7

>  <SMILES>  (59) 
CC/N=c1\cc([NH2+]c2cccc(C(F)(F)F)c2)[n-]c2ccnn12

>  <Energy>  (59) 
76.94662757851549

>  <Genealogy>  (59) 
CCN=c1cc([NH2+]c2cccc(C(F)(F)F)c2)[n-]c2ccnn12 (protonated)
CC/N=c1\cc([NH2+]c2cccc(C(F)(F)F)c2)[n-]c2ccnn12 (cis-trans isomerization)
CC/N=c1\cc([NH2+]c2cccc(C(F)(F)F)c2)[n-]c2ccnn12 (3D coordinates assigned)
CC/N=c1\cc([NH2+]c2cccc(C(F)(F)F)c2)[n-]c2ccnn12 (optimized conformer: 76.94662757851549 kcal/mol)

>  <smiles>  (59) 
CCN=c1cc(Nc2cccc(C(F)(F)F)c2)[nH]c2ccnn12

>  <score_type>  (59) 
oracle

>  <origin>  (59) 
autodockgpu

>  <m_score__min__energy>  (59) 
-5.9800000000000004

>  <m_primary>  (59) 
energy

>  <meeko>  (59) 
{"free_energy": -5.28, "intermolecular_energy": -6.77, "internal_energy": -0.87, "cluster_size": 3, "cluster_id": 5, "rank_in_cluster": 3}

>  <energy>  (59) 
-5.28

>  <cluster_rmsd>  (59) 
0.08

>  <rmsd>  (59) 
271.34

>  <cluster>  (59) 
5

$$$$
NKOKKRJJRODGEW-PRFFWXOMNA-O
     RDKit          3D

 37 39  0  0  0  0  0  0  0  0999 V2000
  141.5196   71.6394  228.7464 H   0  0  0  0  0  0  0  0  0  0  0  0
  141.0950   71.4140  227.7570 C   0  0  0  0  0  0  0  0  0  0  0  0
  140.3720   70.3070  227.4590 N   0  0  0  0  0  0  0  0  0  0  0  0
  140.0460   70.4000  226.1800 N   0  0  0  0  0  0  0  0  0  0  0  0
  139.3130   69.5200  225.4510 C   0  0  0  0  0  0  0  0  0  0  0  0
  138.8490   68.4400  226.0180 N   0  0  0  0  0  0  0  0  0  0  0  0
  139.6190   67.3950  226.6940 C   0  0  0  0  0  0  0  0  0  0  0  0
  139.3184   66.4132  226.2995 H   0  0  0  0  0  0  0  0  0  0  0  0
  139.4179   67.4514  227.7740 H   0  0  0  0  0  0  0  0  0  0  0  0
  141.1150   67.5900  226.4640 C   0  0  0  0  0  0  0  0  0  0  0  0
  141.6294   67.6570  227.4340 H   0  0  0  0  0  0  0  0  0  0  0  0
  141.5130   66.7361  225.8961 H   0  0  0  0  0  0  0  0  0  0  0  0
  141.2809   68.5174  225.8961 H   0  0  0  0  0  0  0  0  0  0  0  0
  139.0910   69.8350  224.0910 C   0  0  0  0  0  0  0  0  0  0  0  0
  138.5102   69.1563  223.4491 H   0  0  0  0  0  0  0  0  0  0  0  0
  139.6270   71.0370  223.5660 C   0  0  0  0  0  0  0  0  0  0  0  0
  139.3740   71.4100  222.2010 N   0  0  0  0  0  0  0  0  0  0  0  0
  138.3670   71.6740  222.0800 H   0  0  0  0  0  0  0  0  0  0  0  0
  139.5560   70.5910  221.5740 H   0  0  0  0  0  0  0  0  0  0  0  0
  140.2320   72.5090  221.8400 C   0  0  0  0  0  0  0  0  0  0  0  0
  141.4990   72.2690  221.2830 C   0  0  0  0  0  0  0  0  0  0  0  0
  141.8462   71.2353  221.1383 H   0  0  0  0  0  0  0  0  0  0  0  0
  142.3200   73.3360  220.9120 C   0  0  0  0  0  0  0  0  0  0  0  0
  143.3159   73.1402  220.4879 H   0  0  0  0  0  0  0  0  0  0  0  0
  141.8800   74.6510  221.0780 C   0  0  0  0  0  0  0  0  0  0  0  0
  142.5393   75.4867  220.8005 H   0  0  0  0  0  0  0  0  0  0  0  0
  140.6010   74.9140  221.5970 C   0  0  0  0  0  0  0  0  0  0  0  0
  140.1400   76.3330  221.8140 C   0  0  0  0  0  0  0  0  0  0  0  0
  140.0310   77.0000  220.6050 F   0  0  0  0  0  0  0  0  0  0  0  0
  138.9060   76.3220  222.4340 F   0  0  0  0  0  0  0  0  0  0  0  0
  141.0380   77.0250  222.6090 F   0  0  0  0  0  0  0  0  0  0  0  0
  139.7900   73.8360  221.9940 C   0  0  0  0  0  0  0  0  0  0  0  0
  138.7992   74.0322  222.4297 H   0  0  0  0  0  0  0  0  0  0  0  0
  140.3420   71.8750  224.3730 N   0  0  0  0  0  0  0  0  0  0  0  0
  140.5410   71.5310  225.6670 C   0  0  0  0  0  0  0  0  0  0  0  0
  141.2240   72.2260  226.6320 C   0  0  0  0  0  0  0  0  0  0  0  0
  141.7464   73.1897  226.5403 H   0  0  0  0  0  0  0  0  0  0  0  0
  1  2  1  0
  2  3  2  0
  3  4  1  0
  4  5  1  0
  5  6  2  0
  6  7  1  0
  7  8  1  0
  7  9  1  0
  7 10  1  0
 10 11  1  0
 10 12  1  0
 10 13  1  0
  5 14  1  0
 14 15  1  0
 14 16  2  0
 16 17  1  0
 17 18  1  0
 17 19  1  0
 17 20  1  0
 20 21  2  0
 21 22  1  0
 21 23  1  0
 23 24  1  0
 23 25  2  0
 25 26  1  0
 25 27  1  0
 27 28  1  0
 28 29  1  0
 28 30  1  0
 28 31  1  0
 27 32  2  0
 32 33  1  0
 16 34  1  0
 34 35  1  0
 35 36  2  0
 36 37  1  0
 36  2  1  0
 35  4  1  0
 32 20  1  0
M  CHG  2  17   1  34  -1
M  END
>  <UniqueID>  (60) 
7

>  <SMILES>  (60) 
CC/N=c1\cc([NH2+]c2cccc(C(F)(F)F)c2)[n-]c2ccnn12

>  <Energy>  (60) 
76.94662757851549

>  <Genealogy>  (60) 
CCN=c1cc([NH2+]c2cccc(C(F)(F)F)c2)[n-]c2ccnn12 (protonated)
CC/N=c1\cc([NH2+]c2cccc(C(F)(F)F)c2)[n-]c2ccnn12 (cis-trans isomerization)
CC/N=c1\cc([NH2+]c2cccc(C(F)(F)F)c2)[n-]c2ccnn12 (3D coordinates assigned)
CC/N=c1\cc([NH2+]c2cccc(C(F)(F)F)c2)[n-]c2ccnn12 (optimized conformer: 76.94662757851549 kcal/mol)

>  <smiles>  (60) 
CCN=c1cc(Nc2cccc(C(F)(F)F)c2)[nH]c2ccnn12

>  <score_type>  (60) 
oracle

>  <origin>  (60) 
autodockgpu

>  <m_score__min__energy>  (60) 
-5.9800000000000004

>  <m_primary>  (60) 
energy

>  <meeko>  (60) 
{"free_energy": -5.39, "intermolecular_energy": -6.88, "internal_energy": -0.85, "cluster_size": 4, "cluster_id": 2, "rank_in_cluster": 4}

>  <energy>  (60) 
-5.24

>  <cluster_rmsd>  (60) 
0.0

>  <rmsd>  (60) 
271.97

>  <cluster>  (60) 
6

$$$$
RBQYZXQNNWWOGL-SGOQHWLPNA-O
     RDKit          3D

 38 40  0  0  0  0  0  0  0  0999 V2000
  142.8062   80.6471  224.8404 H   0  0  0  0  0  0  0  0  0  0  0  0
  142.4380   80.5990  223.8050 C   0  0  0  0  0  0  0  0  0  0  0  0
  141.8360   81.7190  223.2290 C   0  0  0  0  0  0  0  0  0  0  0  0
  141.7201   82.6411  223.8175 H   0  0  0  0  0  0  0  0  0  0  0  0
  141.3770   81.6750  221.9010 C   0  0  0  0  0  0  0  0  0  0  0  0
  140.6770   82.8620  221.2880 C   0  0  0  0  0  0  0  0  0  0  0  0
  140.5620   82.7170  219.9160 F   0  0  0  0  0  0  0  0  0  0  0  0
  141.4010   84.0080  221.5590 F   0  0  0  0  0  0  0  0  0  0  0  0
  139.4050   82.9970  221.8180 F   0  0  0  0  0  0  0  0  0  0  0  0
  141.4960   80.4760  221.1760 C   0  0  0  0  0  0  0  0  0  0  0  0
  141.1063   80.4204  220.1489 H   0  0  0  0  0  0  0  0  0  0  0  0
  142.1080   79.3470  221.7500 C   0  0  0  0  0  0  0  0  0  0  0  0
  142.2010   78.1150  221.0100 N   0  0  0  0  0  0  0  0  0  0  0  0
  143.1130   77.6380  221.2010 H   0  0  0  0  0  0  0  0  0  0  0  0
  142.1630   78.3110  219.9820 H   0  0  0  0  0  0  0  0  0  0  0  0
  141.1050   77.2560  221.3740 C   0  0  0  0  0  0  0  0  0  0  0  0
  139.8900   77.8000  221.6640 N   0  0  0  0  0  0  0  0  0  0  0  0
  138.8750   76.9910  222.0430 C   0  0  0  0  0  0  0  0  0  0  0  0
  137.5930   77.3750  222.3600 C   0  0  0  0  0  0  0  0  0  0  0  0
  137.1656   78.3885  222.3652 H   0  0  0  0  0  0  0  0  0  0  0  0
  136.9700   76.1780  222.6710 C   0  0  0  0  0  0  0  0  0  0  0  0
  135.9193   76.0716  222.9787 H   0  0  0  0  0  0  0  0  0  0  0  0
  137.8490   75.1610  222.5390 N   0  0  0  0  0  0  0  0  0  0  0  0
  137.5990   74.1720  222.7260 H   0  0  0  0  0  0  0  0  0  0  0  0
  139.0190   75.6570  222.1560 N   0  0  0  0  0  0  0  0  0  0  0  0
  140.2240   75.0430  221.8880 C   0  0  0  0  0  0  0  0  0  0  0  0
  140.4560   73.7590  221.9690 N   0  0  0  0  0  0  0  0  0  0  0  0
  139.6030   72.6200  222.2940 C   0  0  0  0  0  0  0  0  0  0  0  0
  139.4913   71.9879  221.4007 H   0  0  0  0  0  0  0  0  0  0  0  0
  138.6240   72.9982  222.6235 H   0  0  0  0  0  0  0  0  0  0  0  0
  140.2080   71.7870  223.4230 C   0  0  0  0  0  0  0  0  0  0  0  0
  139.9029   72.2071  224.3927 H   0  0  0  0  0  0  0  0  0  0  0  0
  139.8516   70.7493  223.3445 H   0  0  0  0  0  0  0  0  0  0  0  0
  141.3050   71.8049  223.3445 H   0  0  0  0  0  0  0  0  0  0  0  0
  141.2920   75.8640  221.4880 C   0  0  0  0  0  0  0  0  0  0  0  0
  142.2733   75.4203  221.2641 H   0  0  0  0  0  0  0  0  0  0  0  0
  142.5750   79.4180  223.0730 C   0  0  0  0  0  0  0  0  0  0  0  0
  143.0505   78.5397  223.5340 H   0  0  0  0  0  0  0  0  0  0  0  0
  1  2  1  0
  2  3  2  0
  3  4  1  0
  3  5  1  0
  5  6  1  0
  6  7  1  0
  6  8  1  0
  6  9  1  0
  5 10  2  0
 10 11  1  0
 10 12  1  0
 12 13  1  0
 13 14  1  0
 13 15  1  0
 13 16  1  0
 16 17  1  0
 17 18  2  0
 18 19  1  0
 19 20  1  0
 19 21  2  0
 21 22  1  0
 21 23  1  0
 23 24  1  0
 23 25  1  0
 25 26  1  0
 26 27  2  0
 27 28  1  0
 28 29  1  0
 28 30  1  0
 28 31  1  0
 31 32  1  0
 31 33  1  0
 31 34  1  0
 26 35  1  0
 35 36  1  0
 12 37  2  0
 37 38  1  0
 37  2  1  0
 35 16  2  0
 25 18  1  0
M  CHG  1  13   1
M  END
>  <UniqueID>  (61) 
8

>  <SMILES>  (61) 
CC/N=c1/cc([NH2+]c2cccc(C(F)(F)F)c2)nc2cc[nH]n12

>  <Energy>  (61) 
87.97094418657713

>  <Genealogy>  (61) 
CCN=c1cc([NH2+]c2cccc(C(F)(F)F)c2)[nH]c2ccnn12 (protonated)
CCN=c1cc([NH2+]c2cccc(C(F)(F)F)c2)nc2cc[nH]n12 (tautomer)
CC/N=c1/cc([NH2+]c2cccc(C(F)(F)F)c2)nc2cc[nH]n12 (cis-trans isomerization)
CC/N=c1/cc([NH2+]c2cccc(C(F)(F)F)c2)nc2cc[nH]n12 (3D coordinates assigned)
CC/N=c1/cc([NH2+]c2cccc(C(F)(F)F)c2)nc2cc[nH]n12 (optimized conformer: 87.97094418657713 kcal/mol)

>  <smiles>  (61) 
CCN=c1cc(Nc2cccc(C(F)(F)F)c2)[nH]c2ccnn12

>  <score_type>  (61) 
oracle

>  <origin>  (61) 
autodockgpu

>  <m_score__min__energy>  (61) 
-6.3099999999999996

>  <m_primary>  (61) 
energy

>  <meeko>  (61) 
{"free_energy": -6.3, "intermolecular_energy": -7.79, "internal_energy": -0.46, "cluster_size": 19, "cluster_id": 1, "rank_in_cluster": 10}

>  <energy>  (61) 
-6.31

>  <cluster_rmsd>  (61) 
0.0

>  <rmsd>  (61) 
272.52

>  <cluster>  (61) 
1

$$$$
RBQYZXQNNWWOGL-SGOQHWLPNA-O
     RDKit          3D

 38 40  0  0  0  0  0  0  0  0999 V2000
  142.8156   80.6377  224.8636 H   0  0  0  0  0  0  0  0  0  0  0  0
  142.4440   80.5990  223.8290 C   0  0  0  0  0  0  0  0  0  0  0  0
  141.8470   81.7260  223.2630 C   0  0  0  0  0  0  0  0  0  0  0  0
  141.7387   82.6444  223.8586 H   0  0  0  0  0  0  0  0  0  0  0  0
  141.3830   81.6950  221.9360 C   0  0  0  0  0  0  0  0  0  0  0  0
  140.6880   82.8900  221.3340 C   0  0  0  0  0  0  0  0  0  0  0  0
  140.5490   82.7460  219.9640 F   0  0  0  0  0  0  0  0  0  0  0  0
  141.4300   84.0270  221.5940 F   0  0  0  0  0  0  0  0  0  0  0  0
  139.4260   83.0400  221.8840 F   0  0  0  0  0  0  0  0  0  0  0  0
  141.4930   80.5010  221.2020 C   0  0  0  0  0  0  0  0  0  0  0  0
  141.0996   80.4550  220.1758 H   0  0  0  0  0  0  0  0  0  0  0  0
  142.1010   79.3640  221.7660 C   0  0  0  0  0  0  0  0  0  0  0  0
  142.1840   78.1360  221.0160 N   0  0  0  0  0  0  0  0  0  0  0  0
  143.0970   77.6560  221.1960 H   0  0  0  0  0  0  0  0  0  0  0  0
  142.1390   78.3400  219.9900 H   0  0  0  0  0  0  0  0  0  0  0  0
  141.0900   77.2790  221.3840 C   0  0  0  0  0  0  0  0  0  0  0  0
  139.8770   77.8230  221.6820 N   0  0  0  0  0  0  0  0  0  0  0  0
  138.8620   77.0130  222.0640 C   0  0  0  0  0  0  0  0  0  0  0  0
  137.5830   77.3980  222.3890 C   0  0  0  0  0  0  0  0  0  0  0  0
  137.1573   78.4122  222.4001 H   0  0  0  0  0  0  0  0  0  0  0  0
  136.9600   76.2010  222.6990 C   0  0  0  0  0  0  0  0  0  0  0  0
  135.9107   76.0954  223.0118 H   0  0  0  0  0  0  0  0  0  0  0  0
  137.8360   75.1830  222.5590 N   0  0  0  0  0  0  0  0  0  0  0  0
  137.5870   74.1940  222.7430 H   0  0  0  0  0  0  0  0  0  0  0  0
  139.0050   75.6800  222.1710 N   0  0  0  0  0  0  0  0  0  0  0  0
  140.2080   75.0640  221.8940 C   0  0  0  0  0  0  0  0  0  0  0  0
  140.4390   73.7800  221.9690 N   0  0  0  0  0  0  0  0  0  0  0  0
  139.6000   72.6470  222.3480 C   0  0  0  0  0  0  0  0  0  0  0  0
  139.4535   71.9987  221.4715 H   0  0  0  0  0  0  0  0  0  0  0  0
  138.6344   73.0310  222.7089 H   0  0  0  0  0  0  0  0  0  0  0  0
  140.2500   71.8350  223.4670 C   0  0  0  0  0  0  0  0  0  0  0  0
  139.9313   72.2331  224.4416 H   0  0  0  0  0  0  0  0  0  0  0  0
  139.9422   70.7823  223.3825 H   0  0  0  0  0  0  0  0  0  0  0  0
  141.3445   71.9049  223.3825 H   0  0  0  0  0  0  0  0  0  0  0  0
  141.2750   75.8860  221.4910 C   0  0  0  0  0  0  0  0  0  0  0  0
  142.2543   75.4418  221.2592 H   0  0  0  0  0  0  0  0  0  0  0  0
  142.5720   79.4220  223.0880 C   0  0  0  0  0  0  0  0  0  0  0  0
  143.0433   78.5374  223.5413 H   0  0  0  0  0  0  0  0  0  0  0  0
  1  2  1  0
  2  3  2  0
  3  4  1  0
  3  5  1  0
  5  6  1  0
  6  7  1  0
  6  8  1  0
  6  9  1  0
  5 10  2  0
 10 11  1  0
 10 12  1  0
 12 13  1  0
 13 14  1  0
 13 15  1  0
 13 16  1  0
 16 17  1  0
 17 18  2  0
 18 19  1  0
 19 20  1  0
 19 21  2  0
 21 22  1  0
 21 23  1  0
 23 24  1  0
 23 25  1  0
 25 26  1  0
 26 27  2  0
 27 28  1  0
 28 29  1  0
 28 30  1  0
 28 31  1  0
 31 32  1  0
 31 33  1  0
 31 34  1  0
 26 35  1  0
 35 36  1  0
 12 37  2  0
 37 38  1  0
 37  2  1  0
 35 16  2  0
 25 18  1  0
M  CHG  1  13   1
M  END
>  <UniqueID>  (62) 
8

>  <SMILES>  (62) 
CC/N=c1/cc([NH2+]c2cccc(C(F)(F)F)c2)nc2cc[nH]n12

>  <Energy>  (62) 
87.97094418657713

>  <Genealogy>  (62) 
CCN=c1cc([NH2+]c2cccc(C(F)(F)F)c2)[nH]c2ccnn12 (protonated)
CCN=c1cc([NH2+]c2cccc(C(F)(F)F)c2)nc2cc[nH]n12 (tautomer)
CC/N=c1/cc([NH2+]c2cccc(C(F)(F)F)c2)nc2cc[nH]n12 (cis-trans isomerization)
CC/N=c1/cc([NH2+]c2cccc(C(F)(F)F)c2)nc2cc[nH]n12 (3D coordinates assigned)
CC/N=c1/cc([NH2+]c2cccc(C(F)(F)F)c2)nc2cc[nH]n12 (optimized conformer: 87.97094418657713 kcal/mol)

>  <smiles>  (62) 
CCN=c1cc(Nc2cccc(C(F)(F)F)c2)[nH]c2ccnn12

>  <score_type>  (62) 
oracle

>  <origin>  (62) 
autodockgpu

>  <m_score__min__energy>  (62) 
-6.3099999999999996

>  <m_primary>  (62) 
energy

>  <meeko>  (62) 
{"free_energy": -6.31, "intermolecular_energy": -7.8, "internal_energy": -0.46, "cluster_size": 19, "cluster_id": 1, "rank_in_cluster": 2}

>  <energy>  (62) 
-6.31

>  <cluster_rmsd>  (62) 
0.04

>  <rmsd>  (62) 
272.53

>  <cluster>  (62) 
1

$$$$
RBQYZXQNNWWOGL-SGOQHWLPNA-O
     RDKit          3D

 38 40  0  0  0  0  0  0  0  0999 V2000
  142.8177   80.7477  224.7410 H   0  0  0  0  0  0  0  0  0  0  0  0
  142.4400   80.6680  223.7110 C   0  0  0  0  0  0  0  0  0  0  0  0
  141.8440   81.7730  223.1020 C   0  0  0  0  0  0  0  0  0  0  0  0
  141.7420   82.7154  223.6601 H   0  0  0  0  0  0  0  0  0  0  0  0
  141.3730   81.6900  221.7800 C   0  0  0  0  0  0  0  0  0  0  0  0
  140.6790   82.8620  221.1330 C   0  0  0  0  0  0  0  0  0  0  0  0
  140.7740   82.7960  219.7540 F   0  0  0  0  0  0  0  0  0  0  0  0
  141.2660   84.0350  221.5680 F   0  0  0  0  0  0  0  0  0  0  0  0
  139.3370   82.8750  221.4750 F   0  0  0  0  0  0  0  0  0  0  0  0
  141.4740   80.4660  221.0950 C   0  0  0  0  0  0  0  0  0  0  0  0
  141.0744   80.3795  220.0738 H   0  0  0  0  0  0  0  0  0  0  0  0
  142.0810   79.3500  221.7020 C   0  0  0  0  0  0  0  0  0  0  0  0
  142.1550   78.0930  221.0030 N   0  0  0  0  0  0  0  0  0  0  0  0
  143.0630   77.6130  221.2050 H   0  0  0  0  0  0  0  0  0  0  0  0
  142.1150   78.2560  219.9690 H   0  0  0  0  0  0  0  0  0  0  0  0
  141.0520   77.2600  221.4020 C   0  0  0  0  0  0  0  0  0  0  0  0
  139.8550   77.8300  221.7140 N   0  0  0  0  0  0  0  0  0  0  0  0
  138.8330   77.0450  222.1240 C   0  0  0  0  0  0  0  0  0  0  0  0
  137.5670   77.4580  222.4670 C   0  0  0  0  0  0  0  0  0  0  0  0
  137.1601   78.4799  222.4725 H   0  0  0  0  0  0  0  0  0  0  0  0
  136.9280   76.2760  222.8040 C   0  0  0  0  0  0  0  0  0  0  0  0
  135.8828   76.1933  223.1367 H   0  0  0  0  0  0  0  0  0  0  0  0
  137.7830   75.2410  222.6620 N   0  0  0  0  0  0  0  0  0  0  0  0
  137.5190   74.2590  222.8650 H   0  0  0  0  0  0  0  0  0  0  0  0
  138.9540   75.7100  222.2470 N   0  0  0  0  0  0  0  0  0  0  0  0
  140.1400   75.0700  221.9570 C   0  0  0  0  0  0  0  0  0  0  0  0
  140.3490   73.7820  222.0470 N   0  0  0  0  0  0  0  0  0  0  0  0
  139.4530   72.6480  222.2500 C   0  0  0  0  0  0  0  0  0  0  0  0
  139.3979   72.0622  221.3206 H   0  0  0  0  0  0  0  0  0  0  0  0
  138.4589   73.0314  222.5234 H   0  0  0  0  0  0  0  0  0  0  0  0
  139.9550   71.7490  223.3780 C   0  0  0  0  0  0  0  0  0  0  0  0
  139.7021   72.2019  224.3480 H   0  0  0  0  0  0  0  0  0  0  0  0
  139.4781   70.7609  223.2992 H   0  0  0  0  0  0  0  0  0  0  0  0
  141.0464   71.6367  223.2992 H   0  0  0  0  0  0  0  0  0  0  0  0
  141.2140   75.8660  221.5250 C   0  0  0  0  0  0  0  0  0  0  0  0
  142.1810   75.4010  221.2829 H   0  0  0  0  0  0  0  0  0  0  0  0
  142.5590   79.4610  223.0180 C   0  0  0  0  0  0  0  0  0  0  0  0
  143.0290   78.5939  223.5050 H   0  0  0  0  0  0  0  0  0  0  0  0
  1  2  1  0
  2  3  2  0
  3  4  1  0
  3  5  1  0
  5  6  1  0
  6  7  1  0
  6  8  1  0
  6  9  1  0
  5 10  2  0
 10 11  1  0
 10 12  1  0
 12 13  1  0
 13 14  1  0
 13 15  1  0
 13 16  1  0
 16 17  1  0
 17 18  2  0
 18 19  1  0
 19 20  1  0
 19 21  2  0
 21 22  1  0
 21 23  1  0
 23 24  1  0
 23 25  1  0
 25 26  1  0
 26 27  2  0
 27 28  1  0
 28 29  1  0
 28 30  1  0
 28 31  1  0
 31 32  1  0
 31 33  1  0
 31 34  1  0
 26 35  1  0
 35 36  1  0
 12 37  2  0
 37 38  1  0
 37  2  1  0
 35 16  2  0
 25 18  1  0
M  CHG  1  13   1
M  END
>  <UniqueID>  (63) 
8

>  <SMILES>  (63) 
CC/N=c1/cc([NH2+]c2cccc(C(F)(F)F)c2)nc2cc[nH]n12

>  <Energy>  (63) 
87.97094418657713

>  <Genealogy>  (63) 
CCN=c1cc([NH2+]c2cccc(C(F)(F)F)c2)[nH]c2ccnn12 (protonated)
CCN=c1cc([NH2+]c2cccc(C(F)(F)F)c2)nc2cc[nH]n12 (tautomer)
CC/N=c1/cc([NH2+]c2cccc(C(F)(F)F)c2)nc2cc[nH]n12 (cis-trans isomerization)
CC/N=c1/cc([NH2+]c2cccc(C(F)(F)F)c2)nc2cc[nH]n12 (3D coordinates assigned)
CC/N=c1/cc([NH2+]c2cccc(C(F)(F)F)c2)nc2cc[nH]n12 (optimized conformer: 87.97094418657713 kcal/mol)

>  <smiles>  (63) 
CCN=c1cc(Nc2cccc(C(F)(F)F)c2)[nH]c2ccnn12

>  <score_type>  (63) 
oracle

>  <origin>  (63) 
autodockgpu

>  <m_score__min__energy>  (63) 
-6.3099999999999996

>  <m_primary>  (63) 
energy

>  <meeko>  (63) 
{"free_energy": -6.26, "intermolecular_energy": -7.75, "internal_energy": -0.46, "cluster_size": 19, "cluster_id": 1, "rank_in_cluster": 14}

>  <energy>  (63) 
-6.3

>  <cluster_rmsd>  (63) 
0.06

>  <rmsd>  (63) 
272.51

>  <cluster>  (63) 
1

$$$$
RBQYZXQNNWWOGL-SGOQHWLPNA-O
     RDKit          3D

 38 40  0  0  0  0  0  0  0  0999 V2000
  142.8122   80.6354  224.8627 H   0  0  0  0  0  0  0  0  0  0  0  0
  142.4380   80.5960  223.8290 C   0  0  0  0  0  0  0  0  0  0  0  0
  141.8360   81.7220  223.2640 C   0  0  0  0  0  0  0  0  0  0  0  0
  141.7256   82.6399  223.8601 H   0  0  0  0  0  0  0  0  0  0  0  0
  141.3700   81.6900  221.9380 C   0  0  0  0  0  0  0  0  0  0  0  0
  140.6700   82.8830  221.3380 C   0  0  0  0  0  0  0  0  0  0  0  0
  141.3770   84.0480  221.5820 F   0  0  0  0  0  0  0  0  0  0  0  0
  139.4090   82.9980  221.8940 F   0  0  0  0  0  0  0  0  0  0  0  0
  140.5460   82.7300  219.9680 F   0  0  0  0  0  0  0  0  0  0  0  0
  141.4810   80.4960  221.2040 C   0  0  0  0  0  0  0  0  0  0  0  0
  141.0849   80.4489  220.1789 H   0  0  0  0  0  0  0  0  0  0  0  0
  142.0930   79.3610  221.7660 C   0  0  0  0  0  0  0  0  0  0  0  0
  142.1780   78.1340  221.0160 N   0  0  0  0  0  0  0  0  0  0  0  0
  143.0900   77.6540  221.1980 H   0  0  0  0  0  0  0  0  0  0  0  0
  142.1350   78.3380  219.9900 H   0  0  0  0  0  0  0  0  0  0  0  0
  141.0830   77.2760  221.3810 C   0  0  0  0  0  0  0  0  0  0  0  0
  139.8690   77.8200  221.6750 N   0  0  0  0  0  0  0  0  0  0  0  0
  138.8540   77.0100  222.0540 C   0  0  0  0  0  0  0  0  0  0  0  0
  137.5730   77.3950  222.3750 C   0  0  0  0  0  0  0  0  0  0  0  0
  137.1465   78.4089  222.3841 H   0  0  0  0  0  0  0  0  0  0  0  0
  136.9500   76.1970  222.6840 C   0  0  0  0  0  0  0  0  0  0  0  0
  135.9000   76.0906  222.9940 H   0  0  0  0  0  0  0  0  0  0  0  0
  137.8270   75.1800  222.5470 N   0  0  0  0  0  0  0  0  0  0  0  0
  137.5770   74.1910  222.7310 H   0  0  0  0  0  0  0  0  0  0  0  0
  138.9960   75.6760  222.1620 N   0  0  0  0  0  0  0  0  0  0  0  0
  140.2000   75.0610  221.8890 C   0  0  0  0  0  0  0  0  0  0  0  0
  140.4320   73.7770  221.9660 N   0  0  0  0  0  0  0  0  0  0  0  0
  139.5860   72.6410  222.3210 C   0  0  0  0  0  0  0  0  0  0  0  0
  139.4575   71.9982  221.4377 H   0  0  0  0  0  0  0  0  0  0  0  0
  138.6131   73.0223  222.6648 H   0  0  0  0  0  0  0  0  0  0  0  0
  140.2140   71.8220  223.4480 C   0  0  0  0  0  0  0  0  0  0  0  0
  139.8993   72.2324  224.4188 H   0  0  0  0  0  0  0  0  0  0  0  0
  139.8847   70.7755  223.3682 H   0  0  0  0  0  0  0  0  0  0  0  0
  141.3101   71.8685  223.3682 H   0  0  0  0  0  0  0  0  0  0  0  0
  141.2680   75.8830  221.4890 C   0  0  0  0  0  0  0  0  0  0  0  0
  142.2481   75.4390  221.2603 H   0  0  0  0  0  0  0  0  0  0  0  0
  142.5670   79.4200  223.0870 C   0  0  0  0  0  0  0  0  0  0  0  0
  143.0416   78.5365  223.5387 H   0  0  0  0  0  0  0  0  0  0  0  0
  1  2  1  0
  2  3  2  0
  3  4  1  0
  3  5  1  0
  5  6  1  0
  6  7  1  0
  6  8  1  0
  6  9  1  0
  5 10  2  0
 10 11  1  0
 10 12  1  0
 12 13  1  0
 13 14  1  0
 13 15  1  0
 13 16  1  0
 16 17  1  0
 17 18  2  0
 18 19  1  0
 19 20  1  0
 19 21  2  0
 21 22  1  0
 21 23  1  0
 23 24  1  0
 23 25  1  0
 25 26  1  0
 26 27  2  0
 27 28  1  0
 28 29  1  0
 28 30  1  0
 28 31  1  0
 31 32  1  0
 31 33  1  0
 31 34  1  0
 26 35  1  0
 35 36  1  0
 12 37  2  0
 37 38  1  0
 37  2  1  0
 35 16  2  0
 25 18  1  0
M  CHG  1  13   1
M  END
>  <UniqueID>  (64) 
8

>  <SMILES>  (64) 
CC/N=c1/cc([NH2+]c2cccc(C(F)(F)F)c2)nc2cc[nH]n12

>  <Energy>  (64) 
87.97094418657713

>  <Genealogy>  (64) 
CCN=c1cc([NH2+]c2cccc(C(F)(F)F)c2)[nH]c2ccnn12 (protonated)
CCN=c1cc([NH2+]c2cccc(C(F)(F)F)c2)nc2cc[nH]n12 (tautomer)
CC/N=c1/cc([NH2+]c2cccc(C(F)(F)F)c2)nc2cc[nH]n12 (cis-trans isomerization)
CC/N=c1/cc([NH2+]c2cccc(C(F)(F)F)c2)nc2cc[nH]n12 (3D coordinates assigned)
CC/N=c1/cc([NH2+]c2cccc(C(F)(F)F)c2)nc2cc[nH]n12 (optimized conformer: 87.97094418657713 kcal/mol)

>  <smiles>  (64) 
CCN=c1cc(Nc2cccc(C(F)(F)F)c2)[nH]c2ccnn12

>  <score_type>  (64) 
oracle

>  <origin>  (64) 
autodockgpu

>  <m_score__min__energy>  (64) 
-6.3099999999999996

>  <m_primary>  (64) 
energy

>  <meeko>  (64) 
{"free_energy": -6.3, "intermolecular_energy": -7.79, "internal_energy": -0.46, "cluster_size": 19, "cluster_id": 1, "rank_in_cluster": 8}

>  <energy>  (64) 
-6.3

>  <cluster_rmsd>  (64) 
0.03

>  <rmsd>  (64) 
272.51

>  <cluster>  (64) 
1

$$$$
RBQYZXQNNWWOGL-SGOQHWLPNA-O
     RDKit          3D

 38 40  0  0  0  0  0  0  0  0999 V2000
  142.8087   80.6042  224.8593 H   0  0  0  0  0  0  0  0  0  0  0  0
  142.4390   80.5650  223.8240 C   0  0  0  0  0  0  0  0  0  0  0  0
  141.8380   81.6910  223.2580 C   0  0  0  0  0  0  0  0  0  0  0  0
  141.7246   82.6086  223.8540 H   0  0  0  0  0  0  0  0  0  0  0  0
  141.3770   81.6580  221.9300 C   0  0  0  0  0  0  0  0  0  0  0  0
  140.6780   82.8510  221.3270 C   0  0  0  0  0  0  0  0  0  0  0  0
  139.4010   82.9900  221.8430 F   0  0  0  0  0  0  0  0  0  0  0  0
  140.5930   82.6850  219.9570 F   0  0  0  0  0  0  0  0  0  0  0  0
  141.3830   84.0100  221.5980 F   0  0  0  0  0  0  0  0  0  0  0  0
  141.4930   80.4650  221.1960 C   0  0  0  0  0  0  0  0  0  0  0  0
  141.1011   80.4179  220.1693 H   0  0  0  0  0  0  0  0  0  0  0  0
  142.1050   79.3300  221.7600 C   0  0  0  0  0  0  0  0  0  0  0  0
  142.1940   78.1030  221.0100 N   0  0  0  0  0  0  0  0  0  0  0  0
  143.1080   77.6270  221.1920 H   0  0  0  0  0  0  0  0  0  0  0  0
  142.1500   78.3080  219.9840 H   0  0  0  0  0  0  0  0  0  0  0  0
  141.1020   77.2410  221.3750 C   0  0  0  0  0  0  0  0  0  0  0  0
  139.8850   77.7800  221.6660 N   0  0  0  0  0  0  0  0  0  0  0  0
  138.8730   76.9670  222.0460 C   0  0  0  0  0  0  0  0  0  0  0  0
  137.5910   77.3460  222.3650 C   0  0  0  0  0  0  0  0  0  0  0  0
  137.1604   78.3582  222.3723 H   0  0  0  0  0  0  0  0  0  0  0  0
  136.9720   76.1470  222.6750 C   0  0  0  0  0  0  0  0  0  0  0  0
  135.9219   76.0370  222.9834 H   0  0  0  0  0  0  0  0  0  0  0  0
  137.8540   75.1330  222.5410 N   0  0  0  0  0  0  0  0  0  0  0  0
  137.6090   74.1430  222.7270 H   0  0  0  0  0  0  0  0  0  0  0  0
  139.0220   75.6340  222.1570 N   0  0  0  0  0  0  0  0  0  0  0  0
  140.2290   75.0240  221.8870 C   0  0  0  0  0  0  0  0  0  0  0  0
  140.4660   73.7400  221.9670 N   0  0  0  0  0  0  0  0  0  0  0  0
  139.6220   72.6010  222.3100 C   0  0  0  0  0  0  0  0  0  0  0  0
  139.4951   71.9664  221.4205 H   0  0  0  0  0  0  0  0  0  0  0  0
  138.6483   72.9778  222.6564 H   0  0  0  0  0  0  0  0  0  0  0  0
  140.2500   71.7720  223.4300 C   0  0  0  0  0  0  0  0  0  0  0  0
  139.9418   72.1789  224.4044 H   0  0  0  0  0  0  0  0  0  0  0  0
  139.9142   70.7279  223.3458 H   0  0  0  0  0  0  0  0  0  0  0  0
  141.3460   71.8126  223.3458 H   0  0  0  0  0  0  0  0  0  0  0  0
  141.2940   75.8490  221.4870 C   0  0  0  0  0  0  0  0  0  0  0  0
  142.2766   75.4089  221.2615 H   0  0  0  0  0  0  0  0  0  0  0  0
  142.5730   79.3900  223.0830 C   0  0  0  0  0  0  0  0  0  0  0  0
  143.0471   78.5072  223.5369 H   0  0  0  0  0  0  0  0  0  0  0  0
  1  2  1  0
  2  3  2  0
  3  4  1  0
  3  5  1  0
  5  6  1  0
  6  7  1  0
  6  8  1  0
  6  9  1  0
  5 10  2  0
 10 11  1  0
 10 12  1  0
 12 13  1  0
 13 14  1  0
 13 15  1  0
 13 16  1  0
 16 17  1  0
 17 18  2  0
 18 19  1  0
 19 20  1  0
 19 21  2  0
 21 22  1  0
 21 23  1  0
 23 24  1  0
 23 25  1  0
 25 26  1  0
 26 27  2  0
 27 28  1  0
 28 29  1  0
 28 30  1  0
 28 31  1  0
 31 32  1  0
 31 33  1  0
 31 34  1  0
 26 35  1  0
 35 36  1  0
 12 37  2  0
 37 38  1  0
 37  2  1  0
 35 16  2  0
 25 18  1  0
M  CHG  1  13   1
M  END
>  <UniqueID>  (65) 
8

>  <SMILES>  (65) 
CC/N=c1/cc([NH2+]c2cccc(C(F)(F)F)c2)nc2cc[nH]n12

>  <Energy>  (65) 
87.97094418657713

>  <Genealogy>  (65) 
CCN=c1cc([NH2+]c2cccc(C(F)(F)F)c2)[nH]c2ccnn12 (protonated)
CCN=c1cc([NH2+]c2cccc(C(F)(F)F)c2)nc2cc[nH]n12 (tautomer)
CC/N=c1/cc([NH2+]c2cccc(C(F)(F)F)c2)nc2cc[nH]n12 (cis-trans isomerization)
CC/N=c1/cc([NH2+]c2cccc(C(F)(F)F)c2)nc2cc[nH]n12 (3D coordinates assigned)
CC/N=c1/cc([NH2+]c2cccc(C(F)(F)F)c2)nc2cc[nH]n12 (optimized conformer: 87.97094418657713 kcal/mol)

>  <smiles>  (65) 
CCN=c1cc(Nc2cccc(C(F)(F)F)c2)[nH]c2ccnn12

>  <score_type>  (65) 
oracle

>  <origin>  (65) 
autodockgpu

>  <m_score__min__energy>  (65) 
-6.3099999999999996

>  <m_primary>  (65) 
energy

>  <meeko>  (65) 
{"free_energy": -6.3, "intermolecular_energy": -7.8, "internal_energy": -0.46, "cluster_size": 19, "cluster_id": 1, "rank_in_cluster": 3}

>  <energy>  (65) 
-6.3

>  <cluster_rmsd>  (65) 
0.03

>  <rmsd>  (65) 
272.51

>  <cluster>  (65) 
1

$$$$
RBQYZXQNNWWOGL-SGOQHWLPNA-O
     RDKit          3D

 38 40  0  0  0  0  0  0  0  0999 V2000
  142.8215   80.7931  224.7362 H   0  0  0  0  0  0  0  0  0  0  0  0
  142.4430   80.7070  223.7070 C   0  0  0  0  0  0  0  0  0  0  0  0
  141.8410   81.8070  223.0940 C   0  0  0  0  0  0  0  0  0  0  0  0
  141.7353   82.7517  223.6474 H   0  0  0  0  0  0  0  0  0  0  0  0
  141.3690   81.7140  221.7730 C   0  0  0  0  0  0  0  0  0  0  0  0
  140.6680   82.8800  221.1210 C   0  0  0  0  0  0  0  0  0  0  0  0
  140.8130   82.8400  219.7450 F   0  0  0  0  0  0  0  0  0  0  0  0
  141.2110   84.0600  221.5950 F   0  0  0  0  0  0  0  0  0  0  0  0
  139.3160   82.8550  221.4160 F   0  0  0  0  0  0  0  0  0  0  0  0
  141.4740   80.4870  221.0940 C   0  0  0  0  0  0  0  0  0  0  0  0
  141.0725   80.3934  220.0742 H   0  0  0  0  0  0  0  0  0  0  0  0
  142.0870   79.3780  221.7050 C   0  0  0  0  0  0  0  0  0  0  0  0
  142.1660   78.1170  221.0130 N   0  0  0  0  0  0  0  0  0  0  0  0
  143.0770   77.6430  221.2150 H   0  0  0  0  0  0  0  0  0  0  0  0
  142.1220   78.2740  219.9780 H   0  0  0  0  0  0  0  0  0  0  0  0
  141.0690   77.2810  221.4190 C   0  0  0  0  0  0  0  0  0  0  0  0
  139.8800   77.8480  221.7650 N   0  0  0  0  0  0  0  0  0  0  0  0
  138.8640   77.0590  222.1820 C   0  0  0  0  0  0  0  0  0  0  0  0
  137.6060   77.4690  222.5570 C   0  0  0  0  0  0  0  0  0  0  0  0
  137.2018   78.4916  222.5875 H   0  0  0  0  0  0  0  0  0  0  0  0
  136.9710   76.2830  222.8870 C   0  0  0  0  0  0  0  0  0  0  0  0
  135.9326   76.1973  223.2397 H   0  0  0  0  0  0  0  0  0  0  0  0
  137.8200   75.2480  222.7100 N   0  0  0  0  0  0  0  0  0  0  0  0
  137.5570   74.2640  222.9010 H   0  0  0  0  0  0  0  0  0  0  0  0
  138.9830   75.7220  222.2800 N   0  0  0  0  0  0  0  0  0  0  0  0
  140.1610   75.0830  221.9550 C   0  0  0  0  0  0  0  0  0  0  0  0
  140.3690   73.7930  222.0180 N   0  0  0  0  0  0  0  0  0  0  0  0
  139.4790   72.6620  222.2580 C   0  0  0  0  0  0  0  0  0  0  0  0
  139.3843   72.0758  221.3321 H   0  0  0  0  0  0  0  0  0  0  0  0
  138.4977   73.0481  222.5712 H   0  0  0  0  0  0  0  0  0  0  0  0
  140.0250   71.7620  223.3660 C   0  0  0  0  0  0  0  0  0  0  0  0
  139.7660   72.1889  224.3461 H   0  0  0  0  0  0  0  0  0  0  0  0
  139.5831   70.7588  223.2747 H   0  0  0  0  0  0  0  0  0  0  0  0
  141.1189   71.6905  223.2747 H   0  0  0  0  0  0  0  0  0  0  0  0
  141.2290   75.8840  221.5150 C   0  0  0  0  0  0  0  0  0  0  0  0
  142.1896   75.4206  221.2456 H   0  0  0  0  0  0  0  0  0  0  0  0
  142.5670   79.4980  223.0200 C   0  0  0  0  0  0  0  0  0  0  0  0
  143.0425   78.6357  223.5103 H   0  0  0  0  0  0  0  0  0  0  0  0
  1  2  1  0
  2  3  2  0
  3  4  1  0
  3  5  1  0
  5  6  1  0
  6  7  1  0
  6  8  1  0
  6  9  1  0
  5 10  2  0
 10 11  1  0
 10 12  1  0
 12 13  1  0
 13 14  1  0
 13 15  1  0
 13 16  1  0
 16 17  1  0
 17 18  2  0
 18 19  1  0
 19 20  1  0
 19 21  2  0
 21 22  1  0
 21 23  1  0
 23 24  1  0
 23 25  1  0
 25 26  1  0
 26 27  2  0
 27 28  1  0
 28 29  1  0
 28 30  1  0
 28 31  1  0
 31 32  1  0
 31 33  1  0
 31 34  1  0
 26 35  1  0
 35 36  1  0
 12 37  2  0
 37 38  1  0
 37  2  1  0
 35 16  2  0
 25 18  1  0
M  CHG  1  13   1
M  END
>  <UniqueID>  (66) 
8

>  <SMILES>  (66) 
CC/N=c1/cc([NH2+]c2cccc(C(F)(F)F)c2)nc2cc[nH]n12

>  <Energy>  (66) 
87.97094418657713

>  <Genealogy>  (66) 
CCN=c1cc([NH2+]c2cccc(C(F)(F)F)c2)[nH]c2ccnn12 (protonated)
CCN=c1cc([NH2+]c2cccc(C(F)(F)F)c2)nc2cc[nH]n12 (tautomer)
CC/N=c1/cc([NH2+]c2cccc(C(F)(F)F)c2)nc2cc[nH]n12 (cis-trans isomerization)
CC/N=c1/cc([NH2+]c2cccc(C(F)(F)F)c2)nc2cc[nH]n12 (3D coordinates assigned)
CC/N=c1/cc([NH2+]c2cccc(C(F)(F)F)c2)nc2cc[nH]n12 (optimized conformer: 87.97094418657713 kcal/mol)

>  <smiles>  (66) 
CCN=c1cc(Nc2cccc(C(F)(F)F)c2)[nH]c2ccnn12

>  <score_type>  (66) 
oracle

>  <origin>  (66) 
autodockgpu

>  <m_score__min__energy>  (66) 
-6.3099999999999996

>  <m_primary>  (66) 
energy

>  <meeko>  (66) 
{"free_energy": -6.28, "intermolecular_energy": -7.77, "internal_energy": -0.46, "cluster_size": 19, "cluster_id": 1, "rank_in_cluster": 12}

>  <energy>  (66) 
-6.3

>  <cluster_rmsd>  (66) 
0.08

>  <rmsd>  (66) 
272.53

>  <cluster>  (66) 
1

$$$$
RBQYZXQNNWWOGL-SGOQHWLPNA-O
     RDKit          3D

 38 40  0  0  0  0  0  0  0  0999 V2000
  142.8259   80.6501  224.8380 H   0  0  0  0  0  0  0  0  0  0  0  0
  142.4510   80.6010  223.8050 C   0  0  0  0  0  0  0  0  0  0  0  0
  141.8430   81.7200  223.2320 C   0  0  0  0  0  0  0  0  0  0  0  0
  141.7312   82.6428  223.8201 H   0  0  0  0  0  0  0  0  0  0  0  0
  141.3730   81.6740  221.9080 C   0  0  0  0  0  0  0  0  0  0  0  0
  140.6650   82.8590  221.3000 C   0  0  0  0  0  0  0  0  0  0  0  0
  140.5470   82.7160  219.9280 F   0  0  0  0  0  0  0  0  0  0  0  0
  141.3840   84.0070  221.5720 F   0  0  0  0  0  0  0  0  0  0  0  0
  139.3940   82.9860  221.8330 F   0  0  0  0  0  0  0  0  0  0  0  0
  141.4880   80.4750  221.1830 C   0  0  0  0  0  0  0  0  0  0  0  0
  141.0899   80.4179  220.1592 H   0  0  0  0  0  0  0  0  0  0  0  0
  142.1070   79.3470  221.7530 C   0  0  0  0  0  0  0  0  0  0  0  0
  142.1960   78.1140  221.0130 N   0  0  0  0  0  0  0  0  0  0  0  0
  143.1090   77.6370  221.2020 H   0  0  0  0  0  0  0  0  0  0  0  0
  142.1560   78.3100  219.9850 H   0  0  0  0  0  0  0  0  0  0  0  0
  141.1010   77.2570  221.3810 C   0  0  0  0  0  0  0  0  0  0  0  0
  139.8890   77.8030  221.6790 N   0  0  0  0  0  0  0  0  0  0  0  0
  138.8740   76.9950  222.0620 C   0  0  0  0  0  0  0  0  0  0  0  0
  137.5940   77.3810  222.3870 C   0  0  0  0  0  0  0  0  0  0  0  0
  137.1684   78.3953  222.3973 H   0  0  0  0  0  0  0  0  0  0  0  0
  136.9710   76.1840  222.6980 C   0  0  0  0  0  0  0  0  0  0  0  0
  135.9219   76.0788  223.0116 H   0  0  0  0  0  0  0  0  0  0  0  0
  137.8460   75.1660  222.5580 N   0  0  0  0  0  0  0  0  0  0  0  0
  137.5960   74.1770  222.7430 H   0  0  0  0  0  0  0  0  0  0  0  0
  139.0150   75.6610  222.1700 N   0  0  0  0  0  0  0  0  0  0  0  0
  140.2170   75.0450  221.8930 C   0  0  0  0  0  0  0  0  0  0  0  0
  140.4480   73.7590  221.9700 N   0  0  0  0  0  0  0  0  0  0  0  0
  139.6010   72.6250  222.3260 C   0  0  0  0  0  0  0  0  0  0  0  0
  139.4644   71.9859  221.4412 H   0  0  0  0  0  0  0  0  0  0  0  0
  138.6314   73.0076  222.6774 H   0  0  0  0  0  0  0  0  0  0  0  0
  140.2350   71.8000  223.4460 C   0  0  0  0  0  0  0  0  0  0  0  0
  139.9241   72.2046  224.4205 H   0  0  0  0  0  0  0  0  0  0  0  0
  139.9064   70.7536  223.3617 H   0  0  0  0  0  0  0  0  0  0  0  0
  141.3307   71.8482  223.3617 H   0  0  0  0  0  0  0  0  0  0  0  0
  141.2850   75.8640  221.4900 C   0  0  0  0  0  0  0  0  0  0  0  0
  142.2640   75.4184  221.2598 H   0  0  0  0  0  0  0  0  0  0  0  0
  142.5850   79.4200  223.0720 C   0  0  0  0  0  0  0  0  0  0  0  0
  143.0668   78.5432  223.5293 H   0  0  0  0  0  0  0  0  0  0  0  0
  1  2  1  0
  2  3  2  0
  3  4  1  0
  3  5  1  0
  5  6  1  0
  6  7  1  0
  6  8  1  0
  6  9  1  0
  5 10  2  0
 10 11  1  0
 10 12  1  0
 12 13  1  0
 13 14  1  0
 13 15  1  0
 13 16  1  0
 16 17  1  0
 17 18  2  0
 18 19  1  0
 19 20  1  0
 19 21  2  0
 21 22  1  0
 21 23  1  0
 23 24  1  0
 23 25  1  0
 25 26  1  0
 26 27  2  0
 27 28  1  0
 28 29  1  0
 28 30  1  0
 28 31  1  0
 31 32  1  0
 31 33  1  0
 31 34  1  0
 26 35  1  0
 35 36  1  0
 12 37  2  0
 37 38  1  0
 37  2  1  0
 35 16  2  0
 25 18  1  0
M  CHG  1  13   1
M  END
>  <UniqueID>  (67) 
8

>  <SMILES>  (67) 
CC/N=c1/cc([NH2+]c2cccc(C(F)(F)F)c2)nc2cc[nH]n12

>  <Energy>  (67) 
87.97094418657713

>  <Genealogy>  (67) 
CCN=c1cc([NH2+]c2cccc(C(F)(F)F)c2)[nH]c2ccnn12 (protonated)
CCN=c1cc([NH2+]c2cccc(C(F)(F)F)c2)nc2cc[nH]n12 (tautomer)
CC/N=c1/cc([NH2+]c2cccc(C(F)(F)F)c2)nc2cc[nH]n12 (cis-trans isomerization)
CC/N=c1/cc([NH2+]c2cccc(C(F)(F)F)c2)nc2cc[nH]n12 (3D coordinates assigned)
CC/N=c1/cc([NH2+]c2cccc(C(F)(F)F)c2)nc2cc[nH]n12 (optimized conformer: 87.97094418657713 kcal/mol)

>  <smiles>  (67) 
CCN=c1cc(Nc2cccc(C(F)(F)F)c2)[nH]c2ccnn12

>  <score_type>  (67) 
oracle

>  <origin>  (67) 
autodockgpu

>  <m_score__min__energy>  (67) 
-6.3099999999999996

>  <m_primary>  (67) 
energy

>  <meeko>  (67) 
{"free_energy": -6.3, "intermolecular_energy": -7.8, "internal_energy": -0.46, "cluster_size": 19, "cluster_id": 1, "rank_in_cluster": 4}

>  <energy>  (67) 
-6.3

>  <cluster_rmsd>  (67) 
0.02

>  <rmsd>  (67) 
272.52

>  <cluster>  (67) 
1

$$$$
RBQYZXQNNWWOGL-SGOQHWLPNA-O
     RDKit          3D

 38 40  0  0  0  0  0  0  0  0999 V2000
  141.6635   72.4703  226.7061 H   0  0  0  0  0  0  0  0  0  0  0  0
  141.1300   71.6630  226.1830 C   0  0  0  0  0  0  0  0  0  0  0  0
  140.8930   70.4510  226.8340 C   0  0  0  0  0  0  0  0  0  0  0  0
  141.2523   70.3037  227.8632 H   0  0  0  0  0  0  0  0  0  0  0  0
  140.1980   69.4180  226.1820 C   0  0  0  0  0  0  0  0  0  0  0  0
  139.9860   68.0860  226.8580 C   0  0  0  0  0  0  0  0  0  0  0  0
  141.1270   67.3060  226.7890 F   0  0  0  0  0  0  0  0  0  0  0  0
  138.9480   67.4190  226.2330 F   0  0  0  0  0  0  0  0  0  0  0  0
  139.6660   68.2690  228.1920 F   0  0  0  0  0  0  0  0  0  0  0  0
  139.7820   69.6070  224.8530 C   0  0  0  0  0  0  0  0  0  0  0  0
  139.2708   68.7905  224.3219 H   0  0  0  0  0  0  0  0  0  0  0  0
  140.0120   70.8290  224.1940 C   0  0  0  0  0  0  0  0  0  0  0  0
  139.6070   71.0050  222.8230 N   0  0  0  0  0  0  0  0  0  0  0  0
  138.5750   71.1690  222.7630 H   0  0  0  0  0  0  0  0  0  0  0  0
  139.8140   70.1370  222.2750 H   0  0  0  0  0  0  0  0  0  0  0  0
  140.3220   72.1150  222.2530 C   0  0  0  0  0  0  0  0  0  0  0  0
  139.8640   73.3840  222.4470 N   0  0  0  0  0  0  0  0  0  0  0  0
  140.5200   74.4200  221.8770 C   0  0  0  0  0  0  0  0  0  0  0  0
  140.1960   75.7530  221.9790 C   0  0  0  0  0  0  0  0  0  0  0  0
  139.3620   76.2130  222.5294 H   0  0  0  0  0  0  0  0  0  0  0  0
  141.1740   76.3760  221.2210 C   0  0  0  0  0  0  0  0  0  0  0  0
  141.2548   77.4610  221.0592 H   0  0  0  0  0  0  0  0  0  0  0  0
  142.0130   75.4490  220.7110 N   0  0  0  0  0  0  0  0  0  0  0  0
  142.8200   75.6900  220.1070 H   0  0  0  0  0  0  0  0  0  0  0  0
  141.6130   74.2480  221.1110 N   0  0  0  0  0  0  0  0  0  0  0  0
  142.1240   72.9910  220.8650 C   0  0  0  0  0  0  0  0  0  0  0  0
  143.1770   72.7280  220.1370 N   0  0  0  0  0  0  0  0  0  0  0  0
  144.5820   72.5170  220.4720 C   0  0  0  0  0  0  0  0  0  0  0  0
  145.0976   72.0814  219.6034 H   0  0  0  0  0  0  0  0  0  0  0  0
  144.6386   71.8365  221.3344 H   0  0  0  0  0  0  0  0  0  0  0  0
  145.2590   73.8350  220.8460 C   0  0  0  0  0  0  0  0  0  0  0  0
  145.3055   73.9255  221.9413 H   0  0  0  0  0  0  0  0  0  0  0  0
  146.2783   73.8538  220.4330 H   0  0  0  0  0  0  0  0  0  0  0  0
  144.6805   74.6745  220.4330 H   0  0  0  0  0  0  0  0  0  0  0  0
  141.4600   71.8990  221.4510 C   0  0  0  0  0  0  0  0  0  0  0  0
  141.8289   70.8764  221.2834 H   0  0  0  0  0  0  0  0  0  0  0  0
  140.6930   71.8550  224.8710 C   0  0  0  0  0  0  0  0  0  0  0  0
  140.8825   72.8133  224.3652 H   0  0  0  0  0  0  0  0  0  0  0  0
  1  2  1  0
  2  3  2  0
  3  4  1  0
  3  5  1  0
  5  6  1  0
  6  7  1  0
  6  8  1  0
  6  9  1  0
  5 10  2  0
 10 11  1  0
 10 12  1  0
 12 13  1  0
 13 14  1  0
 13 15  1  0
 13 16  1  0
 16 17  1  0
 17 18  2  0
 18 19  1  0
 19 20  1  0
 19 21  2  0
 21 22  1  0
 21 23  1  0
 23 24  1  0
 23 25  1  0
 25 26  1  0
 26 27  2  0
 27 28  1  0
 28 29  1  0
 28 30  1  0
 28 31  1  0
 31 32  1  0
 31 33  1  0
 31 34  1  0
 26 35  1  0
 35 36  1  0
 12 37  2  0
 37 38  1  0
 37  2  1  0
 35 16  2  0
 25 18  1  0
M  CHG  1  13   1
M  END
>  <UniqueID>  (68) 
8

>  <SMILES>  (68) 
CC/N=c1/cc([NH2+]c2cccc(C(F)(F)F)c2)nc2cc[nH]n12

>  <Energy>  (68) 
87.97094418657713

>  <Genealogy>  (68) 
CCN=c1cc([NH2+]c2cccc(C(F)(F)F)c2)[nH]c2ccnn12 (protonated)
CCN=c1cc([NH2+]c2cccc(C(F)(F)F)c2)nc2cc[nH]n12 (tautomer)
CC/N=c1/cc([NH2+]c2cccc(C(F)(F)F)c2)nc2cc[nH]n12 (cis-trans isomerization)
CC/N=c1/cc([NH2+]c2cccc(C(F)(F)F)c2)nc2cc[nH]n12 (3D coordinates assigned)
CC/N=c1/cc([NH2+]c2cccc(C(F)(F)F)c2)nc2cc[nH]n12 (optimized conformer: 87.97094418657713 kcal/mol)

>  <smiles>  (68) 
CCN=c1cc(Nc2cccc(C(F)(F)F)c2)[nH]c2ccnn12

>  <score_type>  (68) 
oracle

>  <origin>  (68) 
autodockgpu

>  <m_score__min__energy>  (68) 
-6.3099999999999996

>  <m_primary>  (68) 
energy

>  <meeko>  (68) 
{"free_energy": -5.74, "intermolecular_energy": -7.23, "internal_energy": -0.43, "cluster_size": 1, "cluster_id": 2, "rank_in_cluster": 1}

>  <energy>  (68) 
-6.3

>  <cluster_rmsd>  (68) 
0.04

>  <rmsd>  (68) 
272.52

>  <cluster>  (68) 
1

$$$$
RBQYZXQNNWWOGL-SGOQHWLPNA-O
     RDKit          3D

 38 40  0  0  0  0  0  0  0  0999 V2000
  142.7639   80.8359  224.7004 H   0  0  0  0  0  0  0  0  0  0  0  0
  142.4040   80.7440  223.6650 C   0  0  0  0  0  0  0  0  0  0  0  0
  141.8250   81.8450  223.0300 C   0  0  0  0  0  0  0  0  0  0  0  0
  141.7198   82.7963  223.5722 H   0  0  0  0  0  0  0  0  0  0  0  0
  141.3760   81.7440  221.7020 C   0  0  0  0  0  0  0  0  0  0  0  0
  140.7000   82.9100  221.0260 C   0  0  0  0  0  0  0  0  0  0  0  0
  139.3240   82.8280  221.1530 F   0  0  0  0  0  0  0  0  0  0  0  0
  141.0280   82.9110  219.6830 F   0  0  0  0  0  0  0  0  0  0  0  0
  141.1170   84.1030  221.5930 F   0  0  0  0  0  0  0  0  0  0  0  0
  141.4820   80.5100  221.0370 C   0  0  0  0  0  0  0  0  0  0  0  0
  141.0995   80.4108  220.0104 H   0  0  0  0  0  0  0  0  0  0  0  0
  142.0720   79.4000  221.6700 C   0  0  0  0  0  0  0  0  0  0  0  0
  142.1510   78.1320  220.9910 N   0  0  0  0  0  0  0  0  0  0  0  0
  143.0600   77.6580  221.2010 H   0  0  0  0  0  0  0  0  0  0  0  0
  142.1090   78.2780  219.9550 H   0  0  0  0  0  0  0  0  0  0  0  0
  141.0510   77.3020  221.4030 C   0  0  0  0  0  0  0  0  0  0  0  0
  139.8640   77.8760  221.7460 N   0  0  0  0  0  0  0  0  0  0  0  0
  138.8460   77.0920  222.1690 C   0  0  0  0  0  0  0  0  0  0  0  0
  137.5890   77.5080  222.5420 C   0  0  0  0  0  0  0  0  0  0  0  0
  137.1882   78.5321  222.5666 H   0  0  0  0  0  0  0  0  0  0  0  0
  136.9500   76.3270  222.8790 C   0  0  0  0  0  0  0  0  0  0  0  0
  135.9113   76.2470  223.2323 H   0  0  0  0  0  0  0  0  0  0  0  0
  137.7960   75.2880  222.7080 N   0  0  0  0  0  0  0  0  0  0  0  0
  137.5300   74.3060  222.9050 H   0  0  0  0  0  0  0  0  0  0  0  0
  138.9600   75.7550  222.2740 N   0  0  0  0  0  0  0  0  0  0  0  0
  140.1360   75.1110  221.9530 C   0  0  0  0  0  0  0  0  0  0  0  0
  140.3390   73.8210  222.0230 N   0  0  0  0  0  0  0  0  0  0  0  0
  139.4440   72.6930  222.2630 C   0  0  0  0  0  0  0  0  0  0  0  0
  139.3456   72.1084  221.3364 H   0  0  0  0  0  0  0  0  0  0  0  0
  138.4650   73.0832  222.5782 H   0  0  0  0  0  0  0  0  0  0  0  0
  139.9870   71.7890  223.3690 C   0  0  0  0  0  0  0  0  0  0  0  0
  139.7308   72.2155  224.3500 H   0  0  0  0  0  0  0  0  0  0  0  0
  139.5406   70.7879  223.2765 H   0  0  0  0  0  0  0  0  0  0  0  0
  141.0805   71.7128  223.2765 H   0  0  0  0  0  0  0  0  0  0  0  0
  141.2060   75.9050  221.5070 C   0  0  0  0  0  0  0  0  0  0  0  0
  142.1644   75.4364  221.2391 H   0  0  0  0  0  0  0  0  0  0  0  0
  142.5280   79.5280  222.9920 C   0  0  0  0  0  0  0  0  0  0  0  0
  142.9851   78.6656  223.4994 H   0  0  0  0  0  0  0  0  0  0  0  0
  1  2  1  0
  2  3  2  0
  3  4  1  0
  3  5  1  0
  5  6  1  0
  6  7  1  0
  6  8  1  0
  6  9  1  0
  5 10  2  0
 10 11  1  0
 10 12  1  0
 12 13  1  0
 13 14  1  0
 13 15  1  0
 13 16  1  0
 16 17  1  0
 17 18  2  0
 18 19  1  0
 19 20  1  0
 19 21  2  0
 21 22  1  0
 21 23  1  0
 23 24  1  0
 23 25  1  0
 25 26  1  0
 26 27  2  0
 27 28  1  0
 28 29  1  0
 28 30  1  0
 28 31  1  0
 31 32  1  0
 31 33  1  0
 31 34  1  0
 26 35  1  0
 35 36  1  0
 12 37  2  0
 37 38  1  0
 37  2  1  0
 35 16  2  0
 25 18  1  0
M  CHG  1  13   1
M  END
>  <UniqueID>  (69) 
8

>  <SMILES>  (69) 
CC/N=c1/cc([NH2+]c2cccc(C(F)(F)F)c2)nc2cc[nH]n12

>  <Energy>  (69) 
87.97094418657713

>  <Genealogy>  (69) 
CCN=c1cc([NH2+]c2cccc(C(F)(F)F)c2)[nH]c2ccnn12 (protonated)
CCN=c1cc([NH2+]c2cccc(C(F)(F)F)c2)nc2cc[nH]n12 (tautomer)
CC/N=c1/cc([NH2+]c2cccc(C(F)(F)F)c2)nc2cc[nH]n12 (cis-trans isomerization)
CC/N=c1/cc([NH2+]c2cccc(C(F)(F)F)c2)nc2cc[nH]n12 (3D coordinates assigned)
CC/N=c1/cc([NH2+]c2cccc(C(F)(F)F)c2)nc2cc[nH]n12 (optimized conformer: 87.97094418657713 kcal/mol)

>  <smiles>  (69) 
CCN=c1cc(Nc2cccc(C(F)(F)F)c2)[nH]c2ccnn12

>  <score_type>  (69) 
oracle

>  <origin>  (69) 
autodockgpu

>  <m_score__min__energy>  (69) 
-6.3099999999999996

>  <m_primary>  (69) 
energy

>  <meeko>  (69) 
{"free_energy": -6.26, "intermolecular_energy": -7.75, "internal_energy": -0.46, "cluster_size": 19, "cluster_id": 1, "rank_in_cluster": 15}

>  <energy>  (69) 
-6.3

>  <cluster_rmsd>  (69) 
0.06

>  <rmsd>  (69) 
272.54

>  <cluster>  (69) 
1

$$$$
RBQYZXQNNWWOGL-SGOQHWLPNA-O
     RDKit          3D

 38 40  0  0  0  0  0  0  0  0999 V2000
  142.6801   80.8944  224.6621 H   0  0  0  0  0  0  0  0  0  0  0  0
  142.3570   80.7790  223.6170 C   0  0  0  0  0  0  0  0  0  0  0  0
  141.8040   81.8650  222.9370 C   0  0  0  0  0  0  0  0  0  0  0  0
  141.6810   82.8284  223.4535 H   0  0  0  0  0  0  0  0  0  0  0  0
  141.4030   81.7350  221.5950 C   0  0  0  0  0  0  0  0  0  0  0  0
  140.7550   82.8870  220.8690 C   0  0  0  0  0  0  0  0  0  0  0  0
  141.3060   83.0550  219.6110 F   0  0  0  0  0  0  0  0  0  0  0  0
  140.9390   84.0470  221.5990 F   0  0  0  0  0  0  0  0  0  0  0  0
  139.3970   82.6600  220.7210 F   0  0  0  0  0  0  0  0  0  0  0  0
  141.5290   80.4860  220.9630 C   0  0  0  0  0  0  0  0  0  0  0  0
  141.1829   80.3638  219.9260 H   0  0  0  0  0  0  0  0  0  0  0  0
  142.0930   79.3900  221.6420 C   0  0  0  0  0  0  0  0  0  0  0  0
  142.1930   78.1070  220.9950 N   0  0  0  0  0  0  0  0  0  0  0  0
  143.1020   77.6450  221.2320 H   0  0  0  0  0  0  0  0  0  0  0  0
  142.1690   78.2270  219.9550 H   0  0  0  0  0  0  0  0  0  0  0  0
  141.0920   77.2780  221.4080 C   0  0  0  0  0  0  0  0  0  0  0  0
  139.9110   77.8540  221.7670 N   0  0  0  0  0  0  0  0  0  0  0  0
  138.8930   77.0720  222.1900 C   0  0  0  0  0  0  0  0  0  0  0  0
  137.6420   77.4910  222.5790 C   0  0  0  0  0  0  0  0  0  0  0  0
  137.2473   78.5170  222.6185 H   0  0  0  0  0  0  0  0  0  0  0  0
  136.9990   76.3090  222.9090 C   0  0  0  0  0  0  0  0  0  0  0  0
  135.9629   76.2305  223.2700 H   0  0  0  0  0  0  0  0  0  0  0  0
  137.8380   75.2680  222.7200 N   0  0  0  0  0  0  0  0  0  0  0  0
  137.5680   74.2850  222.9100 H   0  0  0  0  0  0  0  0  0  0  0  0
  139.0010   75.7330  222.2810 N   0  0  0  0  0  0  0  0  0  0  0  0
  140.1700   75.0860  221.9430 C   0  0  0  0  0  0  0  0  0  0  0  0
  140.3670   73.7940  221.9990 N   0  0  0  0  0  0  0  0  0  0  0  0
  139.4900   72.6760  222.3320 C   0  0  0  0  0  0  0  0  0  0  0  0
  139.3640   72.0405  221.4431 H   0  0  0  0  0  0  0  0  0  0  0  0
  138.5196   73.0773  222.6595 H   0  0  0  0  0  0  0  0  0  0  0  0
  140.0780   71.8380  223.4660 C   0  0  0  0  0  0  0  0  0  0  0  0
  139.7770   72.2670  224.4331 H   0  0  0  0  0  0  0  0  0  0  0  0
  139.7050   70.8059  223.3907 H   0  0  0  0  0  0  0  0  0  0  0  0
  141.1754   71.8377  223.3907 H   0  0  0  0  0  0  0  0  0  0  0  0
  141.2410   75.8790  221.4970 C   0  0  0  0  0  0  0  0  0  0  0  0
  142.1951   75.4083  221.2175 H   0  0  0  0  0  0  0  0  0  0  0  0
  142.5020   79.5470  222.9770 C   0  0  0  0  0  0  0  0  0  0  0  0
  142.9382   78.6956  223.5200 H   0  0  0  0  0  0  0  0  0  0  0  0
  1  2  1  0
  2  3  2  0
  3  4  1  0
  3  5  1  0
  5  6  1  0
  6  7  1  0
  6  8  1  0
  6  9  1  0
  5 10  2  0
 10 11  1  0
 10 12  1  0
 12 13  1  0
 13 14  1  0
 13 15  1  0
 13 16  1  0
 16 17  1  0
 17 18  2  0
 18 19  1  0
 19 20  1  0
 19 21  2  0
 21 22  1  0
 21 23  1  0
 23 24  1  0
 23 25  1  0
 25 26  1  0
 26 27  2  0
 27 28  1  0
 28 29  1  0
 28 30  1  0
 28 31  1  0
 31 32  1  0
 31 33  1  0
 31 34  1  0
 26 35  1  0
 35 36  1  0
 12 37  2  0
 37 38  1  0
 37  2  1  0
 35 16  2  0
 25 18  1  0
M  CHG  1  13   1
M  END
>  <UniqueID>  (70) 
8

>  <SMILES>  (70) 
CC/N=c1/cc([NH2+]c2cccc(C(F)(F)F)c2)nc2cc[nH]n12

>  <Energy>  (70) 
87.97094418657713

>  <Genealogy>  (70) 
CCN=c1cc([NH2+]c2cccc(C(F)(F)F)c2)[nH]c2ccnn12 (protonated)
CCN=c1cc([NH2+]c2cccc(C(F)(F)F)c2)nc2cc[nH]n12 (tautomer)
CC/N=c1/cc([NH2+]c2cccc(C(F)(F)F)c2)nc2cc[nH]n12 (cis-trans isomerization)
CC/N=c1/cc([NH2+]c2cccc(C(F)(F)F)c2)nc2cc[nH]n12 (3D coordinates assigned)
CC/N=c1/cc([NH2+]c2cccc(C(F)(F)F)c2)nc2cc[nH]n12 (optimized conformer: 87.97094418657713 kcal/mol)

>  <smiles>  (70) 
CCN=c1cc(Nc2cccc(C(F)(F)F)c2)[nH]c2ccnn12

>  <score_type>  (70) 
oracle

>  <origin>  (70) 
autodockgpu

>  <m_score__min__energy>  (70) 
-6.3099999999999996

>  <m_primary>  (70) 
energy

>  <meeko>  (70) 
{"free_energy": -6.22, "intermolecular_energy": -7.71, "internal_energy": -0.47, "cluster_size": 19, "cluster_id": 1, "rank_in_cluster": 17}

>  <energy>  (70) 
-6.3

>  <cluster_rmsd>  (70) 
0.04

>  <rmsd>  (70) 
272.51

>  <cluster>  (70) 
1

$$$$
RBQYZXQNNWWOGL-SGOQHWLPNA-O
     RDKit          3D

 38 40  0  0  0  0  0  0  0  0999 V2000
  142.8359   80.6639  224.8331 H   0  0  0  0  0  0  0  0  0  0  0  0
  142.4590   80.6120  223.8010 C   0  0  0  0  0  0  0  0  0  0  0  0
  141.8650   81.7340  223.2210 C   0  0  0  0  0  0  0  0  0  0  0  0
  141.7647   82.6618  223.8034 H   0  0  0  0  0  0  0  0  0  0  0  0
  141.3940   81.6860  221.8970 C   0  0  0  0  0  0  0  0  0  0  0  0
  140.7020   82.8750  221.2810 C   0  0  0  0  0  0  0  0  0  0  0  0
  139.4040   82.9910  221.7480 F   0  0  0  0  0  0  0  0  0  0  0  0
  140.6730   82.7230  219.9070 F   0  0  0  0  0  0  0  0  0  0  0  0
  141.3800   84.0410  221.5910 F   0  0  0  0  0  0  0  0  0  0  0  0
  141.4930   80.4800  221.1810 C   0  0  0  0  0  0  0  0  0  0  0  0
  141.0923   80.4204  220.1583 H   0  0  0  0  0  0  0  0  0  0  0  0
  142.0990   79.3480  221.7580 C   0  0  0  0  0  0  0  0  0  0  0  0
  142.1710   78.1090  221.0270 N   0  0  0  0  0  0  0  0  0  0  0  0
  143.0790   77.6240  221.2150 H   0  0  0  0  0  0  0  0  0  0  0  0
  142.1290   78.2980  219.9980 H   0  0  0  0  0  0  0  0  0  0  0  0
  141.0690   77.2670  221.4060 C   0  0  0  0  0  0  0  0  0  0  0  0
  139.8600   77.8260  221.6920 N   0  0  0  0  0  0  0  0  0  0  0  0
  138.8380   77.0320  222.0850 C   0  0  0  0  0  0  0  0  0  0  0  0
  137.5610   77.4330  222.4010 C   0  0  0  0  0  0  0  0  0  0  0  0
  137.1438   78.4508  222.3948 H   0  0  0  0  0  0  0  0  0  0  0  0
  136.9270   76.2460  222.7290 C   0  0  0  0  0  0  0  0  0  0  0  0
  135.8761   76.1541  223.0407 H   0  0  0  0  0  0  0  0  0  0  0  0
  137.7950   75.2190  222.6080 N   0  0  0  0  0  0  0  0  0  0  0  0
  137.5370   74.2350  222.8080 H   0  0  0  0  0  0  0  0  0  0  0  0
  138.9690   75.6990  222.2140 N   0  0  0  0  0  0  0  0  0  0  0  0
  140.1670   75.0690  221.9510 C   0  0  0  0  0  0  0  0  0  0  0  0
  140.3870   73.7840  222.0480 N   0  0  0  0  0  0  0  0  0  0  0  0
  140.7110   72.7600  221.0600 C   0  0  0  0  0  0  0  0  0  0  0  0
  140.2284   73.0157  220.1052 H   0  0  0  0  0  0  0  0  0  0  0  0
  140.3463   71.7897  221.4280 H   0  0  0  0  0  0  0  0  0  0  0  0
  142.2210   72.6640  220.8470 C   0  0  0  0  0  0  0  0  0  0  0  0
  142.7276   72.6318  221.8229 H   0  0  0  0  0  0  0  0  0  0  0  0
  142.4542   71.7492  220.2824 H   0  0  0  0  0  0  0  0  0  0  0  0
  142.5682   73.5419  220.2824 H   0  0  0  0  0  0  0  0  0  0  0  0
  141.2420   75.8740  221.5370 C   0  0  0  0  0  0  0  0  0  0  0  0
  142.2179   75.4174  221.3153 H   0  0  0  0  0  0  0  0  0  0  0  0
  142.5770   79.4240  223.0770 C   0  0  0  0  0  0  0  0  0  0  0  0
  143.0461   78.5440  223.5412 H   0  0  0  0  0  0  0  0  0  0  0  0
  1  2  1  0
  2  3  2  0
  3  4  1  0
  3  5  1  0
  5  6  1  0
  6  7  1  0
  6  8  1  0
  6  9  1  0
  5 10  2  0
 10 11  1  0
 10 12  1  0
 12 13  1  0
 13 14  1  0
 13 15  1  0
 13 16  1  0
 16 17  1  0
 17 18  2  0
 18 19  1  0
 19 20  1  0
 19 21  2  0
 21 22  1  0
 21 23  1  0
 23 24  1  0
 23 25  1  0
 25 26  1  0
 26 27  2  0
 27 28  1  0
 28 29  1  0
 28 30  1  0
 28 31  1  0
 31 32  1  0
 31 33  1  0
 31 34  1  0
 26 35  1  0
 35 36  1  0
 12 37  2  0
 37 38  1  0
 37  2  1  0
 35 16  2  0
 25 18  1  0
M  CHG  1  13   1
M  END
>  <UniqueID>  (71) 
8

>  <SMILES>  (71) 
CC/N=c1/cc([NH2+]c2cccc(C(F)(F)F)c2)nc2cc[nH]n12

>  <Energy>  (71) 
87.97094418657713

>  <Genealogy>  (71) 
CCN=c1cc([NH2+]c2cccc(C(F)(F)F)c2)[nH]c2ccnn12 (protonated)
CCN=c1cc([NH2+]c2cccc(C(F)(F)F)c2)nc2cc[nH]n12 (tautomer)
CC/N=c1/cc([NH2+]c2cccc(C(F)(F)F)c2)nc2cc[nH]n12 (cis-trans isomerization)
CC/N=c1/cc([NH2+]c2cccc(C(F)(F)F)c2)nc2cc[nH]n12 (3D coordinates assigned)
CC/N=c1/cc([NH2+]c2cccc(C(F)(F)F)c2)nc2cc[nH]n12 (optimized conformer: 87.97094418657713 kcal/mol)

>  <smiles>  (71) 
CCN=c1cc(Nc2cccc(C(F)(F)F)c2)[nH]c2ccnn12

>  <score_type>  (71) 
oracle

>  <origin>  (71) 
autodockgpu

>  <m_score__min__energy>  (71) 
-6.3099999999999996

>  <m_primary>  (71) 
energy

>  <meeko>  (71) 
{"free_energy": -6.13, "intermolecular_energy": -7.62, "internal_energy": -0.44, "cluster_size": 19, "cluster_id": 1, "rank_in_cluster": 18}

>  <energy>  (71) 
-6.3

>  <cluster_rmsd>  (71) 
0.1

>  <rmsd>  (71) 
272.51

>  <cluster>  (71) 
1

$$$$
RBQYZXQNNWWOGL-SGOQHWLPNA-O
     RDKit          3D

 38 40  0  0  0  0  0  0  0  0999 V2000
  142.8484   80.7311  224.7753 H   0  0  0  0  0  0  0  0  0  0  0  0
  142.4590   80.6600  223.7490 C   0  0  0  0  0  0  0  0  0  0  0  0
  141.8510   81.7690  223.1580 C   0  0  0  0  0  0  0  0  0  0  0  0
  141.7525   82.7058  223.7261 H   0  0  0  0  0  0  0  0  0  0  0  0
  141.3640   81.6960  221.8420 C   0  0  0  0  0  0  0  0  0  0  0  0
  140.6560   82.8710  221.2150 C   0  0  0  0  0  0  0  0  0  0  0  0
  141.2530   84.0640  221.5840 F   0  0  0  0  0  0  0  0  0  0  0  0
  139.3370   82.8820  221.6280 F   0  0  0  0  0  0  0  0  0  0  0  0
  140.6950   82.7760  219.8340 F   0  0  0  0  0  0  0  0  0  0  0  0
  141.4610   80.4790  221.1440 C   0  0  0  0  0  0  0  0  0  0  0  0
  141.0485   80.4007  220.1273 H   0  0  0  0  0  0  0  0  0  0  0  0
  142.0800   79.3600  221.7320 C   0  0  0  0  0  0  0  0  0  0  0  0
  142.1500   78.1100  221.0200 N   0  0  0  0  0  0  0  0  0  0  0  0
  143.0590   77.6290  221.2110 H   0  0  0  0  0  0  0  0  0  0  0  0
  142.1020   78.2830  219.9880 H   0  0  0  0  0  0  0  0  0  0  0  0
  141.0500   77.2720  221.4190 C   0  0  0  0  0  0  0  0  0  0  0  0
  139.8600   77.8400  221.7630 N   0  0  0  0  0  0  0  0  0  0  0  0
  138.8430   77.0490  222.1730 C   0  0  0  0  0  0  0  0  0  0  0  0
  137.5840   77.4580  222.5460 C   0  0  0  0  0  0  0  0  0  0  0  0
  137.1804   78.4807  222.5803 H   0  0  0  0  0  0  0  0  0  0  0  0
  136.9470   76.2710  222.8680 C   0  0  0  0  0  0  0  0  0  0  0  0
  135.9074   76.1845  223.2168 H   0  0  0  0  0  0  0  0  0  0  0  0
  137.7950   75.2370  222.6890 N   0  0  0  0  0  0  0  0  0  0  0  0
  137.5310   74.2520  222.8740 H   0  0  0  0  0  0  0  0  0  0  0  0
  138.9600   75.7110  222.2650 N   0  0  0  0  0  0  0  0  0  0  0  0
  140.1390   75.0730  221.9410 C   0  0  0  0  0  0  0  0  0  0  0  0
  140.3450   73.7830  221.9990 N   0  0  0  0  0  0  0  0  0  0  0  0
  139.4790   72.6600  222.3450 C   0  0  0  0  0  0  0  0  0  0  0  0
  139.3280   72.0338  221.4534 H   0  0  0  0  0  0  0  0  0  0  0  0
  138.5176   73.0557  222.7043 H   0  0  0  0  0  0  0  0  0  0  0  0
  140.1020   71.8110  223.4530 C   0  0  0  0  0  0  0  0  0  0  0  0
  139.8067   72.2134  224.4332 H   0  0  0  0  0  0  0  0  0  0  0  0
  139.7497   70.7730  223.3616 H   0  0  0  0  0  0  0  0  0  0  0  0
  141.1979   71.8357  223.3616 H   0  0  0  0  0  0  0  0  0  0  0  0
  141.2090   75.8750  221.5080 C   0  0  0  0  0  0  0  0  0  0  0  0
  142.1699   75.4122  221.2388 H   0  0  0  0  0  0  0  0  0  0  0  0
  142.5750   79.4610  223.0430 C   0  0  0  0  0  0  0  0  0  0  0  0
  143.0560   78.5917  223.5153 H   0  0  0  0  0  0  0  0  0  0  0  0
  1  2  1  0
  2  3  2  0
  3  4  1  0
  3  5  1  0
  5  6  1  0
  6  7  1  0
  6  8  1  0
  6  9  1  0
  5 10  2  0
 10 11  1  0
 10 12  1  0
 12 13  1  0
 13 14  1  0
 13 15  1  0
 13 16  1  0
 16 17  1  0
 17 18  2  0
 18 19  1  0
 19 20  1  0
 19 21  2  0
 21 22  1  0
 21 23  1  0
 23 24  1  0
 23 25  1  0
 25 26  1  0
 26 27  2  0
 27 28  1  0
 28 29  1  0
 28 30  1  0
 28 31  1  0
 31 32  1  0
 31 33  1  0
 31 34  1  0
 26 35  1  0
 35 36  1  0
 12 37  2  0
 37 38  1  0
 37  2  1  0
 35 16  2  0
 25 18  1  0
M  CHG  1  13   1
M  END
>  <UniqueID>  (72) 
8

>  <SMILES>  (72) 
CC/N=c1/cc([NH2+]c2cccc(C(F)(F)F)c2)nc2cc[nH]n12

>  <Energy>  (72) 
87.97094418657713

>  <Genealogy>  (72) 
CCN=c1cc([NH2+]c2cccc(C(F)(F)F)c2)[nH]c2ccnn12 (protonated)
CCN=c1cc([NH2+]c2cccc(C(F)(F)F)c2)nc2cc[nH]n12 (tautomer)
CC/N=c1/cc([NH2+]c2cccc(C(F)(F)F)c2)nc2cc[nH]n12 (cis-trans isomerization)
CC/N=c1/cc([NH2+]c2cccc(C(F)(F)F)c2)nc2cc[nH]n12 (3D coordinates assigned)
CC/N=c1/cc([NH2+]c2cccc(C(F)(F)F)c2)nc2cc[nH]n12 (optimized conformer: 87.97094418657713 kcal/mol)

>  <smiles>  (72) 
CCN=c1cc(Nc2cccc(C(F)(F)F)c2)[nH]c2ccnn12

>  <score_type>  (72) 
oracle

>  <origin>  (72) 
autodockgpu

>  <m_score__min__energy>  (72) 
-6.3099999999999996

>  <m_primary>  (72) 
energy

>  <meeko>  (72) 
{"free_energy": -6.3, "intermolecular_energy": -7.79, "internal_energy": -0.46, "cluster_size": 19, "cluster_id": 1, "rank_in_cluster": 11}

>  <energy>  (72) 
-6.28

>  <cluster_rmsd>  (72) 
0.15

>  <rmsd>  (72) 
272.5

>  <cluster>  (72) 
1

$$$$
RBQYZXQNNWWOGL-SGOQHWLPNA-O
     RDKit          3D

 38 40  0  0  0  0  0  0  0  0999 V2000
  142.8269   80.7248  224.8183 H   0  0  0  0  0  0  0  0  0  0  0  0
  142.4490   80.6640  223.7870 C   0  0  0  0  0  0  0  0  0  0  0  0
  141.8450   81.7780  223.2020 C   0  0  0  0  0  0  0  0  0  0  0  0
  141.7367   82.7079  223.7795 H   0  0  0  0  0  0  0  0  0  0  0  0
  141.3740   81.7180  221.8780 C   0  0  0  0  0  0  0  0  0  0  0  0
  140.6710   82.8980  221.2550 C   0  0  0  0  0  0  0  0  0  0  0  0
  139.3640   82.9890  221.7000 F   0  0  0  0  0  0  0  0  0  0  0  0
  140.6690   82.7530  219.8810 F   0  0  0  0  0  0  0  0  0  0  0  0
  141.3230   84.0740  221.5830 F   0  0  0  0  0  0  0  0  0  0  0  0
  141.4830   80.5090  221.1690 C   0  0  0  0  0  0  0  0  0  0  0  0
  141.0828   80.4403  220.1467 H   0  0  0  0  0  0  0  0  0  0  0  0
  142.0980   79.3860  221.7520 C   0  0  0  0  0  0  0  0  0  0  0  0
  142.1810   78.1430  221.0280 N   0  0  0  0  0  0  0  0  0  0  0  0
  143.0940   77.6680  221.2150 H   0  0  0  0  0  0  0  0  0  0  0  0
  142.1320   78.3260  219.9980 H   0  0  0  0  0  0  0  0  0  0  0  0
  141.0880   77.2910  221.4160 C   0  0  0  0  0  0  0  0  0  0  0  0
  139.8910   77.8440  221.7610 N   0  0  0  0  0  0  0  0  0  0  0  0
  138.8810   77.0390  222.1620 C   0  0  0  0  0  0  0  0  0  0  0  0
  137.6170   77.4330  222.5340 C   0  0  0  0  0  0  0  0  0  0  0  0
  137.2032   78.4514  222.5747 H   0  0  0  0  0  0  0  0  0  0  0  0
  136.9910   76.2370  222.8450 C   0  0  0  0  0  0  0  0  0  0  0  0
  135.9511   76.1370  223.1895 H   0  0  0  0  0  0  0  0  0  0  0  0
  137.8510   75.2130  222.6610 N   0  0  0  0  0  0  0  0  0  0  0  0
  137.5960   74.2240  222.8380 H   0  0  0  0  0  0  0  0  0  0  0  0
  139.0120   75.7030  222.2440 N   0  0  0  0  0  0  0  0  0  0  0  0
  140.1980   75.0790  221.9200 C   0  0  0  0  0  0  0  0  0  0  0  0
  140.4170   73.7910  221.9690 N   0  0  0  0  0  0  0  0  0  0  0  0
  139.5780   72.6610  222.3540 C   0  0  0  0  0  0  0  0  0  0  0  0
  139.4230   72.0132  221.4786 H   0  0  0  0  0  0  0  0  0  0  0  0
  138.6163   73.0478  222.7221 H   0  0  0  0  0  0  0  0  0  0  0  0
  140.2340   71.8470  223.4680 C   0  0  0  0  0  0  0  0  0  0  0  0
  139.9169   72.2405  224.4451 H   0  0  0  0  0  0  0  0  0  0  0  0
  139.9294   70.7936  223.3805 H   0  0  0  0  0  0  0  0  0  0  0  0
  141.3280   71.9208  223.3805 H   0  0  0  0  0  0  0  0  0  0  0  0
  141.2610   75.8950  221.4970 C   0  0  0  0  0  0  0  0  0  0  0  0
  142.2279   75.4440  221.2292 H   0  0  0  0  0  0  0  0  0  0  0  0
  142.5760   79.4730  223.0700 C   0  0  0  0  0  0  0  0  0  0  0  0
  143.0522   78.5993  223.5389 H   0  0  0  0  0  0  0  0  0  0  0  0
  1  2  1  0
  2  3  2  0
  3  4  1  0
  3  5  1  0
  5  6  1  0
  6  7  1  0
  6  8  1  0
  6  9  1  0
  5 10  2  0
 10 11  1  0
 10 12  1  0
 12 13  1  0
 13 14  1  0
 13 15  1  0
 13 16  1  0
 16 17  1  0
 17 18  2  0
 18 19  1  0
 19 20  1  0
 19 21  2  0
 21 22  1  0
 21 23  1  0
 23 24  1  0
 23 25  1  0
 25 26  1  0
 26 27  2  0
 27 28  1  0
 28 29  1  0
 28 30  1  0
 28 31  1  0
 31 32  1  0
 31 33  1  0
 31 34  1  0
 26 35  1  0
 35 36  1  0
 12 37  2  0
 37 38  1  0
 37  2  1  0
 35 16  2  0
 25 18  1  0
M  CHG  1  13   1
M  END
>  <UniqueID>  (73) 
8

>  <SMILES>  (73) 
CC/N=c1/cc([NH2+]c2cccc(C(F)(F)F)c2)nc2cc[nH]n12

>  <Energy>  (73) 
87.97094418657713

>  <Genealogy>  (73) 
CCN=c1cc([NH2+]c2cccc(C(F)(F)F)c2)[nH]c2ccnn12 (protonated)
CCN=c1cc([NH2+]c2cccc(C(F)(F)F)c2)nc2cc[nH]n12 (tautomer)
CC/N=c1/cc([NH2+]c2cccc(C(F)(F)F)c2)nc2cc[nH]n12 (cis-trans isomerization)
CC/N=c1/cc([NH2+]c2cccc(C(F)(F)F)c2)nc2cc[nH]n12 (3D coordinates assigned)
CC/N=c1/cc([NH2+]c2cccc(C(F)(F)F)c2)nc2cc[nH]n12 (optimized conformer: 87.97094418657713 kcal/mol)

>  <smiles>  (73) 
CCN=c1cc(Nc2cccc(C(F)(F)F)c2)[nH]c2ccnn12

>  <score_type>  (73) 
oracle

>  <origin>  (73) 
autodockgpu

>  <m_score__min__energy>  (73) 
-6.3099999999999996

>  <m_primary>  (73) 
energy

>  <meeko>  (73) 
{"free_energy": -6.3, "intermolecular_energy": -7.79, "internal_energy": -0.47, "cluster_size": 19, "cluster_id": 1, "rank_in_cluster": 9}

>  <energy>  (73) 
-6.27

>  <cluster_rmsd>  (73) 
0.18

>  <rmsd>  (73) 
272.49

>  <cluster>  (73) 
1

$$$$
RBQYZXQNNWWOGL-SGOQHWLPNA-O
     RDKit          3D

 38 40  0  0  0  0  0  0  0  0999 V2000
  142.7981   80.6607  224.8524 H   0  0  0  0  0  0  0  0  0  0  0  0
  142.4270   80.6130  223.8180 C   0  0  0  0  0  0  0  0  0  0  0  0
  141.8280   81.7350  223.2420 C   0  0  0  0  0  0  0  0  0  0  0  0
  141.7176   82.6582  223.8299 H   0  0  0  0  0  0  0  0  0  0  0  0
  141.3650   81.6920  221.9150 C   0  0  0  0  0  0  0  0  0  0  0  0
  140.6680   82.8800  221.3020 C   0  0  0  0  0  0  0  0  0  0  0  0
  140.5630   82.7410  219.9290 F   0  0  0  0  0  0  0  0  0  0  0  0
  141.3890   84.0260  221.5840 F   0  0  0  0  0  0  0  0  0  0  0  0
  139.3930   83.0110  221.8230 F   0  0  0  0  0  0  0  0  0  0  0  0
  141.4770   80.4910  221.1920 C   0  0  0  0  0  0  0  0  0  0  0  0
  141.0834   80.4349  220.1664 H   0  0  0  0  0  0  0  0  0  0  0  0
  142.0870   79.3600  221.7660 C   0  0  0  0  0  0  0  0  0  0  0  0
  142.1720   78.1260  221.0270 N   0  0  0  0  0  0  0  0  0  0  0  0
  143.0830   77.6460  221.2160 H   0  0  0  0  0  0  0  0  0  0  0  0
  142.1330   78.3220  219.9990 H   0  0  0  0  0  0  0  0  0  0  0  0
  141.0740   77.2730  221.3950 C   0  0  0  0  0  0  0  0  0  0  0  0
  139.8640   77.8230  221.6960 N   0  0  0  0  0  0  0  0  0  0  0  0
  138.8470   77.0180  222.0780 C   0  0  0  0  0  0  0  0  0  0  0  0
  137.5690   77.4080  222.4060 C   0  0  0  0  0  0  0  0  0  0  0  0
  137.1474   78.4239  222.4187 H   0  0  0  0  0  0  0  0  0  0  0  0
  136.9420   76.2140  222.7160 C   0  0  0  0  0  0  0  0  0  0  0  0
  135.8928   76.1127  223.0305 H   0  0  0  0  0  0  0  0  0  0  0  0
  137.8130   75.1920  222.5740 N   0  0  0  0  0  0  0  0  0  0  0  0
  137.5590   74.2040  222.7580 H   0  0  0  0  0  0  0  0  0  0  0  0
  138.9830   75.6830  222.1840 N   0  0  0  0  0  0  0  0  0  0  0  0
  140.1830   75.0630  221.9050 C   0  0  0  0  0  0  0  0  0  0  0  0
  140.4080   73.7770  221.9800 N   0  0  0  0  0  0  0  0  0  0  0  0
  139.5550   72.6440  222.3230 C   0  0  0  0  0  0  0  0  0  0  0  0
  139.4245   72.0099  221.4337 H   0  0  0  0  0  0  0  0  0  0  0  0
  138.5839   73.0285  222.6682 H   0  0  0  0  0  0  0  0  0  0  0  0
  140.1750   71.8110  223.4440 C   0  0  0  0  0  0  0  0  0  0  0  0
  139.8695   72.2214  224.4178 H   0  0  0  0  0  0  0  0  0  0  0  0
  139.8304   70.7697  223.3606 H   0  0  0  0  0  0  0  0  0  0  0  0
  141.2714   71.8422  223.3606 H   0  0  0  0  0  0  0  0  0  0  0  0
  141.2530   75.8790  221.5020 C   0  0  0  0  0  0  0  0  0  0  0  0
  142.2302   75.4303  221.2700 H   0  0  0  0  0  0  0  0  0  0  0  0
  142.5570   79.4310  223.0870 C   0  0  0  0  0  0  0  0  0  0  0  0
  143.0298   78.5513  223.5480 H   0  0  0  0  0  0  0  0  0  0  0  0
  1  2  1  0
  2  3  2  0
  3  4  1  0
  3  5  1  0
  5  6  1  0
  6  7  1  0
  6  8  1  0
  6  9  1  0
  5 10  2  0
 10 11  1  0
 10 12  1  0
 12 13  1  0
 13 14  1  0
 13 15  1  0
 13 16  1  0
 16 17  1  0
 17 18  2  0
 18 19  1  0
 19 20  1  0
 19 21  2  0
 21 22  1  0
 21 23  1  0
 23 24  1  0
 23 25  1  0
 25 26  1  0
 26 27  2  0
 27 28  1  0
 28 29  1  0
 28 30  1  0
 28 31  1  0
 31 32  1  0
 31 33  1  0
 31 34  1  0
 26 35  1  0
 35 36  1  0
 12 37  2  0
 37 38  1  0
 37  2  1  0
 35 16  2  0
 25 18  1  0
M  CHG  1  13   1
M  END
>  <UniqueID>  (74) 
8

>  <SMILES>  (74) 
CC/N=c1/cc([NH2+]c2cccc(C(F)(F)F)c2)nc2cc[nH]n12

>  <Energy>  (74) 
87.97094418657713

>  <Genealogy>  (74) 
CCN=c1cc([NH2+]c2cccc(C(F)(F)F)c2)[nH]c2ccnn12 (protonated)
CCN=c1cc([NH2+]c2cccc(C(F)(F)F)c2)nc2cc[nH]n12 (tautomer)
CC/N=c1/cc([NH2+]c2cccc(C(F)(F)F)c2)nc2cc[nH]n12 (cis-trans isomerization)
CC/N=c1/cc([NH2+]c2cccc(C(F)(F)F)c2)nc2cc[nH]n12 (3D coordinates assigned)
CC/N=c1/cc([NH2+]c2cccc(C(F)(F)F)c2)nc2cc[nH]n12 (optimized conformer: 87.97094418657713 kcal/mol)

>  <smiles>  (74) 
CCN=c1cc(Nc2cccc(C(F)(F)F)c2)[nH]c2ccnn12

>  <score_type>  (74) 
oracle

>  <origin>  (74) 
autodockgpu

>  <m_score__min__energy>  (74) 
-6.3099999999999996

>  <m_primary>  (74) 
energy

>  <meeko>  (74) 
{"free_energy": -6.3, "intermolecular_energy": -7.79, "internal_energy": -0.46, "cluster_size": 19, "cluster_id": 1, "rank_in_cluster": 7}

>  <energy>  (74) 
-6.26

>  <cluster_rmsd>  (74) 
0.13

>  <rmsd>  (74) 
272.48

>  <cluster>  (74) 
1

$$$$
RBQYZXQNNWWOGL-SGOQHWLPNA-O
     RDKit          3D

 38 40  0  0  0  0  0  0  0  0999 V2000
  142.8119   80.6618  224.8471 H   0  0  0  0  0  0  0  0  0  0  0  0
  142.4430   80.6130  223.8120 C   0  0  0  0  0  0  0  0  0  0  0  0
  141.8480   81.7360  223.2330 C   0  0  0  0  0  0  0  0  0  0  0  0
  141.7380   82.6604  223.8190 H   0  0  0  0  0  0  0  0  0  0  0  0
  141.3890   81.6910  221.9050 C   0  0  0  0  0  0  0  0  0  0  0  0
  140.6960   82.8800  221.2880 C   0  0  0  0  0  0  0  0  0  0  0  0
  140.6100   82.7470  219.9130 F   0  0  0  0  0  0  0  0  0  0  0  0
  141.4090   84.0260  221.5850 F   0  0  0  0  0  0  0  0  0  0  0  0
  139.4130   83.0040  221.7930 F   0  0  0  0  0  0  0  0  0  0  0  0
  141.4990   80.4890  221.1840 C   0  0  0  0  0  0  0  0  0  0  0  0
  141.1072   80.4325  220.1577 H   0  0  0  0  0  0  0  0  0  0  0  0
  142.1050   79.3570  221.7610 C   0  0  0  0  0  0  0  0  0  0  0  0
  142.1890   78.1220  221.0250 N   0  0  0  0  0  0  0  0  0  0  0  0
  143.1000   77.6430  221.2140 H   0  0  0  0  0  0  0  0  0  0  0  0
  142.1480   78.3150  219.9960 H   0  0  0  0  0  0  0  0  0  0  0  0
  141.0920   77.2700  221.3970 C   0  0  0  0  0  0  0  0  0  0  0  0
  139.8840   77.8200  221.7050 N   0  0  0  0  0  0  0  0  0  0  0  0
  138.8680   77.0160  222.0910 C   0  0  0  0  0  0  0  0  0  0  0  0
  137.5930   77.4080  222.4260 C   0  0  0  0  0  0  0  0  0  0  0  0
  137.1734   78.4247  222.4435 H   0  0  0  0  0  0  0  0  0  0  0  0
  136.9650   76.2130  222.7360 C   0  0  0  0  0  0  0  0  0  0  0  0
  135.9171   76.1124  223.0552 H   0  0  0  0  0  0  0  0  0  0  0  0
  137.8340   75.1900  222.5870 N   0  0  0  0  0  0  0  0  0  0  0  0
  137.5790   74.2020  222.7700 H   0  0  0  0  0  0  0  0  0  0  0  0
  139.0030   75.6810  222.1930 N   0  0  0  0  0  0  0  0  0  0  0  0
  140.2000   75.0590  221.9060 C   0  0  0  0  0  0  0  0  0  0  0  0
  140.4240   73.7730  221.9760 N   0  0  0  0  0  0  0  0  0  0  0  0
  139.5700   72.6400  222.3210 C   0  0  0  0  0  0  0  0  0  0  0  0
  139.4348   72.0073  221.4314 H   0  0  0  0  0  0  0  0  0  0  0  0
  138.6007   73.0251  222.6706 H   0  0  0  0  0  0  0  0  0  0  0  0
  140.1940   71.8050  223.4380 C   0  0  0  0  0  0  0  0  0  0  0  0
  139.8899   72.2120  224.4136 H   0  0  0  0  0  0  0  0  0  0  0  0
  139.8512   70.7633  223.3523 H   0  0  0  0  0  0  0  0  0  0  0  0
  141.2901   71.8386  223.3523 H   0  0  0  0  0  0  0  0  0  0  0  0
  141.2690   75.8750  221.4990 C   0  0  0  0  0  0  0  0  0  0  0  0
  142.2440   75.4254  221.2599 H   0  0  0  0  0  0  0  0  0  0  0  0
  142.5720   79.4290  223.0840 C   0  0  0  0  0  0  0  0  0  0  0  0
  143.0412   78.5489  223.5480 H   0  0  0  0  0  0  0  0  0  0  0  0
  1  2  1  0
  2  3  2  0
  3  4  1  0
  3  5  1  0
  5  6  1  0
  6  7  1  0
  6  8  1  0
  6  9  1  0
  5 10  2  0
 10 11  1  0
 10 12  1  0
 12 13  1  0
 13 14  1  0
 13 15  1  0
 13 16  1  0
 16 17  1  0
 17 18  2  0
 18 19  1  0
 19 20  1  0
 19 21  2  0
 21 22  1  0
 21 23  1  0
 23 24  1  0
 23 25  1  0
 25 26  1  0
 26 27  2  0
 27 28  1  0
 28 29  1  0
 28 30  1  0
 28 31  1  0
 31 32  1  0
 31 33  1  0
 31 34  1  0
 26 35  1  0
 35 36  1  0
 12 37  2  0
 37 38  1  0
 37  2  1  0
 35 16  2  0
 25 18  1  0
M  CHG  1  13   1
M  END
>  <UniqueID>  (75) 
8

>  <SMILES>  (75) 
CC/N=c1/cc([NH2+]c2cccc(C(F)(F)F)c2)nc2cc[nH]n12

>  <Energy>  (75) 
87.97094418657713

>  <Genealogy>  (75) 
CCN=c1cc([NH2+]c2cccc(C(F)(F)F)c2)[nH]c2ccnn12 (protonated)
CCN=c1cc([NH2+]c2cccc(C(F)(F)F)c2)nc2cc[nH]n12 (tautomer)
CC/N=c1/cc([NH2+]c2cccc(C(F)(F)F)c2)nc2cc[nH]n12 (cis-trans isomerization)
CC/N=c1/cc([NH2+]c2cccc(C(F)(F)F)c2)nc2cc[nH]n12 (3D coordinates assigned)
CC/N=c1/cc([NH2+]c2cccc(C(F)(F)F)c2)nc2cc[nH]n12 (optimized conformer: 87.97094418657713 kcal/mol)

>  <smiles>  (75) 
CCN=c1cc(Nc2cccc(C(F)(F)F)c2)[nH]c2ccnn12

>  <score_type>  (75) 
oracle

>  <origin>  (75) 
autodockgpu

>  <m_score__min__energy>  (75) 
-6.3099999999999996

>  <m_primary>  (75) 
energy

>  <meeko>  (75) 
{"free_energy": -6.31, "intermolecular_energy": -7.8, "internal_energy": -0.46, "cluster_size": 19, "cluster_id": 1, "rank_in_cluster": 1}

>  <energy>  (75) 
-6.26

>  <cluster_rmsd>  (75) 
0.22

>  <rmsd>  (75) 
272.48

>  <cluster>  (75) 
1

$$$$
RBQYZXQNNWWOGL-SGOQHWLPNA-O
     RDKit          3D

 38 40  0  0  0  0  0  0  0  0999 V2000
  142.8158   80.8166  224.7619 H   0  0  0  0  0  0  0  0  0  0  0  0
  142.4350   80.7370  223.7330 C   0  0  0  0  0  0  0  0  0  0  0  0
  141.8270   81.8390  223.1300 C   0  0  0  0  0  0  0  0  0  0  0  0
  141.7179   82.7784  223.6918 H   0  0  0  0  0  0  0  0  0  0  0  0
  141.3530   81.7560  221.8090 C   0  0  0  0  0  0  0  0  0  0  0  0
  140.6460   82.9240  221.1680 C   0  0  0  0  0  0  0  0  0  0  0  0
  139.3020   82.9340  221.5010 F   0  0  0  0  0  0  0  0  0  0  0  0
  140.7680   82.8320  219.7950 F   0  0  0  0  0  0  0  0  0  0  0  0
  141.2070   84.1160  221.5920 F   0  0  0  0  0  0  0  0  0  0  0  0
  141.4620   80.5350  221.1200 C   0  0  0  0  0  0  0  0  0  0  0  0
  141.0597   80.4483  220.0999 H   0  0  0  0  0  0  0  0  0  0  0  0
  142.0800   79.4230  221.7210 C   0  0  0  0  0  0  0  0  0  0  0  0
  142.1630   78.1680  221.0180 N   0  0  0  0  0  0  0  0  0  0  0  0
  143.0750   77.6940  221.2180 H   0  0  0  0  0  0  0  0  0  0  0  0
  142.1200   78.3340  219.9850 H   0  0  0  0  0  0  0  0  0  0  0  0
  141.0670   77.3260  221.4150 C   0  0  0  0  0  0  0  0  0  0  0  0
  139.8740   77.8890  221.7580 N   0  0  0  0  0  0  0  0  0  0  0  0
  138.8590   77.0930  222.1670 C   0  0  0  0  0  0  0  0  0  0  0  0
  137.5980   77.4980  222.5380 C   0  0  0  0  0  0  0  0  0  0  0  0
  137.1907   78.5193  222.5717 H   0  0  0  0  0  0  0  0  0  0  0  0
  136.9650   76.3080  222.8590 C   0  0  0  0  0  0  0  0  0  0  0  0
  135.9252   76.2172  223.2062 H   0  0  0  0  0  0  0  0  0  0  0  0
  137.8180   75.2770  222.6810 N   0  0  0  0  0  0  0  0  0  0  0  0
  137.5580   74.2910  222.8660 H   0  0  0  0  0  0  0  0  0  0  0  0
  138.9820   75.7560  222.2580 N   0  0  0  0  0  0  0  0  0  0  0  0
  140.1640   75.1230  221.9370 C   0  0  0  0  0  0  0  0  0  0  0  0
  140.3750   73.8340  221.9940 N   0  0  0  0  0  0  0  0  0  0  0  0
  139.4750   72.6850  221.9810 C   0  0  0  0  0  0  0  0  0  0  0  0
  139.5776   72.1585  221.0206 H   0  0  0  0  0  0  0  0  0  0  0  0
  138.4444   73.0455  222.1146 H   0  0  0  0  0  0  0  0  0  0  0  0
  139.8040   71.7190  223.1180 C   0  0  0  0  0  0  0  0  0  0  0  0
  139.6341   72.2178  224.0836 H   0  0  0  0  0  0  0  0  0  0  0  0
  139.1572   70.8323  223.0445 H   0  0  0  0  0  0  0  0  0  0  0  0
  140.8576   71.4114  223.0445 H   0  0  0  0  0  0  0  0  0  0  0  0
  141.2310   75.9290  221.5050 C   0  0  0  0  0  0  0  0  0  0  0  0
  142.1940   75.4698  221.2372 H   0  0  0  0  0  0  0  0  0  0  0  0
  142.5620   79.5340  223.0360 C   0  0  0  0  0  0  0  0  0  0  0  0
  143.0414   78.6695  223.5184 H   0  0  0  0  0  0  0  0  0  0  0  0
  1  2  1  0
  2  3  2  0
  3  4  1  0
  3  5  1  0
  5  6  1  0
  6  7  1  0
  6  8  1  0
  6  9  1  0
  5 10  2  0
 10 11  1  0
 10 12  1  0
 12 13  1  0
 13 14  1  0
 13 15  1  0
 13 16  1  0
 16 17  1  0
 17 18  2  0
 18 19  1  0
 19 20  1  0
 19 21  2  0
 21 22  1  0
 21 23  1  0
 23 24  1  0
 23 25  1  0
 25 26  1  0
 26 27  2  0
 27 28  1  0
 28 29  1  0
 28 30  1  0
 28 31  1  0
 31 32  1  0
 31 33  1  0
 31 34  1  0
 26 35  1  0
 35 36  1  0
 12 37  2  0
 37 38  1  0
 37  2  1  0
 35 16  2  0
 25 18  1  0
M  CHG  1  13   1
M  END
>  <UniqueID>  (76) 
8

>  <SMILES>  (76) 
CC/N=c1/cc([NH2+]c2cccc(C(F)(F)F)c2)nc2cc[nH]n12

>  <Energy>  (76) 
87.97094418657713

>  <Genealogy>  (76) 
CCN=c1cc([NH2+]c2cccc(C(F)(F)F)c2)[nH]c2ccnn12 (protonated)
CCN=c1cc([NH2+]c2cccc(C(F)(F)F)c2)nc2cc[nH]n12 (tautomer)
CC/N=c1/cc([NH2+]c2cccc(C(F)(F)F)c2)nc2cc[nH]n12 (cis-trans isomerization)
CC/N=c1/cc([NH2+]c2cccc(C(F)(F)F)c2)nc2cc[nH]n12 (3D coordinates assigned)
CC/N=c1/cc([NH2+]c2cccc(C(F)(F)F)c2)nc2cc[nH]n12 (optimized conformer: 87.97094418657713 kcal/mol)

>  <smiles>  (76) 
CCN=c1cc(Nc2cccc(C(F)(F)F)c2)[nH]c2ccnn12

>  <score_type>  (76) 
oracle

>  <origin>  (76) 
autodockgpu

>  <m_score__min__energy>  (76) 
-6.3099999999999996

>  <m_primary>  (76) 
energy

>  <meeko>  (76) 
{"free_energy": -6.27, "intermolecular_energy": -7.76, "internal_energy": -0.47, "cluster_size": 19, "cluster_id": 1, "rank_in_cluster": 13}

>  <energy>  (76) 
-6.26

>  <cluster_rmsd>  (76) 
0.22

>  <rmsd>  (76) 
272.47

>  <cluster>  (76) 
1

$$$$
RBQYZXQNNWWOGL-SGOQHWLPNA-O
     RDKit          3D

 38 40  0  0  0  0  0  0  0  0999 V2000
  142.7822   80.8453  224.7169 H   0  0  0  0  0  0  0  0  0  0  0  0
  142.4150   80.7540  223.6840 C   0  0  0  0  0  0  0  0  0  0  0  0
  141.8210   81.8520  223.0580 C   0  0  0  0  0  0  0  0  0  0  0  0
  141.7100   82.7997  223.6054 H   0  0  0  0  0  0  0  0  0  0  0  0
  141.3640   81.7530  221.7320 C   0  0  0  0  0  0  0  0  0  0  0  0
  140.6720   82.9160  221.0670 C   0  0  0  0  0  0  0  0  0  0  0  0
  141.1220   84.1210  221.5780 F   0  0  0  0  0  0  0  0  0  0  0  0
  139.3100   82.8180  221.2810 F   0  0  0  0  0  0  0  0  0  0  0  0
  140.9160   82.9050  219.7040 F   0  0  0  0  0  0  0  0  0  0  0  0
  141.4750   80.5220  221.0620 C   0  0  0  0  0  0  0  0  0  0  0  0
  141.0846   80.4229  220.0384 H   0  0  0  0  0  0  0  0  0  0  0  0
  142.0800   79.4150  221.6860 C   0  0  0  0  0  0  0  0  0  0  0  0
  142.1650   78.1510  221.0000 N   0  0  0  0  0  0  0  0  0  0  0  0
  143.0750   77.6800  221.2100 H   0  0  0  0  0  0  0  0  0  0  0  0
  142.1250   78.3020  219.9650 H   0  0  0  0  0  0  0  0  0  0  0  0
  141.0670   77.3140  221.4060 C   0  0  0  0  0  0  0  0  0  0  0  0
  139.8780   77.8820  221.7520 N   0  0  0  0  0  0  0  0  0  0  0  0
  138.8620   77.0930  222.1690 C   0  0  0  0  0  0  0  0  0  0  0  0
  137.6040   77.5030  222.5440 C   0  0  0  0  0  0  0  0  0  0  0  0
  137.2002   78.5257  222.5752 H   0  0  0  0  0  0  0  0  0  0  0  0
  136.9680   76.3170  222.8730 C   0  0  0  0  0  0  0  0  0  0  0  0
  135.9293   76.2315  223.2249 H   0  0  0  0  0  0  0  0  0  0  0  0
  137.8170   75.2820  222.6960 N   0  0  0  0  0  0  0  0  0  0  0  0
  137.5540   74.2980  222.8870 H   0  0  0  0  0  0  0  0  0  0  0  0
  138.9810   75.7560  222.2660 N   0  0  0  0  0  0  0  0  0  0  0  0
  140.1590   75.1170  221.9420 C   0  0  0  0  0  0  0  0  0  0  0  0
  140.3660   73.8270  222.0050 N   0  0  0  0  0  0  0  0  0  0  0  0
  139.4610   72.6820  222.0190 C   0  0  0  0  0  0  0  0  0  0  0  0
  139.5326   72.1549  221.0561 H   0  0  0  0  0  0  0  0  0  0  0  0
  138.4363   73.0468  222.1830 H   0  0  0  0  0  0  0  0  0  0  0  0
  139.8200   71.7150  223.1460 C   0  0  0  0  0  0  0  0  0  0  0  0
  139.6399   72.2001  224.1167 H   0  0  0  0  0  0  0  0  0  0  0  0
  139.1973   70.8117  223.0664 H   0  0  0  0  0  0  0  0  0  0  0  0
  140.8813   71.4369  223.0664 H   0  0  0  0  0  0  0  0  0  0  0  0
  141.2270   75.9180  221.5020 C   0  0  0  0  0  0  0  0  0  0  0  0
  142.1876   75.4546  221.2327 H   0  0  0  0  0  0  0  0  0  0  0  0
  142.5450   79.5410  223.0050 C   0  0  0  0  0  0  0  0  0  0  0  0
  143.0135   78.6806  223.5053 H   0  0  0  0  0  0  0  0  0  0  0  0
  1  2  1  0
  2  3  2  0
  3  4  1  0
  3  5  1  0
  5  6  1  0
  6  7  1  0
  6  8  1  0
  6  9  1  0
  5 10  2  0
 10 11  1  0
 10 12  1  0
 12 13  1  0
 13 14  1  0
 13 15  1  0
 13 16  1  0
 16 17  1  0
 17 18  2  0
 18 19  1  0
 19 20  1  0
 19 21  2  0
 21 22  1  0
 21 23  1  0
 23 24  1  0
 23 25  1  0
 25 26  1  0
 26 27  2  0
 27 28  1  0
 28 29  1  0
 28 30  1  0
 28 31  1  0
 31 32  1  0
 31 33  1  0
 31 34  1  0
 26 35  1  0
 35 36  1  0
 12 37  2  0
 37 38  1  0
 37  2  1  0
 35 16  2  0
 25 18  1  0
M  CHG  1  13   1
M  END
>  <UniqueID>  (77) 
8

>  <SMILES>  (77) 
CC/N=c1/cc([NH2+]c2cccc(C(F)(F)F)c2)nc2cc[nH]n12

>  <Energy>  (77) 
87.97094418657713

>  <Genealogy>  (77) 
CCN=c1cc([NH2+]c2cccc(C(F)(F)F)c2)[nH]c2ccnn12 (protonated)
CCN=c1cc([NH2+]c2cccc(C(F)(F)F)c2)nc2cc[nH]n12 (tautomer)
CC/N=c1/cc([NH2+]c2cccc(C(F)(F)F)c2)nc2cc[nH]n12 (cis-trans isomerization)
CC/N=c1/cc([NH2+]c2cccc(C(F)(F)F)c2)nc2cc[nH]n12 (3D coordinates assigned)
CC/N=c1/cc([NH2+]c2cccc(C(F)(F)F)c2)nc2cc[nH]n12 (optimized conformer: 87.97094418657713 kcal/mol)

>  <smiles>  (77) 
CCN=c1cc(Nc2cccc(C(F)(F)F)c2)[nH]c2ccnn12

>  <score_type>  (77) 
oracle

>  <origin>  (77) 
autodockgpu

>  <m_score__min__energy>  (77) 
-6.3099999999999996

>  <m_primary>  (77) 
energy

>  <meeko>  (77) 
{"free_energy": -6.26, "intermolecular_energy": -7.75, "internal_energy": -0.47, "cluster_size": 19, "cluster_id": 1, "rank_in_cluster": 16}

>  <energy>  (77) 
-6.22

>  <cluster_rmsd>  (77) 
0.33

>  <rmsd>  (77) 
272.47

>  <cluster>  (77) 
1

$$$$
RBQYZXQNNWWOGL-SGOQHWLPNA-O
     RDKit          3D

 38 40  0  0  0  0  0  0  0  0999 V2000
  142.8062   80.6242  224.8462 H   0  0  0  0  0  0  0  0  0  0  0  0
  142.4420   80.5830  223.8090 C   0  0  0  0  0  0  0  0  0  0  0  0
  141.8530   81.7100  223.2340 C   0  0  0  0  0  0  0  0  0  0  0  0
  141.7430   82.6309  223.8255 H   0  0  0  0  0  0  0  0  0  0  0  0
  141.3990   81.6760  221.9030 C   0  0  0  0  0  0  0  0  0  0  0  0
  140.7130   82.8710  221.2920 C   0  0  0  0  0  0  0  0  0  0  0  0
  139.4200   83.0000  221.7710 F   0  0  0  0  0  0  0  0  0  0  0  0
  140.6700   82.7180  219.9190 F   0  0  0  0  0  0  0  0  0  0  0  0
  141.4050   84.0310  221.5940 F   0  0  0  0  0  0  0  0  0  0  0  0
  141.5090   80.4780  221.1750 C   0  0  0  0  0  0  0  0  0  0  0  0
  141.1219   80.4289  220.1465 H   0  0  0  0  0  0  0  0  0  0  0  0
  142.1090   79.3410  221.7480 C   0  0  0  0  0  0  0  0  0  0  0  0
  142.1930   78.1100  221.0040 N   0  0  0  0  0  0  0  0  0  0  0  0
  143.1050   77.6310  221.1870 H   0  0  0  0  0  0  0  0  0  0  0  0
  142.1500   78.3100  219.9760 H   0  0  0  0  0  0  0  0  0  0  0  0
  141.0980   77.2550  221.3730 C   0  0  0  0  0  0  0  0  0  0  0  0
  139.8840   77.8000  221.6650 N   0  0  0  0  0  0  0  0  0  0  0  0
  138.8690   76.9930  222.0480 C   0  0  0  0  0  0  0  0  0  0  0  0
  137.5880   77.3800  222.3690 C   0  0  0  0  0  0  0  0  0  0  0  0
  137.1620   78.3942  222.3747 H   0  0  0  0  0  0  0  0  0  0  0  0
  136.9650   76.1840  222.6830 C   0  0  0  0  0  0  0  0  0  0  0  0
  135.9148   76.0794  222.9931 H   0  0  0  0  0  0  0  0  0  0  0  0
  137.8410   75.1660  222.5510 N   0  0  0  0  0  0  0  0  0  0  0  0
  137.5910   74.1780  222.7400 H   0  0  0  0  0  0  0  0  0  0  0  0
  139.0110   75.6600  222.1630 N   0  0  0  0  0  0  0  0  0  0  0  0
  140.2140   75.0430  221.8930 C   0  0  0  0  0  0  0  0  0  0  0  0
  140.4450   73.7590  221.9760 N   0  0  0  0  0  0  0  0  0  0  0  0
  139.5940   72.6240  222.3190 C   0  0  0  0  0  0  0  0  0  0  0  0
  139.4701   71.9863  221.4313 H   0  0  0  0  0  0  0  0  0  0  0  0
  138.6200   73.0065  222.6582 H   0  0  0  0  0  0  0  0  0  0  0  0
  140.2110   71.7970  223.4460 C   0  0  0  0  0  0  0  0  0  0  0  0
  139.9016   72.2116  224.4168 H   0  0  0  0  0  0  0  0  0  0  0  0
  139.8679   70.7549  223.3663 H   0  0  0  0  0  0  0  0  0  0  0  0
  141.3076   71.8291  223.3663 H   0  0  0  0  0  0  0  0  0  0  0  0
  141.2830   75.8620  221.4890 C   0  0  0  0  0  0  0  0  0  0  0  0
  142.2631   75.4163  221.2635 H   0  0  0  0  0  0  0  0  0  0  0  0
  142.5710   79.4030  223.0730 C   0  0  0  0  0  0  0  0  0  0  0  0
  143.0363   78.5187  223.5328 H   0  0  0  0  0  0  0  0  0  0  0  0
  1  2  1  0
  2  3  2  0
  3  4  1  0
  3  5  1  0
  5  6  1  0
  6  7  1  0
  6  8  1  0
  6  9  1  0
  5 10  2  0
 10 11  1  0
 10 12  1  0
 12 13  1  0
 13 14  1  0
 13 15  1  0
 13 16  1  0
 16 17  1  0
 17 18  2  0
 18 19  1  0
 19 20  1  0
 19 21  2  0
 21 22  1  0
 21 23  1  0
 23 24  1  0
 23 25  1  0
 25 26  1  0
 26 27  2  0
 27 28  1  0
 28 29  1  0
 28 30  1  0
 28 31  1  0
 31 32  1  0
 31 33  1  0
 31 34  1  0
 26 35  1  0
 35 36  1  0
 12 37  2  0
 37 38  1  0
 37  2  1  0
 35 16  2  0
 25 18  1  0
M  CHG  1  13   1
M  END
>  <UniqueID>  (78) 
8

>  <SMILES>  (78) 
CC/N=c1/cc([NH2+]c2cccc(C(F)(F)F)c2)nc2cc[nH]n12

>  <Energy>  (78) 
87.97094418657713

>  <Genealogy>  (78) 
CCN=c1cc([NH2+]c2cccc(C(F)(F)F)c2)[nH]c2ccnn12 (protonated)
CCN=c1cc([NH2+]c2cccc(C(F)(F)F)c2)nc2cc[nH]n12 (tautomer)
CC/N=c1/cc([NH2+]c2cccc(C(F)(F)F)c2)nc2cc[nH]n12 (cis-trans isomerization)
CC/N=c1/cc([NH2+]c2cccc(C(F)(F)F)c2)nc2cc[nH]n12 (3D coordinates assigned)
CC/N=c1/cc([NH2+]c2cccc(C(F)(F)F)c2)nc2cc[nH]n12 (optimized conformer: 87.97094418657713 kcal/mol)

>  <smiles>  (78) 
CCN=c1cc(Nc2cccc(C(F)(F)F)c2)[nH]c2ccnn12

>  <score_type>  (78) 
oracle

>  <origin>  (78) 
autodockgpu

>  <m_score__min__energy>  (78) 
-6.3099999999999996

>  <m_primary>  (78) 
energy

>  <meeko>  (78) 
{"free_energy": -6.3, "intermolecular_energy": -7.8, "internal_energy": -0.46, "cluster_size": 19, "cluster_id": 1, "rank_in_cluster": 5}

>  <energy>  (78) 
-6.13

>  <cluster_rmsd>  (78) 
0.68

>  <rmsd>  (78) 
272.48

>  <cluster>  (78) 
1

$$$$
RBQYZXQNNWWOGL-SGOQHWLPNA-O
     RDKit          3D

 38 40  0  0  0  0  0  0  0  0999 V2000
  142.6596   80.4973  224.7494 H   0  0  0  0  0  0  0  0  0  0  0  0
  142.2910   80.4940  223.7130 C   0  0  0  0  0  0  0  0  0  0  0  0
  141.6150   81.6080  223.2120 C   0  0  0  0  0  0  0  0  0  0  0  0
  141.4412   82.4790  223.8609 H   0  0  0  0  0  0  0  0  0  0  0  0
  141.1550   81.6240  221.8840 C   0  0  0  0  0  0  0  0  0  0  0  0
  140.3770   82.8000  221.3510 C   0  0  0  0  0  0  0  0  0  0  0  0
  139.1370   82.8920  221.9590 F   0  0  0  0  0  0  0  0  0  0  0  0
  140.1990   82.6490  219.9880 F   0  0  0  0  0  0  0  0  0  0  0  0
  141.0640   83.9790  221.5870 F   0  0  0  0  0  0  0  0  0  0  0  0
  141.3480   80.4860  221.0810 C   0  0  0  0  0  0  0  0  0  0  0  0
  140.9579   80.4732  220.0526 H   0  0  0  0  0  0  0  0  0  0  0  0
  142.0350   79.3630  221.5790 C   0  0  0  0  0  0  0  0  0  0  0  0
  142.2050   78.1910  220.7580 N   0  0  0  0  0  0  0  0  0  0  0  0
  143.2010   77.8720  220.7730 H   0  0  0  0  0  0  0  0  0  0  0  0
  141.9660   78.4140  219.7630 H   0  0  0  0  0  0  0  0  0  0  0  0
  141.3400   77.1450  221.2360 C   0  0  0  0  0  0  0  0  0  0  0  0
  141.6600   75.8430  220.9960 N   0  0  0  0  0  0  0  0  0  0  0  0
  140.8230   74.8660  221.4150 C   0  0  0  0  0  0  0  0  0  0  0  0
  141.0000   73.5110  221.2610 C   0  0  0  0  0  0  0  0  0  0  0  0
  141.8349   72.9818  220.7783 H   0  0  0  0  0  0  0  0  0  0  0  0
  139.8740   72.9740  221.8600 C   0  0  0  0  0  0  0  0  0  0  0  0
  139.6497   71.9000  221.9383 H   0  0  0  0  0  0  0  0  0  0  0  0
  139.0920   73.9680  222.3340 N   0  0  0  0  0  0  0  0  0  0  0  0
  138.1920   73.7960  222.8180 H   0  0  0  0  0  0  0  0  0  0  0  0
  139.6720   75.1300  222.0600 N   0  0  0  0  0  0  0  0  0  0  0  0
  139.2830   76.4260  222.3270 C   0  0  0  0  0  0  0  0  0  0  0  0
  138.1860   76.7770  222.9460 N   0  0  0  0  0  0  0  0  0  0  0  0
  136.7730   76.6440  222.6030 C   0  0  0  0  0  0  0  0  0  0  0  0
  136.6854   76.3438  221.5484 H   0  0  0  0  0  0  0  0  0  0  0  0
  136.2788   77.6125  222.7699 H   0  0  0  0  0  0  0  0  0  0  0  0
  136.0940   75.5930  223.4800 C   0  0  0  0  0  0  0  0  0  0  0  0
  136.2541   75.8408  224.5397 H   0  0  0  0  0  0  0  0  0  0  0  0
  135.0151   75.5782  223.2658 H   0  0  0  0  0  0  0  0  0  0  0  0
  136.5240   74.6034  223.2658 H   0  0  0  0  0  0  0  0  0  0  0  0
  140.1390   77.4570  221.9040 C   0  0  0  0  0  0  0  0  0  0  0  0
  139.8718   78.5070  222.0942 H   0  0  0  0  0  0  0  0  0  0  0  0
  142.5010   79.3760  222.9040 C   0  0  0  0  0  0  0  0  0  0  0  0
  143.0337   78.5015  223.3058 H   0  0  0  0  0  0  0  0  0  0  0  0
  1  2  1  0
  2  3  2  0
  3  4  1  0
  3  5  1  0
  5  6  1  0
  6  7  1  0
  6  8  1  0
  6  9  1  0
  5 10  2  0
 10 11  1  0
 10 12  1  0
 12 13  1  0
 13 14  1  0
 13 15  1  0
 13 16  1  0
 16 17  1  0
 17 18  2  0
 18 19  1  0
 19 20  1  0
 19 21  2  0
 21 22  1  0
 21 23  1  0
 23 24  1  0
 23 25  1  0
 25 26  1  0
 26 27  2  0
 27 28  1  0
 28 29  1  0
 28 30  1  0
 28 31  1  0
 31 32  1  0
 31 33  1  0
 31 34  1  0
 26 35  1  0
 35 36  1  0
 12 37  2  0
 37 38  1  0
 37  2  1  0
 35 16  2  0
 25 18  1  0
M  CHG  1  13   1
M  END
>  <UniqueID>  (79) 
8

>  <SMILES>  (79) 
CC/N=c1/cc([NH2+]c2cccc(C(F)(F)F)c2)nc2cc[nH]n12

>  <Energy>  (79) 
87.97094418657713

>  <Genealogy>  (79) 
CCN=c1cc([NH2+]c2cccc(C(F)(F)F)c2)[nH]c2ccnn12 (protonated)
CCN=c1cc([NH2+]c2cccc(C(F)(F)F)c2)nc2cc[nH]n12 (tautomer)
CC/N=c1/cc([NH2+]c2cccc(C(F)(F)F)c2)nc2cc[nH]n12 (cis-trans isomerization)
CC/N=c1/cc([NH2+]c2cccc(C(F)(F)F)c2)nc2cc[nH]n12 (3D coordinates assigned)
CC/N=c1/cc([NH2+]c2cccc(C(F)(F)F)c2)nc2cc[nH]n12 (optimized conformer: 87.97094418657713 kcal/mol)

>  <smiles>  (79) 
CCN=c1cc(Nc2cccc(C(F)(F)F)c2)[nH]c2ccnn12

>  <score_type>  (79) 
oracle

>  <origin>  (79) 
autodockgpu

>  <m_score__min__energy>  (79) 
-6.3099999999999996

>  <m_primary>  (79) 
energy

>  <meeko>  (79) 
{"free_energy": -5.74, "intermolecular_energy": -7.23, "internal_energy": -0.41, "cluster_size": 19, "cluster_id": 1, "rank_in_cluster": 19}

>  <energy>  (79) 
-5.74

>  <cluster_rmsd>  (79) 
1.69

>  <rmsd>  (79) 
272.41

>  <cluster>  (79) 
1

$$$$
RBQYZXQNNWWOGL-SGOQHWLPNA-O
     RDKit          3D

 38 40  0  0  0  0  0  0  0  0999 V2000
  142.8486   80.7389  224.7911 H   0  0  0  0  0  0  0  0  0  0  0  0
  142.4610   80.6690  223.7640 C   0  0  0  0  0  0  0  0  0  0  0  0
  141.8490   81.7770  223.1750 C   0  0  0  0  0  0  0  0  0  0  0  0
  141.7442   82.7113  223.7460 H   0  0  0  0  0  0  0  0  0  0  0  0
  141.3660   81.7060  221.8570 C   0  0  0  0  0  0  0  0  0  0  0  0
  140.6560   82.8800  221.2310 C   0  0  0  0  0  0  0  0  0  0  0  0
  139.3360   82.9390  221.6440 F   0  0  0  0  0  0  0  0  0  0  0  0
  140.6900   82.7530  219.8550 F   0  0  0  0  0  0  0  0  0  0  0  0
  141.2760   84.0650  221.5900 F   0  0  0  0  0  0  0  0  0  0  0  0
  141.4700   80.4920  221.1560 C   0  0  0  0  0  0  0  0  0  0  0  0
  141.0609   80.4149  220.1378 H   0  0  0  0  0  0  0  0  0  0  0  0
  142.0920   79.3740  221.7430 C   0  0  0  0  0  0  0  0  0  0  0  0
  142.1700   78.1260  221.0270 N   0  0  0  0  0  0  0  0  0  0  0  0
  143.0810   77.6470  221.2210 H   0  0  0  0  0  0  0  0  0  0  0  0
  142.1250   78.3010  219.9960 H   0  0  0  0  0  0  0  0  0  0  0  0
  141.0720   77.2830  221.4190 C   0  0  0  0  0  0  0  0  0  0  0  0
  139.8790   77.8450  221.7630 N   0  0  0  0  0  0  0  0  0  0  0  0
  138.8630   77.0490  222.1670 C   0  0  0  0  0  0  0  0  0  0  0  0
  137.6020   77.4530  222.5380 C   0  0  0  0  0  0  0  0  0  0  0  0
  137.1954   78.4744  222.5755 H   0  0  0  0  0  0  0  0  0  0  0  0
  136.9680   76.2630  222.8530 C   0  0  0  0  0  0  0  0  0  0  0  0
  135.9276   76.1720  223.1984 H   0  0  0  0  0  0  0  0  0  0  0  0
  137.8200   75.2310  222.6720 N   0  0  0  0  0  0  0  0  0  0  0  0
  137.5580   74.2450  222.8520 H   0  0  0  0  0  0  0  0  0  0  0  0
  138.9850   75.7120  222.2530 N   0  0  0  0  0  0  0  0  0  0  0  0
  140.1660   75.0790  221.9300 C   0  0  0  0  0  0  0  0  0  0  0  0
  140.3760   73.7890  221.9820 N   0  0  0  0  0  0  0  0  0  0  0  0
  139.5190   72.6630  222.3400 C   0  0  0  0  0  0  0  0  0  0  0  0
  139.3628   72.0334  221.4516 H   0  0  0  0  0  0  0  0  0  0  0  0
  138.5598   73.0562  222.7077 H   0  0  0  0  0  0  0  0  0  0  0  0
  140.1540   71.8200  223.4440 C   0  0  0  0  0  0  0  0  0  0  0  0
  139.8554   72.2164  224.4257 H   0  0  0  0  0  0  0  0  0  0  0  0
  139.8146   70.7778  223.3507 H   0  0  0  0  0  0  0  0  0  0  0  0
  141.2494   71.8586  223.3507 H   0  0  0  0  0  0  0  0  0  0  0  0
  141.2350   75.8860  221.5040 C   0  0  0  0  0  0  0  0  0  0  0  0
  142.1985   75.4272  221.2371 H   0  0  0  0  0  0  0  0  0  0  0  0
  142.5830   79.4730  223.0550 C   0  0  0  0  0  0  0  0  0  0  0  0
  143.0659   78.6041  223.5259 H   0  0  0  0  0  0  0  0  0  0  0  0
  1  2  1  0
  2  3  2  0
  3  4  1  0
  3  5  1  0
  5  6  1  0
  6  7  1  0
  6  8  1  0
  6  9  1  0
  5 10  2  0
 10 11  1  0
 10 12  1  0
 12 13  1  0
 13 14  1  0
 13 15  1  0
 13 16  1  0
 16 17  1  0
 17 18  2  0
 18 19  1  0
 19 20  1  0
 19 21  2  0
 21 22  1  0
 21 23  1  0
 23 24  1  0
 23 25  1  0
 25 26  1  0
 26 27  2  0
 27 28  1  0
 28 29  1  0
 28 30  1  0
 28 31  1  0
 31 32  1  0
 31 33  1  0
 31 34  1  0
 26 35  1  0
 35 36  1  0
 12 37  2  0
 37 38  1  0
 37  2  1  0
 35 16  2  0
 25 18  1  0
M  CHG  1  13   1
M  END
>  <UniqueID>  (80) 
8

>  <SMILES>  (80) 
CC/N=c1/cc([NH2+]c2cccc(C(F)(F)F)c2)nc2cc[nH]n12

>  <Energy>  (80) 
87.97094418657713

>  <Genealogy>  (80) 
CCN=c1cc([NH2+]c2cccc(C(F)(F)F)c2)[nH]c2ccnn12 (protonated)
CCN=c1cc([NH2+]c2cccc(C(F)(F)F)c2)nc2cc[nH]n12 (tautomer)
CC/N=c1/cc([NH2+]c2cccc(C(F)(F)F)c2)nc2cc[nH]n12 (cis-trans isomerization)
CC/N=c1/cc([NH2+]c2cccc(C(F)(F)F)c2)nc2cc[nH]n12 (3D coordinates assigned)
CC/N=c1/cc([NH2+]c2cccc(C(F)(F)F)c2)nc2cc[nH]n12 (optimized conformer: 87.97094418657713 kcal/mol)

>  <smiles>  (80) 
CCN=c1cc(Nc2cccc(C(F)(F)F)c2)[nH]c2ccnn12

>  <score_type>  (80) 
oracle

>  <origin>  (80) 
autodockgpu

>  <m_score__min__energy>  (80) 
-6.3099999999999996

>  <m_primary>  (80) 
energy

>  <meeko>  (80) 
{"free_energy": -6.3, "intermolecular_energy": -7.8, "internal_energy": -0.46, "cluster_size": 19, "cluster_id": 1, "rank_in_cluster": 6}

>  <energy>  (80) 
-5.74

>  <cluster_rmsd>  (80) 
0.0

>  <rmsd>  (80) 
272.15

>  <cluster>  (80) 
2

$$$$
