
     RDKit          3D

 50 54  0  0  0  0  0  0  0  0999 V2000
  142.0260   71.5380  220.5470 N   0  0  0  0  0  0  0  0  0  0  0  0
  139.6190   76.0350  222.3290 C   0  0  0  0  0  0  0  0  0  0  0  0
  140.2810   72.4800  221.8190 C   0  0  0  0  0  0  0  0  0  0  0  0
  139.7780   71.1350  222.1910 C   0  0  0  0  0  0  0  0  0  0  0  0
  139.9930   70.1480  221.4540 O   0  0  0  0  0  0  0  0  0  0  0  0
  139.0480   71.0480  223.4240 N   0  0  0  0  0  0  0  0  0  0  0  0
  138.5010   69.8070  223.9280 C   0  0  0  0  0  0  0  0  0  0  0  0
  139.2330   69.2100  225.0440 C   0  0  0  0  0  0  0  0  0  0  0  0
  140.0440   70.0520  225.8140 C   0  0  0  0  0  0  0  0  0  0  0  0
  140.7870   69.5700  226.8760 C   0  0  0  0  0  0  0  0  0  0  0  0
  140.7120   68.2380  227.1650 C   0  0  0  0  0  0  0  0  0  0  0  0
  139.9090   67.3850  226.4100 C   0  0  0  0  0  0  0  0  0  0  0  0
  139.2040   67.9130  225.3800 N   0  0  0  0  0  0  0  0  0  0  0  0
  139.6390   73.6190  222.2900 C   0  0  0  0  0  0  0  0  0  0  0  0
  140.1880   74.8340  221.9040 C   0  0  0  0  0  0  0  0  0  0  0  0
  141.4130   72.5650  221.0040 C   0  0  0  0  0  0  0  0  0  0  0  0
  138.6120   76.0170  223.0550 O   0  0  0  0  0  0  0  0  0  0  0  0
  140.1340   77.2290  221.9760 N   0  0  0  0  0  0  0  0  0  0  0  0
  139.6230   78.4060  222.3670 C   0  0  0  0  0  0  0  0  0  0  0  0
  140.1670   79.6280  221.9990 C   0  0  0  0  0  0  0  0  0  0  0  0
  141.2860   79.6310  221.1960 C   0  0  0  0  0  0  0  0  0  0  0  0
  141.8290   78.4340  220.7810 C   0  0  0  0  0  0  0  0  0  0  0  0
  141.2240   77.2420  221.1930 C   0  0  0  0  0  0  0  0  0  0  0  0
  141.8190   76.1150  220.7490 N   0  0  0  0  0  0  0  0  0  0  0  0
  141.3060   74.9200  221.1030 C   0  0  0  0  0  0  0  0  0  0  0  0
  141.9030   73.7700  220.6640 N   0  0  0  0  0  0  0  0  0  0  0  0
  143.0700   73.9620  219.8280 C   0  0  0  0  0  0  0  0  0  0  0  0
  144.3510   74.0870  220.5800 C   0  0  0  0  0  0  0  0  0  0  0  0
  145.0610   72.9770  221.2210 C   0  0  0  0  0  0  0  0  0  0  0  0
  145.5690   73.4870  219.9170 C   0  0  0  0  0  0  0  0  0  0  0  0
  141.7350   70.5700  220.4830 H   0  0  0  0  0  0  0  0  0  0  0  0
  138.9110   71.9500  223.9730 H   0  0  0  0  0  0  0  0  0  0  0  0
  137.4708   70.0002  224.2617 H   0  0  0  0  0  0  0  0  0  0  0  0
  138.5677   69.0862  223.0997 H   0  0  0  0  0  0  0  0  0  0  0  0
  140.0914   71.1232  225.5683 H   0  0  0  0  0  0  0  0  0  0  0  0
  141.4217   70.2422  227.4722 H   0  0  0  0  0  0  0  0  0  0  0  0
  141.2937   67.8321  228.0058 H   0  0  0  0  0  0  0  0  0  0  0  0
  139.8490   66.3118  226.6439 H   0  0  0  0  0  0  0  0  0  0  0  0
  138.7474   73.5610  222.9316 H   0  0  0  0  0  0  0  0  0  0  0  0
  138.7304   78.4021  223.0098 H   0  0  0  0  0  0  0  0  0  0  0  0
  139.7157   80.5714  222.3402 H   0  0  0  0  0  0  0  0  0  0  0  0
  141.7435   80.5827  220.8878 H   0  0  0  0  0  0  0  0  0  0  0  0
  142.7213   78.4164  220.1380 H   0  0  0  0  0  0  0  0  0  0  0  0
  143.1523   73.1008  219.1486 H   0  0  0  0  0  0  0  0  0  0  0  0
  142.9231   74.9139  219.2968 H   0  0  0  0  0  0  0  0  0  0  0  0
  144.0135   75.0562  220.9758 H   0  0  0  0  0  0  0  0  0  0  0  0
  145.6387   73.1566  222.1397 H   0  0  0  0  0  0  0  0  0  0  0  0
  144.7618   71.9869  221.5954 H   0  0  0  0  0  0  0  0  0  0  0  0
  146.5111   74.0531  219.8724 H   0  0  0  0  0  0  0  0  0  0  0  0
  145.7934   73.0476  218.9339 H   0  0  0  0  0  0  0  0  0  0  0  0
  1  2  2  3
  2  3  1  0
  3  4  1  0
  4  5  2  0
  4  6  1  0
  6  7  1  0
  7  8  1  0
  8  9  2  0
  9 10  1  0
 10 11  2  0
 11 12  1  0
 12 13  2  0
  3 14  2  0
 14 15  1  0
 15 16  1  0
 16 17  2  0
 16 18  1  0
 18 19  1  0
 19 20  2  0
 20 21  1  0
 21 22  2  0
 22 23  1  0
 23 24  2  0
 24 25  1  0
 25 26  1  0
 26 27  1  0
 27 28  1  0
 28 29  1  0
 29 30  1  0
 26  2  1  0
 30 28  1  0
 13  8  1  0
 25 15  2  0
 23 18  1  0
  1 31  1  0
  6 32  1  0
  7 33  1  0
  7 34  1  0
  9 35  1  0
 10 36  1  0
 11 37  1  0
 12 38  1  0
 14 39  1  0
 19 40  1  0
 20 41  1  0
 21 42  1  0
 22 43  1  0
 27 44  1  0
 27 45  1  0
 28 46  1  0
 29 47  1  0
 29 48  1  0
 30 49  1  0
 30 50  1  0
M  END
>  <smiles>  (1) 
N=c1c(C(=O)NCc2ccccn2)cc2c(=O)n3ccccc3nc2n1CC1CC1

>  <score_type>  (1) 
oracle

>  <origin>  (1) 
autodockgpu

>  <m_score__min__energy>  (1) 
-7.5199999999999996

>  <m_primary>  (1) 
energy

>  <meeko>  (1) 
{"free_energy": -7.51, "intermolecular_energy": -9.3, "internal_energy": -1.29, "cluster_size": 10, "cluster_id": 1, "rank_in_cluster": 2}

>  <energy>  (1) 
-7.52

>  <cluster_rmsd>  (1) 
0.0

>  <rmsd>  (1) 
270.89

>  <cluster>  (1) 
1

$$$$

     RDKit          3D

 50 54  0  0  0  0  0  0  0  0999 V2000
  141.4440   77.2520  221.4410 N   0  0  0  0  0  0  0  0  0  0  0  0
  141.5140   81.8330  218.5780 C   0  0  0  0  0  0  0  0  0  0  0  0
  141.7510   78.2690  219.3380 C   0  0  0  0  0  0  0  0  0  0  0  0
  142.0050   76.9550  218.7000 C   0  0  0  0  0  0  0  0  0  0  0  0
  141.5710   76.7090  217.5530 O   0  0  0  0  0  0  0  0  0  0  0  0
  142.7650   76.0100  219.4690 N   0  0  0  0  0  0  0  0  0  0  0  0
  143.1030   74.6900  218.9820 C   0  0  0  0  0  0  0  0  0  0  0  0
  144.2350   74.0500  219.6500 C   0  0  0  0  0  0  0  0  0  0  0  0
  144.5820   72.7560  219.2460 C   0  0  0  0  0  0  0  0  0  0  0  0
  145.6260   72.0680  219.8350 C   0  0  0  0  0  0  0  0  0  0  0  0
  146.3240   72.6830  220.8340 C   0  0  0  0  0  0  0  0  0  0  0  0
  145.9940   73.9720  221.2490 C   0  0  0  0  0  0  0  0  0  0  0  0
  144.9610   74.5980  220.6350 N   0  0  0  0  0  0  0  0  0  0  0  0
  141.7800   79.4310  218.5770 C   0  0  0  0  0  0  0  0  0  0  0  0
  141.5140   80.6130  219.2550 C   0  0  0  0  0  0  0  0  0  0  0  0
  141.4720   78.3010  220.7070 C   0  0  0  0  0  0  0  0  0  0  0  0
  141.7560   81.8620  217.3610 O   0  0  0  0  0  0  0  0  0  0  0  0
  141.2540   82.9950  219.2080 N   0  0  0  0  0  0  0  0  0  0  0  0
  141.2370   84.1880  218.5950 C   0  0  0  0  0  0  0  0  0  0  0  0
  140.9630   85.3760  219.2570 C   0  0  0  0  0  0  0  0  0  0  0  0
  140.6950   85.3270  220.6070 C   0  0  0  0  0  0  0  0  0  0  0  0
  140.7060   84.1120  221.2590 C   0  0  0  0  0  0  0  0  0  0  0  0
  140.9920   82.9560  220.5240 C   0  0  0  0  0  0  0  0  0  0  0  0
  140.9780   81.8090  221.2340 N   0  0  0  0  0  0  0  0  0  0  0  0
  141.2370   80.6460  220.6040 C   0  0  0  0  0  0  0  0  0  0  0  0
  141.2200   79.4750  221.3110 N   0  0  0  0  0  0  0  0  0  0  0  0
  140.9190   79.6110  222.7220 C   0  0  0  0  0  0  0  0  0  0  0  0
  142.1150   79.8130  223.5890 C   0  0  0  0  0  0  0  0  0  0  0  0
  143.3730   80.4290  223.1560 C   0  0  0  0  0  0  0  0  0  0  0  0
  142.4240   81.2420  223.9680 C   0  0  0  0  0  0  0  0  0  0  0  0
  142.1830   76.7820  221.9480 H   0  0  0  0  0  0  0  0  0  0  0  0
  143.0810   76.3140  220.4400 H   0  0  0  0  0  0  0  0  0  0  0  0
  142.2222   74.0439  219.1113 H   0  0  0  0  0  0  0  0  0  0  0  0
  143.4028   74.8202  217.9317 H   0  0  0  0  0  0  0  0  0  0  0  0
  144.0096   72.2743  218.4395 H   0  0  0  0  0  0  0  0  0  0  0  0
  145.8877   71.0511  219.5072 H   0  0  0  0  0  0  0  0  0  0  0  0
  147.1582   72.1541  221.3181 H   0  0  0  0  0  0  0  0  0  0  0  0
  146.5571   74.4678  222.0534 H   0  0  0  0  0  0  0  0  0  0  0  0
  142.0009   79.4154  217.4995 H   0  0  0  0  0  0  0  0  0  0  0  0
  141.4504   84.2262  217.5166 H   0  0  0  0  0  0  0  0  0  0  0  0
  140.9599   86.3341  218.7166 H   0  0  0  0  0  0  0  0  0  0  0  0
  140.4737   86.2509  221.1614 H   0  0  0  0  0  0  0  0  0  0  0  0
  140.4939   84.0525  222.3367 H   0  0  0  0  0  0  0  0  0  0  0  0
  140.2512   80.4757  222.8498 H   0  0  0  0  0  0  0  0  0  0  0  0
  140.4580   78.6636  223.0379 H   0  0  0  0  0  0  0  0  0  0  0  0
  141.9111   78.8495  224.0790 H   0  0  0  0  0  0  0  0  0  0  0  0
  144.3240   80.0969  223.5979 H   0  0  0  0  0  0  0  0  0  0  0  0
  143.8669   80.5673  222.1829 H   0  0  0  0  0  0  0  0  0  0  0  0
  142.6656   81.4991  225.0099 H   0  0  0  0  0  0  0  0  0  0  0  0
  141.9208   82.2131  223.8511 H   0  0  0  0  0  0  0  0  0  0  0  0
  1  2  2  3
  2  3  1  0
  3  4  1  0
  4  5  2  0
  4  6  1  0
  6  7  1  0
  7  8  1  0
  8  9  2  0
  9 10  1  0
 10 11  2  0
 11 12  1  0
 12 13  2  0
  3 14  2  0
 14 15  1  0
 15 16  1  0
 16 17  2  0
 16 18  1  0
 18 19  1  0
 19 20  2  0
 20 21  1  0
 21 22  2  0
 22 23  1  0
 23 24  2  0
 24 25  1  0
 25 26  1  0
 26 27  1  0
 27 28  1  0
 28 29  1  0
 29 30  1  0
 26  2  1  0
 30 28  1  0
 13  8  1  0
 25 15  2  0
 23 18  1  0
  1 31  1  0
  6 32  1  0
  7 33  1  0
  7 34  1  0
  9 35  1  0
 10 36  1  0
 11 37  1  0
 12 38  1  0
 14 39  1  0
 19 40  1  0
 20 41  1  0
 21 42  1  0
 22 43  1  0
 27 44  1  0
 27 45  1  0
 28 46  1  0
 29 47  1  0
 29 48  1  0
 30 49  1  0
 30 50  1  0
M  END
>  <smiles>  (2) 
N=c1c(C(=O)NCc2ccccn2)cc2c(=O)n3ccccc3nc2n1CC1CC1

>  <score_type>  (2) 
oracle

>  <origin>  (2) 
autodockgpu

>  <m_score__min__energy>  (2) 
-7.5199999999999996

>  <m_primary>  (2) 
energy

>  <meeko>  (2) 
{"free_energy": -7.0, "intermolecular_energy": -8.79, "internal_energy": -1.6, "cluster_size": 1, "cluster_id": 5, "rank_in_cluster": 1}

>  <energy>  (2) 
-7.51

>  <cluster_rmsd>  (2) 
0.06

>  <rmsd>  (2) 
270.9

>  <cluster>  (2) 
1

$$$$

     RDKit          3D

 50 54  0  0  0  0  0  0  0  0999 V2000
  138.6180   73.4930  222.2500 N   0  0  0  0  0  0  0  0  0  0  0  0
  143.6420   73.3780  220.2670 C   0  0  0  0  0  0  0  0  0  0  0  0
  140.5270   74.7210  221.6190 C   0  0  0  0  0  0  0  0  0  0  0  0
  139.8810   75.9960  222.0130 C   0  0  0  0  0  0  0  0  0  0  0  0
  138.6460   76.0530  222.2020 O   0  0  0  0  0  0  0  0  0  0  0  0
  140.7490   77.1300  222.1580 N   0  0  0  0  0  0  0  0  0  0  0  0
  140.2730   78.4410  222.5450 C   0  0  0  0  0  0  0  0  0  0  0  0
  141.3080   79.3770  222.9810 C   0  0  0  0  0  0  0  0  0  0  0  0
  140.9030   80.5050  223.7030 C   0  0  0  0  0  0  0  0  0  0  0  0
  141.8110   81.4520  224.1380 C   0  0  0  0  0  0  0  0  0  0  0  0
  143.1310   81.2630  223.8470 C   0  0  0  0  0  0  0  0  0  0  0  0
  143.5540   80.1450  223.1300 C   0  0  0  0  0  0  0  0  0  0  0  0
  142.6180   79.2510  222.7290 N   0  0  0  0  0  0  0  0  0  0  0  0
  141.8200   74.7230  221.1080 C   0  0  0  0  0  0  0  0  0  0  0  0
  142.3500   73.4820  220.7820 C   0  0  0  0  0  0  0  0  0  0  0  0
  139.8120   73.5320  221.7890 C   0  0  0  0  0  0  0  0  0  0  0  0
  144.3220   74.4030  220.0960 O   0  0  0  0  0  0  0  0  0  0  0  0
  144.1860   72.1880  219.9470 N   0  0  0  0  0  0  0  0  0  0  0  0
  145.4250   72.0420  219.4560 C   0  0  0  0  0  0  0  0  0  0  0  0
  145.9730   70.8080  219.1350 C   0  0  0  0  0  0  0  0  0  0  0  0
  145.2070   69.6800  219.3330 C   0  0  0  0  0  0  0  0  0  0  0  0
  143.9300   69.8050  219.8370 C   0  0  0  0  0  0  0  0  0  0  0  0
  143.4460   71.0830  220.1360 C   0  0  0  0  0  0  0  0  0  0  0  0
  142.1910   71.1190  220.6300 N   0  0  0  0  0  0  0  0  0  0  0  0
  141.6470   72.3090  220.9510 C   0  0  0  0  0  0  0  0  0  0  0  0
  140.3770   72.3590  221.4580 N   0  0  0  0  0  0  0  0  0  0  0  0
  139.7200   71.0750  221.5980 C   0  0  0  0  0  0  0  0  0  0  0  0
  139.8490   70.4640  222.9520 C   0  0  0  0  0  0  0  0  0  0  0  0
  140.2950   71.1710  224.1550 C   0  0  0  0  0  0  0  0  0  0  0  0
  138.8380   70.9130  223.9810 C   0  0  0  0  0  0  0  0  0  0  0  0
  138.1510   74.0860  222.9250 H   0  0  0  0  0  0  0  0  0  0  0  0
  141.7850   76.9790  221.9640 H   0  0  0  0  0  0  0  0  0  0  0  0
  139.7563   78.8839  221.6808 H   0  0  0  0  0  0  0  0  0  0  0  0
  139.6191   78.2829  223.4153 H   0  0  0  0  0  0  0  0  0  0  0  0
  139.8354   80.6416  223.9301 H   0  0  0  0  0  0  0  0  0  0  0  0
  141.4785   82.3348  224.7038 H   0  0  0  0  0  0  0  0  0  0  0  0
  143.8717   82.0036  224.1831 H   0  0  0  0  0  0  0  0  0  0  0  0
  144.6180   79.9927  222.8962 H   0  0  0  0  0  0  0  0  0  0  0  0
  142.3899   75.6537  220.9701 H   0  0  0  0  0  0  0  0  0  0  0  0
  146.0363   72.9431  219.3001 H   0  0  0  0  0  0  0  0  0  0  0  0
  146.9939   70.7323  218.7324 H   0  0  0  0  0  0  0  0  0  0  0  0
  145.6117   68.6863  219.0905 H   0  0  0  0  0  0  0  0  0  0  0  0
  143.3031   68.9161  220.0011 H   0  0  0  0  0  0  0  0  0  0  0  0
  138.6500   71.2101  221.3816 H   0  0  0  0  0  0  0  0  0  0  0  0
  140.2153   70.3894  220.8946 H   0  0  0  0  0  0  0  0  0  0  0  0
  140.2025   69.5321  222.4865 H   0  0  0  0  0  0  0  0  0  0  0  0
  140.8566   70.6289  224.9301 H   0  0  0  0  0  0  0  0  0  0  0  0
  140.9000   72.0713  224.3379 H   0  0  0  0  0  0  0  0  0  0  0  0
  138.3264   70.1737  224.6148 H   0  0  0  0  0  0  0  0  0  0  0  0
  137.9257   71.5275  223.9718 H   0  0  0  0  0  0  0  0  0  0  0  0
  1  2  2  3
  2  3  1  0
  3  4  1  0
  4  5  2  0
  4  6  1  0
  6  7  1  0
  7  8  1  0
  8  9  2  0
  9 10  1  0
 10 11  2  0
 11 12  1  0
 12 13  2  0
  3 14  2  0
 14 15  1  0
 15 16  1  0
 16 17  2  0
 16 18  1  0
 18 19  1  0
 19 20  2  0
 20 21  1  0
 21 22  2  0
 22 23  1  0
 23 24  2  0
 24 25  1  0
 25 26  1  0
 26 27  1  0
 27 28  1  0
 28 29  1  0
 29 30  1  0
 26  2  1  0
 30 28  1  0
 13  8  1  0
 25 15  2  0
 23 18  1  0
  1 31  1  0
  6 32  1  0
  7 33  1  0
  7 34  1  0
  9 35  1  0
 10 36  1  0
 11 37  1  0
 12 38  1  0
 14 39  1  0
 19 40  1  0
 20 41  1  0
 21 42  1  0
 22 43  1  0
 27 44  1  0
 27 45  1  0
 28 46  1  0
 29 47  1  0
 29 48  1  0
 30 49  1  0
 30 50  1  0
M  END
>  <smiles>  (3) 
N=c1c(C(=O)NCc2ccccn2)cc2c(=O)n3ccccc3nc2n1CC1CC1

>  <score_type>  (3) 
oracle

>  <origin>  (3) 
autodockgpu

>  <m_score__min__energy>  (3) 
-7.5199999999999996

>  <m_primary>  (3) 
energy

>  <meeko>  (3) 
{"free_energy": -7.12, "intermolecular_energy": -8.91, "internal_energy": -1.49, "cluster_size": 3, "cluster_id": 3, "rank_in_cluster": 2}

>  <energy>  (3) 
-7.49

>  <cluster_rmsd>  (3) 
0.11

>  <rmsd>  (3) 
270.9

>  <cluster>  (3) 
1

$$$$

     RDKit          3D

 50 54  0  0  0  0  0  0  0  0999 V2000
  142.0400   71.6040  220.5650 N   0  0  0  0  0  0  0  0  0  0  0  0
  139.5560   76.0500  222.3710 C   0  0  0  0  0  0  0  0  0  0  0  0
  140.2440   72.5100  221.7920 C   0  0  0  0  0  0  0  0  0  0  0  0
  139.7300   71.1560  222.1080 C   0  0  0  0  0  0  0  0  0  0  0  0
  139.8310   70.2260  221.2780 O   0  0  0  0  0  0  0  0  0  0  0  0
  139.1240   70.9910  223.3990 N   0  0  0  0  0  0  0  0  0  0  0  0
  138.5830   69.7300  223.8590 C   0  0  0  0  0  0  0  0  0  0  0  0
  139.2570   69.1470  225.0180 C   0  0  0  0  0  0  0  0  0  0  0  0
  140.0500   69.9930  225.8020 C   0  0  0  0  0  0  0  0  0  0  0  0
  140.7380   69.5240  226.9060 C   0  0  0  0  0  0  0  0  0  0  0  0
  140.6270   68.2010  227.2230 C   0  0  0  0  0  0  0  0  0  0  0  0
  139.8400   67.3440  226.4550 C   0  0  0  0  0  0  0  0  0  0  0  0
  139.1890   67.8590  225.3840 N   0  0  0  0  0  0  0  0  0  0  0  0
  139.5820   73.6360  222.2680 C   0  0  0  0  0  0  0  0  0  0  0  0
  140.1440   74.8610  221.9370 C   0  0  0  0  0  0  0  0  0  0  0  0
  141.4080   72.6180  221.0250 C   0  0  0  0  0  0  0  0  0  0  0  0
  138.5220   76.0120  223.0560 O   0  0  0  0  0  0  0  0  0  0  0  0
  140.0820   77.2530  222.0710 N   0  0  0  0  0  0  0  0  0  0  0  0
  139.5540   78.4190  222.4730 C   0  0  0  0  0  0  0  0  0  0  0  0
  140.1100   79.6510  222.1590 C   0  0  0  0  0  0  0  0  0  0  0  0
  141.2590   79.6760  221.4010 C   0  0  0  0  0  0  0  0  0  0  0  0
  141.8210   78.4910  220.9760 C   0  0  0  0  0  0  0  0  0  0  0  0
  141.2020   77.2880  221.3320 C   0  0  0  0  0  0  0  0  0  0  0  0
  141.8170   76.1740  220.8820 N   0  0  0  0  0  0  0  0  0  0  0  0
  141.2920   74.9700  221.1830 C   0  0  0  0  0  0  0  0  0  0  0  0
  141.9080   73.8320  220.7370 N   0  0  0  0  0  0  0  0  0  0  0  0
  143.1070   74.0480  219.9530 C   0  0  0  0  0  0  0  0  0  0  0  0
  144.3640   74.0920  220.7520 C   0  0  0  0  0  0  0  0  0  0  0  0
  145.1080   72.9170  221.2150 C   0  0  0  0  0  0  0  0  0  0  0  0
  145.6220   73.6640  220.0330 C   0  0  0  0  0  0  0  0  0  0  0  0
  141.7430   70.6450  220.4350 H   0  0  0  0  0  0  0  0  0  0  0  0
  139.0780   71.8480  224.0290 H   0  0  0  0  0  0  0  0  0  0  0  0
  137.5275   69.8895  224.1243 H   0  0  0  0  0  0  0  0  0  0  0  0
  138.7268   69.0178  223.0332 H   0  0  0  0  0  0  0  0  0  0  0  0
  140.1278   71.0568  225.5334 H   0  0  0  0  0  0  0  0  0  0  0  0
  141.3586   70.1996  227.5130 H   0  0  0  0  0  0  0  0  0  0  0  0
  141.1660   67.8055  228.0966 H   0  0  0  0  0  0  0  0  0  0  0  0
  139.7499   66.2782  226.7116 H   0  0  0  0  0  0  0  0  0  0  0  0
  138.6658   73.5604  222.8720 H   0  0  0  0  0  0  0  0  0  0  0  0
  138.6370   78.3974  223.0802 H   0  0  0  0  0  0  0  0  0  0  0  0
  139.6442   80.5847  222.5072 H   0  0  0  0  0  0  0  0  0  0  0  0
  141.7260   80.6360  221.1360 H   0  0  0  0  0  0  0  0  0  0  0  0
  142.7382   78.4914  220.3688 H   0  0  0  0  0  0  0  0  0  0  0  0
  143.1922   73.2305  219.2220 H   0  0  0  0  0  0  0  0  0  0  0  0
  143.0000   75.0356  219.4805 H   0  0  0  0  0  0  0  0  0  0  0  0
  143.9751   74.9647  221.2972 H   0  0  0  0  0  0  0  0  0  0  0  0
  145.6563   72.9586  222.1677 H   0  0  0  0  0  0  0  0  0  0  0  0
  144.8448   71.8661  221.4056 H   0  0  0  0  0  0  0  0  0  0  0  0
  146.5388   74.2664  220.1140 H   0  0  0  0  0  0  0  0  0  0  0  0
  145.8877   73.4096  218.9963 H   0  0  0  0  0  0  0  0  0  0  0  0
  1  2  2  3
  2  3  1  0
  3  4  1  0
  4  5  2  0
  4  6  1  0
  6  7  1  0
  7  8  1  0
  8  9  2  0
  9 10  1  0
 10 11  2  0
 11 12  1  0
 12 13  2  0
  3 14  2  0
 14 15  1  0
 15 16  1  0
 16 17  2  0
 16 18  1  0
 18 19  1  0
 19 20  2  0
 20 21  1  0
 21 22  2  0
 22 23  1  0
 23 24  2  0
 24 25  1  0
 25 26  1  0
 26 27  1  0
 27 28  1  0
 28 29  1  0
 29 30  1  0
 26  2  1  0
 30 28  1  0
 13  8  1  0
 25 15  2  0
 23 18  1  0
  1 31  1  0
  6 32  1  0
  7 33  1  0
  7 34  1  0
  9 35  1  0
 10 36  1  0
 11 37  1  0
 12 38  1  0
 14 39  1  0
 19 40  1  0
 20 41  1  0
 21 42  1  0
 22 43  1  0
 27 44  1  0
 27 45  1  0
 28 46  1  0
 29 47  1  0
 29 48  1  0
 30 49  1  0
 30 50  1  0
M  END
>  <smiles>  (4) 
N=c1c(C(=O)NCc2ccccn2)cc2c(=O)n3ccccc3nc2n1CC1CC1

>  <score_type>  (4) 
oracle

>  <origin>  (4) 
autodockgpu

>  <m_score__min__energy>  (4) 
-7.5199999999999996

>  <m_primary>  (4) 
energy

>  <meeko>  (4) 
{"free_energy": -7.48, "intermolecular_energy": -9.27, "internal_energy": -1.29, "cluster_size": 10, "cluster_id": 1, "rank_in_cluster": 4}

>  <energy>  (4) 
-7.48

>  <cluster_rmsd>  (4) 
0.17

>  <rmsd>  (4) 
270.93

>  <cluster>  (4) 
1

$$$$

     RDKit          3D

 50 54  0  0  0  0  0  0  0  0999 V2000
  139.5750   74.1770  222.4300 N   0  0  0  0  0  0  0  0  0  0  0  0
  142.9490   73.7090  218.2370 C   0  0  0  0  0  0  0  0  0  0  0  0
  140.9170   72.7550  221.1180 C   0  0  0  0  0  0  0  0  0  0  0  0
  140.5280   71.5770  221.9300 C   0  0  0  0  0  0  0  0  0  0  0  0
  140.3230   70.4690  221.3890 O   0  0  0  0  0  0  0  0  0  0  0  0
  140.4070   71.7930  223.3450 N   0  0  0  0  0  0  0  0  0  0  0  0
  140.0430   70.7430  224.2720 C   0  0  0  0  0  0  0  0  0  0  0  0
  140.4310   70.9770  225.6620 C   0  0  0  0  0  0  0  0  0  0  0  0
  140.0530   70.0220  226.6130 C   0  0  0  0  0  0  0  0  0  0  0  0
  140.3610   70.1700  227.9520 C   0  0  0  0  0  0  0  0  0  0  0  0
  141.0520   71.2830  228.3360 C   0  0  0  0  0  0  0  0  0  0  0  0
  141.4390   72.2440  227.4040 C   0  0  0  0  0  0  0  0  0  0  0  0
  141.1090   72.0450  226.1050 N   0  0  0  0  0  0  0  0  0  0  0  0
  141.7910   72.6040  220.0460 C   0  0  0  0  0  0  0  0  0  0  0  0
  142.0860   73.7570  219.3320 C   0  0  0  0  0  0  0  0  0  0  0  0
  140.3760   74.0000  221.4470 C   0  0  0  0  0  0  0  0  0  0  0  0
  143.4580   72.6290  217.8990 O   0  0  0  0  0  0  0  0  0  0  0  0
  143.2490   74.8110  217.5210 N   0  0  0  0  0  0  0  0  0  0  0  0
  144.0670   74.8090  216.4580 C   0  0  0  0  0  0  0  0  0  0  0  0
  144.3640   75.9500  215.7280 C   0  0  0  0  0  0  0  0  0  0  0  0
  143.7900   77.1420  216.1130 C   0  0  0  0  0  0  0  0  0  0  0  0
  142.9450   77.1690  217.2020 C   0  0  0  0  0  0  0  0  0  0  0  0
  142.6940   75.9760  217.8900 C   0  0  0  0  0  0  0  0  0  0  0  0
  141.8540   76.0870  218.9390 N   0  0  0  0  0  0  0  0  0  0  0  0
  141.5520   74.9850  219.6550 C   0  0  0  0  0  0  0  0  0  0  0  0
  140.6970   75.0830  220.7190 N   0  0  0  0  0  0  0  0  0  0  0  0
  140.1870   76.4140  220.9800 C   0  0  0  0  0  0  0  0  0  0  0  0
  140.7060   77.0360  222.2310 C   0  0  0  0  0  0  0  0  0  0  0  0
  141.4500   78.2960  222.2980 C   0  0  0  0  0  0  0  0  0  0  0  0
  140.0110   78.2990  222.6810 C   0  0  0  0  0  0  0  0  0  0  0  0
  138.8020   73.6130  222.7620 H   0  0  0  0  0  0  0  0  0  0  0  0
  140.5940   72.7770  223.7050 H   0  0  0  0  0  0  0  0  0  0  0  0
  138.9499   70.6242  224.2393 H   0  0  0  0  0  0  0  0  0  0  0  0
  140.5926   69.8467  223.9487 H   0  0  0  0  0  0  0  0  0  0  0  0
  139.4967   69.1311  226.2862 H   0  0  0  0  0  0  0  0  0  0  0  0
  140.0576   69.4115  228.6886 H   0  0  0  0  0  0  0  0  0  0  0  0
  141.3071   71.4233  229.3968 H   0  0  0  0  0  0  0  0  0  0  0  0
  141.9971   73.1396  227.7144 H   0  0  0  0  0  0  0  0  0  0  0  0
  142.2229   71.6279  219.7800 H   0  0  0  0  0  0  0  0  0  0  0  0
  144.5241   73.8568  216.1506 H   0  0  0  0  0  0  0  0  0  0  0  0
  145.0414   75.9046  214.8625 H   0  0  0  0  0  0  0  0  0  0  0  0
  144.0045   78.0656  215.5554 H   0  0  0  0  0  0  0  0  0  0  0  0
  142.4767   78.1107  217.5243 H   0  0  0  0  0  0  0  0  0  0  0  0
  140.4628   77.0605  220.1339 H   0  0  0  0  0  0  0  0  0  0  0  0
  139.0987   76.3149  221.1058 H   0  0  0  0  0  0  0  0  0  0  0  0
  140.9414   76.0341  222.6192 H   0  0  0  0  0  0  0  0  0  0  0  0
  142.2207   78.4344  223.0705 H   0  0  0  0  0  0  0  0  0  0  0  0
  142.0563   78.8700  221.5818 H   0  0  0  0  0  0  0  0  0  0  0  0
  139.7179   78.4254  223.7337 H   0  0  0  0  0  0  0  0  0  0  0  0
  139.1155   78.8575  222.3708 H   0  0  0  0  0  0  0  0  0  0  0  0
  1  2  2  3
  2  3  1  0
  3  4  1  0
  4  5  2  0
  4  6  1  0
  6  7  1  0
  7  8  1  0
  8  9  2  0
  9 10  1  0
 10 11  2  0
 11 12  1  0
 12 13  2  0
  3 14  2  0
 14 15  1  0
 15 16  1  0
 16 17  2  0
 16 18  1  0
 18 19  1  0
 19 20  2  0
 20 21  1  0
 21 22  2  0
 22 23  1  0
 23 24  2  0
 24 25  1  0
 25 26  1  0
 26 27  1  0
 27 28  1  0
 28 29  1  0
 29 30  1  0
 26  2  1  0
 30 28  1  0
 13  8  1  0
 25 15  2  0
 23 18  1  0
  1 31  1  0
  6 32  1  0
  7 33  1  0
  7 34  1  0
  9 35  1  0
 10 36  1  0
 11 37  1  0
 12 38  1  0
 14 39  1  0
 19 40  1  0
 20 41  1  0
 21 42  1  0
 22 43  1  0
 27 44  1  0
 27 45  1  0
 28 46  1  0
 29 47  1  0
 29 48  1  0
 30 49  1  0
 30 50  1  0
M  END
>  <smiles>  (5) 
N=c1c(C(=O)NCc2ccccn2)cc2c(=O)n3ccccc3nc2n1CC1CC1

>  <score_type>  (5) 
oracle

>  <origin>  (5) 
autodockgpu

>  <m_score__min__energy>  (5) 
-7.5199999999999996

>  <m_primary>  (5) 
energy

>  <meeko>  (5) 
{"free_energy": -7.21, "intermolecular_energy": -9.0, "internal_energy": -1.44, "cluster_size": 1, "cluster_id": 2, "rank_in_cluster": 1}

>  <energy>  (5) 
-7.39

>  <cluster_rmsd>  (5) 
1.21

>  <rmsd>  (5) 
271.19

>  <cluster>  (5) 
1

$$$$

     RDKit          3D

 50 54  0  0  0  0  0  0  0  0999 V2000
  142.1820   77.6870  220.8380 N   0  0  0  0  0  0  0  0  0  0  0  0
  137.3290   78.4110  223.0990 C   0  0  0  0  0  0  0  0  0  0  0  0
  140.1960   76.6950  221.6260 C   0  0  0  0  0  0  0  0  0  0  0  0
  140.6920   75.3410  221.2770 C   0  0  0  0  0  0  0  0  0  0  0  0
  140.4140   74.3560  221.9950 O   0  0  0  0  0  0  0  0  0  0  0  0
  141.4900   75.2440  220.0880 N   0  0  0  0  0  0  0  0  0  0  0  0
  142.0390   73.9930  219.6100 C   0  0  0  0  0  0  0  0  0  0  0  0
  143.4350   73.7470  219.9680 C   0  0  0  0  0  0  0  0  0  0  0  0
  143.9410   72.4580  219.7670 C   0  0  0  0  0  0  0  0  0  0  0  0
  145.2440   72.1310  220.0950 C   0  0  0  0  0  0  0  0  0  0  0  0
  146.0400   73.1050  220.6260 C   0  0  0  0  0  0  0  0  0  0  0  0
  145.5550   74.3950  220.8320 C   0  0  0  0  0  0  0  0  0  0  0  0
  144.2690   74.6570  220.4920 N   0  0  0  0  0  0  0  0  0  0  0  0
  138.9410   76.8500  222.2040 C   0  0  0  0  0  0  0  0  0  0  0  0
  138.5670   78.1510  222.5120 C   0  0  0  0  0  0  0  0  0  0  0  0
  141.0240   77.7920  221.3740 C   0  0  0  0  0  0  0  0  0  0  0  0
  136.5540   77.4730  223.3460 O   0  0  0  0  0  0  0  0  0  0  0  0
  136.9410   79.6620  223.4150 N   0  0  0  0  0  0  0  0  0  0  0  0
  135.7630   79.9560  223.9860 C   0  0  0  0  0  0  0  0  0  0  0  0
  135.3800   81.2490  224.3100 C   0  0  0  0  0  0  0  0  0  0  0  0
  136.2510   82.2790  224.0320 C   0  0  0  0  0  0  0  0  0  0  0  0
  137.4680   82.0020  223.4460 C   0  0  0  0  0  0  0  0  0  0  0  0
  137.7840   80.6720  223.1480 C   0  0  0  0  0  0  0  0  0  0  0  0
  138.9940   80.4850  222.5810 N   0  0  0  0  0  0  0  0  0  0  0  0
  139.3830   79.2340  222.2660 C   0  0  0  0  0  0  0  0  0  0  0  0
  140.6100   79.0300  221.6950 N   0  0  0  0  0  0  0  0  0  0  0  0
  141.3940   80.2280  221.4760 C   0  0  0  0  0  0  0  0  0  0  0  0
  142.3550   80.5430  222.5710 C   0  0  0  0  0  0  0  0  0  0  0  0
  142.0100   81.2210  223.8230 C   0  0  0  0  0  0  0  0  0  0  0  0
  142.1950   79.7430  223.8420 C   0  0  0  0  0  0  0  0  0  0  0  0
  142.9080   76.9940  220.9660 H   0  0  0  0  0  0  0  0  0  0  0  0
  141.6770   76.1450  219.5510 H   0  0  0  0  0  0  0  0  0  0  0  0
  141.4323   73.1747  220.0251 H   0  0  0  0  0  0  0  0  0  0  0  0
  142.0114   74.0481  218.5117 H   0  0  0  0  0  0  0  0  0  0  0  0
  143.2861   71.6856  219.3374 H   0  0  0  0  0  0  0  0  0  0  0  0
  145.6289   71.1134  219.9325 H   0  0  0  0  0  0  0  0  0  0  0  0
  147.0798   72.8678  220.8953 H   0  0  0  0  0  0  0  0  0  0  0  0
  146.1978   75.1791  221.2587 H   0  0  0  0  0  0  0  0  0  0  0  0
  138.2829   75.9919  222.4055 H   0  0  0  0  0  0  0  0  0  0  0  0
  135.0681   79.1326  224.2076 H   0  0  0  0  0  0  0  0  0  0  0  0
  134.4043   81.4471  224.7777 H   0  0  0  0  0  0  0  0  0  0  0  0
  135.9775   83.3162  224.2759 H   0  0  0  0  0  0  0  0  0  0  0  0
  138.1770   82.8113  223.2171 H   0  0  0  0  0  0  0  0  0  0  0  0
  141.9640   80.1006  220.5439 H   0  0  0  0  0  0  0  0  0  0  0  0
  140.6823   81.0656  221.4320 H   0  0  0  0  0  0  0  0  0  0  0  0
  143.1270   80.7608  221.8183 H   0  0  0  0  0  0  0  0  0  0  0  0
  142.7499   81.8701  224.3141 H   0  0  0  0  0  0  0  0  0  0  0  0
  141.2009   81.8988  224.1329 H   0  0  0  0  0  0  0  0  0  0  0  0
  143.0745   79.3008  224.3329 H   0  0  0  0  0  0  0  0  0  0  0  0
  141.5920   78.8786  224.1569 H   0  0  0  0  0  0  0  0  0  0  0  0
  1  2  2  3
  2  3  1  0
  3  4  1  0
  4  5  2  0
  4  6  1  0
  6  7  1  0
  7  8  1  0
  8  9  2  0
  9 10  1  0
 10 11  2  0
 11 12  1  0
 12 13  2  0
  3 14  2  0
 14 15  1  0
 15 16  1  0
 16 17  2  0
 16 18  1  0
 18 19  1  0
 19 20  2  0
 20 21  1  0
 21 22  2  0
 22 23  1  0
 23 24  2  0
 24 25  1  0
 25 26  1  0
 26 27  1  0
 27 28  1  0
 28 29  1  0
 29 30  1  0
 26  2  1  0
 30 28  1  0
 13  8  1  0
 25 15  2  0
 23 18  1  0
  1 31  1  0
  6 32  1  0
  7 33  1  0
  7 34  1  0
  9 35  1  0
 10 36  1  0
 11 37  1  0
 12 38  1  0
 14 39  1  0
 19 40  1  0
 20 41  1  0
 21 42  1  0
 22 43  1  0
 27 44  1  0
 27 45  1  0
 28 46  1  0
 29 47  1  0
 29 48  1  0
 30 49  1  0
 30 50  1  0
M  END
>  <smiles>  (6) 
N=c1c(C(=O)NCc2ccccn2)cc2c(=O)n3ccccc3nc2n1CC1CC1

>  <score_type>  (6) 
oracle

>  <origin>  (6) 
autodockgpu

>  <m_score__min__energy>  (6) 
-7.5199999999999996

>  <m_primary>  (6) 
energy

>  <meeko>  (6) 
{"free_energy": -7.0, "intermolecular_energy": -8.79, "internal_energy": -1.65, "cluster_size": 4, "cluster_id": 4, "rank_in_cluster": 1}

>  <energy>  (6) 
-7.39

>  <cluster_rmsd>  (6) 
1.22

>  <rmsd>  (6) 
271.21

>  <cluster>  (6) 
1

$$$$

     RDKit          3D

 50 54  0  0  0  0  0  0  0  0999 V2000
  142.5930   71.9480  220.6130 N   0  0  0  0  0  0  0  0  0  0  0  0
  140.0440   76.6110  221.5860 C   0  0  0  0  0  0  0  0  0  0  0  0
  140.8170   73.0440  221.7050 C   0  0  0  0  0  0  0  0  0  0  0  0
  140.3540   71.7710  222.3090 C   0  0  0  0  0  0  0  0  0  0  0  0
  140.3530   70.7130  221.6420 O   0  0  0  0  0  0  0  0  0  0  0  0
  139.9220   71.8350  223.6760 N   0  0  0  0  0  0  0  0  0  0  0  0
  139.4510   70.6790  224.4080 C   0  0  0  0  0  0  0  0  0  0  0  0
  139.9970   70.5300  225.7570 C   0  0  0  0  0  0  0  0  0  0  0  0
  139.9660   69.2560  226.3340 C   0  0  0  0  0  0  0  0  0  0  0  0
  140.4420   69.0260  227.6110 C   0  0  0  0  0  0  0  0  0  0  0  0
  140.9530   70.0820  228.3090 C   0  0  0  0  0  0  0  0  0  0  0  0
  140.9930   71.3580  227.7510 C   0  0  0  0  0  0  0  0  0  0  0  0
  140.5110   71.5240  226.4950 N   0  0  0  0  0  0  0  0  0  0  0  0
  140.1380   74.2280  221.9710 C   0  0  0  0  0  0  0  0  0  0  0  0
  140.6510   75.3730  221.3760 C   0  0  0  0  0  0  0  0  0  0  0  0
  141.9480   73.0200  220.8850 C   0  0  0  0  0  0  0  0  0  0  0  0
  139.0370   76.6900  222.3060 O   0  0  0  0  0  0  0  0  0  0  0  0
  140.5230   77.7400  221.0270 N   0  0  0  0  0  0  0  0  0  0  0  0
  139.9750   78.9510  221.2070 C   0  0  0  0  0  0  0  0  0  0  0  0
  140.4820   80.1060  220.6280 C   0  0  0  0  0  0  0  0  0  0  0  0
  141.6030   80.0020  219.8340 C   0  0  0  0  0  0  0  0  0  0  0  0
  142.1840   78.7680  219.6340 C   0  0  0  0  0  0  0  0  0  0  0  0
  141.6140   77.6480  220.2510 C   0  0  0  0  0  0  0  0  0  0  0  0
  142.2450   76.4800  220.0100 N   0  0  0  0  0  0  0  0  0  0  0  0
  141.7670   75.3510  220.5690 C   0  0  0  0  0  0  0  0  0  0  0  0
  142.4010   74.1600  220.3370 N   0  0  0  0  0  0  0  0  0  0  0  0
  143.5640   74.2390  219.4770 C   0  0  0  0  0  0  0  0  0  0  0  0
  144.8620   74.3350  220.2050 C   0  0  0  0  0  0  0  0  0  0  0  0
  145.3390   73.3750  221.2030 C   0  0  0  0  0  0  0  0  0  0  0  0
  145.9090   73.3140  219.8280 C   0  0  0  0  0  0  0  0  0  0  0  0
  142.3250   70.9750  220.7030 H   0  0  0  0  0  0  0  0  0  0  0  0
  139.9530   72.7880  224.1530 H   0  0  0  0  0  0  0  0  0  0  0  0
  138.3565   70.7512  224.4901 H   0  0  0  0  0  0  0  0  0  0  0  0
  139.7926   69.7998  223.8420 H   0  0  0  0  0  0  0  0  0  0  0  0
  139.5523   68.4160  225.7567 H   0  0  0  0  0  0  0  0  0  0  0  0
  140.4099   68.0192  228.0529 H   0  0  0  0  0  0  0  0  0  0  0  0
  141.3388   69.9232  229.3268 H   0  0  0  0  0  0  0  0  0  0  0  0
  141.4048   72.2081  228.3147 H   0  0  0  0  0  0  0  0  0  0  0  0
  139.2467   74.2559  222.6150 H   0  0  0  0  0  0  0  0  0  0  0  0
  139.0816   79.0325  221.8436 H   0  0  0  0  0  0  0  0  0  0  0  0
  140.0007   81.0802  220.7989 H   0  0  0  0  0  0  0  0  0  0  0  0
  142.0320   80.8984  219.3624 H   0  0  0  0  0  0  0  0  0  0  0  0
  143.0783   78.6653  219.0018 H   0  0  0  0  0  0  0  0  0  0  0  0
  143.5884   73.3374  218.8473 H   0  0  0  0  0  0  0  0  0  0  0  0
  143.4613   75.1660  218.8939 H   0  0  0  0  0  0  0  0  0  0  0  0
  144.7457   75.4279  220.2492 H   0  0  0  0  0  0  0  0  0  0  0  0
  145.9649   73.7218  222.0385 H   0  0  0  0  0  0  0  0  0  0  0  0
  144.8485   72.6464  221.8651 H   0  0  0  0  0  0  0  0  0  0  0  0
  146.9474   73.6269  219.6441 H   0  0  0  0  0  0  0  0  0  0  0  0
  146.0108   72.5411  219.0520 H   0  0  0  0  0  0  0  0  0  0  0  0
  1  2  2  3
  2  3  1  0
  3  4  1  0
  4  5  2  0
  4  6  1  0
  6  7  1  0
  7  8  1  0
  8  9  2  0
  9 10  1  0
 10 11  2  0
 11 12  1  0
 12 13  2  0
  3 14  2  0
 14 15  1  0
 15 16  1  0
 16 17  2  0
 16 18  1  0
 18 19  1  0
 19 20  2  0
 20 21  1  0
 21 22  2  0
 22 23  1  0
 23 24  2  0
 24 25  1  0
 25 26  1  0
 26 27  1  0
 27 28  1  0
 28 29  1  0
 29 30  1  0
 26  2  1  0
 30 28  1  0
 13  8  1  0
 25 15  2  0
 23 18  1  0
  1 31  1  0
  6 32  1  0
  7 33  1  0
  7 34  1  0
  9 35  1  0
 10 36  1  0
 11 37  1  0
 12 38  1  0
 14 39  1  0
 19 40  1  0
 20 41  1  0
 21 42  1  0
 22 43  1  0
 27 44  1  0
 27 45  1  0
 28 46  1  0
 29 47  1  0
 29 48  1  0
 30 49  1  0
 30 50  1  0
M  END
>  <smiles>  (7) 
N=c1c(C(=O)NCc2ccccn2)cc2c(=O)n3ccccc3nc2n1CC1CC1

>  <score_type>  (7) 
oracle

>  <origin>  (7) 
autodockgpu

>  <m_score__min__energy>  (7) 
-7.5199999999999996

>  <m_primary>  (7) 
energy

>  <meeko>  (7) 
{"free_energy": -7.39, "intermolecular_energy": -9.18, "internal_energy": -1.39, "cluster_size": 10, "cluster_id": 1, "rank_in_cluster": 6}

>  <energy>  (7) 
-7.38

>  <cluster_rmsd>  (7) 
1.16

>  <rmsd>  (7) 
271.19

>  <cluster>  (7) 
1

$$$$

     RDKit          3D

 50 54  0  0  0  0  0  0  0  0999 V2000
  142.5730   71.9570  220.5330 N   0  0  0  0  0  0  0  0  0  0  0  0
  140.0440   76.6020  221.6370 C   0  0  0  0  0  0  0  0  0  0  0  0
  140.8070   73.0310  221.6640 C   0  0  0  0  0  0  0  0  0  0  0  0
  140.3460   71.7440  222.2390 C   0  0  0  0  0  0  0  0  0  0  0  0
  140.3380   70.7030  221.5480 O   0  0  0  0  0  0  0  0  0  0  0  0
  139.9200   71.7770  223.6100 N   0  0  0  0  0  0  0  0  0  0  0  0
  139.4510   70.6050  224.3160 C   0  0  0  0  0  0  0  0  0  0  0  0
  139.9200   70.4780  225.6960 C   0  0  0  0  0  0  0  0  0  0  0  0
  139.6730   69.2710  226.3590 C   0  0  0  0  0  0  0  0  0  0  0  0
  140.0630   69.0700  227.6690 C   0  0  0  0  0  0  0  0  0  0  0  0
  140.7060   70.0870  228.3150 C   0  0  0  0  0  0  0  0  0  0  0  0
  140.9620   71.2960  227.6710 C   0  0  0  0  0  0  0  0  0  0  0  0
  140.5560   71.4360  226.3850 N   0  0  0  0  0  0  0  0  0  0  0  0
  140.1340   74.2100  221.9630 C   0  0  0  0  0  0  0  0  0  0  0  0
  140.6460   75.3670  221.3930 C   0  0  0  0  0  0  0  0  0  0  0  0
  141.9330   73.0240  220.8360 C   0  0  0  0  0  0  0  0  0  0  0  0
  139.0420   76.6660  222.3660 O   0  0  0  0  0  0  0  0  0  0  0  0
  140.5230   77.7430  221.1040 N   0  0  0  0  0  0  0  0  0  0  0  0
  139.9800   78.9500  221.3170 C   0  0  0  0  0  0  0  0  0  0  0  0
  140.4860   80.1180  220.7630 C   0  0  0  0  0  0  0  0  0  0  0  0
  141.6000   80.0310  219.9580 C   0  0  0  0  0  0  0  0  0  0  0  0
  142.1770   78.8000  219.7250 C   0  0  0  0  0  0  0  0  0  0  0  0
  141.6080   77.6670  220.3170 C   0  0  0  0  0  0  0  0  0  0  0  0
  142.2340   76.5040  220.0430 N   0  0  0  0  0  0  0  0  0  0  0  0
  141.7570   75.3620  220.5780 C   0  0  0  0  0  0  0  0  0  0  0  0
  142.3850   74.1760  220.3130 N   0  0  0  0  0  0  0  0  0  0  0  0
  143.5420   74.2720  219.4460 C   0  0  0  0  0  0  0  0  0  0  0  0
  144.8470   74.3170  220.1660 C   0  0  0  0  0  0  0  0  0  0  0  0
  145.2670   73.3730  221.2060 C   0  0  0  0  0  0  0  0  0  0  0  0
  145.8250   73.2150  219.8340 C   0  0  0  0  0  0  0  0  0  0  0  0
  142.3030   70.9830  220.6020 H   0  0  0  0  0  0  0  0  0  0  0  0
  139.9560   72.7180  224.1090 H   0  0  0  0  0  0  0  0  0  0  0  0
  138.3515   70.6350  224.3320 H   0  0  0  0  0  0  0  0  0  0  0  0
  139.8600   69.7393  223.7745 H   0  0  0  0  0  0  0  0  0  0  0  0
  139.1552   68.4615  225.8236 H   0  0  0  0  0  0  0  0  0  0  0  0
  139.8610   68.1161  228.1782 H   0  0  0  0  0  0  0  0  0  0  0  0
  141.0263   69.9499  229.3584 H   0  0  0  0  0  0  0  0  0  0  0  0
  141.4796   72.1149  228.1921 H   0  0  0  0  0  0  0  0  0  0  0  0
  139.2472   74.2249  222.6136 H   0  0  0  0  0  0  0  0  0  0  0  0
  139.0912   79.0182  221.9615 H   0  0  0  0  0  0  0  0  0  0  0  0
  140.0089   81.0890  220.9621 H   0  0  0  0  0  0  0  0  0  0  0  0
  142.0269   80.9373  219.5038 H   0  0  0  0  0  0  0  0  0  0  0  0
  143.0678   78.7107  219.0858 H   0  0  0  0  0  0  0  0  0  0  0  0
  143.5464   73.3970  218.7795 H   0  0  0  0  0  0  0  0  0  0  0  0
  143.4496   75.2237  218.9021 H   0  0  0  0  0  0  0  0  0  0  0  0
  144.8009   75.4160  220.1607 H   0  0  0  0  0  0  0  0  0  0  0  0
  145.9178   73.7158  222.0239 H   0  0  0  0  0  0  0  0  0  0  0  0
  144.7343   72.7073  221.9011 H   0  0  0  0  0  0  0  0  0  0  0  0
  146.8804   73.4523  219.6343 H   0  0  0  0  0  0  0  0  0  0  0  0
  145.8734   72.4032  219.0933 H   0  0  0  0  0  0  0  0  0  0  0  0
  1  2  2  3
  2  3  1  0
  3  4  1  0
  4  5  2  0
  4  6  1  0
  6  7  1  0
  7  8  1  0
  8  9  2  0
  9 10  1  0
 10 11  2  0
 11 12  1  0
 12 13  2  0
  3 14  2  0
 14 15  1  0
 15 16  1  0
 16 17  2  0
 16 18  1  0
 18 19  1  0
 19 20  2  0
 20 21  1  0
 21 22  2  0
 22 23  1  0
 23 24  2  0
 24 25  1  0
 25 26  1  0
 26 27  1  0
 27 28  1  0
 28 29  1  0
 29 30  1  0
 26  2  1  0
 30 28  1  0
 13  8  1  0
 25 15  2  0
 23 18  1  0
  1 31  1  0
  6 32  1  0
  7 33  1  0
  7 34  1  0
  9 35  1  0
 10 36  1  0
 11 37  1  0
 12 38  1  0
 14 39  1  0
 19 40  1  0
 20 41  1  0
 21 42  1  0
 22 43  1  0
 27 44  1  0
 27 45  1  0
 28 46  1  0
 29 47  1  0
 29 48  1  0
 30 49  1  0
 30 50  1  0
M  END
>  <smiles>  (8) 
N=c1c(C(=O)NCc2ccccn2)cc2c(=O)n3ccccc3nc2n1CC1CC1

>  <score_type>  (8) 
oracle

>  <origin>  (8) 
autodockgpu

>  <m_score__min__energy>  (8) 
-7.5199999999999996

>  <m_primary>  (8) 
energy

>  <meeko>  (8) 
{"free_energy": -7.33, "intermolecular_energy": -9.12, "internal_energy": -1.4, "cluster_size": 10, "cluster_id": 1, "rank_in_cluster": 10}

>  <energy>  (8) 
-7.38

>  <cluster_rmsd>  (8) 
1.23

>  <rmsd>  (8) 
271.2

>  <cluster>  (8) 
1

$$$$

     RDKit          3D

 50 54  0  0  0  0  0  0  0  0999 V2000
  142.5560   71.7930  220.5750 N   0  0  0  0  0  0  0  0  0  0  0  0
  140.0570   76.4740  221.5930 C   0  0  0  0  0  0  0  0  0  0  0  0
  140.8000   72.9000  221.6890 C   0  0  0  0  0  0  0  0  0  0  0  0
  140.3320   71.6280  222.2910 C   0  0  0  0  0  0  0  0  0  0  0  0
  140.3270   70.5710  221.6240 O   0  0  0  0  0  0  0  0  0  0  0  0
  139.8980   71.6930  223.6580 N   0  0  0  0  0  0  0  0  0  0  0  0
  139.4230   70.5380  224.3880 C   0  0  0  0  0  0  0  0  0  0  0  0
  139.9530   70.3950  225.7430 C   0  0  0  0  0  0  0  0  0  0  0  0
  139.9430   69.1170  226.3140 C   0  0  0  0  0  0  0  0  0  0  0  0
  140.4070   68.8920  227.5960 C   0  0  0  0  0  0  0  0  0  0  0  0
  140.8850   69.9560  228.3060 C   0  0  0  0  0  0  0  0  0  0  0  0
  140.9050   71.2350  227.7540 C   0  0  0  0  0  0  0  0  0  0  0  0
  140.4360   71.3960  226.4920 N   0  0  0  0  0  0  0  0  0  0  0  0
  140.1340   74.0880  221.9660 C   0  0  0  0  0  0  0  0  0  0  0  0
  140.6510   75.2320  221.3720 C   0  0  0  0  0  0  0  0  0  0  0  0
  141.9230   72.8700  220.8580 C   0  0  0  0  0  0  0  0  0  0  0  0
  139.0570   76.5590  222.3230 O   0  0  0  0  0  0  0  0  0  0  0  0
  140.5400   77.6020  221.0350 N   0  0  0  0  0  0  0  0  0  0  0  0
  140.0050   78.8160  221.2260 C   0  0  0  0  0  0  0  0  0  0  0  0
  140.5160   79.9690  220.6480 C   0  0  0  0  0  0  0  0  0  0  0  0
  141.6280   79.8600  219.8420 C   0  0  0  0  0  0  0  0  0  0  0  0
  142.1970   78.6220  219.6320 C   0  0  0  0  0  0  0  0  0  0  0  0
  141.6230   77.5040  220.2480 C   0  0  0  0  0  0  0  0  0  0  0  0
  142.2420   76.3320  219.9960 N   0  0  0  0  0  0  0  0  0  0  0  0
  141.7600   75.2040  220.5540 C   0  0  0  0  0  0  0  0  0  0  0  0
  142.3810   74.0090  220.3110 N   0  0  0  0  0  0  0  0  0  0  0  0
  143.5360   74.0810  219.4400 C   0  0  0  0  0  0  0  0  0  0  0  0
  144.8330   74.2590  220.1540 C   0  0  0  0  0  0  0  0  0  0  0  0
  145.3480   73.3680  221.1970 C   0  0  0  0  0  0  0  0  0  0  0  0
  145.9140   73.2560  219.8230 C   0  0  0  0  0  0  0  0  0  0  0  0
  142.2790   70.8230  220.6610 H   0  0  0  0  0  0  0  0  0  0  0  0
  139.9320   72.6450  224.1350 H   0  0  0  0  0  0  0  0  0  0  0  0
  138.3273   70.6064  224.4570 H   0  0  0  0  0  0  0  0  0  0  0  0
  139.7749   69.6585  223.8289 H   0  0  0  0  0  0  0  0  0  0  0  0
  139.5561   68.2706  225.7275 H   0  0  0  0  0  0  0  0  0  0  0  0
  140.3917   67.8826  228.0330 H   0  0  0  0  0  0  0  0  0  0  0  0
  141.2597   69.8010  229.3285 H   0  0  0  0  0  0  0  0  0  0  0  0
  141.2909   72.0913  228.3266 H   0  0  0  0  0  0  0  0  0  0  0  0
  139.2486   74.1203  222.6180 H   0  0  0  0  0  0  0  0  0  0  0  0
  139.1187   78.9022  221.8717 H   0  0  0  0  0  0  0  0  0  0  0  0
  140.0448   80.9464  220.8288 H   0  0  0  0  0  0  0  0  0  0  0  0
  142.0590   80.7548  219.3692 H   0  0  0  0  0  0  0  0  0  0  0  0
  143.0855   78.5149  218.9923 H   0  0  0  0  0  0  0  0  0  0  0  0
  143.5878   73.1485  218.8588 H   0  0  0  0  0  0  0  0  0  0  0  0
  143.3993   74.9713  218.8086 H   0  0  0  0  0  0  0  0  0  0  0  0
  144.6788   75.3481  220.1431 H   0  0  0  0  0  0  0  0  0  0  0  0
  145.9652   73.7786  222.0097 H   0  0  0  0  0  0  0  0  0  0  0  0
  144.8860   72.6577  221.8985 H   0  0  0  0  0  0  0  0  0  0  0  0
  146.9401   73.5947  219.6169 H   0  0  0  0  0  0  0  0  0  0  0  0
  146.0392   72.4482  219.0870 H   0  0  0  0  0  0  0  0  0  0  0  0
  1  2  2  3
  2  3  1  0
  3  4  1  0
  4  5  2  0
  4  6  1  0
  6  7  1  0
  7  8  1  0
  8  9  2  0
  9 10  1  0
 10 11  2  0
 11 12  1  0
 12 13  2  0
  3 14  2  0
 14 15  1  0
 15 16  1  0
 16 17  2  0
 16 18  1  0
 18 19  1  0
 19 20  2  0
 20 21  1  0
 21 22  2  0
 22 23  1  0
 23 24  2  0
 24 25  1  0
 25 26  1  0
 26 27  1  0
 27 28  1  0
 28 29  1  0
 29 30  1  0
 26  2  1  0
 30 28  1  0
 13  8  1  0
 25 15  2  0
 23 18  1  0
  1 31  1  0
  6 32  1  0
  7 33  1  0
  7 34  1  0
  9 35  1  0
 10 36  1  0
 11 37  1  0
 12 38  1  0
 14 39  1  0
 19 40  1  0
 20 41  1  0
 21 42  1  0
 22 43  1  0
 27 44  1  0
 27 45  1  0
 28 46  1  0
 29 47  1  0
 29 48  1  0
 30 49  1  0
 30 50  1  0
M  END
>  <smiles>  (9) 
N=c1c(C(=O)NCc2ccccn2)cc2c(=O)n3ccccc3nc2n1CC1CC1

>  <score_type>  (9) 
oracle

>  <origin>  (9) 
autodockgpu

>  <m_score__min__energy>  (9) 
-7.5199999999999996

>  <m_primary>  (9) 
energy

>  <meeko>  (9) 
{"free_energy": -7.37, "intermolecular_energy": -9.16, "internal_energy": -1.42, "cluster_size": 10, "cluster_id": 1, "rank_in_cluster": 9}

>  <energy>  (9) 
-7.37

>  <cluster_rmsd>  (9) 
1.16

>  <rmsd>  (9) 
271.16

>  <cluster>  (9) 
1

$$$$

     RDKit          3D

 50 54  0  0  0  0  0  0  0  0999 V2000
  142.0810   71.5770  220.5100 N   0  0  0  0  0  0  0  0  0  0  0  0
  139.6510   76.0460  222.3300 C   0  0  0  0  0  0  0  0  0  0  0  0
  140.3410   72.4990  221.8030 C   0  0  0  0  0  0  0  0  0  0  0  0
  139.8550   71.1490  222.1770 C   0  0  0  0  0  0  0  0  0  0  0  0
  140.1290   70.1550  221.4700 O   0  0  0  0  0  0  0  0  0  0  0  0
  139.0690   71.0650  223.3750 N   0  0  0  0  0  0  0  0  0  0  0  0
  138.5300   69.8200  223.8770 C   0  0  0  0  0  0  0  0  0  0  0  0
  139.2750   69.2190  224.9830 C   0  0  0  0  0  0  0  0  0  0  0  0
  140.1540   70.0400  225.6980 C   0  0  0  0  0  0  0  0  0  0  0  0
  140.9110   69.5520  226.7460 C   0  0  0  0  0  0  0  0  0  0  0  0
  140.7830   68.2340  227.0770 C   0  0  0  0  0  0  0  0  0  0  0  0
  139.9120   67.4010  226.3780 C   0  0  0  0  0  0  0  0  0  0  0  0
  139.1950   67.9340  225.3590 N   0  0  0  0  0  0  0  0  0  0  0  0
  139.6930   73.6310  222.2830 C   0  0  0  0  0  0  0  0  0  0  0  0
  140.2270   74.8520  221.8950 C   0  0  0  0  0  0  0  0  0  0  0  0
  141.4640   72.5980  220.9760 C   0  0  0  0  0  0  0  0  0  0  0  0
  138.6520   76.0170  223.0660 O   0  0  0  0  0  0  0  0  0  0  0  0
  140.1500   77.2460  221.9740 N   0  0  0  0  0  0  0  0  0  0  0  0
  139.6320   78.4170  222.3740 C   0  0  0  0  0  0  0  0  0  0  0  0
  140.1610   79.6450  222.0030 C   0  0  0  0  0  0  0  0  0  0  0  0
  141.2710   79.6610  221.1880 C   0  0  0  0  0  0  0  0  0  0  0  0
  141.8210   78.4700  220.7640 C   0  0  0  0  0  0  0  0  0  0  0  0
  141.2320   77.2710  221.1790 C   0  0  0  0  0  0  0  0  0  0  0  0
  141.8330   76.1520  220.7260 N   0  0  0  0  0  0  0  0  0  0  0  0
  141.3340   74.9510  221.0820 C   0  0  0  0  0  0  0  0  0  0  0  0
  141.9380   73.8070  220.6340 N   0  0  0  0  0  0  0  0  0  0  0  0
  143.0940   74.0130  219.7860 C   0  0  0  0  0  0  0  0  0  0  0  0
  144.3870   74.1140  220.5220 C   0  0  0  0  0  0  0  0  0  0  0  0
  145.0410   73.0090  221.2280 C   0  0  0  0  0  0  0  0  0  0  0  0
  145.5650   73.4100  219.8920 C   0  0  0  0  0  0  0  0  0  0  0  0
  141.8120   70.6020  220.4760 H   0  0  0  0  0  0  0  0  0  0  0  0
  138.8840   71.9730  223.9010 H   0  0  0  0  0  0  0  0  0  0  0  0
  137.5026   70.0086  224.2217 H   0  0  0  0  0  0  0  0  0  0  0  0
  138.5901   69.1039  223.0442 H   0  0  0  0  0  0  0  0  0  0  0  0
  140.2447   71.1001  225.4189 H   0  0  0  0  0  0  0  0  0  0  0  0
  141.5988   70.2086  227.2991 H   0  0  0  0  0  0  0  0  0  0  0  0
  141.3761   67.8236  227.9076 H   0  0  0  0  0  0  0  0  0  0  0  0
  139.8091   66.3391  226.6461 H   0  0  0  0  0  0  0  0  0  0  0  0
  138.8081   73.5632  222.9328 H   0  0  0  0  0  0  0  0  0  0  0  0
  138.7466   78.4031  223.0265 H   0  0  0  0  0  0  0  0  0  0  0  0
  139.7047   80.5832  222.3515 H   0  0  0  0  0  0  0  0  0  0  0  0
  141.7159   80.6178  220.8773 H   0  0  0  0  0  0  0  0  0  0  0  0
  142.7065   78.4627  220.1115 H   0  0  0  0  0  0  0  0  0  0  0  0
  143.1619   73.1677  219.0854 H   0  0  0  0  0  0  0  0  0  0  0  0
  142.9444   74.9781  219.2798 H   0  0  0  0  0  0  0  0  0  0  0  0
  144.1055   75.1229  220.8580 H   0  0  0  0  0  0  0  0  0  0  0  0
  145.6347   73.2135  222.1311 H   0  0  0  0  0  0  0  0  0  0  0  0
  144.6922   72.0616  221.6647 H   0  0  0  0  0  0  0  0  0  0  0  0
  146.5356   73.9207  219.8079 H   0  0  0  0  0  0  0  0  0  0  0  0
  145.7575   72.8995  218.9369 H   0  0  0  0  0  0  0  0  0  0  0  0
  1  2  2  3
  2  3  1  0
  3  4  1  0
  4  5  2  0
  4  6  1  0
  6  7  1  0
  7  8  1  0
  8  9  2  0
  9 10  1  0
 10 11  2  0
 11 12  1  0
 12 13  2  0
  3 14  2  0
 14 15  1  0
 15 16  1  0
 16 17  2  0
 16 18  1  0
 18 19  1  0
 19 20  2  0
 20 21  1  0
 21 22  2  0
 22 23  1  0
 23 24  2  0
 24 25  1  0
 25 26  1  0
 26 27  1  0
 27 28  1  0
 28 29  1  0
 29 30  1  0
 26  2  1  0
 30 28  1  0
 13  8  1  0
 25 15  2  0
 23 18  1  0
  1 31  1  0
  6 32  1  0
  7 33  1  0
  7 34  1  0
  9 35  1  0
 10 36  1  0
 11 37  1  0
 12 38  1  0
 14 39  1  0
 19 40  1  0
 20 41  1  0
 21 42  1  0
 22 43  1  0
 27 44  1  0
 27 45  1  0
 28 46  1  0
 29 47  1  0
 29 48  1  0
 30 49  1  0
 30 50  1  0
M  END
>  <smiles>  (10) 
N=c1c(C(=O)NCc2ccccn2)cc2c(=O)n3ccccc3nc2n1CC1CC1

>  <score_type>  (10) 
oracle

>  <origin>  (10) 
autodockgpu

>  <m_score__min__energy>  (10) 
-7.5199999999999996

>  <m_primary>  (10) 
energy

>  <meeko>  (10) 
{"free_energy": -7.49, "intermolecular_energy": -9.28, "internal_energy": -1.3, "cluster_size": 10, "cluster_id": 1, "rank_in_cluster": 3}

>  <energy>  (10) 
-7.33

>  <cluster_rmsd>  (10) 
1.19

>  <rmsd>  (10) 
271.18

>  <cluster>  (10) 
1

$$$$

     RDKit          3D

 50 54  0  0  0  0  0  0  0  0999 V2000
  142.5300   73.7720  220.0730 N   0  0  0  0  0  0  0  0  0  0  0  0
  139.6670   77.7260  222.3860 C   0  0  0  0  0  0  0  0  0  0  0  0
  140.7080   74.3540  221.4470 C   0  0  0  0  0  0  0  0  0  0  0  0
  140.3590   72.9270  221.6510 C   0  0  0  0  0  0  0  0  0  0  0  0
  140.4490   72.1090  220.7110 O   0  0  0  0  0  0  0  0  0  0  0  0
  139.9250   72.5610  222.9700 N   0  0  0  0  0  0  0  0  0  0  0  0
  139.5590   71.2090  223.3300 C   0  0  0  0  0  0  0  0  0  0  0  0
  139.9370   70.7990  224.6820 C   0  0  0  0  0  0  0  0  0  0  0  0
  139.6300   69.4910  225.0750 C   0  0  0  0  0  0  0  0  0  0  0  0
  139.9330   69.0250  226.3400 C   0  0  0  0  0  0  0  0  0  0  0  0
  140.5480   69.8760  227.2130 C   0  0  0  0  0  0  0  0  0  0  0  0
  140.8630   71.1810  226.8390 C   0  0  0  0  0  0  0  0  0  0  0  0
  140.5410   71.5830  225.5850 N   0  0  0  0  0  0  0  0  0  0  0  0
  139.9500   75.3500  222.0520 C   0  0  0  0  0  0  0  0  0  0  0  0
  140.3590   76.6560  221.8190 C   0  0  0  0  0  0  0  0  0  0  0  0
  141.8140   74.6620  220.6510 C   0  0  0  0  0  0  0  0  0  0  0  0
  138.6760   77.5100  223.1020 O   0  0  0  0  0  0  0  0  0  0  0  0
  140.0440   79.0040  222.1830 N   0  0  0  0  0  0  0  0  0  0  0  0
  139.4120   80.0610  222.7130 C   0  0  0  0  0  0  0  0  0  0  0  0
  139.8140   81.3710  222.4980 C   0  0  0  0  0  0  0  0  0  0  0  0
  140.9170   81.5950  221.7030 C   0  0  0  0  0  0  0  0  0  0  0  0
  141.5830   80.5240  221.1470 C   0  0  0  0  0  0  0  0  0  0  0  0
  141.1170   79.2310  221.4090 C   0  0  0  0  0  0  0  0  0  0  0  0
  141.8270   78.2400  220.8320 N   0  0  0  0  0  0  0  0  0  0  0  0
  141.4510   76.9610  221.0360 C   0  0  0  0  0  0  0  0  0  0  0  0
  142.1650   75.9460  220.4620 N   0  0  0  0  0  0  0  0  0  0  0  0
  143.2950   76.3650  219.6570 C   0  0  0  0  0  0  0  0  0  0  0  0
  142.9770   76.5770  218.2160 C   0  0  0  0  0  0  0  0  0  0  0  0
  141.6410   76.8520  217.6810 C   0  0  0  0  0  0  0  0  0  0  0  0
  142.5980   77.9850  217.8210 C   0  0  0  0  0  0  0  0  0  0  0  0
  142.3580   72.7870  219.9160 H   0  0  0  0  0  0  0  0  0  0  0  0
  139.8750   73.3360  223.6990 H   0  0  0  0  0  0  0  0  0  0  0  0
  138.4666   71.1170  223.2397 H   0  0  0  0  0  0  0  0  0  0  0  0
  140.1143   70.5507  222.6457 H   0  0  0  0  0  0  0  0  0  0  0  0
  139.1355   68.8177  224.3593 H   0  0  0  0  0  0  0  0  0  0  0  0
  139.6852   67.9950  226.6362 H   0  0  0  0  0  0  0  0  0  0  0  0
  140.7983   69.5266  228.2256 H   0  0  0  0  0  0  0  0  0  0  0  0
  141.3593   71.8661  227.5421 H   0  0  0  0  0  0  0  0  0  0  0  0
  139.0768   75.1168  222.6790 H   0  0  0  0  0  0  0  0  0  0  0  0
  138.5326   79.8807  223.3487 H   0  0  0  0  0  0  0  0  0  0  0  0
  139.2659   82.2103  222.9509 H   0  0  0  0  0  0  0  0  0  0  0  0
  141.2636   82.6216  221.5134 H   0  0  0  0  0  0  0  0  0  0  0  0
  142.4648   80.6829  220.5089 H   0  0  0  0  0  0  0  0  0  0  0  0
  143.6788   77.3105  220.0678 H   0  0  0  0  0  0  0  0  0  0  0  0
  144.0320   75.5495  219.7002 H   0  0  0  0  0  0  0  0  0  0  0  0
  143.7206   75.8114  217.9497 H   0  0  0  0  0  0  0  0  0  0  0  0
  141.3686   76.4882  216.6793 H   0  0  0  0  0  0  0  0  0  0  0  0
  140.6169   76.6622  218.0349 H   0  0  0  0  0  0  0  0  0  0  0  0
  143.0424   78.4487  216.9280 H   0  0  0  0  0  0  0  0  0  0  0  0
  142.5884   78.9661  218.3184 H   0  0  0  0  0  0  0  0  0  0  0  0
  1  2  2  3
  2  3  1  0
  3  4  1  0
  4  5  2  0
  4  6  1  0
  6  7  1  0
  7  8  1  0
  8  9  2  0
  9 10  1  0
 10 11  2  0
 11 12  1  0
 12 13  2  0
  3 14  2  0
 14 15  1  0
 15 16  1  0
 16 17  2  0
 16 18  1  0
 18 19  1  0
 19 20  2  0
 20 21  1  0
 21 22  2  0
 22 23  1  0
 23 24  2  0
 24 25  1  0
 25 26  1  0
 26 27  1  0
 27 28  1  0
 28 29  1  0
 29 30  1  0
 26  2  1  0
 30 28  1  0
 13  8  1  0
 25 15  2  0
 23 18  1  0
  1 31  1  0
  6 32  1  0
  7 33  1  0
  7 34  1  0
  9 35  1  0
 10 36  1  0
 11 37  1  0
 12 38  1  0
 14 39  1  0
 19 40  1  0
 20 41  1  0
 21 42  1  0
 22 43  1  0
 27 44  1  0
 27 45  1  0
 28 46  1  0
 29 47  1  0
 29 48  1  0
 30 49  1  0
 30 50  1  0
M  END
>  <smiles>  (11) 
N=c1c(C(=O)NCc2ccccn2)cc2c(=O)n3ccccc3nc2n1CC1CC1

>  <score_type>  (11) 
oracle

>  <origin>  (11) 
autodockgpu

>  <m_score__min__energy>  (11) 
-7.5199999999999996

>  <m_primary>  (11) 
energy

>  <meeko>  (11) 
{"free_energy": -6.91, "intermolecular_energy": -8.7, "internal_energy": -1.58, "cluster_size": 1, "cluster_id": 6, "rank_in_cluster": 1}

>  <energy>  (11) 
-7.21

>  <cluster_rmsd>  (11) 
0.0

>  <rmsd>  (11) 
270.56

>  <cluster>  (11) 
2

$$$$

     RDKit          3D

 50 54  0  0  0  0  0  0  0  0999 V2000
  142.1890   77.6740  220.8420 N   0  0  0  0  0  0  0  0  0  0  0  0
  137.3190   78.3910  223.0700 C   0  0  0  0  0  0  0  0  0  0  0  0
  140.1980   76.6790  221.6140 C   0  0  0  0  0  0  0  0  0  0  0  0
  140.6960   75.3270  221.2650 C   0  0  0  0  0  0  0  0  0  0  0  0
  140.4670   74.3510  222.0120 O   0  0  0  0  0  0  0  0  0  0  0  0
  141.4390   75.2190  220.0410 N   0  0  0  0  0  0  0  0  0  0  0  0
  141.9830   73.9680  219.5590 C   0  0  0  0  0  0  0  0  0  0  0  0
  143.3710   73.7040  219.9370 C   0  0  0  0  0  0  0  0  0  0  0  0
  143.8640   72.4100  219.7400 C   0  0  0  0  0  0  0  0  0  0  0  0
  145.1580   72.0660  220.0860 C   0  0  0  0  0  0  0  0  0  0  0  0
  145.9580   73.0290  220.6300 C   0  0  0  0  0  0  0  0  0  0  0  0
  145.4850   74.3240  220.8320 C   0  0  0  0  0  0  0  0  0  0  0  0
  144.2080   74.6030  220.4750 N   0  0  0  0  0  0  0  0  0  0  0  0
  138.9390   76.8330  222.1820 C   0  0  0  0  0  0  0  0  0  0  0  0
  138.5620   78.1330  222.4910 C   0  0  0  0  0  0  0  0  0  0  0  0
  141.0270   77.7770  221.3700 C   0  0  0  0  0  0  0  0  0  0  0  0
  136.5430   77.4520  223.3080 O   0  0  0  0  0  0  0  0  0  0  0  0
  136.9290   79.6410  223.3860 N   0  0  0  0  0  0  0  0  0  0  0  0
  135.7470   79.9330  223.9490 C   0  0  0  0  0  0  0  0  0  0  0  0
  135.3610   81.2260  224.2730 C   0  0  0  0  0  0  0  0  0  0  0  0
  136.2340   82.2570  224.0050 C   0  0  0  0  0  0  0  0  0  0  0  0
  137.4550   81.9820  223.4270 C   0  0  0  0  0  0  0  0  0  0  0  0
  137.7740   80.6520  223.1280 C   0  0  0  0  0  0  0  0  0  0  0  0
  138.9880   80.4670  222.5690 N   0  0  0  0  0  0  0  0  0  0  0  0
  139.3790   79.2160  222.2530 C   0  0  0  0  0  0  0  0  0  0  0  0
  140.6100   79.0140  221.6920 N   0  0  0  0  0  0  0  0  0  0  0  0
  141.3960   80.2130  221.4810 C   0  0  0  0  0  0  0  0  0  0  0  0
  142.3920   80.4920  222.5540 C   0  0  0  0  0  0  0  0  0  0  0  0
  142.1160   81.2410  223.7830 C   0  0  0  0  0  0  0  0  0  0  0  0
  142.1860   79.7540  223.8560 C   0  0  0  0  0  0  0  0  0  0  0  0
  142.9090   76.9730  220.9640 H   0  0  0  0  0  0  0  0  0  0  0  0
  141.5870   76.1120  219.4810 H   0  0  0  0  0  0  0  0  0  0  0  0
  141.3615   73.1517  219.9556 H   0  0  0  0  0  0  0  0  0  0  0  0
  141.9738   74.0348  218.4611 H   0  0  0  0  0  0  0  0  0  0  0  0
  143.2060   71.6469  219.2988 H   0  0  0  0  0  0  0  0  0  0  0  0
  145.5325   71.0440  219.9271 H   0  0  0  0  0  0  0  0  0  0  0  0
  146.9911   72.7791  220.9131 H   0  0  0  0  0  0  0  0  0  0  0  0
  146.1311   75.0992  221.2696 H   0  0  0  0  0  0  0  0  0  0  0  0
  138.2792   75.9744  222.3756 H   0  0  0  0  0  0  0  0  0  0  0  0
  135.0510   79.1088  224.1640 H   0  0  0  0  0  0  0  0  0  0  0  0
  134.3813   81.4228  224.7328 H   0  0  0  0  0  0  0  0  0  0  0  0
  135.9587   83.2933  224.2506 H   0  0  0  0  0  0  0  0  0  0  0  0
  138.1651   82.7922  223.2049 H   0  0  0  0  0  0  0  0  0  0  0  0
  141.9364   80.1071  220.5288 H   0  0  0  0  0  0  0  0  0  0  0  0
  140.6894   81.0561  221.4811 H   0  0  0  0  0  0  0  0  0  0  0  0
  143.1693   80.6209  221.7864 H   0  0  0  0  0  0  0  0  0  0  0  0
  142.9100   81.8481  224.2423 H   0  0  0  0  0  0  0  0  0  0  0  0
  141.3659   81.9909  224.0746 H   0  0  0  0  0  0  0  0  0  0  0  0
  143.0345   79.2629  224.3550 H   0  0  0  0  0  0  0  0  0  0  0  0
  141.5217   78.9514  224.2089 H   0  0  0  0  0  0  0  0  0  0  0  0
  1  2  2  3
  2  3  1  0
  3  4  1  0
  4  5  2  0
  4  6  1  0
  6  7  1  0
  7  8  1  0
  8  9  2  0
  9 10  1  0
 10 11  2  0
 11 12  1  0
 12 13  2  0
  3 14  2  0
 14 15  1  0
 15 16  1  0
 16 17  2  0
 16 18  1  0
 18 19  1  0
 19 20  2  0
 20 21  1  0
 21 22  2  0
 22 23  1  0
 23 24  2  0
 24 25  1  0
 25 26  1  0
 26 27  1  0
 27 28  1  0
 28 29  1  0
 29 30  1  0
 26  2  1  0
 30 28  1  0
 13  8  1  0
 25 15  2  0
 23 18  1  0
  1 31  1  0
  6 32  1  0
  7 33  1  0
  7 34  1  0
  9 35  1  0
 10 36  1  0
 11 37  1  0
 12 38  1  0
 14 39  1  0
 19 40  1  0
 20 41  1  0
 21 42  1  0
 22 43  1  0
 27 44  1  0
 27 45  1  0
 28 46  1  0
 29 47  1  0
 29 48  1  0
 30 49  1  0
 30 50  1  0
M  END
>  <smiles>  (12) 
N=c1c(C(=O)NCc2ccccn2)cc2c(=O)n3ccccc3nc2n1CC1CC1

>  <score_type>  (12) 
oracle

>  <origin>  (12) 
autodockgpu

>  <m_score__min__energy>  (12) 
-7.5199999999999996

>  <m_primary>  (12) 
energy

>  <meeko>  (12) 
{"free_energy": -6.98, "intermolecular_energy": -8.77, "internal_energy": -1.67, "cluster_size": 4, "cluster_id": 4, "rank_in_cluster": 3}

>  <energy>  (12) 
-7.12

>  <cluster_rmsd>  (12) 
0.0

>  <rmsd>  (12) 
271.06

>  <cluster>  (12) 
3

$$$$

     RDKit          3D

 50 54  0  0  0  0  0  0  0  0999 V2000
  142.5420   71.8770  220.6140 N   0  0  0  0  0  0  0  0  0  0  0  0
  140.0470   76.5730  221.5710 C   0  0  0  0  0  0  0  0  0  0  0  0
  140.7830   72.9990  221.7080 C   0  0  0  0  0  0  0  0  0  0  0  0
  140.3110   71.7340  222.3230 C   0  0  0  0  0  0  0  0  0  0  0  0
  140.2870   70.6740  221.6600 O   0  0  0  0  0  0  0  0  0  0  0  0
  139.8960   71.8100  223.6950 N   0  0  0  0  0  0  0  0  0  0  0  0
  139.4190   70.6630  224.4370 C   0  0  0  0  0  0  0  0  0  0  0  0
  139.9890   70.5040  225.7740 C   0  0  0  0  0  0  0  0  0  0  0  0
  139.9650   69.2260  226.3430 C   0  0  0  0  0  0  0  0  0  0  0  0
  140.4640   68.9870  227.6100 C   0  0  0  0  0  0  0  0  0  0  0  0
  140.9900   70.0370  228.3060 C   0  0  0  0  0  0  0  0  0  0  0  0
  141.0240   71.3170  227.7550 C   0  0  0  0  0  0  0  0  0  0  0  0
  140.5190   71.4910  226.5090 N   0  0  0  0  0  0  0  0  0  0  0  0
  140.1190   74.1910  221.9700 C   0  0  0  0  0  0  0  0  0  0  0  0
  140.6400   75.3270  221.3660 C   0  0  0  0  0  0  0  0  0  0  0  0
  141.9100   72.9580  220.8830 C   0  0  0  0  0  0  0  0  0  0  0  0
  139.0440   76.6670  222.2960 O   0  0  0  0  0  0  0  0  0  0  0  0
  140.5350   77.6930  221.0020 N   0  0  0  0  0  0  0  0  0  0  0  0
  140.0000   78.9110  221.1770 C   0  0  0  0  0  0  0  0  0  0  0  0
  140.5160   80.0570  220.5890 C   0  0  0  0  0  0  0  0  0  0  0  0
  141.6310   79.9370  219.7890 C   0  0  0  0  0  0  0  0  0  0  0  0
  142.1990   78.6950  219.5940 C   0  0  0  0  0  0  0  0  0  0  0  0
  141.6210   77.5860  220.2210 C   0  0  0  0  0  0  0  0  0  0  0  0
  142.2380   76.4090  219.9840 N   0  0  0  0  0  0  0  0  0  0  0  0
  141.7520   75.2880  220.5530 C   0  0  0  0  0  0  0  0  0  0  0  0
  142.3720   74.0900  220.3250 N   0  0  0  0  0  0  0  0  0  0  0  0
  143.5310   74.1510  219.4580 C   0  0  0  0  0  0  0  0  0  0  0  0
  144.8310   74.2690  220.1780 C   0  0  0  0  0  0  0  0  0  0  0  0
  145.3090   73.3430  221.2080 C   0  0  0  0  0  0  0  0  0  0  0  0
  145.8740   73.2320  219.8350 C   0  0  0  0  0  0  0  0  0  0  0  0
  142.2740   70.9080  220.7350 H   0  0  0  0  0  0  0  0  0  0  0  0
  139.9460   72.7630  224.1670 H   0  0  0  0  0  0  0  0  0  0  0  0
  138.3279   70.7553  224.5413 H   0  0  0  0  0  0  0  0  0  0  0  0
  139.7331   69.7777  223.8646 H   0  0  0  0  0  0  0  0  0  0  0  0
  139.5386   68.3908  225.7681 H   0  0  0  0  0  0  0  0  0  0  0  0
  140.4379   67.9773  228.0458 H   0  0  0  0  0  0  0  0  0  0  0  0
  141.3928   69.8706  229.3160 H   0  0  0  0  0  0  0  0  0  0  0  0
  141.4489   72.1626  228.3158 H   0  0  0  0  0  0  0  0  0  0  0  0
  139.2316   74.2321  222.6187 H   0  0  0  0  0  0  0  0  0  0  0  0
  139.1103   79.0055  221.8169 H   0  0  0  0  0  0  0  0  0  0  0  0
  140.0463   81.0373  220.7576 H   0  0  0  0  0  0  0  0  0  0  0  0
  142.0657   80.8260  219.3086 H   0  0  0  0  0  0  0  0  0  0  0  0
  143.0889   78.5790  218.9580 H   0  0  0  0  0  0  0  0  0  0  0  0
  143.5556   73.2340  218.8509 H   0  0  0  0  0  0  0  0  0  0  0  0
  143.4230   75.0626  218.8520 H   0  0  0  0  0  0  0  0  0  0  0  0
  144.7176   75.3631  220.1836 H   0  0  0  0  0  0  0  0  0  0  0  0
  145.9386   73.7172  222.0287 H   0  0  0  0  0  0  0  0  0  0  0  0
  144.8187   72.6395  221.8969 H   0  0  0  0  0  0  0  0  0  0  0  0
  146.9127   73.5352  219.6370 H   0  0  0  0  0  0  0  0  0  0  0  0
  145.9711   72.4316  219.0867 H   0  0  0  0  0  0  0  0  0  0  0  0
  1  2  2  3
  2  3  1  0
  3  4  1  0
  4  5  2  0
  4  6  1  0
  6  7  1  0
  7  8  1  0
  8  9  2  0
  9 10  1  0
 10 11  2  0
 11 12  1  0
 12 13  2  0
  3 14  2  0
 14 15  1  0
 15 16  1  0
 16 17  2  0
 16 18  1  0
 18 19  1  0
 19 20  2  0
 20 21  1  0
 21 22  2  0
 22 23  1  0
 23 24  2  0
 24 25  1  0
 25 26  1  0
 26 27  1  0
 27 28  1  0
 28 29  1  0
 29 30  1  0
 26  2  1  0
 30 28  1  0
 13  8  1  0
 25 15  2  0
 23 18  1  0
  1 31  1  0
  6 32  1  0
  7 33  1  0
  7 34  1  0
  9 35  1  0
 10 36  1  0
 11 37  1  0
 12 38  1  0
 14 39  1  0
 19 40  1  0
 20 41  1  0
 21 42  1  0
 22 43  1  0
 27 44  1  0
 27 45  1  0
 28 46  1  0
 29 47  1  0
 29 48  1  0
 30 49  1  0
 30 50  1  0
M  END
>  <smiles>  (13) 
N=c1c(C(=O)NCc2ccccn2)cc2c(=O)n3ccccc3nc2n1CC1CC1

>  <score_type>  (13) 
oracle

>  <origin>  (13) 
autodockgpu

>  <m_score__min__energy>  (13) 
-7.5199999999999996

>  <m_primary>  (13) 
energy

>  <meeko>  (13) 
{"free_energy": -7.39, "intermolecular_energy": -9.18, "internal_energy": -1.4, "cluster_size": 10, "cluster_id": 1, "rank_in_cluster": 5}

>  <energy>  (13) 
-7.12

>  <cluster_rmsd>  (13) 
0.83

>  <rmsd>  (13) 
271.08

>  <cluster>  (13) 
3

$$$$

     RDKit          3D

 50 54  0  0  0  0  0  0  0  0999 V2000
  141.9920   71.4950  220.5810 N   0  0  0  0  0  0  0  0  0  0  0  0
  139.6310   76.0280  222.3330 C   0  0  0  0  0  0  0  0  0  0  0  0
  140.2690   72.4630  221.8630 C   0  0  0  0  0  0  0  0  0  0  0  0
  139.7650   71.1260  222.2600 C   0  0  0  0  0  0  0  0  0  0  0  0
  140.0160   70.1180  221.5650 O   0  0  0  0  0  0  0  0  0  0  0  0
  138.9910   71.0720  223.4680 N   0  0  0  0  0  0  0  0  0  0  0  0
  138.4370   69.8420  223.9930 C   0  0  0  0  0  0  0  0  0  0  0  0
  139.1950   69.2320  225.0840 C   0  0  0  0  0  0  0  0  0  0  0  0
  139.9950   70.0710  225.8690 C   0  0  0  0  0  0  0  0  0  0  0  0
  140.7600   69.5780  226.9090 C   0  0  0  0  0  0  0  0  0  0  0  0
  140.7190   68.2360  227.1620 C   0  0  0  0  0  0  0  0  0  0  0  0
  139.9280   67.3860  226.3920 C   0  0  0  0  0  0  0  0  0  0  0  0
  139.2000   67.9260  225.3850 N   0  0  0  0  0  0  0  0  0  0  0  0
  139.6390   73.6120  222.3270 C   0  0  0  0  0  0  0  0  0  0  0  0
  140.1890   74.8190  221.9170 C   0  0  0  0  0  0  0  0  0  0  0  0
  141.3910   72.5320  221.0320 C   0  0  0  0  0  0  0  0  0  0  0  0
  138.6340   76.0250  223.0720 O   0  0  0  0  0  0  0  0  0  0  0  0
  140.1460   77.2140  221.9560 N   0  0  0  0  0  0  0  0  0  0  0  0
  139.6460   78.3990  222.3380 C   0  0  0  0  0  0  0  0  0  0  0  0
  140.1910   79.6130  221.9450 C   0  0  0  0  0  0  0  0  0  0  0  0
  141.2990   79.6000  221.1270 C   0  0  0  0  0  0  0  0  0  0  0  0
  141.8310   78.3950  220.7220 C   0  0  0  0  0  0  0  0  0  0  0  0
  141.2260   77.2110  221.1580 C   0  0  0  0  0  0  0  0  0  0  0  0
  141.8100   76.0750  220.7220 N   0  0  0  0  0  0  0  0  0  0  0  0
  141.2950   74.8880  221.0990 C   0  0  0  0  0  0  0  0  0  0  0  0
  141.8810   73.7290  220.6680 N   0  0  0  0  0  0  0  0  0  0  0  0
  143.0380   73.9040  219.8140 C   0  0  0  0  0  0  0  0  0  0  0  0
  144.3220   74.0880  220.5480 C   0  0  0  0  0  0  0  0  0  0  0  0
  145.0690   73.0200  221.2180 C   0  0  0  0  0  0  0  0  0  0  0  0
  145.5500   73.5010  219.8920 C   0  0  0  0  0  0  0  0  0  0  0  0
  141.6770   70.5380  220.4870 H   0  0  0  0  0  0  0  0  0  0  0  0
  138.8260   71.9900  223.9830 H   0  0  0  0  0  0  0  0  0  0  0  0
  137.4229   70.0560  224.3616 H   0  0  0  0  0  0  0  0  0  0  0  0
  138.4608   69.1191  223.1642 H   0  0  0  0  0  0  0  0  0  0  0  0
  140.0151   71.1493  225.6526 H   0  0  0  0  0  0  0  0  0  0  0  0
  141.3853   70.2483  227.5170 H   0  0  0  0  0  0  0  0  0  0  0  0
  141.3189   67.8208  227.9852 H   0  0  0  0  0  0  0  0  0  0  0  0
  139.8954   66.3056  226.5961 H   0  0  0  0  0  0  0  0  0  0  0  0
  138.7558   73.5675  222.9812 H   0  0  0  0  0  0  0  0  0  0  0  0
  138.7626   78.4086  222.9934 H   0  0  0  0  0  0  0  0  0  0  0  0
  139.7487   80.5632  222.2788 H   0  0  0  0  0  0  0  0  0  0  0  0
  141.7562   80.5452  220.7991 H   0  0  0  0  0  0  0  0  0  0  0  0
  142.7150   78.3645  220.0680 H   0  0  0  0  0  0  0  0  0  0  0  0
  143.1316   73.0138  219.1746 H   0  0  0  0  0  0  0  0  0  0  0  0
  142.8686   74.8274  219.2407 H   0  0  0  0  0  0  0  0  0  0  0  0
  143.9610   75.0598  220.9157 H   0  0  0  0  0  0  0  0  0  0  0  0
  145.6501   73.2460  222.1242 H   0  0  0  0  0  0  0  0  0  0  0  0
  144.8015   72.0349  221.6280 H   0  0  0  0  0  0  0  0  0  0  0  0
  146.4752   74.0915  219.8189 H   0  0  0  0  0  0  0  0  0  0  0  0
  145.7773   73.0359  218.9214 H   0  0  0  0  0  0  0  0  0  0  0  0
  1  2  2  3
  2  3  1  0
  3  4  1  0
  4  5  2  0
  4  6  1  0
  6  7  1  0
  7  8  1  0
  8  9  2  0
  9 10  1  0
 10 11  2  0
 11 12  1  0
 12 13  2  0
  3 14  2  0
 14 15  1  0
 15 16  1  0
 16 17  2  0
 16 18  1  0
 18 19  1  0
 19 20  2  0
 20 21  1  0
 21 22  2  0
 22 23  1  0
 23 24  2  0
 24 25  1  0
 25 26  1  0
 26 27  1  0
 27 28  1  0
 28 29  1  0
 29 30  1  0
 26  2  1  0
 30 28  1  0
 13  8  1  0
 25 15  2  0
 23 18  1  0
  1 31  1  0
  6 32  1  0
  7 33  1  0
  7 34  1  0
  9 35  1  0
 10 36  1  0
 11 37  1  0
 12 38  1  0
 14 39  1  0
 19 40  1  0
 20 41  1  0
 21 42  1  0
 22 43  1  0
 27 44  1  0
 27 45  1  0
 28 46  1  0
 29 47  1  0
 29 48  1  0
 30 49  1  0
 30 50  1  0
M  END
>  <smiles>  (14) 
N=c1c(C(=O)NCc2ccccn2)cc2c(=O)n3ccccc3nc2n1CC1CC1

>  <score_type>  (14) 
oracle

>  <origin>  (14) 
autodockgpu

>  <m_score__min__energy>  (14) 
-7.5199999999999996

>  <m_primary>  (14) 
energy

>  <meeko>  (14) 
{"free_energy": -7.52, "intermolecular_energy": -9.31, "internal_energy": -1.29, "cluster_size": 10, "cluster_id": 1, "rank_in_cluster": 1}

>  <energy>  (14) 
-7.11

>  <cluster_rmsd>  (14) 
0.8

>  <rmsd>  (14) 
271.06

>  <cluster>  (14) 
3

$$$$

     RDKit          3D

 50 54  0  0  0  0  0  0  0  0999 V2000
  142.1970   77.5910  220.8440 N   0  0  0  0  0  0  0  0  0  0  0  0
  137.3490   78.4200  223.0810 C   0  0  0  0  0  0  0  0  0  0  0  0
  140.1960   76.6400  221.6440 C   0  0  0  0  0  0  0  0  0  0  0  0
  140.6740   75.2740  221.3200 C   0  0  0  0  0  0  0  0  0  0  0  0
  140.3650   74.3020  222.0430 O   0  0  0  0  0  0  0  0  0  0  0  0
  141.4940   75.1490  220.1480 N   0  0  0  0  0  0  0  0  0  0  0  0
  142.0290   73.8840  219.6940 C   0  0  0  0  0  0  0  0  0  0  0  0
  143.4410   73.6570  220.0030 C   0  0  0  0  0  0  0  0  0  0  0  0
  143.9630   72.3820  219.7600 C   0  0  0  0  0  0  0  0  0  0  0  0
  145.2810   72.0730  220.0400 C   0  0  0  0  0  0  0  0  0  0  0  0
  146.0770   73.0510  220.5640 C   0  0  0  0  0  0  0  0  0  0  0  0
  145.5750   74.3270  220.8110 C   0  0  0  0  0  0  0  0  0  0  0  0
  144.2740   74.5720  220.5180 N   0  0  0  0  0  0  0  0  0  0  0  0
  138.9420   76.8220  222.2160 C   0  0  0  0  0  0  0  0  0  0  0  0
  138.5850   78.1330  222.5010 C   0  0  0  0  0  0  0  0  0  0  0  0
  141.0400   77.7220  221.3760 C   0  0  0  0  0  0  0  0  0  0  0  0
  136.5620   77.4970  223.3410 O   0  0  0  0  0  0  0  0  0  0  0  0
  136.9780   79.6820  223.3740 N   0  0  0  0  0  0  0  0  0  0  0  0
  135.8030   80.0010  223.9370 C   0  0  0  0  0  0  0  0  0  0  0  0
  135.4370   81.3050  224.2370 C   0  0  0  0  0  0  0  0  0  0  0  0
  136.3230   82.3180  223.9450 C   0  0  0  0  0  0  0  0  0  0  0  0
  137.5370   82.0150  223.3660 C   0  0  0  0  0  0  0  0  0  0  0  0
  137.8350   80.6750  223.0920 C   0  0  0  0  0  0  0  0  0  0  0  0
  139.0440   80.4620  222.5310 N   0  0  0  0  0  0  0  0  0  0  0  0
  139.4160   79.2000  222.2380 C   0  0  0  0  0  0  0  0  0  0  0  0
  140.6420   78.9700  221.6750 N   0  0  0  0  0  0  0  0  0  0  0  0
  141.4430   80.1530  221.4360 C   0  0  0  0  0  0  0  0  0  0  0  0
  142.4330   80.4520  222.5100 C   0  0  0  0  0  0  0  0  0  0  0  0
  142.1590   81.2510  223.7080 C   0  0  0  0  0  0  0  0  0  0  0  0
  142.1980   79.7670  223.8360 C   0  0  0  0  0  0  0  0  0  0  0  0
  142.8900   76.8600  220.9420 H   0  0  0  0  0  0  0  0  0  0  0  0
  141.7080   76.0400  219.6050 H   0  0  0  0  0  0  0  0  0  0  0  0
  141.4444   73.0792  220.1637 H   0  0  0  0  0  0  0  0  0  0  0  0
  141.9555   73.8982  218.5965 H   0  0  0  0  0  0  0  0  0  0  0  0
  143.3086   71.6063  219.3357 H   0  0  0  0  0  0  0  0  0  0  0  0
  145.6781   71.0657  219.8458 H   0  0  0  0  0  0  0  0  0  0  0  0
  147.1293   72.8283  220.7943 H   0  0  0  0  0  0  0  0  0  0  0  0
  146.2169   75.1146  221.2324 H   0  0  0  0  0  0  0  0  0  0  0  0
  138.2717   75.9765  222.4303 H   0  0  0  0  0  0  0  0  0  0  0  0
  135.0968   79.1909  224.1717 H   0  0  0  0  0  0  0  0  0  0  0  0
  134.4623   81.5246  224.6972 H   0  0  0  0  0  0  0  0  0  0  0  0
  136.0637   83.3626  224.1723 H   0  0  0  0  0  0  0  0  0  0  0  0
  138.2572   82.8105  223.1241 H   0  0  0  0  0  0  0  0  0  0  0  0
  141.9905   80.0132  220.4922 H   0  0  0  0  0  0  0  0  0  0  0  0
  140.7463   81.0036  221.4047 H   0  0  0  0  0  0  0  0  0  0  0  0
  143.2209   80.5372  221.7471 H   0  0  0  0  0  0  0  0  0  0  0  0
  142.9602   81.8586  224.1539 H   0  0  0  0  0  0  0  0  0  0  0  0
  141.4212   82.0258  223.9635 H   0  0  0  0  0  0  0  0  0  0  0  0
  143.0309   79.2779  224.3624 H   0  0  0  0  0  0  0  0  0  0  0  0
  141.5137   78.9914  224.2104 H   0  0  0  0  0  0  0  0  0  0  0  0
  1  2  2  3
  2  3  1  0
  3  4  1  0
  4  5  2  0
  4  6  1  0
  6  7  1  0
  7  8  1  0
  8  9  2  0
  9 10  1  0
 10 11  2  0
 11 12  1  0
 12 13  2  0
  3 14  2  0
 14 15  1  0
 15 16  1  0
 16 17  2  0
 16 18  1  0
 18 19  1  0
 19 20  2  0
 20 21  1  0
 21 22  2  0
 22 23  1  0
 23 24  2  0
 24 25  1  0
 25 26  1  0
 26 27  1  0
 27 28  1  0
 28 29  1  0
 29 30  1  0
 26  2  1  0
 30 28  1  0
 13  8  1  0
 25 15  2  0
 23 18  1  0
  1 31  1  0
  6 32  1  0
  7 33  1  0
  7 34  1  0
  9 35  1  0
 10 36  1  0
 11 37  1  0
 12 38  1  0
 14 39  1  0
 19 40  1  0
 20 41  1  0
 21 42  1  0
 22 43  1  0
 27 44  1  0
 27 45  1  0
 28 46  1  0
 29 47  1  0
 29 48  1  0
 30 49  1  0
 30 50  1  0
M  END
>  <smiles>  (15) 
N=c1c(C(=O)NCc2ccccn2)cc2c(=O)n3ccccc3nc2n1CC1CC1

>  <score_type>  (15) 
oracle

>  <origin>  (15) 
autodockgpu

>  <m_score__min__energy>  (15) 
-7.5199999999999996

>  <m_primary>  (15) 
energy

>  <meeko>  (15) 
{"free_energy": -6.99, "intermolecular_energy": -8.78, "internal_energy": -1.65, "cluster_size": 4, "cluster_id": 4, "rank_in_cluster": 2}

>  <energy>  (15) 
-7.0

>  <cluster_rmsd>  (15) 
0.0

>  <rmsd>  (15) 
271.51

>  <cluster>  (15) 
4

$$$$

     RDKit          3D

 50 54  0  0  0  0  0  0  0  0999 V2000
  142.5940   71.8770  220.6080 N   0  0  0  0  0  0  0  0  0  0  0  0
  140.0400   76.5290  221.6180 C   0  0  0  0  0  0  0  0  0  0  0  0
  140.8080   72.9600  221.6970 C   0  0  0  0  0  0  0  0  0  0  0  0
  140.3400   71.6790  222.2790 C   0  0  0  0  0  0  0  0  0  0  0  0
  140.3330   70.6330  221.5950 O   0  0  0  0  0  0  0  0  0  0  0  0
  139.9070   71.7230  223.6480 N   0  0  0  0  0  0  0  0  0  0  0  0
  139.4310   70.5570  224.3600 C   0  0  0  0  0  0  0  0  0  0  0  0
  139.9430   70.4050  225.7210 C   0  0  0  0  0  0  0  0  0  0  0  0
  139.9060   69.1280  226.2910 C   0  0  0  0  0  0  0  0  0  0  0  0
  140.3520   68.8960  227.5790 C   0  0  0  0  0  0  0  0  0  0  0  0
  140.8380   69.9510  228.2950 C   0  0  0  0  0  0  0  0  0  0  0  0
  140.8850   71.2300  227.7430 C   0  0  0  0  0  0  0  0  0  0  0  0
  140.4340   71.3980  226.4760 N   0  0  0  0  0  0  0  0  0  0  0  0
  140.1280   74.1410  221.9720 C   0  0  0  0  0  0  0  0  0  0  0  0
  140.6480   75.2930  221.3980 C   0  0  0  0  0  0  0  0  0  0  0  0
  141.9470   72.9460  220.8870 C   0  0  0  0  0  0  0  0  0  0  0  0
  139.0250   76.5990  222.3290 O   0  0  0  0  0  0  0  0  0  0  0  0
  140.5240   77.6650  221.0790 N   0  0  0  0  0  0  0  0  0  0  0  0
  139.9760   78.8740  221.2690 C   0  0  0  0  0  0  0  0  0  0  0  0
  140.4890   80.0360  220.7110 C   0  0  0  0  0  0  0  0  0  0  0  0
  141.6170   79.9420  219.9250 C   0  0  0  0  0  0  0  0  0  0  0  0
  142.1990   78.7100  219.7150 C   0  0  0  0  0  0  0  0  0  0  0  0
  141.6230   77.5830  220.3110 C   0  0  0  0  0  0  0  0  0  0  0  0
  142.2550   76.4170  220.0610 N   0  0  0  0  0  0  0  0  0  0  0  0
  141.7710   75.2810  220.6000 C   0  0  0  0  0  0  0  0  0  0  0  0
  142.4060   74.0930  220.3590 N   0  0  0  0  0  0  0  0  0  0  0  0
  143.5770   74.1820  219.5110 C   0  0  0  0  0  0  0  0  0  0  0  0
  144.8650   74.3090  220.2520 C   0  0  0  0  0  0  0  0  0  0  0  0
  145.3730   73.3400  221.2270 C   0  0  0  0  0  0  0  0  0  0  0  0
  145.9550   73.3410  219.8550 C   0  0  0  0  0  0  0  0  0  0  0  0
  142.3380   70.9030  220.7160 H   0  0  0  0  0  0  0  0  0  0  0  0
  139.9430   72.6670  224.1400 H   0  0  0  0  0  0  0  0  0  0  0  0
  138.3339   70.6160  224.4140 H   0  0  0  0  0  0  0  0  0  0  0  0
  139.7978   69.6858  223.7975 H   0  0  0  0  0  0  0  0  0  0  0  0
  139.5124   68.2879  225.7000 H   0  0  0  0  0  0  0  0  0  0  0  0
  140.3160   67.8869  228.0153 H   0  0  0  0  0  0  0  0  0  0  0  0
  141.1976   69.7899  229.3220 H   0  0  0  0  0  0  0  0  0  0  0  0
  141.2776   72.0802  228.3202 H   0  0  0  0  0  0  0  0  0  0  0  0
  139.2303   74.1614  222.6074 H   0  0  0  0  0  0  0  0  0  0  0  0
  139.0763   78.9480  221.8976 H   0  0  0  0  0  0  0  0  0  0  0  0
  140.0073   81.0083  220.8915 H   0  0  0  0  0  0  0  0  0  0  0  0
  142.0502   80.8440  219.4682 H   0  0  0  0  0  0  0  0  0  0  0  0
  143.0995   78.6149  219.0904 H   0  0  0  0  0  0  0  0  0  0  0  0
  143.6239   73.2736  218.8924 H   0  0  0  0  0  0  0  0  0  0  0  0
  143.4650   75.1002  218.9158 H   0  0  0  0  0  0  0  0  0  0  0  0
  144.7050   75.3948  220.3258 H   0  0  0  0  0  0  0  0  0  0  0  0
  145.9786   73.6873  222.0771 H   0  0  0  0  0  0  0  0  0  0  0  0
  144.9072   72.5739  221.8642 H   0  0  0  0  0  0  0  0  0  0  0  0
  146.9814   73.6999  219.6886 H   0  0  0  0  0  0  0  0  0  0  0  0
  146.0931   72.5951  219.0584 H   0  0  0  0  0  0  0  0  0  0  0  0
  1  2  2  3
  2  3  1  0
  3  4  1  0
  4  5  2  0
  4  6  1  0
  6  7  1  0
  7  8  1  0
  8  9  2  0
  9 10  1  0
 10 11  2  0
 11 12  1  0
 12 13  2  0
  3 14  2  0
 14 15  1  0
 15 16  1  0
 16 17  2  0
 16 18  1  0
 18 19  1  0
 19 20  2  0
 20 21  1  0
 21 22  2  0
 22 23  1  0
 23 24  2  0
 24 25  1  0
 25 26  1  0
 26 27  1  0
 27 28  1  0
 28 29  1  0
 29 30  1  0
 26  2  1  0
 30 28  1  0
 13  8  1  0
 25 15  2  0
 23 18  1  0
  1 31  1  0
  6 32  1  0
  7 33  1  0
  7 34  1  0
  9 35  1  0
 10 36  1  0
 11 37  1  0
 12 38  1  0
 14 39  1  0
 19 40  1  0
 20 41  1  0
 21 42  1  0
 22 43  1  0
 27 44  1  0
 27 45  1  0
 28 46  1  0
 29 47  1  0
 29 48  1  0
 30 49  1  0
 30 50  1  0
M  END
>  <smiles>  (16) 
N=c1c(C(=O)NCc2ccccn2)cc2c(=O)n3ccccc3nc2n1CC1CC1

>  <score_type>  (16) 
oracle

>  <origin>  (16) 
autodockgpu

>  <m_score__min__energy>  (16) 
-7.5199999999999996

>  <m_primary>  (16) 
energy

>  <meeko>  (16) 
{"free_energy": -7.38, "intermolecular_energy": -9.17, "internal_energy": -1.4, "cluster_size": 10, "cluster_id": 1, "rank_in_cluster": 7}

>  <energy>  (16) 
-6.99

>  <cluster_rmsd>  (16) 
0.09

>  <rmsd>  (16) 
271.5

>  <cluster>  (16) 
4

$$$$

     RDKit          3D

 50 54  0  0  0  0  0  0  0  0999 V2000
  142.1970   77.5120  220.8710 N   0  0  0  0  0  0  0  0  0  0  0  0
  137.3430   78.3900  223.0740 C   0  0  0  0  0  0  0  0  0  0  0  0
  140.1820   76.5810  221.6580 C   0  0  0  0  0  0  0  0  0  0  0  0
  140.6490   75.2100  221.3380 C   0  0  0  0  0  0  0  0  0  0  0  0
  140.2880   74.2360  222.0330 O   0  0  0  0  0  0  0  0  0  0  0  0
  141.5210   75.0840  220.2040 N   0  0  0  0  0  0  0  0  0  0  0  0
  142.0530   73.8140  219.7590 C   0  0  0  0  0  0  0  0  0  0  0  0
  143.4750   73.6050  220.0300 C   0  0  0  0  0  0  0  0  0  0  0  0
  144.0220   72.3590  219.7050 C   0  0  0  0  0  0  0  0  0  0  0  0
  145.3520   72.0670  219.9430 C   0  0  0  0  0  0  0  0  0  0  0  0
  146.1340   73.0320  220.5090 C   0  0  0  0  0  0  0  0  0  0  0  0
  145.6070   74.2790  220.8390 C   0  0  0  0  0  0  0  0  0  0  0  0
  144.2960   74.5080  220.5820 N   0  0  0  0  0  0  0  0  0  0  0  0
  138.9260   76.7760  222.2210 C   0  0  0  0  0  0  0  0  0  0  0  0
  138.5800   78.0910  222.5030 C   0  0  0  0  0  0  0  0  0  0  0  0
  141.0380   77.6540  221.3950 C   0  0  0  0  0  0  0  0  0  0  0  0
  136.5440   77.4750  223.3290 O   0  0  0  0  0  0  0  0  0  0  0  0
  136.9820   79.6550  223.3630 N   0  0  0  0  0  0  0  0  0  0  0  0
  135.8060   79.9860  223.9170 C   0  0  0  0  0  0  0  0  0  0  0  0
  135.4500   81.2940  224.2140 C   0  0  0  0  0  0  0  0  0  0  0  0
  136.3480   82.2980  223.9270 C   0  0  0  0  0  0  0  0  0  0  0  0
  137.5630   81.9830  223.3570 C   0  0  0  0  0  0  0  0  0  0  0  0
  137.8500   80.6400  223.0860 C   0  0  0  0  0  0  0  0  0  0  0  0
  139.0610   80.4150  222.5340 N   0  0  0  0  0  0  0  0  0  0  0  0
  139.4230   79.1490  222.2450 C   0  0  0  0  0  0  0  0  0  0  0  0
  140.6500   78.9060  221.6900 N   0  0  0  0  0  0  0  0  0  0  0  0
  141.4640   80.0820  221.4560 C   0  0  0  0  0  0  0  0  0  0  0  0
  142.4390   80.3800  222.5440 C   0  0  0  0  0  0  0  0  0  0  0  0
  142.1530   81.1920  223.7290 C   0  0  0  0  0  0  0  0  0  0  0  0
  142.1750   79.7100  223.8710 C   0  0  0  0  0  0  0  0  0  0  0  0
  142.9010   76.7970  221.0090 H   0  0  0  0  0  0  0  0  0  0  0  0
  141.7770   75.9780  219.6850 H   0  0  0  0  0  0  0  0  0  0  0  0
  141.4896   73.0141  220.2618 H   0  0  0  0  0  0  0  0  0  0  0  0
  141.9464   73.8052  218.6642 H   0  0  0  0  0  0  0  0  0  0  0  0
  143.3779   71.5928  219.2489 H   0  0  0  0  0  0  0  0  0  0  0  0
  145.7692   71.0829  219.6831 H   0  0  0  0  0  0  0  0  0  0  0  0
  147.1954   72.8223  220.7075 H   0  0  0  0  0  0  0  0  0  0  0  0
  146.2375   75.0562  221.2955 H   0  0  0  0  0  0  0  0  0  0  0  0
  138.2458   75.9374  222.4309 H   0  0  0  0  0  0  0  0  0  0  0  0
  135.0902   79.1829  224.1467 H   0  0  0  0  0  0  0  0  0  0  0  0
  134.4744   81.5233  224.6676 H   0  0  0  0  0  0  0  0  0  0  0  0
  136.0972   83.3453  224.1513 H   0  0  0  0  0  0  0  0  0  0  0  0
  138.2925   82.7714  223.1198 H   0  0  0  0  0  0  0  0  0  0  0  0
  142.0254   79.9321  220.5220 H   0  0  0  0  0  0  0  0  0  0  0  0
  140.7745   80.9378  221.4079 H   0  0  0  0  0  0  0  0  0  0  0  0
  143.2406   80.4499  221.7939 H   0  0  0  0  0  0  0  0  0  0  0  0
  142.9526   81.7958  224.1830 H   0  0  0  0  0  0  0  0  0  0  0  0
  141.4187   81.9763  223.9649 H   0  0  0  0  0  0  0  0  0  0  0  0
  142.9940   79.2176  224.4158 H   0  0  0  0  0  0  0  0  0  0  0  0
  141.4767   78.9447  224.2407 H   0  0  0  0  0  0  0  0  0  0  0  0
  1  2  2  3
  2  3  1  0
  3  4  1  0
  4  5  2  0
  4  6  1  0
  6  7  1  0
  7  8  1  0
  8  9  2  0
  9 10  1  0
 10 11  2  0
 11 12  1  0
 12 13  2  0
  3 14  2  0
 14 15  1  0
 15 16  1  0
 16 17  2  0
 16 18  1  0
 18 19  1  0
 19 20  2  0
 20 21  1  0
 21 22  2  0
 22 23  1  0
 23 24  2  0
 24 25  1  0
 25 26  1  0
 26 27  1  0
 27 28  1  0
 28 29  1  0
 29 30  1  0
 26  2  1  0
 30 28  1  0
 13  8  1  0
 25 15  2  0
 23 18  1  0
  1 31  1  0
  6 32  1  0
  7 33  1  0
  7 34  1  0
  9 35  1  0
 10 36  1  0
 11 37  1  0
 12 38  1  0
 14 39  1  0
 19 40  1  0
 20 41  1  0
 21 42  1  0
 22 43  1  0
 27 44  1  0
 27 45  1  0
 28 46  1  0
 29 47  1  0
 29 48  1  0
 30 49  1  0
 30 50  1  0
M  END
>  <smiles>  (17) 
N=c1c(C(=O)NCc2ccccn2)cc2c(=O)n3ccccc3nc2n1CC1CC1

>  <score_type>  (17) 
oracle

>  <origin>  (17) 
autodockgpu

>  <m_score__min__energy>  (17) 
-7.5199999999999996

>  <m_primary>  (17) 
energy

>  <meeko>  (17) 
{"free_energy": -6.97, "intermolecular_energy": -8.76, "internal_energy": -1.63, "cluster_size": 4, "cluster_id": 4, "rank_in_cluster": 4}

>  <energy>  (17) 
-6.98

>  <cluster_rmsd>  (17) 
0.06

>  <rmsd>  (17) 
271.48

>  <cluster>  (17) 
4

$$$$

     RDKit          3D

 50 54  0  0  0  0  0  0  0  0999 V2000
  138.6380   73.4900  222.2740 N   0  0  0  0  0  0  0  0  0  0  0  0
  143.6300   73.3980  220.2100 C   0  0  0  0  0  0  0  0  0  0  0  0
  140.5230   74.7280  221.5960 C   0  0  0  0  0  0  0  0  0  0  0  0
  139.8710   76.0020  221.9830 C   0  0  0  0  0  0  0  0  0  0  0  0
  138.6420   76.0470  222.2070 O   0  0  0  0  0  0  0  0  0  0  0  0
  140.7280   77.1500  222.0820 N   0  0  0  0  0  0  0  0  0  0  0  0
  140.2450   78.4620  222.4570 C   0  0  0  0  0  0  0  0  0  0  0  0
  141.2710   79.3950  222.9200 C   0  0  0  0  0  0  0  0  0  0  0  0
  140.8540   80.4980  223.6740 C   0  0  0  0  0  0  0  0  0  0  0  0
  141.7520   81.4410  224.1360 C   0  0  0  0  0  0  0  0  0  0  0  0
  143.0750   81.2740  223.8400 C   0  0  0  0  0  0  0  0  0  0  0  0
  143.5080   80.1810  223.0920 C   0  0  0  0  0  0  0  0  0  0  0  0
  142.5820   79.2890  222.6650 N   0  0  0  0  0  0  0  0  0  0  0  0
  141.8080   74.7360  221.0630 C   0  0  0  0  0  0  0  0  0  0  0  0
  142.3450   73.4960  220.7450 C   0  0  0  0  0  0  0  0  0  0  0  0
  139.8230   73.5350  221.7930 C   0  0  0  0  0  0  0  0  0  0  0  0
  144.2960   74.4260  220.0140 O   0  0  0  0  0  0  0  0  0  0  0  0
  144.1800   72.2090  219.8970 N   0  0  0  0  0  0  0  0  0  0  0  0
  145.4120   72.0680  219.3870 C   0  0  0  0  0  0  0  0  0  0  0  0
  145.9670   70.8360  219.0730 C   0  0  0  0  0  0  0  0  0  0  0  0
  145.2160   69.7030  219.2980 C   0  0  0  0  0  0  0  0  0  0  0  0
  143.9460   69.8220  219.8220 C   0  0  0  0  0  0  0  0  0  0  0  0
  143.4540   71.1000  220.1120 C   0  0  0  0  0  0  0  0  0  0  0  0
  142.2070   71.1290  220.6260 N   0  0  0  0  0  0  0  0  0  0  0  0
  141.6570   72.3190  220.9400 C   0  0  0  0  0  0  0  0  0  0  0  0
  140.3950   72.3630  221.4670 N   0  0  0  0  0  0  0  0  0  0  0  0
  139.7520   71.0750  221.6360 C   0  0  0  0  0  0  0  0  0  0  0  0
  139.9060   70.4840  222.9960 C   0  0  0  0  0  0  0  0  0  0  0  0
  140.3200   71.2230  224.1910 C   0  0  0  0  0  0  0  0  0  0  0  0
  138.8760   70.9000  224.0190 C   0  0  0  0  0  0  0  0  0  0  0  0
  138.1790   74.0820  222.9550 H   0  0  0  0  0  0  0  0  0  0  0  0
  141.7600   77.0090  221.8610 H   0  0  0  0  0  0  0  0  0  0  0  0
  139.7519   78.9065  221.5799 H   0  0  0  0  0  0  0  0  0  0  0  0
  139.5681   78.3054  223.3098 H   0  0  0  0  0  0  0  0  0  0  0  0
  139.7850   80.6171  223.9044 H   0  0  0  0  0  0  0  0  0  0  0  0
  141.4104   82.3037  224.7268 H   0  0  0  0  0  0  0  0  0  0  0  0
  143.8083   82.0122  224.1969 H   0  0  0  0  0  0  0  0  0  0  0  0
  144.5735   80.0460  222.8545 H   0  0  0  0  0  0  0  0  0  0  0  0
  142.3660   75.6704  220.9029 H   0  0  0  0  0  0  0  0  0  0  0  0
  146.0116   72.9729  219.2090 H   0  0  0  0  0  0  0  0  0  0  0  0
  146.9819   70.7654  218.6546 H   0  0  0  0  0  0  0  0  0  0  0  0
  145.6266   68.7104  219.0613 H   0  0  0  0  0  0  0  0  0  0  0  0
  143.3310   68.9293  220.0086 H   0  0  0  0  0  0  0  0  0  0  0  0
  138.6777   71.1975  221.4337 H   0  0  0  0  0  0  0  0  0  0  0  0
  140.2440   70.3840  220.9357 H   0  0  0  0  0  0  0  0  0  0  0  0
  140.2996   69.5630  222.5411 H   0  0  0  0  0  0  0  0  0  0  0  0
  140.9038   70.7144  224.9723 H   0  0  0  0  0  0  0  0  0  0  0  0
  140.8852   72.1506  224.3642 H   0  0  0  0  0  0  0  0  0  0  0  0
  138.3964   70.1463  224.6608 H   0  0  0  0  0  0  0  0  0  0  0  0
  137.9379   71.4742  224.0024 H   0  0  0  0  0  0  0  0  0  0  0  0
  1  2  2  3
  2  3  1  0
  3  4  1  0
  4  5  2  0
  4  6  1  0
  6  7  1  0
  7  8  1  0
  8  9  2  0
  9 10  1  0
 10 11  2  0
 11 12  1  0
 12 13  2  0
  3 14  2  0
 14 15  1  0
 15 16  1  0
 16 17  2  0
 16 18  1  0
 18 19  1  0
 19 20  2  0
 20 21  1  0
 21 22  2  0
 22 23  1  0
 23 24  2  0
 24 25  1  0
 25 26  1  0
 26 27  1  0
 27 28  1  0
 28 29  1  0
 29 30  1  0
 26  2  1  0
 30 28  1  0
 13  8  1  0
 25 15  2  0
 23 18  1  0
  1 31  1  0
  6 32  1  0
  7 33  1  0
  7 34  1  0
  9 35  1  0
 10 36  1  0
 11 37  1  0
 12 38  1  0
 14 39  1  0
 19 40  1  0
 20 41  1  0
 21 42  1  0
 22 43  1  0
 27 44  1  0
 27 45  1  0
 28 46  1  0
 29 47  1  0
 29 48  1  0
 30 49  1  0
 30 50  1  0
M  END
>  <smiles>  (18) 
N=c1c(C(=O)NCc2ccccn2)cc2c(=O)n3ccccc3nc2n1CC1CC1

>  <score_type>  (18) 
oracle

>  <origin>  (18) 
autodockgpu

>  <m_score__min__energy>  (18) 
-7.5199999999999996

>  <m_primary>  (18) 
energy

>  <meeko>  (18) 
{"free_energy": -7.11, "intermolecular_energy": -8.9, "internal_energy": -1.48, "cluster_size": 3, "cluster_id": 3, "rank_in_cluster": 3}

>  <energy>  (18) 
-6.97

>  <cluster_rmsd>  (18) 
0.15

>  <rmsd>  (18) 
271.5

>  <cluster>  (18) 
4

$$$$

     RDKit          3D

 50 54  0  0  0  0  0  0  0  0999 V2000
  139.2040   74.1480  222.3320 N   0  0  0  0  0  0  0  0  0  0  0  0
  143.9930   73.2620  219.9920 C   0  0  0  0  0  0  0  0  0  0  0  0
  141.1690   75.0800  221.4270 C   0  0  0  0  0  0  0  0  0  0  0  0
  140.7000   76.4540  221.7300 C   0  0  0  0  0  0  0  0  0  0  0  0
  139.9960   76.6800  222.7380 O   0  0  0  0  0  0  0  0  0  0  0  0
  141.1000   77.4800  220.8080 N   0  0  0  0  0  0  0  0  0  0  0  0
  140.7300   78.8700  220.9700 C   0  0  0  0  0  0  0  0  0  0  0  0
  141.4280   79.5810  222.0400 C   0  0  0  0  0  0  0  0  0  0  0  0
  140.6880   80.4820  222.8130 C   0  0  0  0  0  0  0  0  0  0  0  0
  141.2700   81.2110  223.8330 C   0  0  0  0  0  0  0  0  0  0  0  0
  142.6010   81.0320  224.0760 C   0  0  0  0  0  0  0  0  0  0  0  0
  143.3540   80.1390  223.3180 C   0  0  0  0  0  0  0  0  0  0  0  0
  142.7300   79.4510  222.3310 N   0  0  0  0  0  0  0  0  0  0  0  0
  142.4050   74.8840  220.8210 C   0  0  0  0  0  0  0  0  0  0  0  0
  142.7690   73.5640  220.5910 C   0  0  0  0  0  0  0  0  0  0  0  0
  140.3500   74.0040  221.7790 C   0  0  0  0  0  0  0  0  0  0  0  0
  144.7590   74.1800  219.6590 O   0  0  0  0  0  0  0  0  0  0  0  0
  144.3760   71.9920  219.7610 N   0  0  0  0  0  0  0  0  0  0  0  0
  145.5450   71.6570  219.1940 C   0  0  0  0  0  0  0  0  0  0  0  0
  145.9280   70.3430  218.9670 C   0  0  0  0  0  0  0  0  0  0  0  0
  145.0670   69.3350  219.3440 C   0  0  0  0  0  0  0  0  0  0  0  0
  143.8600   69.6550  219.9290 C   0  0  0  0  0  0  0  0  0  0  0  0
  143.5430   71.0030  220.1240 C   0  0  0  0  0  0  0  0  0  0  0  0
  142.3480   71.2310  220.7070 N   0  0  0  0  0  0  0  0  0  0  0  0
  141.9640   72.5020  220.9390 C   0  0  0  0  0  0  0  0  0  0  0  0
  140.7560   72.7470  221.5330 N   0  0  0  0  0  0  0  0  0  0  0  0
  139.9810   71.5680  221.8620 C   0  0  0  0  0  0  0  0  0  0  0  0
  140.2980   70.9750  223.1920 C   0  0  0  0  0  0  0  0  0  0  0  0
  140.4190   71.7300  224.4420 C   0  0  0  0  0  0  0  0  0  0  0  0
  139.1700   70.9570  224.1960 C   0  0  0  0  0  0  0  0  0  0  0  0
  138.8820   74.8210  223.0160 H   0  0  0  0  0  0  0  0  0  0  0  0
  141.6910   77.1820  219.9740 H   0  0  0  0  0  0  0  0  0  0  0  0
  140.9391   79.3900  220.0235 H   0  0  0  0  0  0  0  0  0  0  0  0
  139.6655   78.8714  221.2474 H   0  0  0  0  0  0  0  0  0  0  0  0
  139.6161   80.6136  222.6039 H   0  0  0  0  0  0  0  0  0  0  0  0
  140.6763   81.9165  224.4328 H   0  0  0  0  0  0  0  0  0  0  0  0
  143.0860   81.6015  224.8825 H   0  0  0  0  0  0  0  0  0  0  0  0
  144.4267   79.9958  223.5150 H   0  0  0  0  0  0  0  0  0  0  0  0
  143.0560   75.7251  220.5404 H   0  0  0  0  0  0  0  0  0  0  0  0
  146.2322   72.4622  218.8950 H   0  0  0  0  0  0  0  0  0  0  0  0
  146.8954   70.1113  218.4975 H   0  0  0  0  0  0  0  0  0  0  0  0
  145.3408   68.2824  219.1793 H   0  0  0  0  0  0  0  0  0  0  0  0
  143.1595   68.8646  220.2366 H   0  0  0  0  0  0  0  0  0  0  0  0
  138.9159   71.8426  221.8527 H   0  0  0  0  0  0  0  0  0  0  0  0
  140.2336   70.8060  221.1100 H   0  0  0  0  0  0  0  0  0  0  0  0
  140.9849   70.2692  222.7022 H   0  0  0  0  0  0  0  0  0  0  0  0
  141.1250   71.3947  225.2161 H   0  0  0  0  0  0  0  0  0  0  0  0
  140.6380   72.7794  224.6885 H   0  0  0  0  0  0  0  0  0  0  0  0
  138.9586   70.0464  224.7757 H   0  0  0  0  0  0  0  0  0  0  0  0
  138.0943   71.1862  224.1748 H   0  0  0  0  0  0  0  0  0  0  0  0
  1  2  2  3
  2  3  1  0
  3  4  1  0
  4  5  2  0
  4  6  1  0
  6  7  1  0
  7  8  1  0
  8  9  2  0
  9 10  1  0
 10 11  2  0
 11 12  1  0
 12 13  2  0
  3 14  2  0
 14 15  1  0
 15 16  1  0
 16 17  2  0
 16 18  1  0
 18 19  1  0
 19 20  2  0
 20 21  1  0
 21 22  2  0
 22 23  1  0
 23 24  2  0
 24 25  1  0
 25 26  1  0
 26 27  1  0
 27 28  1  0
 28 29  1  0
 29 30  1  0
 26  2  1  0
 30 28  1  0
 13  8  1  0
 25 15  2  0
 23 18  1  0
  1 31  1  0
  6 32  1  0
  7 33  1  0
  7 34  1  0
  9 35  1  0
 10 36  1  0
 11 37  1  0
 12 38  1  0
 14 39  1  0
 19 40  1  0
 20 41  1  0
 21 42  1  0
 22 43  1  0
 27 44  1  0
 27 45  1  0
 28 46  1  0
 29 47  1  0
 29 48  1  0
 30 49  1  0
 30 50  1  0
M  END
>  <smiles>  (19) 
N=c1c(C(=O)NCc2ccccn2)cc2c(=O)n3ccccc3nc2n1CC1CC1

>  <score_type>  (19) 
oracle

>  <origin>  (19) 
autodockgpu

>  <m_score__min__energy>  (19) 
-7.5199999999999996

>  <m_primary>  (19) 
energy

>  <meeko>  (19) 
{"free_energy": -7.12, "intermolecular_energy": -8.91, "internal_energy": -1.42, "cluster_size": 3, "cluster_id": 3, "rank_in_cluster": 1}

>  <energy>  (19) 
-7.0

>  <cluster_rmsd>  (19) 
0.0

>  <rmsd>  (19) 
271.48

>  <cluster>  (19) 
5

$$$$

     RDKit          3D

 50 54  0  0  0  0  0  0  0  0999 V2000
  142.5760   71.9150  220.6260 N   0  0  0  0  0  0  0  0  0  0  0  0
  140.0300   76.5880  221.5610 C   0  0  0  0  0  0  0  0  0  0  0  0
  140.8030   73.0220  221.7130 C   0  0  0  0  0  0  0  0  0  0  0  0
  140.3430   71.7540  222.3300 C   0  0  0  0  0  0  0  0  0  0  0  0
  140.3460   70.6890  221.6760 O   0  0  0  0  0  0  0  0  0  0  0  0
  139.9050   71.8340  223.6950 N   0  0  0  0  0  0  0  0  0  0  0  0
  139.4360   70.6850  224.4390 C   0  0  0  0  0  0  0  0  0  0  0  0
  139.9840   70.5490  225.7880 C   0  0  0  0  0  0  0  0  0  0  0  0
  139.9580   69.2800  226.3760 C   0  0  0  0  0  0  0  0  0  0  0  0
  140.4370   69.0630  227.6540 C   0  0  0  0  0  0  0  0  0  0  0  0
  140.9450   70.1260  228.3430 C   0  0  0  0  0  0  0  0  0  0  0  0
  140.9820   71.3970  227.7730 C   0  0  0  0  0  0  0  0  0  0  0  0
  140.4970   71.5500  226.5170 N   0  0  0  0  0  0  0  0  0  0  0  0
  140.1250   74.2080  221.9680 C   0  0  0  0  0  0  0  0  0  0  0  0
  140.6360   75.3470  221.3620 C   0  0  0  0  0  0  0  0  0  0  0  0
  141.9320   72.9900  220.8890 C   0  0  0  0  0  0  0  0  0  0  0  0
  139.0240   76.6740  222.2830 O   0  0  0  0  0  0  0  0  0  0  0  0
  140.5070   77.7110  220.9900 N   0  0  0  0  0  0  0  0  0  0  0  0
  139.9590   78.9240  221.1590 C   0  0  0  0  0  0  0  0  0  0  0  0
  140.4650   80.0730  220.5680 C   0  0  0  0  0  0  0  0  0  0  0  0
  141.5830   79.9620  219.7710 C   0  0  0  0  0  0  0  0  0  0  0  0
  142.1640   78.7260  219.5820 C   0  0  0  0  0  0  0  0  0  0  0  0
  141.5960   77.6120  220.2110 C   0  0  0  0  0  0  0  0  0  0  0  0
  142.2260   76.4420  219.9800 N   0  0  0  0  0  0  0  0  0  0  0  0
  141.7500   75.3180  220.5510 C   0  0  0  0  0  0  0  0  0  0  0  0
  142.3830   74.1250  220.3290 N   0  0  0  0  0  0  0  0  0  0  0  0
  143.5440   74.1950  219.4650 C   0  0  0  0  0  0  0  0  0  0  0  0
  144.8430   74.3030  220.1880 C   0  0  0  0  0  0  0  0  0  0  0  0
  145.3140   73.3700  221.2140 C   0  0  0  0  0  0  0  0  0  0  0  0
  145.8820   73.2630  219.8410 C   0  0  0  0  0  0  0  0  0  0  0  0
  142.3250   70.9440  220.7650 H   0  0  0  0  0  0  0  0  0  0  0  0
  139.9320   72.7920  224.1600 H   0  0  0  0  0  0  0  0  0  0  0  0
  138.3416   70.7575  224.5223 H   0  0  0  0  0  0  0  0  0  0  0  0
  139.7774   69.8007  223.8809 H   0  0  0  0  0  0  0  0  0  0  0  0
  139.5460   68.4336  225.8069 H   0  0  0  0  0  0  0  0  0  0  0  0
  140.4095   68.0597  228.1042 H   0  0  0  0  0  0  0  0  0  0  0  0
  141.3306   69.9773  229.3624 H   0  0  0  0  0  0  0  0  0  0  0  0
  141.3938   72.2530  228.3276 H   0  0  0  0  0  0  0  0  0  0  0  0
  139.2346   74.2419  222.6130 H   0  0  0  0  0  0  0  0  0  0  0  0
  139.0666   79.0118  221.7961 H   0  0  0  0  0  0  0  0  0  0  0  0
  139.9849   81.0490  220.7320 H   0  0  0  0  0  0  0  0  0  0  0  0
  142.0095   80.8537  219.2884 H   0  0  0  0  0  0  0  0  0  0  0  0
  143.0570   78.6174  218.9489 H   0  0  0  0  0  0  0  0  0  0  0  0
  143.5686   73.2853  218.8471 H   0  0  0  0  0  0  0  0  0  0  0  0
  143.4381   75.1142  218.8701 H   0  0  0  0  0  0  0  0  0  0  0  0
  144.7350   75.3976  220.1992 H   0  0  0  0  0  0  0  0  0  0  0  0
  145.9435   73.7371  222.0380 H   0  0  0  0  0  0  0  0  0  0  0  0
  144.8187   72.6654  221.8983 H   0  0  0  0  0  0  0  0  0  0  0  0
  146.9225   73.5623  219.6467 H   0  0  0  0  0  0  0  0  0  0  0  0
  145.9771   72.4662  219.0887 H   0  0  0  0  0  0  0  0  0  0  0  0
  1  2  2  3
  2  3  1  0
  3  4  1  0
  4  5  2  0
  4  6  1  0
  6  7  1  0
  7  8  1  0
  8  9  2  0
  9 10  1  0
 10 11  2  0
 11 12  1  0
 12 13  2  0
  3 14  2  0
 14 15  1  0
 15 16  1  0
 16 17  2  0
 16 18  1  0
 18 19  1  0
 19 20  2  0
 20 21  1  0
 21 22  2  0
 22 23  1  0
 23 24  2  0
 24 25  1  0
 25 26  1  0
 26 27  1  0
 27 28  1  0
 28 29  1  0
 29 30  1  0
 26  2  1  0
 30 28  1  0
 13  8  1  0
 25 15  2  0
 23 18  1  0
  1 31  1  0
  6 32  1  0
  7 33  1  0
  7 34  1  0
  9 35  1  0
 10 36  1  0
 11 37  1  0
 12 38  1  0
 14 39  1  0
 19 40  1  0
 20 41  1  0
 21 42  1  0
 22 43  1  0
 27 44  1  0
 27 45  1  0
 28 46  1  0
 29 47  1  0
 29 48  1  0
 30 49  1  0
 30 50  1  0
M  END
>  <smiles>  (20) 
N=c1c(C(=O)NCc2ccccn2)cc2c(=O)n3ccccc3nc2n1CC1CC1

>  <score_type>  (20) 
oracle

>  <origin>  (20) 
autodockgpu

>  <m_score__min__energy>  (20) 
-7.5199999999999996

>  <m_primary>  (20) 
energy

>  <meeko>  (20) 
{"free_energy": -7.38, "intermolecular_energy": -9.17, "internal_energy": -1.4, "cluster_size": 10, "cluster_id": 1, "rank_in_cluster": 8}

>  <energy>  (20) 
-6.91

>  <cluster_rmsd>  (20) 
0.0

>  <rmsd>  (20) 
271.13

>  <cluster>  (20) 
6

$$$$
