JDBMCWJIJNWNRF-OEQCPPMUNA-N
     RDKit          3D

 59 62  0  0  0  0  0  0  0  0999 V2000
  143.3410   76.7870  216.5960 C   0  0  0  0  0  0  0  0  0  0  0  0
  142.1590   76.6340  217.5610 C   0  0  1  0  0  0  0  0  0  0  0  0
  142.4250   75.5530  218.5160 N   0  0  0  0  0  0  0  0  0  0  0  0
  143.4120   75.6560  219.5570 C   0  0  0  0  0  0  0  0  0  0  0  0
  144.0720   76.7190  219.7040 O   0  0  0  0  0  0  0  0  0  0  0  0
  143.6990   74.4880  220.4660 C   0  0  2  0  0  0  0  0  0  0  0  0
  145.1890   74.1370  220.4520 C   0  0  0  0  0  0  0  0  0  0  0  0
  145.3100   72.8980  219.5570 C   0  0  1  0  0  0  0  0  0  0  0  0
  146.3190   72.0200  219.9910 O   0  0  0  0  0  0  0  0  0  0  0  0
  143.9270   72.2470  219.5610 C   0  0  0  0  0  0  0  0  0  0  0  0
  143.0090   73.2810  220.0170 N   0  0  0  0  0  0  0  0  0  0  0  0
  141.5830   73.0650  220.0640 C   0  0  0  0  0  0  0  0  0  0  0  0
  140.9880   72.6300  219.0390 O   0  0  0  0  0  0  0  0  0  0  0  0
  140.7680   73.3620  221.2940 C   0  0  0  0  0  0  0  0  0  0  0  0
  140.9750   74.7360  221.7390 N   0  0  0  0  0  0  0  0  0  0  0  0
  139.8940   75.6730  221.8680 C   0  0  0  0  0  0  0  0  0  0  0  0
  138.7270   75.3320  221.5340 O   0  0  0  0  0  0  0  0  0  0  0  0
  140.1420   77.0340  222.3900 C   0  0  0  0  0  0  0  0  0  0  0  0
  139.0810   77.8430  222.8380 C   0  0  0  0  0  0  0  0  0  0  0  0
  139.3440   79.1270  223.3230 C   0  0  0  0  0  0  0  0  0  0  0  0
  140.6610   79.6000  223.3640 C   0  0  0  0  0  0  0  0  0  0  0  0
  140.9610   80.8860  223.8430 C   0  0  0  0  0  0  0  0  0  0  0  0
  142.2880   81.3280  223.8720 C   0  0  0  0  0  0  0  0  0  0  0  0
  142.5780   82.5720  224.3300 F   0  0  0  0  0  0  0  0  0  0  0  0
  143.3190   80.4910  223.4260 C   0  0  0  0  0  0  0  0  0  0  0  0
  143.0270   79.2080  222.9480 C   0  0  0  0  0  0  0  0  0  0  0  0
  141.7030   78.7590  222.9130 C   0  0  0  0  0  0  0  0  0  0  0  0
  141.4150   77.5150  222.4440 N   0  0  0  0  0  0  0  0  0  0  0  0
  141.8850   77.9230  218.3090 C   0  0  0  0  0  0  0  0  0  0  0  0
  140.7700   78.0440  219.1620 C   0  0  0  0  0  0  0  0  0  0  0  0
  140.5270   79.2390  219.8460 C   0  0  0  0  0  0  0  0  0  0  0  0
  141.3880   80.3280  219.6790 C   0  0  0  0  0  0  0  0  0  0  0  0
  141.0880   81.8250  220.5420 Cl  0  0  0  0  0  0  0  0  0  0  0  0
  142.4910   80.2240  218.8260 C   0  0  0  0  0  0  0  0  0  0  0  0
  142.7390   79.0290  218.1440 C   0  0  0  0  0  0  0  0  0  0  0  0
  144.2708   76.9074  217.1713 H   0  0  0  0  0  0  0  0  0  0  0  0
  143.4153   75.8910  215.9623 H   0  0  0  0  0  0  0  0  0  0  0  0
  143.1847   77.6724  215.9623 H   0  0  0  0  0  0  0  0  0  0  0  0
  141.2677   76.3874  216.9653 H   0  0  0  0  0  0  0  0  0  0  0  0
  141.9080   74.6530  218.3980 H   0  0  0  0  0  0  0  0  0  0  0  0
  143.3607   74.7936  221.4671 H   0  0  0  0  0  0  0  0  0  0  0  0
  145.7761   74.9696  220.0372 H   0  0  0  0  0  0  0  0  0  0  0  0
  145.5730   73.9474  221.4652 H   0  0  0  0  0  0  0  0  0  0  0  0
  145.6135   73.1742  218.5364 H   0  0  0  0  0  0  0  0  0  0  0  0
  146.0820   71.7090  220.9060 H   0  0  0  0  0  0  0  0  0  0  0  0
  143.6569   71.9131  218.5483 H   0  0  0  0  0  0  0  0  0  0  0  0
  143.8965   71.3601  220.2109 H   0  0  0  0  0  0  0  0  0  0  0  0
  139.7025   73.2151  221.0637 H   0  0  0  0  0  0  0  0  0  0  0  0
  141.0858   72.6816  222.0978 H   0  0  0  0  0  0  0  0  0  0  0  0
  141.9560   75.0500  221.9180 H   0  0  0  0  0  0  0  0  0  0  0  0
  138.0481   77.4659  222.8065 H   0  0  0  0  0  0  0  0  0  0  0  0
  138.5182   79.7645  223.6717 H   0  0  0  0  0  0  0  0  0  0  0  0
  140.1534   81.5448  224.1949 H   0  0  0  0  0  0  0  0  0  0  0  0
  144.3609   80.8429  223.4514 H   0  0  0  0  0  0  0  0  0  0  0  0
  143.8392   78.5529  222.5999 H   0  0  0  0  0  0  0  0  0  0  0  0
  140.0859   77.1923  219.2907 H   0  0  0  0  0  0  0  0  0  0  0  0
  139.6583   79.3225  220.5156 H   0  0  0  0  0  0  0  0  0  0  0  0
  143.1644   81.0833  218.6914 H   0  0  0  0  0  0  0  0  0  0  0  0
  143.6079   78.9529  217.4737 H   0  0  0  0  0  0  0  0  0  0  0  0
  1  2  1  0
  2  3  1  0
  3  4  1  0
  4  5  2  0
  4  6  1  0
  6  7  1  0
  7  8  1  0
  8  9  1  0
  8 10  1  0
 10 11  1  0
 11 12  1  0
 12 13  2  0
 12 14  1  0
 14 15  1  0
 15 16  1  0
 16 17  2  0
 16 18  1  0
 18 19  2  0
 19 20  1  0
 20 21  2  0
 21 22  1  0
 22 23  2  0
 23 24  1  0
 23 25  1  0
 25 26  2  0
 26 27  1  0
 27 28  2  0
  2 29  1  0
 29 30  2  0
 30 31  1  0
 31 32  2  0
 32 33  1  0
 32 34  1  0
 34 35  2  0
 11  6  1  0
 28 18  1  0
 35 29  1  0
 27 21  1  0
  1 36  1  0
  1 37  1  0
  1 38  1  0
  2 39  1  6
  3 40  1  0
  6 41  1  1
  7 42  1  0
  7 43  1  0
  8 44  1  6
  9 45  1  0
 10 46  1  0
 10 47  1  0
 14 48  1  0
 14 49  1  0
 15 50  1  0
 19 51  1  0
 20 52  1  0
 22 53  1  0
 25 54  1  0
 26 55  1  0
 30 56  1  0
 31 57  1  0
 34 58  1  0
 35 59  1  0
M  END
>  <UniqueID>  (1) 
80

>  <SMILES>  (1) 
C[C@@H](NC(=O)[C@@H]1C[C@@H](O)CN1C(=O)CNC(=O)c1ccc2cc(F)ccc2n1)c1ccc(Cl)cc1

>  <Energy>  (1) 
57.892266460593525

>  <Genealogy>  (1) 
C[C@@H](NC(=O)[C@@H]1C[C@@H](O)CN1C(=O)CNC(=O)c1ccc2cc(F)ccc2n1)c1ccc(Cl)cc1 (3D coordinates assigned)
C[C@@H](NC(=O)[C@@H]1C[C@@H](O)CN1C(=O)CNC(=O)c1ccc2cc(F)ccc2n1)c1ccc(Cl)cc1 (nonaromatic ring conformer: 57.892266460593525 kcal/mol)

>  <smiles>  (1) 
C[C@@H](NC(=O)[C@@H]1C[C@@H](O)CN1C(=O)CNC(=O)c1ccc2cc(F)ccc2n1)c1ccc(Cl)cc1

>  <score_type>  (1) 
oracle

>  <origin>  (1) 
autodockgpu

>  <m_score__min__energy>  (1) 
-9.9100000000000001

>  <m_primary>  (1) 
energy

>  <meeko>  (1) 
{"free_energy": -7.49, "intermolecular_energy": -9.88, "internal_energy": -4.3, "cluster_size": 15, "cluster_id": 4, "rank_in_cluster": 2}

>  <energy>  (1) 
-9.91

>  <cluster_rmsd>  (1) 
0.0

>  <rmsd>  (1) 
270.7

>  <cluster>  (1) 
1

$$$$
JDBMCWJIJNWNRF-OEQCPPMUNA-N
     RDKit          3D

 59 62  0  0  0  0  0  0  0  0999 V2000
  142.9750   78.1000  217.4820 C   0  0  0  0  0  0  0  0  0  0  0  0
  141.8850   77.7720  218.5110 C   0  0  1  0  0  0  0  0  0  0  0  0
  142.4060   76.8410  219.5160 N   0  0  0  0  0  0  0  0  0  0  0  0
  142.8670   75.5180  219.1910 C   0  0  0  0  0  0  0  0  0  0  0  0
  142.8700   75.1220  217.9950 O   0  0  0  0  0  0  0  0  0  0  0  0
  143.3240   74.5720  220.2730 C   0  0  2  0  0  0  0  0  0  0  0  0
  144.8440   74.3950  220.2390 C   0  0  0  0  0  0  0  0  0  0  0  0
  145.0840   73.0380  219.5680 C   0  0  1  0  0  0  0  0  0  0  0  0
  146.2050   72.3720  220.0920 O   0  0  0  0  0  0  0  0  0  0  0  0
  143.7910   72.2460  219.7600 C   0  0  0  0  0  0  0  0  0  0  0  0
  142.7700   73.2330  220.0780 N   0  0  0  0  0  0  0  0  0  0  0  0
  141.3830   72.8700  220.2400 C   0  0  0  0  0  0  0  0  0  0  0  0
  141.0900   71.7880  220.8200 O   0  0  0  0  0  0  0  0  0  0  0  0
  140.2630   73.7310  219.7190 C   0  0  0  0  0  0  0  0  0  0  0  0
  140.3290   75.0730  220.2880 N   0  0  0  0  0  0  0  0  0  0  0  0
  140.0070   75.3410  221.6630 C   0  0  0  0  0  0  0  0  0  0  0  0
  139.5960   74.4060  222.4030 O   0  0  0  0  0  0  0  0  0  0  0  0
  140.1570   76.7050  222.2140 C   0  0  0  0  0  0  0  0  0  0  0  0
  139.0460   77.4100  222.7140 C   0  0  0  0  0  0  0  0  0  0  0  0
  139.2160   78.6990  223.2250 C   0  0  0  0  0  0  0  0  0  0  0  0
  140.4880   79.2810  223.2410 C   0  0  0  0  0  0  0  0  0  0  0  0
  140.6950   80.5750  223.7450 C   0  0  0  0  0  0  0  0  0  0  0  0
  141.9810   81.1280  223.7470 C   0  0  0  0  0  0  0  0  0  0  0  0
  142.1800   82.3800  224.2290 F   0  0  0  0  0  0  0  0  0  0  0  0
  143.0630   80.3920  223.2480 C   0  0  0  0  0  0  0  0  0  0  0  0
  142.8650   79.1010  222.7450 C   0  0  0  0  0  0  0  0  0  0  0  0
  141.5830   78.5430  222.7370 C   0  0  0  0  0  0  0  0  0  0  0  0
  141.3850   77.2900  222.2430 N   0  0  0  0  0  0  0  0  0  0  0  0
  141.3700   79.0250  219.1900 C   0  0  0  0  0  0  0  0  0  0  0  0
  142.2160   80.1310  219.4080 C   0  0  0  0  0  0  0  0  0  0  0  0
  141.7300   81.2820  220.0360 C   0  0  0  0  0  0  0  0  0  0  0  0
  140.3990   81.3370  220.4620 C   0  0  0  0  0  0  0  0  0  0  0  0
  139.7870   82.7830  221.2440 Cl  0  0  0  0  0  0  0  0  0  0  0  0
  139.5540   80.2410  220.2620 C   0  0  0  0  0  0  0  0  0  0  0  0
  140.0360   79.0900  219.6300 C   0  0  0  0  0  0  0  0  0  0  0  0
  143.9014   78.3788  218.0054 H   0  0  0  0  0  0  0  0  0  0  0  0
  143.1613   77.2181  216.8514 H   0  0  0  0  0  0  0  0  0  0  0  0
  142.6437   78.9382  216.8514 H   0  0  0  0  0  0  0  0  0  0  0  0
  141.0460   77.3034  217.9757 H   0  0  0  0  0  0  0  0  0  0  0  0
  142.3890   77.1370  220.5170 H   0  0  0  0  0  0  0  0  0  0  0  0
  142.9855   75.0117  221.2228 H   0  0  0  0  0  0  0  0  0  0  0  0
  145.3118   75.2009  219.6544 H   0  0  0  0  0  0  0  0  0  0  0  0
  145.2818   74.4345  221.2473 H   0  0  0  0  0  0  0  0  0  0  0  0
  145.3177   73.1598  218.5000 H   0  0  0  0  0  0  0  0  0  0  0  0
  145.9170   71.8810  220.9090 H   0  0  0  0  0  0  0  0  0  0  0  0
  143.5301   71.7076  218.8370 H   0  0  0  0  0  0  0  0  0  0  0  0
  143.8899   71.4925  220.5553 H   0  0  0  0  0  0  0  0  0  0  0  0
  140.3415   73.8000  218.6240 H   0  0  0  0  0  0  0  0  0  0  0  0
  139.3051   73.2738  220.0079 H   0  0  0  0  0  0  0  0  0  0  0  0
  140.5700   75.8640  219.6510 H   0  0  0  0  0  0  0  0  0  0  0  0
  138.0479   76.9478  222.7024 H   0  0  0  0  0  0  0  0  0  0  0  0
  138.3508   79.2556  223.6143 H   0  0  0  0  0  0  0  0  0  0  0  0
  139.8466   81.1543  224.1383 H   0  0  0  0  0  0  0  0  0  0  0  0
  144.0720   80.8301  223.2514 H   0  0  0  0  0  0  0  0  0  0  0  0
  143.7179   78.5254  222.3560 H   0  0  0  0  0  0  0  0  0  0  0  0
  143.2657   80.0885  219.0819 H   0  0  0  0  0  0  0  0  0  0  0  0
  142.3945   82.1441  220.1949 H   0  0  0  0  0  0  0  0  0  0  0  0
  138.5088   80.2840  220.6021 H   0  0  0  0  0  0  0  0  0  0  0  0
  139.3673   78.2302  219.4762 H   0  0  0  0  0  0  0  0  0  0  0  0
  1  2  1  0
  2  3  1  0
  3  4  1  0
  4  5  2  0
  4  6  1  0
  6  7  1  0
  7  8  1  0
  8  9  1  0
  8 10  1  0
 10 11  1  0
 11 12  1  0
 12 13  2  0
 12 14  1  0
 14 15  1  0
 15 16  1  0
 16 17  2  0
 16 18  1  0
 18 19  2  0
 19 20  1  0
 20 21  2  0
 21 22  1  0
 22 23  2  0
 23 24  1  0
 23 25  1  0
 25 26  2  0
 26 27  1  0
 27 28  2  0
  2 29  1  0
 29 30  2  0
 30 31  1  0
 31 32  2  0
 32 33  1  0
 32 34  1  0
 34 35  2  0
 11  6  1  0
 28 18  1  0
 35 29  1  0
 27 21  1  0
  1 36  1  0
  1 37  1  0
  1 38  1  0
  2 39  1  6
  3 40  1  0
  6 41  1  1
  7 42  1  0
  7 43  1  0
  8 44  1  6
  9 45  1  0
 10 46  1  0
 10 47  1  0
 14 48  1  0
 14 49  1  0
 15 50  1  0
 19 51  1  0
 20 52  1  0
 22 53  1  0
 25 54  1  0
 26 55  1  0
 30 56  1  0
 31 57  1  0
 34 58  1  0
 35 59  1  0
M  END
>  <UniqueID>  (2) 
80

>  <SMILES>  (2) 
C[C@@H](NC(=O)[C@@H]1C[C@@H](O)CN1C(=O)CNC(=O)c1ccc2cc(F)ccc2n1)c1ccc(Cl)cc1

>  <Energy>  (2) 
57.892266460593525

>  <Genealogy>  (2) 
C[C@@H](NC(=O)[C@@H]1C[C@@H](O)CN1C(=O)CNC(=O)c1ccc2cc(F)ccc2n1)c1ccc(Cl)cc1 (3D coordinates assigned)
C[C@@H](NC(=O)[C@@H]1C[C@@H](O)CN1C(=O)CNC(=O)c1ccc2cc(F)ccc2n1)c1ccc(Cl)cc1 (nonaromatic ring conformer: 57.892266460593525 kcal/mol)

>  <smiles>  (2) 
C[C@@H](NC(=O)[C@@H]1C[C@@H](O)CN1C(=O)CNC(=O)c1ccc2cc(F)ccc2n1)c1ccc(Cl)cc1

>  <score_type>  (2) 
oracle

>  <origin>  (2) 
autodockgpu

>  <m_score__min__energy>  (2) 
-9.9100000000000001

>  <m_primary>  (2) 
energy

>  <meeko>  (2) 
{"free_energy": -7.55, "intermolecular_energy": -9.93, "internal_energy": -4.35, "cluster_size": 15, "cluster_id": 4, "rank_in_cluster": 1}

>  <energy>  (2) 
-9.08

>  <cluster_rmsd>  (2) 
1.05

>  <rmsd>  (2) 
270.85

>  <cluster>  (2) 
1

$$$$
JDBMCWJIJNWNRF-OEQCPPMUNA-N
     RDKit          3D

 59 62  0  0  0  0  0  0  0  0999 V2000
  143.3640   76.8000  216.5690 C   0  0  0  0  0  0  0  0  0  0  0  0
  142.1730   76.6470  217.5240 C   0  0  1  0  0  0  0  0  0  0  0  0
  142.4310   75.5670  218.4820 N   0  0  0  0  0  0  0  0  0  0  0  0
  143.4030   75.6740  219.5370 C   0  0  0  0  0  0  0  0  0  0  0  0
  144.0540   76.7410  219.6940 O   0  0  0  0  0  0  0  0  0  0  0  0
  143.6830   74.5080  220.4490 C   0  0  2  0  0  0  0  0  0  0  0  0
  145.1770   74.1720  220.4660 C   0  0  0  0  0  0  0  0  0  0  0  0
  145.3300   72.9370  219.5710 C   0  0  1  0  0  0  0  0  0  0  0  0
  146.3390   72.0690  220.0230 O   0  0  0  0  0  0  0  0  0  0  0  0
  143.9550   72.2720  219.5440 C   0  0  0  0  0  0  0  0  0  0  0  0
  143.0160   73.2940  219.9820 N   0  0  0  0  0  0  0  0  0  0  0  0
  141.5910   73.0630  220.0000 C   0  0  0  0  0  0  0  0  0  0  0  0
  141.0230   72.6190  218.9630 O   0  0  0  0  0  0  0  0  0  0  0  0
  140.7460   73.3530  221.2110 C   0  0  0  0  0  0  0  0  0  0  0  0
  140.9480   74.7230  221.6720 N   0  0  0  0  0  0  0  0  0  0  0  0
  139.8620   75.6530  221.8150 C   0  0  0  0  0  0  0  0  0  0  0  0
  138.6960   75.3080  221.4800 O   0  0  0  0  0  0  0  0  0  0  0  0
  140.1040   77.0090  222.3520 C   0  0  0  0  0  0  0  0  0  0  0  0
  139.0400   77.8060  222.8130 C   0  0  0  0  0  0  0  0  0  0  0  0
  139.2970   79.0850  223.3120 C   0  0  0  0  0  0  0  0  0  0  0  0
  140.6100   79.5660  223.3550 C   0  0  0  0  0  0  0  0  0  0  0  0
  140.9050   80.8470  223.8480 C   0  0  0  0  0  0  0  0  0  0  0  0
  142.2300   81.2970  223.8780 C   0  0  0  0  0  0  0  0  0  0  0  0
  142.5140   82.5370  224.3500 F   0  0  0  0  0  0  0  0  0  0  0  0
  143.2640   80.4710  223.4190 C   0  0  0  0  0  0  0  0  0  0  0  0
  142.9780   79.1930  222.9270 C   0  0  0  0  0  0  0  0  0  0  0  0
  141.6560   78.7370  222.8910 C   0  0  0  0  0  0  0  0  0  0  0  0
  141.3730   77.4960  222.4080 N   0  0  0  0  0  0  0  0  0  0  0  0
  141.8920   77.9360  218.2690 C   0  0  0  0  0  0  0  0  0  0  0  0
  140.7980   78.0410  219.1510 C   0  0  0  0  0  0  0  0  0  0  0  0
  140.5480   79.2360  219.8320 C   0  0  0  0  0  0  0  0  0  0  0  0
  141.3810   80.3430  219.6330 C   0  0  0  0  0  0  0  0  0  0  0  0
  141.0720   81.8400  220.4920 Cl  0  0  0  0  0  0  0  0  0  0  0  0
  142.4620   80.2540  218.7500 C   0  0  0  0  0  0  0  0  0  0  0  0
  142.7170   79.0590  218.0710 C   0  0  0  0  0  0  0  0  0  0  0  0
  144.2889   76.9188  217.1525 H   0  0  0  0  0  0  0  0  0  0  0  0
  143.4429   75.9046  215.9349 H   0  0  0  0  0  0  0  0  0  0  0  0
  143.2141   77.6863  215.9349 H   0  0  0  0  0  0  0  0  0  0  0  0
  141.2873   76.3997  216.9204 H   0  0  0  0  0  0  0  0  0  0  0  0
  141.9210   74.6650  218.3550 H   0  0  0  0  0  0  0  0  0  0  0  0
  143.3202   74.8082  221.4431 H   0  0  0  0  0  0  0  0  0  0  0  0
  145.7643   75.0117  220.0660 H   0  0  0  0  0  0  0  0  0  0  0  0
  145.5410   73.9835  221.4868 H   0  0  0  0  0  0  0  0  0  0  0  0
  145.6520   73.2191  218.5577 H   0  0  0  0  0  0  0  0  0  0  0  0
  146.1480   71.8470  220.9750 H   0  0  0  0  0  0  0  0  0  0  0  0
  143.7104   71.9375  218.5250 H   0  0  0  0  0  0  0  0  0  0  0  0
  143.9203   71.3836  220.1918 H   0  0  0  0  0  0  0  0  0  0  0  0
  139.6861   73.2128  220.9524 H   0  0  0  0  0  0  0  0  0  0  0  0
  141.0395   72.6644  222.0170 H   0  0  0  0  0  0  0  0  0  0  0  0
  141.9270   75.0410  221.8510 H   0  0  0  0  0  0  0  0  0  0  0  0
  138.0093   77.4231  222.7805 H   0  0  0  0  0  0  0  0  0  0  0  0
  138.4682   79.7131  223.6706 H   0  0  0  0  0  0  0  0  0  0  0  0
  140.0950   81.4969  224.2106 H   0  0  0  0  0  0  0  0  0  0  0  0
  144.3040   80.8283  223.4455 H   0  0  0  0  0  0  0  0  0  0  0  0
  143.7927   78.5467  222.5684 H   0  0  0  0  0  0  0  0  0  0  0  0
  140.1358   77.1762  219.3048 H   0  0  0  0  0  0  0  0  0  0  0  0
  139.6963   79.3063  220.5245 H   0  0  0  0  0  0  0  0  0  0  0  0
  143.1129   81.1261  218.5895 H   0  0  0  0  0  0  0  0  0  0  0  0
  143.5683   78.9959  217.3772 H   0  0  0  0  0  0  0  0  0  0  0  0
  1  2  1  0
  2  3  1  0
  3  4  1  0
  4  5  2  0
  4  6  1  0
  6  7  1  0
  7  8  1  0
  8  9  1  0
  8 10  1  0
 10 11  1  0
 11 12  1  0
 12 13  2  0
 12 14  1  0
 14 15  1  0
 15 16  1  0
 16 17  2  0
 16 18  1  0
 18 19  2  0
 19 20  1  0
 20 21  2  0
 21 22  1  0
 22 23  2  0
 23 24  1  0
 23 25  1  0
 25 26  2  0
 26 27  1  0
 27 28  2  0
  2 29  1  0
 29 30  2  0
 30 31  1  0
 31 32  2  0
 32 33  1  0
 32 34  1  0
 34 35  2  0
 11  6  1  0
 28 18  1  0
 35 29  1  0
 27 21  1  0
  1 36  1  0
  1 37  1  0
  1 38  1  0
  2 39  1  6
  3 40  1  0
  6 41  1  1
  7 42  1  0
  7 43  1  0
  8 44  1  6
  9 45  1  0
 10 46  1  0
 10 47  1  0
 14 48  1  0
 14 49  1  0
 15 50  1  0
 19 51  1  0
 20 52  1  0
 22 53  1  0
 25 54  1  0
 26 55  1  0
 30 56  1  0
 31 57  1  0
 34 58  1  0
 35 59  1  0
M  END
>  <UniqueID>  (3) 
80

>  <SMILES>  (3) 
C[C@@H](NC(=O)[C@@H]1C[C@@H](O)CN1C(=O)CNC(=O)c1ccc2cc(F)ccc2n1)c1ccc(Cl)cc1

>  <Energy>  (3) 
57.892266460593525

>  <Genealogy>  (3) 
C[C@@H](NC(=O)[C@@H]1C[C@@H](O)CN1C(=O)CNC(=O)c1ccc2cc(F)ccc2n1)c1ccc(Cl)cc1 (3D coordinates assigned)
C[C@@H](NC(=O)[C@@H]1C[C@@H](O)CN1C(=O)CNC(=O)c1ccc2cc(F)ccc2n1)c1ccc(Cl)cc1 (nonaromatic ring conformer: 57.892266460593525 kcal/mol)

>  <smiles>  (3) 
C[C@@H](NC(=O)[C@@H]1C[C@@H](O)CN1C(=O)CNC(=O)c1ccc2cc(F)ccc2n1)c1ccc(Cl)cc1

>  <score_type>  (3) 
oracle

>  <origin>  (3) 
autodockgpu

>  <m_score__min__energy>  (3) 
-9.9100000000000001

>  <m_primary>  (3) 
energy

>  <meeko>  (3) 
{"free_energy": -7.49, "intermolecular_energy": -9.88, "internal_energy": -4.27, "cluster_size": 15, "cluster_id": 4, "rank_in_cluster": 3}

>  <energy>  (3) 
-8.63

>  <cluster_rmsd>  (3) 
0.0

>  <rmsd>  (3) 
270.62

>  <cluster>  (3) 
2

$$$$
JDBMCWJIJNWNRF-OEQCPPMUNA-N
     RDKit          3D

 59 62  0  0  0  0  0  0  0  0999 V2000
  141.2100   75.3490  221.1510 C   0  0  0  0  0  0  0  0  0  0  0  0
  140.6050   76.6950  220.7320 C   0  0  1  0  0  0  0  0  0  0  0  0
  139.1420   76.6380  220.8170 N   0  0  0  0  0  0  0  0  0  0  0  0
  138.4470   75.8940  221.8330 C   0  0  0  0  0  0  0  0  0  0  0  0
  139.0930   75.2800  222.7240 O   0  0  0  0  0  0  0  0  0  0  0  0
  136.9430   75.8070  221.8320 C   0  0  2  0  0  0  0  0  0  0  0  0
  136.3530   76.5070  223.0590 C   0  0  0  0  0  0  0  0  0  0  0  0
  135.9750   75.3830  224.0310 C   0  0  1  0  0  0  0  0  0  0  0  0
  134.8220   75.6850  224.7760 O   0  0  0  0  0  0  0  0  0  0  0  0
  135.8040   74.1320  223.1710 C   0  0  0  0  0  0  0  0  0  0  0  0
  136.4890   74.4200  221.9190 N   0  0  0  0  0  0  0  0  0  0  0  0
  136.6230   73.4290  220.8790 C   0  0  0  0  0  0  0  0  0  0  0  0
  135.6810   73.2650  220.0540 O   0  0  0  0  0  0  0  0  0  0  0  0
  137.8470   72.5610  220.7500 C   0  0  0  0  0  0  0  0  0  0  0  0
  138.4400   72.3000  222.0580 N   0  0  0  0  0  0  0  0  0  0  0  0
  138.6450   70.9680  222.5550 C   0  0  0  0  0  0  0  0  0  0  0  0
  138.2510   69.9790  221.8780 O   0  0  0  0  0  0  0  0  0  0  0  0
  139.3140   70.7490  223.8560 C   0  0  0  0  0  0  0  0  0  0  0  0
  140.0870   71.7620  224.4520 C   0  0  0  0  0  0  0  0  0  0  0  0
  140.7120   71.5270  225.6790 C   0  0  0  0  0  0  0  0  0  0  0  0
  140.5630   70.2870  226.3100 C   0  0  0  0  0  0  0  0  0  0  0  0
  141.1790   70.0150  227.5430 C   0  0  0  0  0  0  0  0  0  0  0  0
  141.0090   68.7640  228.1480 C   0  0  0  0  0  0  0  0  0  0  0  0
  141.6080   68.4990  229.3360 F   0  0  0  0  0  0  0  0  0  0  0  0
  140.2250   67.7830  227.5280 C   0  0  0  0  0  0  0  0  0  0  0  0
  139.6080   68.0470  226.3000 C   0  0  0  0  0  0  0  0  0  0  0  0
  139.7750   69.2940  225.6870 C   0  0  0  0  0  0  0  0  0  0  0  0
  139.1810   69.5520  224.4900 N   0  0  0  0  0  0  0  0  0  0  0  0
  141.1250   77.8280  221.5930 C   0  0  0  0  0  0  0  0  0  0  0  0
  141.6770   78.9870  221.0110 C   0  0  0  0  0  0  0  0  0  0  0  0
  142.1550   80.0260  221.8160 C   0  0  0  0  0  0  0  0  0  0  0  0
  142.0950   79.9150  223.2090 C   0  0  0  0  0  0  0  0  0  0  0  0
  142.6880   81.2200  224.2190 Cl  0  0  0  0  0  0  0  0  0  0  0  0
  141.5610   78.7650  223.7980 C   0  0  0  0  0  0  0  0  0  0  0  0
  141.0780   77.7260  222.9950 C   0  0  0  0  0  0  0  0  0  0  0  0
  141.2385   75.2857  222.2488 H   0  0  0  0  0  0  0  0  0  0  0  0
  140.5935   74.5299  220.7523 H   0  0  0  0  0  0  0  0  0  0  0  0
  142.2319   75.2663  220.7523 H   0  0  0  0  0  0  0  0  0  0  0  0
  140.9056   76.8898  219.6920 H   0  0  0  0  0  0  0  0  0  0  0  0
  138.5860   77.1180  220.0740 H   0  0  0  0  0  0  0  0  0  0  0  0
  136.6139   76.2789  220.8944 H   0  0  0  0  0  0  0  0  0  0  0  0
  137.0980   77.1753  223.5154 H   0  0  0  0  0  0  0  0  0  0  0  0
  135.4838   77.1276  222.7956 H   0  0  0  0  0  0  0  0  0  0  0  0
  136.7565   75.2359  224.7910 H   0  0  0  0  0  0  0  0  0  0  0  0
  134.0910   75.0840  224.4670 H   0  0  0  0  0  0  0  0  0  0  0  0
  136.2586   73.2610  223.6657 H   0  0  0  0  0  0  0  0  0  0  0  0
  134.7428   73.8923  223.0082 H   0  0  0  0  0  0  0  0  0  0  0  0
  137.5633   71.6049  220.2858 H   0  0  0  0  0  0  0  0  0  0  0  0
  138.5863   73.0858  220.1271 H   0  0  0  0  0  0  0  0  0  0  0  0
  138.6720   73.1190  222.6630 H   0  0  0  0  0  0  0  0  0  0  0  0
  140.1990   72.7361  223.9534 H   0  0  0  0  0  0  0  0  0  0  0  0
  141.3198   72.3148  226.1480 H   0  0  0  0  0  0  0  0  0  0  0  0
  141.7943   70.7842  228.0326 H   0  0  0  0  0  0  0  0  0  0  0  0
  140.0938   66.8019  228.0078 H   0  0  0  0  0  0  0  0  0  0  0  0
  138.9919   67.2745  225.8166 H   0  0  0  0  0  0  0  0  0  0  0  0
  141.7322   79.0749  219.9159 H   0  0  0  0  0  0  0  0  0  0  0  0
  142.5780   80.9301  221.3538 H   0  0  0  0  0  0  0  0  0  0  0  0
  141.5205   78.6769  224.8937 H   0  0  0  0  0  0  0  0  0  0  0  0
  140.6587   76.8233  223.4633 H   0  0  0  0  0  0  0  0  0  0  0  0
  1  2  1  0
  2  3  1  0
  3  4  1  0
  4  5  2  0
  4  6  1  0
  6  7  1  0
  7  8  1  0
  8  9  1  0
  8 10  1  0
 10 11  1  0
 11 12  1  0
 12 13  2  0
 12 14  1  0
 14 15  1  0
 15 16  1  0
 16 17  2  0
 16 18  1  0
 18 19  2  0
 19 20  1  0
 20 21  2  0
 21 22  1  0
 22 23  2  0
 23 24  1  0
 23 25  1  0
 25 26  2  0
 26 27  1  0
 27 28  2  0
  2 29  1  0
 29 30  2  0
 30 31  1  0
 31 32  2  0
 32 33  1  0
 32 34  1  0
 34 35  2  0
 11  6  1  0
 28 18  1  0
 35 29  1  0
 27 21  1  0
  1 36  1  0
  1 37  1  0
  1 38  1  0
  2 39  1  6
  3 40  1  0
  6 41  1  6
  7 42  1  0
  7 43  1  0
  8 44  1  1
  9 45  1  0
 10 46  1  0
 10 47  1  0
 14 48  1  0
 14 49  1  0
 15 50  1  0
 19 51  1  0
 20 52  1  0
 22 53  1  0
 25 54  1  0
 26 55  1  0
 30 56  1  0
 31 57  1  0
 34 58  1  0
 35 59  1  0
M  END
>  <UniqueID>  (4) 
80

>  <SMILES>  (4) 
C[C@@H](NC(=O)[C@@H]1C[C@@H](O)CN1C(=O)CNC(=O)c1ccc2cc(F)ccc2n1)c1ccc(Cl)cc1

>  <Energy>  (4) 
57.892266460593525

>  <Genealogy>  (4) 
C[C@@H](NC(=O)[C@@H]1C[C@@H](O)CN1C(=O)CNC(=O)c1ccc2cc(F)ccc2n1)c1ccc(Cl)cc1 (3D coordinates assigned)
C[C@@H](NC(=O)[C@@H]1C[C@@H](O)CN1C(=O)CNC(=O)c1ccc2cc(F)ccc2n1)c1ccc(Cl)cc1 (nonaromatic ring conformer: 57.892266460593525 kcal/mol)

>  <smiles>  (4) 
C[C@@H](NC(=O)[C@@H]1C[C@@H](O)CN1C(=O)CNC(=O)c1ccc2cc(F)ccc2n1)c1ccc(Cl)cc1

>  <score_type>  (4) 
oracle

>  <origin>  (4) 
autodockgpu

>  <m_score__min__energy>  (4) 
-9.9100000000000001

>  <m_primary>  (4) 
energy

>  <meeko>  (4) 
{"free_energy": -8.25, "intermolecular_energy": -10.64, "internal_energy": -2.37, "cluster_size": 1, "cluster_id": 3, "rank_in_cluster": 1}

>  <energy>  (4) 
-8.25

>  <cluster_rmsd>  (4) 
0.0

>  <rmsd>  (4) 
270.43

>  <cluster>  (4) 
3

$$$$
JDBMCWJIJNWNRF-OEQCPPMUNA-N
     RDKit          3D

 59 62  0  0  0  0  0  0  0  0999 V2000
  142.4730   76.7980  216.6780 C   0  0  0  0  0  0  0  0  0  0  0  0
  141.4180   76.7230  217.7890 C   0  0  1  0  0  0  0  0  0  0  0  0
  141.7730   75.6780  218.7530 N   0  0  0  0  0  0  0  0  0  0  0  0
  143.0210   75.6650  219.4680 C   0  0  0  0  0  0  0  0  0  0  0  0
  143.8540   76.5970  219.3070 O   0  0  0  0  0  0  0  0  0  0  0  0
  143.3700   74.5270  220.3920 C   0  0  2  0  0  0  0  0  0  0  0  0
  144.8790   74.2720  220.4010 C   0  0  0  0  0  0  0  0  0  0  0  0
  145.0920   73.0350  219.5210 C   0  0  1  0  0  0  0  0  0  0  0  0
  146.1490   72.2280  219.9760 O   0  0  0  0  0  0  0  0  0  0  0  0
  143.7540   72.2970  219.5130 C   0  0  0  0  0  0  0  0  0  0  0  0
  142.7650   73.2740  219.9460 N   0  0  0  0  0  0  0  0  0  0  0  0
  141.3550   72.9680  219.9770 C   0  0  0  0  0  0  0  0  0  0  0  0
  140.7800   72.5890  218.9190 O   0  0  0  0  0  0  0  0  0  0  0  0
  140.5330   73.1030  221.2310 C   0  0  0  0  0  0  0  0  0  0  0  0
  140.7020   74.4240  221.8260 N   0  0  0  0  0  0  0  0  0  0  0  0
  140.0930   75.6010  221.2710 C   0  0  0  0  0  0  0  0  0  0  0  0
  139.4320   75.5170  220.2000 O   0  0  0  0  0  0  0  0  0  0  0  0
  140.2340   76.9080  221.9480 C   0  0  0  0  0  0  0  0  0  0  0  0
  139.1160   77.5690  222.4870 C   0  0  0  0  0  0  0  0  0  0  0  0
  139.2780   78.8050  223.1190 C   0  0  0  0  0  0  0  0  0  0  0  0
  140.5520   79.3770  223.2150 C   0  0  0  0  0  0  0  0  0  0  0  0
  140.7520   80.6180  223.8400 C   0  0  0  0  0  0  0  0  0  0  0  0
  142.0390   81.1610  223.9200 C   0  0  0  0  0  0  0  0  0  0  0  0
  142.2320   82.3630  224.5190 F   0  0  0  0  0  0  0  0  0  0  0  0
  143.1300   80.4690  223.3790 C   0  0  0  0  0  0  0  0  0  0  0  0
  142.9390   79.2310  222.7550 C   0  0  0  0  0  0  0  0  0  0  0  0
  141.6550   78.6820  222.6680 C   0  0  0  0  0  0  0  0  0  0  0  0
  141.4640   77.4810  222.0570 N   0  0  0  0  0  0  0  0  0  0  0  0
  141.2730   78.0520  218.5030 C   0  0  0  0  0  0  0  0  0  0  0  0
  142.3590   78.9440  218.6040 C   0  0  0  0  0  0  0  0  0  0  0  0
  142.2140   80.1670  219.2660 C   0  0  0  0  0  0  0  0  0  0  0  0
  140.9860   80.5080  219.8440 C   0  0  0  0  0  0  0  0  0  0  0  0
  140.8010   82.0440  220.6690 Cl  0  0  0  0  0  0  0  0  0  0  0  0
  139.9050   79.6250  219.7620 C   0  0  0  0  0  0  0  0  0  0  0  0
  140.0460   78.4030  219.0950 C   0  0  0  0  0  0  0  0  0  0  0  0
  143.4744   76.8692  217.1275 H   0  0  0  0  0  0  0  0  0  0  0  0
  142.4143   75.8934  216.0549 H   0  0  0  0  0  0  0  0  0  0  0  0
  142.2869   77.6852  216.0549 H   0  0  0  0  0  0  0  0  0  0  0  0
  140.4533   76.4771  217.3211 H   0  0  0  0  0  0  0  0  0  0  0  0
  141.1100   74.8820  218.8830 H   0  0  0  0  0  0  0  0  0  0  0  0
  142.9995   74.8198  221.3855 H   0  0  0  0  0  0  0  0  0  0  0  0
  145.4172   75.1366  219.9852 H   0  0  0  0  0  0  0  0  0  0  0  0
  145.2600   74.1169  221.4212 H   0  0  0  0  0  0  0  0  0  0  0  0
  145.3918   73.3207  218.5019 H   0  0  0  0  0  0  0  0  0  0  0  0
  145.9150   71.9020  220.8870 H   0  0  0  0  0  0  0  0  0  0  0  0
  143.5202   71.9370  218.5002 H   0  0  0  0  0  0  0  0  0  0  0  0
  143.7712   71.4161  220.1716 H   0  0  0  0  0  0  0  0  0  0  0  0
  139.4718   72.9528  220.9836 H   0  0  0  0  0  0  0  0  0  0  0  0
  140.8703   72.3464  221.9548 H   0  0  0  0  0  0  0  0  0  0  0  0
  141.3330   74.5110  222.6550 H   0  0  0  0  0  0  0  0  0  0  0  0
  138.1170   77.1147  222.4115 H   0  0  0  0  0  0  0  0  0  0  0  0
  138.4062   79.3272  223.5401 H   0  0  0  0  0  0  0  0  0  0  0  0
  139.8972   81.1633  224.2667 H   0  0  0  0  0  0  0  0  0  0  0  0
  144.1400   80.8999  223.4448 H   0  0  0  0  0  0  0  0  0  0  0  0
  143.7984   78.6895  222.3329 H   0  0  0  0  0  0  0  0  0  0  0  0
  143.3284   78.6761  218.1586 H   0  0  0  0  0  0  0  0  0  0  0  0
  143.0649   80.8609  219.3325 H   0  0  0  0  0  0  0  0  0  0  0  0
  138.9422   79.8914  220.2225 H   0  0  0  0  0  0  0  0  0  0  0  0
  139.1920   77.7124  219.0332 H   0  0  0  0  0  0  0  0  0  0  0  0
  1  2  1  0
  2  3  1  0
  3  4  1  0
  4  5  2  0
  4  6  1  0
  6  7  1  0
  7  8  1  0
  8  9  1  0
  8 10  1  0
 10 11  1  0
 11 12  1  0
 12 13  2  0
 12 14  1  0
 14 15  1  0
 15 16  1  0
 16 17  2  0
 16 18  1  0
 18 19  2  0
 19 20  1  0
 20 21  2  0
 21 22  1  0
 22 23  2  0
 23 24  1  0
 23 25  1  0
 25 26  2  0
 26 27  1  0
 27 28  2  0
  2 29  1  0
 29 30  2  0
 30 31  1  0
 31 32  2  0
 32 33  1  0
 32 34  1  0
 34 35  2  0
 11  6  1  0
 28 18  1  0
 35 29  1  0
 27 21  1  0
  1 36  1  0
  1 37  1  0
  1 38  1  0
  2 39  1  6
  3 40  1  0
  6 41  1  1
  7 42  1  0
  7 43  1  0
  8 44  1  6
  9 45  1  0
 10 46  1  0
 10 47  1  0
 14 48  1  0
 14 49  1  0
 15 50  1  0
 19 51  1  0
 20 52  1  0
 22 53  1  0
 25 54  1  0
 26 55  1  0
 30 56  1  0
 31 57  1  0
 34 58  1  0
 35 59  1  0
M  END
>  <UniqueID>  (5) 
80

>  <SMILES>  (5) 
C[C@@H](NC(=O)[C@@H]1C[C@@H](O)CN1C(=O)CNC(=O)c1ccc2cc(F)ccc2n1)c1ccc(Cl)cc1

>  <Energy>  (5) 
57.892266460593525

>  <Genealogy>  (5) 
C[C@@H](NC(=O)[C@@H]1C[C@@H](O)CN1C(=O)CNC(=O)c1ccc2cc(F)ccc2n1)c1ccc(Cl)cc1 (3D coordinates assigned)
C[C@@H](NC(=O)[C@@H]1C[C@@H](O)CN1C(=O)CNC(=O)c1ccc2cc(F)ccc2n1)c1ccc(Cl)cc1 (nonaromatic ring conformer: 57.892266460593525 kcal/mol)

>  <smiles>  (5) 
C[C@@H](NC(=O)[C@@H]1C[C@@H](O)CN1C(=O)CNC(=O)c1ccc2cc(F)ccc2n1)c1ccc(Cl)cc1

>  <score_type>  (5) 
oracle

>  <origin>  (5) 
autodockgpu

>  <m_score__min__energy>  (5) 
-9.9100000000000001

>  <m_primary>  (5) 
energy

>  <meeko>  (5) 
{"free_energy": -6.68, "intermolecular_energy": -9.06, "internal_energy": -5.02, "cluster_size": 15, "cluster_id": 4, "rank_in_cluster": 14}

>  <energy>  (5) 
-7.55

>  <cluster_rmsd>  (5) 
0.0

>  <rmsd>  (5) 
270.65

>  <cluster>  (5) 
4

$$$$
JDBMCWJIJNWNRF-OEQCPPMUNA-N
     RDKit          3D

 59 62  0  0  0  0  0  0  0  0999 V2000
  142.9530   78.0830  217.6260 C   0  0  0  0  0  0  0  0  0  0  0  0
  141.8440   77.7370  218.6270 C   0  0  1  0  0  0  0  0  0  0  0  0
  142.3540   76.8130  219.6450 N   0  0  0  0  0  0  0  0  0  0  0  0
  142.8220   75.4890  219.3340 C   0  0  0  0  0  0  0  0  0  0  0  0
  142.8390   75.0860  218.1400 O   0  0  0  0  0  0  0  0  0  0  0  0
  143.2670   74.5510  220.4260 C   0  0  2  0  0  0  0  0  0  0  0  0
  144.7930   74.4360  220.4610 C   0  0  0  0  0  0  0  0  0  0  0  0
  145.1190   73.0970  219.7890 C   0  0  1  0  0  0  0  0  0  0  0  0
  146.2420   72.4710  220.3580 O   0  0  0  0  0  0  0  0  0  0  0  0
  143.8530   72.2520  219.9140 C   0  0  0  0  0  0  0  0  0  0  0  0
  142.7790   73.1930  220.1940 N   0  0  0  0  0  0  0  0  0  0  0  0
  141.4010   72.7720  220.2890 C   0  0  0  0  0  0  0  0  0  0  0  0
  140.8830   72.1300  219.3340 O   0  0  0  0  0  0  0  0  0  0  0  0
  140.5460   73.0900  221.4860 C   0  0  0  0  0  0  0  0  0  0  0  0
  140.7600   74.4640  221.9300 N   0  0  0  0  0  0  0  0  0  0  0  0
  139.7400   75.4710  221.8310 C   0  0  0  0  0  0  0  0  0  0  0  0
  138.6350   75.1910  221.2910 O   0  0  0  0  0  0  0  0  0  0  0  0
  139.9780   76.8320  222.3580 C   0  0  0  0  0  0  0  0  0  0  0  0
  138.9130   77.6250  222.8230 C   0  0  0  0  0  0  0  0  0  0  0  0
  139.1670   78.9090  223.3130 C   0  0  0  0  0  0  0  0  0  0  0  0
  140.4780   79.3980  223.3410 C   0  0  0  0  0  0  0  0  0  0  0  0
  140.7680   80.6840  223.8240 C   0  0  0  0  0  0  0  0  0  0  0  0
  142.0910   81.1420  223.8390 C   0  0  0  0  0  0  0  0  0  0  0  0
  142.3720   82.3860  224.3010 F   0  0  0  0  0  0  0  0  0  0  0  0
  143.1260   80.3200  223.3760 C   0  0  0  0  0  0  0  0  0  0  0  0
  142.8440   79.0370  222.8940 C   0  0  0  0  0  0  0  0  0  0  0  0
  141.5240   78.5720  222.8730 C   0  0  0  0  0  0  0  0  0  0  0  0
  141.2450   77.3270  222.3990 N   0  0  0  0  0  0  0  0  0  0  0  0
  141.2940   78.9810  219.2940 C   0  0  0  0  0  0  0  0  0  0  0  0
  142.1360   80.0650  219.6160 C   0  0  0  0  0  0  0  0  0  0  0  0
  141.6170   81.2080  220.2320 C   0  0  0  0  0  0  0  0  0  0  0  0
  140.2550   81.2780  220.5420 C   0  0  0  0  0  0  0  0  0  0  0  0
  139.6020   82.7130  221.3090 Cl  0  0  0  0  0  0  0  0  0  0  0  0
  139.4120   80.2040  220.2400 C   0  0  0  0  0  0  0  0  0  0  0  0
  139.9270   79.0610  219.6190 C   0  0  0  0  0  0  0  0  0  0  0  0
  143.8644   78.3674  218.1723 H   0  0  0  0  0  0  0  0  0  0  0  0
  143.1625   77.2075  216.9938 H   0  0  0  0  0  0  0  0  0  0  0  0
  142.6276   78.9223  216.9938 H   0  0  0  0  0  0  0  0  0  0  0  0
  141.0263   77.2557  218.0705 H   0  0  0  0  0  0  0  0  0  0  0  0
  142.3260   77.1160  220.6440 H   0  0  0  0  0  0  0  0  0  0  0  0
  142.8668   74.9665  221.3626 H   0  0  0  0  0  0  0  0  0  0  0  0
  145.2538   75.2666  219.9063 H   0  0  0  0  0  0  0  0  0  0  0  0
  145.1820   74.4818  221.4889 H   0  0  0  0  0  0  0  0  0  0  0  0
  145.3960   73.2398  218.7341 H   0  0  0  0  0  0  0  0  0  0  0  0
  145.9630   72.0690  221.2250 H   0  0  0  0  0  0  0  0  0  0  0  0
  143.6566   71.7138  218.9750 H   0  0  0  0  0  0  0  0  0  0  0  0
  143.9465   71.4944  220.7061 H   0  0  0  0  0  0  0  0  0  0  0  0
  139.4874   72.9593  221.2171 H   0  0  0  0  0  0  0  0  0  0  0  0
  140.8217   72.4095  222.3051 H   0  0  0  0  0  0  0  0  0  0  0  0
  141.7090   74.7230  222.2820 H   0  0  0  0  0  0  0  0  0  0  0  0
  137.8843   77.2359  222.8010 H   0  0  0  0  0  0  0  0  0  0  0  0
  138.3379   79.5342  223.6760 H   0  0  0  0  0  0  0  0  0  0  0  0
  139.9570   81.3308  224.1901 H   0  0  0  0  0  0  0  0  0  0  0  0
  144.1639   80.6841  223.3913 H   0  0  0  0  0  0  0  0  0  0  0  0
  143.6596   78.3939  222.5316 H   0  0  0  0  0  0  0  0  0  0  0  0
  143.2092   80.0112  219.3809 H   0  0  0  0  0  0  0  0  0  0  0  0
  142.2800   82.0521  220.4728 H   0  0  0  0  0  0  0  0  0  0  0  0
  138.3424   80.2579  220.4911 H   0  0  0  0  0  0  0  0  0  0  0  0
  139.2591   78.2194  219.3832 H   0  0  0  0  0  0  0  0  0  0  0  0
  1  2  1  0
  2  3  1  0
  3  4  1  0
  4  5  2  0
  4  6  1  0
  6  7  1  0
  7  8  1  0
  8  9  1  0
  8 10  1  0
 10 11  1  0
 11 12  1  0
 12 13  2  0
 12 14  1  0
 14 15  1  0
 15 16  1  0
 16 17  2  0
 16 18  1  0
 18 19  2  0
 19 20  1  0
 20 21  2  0
 21 22  1  0
 22 23  2  0
 23 24  1  0
 23 25  1  0
 25 26  2  0
 26 27  1  0
 27 28  2  0
  2 29  1  0
 29 30  2  0
 30 31  1  0
 31 32  2  0
 32 33  1  0
 32 34  1  0
 34 35  2  0
 11  6  1  0
 28 18  1  0
 35 29  1  0
 27 21  1  0
  1 36  1  0
  1 37  1  0
  1 38  1  0
  2 39  1  6
  3 40  1  0
  6 41  1  1
  7 42  1  0
  7 43  1  0
  8 44  1  6
  9 45  1  0
 10 46  1  0
 10 47  1  0
 14 48  1  0
 14 49  1  0
 15 50  1  0
 19 51  1  0
 20 52  1  0
 22 53  1  0
 25 54  1  0
 26 55  1  0
 30 56  1  0
 31 57  1  0
 34 58  1  0
 35 59  1  0
M  END
>  <UniqueID>  (6) 
80

>  <SMILES>  (6) 
C[C@@H](NC(=O)[C@@H]1C[C@@H](O)CN1C(=O)CNC(=O)c1ccc2cc(F)ccc2n1)c1ccc(Cl)cc1

>  <Energy>  (6) 
57.892266460593525

>  <Genealogy>  (6) 
C[C@@H](NC(=O)[C@@H]1C[C@@H](O)CN1C(=O)CNC(=O)c1ccc2cc(F)ccc2n1)c1ccc(Cl)cc1 (3D coordinates assigned)
C[C@@H](NC(=O)[C@@H]1C[C@@H](O)CN1C(=O)CNC(=O)c1ccc2cc(F)ccc2n1)c1ccc(Cl)cc1 (nonaromatic ring conformer: 57.892266460593525 kcal/mol)

>  <smiles>  (6) 
C[C@@H](NC(=O)[C@@H]1C[C@@H](O)CN1C(=O)CNC(=O)c1ccc2cc(F)ccc2n1)c1ccc(Cl)cc1

>  <score_type>  (6) 
oracle

>  <origin>  (6) 
autodockgpu

>  <m_score__min__energy>  (6) 
-9.9100000000000001

>  <m_primary>  (6) 
energy

>  <meeko>  (6) 
{"free_energy": -7.25, "intermolecular_energy": -9.64, "internal_energy": -4.52, "cluster_size": 15, "cluster_id": 4, "rank_in_cluster": 11}

>  <energy>  (6) 
-7.49

>  <cluster_rmsd>  (6) 
1.16

>  <rmsd>  (6) 
270.66

>  <cluster>  (6) 
4

$$$$
JDBMCWJIJNWNRF-OEQCPPMUNA-N
     RDKit          3D

 59 62  0  0  0  0  0  0  0  0999 V2000
  143.5350   77.0240  216.3470 C   0  0  0  0  0  0  0  0  0  0  0  0
  142.2510   76.8020  217.1560 C   0  0  1  0  0  0  0  0  0  0  0  0
  142.3670   75.5830  217.9620 N   0  0  0  0  0  0  0  0  0  0  0  0
  143.1720   75.5070  219.1510 C   0  0  0  0  0  0  0  0  0  0  0  0
  143.7900   76.5220  219.5660 O   0  0  0  0  0  0  0  0  0  0  0  0
  143.3170   74.2080  219.9030 C   0  0  2  0  0  0  0  0  0  0  0  0
  144.7490   74.0270  220.4120 C   0  0  0  0  0  0  0  0  0  0  0  0
  145.4040   73.0300  219.4500 C   0  0  1  0  0  0  0  0  0  0  0  0
  146.3290   72.1920  220.0960 O   0  0  0  0  0  0  0  0  0  0  0  0
  144.2540   72.2510  218.8140 C   0  0  0  0  0  0  0  0  0  0  0  0
  143.0640   73.0590  219.0350 N   0  0  0  0  0  0  0  0  0  0  0  0
  141.7790   72.6890  218.4910 C   0  0  0  0  0  0  0  0  0  0  0  0
  141.6460   72.5770  217.2400 O   0  0  0  0  0  0  0  0  0  0  0  0
  140.5770   72.4480  219.3640 C   0  0  0  0  0  0  0  0  0  0  0  0
  140.0830   73.7010  219.9270 N   0  0  0  0  0  0  0  0  0  0  0  0
  140.3740   74.1050  221.2750 C   0  0  0  0  0  0  0  0  0  0  0  0
  141.0300   73.3360  222.0300 O   0  0  0  0  0  0  0  0  0  0  0  0
  139.9120   75.4150  221.7800 C   0  0  0  0  0  0  0  0  0  0  0  0
  138.5440   75.7450  221.7920 C   0  0  0  0  0  0  0  0  0  0  0  0
  138.1350   76.9920  222.2710 C   0  0  0  0  0  0  0  0  0  0  0  0
  139.0870   77.9050  222.7400 C   0  0  0  0  0  0  0  0  0  0  0  0
  138.7110   79.1680  223.2260 C   0  0  0  0  0  0  0  0  0  0  0  0
  139.6890   80.0570  223.6880 C   0  0  0  0  0  0  0  0  0  0  0  0
  139.3280   81.2790  224.1540 F   0  0  0  0  0  0  0  0  0  0  0  0
  141.0400   79.6890  223.6690 C   0  0  0  0  0  0  0  0  0  0  0  0
  141.4210   78.4320  223.1860 C   0  0  0  0  0  0  0  0  0  0  0  0
  140.4510   77.5390  222.7200 C   0  0  0  0  0  0  0  0  0  0  0  0
  140.8180   76.3180  222.2440 N   0  0  0  0  0  0  0  0  0  0  0  0
  141.9530   77.9850  218.0550 C   0  0  0  0  0  0  0  0  0  0  0  0
  140.9450   77.9140  219.0370 C   0  0  0  0  0  0  0  0  0  0  0  0
  140.6790   79.0110  219.8610 C   0  0  0  0  0  0  0  0  0  0  0  0
  141.4080   80.1950  219.7070 C   0  0  0  0  0  0  0  0  0  0  0  0
  141.0790   81.5700  220.7440 Cl  0  0  0  0  0  0  0  0  0  0  0  0
  142.4020   80.2820  218.7270 C   0  0  0  0  0  0  0  0  0  0  0  0
  142.6750   79.1840  217.9050 C   0  0  0  0  0  0  0  0  0  0  0  0
  144.3810   77.1703  217.0347 H   0  0  0  0  0  0  0  0  0  0  0  0
  143.7255   76.1455  215.7131 H   0  0  0  0  0  0  0  0  0  0  0  0
  143.4194   77.9155  215.7131 H   0  0  0  0  0  0  0  0  0  0  0  0
  141.4192   76.6935  216.4445 H   0  0  0  0  0  0  0  0  0  0  0  0
  141.8840   74.7210  217.6230 H   0  0  0  0  0  0  0  0  0  0  0  0
  142.5923   74.2544  220.7292 H   0  0  0  0  0  0  0  0  0  0  0  0
  145.2867   74.9865  220.3957 H   0  0  0  0  0  0  0  0  0  0  0  0
  144.7697   73.6649  221.4505 H   0  0  0  0  0  0  0  0  0  0  0  0
  145.9993   73.5496  218.6847 H   0  0  0  0  0  0  0  0  0  0  0  0
  145.9040   71.8500  220.9280 H   0  0  0  0  0  0  0  0  0  0  0  0
  144.4315   72.1155  217.7369 H   0  0  0  0  0  0  0  0  0  0  0  0
  144.1513   71.2472  219.2520 H   0  0  0  0  0  0  0  0  0  0  0  0
  139.7813   71.9852  218.7617 H   0  0  0  0  0  0  0  0  0  0  0  0
  140.8698   71.7827  220.1897 H   0  0  0  0  0  0  0  0  0  0  0  0
  139.4540   74.2890  219.3360 H   0  0  0  0  0  0  0  0  0  0  0  0
  137.7991   75.0234  221.4254 H   0  0  0  0  0  0  0  0  0  0  0  0
  137.0672   77.2559  222.2796 H   0  0  0  0  0  0  0  0  0  0  0  0
  137.6501   79.4582  223.2436 H   0  0  0  0  0  0  0  0  0  0  0  0
  141.8043   80.3903  224.0350 H   0  0  0  0  0  0  0  0  0  0  0  0
  142.4832   78.1465  223.1729 H   0  0  0  0  0  0  0  0  0  0  0  0
  140.3631   76.9881  219.1560 H   0  0  0  0  0  0  0  0  0  0  0  0
  139.8962   78.9434  220.6308 H   0  0  0  0  0  0  0  0  0  0  0  0
  142.9701   81.2157  218.6025 H   0  0  0  0  0  0  0  0  0  0  0  0
  143.4587   79.2578  217.1366 H   0  0  0  0  0  0  0  0  0  0  0  0
  1  2  1  0
  2  3  1  0
  3  4  1  0
  4  5  2  0
  4  6  1  0
  6  7  1  0
  7  8  1  0
  8  9  1  0
  8 10  1  0
 10 11  1  0
 11 12  1  0
 12 13  2  0
 12 14  1  0
 14 15  1  0
 15 16  1  0
 16 17  2  0
 16 18  1  0
 18 19  2  0
 19 20  1  0
 20 21  2  0
 21 22  1  0
 22 23  2  0
 23 24  1  0
 23 25  1  0
 25 26  2  0
 26 27  1  0
 27 28  2  0
  2 29  1  0
 29 30  2  0
 30 31  1  0
 31 32  2  0
 32 33  1  0
 32 34  1  0
 34 35  2  0
 11  6  1  0
 28 18  1  0
 35 29  1  0
 27 21  1  0
  1 36  1  0
  1 37  1  0
  1 38  1  0
  2 39  1  6
  3 40  1  0
  6 41  1  1
  7 42  1  0
  7 43  1  0
  8 44  1  6
  9 45  1  0
 10 46  1  0
 10 47  1  0
 14 48  1  0
 14 49  1  0
 15 50  1  0
 19 51  1  0
 20 52  1  0
 22 53  1  0
 25 54  1  0
 26 55  1  0
 30 56  1  0
 31 57  1  0
 34 58  1  0
 35 59  1  0
M  END
>  <UniqueID>  (7) 
80

>  <SMILES>  (7) 
C[C@@H](NC(=O)[C@@H]1C[C@@H](O)CN1C(=O)CNC(=O)c1ccc2cc(F)ccc2n1)c1ccc(Cl)cc1

>  <Energy>  (7) 
57.892266460593525

>  <Genealogy>  (7) 
C[C@@H](NC(=O)[C@@H]1C[C@@H](O)CN1C(=O)CNC(=O)c1ccc2cc(F)ccc2n1)c1ccc(Cl)cc1 (3D coordinates assigned)
C[C@@H](NC(=O)[C@@H]1C[C@@H](O)CN1C(=O)CNC(=O)c1ccc2cc(F)ccc2n1)c1ccc(Cl)cc1 (nonaromatic ring conformer: 57.892266460593525 kcal/mol)

>  <smiles>  (7) 
C[C@@H](NC(=O)[C@@H]1C[C@@H](O)CN1C(=O)CNC(=O)c1ccc2cc(F)ccc2n1)c1ccc(Cl)cc1

>  <score_type>  (7) 
oracle

>  <origin>  (7) 
autodockgpu

>  <m_score__min__energy>  (7) 
-9.9100000000000001

>  <m_primary>  (7) 
energy

>  <meeko>  (7) 
{"free_energy": -6.94, "intermolecular_energy": -9.33, "internal_energy": -3.94, "cluster_size": 15, "cluster_id": 4, "rank_in_cluster": 12}

>  <energy>  (7) 
-7.49

>  <cluster_rmsd>  (7) 
1.15

>  <rmsd>  (7) 
270.64

>  <cluster>  (7) 
4

$$$$
JDBMCWJIJNWNRF-OEQCPPMUNA-N
     RDKit          3D

 59 62  0  0  0  0  0  0  0  0999 V2000
  138.0320   76.8260  221.0330 C   0  0  0  0  0  0  0  0  0  0  0  0
  139.3460   76.3970  221.6980 C   0  0  1  0  0  0  0  0  0  0  0  0
  140.1800   75.6650  220.7410 N   0  0  0  0  0  0  0  0  0  0  0  0
  140.8550   74.4380  221.0720 C   0  0  0  0  0  0  0  0  0  0  0  0
  140.7180   73.9260  222.2150 O   0  0  0  0  0  0  0  0  0  0  0  0
  141.7610   73.7630  220.0750 C   0  0  2  0  0  0  0  0  0  0  0  0
  142.7110   72.7860  220.7720 C   0  0  0  0  0  0  0  0  0  0  0  0
  144.0620   73.5060  220.8430 C   0  0  1  0  0  0  0  0  0  0  0  0
  145.1480   72.6230  220.7150 O   0  0  0  0  0  0  0  0  0  0  0  0
  144.0300   74.5570  219.7340 C   0  0  0  0  0  0  0  0  0  0  0  0
  142.6240   74.7300  219.3980 N   0  0  0  0  0  0  0  0  0  0  0  0
  142.1850   75.7190  218.4440 C   0  0  0  0  0  0  0  0  0  0  0  0
  141.0440   75.6050  217.9150 O   0  0  0  0  0  0  0  0  0  0  0  0
  143.0510   76.8810  218.0370 C   0  0  0  0  0  0  0  0  0  0  0  0
  142.6350   78.1050  218.7150 N   0  0  0  0  0  0  0  0  0  0  0  0
  141.3240   78.6690  218.5450 C   0  0  0  0  0  0  0  0  0  0  0  0
  140.5120   78.1340  217.7420 O   0  0  0  0  0  0  0  0  0  0  0  0
  140.9230   79.8710  219.3070 C   0  0  0  0  0  0  0  0  0  0  0  0
  141.8260   80.9280  219.5220 C   0  0  0  0  0  0  0  0  0  0  0  0
  141.4210   82.0500  220.2490 C   0  0  0  0  0  0  0  0  0  0  0  0
  140.1190   82.1190  220.7570 C   0  0  0  0  0  0  0  0  0  0  0  0
  139.6790   83.2300  221.4940 C   0  0  0  0  0  0  0  0  0  0  0  0
  138.3690   83.2670  221.9870 C   0  0  0  0  0  0  0  0  0  0  0  0
  137.9450   84.3380  222.7030 F   0  0  0  0  0  0  0  0  0  0  0  0
  137.4960   82.1990  221.7450 C   0  0  0  0  0  0  0  0  0  0  0  0
  137.9270   81.0890  221.0110 C   0  0  0  0  0  0  0  0  0  0  0  0
  139.2350   81.0420  220.5170 C   0  0  0  0  0  0  0  0  0  0  0  0
  139.6600   79.9620  219.8080 N   0  0  0  0  0  0  0  0  0  0  0  0
  140.1090   77.5920  222.2340 C   0  0  0  0  0  0  0  0  0  0  0  0
  139.4880   78.5250  223.0890 C   0  0  0  0  0  0  0  0  0  0  0  0
  140.2020   79.6230  223.5770 C   0  0  0  0  0  0  0  0  0  0  0  0
  141.5400   79.8080  223.2100 C   0  0  0  0  0  0  0  0  0  0  0  0
  142.4380   81.1820  223.8270 Cl  0  0  0  0  0  0  0  0  0  0  0  0
  142.1620   78.8960  222.3530 C   0  0  0  0  0  0  0  0  0  0  0  0
  141.4520   77.7930  221.8670 C   0  0  0  0  0  0  0  0  0  0  0  0
  137.2905   77.0681  221.8086 H   0  0  0  0  0  0  0  0  0  0  0  0
  138.2103   77.7126  220.4068 H   0  0  0  0  0  0  0  0  0  0  0  0
  137.6529   76.0050  220.4068 H   0  0  0  0  0  0  0  0  0  0  0  0
  139.0966   75.7404  222.5446 H   0  0  0  0  0  0  0  0  0  0  0  0
  140.3290   76.0830  219.7960 H   0  0  0  0  0  0  0  0  0  0  0  0
  141.0975   73.2503  219.3630 H   0  0  0  0  0  0  0  0  0  0  0  0
  142.3470   72.5517  221.7832 H   0  0  0  0  0  0  0  0  0  0  0  0
  142.7856   71.8326  220.2285 H   0  0  0  0  0  0  0  0  0  0  0  0
  144.2101   73.9740  221.8274 H   0  0  0  0  0  0  0  0  0  0  0  0
  145.3280   72.2260  221.6100 H   0  0  0  0  0  0  0  0  0  0  0  0
  144.4588   75.5050  220.0911 H   0  0  0  0  0  0  0  0  0  0  0  0
  144.6215   74.2449  218.8606 H   0  0  0  0  0  0  0  0  0  0  0  0
  144.0960   76.6608  218.3008 H   0  0  0  0  0  0  0  0  0  0  0  0
  142.9511   77.0298  216.9517 H   0  0  0  0  0  0  0  0  0  0  0  0
  143.3410   78.6050  219.3010 H   0  0  0  0  0  0  0  0  0  0  0  0
  142.8479   80.8712  219.1189 H   0  0  0  0  0  0  0  0  0  0  0  0
  142.1244   82.8779  220.4218 H   0  0  0  0  0  0  0  0  0  0  0  0
  140.3627   84.0705  221.6839 H   0  0  0  0  0  0  0  0  0  0  0  0
  136.4675   82.2332  222.1336 H   0  0  0  0  0  0  0  0  0  0  0  0
  137.2374   80.2530  220.8222 H   0  0  0  0  0  0  0  0  0  0  0  0
  138.4345   78.3880  223.3740 H   0  0  0  0  0  0  0  0  0  0  0  0
  139.7121   80.3422  224.2499 H   0  0  0  0  0  0  0  0  0  0  0  0
  143.2117   79.0458  222.0601 H   0  0  0  0  0  0  0  0  0  0  0  0
  141.9472   77.0781  221.1934 H   0  0  0  0  0  0  0  0  0  0  0  0
  1  2  1  0
  2  3  1  0
  3  4  1  0
  4  5  2  0
  4  6  1  0
  6  7  1  0
  7  8  1  0
  8  9  1  0
  8 10  1  0
 10 11  1  0
 11 12  1  0
 12 13  2  0
 12 14  1  0
 14 15  1  0
 15 16  1  0
 16 17  2  0
 16 18  1  0
 18 19  2  0
 19 20  1  0
 20 21  2  0
 21 22  1  0
 22 23  2  0
 23 24  1  0
 23 25  1  0
 25 26  2  0
 26 27  1  0
 27 28  2  0
  2 29  1  0
 29 30  2  0
 30 31  1  0
 31 32  2  0
 32 33  1  0
 32 34  1  0
 34 35  2  0
 11  6  1  0
 28 18  1  0
 35 29  1  0
 27 21  1  0
  1 36  1  0
  1 37  1  0
  1 38  1  0
  2 39  1  1
  3 40  1  0
  6 41  1  6
  7 42  1  0
  7 43  1  0
  8 44  1  1
  9 45  1  0
 10 46  1  0
 10 47  1  0
 14 48  1  0
 14 49  1  0
 15 50  1  0
 19 51  1  0
 20 52  1  0
 22 53  1  0
 25 54  1  0
 26 55  1  0
 30 56  1  0
 31 57  1  0
 34 58  1  0
 35 59  1  0
M  END
>  <UniqueID>  (8) 
80

>  <SMILES>  (8) 
C[C@@H](NC(=O)[C@@H]1C[C@@H](O)CN1C(=O)CNC(=O)c1ccc2cc(F)ccc2n1)c1ccc(Cl)cc1

>  <Energy>  (8) 
57.892266460593525

>  <Genealogy>  (8) 
C[C@@H](NC(=O)[C@@H]1C[C@@H](O)CN1C(=O)CNC(=O)c1ccc2cc(F)ccc2n1)c1ccc(Cl)cc1 (3D coordinates assigned)
C[C@@H](NC(=O)[C@@H]1C[C@@H](O)CN1C(=O)CNC(=O)c1ccc2cc(F)ccc2n1)c1ccc(Cl)cc1 (nonaromatic ring conformer: 57.892266460593525 kcal/mol)

>  <smiles>  (8) 
C[C@@H](NC(=O)[C@@H]1C[C@@H](O)CN1C(=O)CNC(=O)c1ccc2cc(F)ccc2n1)c1ccc(Cl)cc1

>  <score_type>  (8) 
oracle

>  <origin>  (8) 
autodockgpu

>  <m_score__min__energy>  (8) 
-9.9100000000000001

>  <m_primary>  (8) 
energy

>  <meeko>  (8) 
{"free_energy": -6.61, "intermolecular_energy": -9.0, "internal_energy": -4.57, "cluster_size": 15, "cluster_id": 4, "rank_in_cluster": 15}

>  <energy>  (8) 
-7.49

>  <cluster_rmsd>  (8) 
1.16

>  <rmsd>  (8) 
270.63

>  <cluster>  (8) 
4

$$$$
JDBMCWJIJNWNRF-OEQCPPMUNA-N
     RDKit          3D

 59 62  0  0  0  0  0  0  0  0999 V2000
  143.2930   76.8100  216.5750 C   0  0  0  0  0  0  0  0  0  0  0  0
  142.0810   76.6290  217.4990 C   0  0  1  0  0  0  0  0  0  0  0  0
  142.3370   75.5550  218.4620 N   0  0  0  0  0  0  0  0  0  0  0  0
  143.3220   75.6590  219.5050 C   0  0  0  0  0  0  0  0  0  0  0  0
  143.9880   76.7190  219.6460 O   0  0  0  0  0  0  0  0  0  0  0  0
  143.6000   74.4970  220.4240 C   0  0  2  0  0  0  0  0  0  0  0  0
  145.0980   74.1910  220.4840 C   0  0  0  0  0  0  0  0  0  0  0  0
  145.3020   72.9610  219.5920 C   0  0  1  0  0  0  0  0  0  0  0  0
  146.3150   72.1130  220.0730 O   0  0  0  0  0  0  0  0  0  0  0  0
  143.9420   72.2680  219.5250 C   0  0  0  0  0  0  0  0  0  0  0  0
  142.9710   73.2700  219.9370 N   0  0  0  0  0  0  0  0  0  0  0  0
  141.5510   73.0110  219.9130 C   0  0  0  0  0  0  0  0  0  0  0  0
  141.0220   72.5590  218.8590 O   0  0  0  0  0  0  0  0  0  0  0  0
  140.6660   73.2810  221.1000 C   0  0  0  0  0  0  0  0  0  0  0  0
  140.8820   74.6290  221.6160 N   0  0  0  0  0  0  0  0  0  0  0  0
  139.8640   75.6410  221.5710 C   0  0  0  0  0  0  0  0  0  0  0  0
  138.7580   75.3920  221.0180 O   0  0  0  0  0  0  0  0  0  0  0  0
  140.1040   76.9720  222.1700 C   0  0  0  0  0  0  0  0  0  0  0  0
  139.0480   77.7200  222.7210 C   0  0  0  0  0  0  0  0  0  0  0  0
  139.3030   78.9760  223.2770 C   0  0  0  0  0  0  0  0  0  0  0  0
  140.6080   79.4820  223.2860 C   0  0  0  0  0  0  0  0  0  0  0  0
  140.9000   80.7420  223.8340 C   0  0  0  0  0  0  0  0  0  0  0  0
  142.2160   81.2180  223.8280 C   0  0  0  0  0  0  0  0  0  0  0  0
  142.4980   82.4360  224.3530 F   0  0  0  0  0  0  0  0  0  0  0  0
  143.2430   80.4400  223.2790 C   0  0  0  0  0  0  0  0  0  0  0  0
  142.9600   79.1840  222.7310 C   0  0  0  0  0  0  0  0  0  0  0  0
  141.6460   78.7020  222.7310 C   0  0  0  0  0  0  0  0  0  0  0  0
  141.3660   77.4830  222.1940 N   0  0  0  0  0  0  0  0  0  0  0  0
  141.7530   77.9120  218.2360 C   0  0  0  0  0  0  0  0  0  0  0  0
  140.5680   78.0320  218.9900 C   0  0  0  0  0  0  0  0  0  0  0  0
  140.2750   79.2200  219.6660 C   0  0  0  0  0  0  0  0  0  0  0  0
  141.1560   80.3050  219.5890 C   0  0  0  0  0  0  0  0  0  0  0  0
  140.7930   81.7930  220.4410 Cl  0  0  0  0  0  0  0  0  0  0  0  0
  142.3280   80.2010  218.8330 C   0  0  0  0  0  0  0  0  0  0  0  0
  142.6260   79.0120  218.1600 C   0  0  0  0  0  0  0  0  0  0  0  0
  144.2001   76.9455  217.1823 H   0  0  0  0  0  0  0  0  0  0  0  0
  143.4065   75.9188  215.9402 H   0  0  0  0  0  0  0  0  0  0  0  0
  143.1411   77.6954  215.9402 H   0  0  0  0  0  0  0  0  0  0  0  0
  141.2167   76.3616  216.8733 H   0  0  0  0  0  0  0  0  0  0  0  0
  141.8160   74.6570  218.3490 H   0  0  0  0  0  0  0  0  0  0  0  0
  143.2033   74.7889  221.4076 H   0  0  0  0  0  0  0  0  0  0  0  0
  145.6798   75.0430  220.1025 H   0  0  0  0  0  0  0  0  0  0  0  0
  145.4356   74.0076  221.5147 H   0  0  0  0  0  0  0  0  0  0  0  0
  145.6471   73.2510  218.5886 H   0  0  0  0  0  0  0  0  0  0  0  0
  146.0710   71.8380  220.9980 H   0  0  0  0  0  0  0  0  0  0  0  0
  143.7334   71.9303  218.4991 H   0  0  0  0  0  0  0  0  0  0  0  0
  143.9068   71.3779  220.1703 H   0  0  0  0  0  0  0  0  0  0  0  0
  139.6141   73.1762  220.7959 H   0  0  0  0  0  0  0  0  0  0  0  0
  140.9113   72.5584  221.8923 H   0  0  0  0  0  0  0  0  0  0  0  0
  141.8320   74.8680  221.9810 H   0  0  0  0  0  0  0  0  0  0  0  0
  138.0244   77.3173  222.7142 H   0  0  0  0  0  0  0  0  0  0  0  0
  138.4800   79.5660  223.7067 H   0  0  0  0  0  0  0  0  0  0  0  0
  140.0951   81.3539  224.2674 H   0  0  0  0  0  0  0  0  0  0  0  0
  144.2761   80.8178  223.2786 H   0  0  0  0  0  0  0  0  0  0  0  0
  143.7694   78.5760  222.3006 H   0  0  0  0  0  0  0  0  0  0  0  0
  139.8688   77.1847  219.0469 H   0  0  0  0  0  0  0  0  0  0  0  0
  139.3519   79.3022  220.2586 H   0  0  0  0  0  0  0  0  0  0  0  0
  143.0168   81.0562  218.7676 H   0  0  0  0  0  0  0  0  0  0  0  0
  143.5495   78.9366  217.5672 H   0  0  0  0  0  0  0  0  0  0  0  0
  1  2  1  0
  2  3  1  0
  3  4  1  0
  4  5  2  0
  4  6  1  0
  6  7  1  0
  7  8  1  0
  8  9  1  0
  8 10  1  0
 10 11  1  0
 11 12  1  0
 12 13  2  0
 12 14  1  0
 14 15  1  0
 15 16  1  0
 16 17  2  0
 16 18  1  0
 18 19  2  0
 19 20  1  0
 20 21  2  0
 21 22  1  0
 22 23  2  0
 23 24  1  0
 23 25  1  0
 25 26  2  0
 26 27  1  0
 27 28  2  0
  2 29  1  0
 29 30  2  0
 30 31  1  0
 31 32  2  0
 32 33  1  0
 32 34  1  0
 34 35  2  0
 11  6  1  0
 28 18  1  0
 35 29  1  0
 27 21  1  0
  1 36  1  0
  1 37  1  0
  1 38  1  0
  2 39  1  6
  3 40  1  0
  6 41  1  1
  7 42  1  0
  7 43  1  0
  8 44  1  6
  9 45  1  0
 10 46  1  0
 10 47  1  0
 14 48  1  0
 14 49  1  0
 15 50  1  0
 19 51  1  0
 20 52  1  0
 22 53  1  0
 25 54  1  0
 26 55  1  0
 30 56  1  0
 31 57  1  0
 34 58  1  0
 35 59  1  0
M  END
>  <UniqueID>  (9) 
80

>  <SMILES>  (9) 
C[C@@H](NC(=O)[C@@H]1C[C@@H](O)CN1C(=O)CNC(=O)c1ccc2cc(F)ccc2n1)c1ccc(Cl)cc1

>  <Energy>  (9) 
57.892266460593525

>  <Genealogy>  (9) 
C[C@@H](NC(=O)[C@@H]1C[C@@H](O)CN1C(=O)CNC(=O)c1ccc2cc(F)ccc2n1)c1ccc(Cl)cc1 (3D coordinates assigned)
C[C@@H](NC(=O)[C@@H]1C[C@@H](O)CN1C(=O)CNC(=O)c1ccc2cc(F)ccc2n1)c1ccc(Cl)cc1 (nonaromatic ring conformer: 57.892266460593525 kcal/mol)

>  <smiles>  (9) 
C[C@@H](NC(=O)[C@@H]1C[C@@H](O)CN1C(=O)CNC(=O)c1ccc2cc(F)ccc2n1)c1ccc(Cl)cc1

>  <score_type>  (9) 
oracle

>  <origin>  (9) 
autodockgpu

>  <m_score__min__energy>  (9) 
-9.9100000000000001

>  <m_primary>  (9) 
energy

>  <meeko>  (9) 
{"free_energy": -7.38, "intermolecular_energy": -9.76, "internal_energy": -4.39, "cluster_size": 15, "cluster_id": 4, "rank_in_cluster": 6}

>  <energy>  (9) 
-7.39

>  <cluster_rmsd>  (9) 
1.17

>  <rmsd>  (9) 
270.55

>  <cluster>  (9) 
4

$$$$
JDBMCWJIJNWNRF-OEQCPPMUNA-N
     RDKit          3D

 59 62  0  0  0  0  0  0  0  0999 V2000
  143.2900   76.7620  216.5410 C   0  0  0  0  0  0  0  0  0  0  0  0
  142.0980   76.6270  217.4970 C   0  0  1  0  0  0  0  0  0  0  0  0
  142.3460   75.5500  218.4610 N   0  0  0  0  0  0  0  0  0  0  0  0
  143.3300   75.6470  219.5050 C   0  0  0  0  0  0  0  0  0  0  0  0
  144.0040   76.7020  219.6460 O   0  0  0  0  0  0  0  0  0  0  0  0
  143.5980   74.4830  220.4240 C   0  0  2  0  0  0  0  0  0  0  0  0
  145.0950   74.1680  220.4870 C   0  0  0  0  0  0  0  0  0  0  0  0
  145.2920   72.9370  219.5960 C   0  0  1  0  0  0  0  0  0  0  0  0
  146.2980   72.0820  220.0790 O   0  0  0  0  0  0  0  0  0  0  0  0
  143.9280   72.2530  219.5260 C   0  0  0  0  0  0  0  0  0  0  0  0
  142.9620   73.2610  219.9360 N   0  0  0  0  0  0  0  0  0  0  0  0
  141.5410   73.0120  219.9090 C   0  0  0  0  0  0  0  0  0  0  0  0
  141.0100   72.5720  218.8510 O   0  0  0  0  0  0  0  0  0  0  0  0
  140.6570   73.2770  221.0980 C   0  0  0  0  0  0  0  0  0  0  0  0
  140.8690   74.6260  221.6140 N   0  0  0  0  0  0  0  0  0  0  0  0
  139.8530   75.6390  221.5530 C   0  0  0  0  0  0  0  0  0  0  0  0
  138.7540   75.3910  220.9850 O   0  0  0  0  0  0  0  0  0  0  0  0
  140.0870   76.9710  222.1530 C   0  0  0  0  0  0  0  0  0  0  0  0
  139.0210   77.7300  222.6700 C   0  0  0  0  0  0  0  0  0  0  0  0
  139.2710   78.9860  223.2270 C   0  0  0  0  0  0  0  0  0  0  0  0
  140.5790   79.4820  223.2720 C   0  0  0  0  0  0  0  0  0  0  0  0
  140.8660   80.7420  223.8220 C   0  0  0  0  0  0  0  0  0  0  0  0
  142.1850   81.2070  223.8520 C   0  0  0  0  0  0  0  0  0  0  0  0
  142.4630   82.4260  224.3790 F   0  0  0  0  0  0  0  0  0  0  0  0
  143.2210   80.4180  223.3350 C   0  0  0  0  0  0  0  0  0  0  0  0
  142.9430   79.1620  222.7850 C   0  0  0  0  0  0  0  0  0  0  0  0
  141.6260   78.6900  222.7490 C   0  0  0  0  0  0  0  0  0  0  0  0
  141.3510   77.4720  222.2110 N   0  0  0  0  0  0  0  0  0  0  0  0
  141.8310   77.9240  218.2340 C   0  0  0  0  0  0  0  0  0  0  0  0
  140.6880   78.0750  219.0450 C   0  0  0  0  0  0  0  0  0  0  0  0
  140.4520   79.2770  219.7190 C   0  0  0  0  0  0  0  0  0  0  0  0
  141.3480   80.3430  219.5840 C   0  0  0  0  0  0  0  0  0  0  0  0
  141.0550   81.8480  220.4350 Cl  0  0  0  0  0  0  0  0  0  0  0  0
  142.4780   80.2080  218.7730 C   0  0  0  0  0  0  0  0  0  0  0  0
  142.7200   79.0060  218.1000 C   0  0  0  0  0  0  0  0  0  0  0  0
  144.2172   76.8670  217.1235 H   0  0  0  0  0  0  0  0  0  0  0  0
  143.3549   75.8655  215.9070 H   0  0  0  0  0  0  0  0  0  0  0  0
  143.1527   77.6503  215.9070 H   0  0  0  0  0  0  0  0  0  0  0  0
  141.2090   76.3851  216.8961 H   0  0  0  0  0  0  0  0  0  0  0  0
  141.8180   74.6570  218.3480 H   0  0  0  0  0  0  0  0  0  0  0  0
  143.2008   74.7765  221.4069 H   0  0  0  0  0  0  0  0  0  0  0  0
  145.6827   75.0163  220.1062 H   0  0  0  0  0  0  0  0  0  0  0  0
  145.4302   73.9833  221.5183 H   0  0  0  0  0  0  0  0  0  0  0  0
  145.6409   73.2251  218.5934 H   0  0  0  0  0  0  0  0  0  0  0  0
  146.0440   71.7970  220.9980 H   0  0  0  0  0  0  0  0  0  0  0  0
  143.7195   71.9167  218.4996 H   0  0  0  0  0  0  0  0  0  0  0  0
  143.8858   71.3632  220.1714 H   0  0  0  0  0  0  0  0  0  0  0  0
  139.6049   73.1681  220.7960 H   0  0  0  0  0  0  0  0  0  0  0  0
  140.9062   72.5547  221.8893 H   0  0  0  0  0  0  0  0  0  0  0  0
  141.8130   74.8630  221.9930 H   0  0  0  0  0  0  0  0  0  0  0  0
  137.9947   77.3356  222.6356 H   0  0  0  0  0  0  0  0  0  0  0  0
  138.4409   79.5848  223.6299 H   0  0  0  0  0  0  0  0  0  0  0  0
  140.0542   81.3628  224.2289 H   0  0  0  0  0  0  0  0  0  0  0  0
  144.2568   80.7875  223.3617 H   0  0  0  0  0  0  0  0  0  0  0  0
  143.7595   78.5455  222.3809 H   0  0  0  0  0  0  0  0  0  0  0  0
  139.9772   77.2419  219.1483 H   0  0  0  0  0  0  0  0  0  0  0  0
  139.5615   79.3846  220.3557 H   0  0  0  0  0  0  0  0  0  0  0  0
  143.1787   81.0489  218.6636 H   0  0  0  0  0  0  0  0  0  0  0  0
  143.6107   78.9061  217.4622 H   0  0  0  0  0  0  0  0  0  0  0  0
  1  2  1  0
  2  3  1  0
  3  4  1  0
  4  5  2  0
  4  6  1  0
  6  7  1  0
  7  8  1  0
  8  9  1  0
  8 10  1  0
 10 11  1  0
 11 12  1  0
 12 13  2  0
 12 14  1  0
 14 15  1  0
 15 16  1  0
 16 17  2  0
 16 18  1  0
 18 19  2  0
 19 20  1  0
 20 21  2  0
 21 22  1  0
 22 23  2  0
 23 24  1  0
 23 25  1  0
 25 26  2  0
 26 27  1  0
 27 28  2  0
  2 29  1  0
 29 30  2  0
 30 31  1  0
 31 32  2  0
 32 33  1  0
 32 34  1  0
 34 35  2  0
 11  6  1  0
 28 18  1  0
 35 29  1  0
 27 21  1  0
  1 36  1  0
  1 37  1  0
  1 38  1  0
  2 39  1  6
  3 40  1  0
  6 41  1  1
  7 42  1  0
  7 43  1  0
  8 44  1  6
  9 45  1  0
 10 46  1  0
 10 47  1  0
 14 48  1  0
 14 49  1  0
 15 50  1  0
 19 51  1  0
 20 52  1  0
 22 53  1  0
 25 54  1  0
 26 55  1  0
 30 56  1  0
 31 57  1  0
 34 58  1  0
 35 59  1  0
M  END
>  <UniqueID>  (10) 
80

>  <SMILES>  (10) 
C[C@@H](NC(=O)[C@@H]1C[C@@H](O)CN1C(=O)CNC(=O)c1ccc2cc(F)ccc2n1)c1ccc(Cl)cc1

>  <Energy>  (10) 
57.892266460593525

>  <Genealogy>  (10) 
C[C@@H](NC(=O)[C@@H]1C[C@@H](O)CN1C(=O)CNC(=O)c1ccc2cc(F)ccc2n1)c1ccc(Cl)cc1 (3D coordinates assigned)
C[C@@H](NC(=O)[C@@H]1C[C@@H](O)CN1C(=O)CNC(=O)c1ccc2cc(F)ccc2n1)c1ccc(Cl)cc1 (nonaromatic ring conformer: 57.892266460593525 kcal/mol)

>  <smiles>  (10) 
C[C@@H](NC(=O)[C@@H]1C[C@@H](O)CN1C(=O)CNC(=O)c1ccc2cc(F)ccc2n1)c1ccc(Cl)cc1

>  <score_type>  (10) 
oracle

>  <origin>  (10) 
autodockgpu

>  <m_score__min__energy>  (10) 
-9.9100000000000001

>  <m_primary>  (10) 
energy

>  <meeko>  (10) 
{"free_energy": -7.39, "intermolecular_energy": -9.78, "internal_energy": -4.35, "cluster_size": 15, "cluster_id": 4, "rank_in_cluster": 5}

>  <energy>  (10) 
-7.38

>  <cluster_rmsd>  (10) 
1.16

>  <rmsd>  (10) 
270.54

>  <cluster>  (10) 
4

$$$$
JDBMCWJIJNWNRF-OEQCPPMUNA-N
     RDKit          3D

 59 62  0  0  0  0  0  0  0  0999 V2000
  142.9510   78.0570  217.6320 C   0  0  0  0  0  0  0  0  0  0  0  0
  141.8540   77.7330  218.6540 C   0  0  1  0  0  0  0  0  0  0  0  0
  142.3690   76.8090  219.6690 N   0  0  0  0  0  0  0  0  0  0  0  0
  142.8640   75.4970  219.3520 C   0  0  0  0  0  0  0  0  0  0  0  0
  142.9040   75.1050  218.1560 O   0  0  0  0  0  0  0  0  0  0  0  0
  143.3130   74.5570  220.4420 C   0  0  2  0  0  0  0  0  0  0  0  0
  144.8400   74.4540  220.4810 C   0  0  0  0  0  0  0  0  0  0  0  0
  145.1800   73.1210  219.8040 C   0  0  1  0  0  0  0  0  0  0  0  0
  146.3050   72.5020  220.3740 O   0  0  0  0  0  0  0  0  0  0  0  0
  143.9200   72.2650  219.9200 C   0  0  0  0  0  0  0  0  0  0  0  0
  142.8370   73.1960  220.2010 N   0  0  0  0  0  0  0  0  0  0  0  0
  141.4620   72.7630  220.2880 C   0  0  0  0  0  0  0  0  0  0  0  0
  140.9580   72.1070  219.3350 O   0  0  0  0  0  0  0  0  0  0  0  0
  140.5940   73.0850  221.4750 C   0  0  0  0  0  0  0  0  0  0  0  0
  140.8030   74.4610  221.9160 N   0  0  0  0  0  0  0  0  0  0  0  0
  139.7660   75.4520  221.8560 C   0  0  0  0  0  0  0  0  0  0  0  0
  138.6470   75.1580  221.3530 O   0  0  0  0  0  0  0  0  0  0  0  0
  140.0020   76.8150  222.3810 C   0  0  0  0  0  0  0  0  0  0  0  0
  138.9380   77.6020  222.8570 C   0  0  0  0  0  0  0  0  0  0  0  0
  139.1890   78.8870  223.3440 C   0  0  0  0  0  0  0  0  0  0  0  0
  140.4970   79.3840  223.3570 C   0  0  0  0  0  0  0  0  0  0  0  0
  140.7860   80.6720  223.8360 C   0  0  0  0  0  0  0  0  0  0  0  0
  142.1060   81.1380  223.8370 C   0  0  0  0  0  0  0  0  0  0  0  0
  142.3850   82.3840  224.2950 F   0  0  0  0  0  0  0  0  0  0  0  0
  143.1400   80.3220  223.3630 C   0  0  0  0  0  0  0  0  0  0  0  0
  142.8600   79.0370  222.8840 C   0  0  0  0  0  0  0  0  0  0  0  0
  141.5430   78.5640  222.8770 C   0  0  0  0  0  0  0  0  0  0  0  0
  141.2660   77.3180  222.4070 N   0  0  0  0  0  0  0  0  0  0  0  0
  141.3330   78.9890  219.3210 C   0  0  0  0  0  0  0  0  0  0  0  0
  139.9780   79.1050  219.6910 C   0  0  0  0  0  0  0  0  0  0  0  0
  139.5070   80.2700  220.3060 C   0  0  0  0  0  0  0  0  0  0  0  0
  140.3820   81.3350  220.5490 C   0  0  0  0  0  0  0  0  0  0  0  0
  139.7940   82.7930  221.3260 Cl  0  0  0  0  0  0  0  0  0  0  0  0
  141.7250   81.2360  220.1750 C   0  0  0  0  0  0  0  0  0  0  0  0
  142.2000   80.0700  219.5650 C   0  0  0  0  0  0  0  0  0  0  0  0
  143.8759   78.3302  218.1611 H   0  0  0  0  0  0  0  0  0  0  0  0
  143.1363   77.1752  217.0010 H   0  0  0  0  0  0  0  0  0  0  0  0
  142.6275   78.8979  217.0010 H   0  0  0  0  0  0  0  0  0  0  0  0
  141.0199   77.2594  218.1155 H   0  0  0  0  0  0  0  0  0  0  0  0
  142.3220   77.1020  220.6710 H   0  0  0  0  0  0  0  0  0  0  0  0
  142.9065   74.9645  221.3794 H   0  0  0  0  0  0  0  0  0  0  0  0
  145.2956   75.2910  219.9316 H   0  0  0  0  0  0  0  0  0  0  0  0
  145.2250   74.4979  221.5105 H   0  0  0  0  0  0  0  0  0  0  0  0
  145.4603   73.2710  218.7510 H   0  0  0  0  0  0  0  0  0  0  0  0
  146.0170   72.0600  221.2180 H   0  0  0  0  0  0  0  0  0  0  0  0
  143.7314   71.7302  218.9775 H   0  0  0  0  0  0  0  0  0  0  0  0
  144.0167   71.5042  220.7085 H   0  0  0  0  0  0  0  0  0  0  0  0
  139.5383   72.9529  221.1955 H   0  0  0  0  0  0  0  0  0  0  0  0
  140.8611   72.4076  222.2995 H   0  0  0  0  0  0  0  0  0  0  0  0
  141.7600   74.7320  222.2370 H   0  0  0  0  0  0  0  0  0  0  0  0
  137.9115   77.2069  222.8458 H   0  0  0  0  0  0  0  0  0  0  0  0
  138.3601   79.5069  223.7165 H   0  0  0  0  0  0  0  0  0  0  0  0
  139.9754   81.3145  224.2103 H   0  0  0  0  0  0  0  0  0  0  0  0
  144.1759   80.6919  223.3670 H   0  0  0  0  0  0  0  0  0  0  0  0
  143.6754   78.3987  222.5129 H   0  0  0  0  0  0  0  0  0  0  0  0
  139.2855   78.2732  219.4947 H   0  0  0  0  0  0  0  0  0  0  0  0
  138.4495   80.3489  220.5984 H   0  0  0  0  0  0  0  0  0  0  0  0
  142.4099   82.0765  220.3606 H   0  0  0  0  0  0  0  0  0  0  0  0
  143.2584   79.9978  219.2742 H   0  0  0  0  0  0  0  0  0  0  0  0
  1  2  1  0
  2  3  1  0
  3  4  1  0
  4  5  2  0
  4  6  1  0
  6  7  1  0
  7  8  1  0
  8  9  1  0
  8 10  1  0
 10 11  1  0
 11 12  1  0
 12 13  2  0
 12 14  1  0
 14 15  1  0
 15 16  1  0
 16 17  2  0
 16 18  1  0
 18 19  2  0
 19 20  1  0
 20 21  2  0
 21 22  1  0
 22 23  2  0
 23 24  1  0
 23 25  1  0
 25 26  2  0
 26 27  1  0
 27 28  2  0
  2 29  1  0
 29 30  2  0
 30 31  1  0
 31 32  2  0
 32 33  1  0
 32 34  1  0
 34 35  2  0
 11  6  1  0
 28 18  1  0
 35 29  1  0
 27 21  1  0
  1 36  1  0
  1 37  1  0
  1 38  1  0
  2 39  1  6
  3 40  1  0
  6 41  1  1
  7 42  1  0
  7 43  1  0
  8 44  1  6
  9 45  1  0
 10 46  1  0
 10 47  1  0
 14 48  1  0
 14 49  1  0
 15 50  1  0
 19 51  1  0
 20 52  1  0
 22 53  1  0
 25 54  1  0
 26 55  1  0
 30 56  1  0
 31 57  1  0
 34 58  1  0
 35 59  1  0
M  END
>  <UniqueID>  (11) 
80

>  <SMILES>  (11) 
C[C@@H](NC(=O)[C@@H]1C[C@@H](O)CN1C(=O)CNC(=O)c1ccc2cc(F)ccc2n1)c1ccc(Cl)cc1

>  <Energy>  (11) 
57.892266460593525

>  <Genealogy>  (11) 
C[C@@H](NC(=O)[C@@H]1C[C@@H](O)CN1C(=O)CNC(=O)c1ccc2cc(F)ccc2n1)c1ccc(Cl)cc1 (3D coordinates assigned)
C[C@@H](NC(=O)[C@@H]1C[C@@H](O)CN1C(=O)CNC(=O)c1ccc2cc(F)ccc2n1)c1ccc(Cl)cc1 (nonaromatic ring conformer: 57.892266460593525 kcal/mol)

>  <smiles>  (11) 
C[C@@H](NC(=O)[C@@H]1C[C@@H](O)CN1C(=O)CNC(=O)c1ccc2cc(F)ccc2n1)c1ccc(Cl)cc1

>  <score_type>  (11) 
oracle

>  <origin>  (11) 
autodockgpu

>  <m_score__min__energy>  (11) 
-9.9100000000000001

>  <m_primary>  (11) 
energy

>  <meeko>  (11) 
{"free_energy": -7.31, "intermolecular_energy": -9.7, "internal_energy": -4.5, "cluster_size": 15, "cluster_id": 4, "rank_in_cluster": 8}

>  <energy>  (11) 
-7.36

>  <cluster_rmsd>  (11) 
0.73

>  <rmsd>  (11) 
270.85

>  <cluster>  (11) 
4

$$$$
JDBMCWJIJNWNRF-OEQCPPMUNA-N
     RDKit          3D

 59 62  0  0  0  0  0  0  0  0999 V2000
  140.5440   76.2590  219.0260 C   0  0  0  0  0  0  0  0  0  0  0  0
  140.3990   76.0350  220.5370 C   0  0  1  0  0  0  0  0  0  0  0  0
  141.0920   74.8050  220.9320 N   0  0  0  0  0  0  0  0  0  0  0  0
  142.4050   74.4600  220.4560 C   0  0  0  0  0  0  0  0  0  0  0  0
  143.0280   75.2420  219.6910 O   0  0  0  0  0  0  0  0  0  0  0  0
  143.0430   73.1480  220.8340 C   0  0  2  0  0  0  0  0  0  0  0  0
  144.5670   73.2800  220.9030 C   0  0  0  0  0  0  0  0  0  0  0  0
  145.0920   72.6540  219.6060 C   0  0  1  0  0  0  0  0  0  0  0  0
  146.3250   72.0040  219.7860 O   0  0  0  0  0  0  0  0  0  0  0  0
  143.9940   71.7030  219.1310 C   0  0  0  0  0  0  0  0  0  0  0  0
  142.7860   72.1200  219.8270 N   0  0  0  0  0  0  0  0  0  0  0  0
  141.5050   71.5090  219.5640 C   0  0  0  0  0  0  0  0  0  0  0  0
  141.3670   70.7760  218.5460 O   0  0  0  0  0  0  0  0  0  0  0  0
  140.3130   71.7310  220.4550 C   0  0  0  0  0  0  0  0  0  0  0  0
  140.5540   71.1970  221.7920 N   0  0  0  0  0  0  0  0  0  0  0  0
  140.3200   71.9700  222.9810 C   0  0  0  0  0  0  0  0  0  0  0  0
  139.9480   73.1710  222.8830 O   0  0  0  0  0  0  0  0  0  0  0  0
  140.5120   71.3640  224.3160 C   0  0  0  0  0  0  0  0  0  0  0  0
  140.8660   72.1540  225.4250 C   0  0  0  0  0  0  0  0  0  0  0  0
  141.0440   71.5550  226.6750 C   0  0  0  0  0  0  0  0  0  0  0  0
  140.8660   70.1740  226.8180 C   0  0  0  0  0  0  0  0  0  0  0  0
  141.0390   69.5380  228.0580 C   0  0  0  0  0  0  0  0  0  0  0  0
  140.8520   68.1560  228.1670 C   0  0  0  0  0  0  0  0  0  0  0  0
  141.0240   67.5400  229.3630 F   0  0  0  0  0  0  0  0  0  0  0  0
  140.4910   67.4040  227.0410 C   0  0  0  0  0  0  0  0  0  0  0  0
  140.3160   68.0310  225.8020 C   0  0  0  0  0  0  0  0  0  0  0  0
  140.5040   69.4120  225.6850 C   0  0  0  0  0  0  0  0  0  0  0  0
  140.3400   70.0240  224.4800 N   0  0  0  0  0  0  0  0  0  0  0  0
  140.9460   77.2080  221.3250 C   0  0  0  0  0  0  0  0  0  0  0  0
  141.4160   78.3640  220.6710 C   0  0  0  0  0  0  0  0  0  0  0  0
  141.9190   79.4410  221.4090 C   0  0  0  0  0  0  0  0  0  0  0  0
  141.9670   79.3700  222.8050 C   0  0  0  0  0  0  0  0  0  0  0  0
  142.5910   80.7220  223.7310 Cl  0  0  0  0  0  0  0  0  0  0  0  0
  141.5150   78.2230  223.4640 C   0  0  0  0  0  0  0  0  0  0  0  0
  141.0070   77.1460  222.7290 C   0  0  0  0  0  0  0  0  0  0  0  0
  141.1336   77.1699  218.8453 H   0  0  0  0  0  0  0  0  0  0  0  0
  141.0551   75.3958  218.5747 H   0  0  0  0  0  0  0  0  0  0  0  0
  139.5472   76.3719  218.5747 H   0  0  0  0  0  0  0  0  0  0  0  0
  139.3265   75.9413  220.7627 H   0  0  0  0  0  0  0  0  0  0  0  0
  140.5850   74.1290  221.5460 H   0  0  0  0  0  0  0  0  0  0  0  0
  142.6119   72.8721  221.8077 H   0  0  0  0  0  0  0  0  0  0  0  0
  144.8587   74.3389  220.9642 H   0  0  0  0  0  0  0  0  0  0  0  0
  144.9797   72.7817  221.7926 H   0  0  0  0  0  0  0  0  0  0  0  0
  145.3013   73.4250  218.8498 H   0  0  0  0  0  0  0  0  0  0  0  0
  146.2990   71.5340  220.6640 H   0  0  0  0  0  0  0  0  0  0  0  0
  143.8582   71.7866  218.0426 H   0  0  0  0  0  0  0  0  0  0  0  0
  144.2446   70.6534  219.3445 H   0  0  0  0  0  0  0  0  0  0  0  0
  140.1149   72.8105  220.5289 H   0  0  0  0  0  0  0  0  0  0  0  0
  139.4476   71.2099  220.0197 H   0  0  0  0  0  0  0  0  0  0  0  0
  140.9600   70.2380  221.8710 H   0  0  0  0  0  0  0  0  0  0  0  0
  141.0022   73.2393  225.3086 H   0  0  0  0  0  0  0  0  0  0  0  0
  141.3235   72.1676  227.5448 H   0  0  0  0  0  0  0  0  0  0  0  0
  141.3215   70.1264  228.9434 H   0  0  0  0  0  0  0  0  0  0  0  0
  140.3447   66.3175  227.1312 H   0  0  0  0  0  0  0  0  0  0  0  0
  140.0307   67.4379  224.9206 H   0  0  0  0  0  0  0  0  0  0  0  0
  141.3873   78.4202  219.5728 H   0  0  0  0  0  0  0  0  0  0  0  0
  142.2766   80.3433  220.8914 H   0  0  0  0  0  0  0  0  0  0  0  0
  141.5587   78.1670  224.5617 H   0  0  0  0  0  0  0  0  0  0  0  0
  140.6532   76.2455  223.2523 H   0  0  0  0  0  0  0  0  0  0  0  0
  1  2  1  0
  2  3  1  0
  3  4  1  0
  4  5  2  0
  4  6  1  0
  6  7  1  0
  7  8  1  0
  8  9  1  0
  8 10  1  0
 10 11  1  0
 11 12  1  0
 12 13  2  0
 12 14  1  0
 14 15  1  0
 15 16  1  0
 16 17  2  0
 16 18  1  0
 18 19  2  0
 19 20  1  0
 20 21  2  0
 21 22  1  0
 22 23  2  0
 23 24  1  0
 23 25  1  0
 25 26  2  0
 26 27  1  0
 27 28  2  0
  2 29  1  0
 29 30  2  0
 30 31  1  0
 31 32  2  0
 32 33  1  0
 32 34  1  0
 34 35  2  0
 11  6  1  0
 28 18  1  0
 35 29  1  0
 27 21  1  0
  1 36  1  0
  1 37  1  0
  1 38  1  0
  2 39  1  6
  3 40  1  0
  6 41  1  1
  7 42  1  0
  7 43  1  0
  8 44  1  6
  9 45  1  0
 10 46  1  0
 10 47  1  0
 14 48  1  0
 14 49  1  0
 15 50  1  0
 19 51  1  0
 20 52  1  0
 22 53  1  0
 25 54  1  0
 26 55  1  0
 30 56  1  0
 31 57  1  0
 34 58  1  0
 35 59  1  0
M  END
>  <UniqueID>  (12) 
80

>  <SMILES>  (12) 
C[C@@H](NC(=O)[C@@H]1C[C@@H](O)CN1C(=O)CNC(=O)c1ccc2cc(F)ccc2n1)c1ccc(Cl)cc1

>  <Energy>  (12) 
57.892266460593525

>  <Genealogy>  (12) 
C[C@@H](NC(=O)[C@@H]1C[C@@H](O)CN1C(=O)CNC(=O)c1ccc2cc(F)ccc2n1)c1ccc(Cl)cc1 (3D coordinates assigned)
C[C@@H](NC(=O)[C@@H]1C[C@@H](O)CN1C(=O)CNC(=O)c1ccc2cc(F)ccc2n1)c1ccc(Cl)cc1 (nonaromatic ring conformer: 57.892266460593525 kcal/mol)

>  <smiles>  (12) 
C[C@@H](NC(=O)[C@@H]1C[C@@H](O)CN1C(=O)CNC(=O)c1ccc2cc(F)ccc2n1)c1ccc(Cl)cc1

>  <score_type>  (12) 
oracle

>  <origin>  (12) 
autodockgpu

>  <m_score__min__energy>  (12) 
-9.9100000000000001

>  <m_primary>  (12) 
energy

>  <meeko>  (12) 
{"free_energy": -9.08, "intermolecular_energy": -11.46, "internal_energy": -2.78, "cluster_size": 2, "cluster_id": 1, "rank_in_cluster": 2}

>  <energy>  (12) 
-7.31

>  <cluster_rmsd>  (12) 
0.74

>  <rmsd>  (12) 
270.83

>  <cluster>  (12) 
4

$$$$
JDBMCWJIJNWNRF-OEQCPPMUNA-N
     RDKit          3D

 59 62  0  0  0  0  0  0  0  0999 V2000
  142.9500   78.1200  217.6270 C   0  0  0  0  0  0  0  0  0  0  0  0
  141.8540   77.7770  218.6430 C   0  0  1  0  0  0  0  0  0  0  0  0
  142.3750   76.8510  219.6540 N   0  0  0  0  0  0  0  0  0  0  0  0
  142.8330   75.5250  219.3360 C   0  0  0  0  0  0  0  0  0  0  0  0
  142.8300   75.1210  218.1430 O   0  0  0  0  0  0  0  0  0  0  0  0
  143.2900   74.5860  220.4230 C   0  0  2  0  0  0  0  0  0  0  0  0
  144.8180   74.4940  220.4600 C   0  0  0  0  0  0  0  0  0  0  0  0
  145.1650   73.1650  219.7790 C   0  0  1  0  0  0  0  0  0  0  0  0
  146.2960   72.5520  220.3450 O   0  0  0  0  0  0  0  0  0  0  0  0
  143.9110   72.2990  219.8950 C   0  0  0  0  0  0  0  0  0  0  0  0
  142.8220   73.2230  220.1800 N   0  0  0  0  0  0  0  0  0  0  0  0
  141.4510   72.7800  220.2690 C   0  0  0  0  0  0  0  0  0  0  0  0
  140.9570   72.1040  219.3250 O   0  0  0  0  0  0  0  0  0  0  0  0
  140.5760   73.1140  221.4470 C   0  0  0  0  0  0  0  0  0  0  0  0
  140.8040   74.4850  221.8940 N   0  0  0  0  0  0  0  0  0  0  0  0
  139.7950   75.5020  221.7970 C   0  0  0  0  0  0  0  0  0  0  0  0
  138.6870   75.2350  221.2560 O   0  0  0  0  0  0  0  0  0  0  0  0
  140.0470   76.8590  222.3280 C   0  0  0  0  0  0  0  0  0  0  0  0
  138.9920   77.6540  222.8140 C   0  0  0  0  0  0  0  0  0  0  0  0
  139.2590   78.9340  223.3070 C   0  0  0  0  0  0  0  0  0  0  0  0
  140.5720   79.4170  223.3180 C   0  0  0  0  0  0  0  0  0  0  0  0
  140.8750   80.7000  223.8030 C   0  0  0  0  0  0  0  0  0  0  0  0
  142.2000   81.1520  223.8010 C   0  0  0  0  0  0  0  0  0  0  0  0
  142.4930   82.3930  224.2650 F   0  0  0  0  0  0  0  0  0  0  0  0
  143.2240   80.3280  223.3170 C   0  0  0  0  0  0  0  0  0  0  0  0
  142.9290   79.0490  222.8330 C   0  0  0  0  0  0  0  0  0  0  0  0
  141.6080   78.5900  222.8290 C   0  0  0  0  0  0  0  0  0  0  0  0
  141.3160   77.3490  222.3530 N   0  0  0  0  0  0  0  0  0  0  0  0
  141.3160   79.0230  219.3180 C   0  0  0  0  0  0  0  0  0  0  0  0
  139.9520   79.1350  219.6540 C   0  0  0  0  0  0  0  0  0  0  0  0
  139.4670   80.2900  220.2750 C   0  0  0  0  0  0  0  0  0  0  0  0
  140.3360   81.3490  220.5600 C   0  0  0  0  0  0  0  0  0  0  0  0
  139.7310   82.7940  221.3450 Cl  0  0  0  0  0  0  0  0  0  0  0  0
  141.6890   81.2540  220.2200 C   0  0  0  0  0  0  0  0  0  0  0  0
  142.1780   80.0980  219.6020 C   0  0  0  0  0  0  0  0  0  0  0  0
  143.8679   78.4073  218.1608 H   0  0  0  0  0  0  0  0  0  0  0  0
  143.1524   77.2423  216.9957 H   0  0  0  0  0  0  0  0  0  0  0  0
  142.6159   78.9566  216.9957 H   0  0  0  0  0  0  0  0  0  0  0  0
  141.0275   77.2981  218.0974 H   0  0  0  0  0  0  0  0  0  0  0  0
  142.3620   77.1550  220.6530 H   0  0  0  0  0  0  0  0  0  0  0  0
  142.8825   74.9883  221.3622 H   0  0  0  0  0  0  0  0  0  0  0  0
  145.2672   75.3355  219.9121 H   0  0  0  0  0  0  0  0  0  0  0  0
  145.2047   74.5385  221.4888 H   0  0  0  0  0  0  0  0  0  0  0  0
  145.4413   73.3201  218.7256 H   0  0  0  0  0  0  0  0  0  0  0  0
  145.9880   71.9670  221.0890 H   0  0  0  0  0  0  0  0  0  0  0  0
  143.7245   71.7650  218.9516 H   0  0  0  0  0  0  0  0  0  0  0  0
  144.0141   71.5366  220.6812 H   0  0  0  0  0  0  0  0  0  0  0  0
  139.5213   73.0010  221.1556 H   0  0  0  0  0  0  0  0  0  0  0  0
  140.8223   72.4300  222.2725 H   0  0  0  0  0  0  0  0  0  0  0  0
  141.7550   74.7330  222.2480 H   0  0  0  0  0  0  0  0  0  0  0  0
  137.9615   77.2693  222.8057 H   0  0  0  0  0  0  0  0  0  0  0  0
  138.4382   79.5608  223.6858 H   0  0  0  0  0  0  0  0  0  0  0  0
  140.0723   81.3486  224.1838 H   0  0  0  0  0  0  0  0  0  0  0  0
  144.2635   80.6877  223.3175 H   0  0  0  0  0  0  0  0  0  0  0  0
  143.7363   78.4042  222.4555 H   0  0  0  0  0  0  0  0  0  0  0  0
  139.2638   78.3077  219.4261 H   0  0  0  0  0  0  0  0  0  0  0  0
  138.4020   80.3662  220.5396 H   0  0  0  0  0  0  0  0  0  0  0  0
  142.3701   82.0896  220.4388 H   0  0  0  0  0  0  0  0  0  0  0  0
  143.2432   80.0292  219.3365 H   0  0  0  0  0  0  0  0  0  0  0  0
  1  2  1  0
  2  3  1  0
  3  4  1  0
  4  5  2  0
  4  6  1  0
  6  7  1  0
  7  8  1  0
  8  9  1  0
  8 10  1  0
 10 11  1  0
 11 12  1  0
 12 13  2  0
 12 14  1  0
 14 15  1  0
 15 16  1  0
 16 17  2  0
 16 18  1  0
 18 19  2  0
 19 20  1  0
 20 21  2  0
 21 22  1  0
 22 23  2  0
 23 24  1  0
 23 25  1  0
 25 26  2  0
 26 27  1  0
 27 28  2  0
  2 29  1  0
 29 30  2  0
 30 31  1  0
 31 32  2  0
 32 33  1  0
 32 34  1  0
 34 35  2  0
 11  6  1  0
 28 18  1  0
 35 29  1  0
 27 21  1  0
  1 36  1  0
  1 37  1  0
  1 38  1  0
  2 39  1  6
  3 40  1  0
  6 41  1  1
  7 42  1  0
  7 43  1  0
  8 44  1  6
  9 45  1  0
 10 46  1  0
 10 47  1  0
 14 48  1  0
 14 49  1  0
 15 50  1  0
 19 51  1  0
 20 52  1  0
 22 53  1  0
 25 54  1  0
 26 55  1  0
 30 56  1  0
 31 57  1  0
 34 58  1  0
 35 59  1  0
M  END
>  <UniqueID>  (13) 
80

>  <SMILES>  (13) 
C[C@@H](NC(=O)[C@@H]1C[C@@H](O)CN1C(=O)CNC(=O)c1ccc2cc(F)ccc2n1)c1ccc(Cl)cc1

>  <Energy>  (13) 
57.892266460593525

>  <Genealogy>  (13) 
C[C@@H](NC(=O)[C@@H]1C[C@@H](O)CN1C(=O)CNC(=O)c1ccc2cc(F)ccc2n1)c1ccc(Cl)cc1 (3D coordinates assigned)
C[C@@H](NC(=O)[C@@H]1C[C@@H](O)CN1C(=O)CNC(=O)c1ccc2cc(F)ccc2n1)c1ccc(Cl)cc1 (nonaromatic ring conformer: 57.892266460593525 kcal/mol)

>  <smiles>  (13) 
C[C@@H](NC(=O)[C@@H]1C[C@@H](O)CN1C(=O)CNC(=O)c1ccc2cc(F)ccc2n1)c1ccc(Cl)cc1

>  <score_type>  (13) 
oracle

>  <origin>  (13) 
autodockgpu

>  <m_score__min__energy>  (13) 
-9.9100000000000001

>  <m_primary>  (13) 
energy

>  <meeko>  (13) 
{"free_energy": -7.31, "intermolecular_energy": -9.7, "internal_energy": -4.51, "cluster_size": 15, "cluster_id": 4, "rank_in_cluster": 9}

>  <energy>  (13) 
-7.31

>  <cluster_rmsd>  (13) 
0.74

>  <rmsd>  (13) 
270.82

>  <cluster>  (13) 
4

$$$$
JDBMCWJIJNWNRF-OEQCPPMUNA-N
     RDKit          3D

 59 62  0  0  0  0  0  0  0  0999 V2000
  143.3230   76.7690  216.5540 C   0  0  0  0  0  0  0  0  0  0  0  0
  142.1420   76.6360  217.5240 C   0  0  1  0  0  0  0  0  0  0  0  0
  142.4030   75.5650  218.4910 N   0  0  0  0  0  0  0  0  0  0  0  0
  143.3900   75.6750  219.5310 C   0  0  0  0  0  0  0  0  0  0  0  0
  144.0540   76.7370  219.6660 O   0  0  0  0  0  0  0  0  0  0  0  0
  143.6720   74.5170  220.4530 C   0  0  2  0  0  0  0  0  0  0  0  0
  145.1660   74.1840  220.4740 C   0  0  0  0  0  0  0  0  0  0  0  0
  145.3220   72.9420  219.5890 C   0  0  1  0  0  0  0  0  0  0  0  0
  146.3310   72.0790  220.0500 O   0  0  0  0  0  0  0  0  0  0  0  0
  143.9480   72.2740  219.5670 C   0  0  0  0  0  0  0  0  0  0  0  0
  143.0070   73.2980  219.9970 N   0  0  0  0  0  0  0  0  0  0  0  0
  141.5820   73.0650  220.0150 C   0  0  0  0  0  0  0  0  0  0  0  0
  141.0160   72.6110  218.9810 O   0  0  0  0  0  0  0  0  0  0  0  0
  140.7360   73.3640  221.2230 C   0  0  0  0  0  0  0  0  0  0  0  0
  140.9500   74.7330  221.6840 N   0  0  0  0  0  0  0  0  0  0  0  0
  139.8760   75.6780  221.8070 C   0  0  0  0  0  0  0  0  0  0  0  0
  138.7100   75.3500  221.4540 O   0  0  0  0  0  0  0  0  0  0  0  0
  140.1290   77.0320  222.3450 C   0  0  0  0  0  0  0  0  0  0  0  0
  139.0710   77.8370  222.8070 C   0  0  0  0  0  0  0  0  0  0  0  0
  139.3390   79.1140  223.3070 C   0  0  0  0  0  0  0  0  0  0  0  0
  140.6560   79.5840  223.3490 C   0  0  0  0  0  0  0  0  0  0  0  0
  140.9610   80.8630  223.8430 C   0  0  0  0  0  0  0  0  0  0  0  0
  142.2890   81.3030  223.8710 C   0  0  0  0  0  0  0  0  0  0  0  0
  142.5840   82.5400  224.3440 F   0  0  0  0  0  0  0  0  0  0  0  0
  143.3160   80.4690  223.4110 C   0  0  0  0  0  0  0  0  0  0  0  0
  143.0200   79.1940  222.9180 C   0  0  0  0  0  0  0  0  0  0  0  0
  141.6950   78.7480  222.8830 C   0  0  0  0  0  0  0  0  0  0  0  0
  141.4020   77.5100  222.3990 N   0  0  0  0  0  0  0  0  0  0  0  0
  141.8790   77.9360  218.2570 C   0  0  0  0  0  0  0  0  0  0  0  0
  142.7270   79.0490  218.0860 C   0  0  0  0  0  0  0  0  0  0  0  0
  142.4750   80.2430  218.7680 C   0  0  0  0  0  0  0  0  0  0  0  0
  141.3810   80.3370  219.6350 C   0  0  0  0  0  0  0  0  0  0  0  0
  141.0600   81.8360  220.4850 Cl  0  0  0  0  0  0  0  0  0  0  0  0
  140.5400   79.2350  219.8220 C   0  0  0  0  0  0  0  0  0  0  0  0
  140.7870   78.0400  219.1370 C   0  0  0  0  0  0  0  0  0  0  0  0
  144.2569   76.8742  217.1256 H   0  0  0  0  0  0  0  0  0  0  0  0
  143.3800   75.8716  215.9204 H   0  0  0  0  0  0  0  0  0  0  0  0
  143.1789   77.6566  215.9204 H   0  0  0  0  0  0  0  0  0  0  0  0
  141.2474   76.3885  216.9338 H   0  0  0  0  0  0  0  0  0  0  0  0
  141.8830   74.6660  218.3820 H   0  0  0  0  0  0  0  0  0  0  0  0
  143.3084   74.8253  221.4443 H   0  0  0  0  0  0  0  0  0  0  0  0
  145.7522   75.0215  220.0677 H   0  0  0  0  0  0  0  0  0  0  0  0
  145.5294   74.0044  221.4966 H   0  0  0  0  0  0  0  0  0  0  0  0
  145.6446   73.2167  218.5739 H   0  0  0  0  0  0  0  0  0  0  0  0
  145.9800   71.5900  220.8420 H   0  0  0  0  0  0  0  0  0  0  0  0
  143.7042   71.9311  218.5507 H   0  0  0  0  0  0  0  0  0  0  0  0
  143.9148   71.3906  220.2216 H   0  0  0  0  0  0  0  0  0  0  0  0
  139.6756   73.2340  220.9610 H   0  0  0  0  0  0  0  0  0  0  0  0
  141.0202   72.6731  222.0304 H   0  0  0  0  0  0  0  0  0  0  0  0
  141.9310   75.0360  221.8780 H   0  0  0  0  0  0  0  0  0  0  0  0
  138.0373   77.4624  222.7746 H   0  0  0  0  0  0  0  0  0  0  0  0
  138.5158   79.7486  223.6670 H   0  0  0  0  0  0  0  0  0  0  0  0
  140.1563   81.5184  224.2077 H   0  0  0  0  0  0  0  0  0  0  0  0
  144.3588   80.8179  223.4375 H   0  0  0  0  0  0  0  0  0  0  0  0
  143.8295   78.5420  222.5578 H   0  0  0  0  0  0  0  0  0  0  0  0
  143.5929   78.9775  217.4113 H   0  0  0  0  0  0  0  0  0  0  0  0
  143.1373   81.1092  218.6229 H   0  0  0  0  0  0  0  0  0  0  0  0
  139.6835   79.3078  220.5083 H   0  0  0  0  0  0  0  0  0  0  0  0
  140.1227   77.1764  219.2878 H   0  0  0  0  0  0  0  0  0  0  0  0
  1  2  1  0
  2  3  1  0
  3  4  1  0
  4  5  2  0
  4  6  1  0
  6  7  1  0
  7  8  1  0
  8  9  1  0
  8 10  1  0
 10 11  1  0
 11 12  1  0
 12 13  2  0
 12 14  1  0
 14 15  1  0
 15 16  1  0
 16 17  2  0
 16 18  1  0
 18 19  2  0
 19 20  1  0
 20 21  2  0
 21 22  1  0
 22 23  2  0
 23 24  1  0
 23 25  1  0
 25 26  2  0
 26 27  1  0
 27 28  2  0
  2 29  1  0
 29 30  2  0
 30 31  1  0
 31 32  2  0
 32 33  1  0
 32 34  1  0
 34 35  2  0
 11  6  1  0
 28 18  1  0
 35 29  1  0
 27 21  1  0
  1 36  1  0
  1 37  1  0
  1 38  1  0
  2 39  1  6
  3 40  1  0
  6 41  1  1
  7 42  1  0
  7 43  1  0
  8 44  1  6
  9 45  1  0
 10 46  1  0
 10 47  1  0
 14 48  1  0
 14 49  1  0
 15 50  1  0
 19 51  1  0
 20 52  1  0
 22 53  1  0
 25 54  1  0
 26 55  1  0
 30 56  1  0
 31 57  1  0
 34 58  1  0
 35 59  1  0
M  END
>  <UniqueID>  (14) 
80

>  <SMILES>  (14) 
C[C@@H](NC(=O)[C@@H]1C[C@@H](O)CN1C(=O)CNC(=O)c1ccc2cc(F)ccc2n1)c1ccc(Cl)cc1

>  <Energy>  (14) 
57.892266460593525

>  <Genealogy>  (14) 
C[C@@H](NC(=O)[C@@H]1C[C@@H](O)CN1C(=O)CNC(=O)c1ccc2cc(F)ccc2n1)c1ccc(Cl)cc1 (3D coordinates assigned)
C[C@@H](NC(=O)[C@@H]1C[C@@H](O)CN1C(=O)CNC(=O)c1ccc2cc(F)ccc2n1)c1ccc(Cl)cc1 (nonaromatic ring conformer: 57.892266460593525 kcal/mol)

>  <smiles>  (14) 
C[C@@H](NC(=O)[C@@H]1C[C@@H](O)CN1C(=O)CNC(=O)c1ccc2cc(F)ccc2n1)c1ccc(Cl)cc1

>  <score_type>  (14) 
oracle

>  <origin>  (14) 
autodockgpu

>  <m_score__min__energy>  (14) 
-9.9100000000000001

>  <m_primary>  (14) 
energy

>  <meeko>  (14) 
{"free_energy": -7.49, "intermolecular_energy": -9.87, "internal_energy": -4.29, "cluster_size": 15, "cluster_id": 4, "rank_in_cluster": 4}

>  <energy>  (14) 
-7.31

>  <cluster_rmsd>  (14) 
0.76

>  <rmsd>  (14) 
270.82

>  <cluster>  (14) 
4

$$$$
JDBMCWJIJNWNRF-OEQCPPMUNA-N
     RDKit          3D

 59 62  0  0  0  0  0  0  0  0999 V2000
  142.9670   76.6810  217.0630 C   0  0  0  0  0  0  0  0  0  0  0  0
  143.5660   76.4980  218.4640 C   0  0  1  0  0  0  0  0  0  0  0  0
  142.7920   77.2610  219.4470 N   0  0  0  0  0  0  0  0  0  0  0  0
  141.3560   77.2140  219.5160 C   0  0  0  0  0  0  0  0  0  0  0  0
  140.7060   76.4700  218.7350 O   0  0  0  0  0  0  0  0  0  0  0  0
  140.6020   78.0750  220.4980 C   0  0  2  0  0  0  0  0  0  0  0  0
  141.3950   79.3410  220.8360 C   0  0  0  0  0  0  0  0  0  0  0  0
  142.0110   79.0830  222.2160 C   0  0  1  0  0  0  0  0  0  0  0  0
  142.0910   80.2510  222.9940 O   0  0  0  0  0  0  0  0  0  0  0  0
  141.1390   78.0080  222.8640 C   0  0  0  0  0  0  0  0  0  0  0  0
  140.4060   77.3860  221.7710 N   0  0  0  0  0  0  0  0  0  0  0  0
  139.5390   76.2520  221.9840 C   0  0  0  0  0  0  0  0  0  0  0  0
  138.5230   76.3790  222.7220 O   0  0  0  0  0  0  0  0  0  0  0  0
  139.8130   74.9060  221.3680 C   0  0  0  0  0  0  0  0  0  0  0  0
  139.6170   73.8370  222.3410 N   0  0  0  0  0  0  0  0  0  0  0  0
  140.4360   72.6570  222.3620 C   0  0  0  0  0  0  0  0  0  0  0  0
  141.3230   72.4960  221.4790 O   0  0  0  0  0  0  0  0  0  0  0  0
  140.2470   71.6320  223.4110 C   0  0  0  0  0  0  0  0  0  0  0  0
  139.6070   70.4120  223.1250 C   0  0  0  0  0  0  0  0  0  0  0  0
  139.4380   69.4630  224.1370 C   0  0  0  0  0  0  0  0  0  0  0  0
  139.9080   69.7300  225.4280 C   0  0  0  0  0  0  0  0  0  0  0  0
  139.7530   68.8000  226.4690 C   0  0  0  0  0  0  0  0  0  0  0  0
  140.2360   69.0980  227.7490 C   0  0  0  0  0  0  0  0  0  0  0  0
  140.0820   68.2030  228.7560 F   0  0  0  0  0  0  0  0  0  0  0  0
  140.8750   70.3200  227.9930 C   0  0  0  0  0  0  0  0  0  0  0  0
  141.0330   71.2510  226.9600 C   0  0  0  0  0  0  0  0  0  0  0  0
  140.5520   70.9630  225.6790 C   0  0  0  0  0  0  0  0  0  0  0  0
  140.6990   71.8670  224.6730 N   0  0  0  0  0  0  0  0  0  0  0  0
  143.6030   75.0360  218.8620 C   0  0  0  0  0  0  0  0  0  0  0  0
  143.0660   74.0410  218.0200 C   0  0  0  0  0  0  0  0  0  0  0  0
  143.1040   72.6960  218.3980 C   0  0  0  0  0  0  0  0  0  0  0  0
  143.6700   72.3300  219.6240 C   0  0  0  0  0  0  0  0  0  0  0  0
  143.7250   70.6420  220.0960 Cl  0  0  0  0  0  0  0  0  0  0  0  0
  144.1950   73.3090  220.4730 C   0  0  0  0  0  0  0  0  0  0  0  0
  144.1620   74.6550  220.0950 C   0  0  0  0  0  0  0  0  0  0  0  0
  141.9184   77.0014  217.1515 H   0  0  0  0  0  0  0  0  0  0  0  0
  143.5390   77.4454  216.5166 H   0  0  0  0  0  0  0  0  0  0  0  0
  143.0142   75.7275  216.5166 H   0  0  0  0  0  0  0  0  0  0  0  0
  144.5997   76.8734  218.4404 H   0  0  0  0  0  0  0  0  0  0  0  0
  143.3070   77.9040  220.0880 H   0  0  0  0  0  0  0  0  0  0  0  0
  139.6405   78.3101  220.0181 H   0  0  0  0  0  0  0  0  0  0  0  0
  142.1840   79.5113  220.0887 H   0  0  0  0  0  0  0  0  0  0  0  0
  140.7548   80.2355  220.8359 H   0  0  0  0  0  0  0  0  0  0  0  0
  143.0543   78.7458  222.1279 H   0  0  0  0  0  0  0  0  0  0  0  0
  141.9590   81.0310  222.3900 H   0  0  0  0  0  0  0  0  0  0  0  0
  141.7654   77.2643  223.3783 H   0  0  0  0  0  0  0  0  0  0  0  0
  140.4608   78.4344  223.6178 H   0  0  0  0  0  0  0  0  0  0  0  0
  139.1283   74.7517  220.5211 H   0  0  0  0  0  0  0  0  0  0  0  0
  140.8585   74.8826  221.0269 H   0  0  0  0  0  0  0  0  0  0  0  0
  138.8170   73.9220  223.0080 H   0  0  0  0  0  0  0  0  0  0  0  0
  139.2409   70.2059  222.1084 H   0  0  0  0  0  0  0  0  0  0  0  0
  138.9367   68.5084  223.9193 H   0  0  0  0  0  0  0  0  0  0  0  0
  139.2529   67.8389  226.2790 H   0  0  0  0  0  0  0  0  0  0  0  0
  141.2540   70.5489  228.9999 H   0  0  0  0  0  0  0  0  0  0  0  0
  141.5357   72.2096  227.1559 H   0  0  0  0  0  0  0  0  0  0  0  0
  142.6137   74.3253  217.0584 H   0  0  0  0  0  0  0  0  0  0  0  0
  142.6890   71.9254  217.7317 H   0  0  0  0  0  0  0  0  0  0  0  0
  144.6344   73.0202  221.4392 H   0  0  0  0  0  0  0  0  0  0  0  0
  144.5762   75.4212  220.7668 H   0  0  0  0  0  0  0  0  0  0  0  0
  1  2  1  0
  2  3  1  0
  3  4  1  0
  4  5  2  0
  4  6  1  0
  6  7  1  0
  7  8  1  0
  8  9  1  0
  8 10  1  0
 10 11  1  0
 11 12  1  0
 12 13  2  0
 12 14  1  0
 14 15  1  0
 15 16  1  0
 16 17  2  0
 16 18  1  0
 18 19  2  0
 19 20  1  0
 20 21  2  0
 21 22  1  0
 22 23  2  0
 23 24  1  0
 23 25  1  0
 25 26  2  0
 26 27  1  0
 27 28  2  0
  2 29  1  0
 29 30  2  0
 30 31  1  0
 31 32  2  0
 32 33  1  0
 32 34  1  0
 34 35  2  0
 11  6  1  0
 28 18  1  0
 35 29  1  0
 27 21  1  0
  1 36  1  0
  1 37  1  0
  1 38  1  0
  2 39  1  6
  3 40  1  0
  6 41  1  6
  7 42  1  0
  7 43  1  0
  8 44  1  6
  9 45  1  0
 10 46  1  0
 10 47  1  0
 14 48  1  0
 14 49  1  0
 15 50  1  0
 19 51  1  0
 20 52  1  0
 22 53  1  0
 25 54  1  0
 26 55  1  0
 30 56  1  0
 31 57  1  0
 34 58  1  0
 35 59  1  0
M  END
>  <UniqueID>  (15) 
80

>  <SMILES>  (15) 
C[C@@H](NC(=O)[C@@H]1C[C@@H](O)CN1C(=O)CNC(=O)c1ccc2cc(F)ccc2n1)c1ccc(Cl)cc1

>  <Energy>  (15) 
57.892266460593525

>  <Genealogy>  (15) 
C[C@@H](NC(=O)[C@@H]1C[C@@H](O)CN1C(=O)CNC(=O)c1ccc2cc(F)ccc2n1)c1ccc(Cl)cc1 (3D coordinates assigned)
C[C@@H](NC(=O)[C@@H]1C[C@@H](O)CN1C(=O)CNC(=O)c1ccc2cc(F)ccc2n1)c1ccc(Cl)cc1 (nonaromatic ring conformer: 57.892266460593525 kcal/mol)

>  <smiles>  (15) 
C[C@@H](NC(=O)[C@@H]1C[C@@H](O)CN1C(=O)CNC(=O)c1ccc2cc(F)ccc2n1)c1ccc(Cl)cc1

>  <score_type>  (15) 
oracle

>  <origin>  (15) 
autodockgpu

>  <m_score__min__energy>  (15) 
-9.9100000000000001

>  <m_primary>  (15) 
energy

>  <meeko>  (15) 
{"free_energy": -8.63, "intermolecular_energy": -11.01, "internal_energy": -2.48, "cluster_size": 1, "cluster_id": 2, "rank_in_cluster": 1}

>  <energy>  (15) 
-7.25

>  <cluster_rmsd>  (15) 
0.75

>  <rmsd>  (15) 
270.8

>  <cluster>  (15) 
4

$$$$
JDBMCWJIJNWNRF-OEQCPPMUNA-N
     RDKit          3D

 59 62  0  0  0  0  0  0  0  0999 V2000
  136.3490   77.4090  221.3130 C   0  0  0  0  0  0  0  0  0  0  0  0
  136.8280   75.9520  221.3170 C   0  0  1  0  0  0  0  0  0  0  0  0
  138.2900   75.9030  221.4210 N   0  0  0  0  0  0  0  0  0  0  0  0
  139.0370   76.7280  222.3320 C   0  0  0  0  0  0  0  0  0  0  0  0
  138.4380   77.5140  223.1130 O   0  0  0  0  0  0  0  0  0  0  0  0
  140.5440   76.6930  222.3470 C   0  0  2  0  0  0  0  0  0  0  0  0
  141.1130   77.9360  223.0360 C   0  0  0  0  0  0  0  0  0  0  0  0
  141.5880   78.8530  221.9030 C   0  0  1  0  0  0  0  0  0  0  0  0
  142.7360   79.5860  222.2530 O   0  0  0  0  0  0  0  0  0  0  0  0
  141.8220   77.9390  220.7010 C   0  0  0  0  0  0  0  0  0  0  0  0
  141.0910   76.7140  220.9910 N   0  0  0  0  0  0  0  0  0  0  0  0
  140.9990   75.6370  220.0360 C   0  0  0  0  0  0  0  0  0  0  0  0
  140.1450   75.7020  219.1080 O   0  0  0  0  0  0  0  0  0  0  0  0
  141.8780   74.4170  220.1150 C   0  0  0  0  0  0  0  0  0  0  0  0
  141.5210   73.5910  221.2640 N   0  0  0  0  0  0  0  0  0  0  0  0
  140.1930   73.0790  221.4580 C   0  0  0  0  0  0  0  0  0  0  0  0
  139.2770   73.3920  220.6490 O   0  0  0  0  0  0  0  0  0  0  0  0
  139.8940   72.1870  222.5990 C   0  0  0  0  0  0  0  0  0  0  0  0
  138.8080   71.2930  222.5550 C   0  0  0  0  0  0  0  0  0  0  0  0
  138.5470   70.4650  223.6490 C   0  0  0  0  0  0  0  0  0  0  0  0
  139.3670   70.5260  224.7820 C   0  0  0  0  0  0  0  0  0  0  0  0
  139.1310   69.7100  225.9000 C   0  0  0  0  0  0  0  0  0  0  0  0
  139.9710   69.7960  227.0160 C   0  0  0  0  0  0  0  0  0  0  0  0
  139.7420   69.0120  228.0990 F   0  0  0  0  0  0  0  0  0  0  0  0
  141.0480   70.6920  227.0200 C   0  0  0  0  0  0  0  0  0  0  0  0
  141.2880   71.5080  225.9090 C   0  0  0  0  0  0  0  0  0  0  0  0
  140.4520   71.4310  224.7900 C   0  0  0  0  0  0  0  0  0  0  0  0
  140.6800   72.2260  223.7100 N   0  0  0  0  0  0  0  0  0  0  0  0
  136.2070   75.1690  222.4560 C   0  0  0  0  0  0  0  0  0  0  0  0
  136.1060   73.7640  222.4000 C   0  0  0  0  0  0  0  0  0  0  0  0
  135.5310   73.0520  223.4560 C   0  0  0  0  0  0  0  0  0  0  0  0
  135.0400   73.7340  224.5750 C   0  0  0  0  0  0  0  0  0  0  0  0
  134.3240   72.8410  225.9030 Cl  0  0  0  0  0  0  0  0  0  0  0  0
  135.1240   75.1290  224.6360 C   0  0  0  0  0  0  0  0  0  0  0  0
  135.7040   75.8440  223.5830 C   0  0  0  0  0  0  0  0  0  0  0  0
  136.2336   77.7599  222.3491 H   0  0  0  0  0  0  0  0  0  0  0  0
  137.0881   78.0365  220.7935 H   0  0  0  0  0  0  0  0  0  0  0  0
  135.3817   77.4755  220.7935 H   0  0  0  0  0  0  0  0  0  0  0  0
  136.5108   75.4904  220.3703 H   0  0  0  0  0  0  0  0  0  0  0  0
  138.8100   75.2780  220.7650 H   0  0  0  0  0  0  0  0  0  0  0  0
  140.8201   75.7693  222.8767 H   0  0  0  0  0  0  0  0  0  0  0  0
  140.3350   78.4343  223.6330 H   0  0  0  0  0  0  0  0  0  0  0  0
  141.9322   77.6812  223.7245 H   0  0  0  0  0  0  0  0  0  0  0  0
  140.8362   79.6225  221.6735 H   0  0  0  0  0  0  0  0  0  0  0  0
  143.5330   79.0580  221.9760 H   0  0  0  0  0  0  0  0  0  0  0  0
  141.4378   78.4069  219.7826 H   0  0  0  0  0  0  0  0  0  0  0  0
  142.8928   77.7450  220.5402 H   0  0  0  0  0  0  0  0  0  0  0  0
  141.7572   73.8259  219.1952 H   0  0  0  0  0  0  0  0  0  0  0  0
  142.9224   74.7432  220.2278 H   0  0  0  0  0  0  0  0  0  0  0  0
  142.2530   73.4160  221.9890 H   0  0  0  0  0  0  0  0  0  0  0  0
  138.1671   71.2465  221.6622 H   0  0  0  0  0  0  0  0  0  0  0  0
  137.6982   69.7659  223.6204 H   0  0  0  0  0  0  0  0  0  0  0  0
  138.2872   69.0043  225.8987 H   0  0  0  0  0  0  0  0  0  0  0  0
  141.7066   70.7542  227.8988 H   0  0  0  0  0  0  0  0  0  0  0  0
  142.1345   72.2104  225.9155 H   0  0  0  0  0  0  0  0  0  0  0  0
  136.4826   73.2242  221.5186 H   0  0  0  0  0  0  0  0  0  0  0  0
  135.4643   71.9551  223.4077 H   0  0  0  0  0  0  0  0  0  0  0  0
  134.7332   75.6647  225.5137 H   0  0  0  0  0  0  0  0  0  0  0  0
  135.7672   76.9409  223.6365 H   0  0  0  0  0  0  0  0  0  0  0  0
  1  2  1  0
  2  3  1  0
  3  4  1  0
  4  5  2  0
  4  6  1  0
  6  7  1  0
  7  8  1  0
  8  9  1  0
  8 10  1  0
 10 11  1  0
 11 12  1  0
 12 13  2  0
 12 14  1  0
 14 15  1  0
 15 16  1  0
 16 17  2  0
 16 18  1  0
 18 19  2  0
 19 20  1  0
 20 21  2  0
 21 22  1  0
 22 23  2  0
 23 24  1  0
 23 25  1  0
 25 26  2  0
 26 27  1  0
 27 28  2  0
  2 29  1  0
 29 30  2  0
 30 31  1  0
 31 32  2  0
 32 33  1  0
 32 34  1  0
 34 35  2  0
 11  6  1  0
 28 18  1  0
 35 29  1  0
 27 21  1  0
  1 36  1  0
  1 37  1  0
  1 38  1  0
  2 39  1  6
  3 40  1  0
  6 41  1  1
  7 42  1  0
  7 43  1  0
  8 44  1  6
  9 45  1  0
 10 46  1  0
 10 47  1  0
 14 48  1  0
 14 49  1  0
 15 50  1  0
 19 51  1  0
 20 52  1  0
 22 53  1  0
 25 54  1  0
 26 55  1  0
 30 56  1  0
 31 57  1  0
 34 58  1  0
 35 59  1  0
M  END
>  <UniqueID>  (16) 
80

>  <SMILES>  (16) 
C[C@@H](NC(=O)[C@@H]1C[C@@H](O)CN1C(=O)CNC(=O)c1ccc2cc(F)ccc2n1)c1ccc(Cl)cc1

>  <Energy>  (16) 
57.892266460593525

>  <Genealogy>  (16) 
C[C@@H](NC(=O)[C@@H]1C[C@@H](O)CN1C(=O)CNC(=O)c1ccc2cc(F)ccc2n1)c1ccc(Cl)cc1 (3D coordinates assigned)
C[C@@H](NC(=O)[C@@H]1C[C@@H](O)CN1C(=O)CNC(=O)c1ccc2cc(F)ccc2n1)c1ccc(Cl)cc1 (nonaromatic ring conformer: 57.892266460593525 kcal/mol)

>  <smiles>  (16) 
C[C@@H](NC(=O)[C@@H]1C[C@@H](O)CN1C(=O)CNC(=O)c1ccc2cc(F)ccc2n1)c1ccc(Cl)cc1

>  <score_type>  (16) 
oracle

>  <origin>  (16) 
autodockgpu

>  <m_score__min__energy>  (16) 
-9.9100000000000001

>  <m_primary>  (16) 
energy

>  <meeko>  (16) 
{"free_energy": -6.79, "intermolecular_energy": -9.18, "internal_energy": -4.12, "cluster_size": 1, "cluster_id": 5, "rank_in_cluster": 1}

>  <energy>  (16) 
-6.94

>  <cluster_rmsd>  (16) 
1.48

>  <rmsd>  (16) 
269.84

>  <cluster>  (16) 
4

$$$$
JDBMCWJIJNWNRF-OEQCPPMUNA-N
     RDKit          3D

 59 62  0  0  0  0  0  0  0  0999 V2000
  142.9410   78.1910  217.6410 C   0  0  0  0  0  0  0  0  0  0  0  0
  141.8590   77.8230  218.6640 C   0  0  1  0  0  0  0  0  0  0  0  0
  142.4020   76.8950  219.6600 N   0  0  0  0  0  0  0  0  0  0  0  0
  142.7320   75.5290  219.3570 C   0  0  0  0  0  0  0  0  0  0  0  0
  142.5920   75.0860  218.1860 O   0  0  0  0  0  0  0  0  0  0  0  0
  143.2170   74.5940  220.4360 C   0  0  2  0  0  0  0  0  0  0  0  0
  144.7460   74.5190  220.4480 C   0  0  0  0  0  0  0  0  0  0  0  0
  145.0980   73.1950  219.7600 C   0  0  1  0  0  0  0  0  0  0  0  0
  146.2450   72.5960  220.3080 O   0  0  0  0  0  0  0  0  0  0  0  0
  143.8570   72.3150  219.8960 C   0  0  0  0  0  0  0  0  0  0  0  0
  142.7620   73.2250  220.1990 N   0  0  0  0  0  0  0  0  0  0  0  0
  141.3980   72.7670  220.3100 C   0  0  0  0  0  0  0  0  0  0  0  0
  140.8950   72.0880  219.3710 O   0  0  0  0  0  0  0  0  0  0  0  0
  140.5390   73.0870  221.5030 C   0  0  0  0  0  0  0  0  0  0  0  0
  140.7590   74.4580  221.9520 N   0  0  0  0  0  0  0  0  0  0  0  0
  139.7540   75.4770  221.8280 C   0  0  0  0  0  0  0  0  0  0  0  0
  138.6590   75.2100  221.2610 O   0  0  0  0  0  0  0  0  0  0  0  0
  139.9960   76.8350  222.3610 C   0  0  0  0  0  0  0  0  0  0  0  0
  138.9360   77.6190  222.8530 C   0  0  0  0  0  0  0  0  0  0  0  0
  139.1930   78.9010  223.3470 C   0  0  0  0  0  0  0  0  0  0  0  0
  140.5020   79.3960  223.3540 C   0  0  0  0  0  0  0  0  0  0  0  0
  140.7960   80.6800  223.8410 C   0  0  0  0  0  0  0  0  0  0  0  0
  142.1160   81.1440  223.8340 C   0  0  0  0  0  0  0  0  0  0  0  0
  142.4000   82.3860  224.3000 F   0  0  0  0  0  0  0  0  0  0  0  0
  143.1460   80.3310  223.3440 C   0  0  0  0  0  0  0  0  0  0  0  0
  142.8610   79.0500  222.8580 C   0  0  0  0  0  0  0  0  0  0  0  0
  141.5430   78.5790  222.8590 C   0  0  0  0  0  0  0  0  0  0  0  0
  141.2610   77.3360  222.3810 N   0  0  0  0  0  0  0  0  0  0  0  0
  141.3110   79.0550  219.3560 C   0  0  0  0  0  0  0  0  0  0  0  0
  139.9470   79.1470  219.6990 C   0  0  0  0  0  0  0  0  0  0  0  0
  139.4520   80.2890  220.3370 C   0  0  0  0  0  0  0  0  0  0  0  0
  140.3100   81.3550  220.6290 C   0  0  0  0  0  0  0  0  0  0  0  0
  139.6920   82.7840  221.4340 Cl  0  0  0  0  0  0  0  0  0  0  0  0
  141.6620   81.2790  220.2820 C   0  0  0  0  0  0  0  0  0  0  0  0
  142.1620   80.1360  219.6480 C   0  0  0  0  0  0  0  0  0  0  0  0
  143.8545   78.5017  218.1692 H   0  0  0  0  0  0  0  0  0  0  0  0
  143.1614   77.3173  217.0101 H   0  0  0  0  0  0  0  0  0  0  0  0
  142.5830   79.0179  217.0101 H   0  0  0  0  0  0  0  0  0  0  0  0
  141.0337   77.3382  218.1219 H   0  0  0  0  0  0  0  0  0  0  0  0
  142.5030   77.2320  220.6440 H   0  0  0  0  0  0  0  0  0  0  0  0
  142.8192   74.9911  221.3816 H   0  0  0  0  0  0  0  0  0  0  0  0
  145.1766   75.3662  219.8940 H   0  0  0  0  0  0  0  0  0  0  0  0
  145.1483   74.5664  221.4707 H   0  0  0  0  0  0  0  0  0  0  0  0
  145.3555   73.3532  218.7023 H   0  0  0  0  0  0  0  0  0  0  0  0
  145.9480   71.8900  220.9450 H   0  0  0  0  0  0  0  0  0  0  0  0
  143.6616   71.7791  218.9555 H   0  0  0  0  0  0  0  0  0  0  0  0
  143.9821   71.5540  220.6803 H   0  0  0  0  0  0  0  0  0  0  0  0
  139.4810   72.9637  221.2282 H   0  0  0  0  0  0  0  0  0  0  0  0
  140.8063   72.4025  222.3216 H   0  0  0  0  0  0  0  0  0  0  0  0
  141.7020   74.7050  222.3280 H   0  0  0  0  0  0  0  0  0  0  0  0
  137.9092   77.2245  222.8488 H   0  0  0  0  0  0  0  0  0  0  0  0
  138.3679   79.5197  223.7296 H   0  0  0  0  0  0  0  0  0  0  0  0
  139.9894   81.3203  224.2276 H   0  0  0  0  0  0  0  0  0  0  0  0
  144.1820   80.7006  223.3412 H   0  0  0  0  0  0  0  0  0  0  0  0
  143.6725   78.4135  222.4754 H   0  0  0  0  0  0  0  0  0  0  0  0
  139.2672   78.3150  219.4633 H   0  0  0  0  0  0  0  0  0  0  0  0
  138.3879   80.3491  220.6093 H   0  0  0  0  0  0  0  0  0  0  0  0
  142.3345   82.1197  220.5078 H   0  0  0  0  0  0  0  0  0  0  0  0
  143.2266   80.0827  219.3765 H   0  0  0  0  0  0  0  0  0  0  0  0
  1  2  1  0
  2  3  1  0
  3  4  1  0
  4  5  2  0
  4  6  1  0
  6  7  1  0
  7  8  1  0
  8  9  1  0
  8 10  1  0
 10 11  1  0
 11 12  1  0
 12 13  2  0
 12 14  1  0
 14 15  1  0
 15 16  1  0
 16 17  2  0
 16 18  1  0
 18 19  2  0
 19 20  1  0
 20 21  2  0
 21 22  1  0
 22 23  2  0
 23 24  1  0
 23 25  1  0
 25 26  2  0
 26 27  1  0
 27 28  2  0
  2 29  1  0
 29 30  2  0
 30 31  1  0
 31 32  2  0
 32 33  1  0
 32 34  1  0
 34 35  2  0
 11  6  1  0
 28 18  1  0
 35 29  1  0
 27 21  1  0
  1 36  1  0
  1 37  1  0
  1 38  1  0
  2 39  1  6
  3 40  1  0
  6 41  1  1
  7 42  1  0
  7 43  1  0
  8 44  1  6
  9 45  1  0
 10 46  1  0
 10 47  1  0
 14 48  1  0
 14 49  1  0
 15 50  1  0
 19 51  1  0
 20 52  1  0
 22 53  1  0
 25 54  1  0
 26 55  1  0
 30 56  1  0
 31 57  1  0
 34 58  1  0
 35 59  1  0
M  END
>  <UniqueID>  (17) 
80

>  <SMILES>  (17) 
C[C@@H](NC(=O)[C@@H]1C[C@@H](O)CN1C(=O)CNC(=O)c1ccc2cc(F)ccc2n1)c1ccc(Cl)cc1

>  <Energy>  (17) 
57.892266460593525

>  <Genealogy>  (17) 
C[C@@H](NC(=O)[C@@H]1C[C@@H](O)CN1C(=O)CNC(=O)c1ccc2cc(F)ccc2n1)c1ccc(Cl)cc1 (3D coordinates assigned)
C[C@@H](NC(=O)[C@@H]1C[C@@H](O)CN1C(=O)CNC(=O)c1ccc2cc(F)ccc2n1)c1ccc(Cl)cc1 (nonaromatic ring conformer: 57.892266460593525 kcal/mol)

>  <smiles>  (17) 
C[C@@H](NC(=O)[C@@H]1C[C@@H](O)CN1C(=O)CNC(=O)c1ccc2cc(F)ccc2n1)c1ccc(Cl)cc1

>  <score_type>  (17) 
oracle

>  <origin>  (17) 
autodockgpu

>  <m_score__min__energy>  (17) 
-9.9100000000000001

>  <m_primary>  (17) 
energy

>  <meeko>  (17) 
{"free_energy": -7.31, "intermolecular_energy": -9.69, "internal_energy": -4.5, "cluster_size": 15, "cluster_id": 4, "rank_in_cluster": 10}

>  <energy>  (17) 
-6.71

>  <cluster_rmsd>  (17) 
1.12

>  <rmsd>  (17) 
270.47

>  <cluster>  (17) 
4

$$$$
JDBMCWJIJNWNRF-OEQCPPMUNA-N
     RDKit          3D

 59 62  0  0  0  0  0  0  0  0999 V2000
  141.2700   77.3440  218.6710 C   0  0  0  0  0  0  0  0  0  0  0  0
  140.7830   76.9660  220.0760 C   0  0  1  0  0  0  0  0  0  0  0  0
  141.2670   75.6300  220.4340 N   0  0  0  0  0  0  0  0  0  0  0  0
  142.6280   75.2110  220.2300 C   0  0  0  0  0  0  0  0  0  0  0  0
  143.4750   76.0140  219.7560 O   0  0  0  0  0  0  0  0  0  0  0  0
  143.0580   73.8020  220.5470 C   0  0  2  0  0  0  0  0  0  0  0  0
  144.5590   73.7400  220.8430 C   0  0  0  0  0  0  0  0  0  0  0  0
  145.2060   73.1790  219.5720 C   0  0  1  0  0  0  0  0  0  0  0  0
  146.3210   72.3700  219.8510 O   0  0  0  0  0  0  0  0  0  0  0  0
  144.0980   72.4180  218.8450 C   0  0  0  0  0  0  0  0  0  0  0  0
  142.8490   72.9120  219.4060 N   0  0  0  0  0  0  0  0  0  0  0  0
  141.5660   72.4880  218.9000 C   0  0  0  0  0  0  0  0  0  0  0  0
  141.5010   71.9200  217.7740 O   0  0  0  0  0  0  0  0  0  0  0  0
  140.2880   72.7180  219.6610 C   0  0  0  0  0  0  0  0  0  0  0  0
  140.2310   71.8740  220.8510 N   0  0  0  0  0  0  0  0  0  0  0  0
  140.2180   72.4210  222.1800 C   0  0  0  0  0  0  0  0  0  0  0  0
  140.3170   73.6680  222.3440 O   0  0  0  0  0  0  0  0  0  0  0  0
  140.0880   71.5310  223.3540 C   0  0  0  0  0  0  0  0  0  0  0  0
  139.4420   70.2860  223.2510 C   0  0  0  0  0  0  0  0  0  0  0  0
  139.3310   69.4670  224.3770 C   0  0  0  0  0  0  0  0  0  0  0  0
  139.8640   69.8880  225.6010 C   0  0  0  0  0  0  0  0  0  0  0  0
  139.7680   69.0920  226.7540 C   0  0  0  0  0  0  0  0  0  0  0  0
  140.3140   69.5430  227.9610 C   0  0  0  0  0  0  0  0  0  0  0  0
  140.2170   68.7760  229.0770 F   0  0  0  0  0  0  0  0  0  0  0  0
  140.9570   70.7850  228.0230 C   0  0  0  0  0  0  0  0  0  0  0  0
  141.0580   71.5830  226.8780 C   0  0  0  0  0  0  0  0  0  0  0  0
  140.5130   71.1420  225.6670 C   0  0  0  0  0  0  0  0  0  0  0  0
  140.6030   71.9180  224.5530 N   0  0  0  0  0  0  0  0  0  0  0  0
  141.2430   77.9730  221.1100 C   0  0  0  0  0  0  0  0  0  0  0  0
  141.1400   77.6970  222.4880 C   0  0  0  0  0  0  0  0  0  0  0  0
  141.5670   78.6340  223.4330 C   0  0  0  0  0  0  0  0  0  0  0  0
  142.0940   79.8600  223.0140 C   0  0  0  0  0  0  0  0  0  0  0  0
  142.6360   81.0340  224.1990 Cl  0  0  0  0  0  0  0  0  0  0  0  0
  142.1900   80.1510  221.6500 C   0  0  0  0  0  0  0  0  0  0  0  0
  141.7680   79.2130  220.7020 C   0  0  0  0  0  0  0  0  0  0  0  0
  142.1366   78.0166  218.7519 H   0  0  0  0  0  0  0  0  0  0  0  0
  141.5620   76.4337  218.1269 H   0  0  0  0  0  0  0  0  0  0  0  0
  140.4606   77.8527  218.1269 H   0  0  0  0  0  0  0  0  0  0  0  0
  139.6831   76.9667  220.0631 H   0  0  0  0  0  0  0  0  0  0  0  0
  140.5780   74.9390  220.8050 H   0  0  0  0  0  0  0  0  0  0  0  0
  142.4575   73.4910  221.4146 H   0  0  0  0  0  0  0  0  0  0  0  0
  144.9493   74.7450  221.0613 H   0  0  0  0  0  0  0  0  0  0  0  0
  144.7756   73.1136  221.7209 H   0  0  0  0  0  0  0  0  0  0  0  0
  145.6095   73.9857  218.9425 H   0  0  0  0  0  0  0  0  0  0  0  0
  146.1420   71.8830  220.7010 H   0  0  0  0  0  0  0  0  0  0  0  0
  144.1395   72.6193  217.7644 H   0  0  0  0  0  0  0  0  0  0  0  0
  144.1996   71.3304  218.9742 H   0  0  0  0  0  0  0  0  0  0  0  0
  140.2351   73.7737  219.9654 H   0  0  0  0  0  0  0  0  0  0  0  0
  139.4398   72.4633  219.0086 H   0  0  0  0  0  0  0  0  0  0  0  0
  140.2530   70.8380  220.7190 H   0  0  0  0  0  0  0  0  0  0  0  0
  139.0256   69.9584  222.2870 H   0  0  0  0  0  0  0  0  0  0  0  0
  138.8256   68.4929  224.3021 H   0  0  0  0  0  0  0  0  0  0  0  0
  139.2643   68.1152  226.7084 H   0  0  0  0  0  0  0  0  0  0  0  0
  141.3841   71.1346  228.9745 H   0  0  0  0  0  0  0  0  0  0  0  0
  141.5660   72.5573  226.9299 H   0  0  0  0  0  0  0  0  0  0  0  0
  140.7203   76.7368  222.8225 H   0  0  0  0  0  0  0  0  0  0  0  0
  141.4886   78.4072  224.5065 H   0  0  0  0  0  0  0  0  0  0  0  0
  142.5978   81.1185  221.3219 H   0  0  0  0  0  0  0  0  0  0  0  0
  141.8472   79.4464  219.6300 H   0  0  0  0  0  0  0  0  0  0  0  0
  1  2  1  0
  2  3  1  0
  3  4  1  0
  4  5  2  0
  4  6  1  0
  6  7  1  0
  7  8  1  0
  8  9  1  0
  8 10  1  0
 10 11  1  0
 11 12  1  0
 12 13  2  0
 12 14  1  0
 14 15  1  0
 15 16  1  0
 16 17  2  0
 16 18  1  0
 18 19  2  0
 19 20  1  0
 20 21  2  0
 21 22  1  0
 22 23  2  0
 23 24  1  0
 23 25  1  0
 25 26  2  0
 26 27  1  0
 27 28  2  0
  2 29  1  0
 29 30  2  0
 30 31  1  0
 31 32  2  0
 32 33  1  0
 32 34  1  0
 34 35  2  0
 11  6  1  0
 28 18  1  0
 35 29  1  0
 27 21  1  0
  1 36  1  0
  1 37  1  0
  1 38  1  0
  2 39  1  6
  3 40  1  0
  6 41  1  1
  7 42  1  0
  7 43  1  0
  8 44  1  6
  9 45  1  0
 10 46  1  0
 10 47  1  0
 14 48  1  0
 14 49  1  0
 15 50  1  0
 19 51  1  0
 20 52  1  0
 22 53  1  0
 25 54  1  0
 26 55  1  0
 30 56  1  0
 31 57  1  0
 34 58  1  0
 35 59  1  0
M  END
>  <UniqueID>  (18) 
80

>  <SMILES>  (18) 
C[C@@H](NC(=O)[C@@H]1C[C@@H](O)CN1C(=O)CNC(=O)c1ccc2cc(F)ccc2n1)c1ccc(Cl)cc1

>  <Energy>  (18) 
57.892266460593525

>  <Genealogy>  (18) 
C[C@@H](NC(=O)[C@@H]1C[C@@H](O)CN1C(=O)CNC(=O)c1ccc2cc(F)ccc2n1)c1ccc(Cl)cc1 (3D coordinates assigned)
C[C@@H](NC(=O)[C@@H]1C[C@@H](O)CN1C(=O)CNC(=O)c1ccc2cc(F)ccc2n1)c1ccc(Cl)cc1 (nonaromatic ring conformer: 57.892266460593525 kcal/mol)

>  <smiles>  (18) 
C[C@@H](NC(=O)[C@@H]1C[C@@H](O)CN1C(=O)CNC(=O)c1ccc2cc(F)ccc2n1)c1ccc(Cl)cc1

>  <score_type>  (18) 
oracle

>  <origin>  (18) 
autodockgpu

>  <m_score__min__energy>  (18) 
-9.9100000000000001

>  <m_primary>  (18) 
energy

>  <meeko>  (18) 
{"free_energy": -9.91, "intermolecular_energy": -12.29, "internal_energy": -2.6, "cluster_size": 2, "cluster_id": 1, "rank_in_cluster": 1}

>  <energy>  (18) 
-6.68

>  <cluster_rmsd>  (18) 
1.13

>  <rmsd>  (18) 
270.48

>  <cluster>  (18) 
4

$$$$
JDBMCWJIJNWNRF-OEQCPPMUNA-N
     RDKit          3D

 59 62  0  0  0  0  0  0  0  0999 V2000
  142.9510   78.1490  217.6410 C   0  0  0  0  0  0  0  0  0  0  0  0
  141.8600   77.8030  218.6630 C   0  0  1  0  0  0  0  0  0  0  0  0
  142.3860   76.8740  219.6670 N   0  0  0  0  0  0  0  0  0  0  0  0
  142.8470   75.5510  219.3420 C   0  0  0  0  0  0  0  0  0  0  0  0
  142.8440   75.1530  218.1470 O   0  0  0  0  0  0  0  0  0  0  0  0
  143.3100   74.6070  220.4220 C   0  0  2  0  0  0  0  0  0  0  0  0
  144.8380   74.5150  220.4510 C   0  0  0  0  0  0  0  0  0  0  0  0
  145.1820   73.1890  219.7640 C   0  0  1  0  0  0  0  0  0  0  0  0
  146.3150   72.5740  220.3220 O   0  0  0  0  0  0  0  0  0  0  0  0
  143.9280   72.3230  219.8830 C   0  0  0  0  0  0  0  0  0  0  0  0
  142.8410   73.2450  220.1770 N   0  0  0  0  0  0  0  0  0  0  0  0
  141.4710   72.8020  220.2700 C   0  0  0  0  0  0  0  0  0  0  0  0
  140.9770   72.1130  219.3340 O   0  0  0  0  0  0  0  0  0  0  0  0
  140.5940   73.1510  221.4430 C   0  0  0  0  0  0  0  0  0  0  0  0
  140.8240   74.5260  221.8760 N   0  0  0  0  0  0  0  0  0  0  0  0
  139.7800   75.5120  221.8860 C   0  0  0  0  0  0  0  0  0  0  0  0
  138.6320   75.2140  221.4540 O   0  0  0  0  0  0  0  0  0  0  0  0
  140.0420   76.8740  222.3990 C   0  0  0  0  0  0  0  0  0  0  0  0
  138.9930   77.6870  222.8660 C   0  0  0  0  0  0  0  0  0  0  0  0
  139.2690   78.9710  223.3420 C   0  0  0  0  0  0  0  0  0  0  0  0
  140.5870   79.4410  223.3560 C   0  0  0  0  0  0  0  0  0  0  0  0
  140.9010   80.7270  223.8250 C   0  0  0  0  0  0  0  0  0  0  0  0
  142.2300   81.1650  223.8260 C   0  0  0  0  0  0  0  0  0  0  0  0
  142.5330   82.4090  224.2750 F   0  0  0  0  0  0  0  0  0  0  0  0
  143.2490   80.3240  223.3620 C   0  0  0  0  0  0  0  0  0  0  0  0
  142.9440   79.0410  222.8930 C   0  0  0  0  0  0  0  0  0  0  0  0
  141.6180   78.5960  222.8860 C   0  0  0  0  0  0  0  0  0  0  0  0
  141.3170   77.3510  222.4260 N   0  0  0  0  0  0  0  0  0  0  0  0
  141.3270   79.0470  219.3440 C   0  0  0  0  0  0  0  0  0  0  0  0
  139.9640   79.1590  219.6860 C   0  0  0  0  0  0  0  0  0  0  0  0
  139.4830   80.3110  220.3150 C   0  0  0  0  0  0  0  0  0  0  0  0
  140.3540   81.3690  220.5990 C   0  0  0  0  0  0  0  0  0  0  0  0
  139.7530   82.8120  221.3920 Cl  0  0  0  0  0  0  0  0  0  0  0  0
  141.7050   81.2740  220.2520 C   0  0  0  0  0  0  0  0  0  0  0  0
  142.1910   80.1200  219.6280 C   0  0  0  0  0  0  0  0  0  0  0  0
  143.8701   78.4405  218.1704 H   0  0  0  0  0  0  0  0  0  0  0  0
  143.1540   77.2712  217.0100 H   0  0  0  0  0  0  0  0  0  0  0  0
  142.6110   78.9834  217.0100 H   0  0  0  0  0  0  0  0  0  0  0  0
  141.0299   77.3260  218.1214 H   0  0  0  0  0  0  0  0  0  0  0  0
  142.3740   77.1720  220.6680 H   0  0  0  0  0  0  0  0  0  0  0  0
  142.9070   75.0057  221.3647 H   0  0  0  0  0  0  0  0  0  0  0  0
  145.2843   75.3585  219.9038 H   0  0  0  0  0  0  0  0  0  0  0  0
  145.2296   74.5559  221.4781 H   0  0  0  0  0  0  0  0  0  0  0  0
  145.4540   73.3478  218.7101 H   0  0  0  0  0  0  0  0  0  0  0  0
  146.0030   71.8950  220.9800 H   0  0  0  0  0  0  0  0  0  0  0  0
  143.7367   71.7928  218.9384 H   0  0  0  0  0  0  0  0  0  0  0  0
  144.0351   71.5577  220.6659 H   0  0  0  0  0  0  0  0  0  0  0  0
  139.5397   73.0374  221.1505 H   0  0  0  0  0  0  0  0  0  0  0  0
  140.8372   72.4753  222.2763 H   0  0  0  0  0  0  0  0  0  0  0  0
  141.7970   74.8010  222.1360 H   0  0  0  0  0  0  0  0  0  0  0  0
  137.9587   77.3127  222.8563 H   0  0  0  0  0  0  0  0  0  0  0  0
  138.4517   79.6115  223.7052 H   0  0  0  0  0  0  0  0  0  0  0  0
  140.1028   81.3894  224.1913 H   0  0  0  0  0  0  0  0  0  0  0  0
  144.2922   80.6727  223.3661 H   0  0  0  0  0  0  0  0  0  0  0  0
  143.7470   78.3827  222.5300 H   0  0  0  0  0  0  0  0  0  0  0  0
  139.2739   78.3338  219.4562 H   0  0  0  0  0  0  0  0  0  0  0  0
  138.4197   80.3859  220.5868 H   0  0  0  0  0  0  0  0  0  0  0  0
  142.3875   82.1086  220.4701 H   0  0  0  0  0  0  0  0  0  0  0  0
  143.2551   80.0514  219.3579 H   0  0  0  0  0  0  0  0  0  0  0  0
  1  2  1  0
  2  3  1  0
  3  4  1  0
  4  5  2  0
  4  6  1  0
  6  7  1  0
  7  8  1  0
  8  9  1  0
  8 10  1  0
 10 11  1  0
 11 12  1  0
 12 13  2  0
 12 14  1  0
 14 15  1  0
 15 16  1  0
 16 17  2  0
 16 18  1  0
 18 19  2  0
 19 20  1  0
 20 21  2  0
 21 22  1  0
 22 23  2  0
 23 24  1  0
 23 25  1  0
 25 26  2  0
 26 27  1  0
 27 28  2  0
  2 29  1  0
 29 30  2  0
 30 31  1  0
 31 32  2  0
 32 33  1  0
 32 34  1  0
 34 35  2  0
 11  6  1  0
 28 18  1  0
 35 29  1  0
 27 21  1  0
  1 36  1  0
  1 37  1  0
  1 38  1  0
  2 39  1  6
  3 40  1  0
  6 41  1  1
  7 42  1  0
  7 43  1  0
  8 44  1  6
  9 45  1  0
 10 46  1  0
 10 47  1  0
 14 48  1  0
 14 49  1  0
 15 50  1  0
 19 51  1  0
 20 52  1  0
 22 53  1  0
 25 54  1  0
 26 55  1  0
 30 56  1  0
 31 57  1  0
 34 58  1  0
 35 59  1  0
M  END
>  <UniqueID>  (19) 
80

>  <SMILES>  (19) 
C[C@@H](NC(=O)[C@@H]1C[C@@H](O)CN1C(=O)CNC(=O)c1ccc2cc(F)ccc2n1)c1ccc(Cl)cc1

>  <Energy>  (19) 
57.892266460593525

>  <Genealogy>  (19) 
C[C@@H](NC(=O)[C@@H]1C[C@@H](O)CN1C(=O)CNC(=O)c1ccc2cc(F)ccc2n1)c1ccc(Cl)cc1 (3D coordinates assigned)
C[C@@H](NC(=O)[C@@H]1C[C@@H](O)CN1C(=O)CNC(=O)c1ccc2cc(F)ccc2n1)c1ccc(Cl)cc1 (nonaromatic ring conformer: 57.892266460593525 kcal/mol)

>  <smiles>  (19) 
C[C@@H](NC(=O)[C@@H]1C[C@@H](O)CN1C(=O)CNC(=O)c1ccc2cc(F)ccc2n1)c1ccc(Cl)cc1

>  <score_type>  (19) 
oracle

>  <origin>  (19) 
autodockgpu

>  <m_score__min__energy>  (19) 
-9.9100000000000001

>  <m_primary>  (19) 
energy

>  <meeko>  (19) 
{"free_energy": -7.36, "intermolecular_energy": -9.75, "internal_energy": -4.49, "cluster_size": 15, "cluster_id": 4, "rank_in_cluster": 7}

>  <energy>  (19) 
-6.61

>  <cluster_rmsd>  (19) 
1.96

>  <rmsd>  (19) 
270.43

>  <cluster>  (19) 
4

$$$$
JDBMCWJIJNWNRF-OEQCPPMUNA-N
     RDKit          3D

 59 62  0  0  0  0  0  0  0  0999 V2000
  142.6370   76.8550  216.7120 C   0  0  0  0  0  0  0  0  0  0  0  0
  141.5280   76.7400  217.7660 C   0  0  1  0  0  0  0  0  0  0  0  0
  141.8570   75.6860  218.7300 N   0  0  0  0  0  0  0  0  0  0  0  0
  143.0880   75.6640  219.4750 C   0  0  0  0  0  0  0  0  0  0  0  0
  143.9270   76.5940  219.3410 O   0  0  0  0  0  0  0  0  0  0  0  0
  143.4110   74.5190  220.3990 C   0  0  2  0  0  0  0  0  0  0  0  0
  144.9210   74.2750  220.4630 C   0  0  0  0  0  0  0  0  0  0  0  0
  145.1780   73.0510  219.5780 C   0  0  1  0  0  0  0  0  0  0  0  0
  146.2230   72.2470  220.0650 O   0  0  0  0  0  0  0  0  0  0  0  0
  143.8470   72.3020  219.5100 C   0  0  0  0  0  0  0  0  0  0  0  0
  142.8340   73.2650  219.9160 N   0  0  0  0  0  0  0  0  0  0  0  0
  141.4260   72.9470  219.8890 C   0  0  0  0  0  0  0  0  0  0  0  0
  140.8980   72.5660  218.8080 O   0  0  0  0  0  0  0  0  0  0  0  0
  140.5530   73.0730  221.1090 C   0  0  0  0  0  0  0  0  0  0  0  0
  140.7090   74.3850  221.7290 N   0  0  0  0  0  0  0  0  0  0  0  0
  140.1020   75.5690  221.1860 C   0  0  0  0  0  0  0  0  0  0  0  0
  139.4560   75.5010  220.1050 O   0  0  0  0  0  0  0  0  0  0  0  0
  140.2290   76.8640  221.8880 C   0  0  0  0  0  0  0  0  0  0  0  0
  139.1060   77.4940  222.4550 C   0  0  0  0  0  0  0  0  0  0  0  0
  139.2540   78.7200  223.1090 C   0  0  0  0  0  0  0  0  0  0  0  0
  140.5190   79.3130  223.2000 C   0  0  0  0  0  0  0  0  0  0  0  0
  140.7040   80.5450  223.8470 C   0  0  0  0  0  0  0  0  0  0  0  0
  141.9820   81.1100  223.9210 C   0  0  0  0  0  0  0  0  0  0  0  0
  142.1610   82.3020  224.5430 F   0  0  0  0  0  0  0  0  0  0  0  0
  143.0780   80.4480  223.3530 C   0  0  0  0  0  0  0  0  0  0  0  0
  142.9010   79.2200  222.7060 C   0  0  0  0  0  0  0  0  0  0  0  0
  141.6260   78.6490  222.6250 C   0  0  0  0  0  0  0  0  0  0  0  0
  141.4490   77.4580  221.9930 N   0  0  0  0  0  0  0  0  0  0  0  0
  141.3190   78.0530  218.4920 C   0  0  0  0  0  0  0  0  0  0  0  0
  140.0640   78.3860  219.0410 C   0  0  0  0  0  0  0  0  0  0  0  0
  139.8820   79.6010  219.7090 C   0  0  0  0  0  0  0  0  0  0  0  0
  140.9460   80.5000  219.8280 C   0  0  0  0  0  0  0  0  0  0  0  0
  140.7210   82.0210  220.6710 Cl  0  0  0  0  0  0  0  0  0  0  0  0
  142.1920   80.1860  219.2770 C   0  0  0  0  0  0  0  0  0  0  0  0
  142.3790   78.9700  218.6120 C   0  0  0  0  0  0  0  0  0  0  0  0
  143.6107   76.9560  217.2138 H   0  0  0  0  0  0  0  0  0  0  0  0
  142.6403   75.9524  216.0833 H   0  0  0  0  0  0  0  0  0  0  0  0
  142.4551   77.7391  216.0833 H   0  0  0  0  0  0  0  0  0  0  0  0
  140.5932   76.4829  217.2463 H   0  0  0  0  0  0  0  0  0  0  0  0
  141.1880   74.8920  218.8390 H   0  0  0  0  0  0  0  0  0  0  0  0
  143.0003   74.7984  221.3805 H   0  0  0  0  0  0  0  0  0  0  0  0
  145.4678   75.1486  220.0785 H   0  0  0  0  0  0  0  0  0  0  0  0
  145.2635   74.1103  221.4953 H   0  0  0  0  0  0  0  0  0  0  0  0
  145.5144   73.3511  218.5746 H   0  0  0  0  0  0  0  0  0  0  0  0
  145.9500   71.8960  220.9550 H   0  0  0  0  0  0  0  0  0  0  0  0
  143.6552   71.9524  218.4848 H   0  0  0  0  0  0  0  0  0  0  0  0
  143.8467   71.4135  220.1585 H   0  0  0  0  0  0  0  0  0  0  0  0
  139.5018   72.9365  220.8151 H   0  0  0  0  0  0  0  0  0  0  0  0
  140.8523   72.3035  221.8358 H   0  0  0  0  0  0  0  0  0  0  0  0
  141.3280   74.4600  222.5670 H   0  0  0  0  0  0  0  0  0  0  0  0
  138.1145   77.0229  222.3837 H   0  0  0  0  0  0  0  0  0  0  0  0
  138.3786   79.2180  223.5513 H   0  0  0  0  0  0  0  0  0  0  0  0
  139.8451   81.0657  224.2954 H   0  0  0  0  0  0  0  0  0  0  0  0
  144.0811   80.8950  223.4158 H   0  0  0  0  0  0  0  0  0  0  0  0
  143.7642   78.7034  222.2610 H   0  0  0  0  0  0  0  0  0  0  0  0
  139.2219   77.6851  218.9432 H   0  0  0  0  0  0  0  0  0  0  0  0
  138.9013   79.8494  220.1410 H   0  0  0  0  0  0  0  0  0  0  0  0
  143.0268   80.8967  219.3667 H   0  0  0  0  0  0  0  0  0  0  0  0
  143.3615   78.7290  218.1799 H   0  0  0  0  0  0  0  0  0  0  0  0
  1  2  1  0
  2  3  1  0
  3  4  1  0
  4  5  2  0
  4  6  1  0
  6  7  1  0
  7  8  1  0
  8  9  1  0
  8 10  1  0
 10 11  1  0
 11 12  1  0
 12 13  2  0
 12 14  1  0
 14 15  1  0
 15 16  1  0
 16 17  2  0
 16 18  1  0
 18 19  2  0
 19 20  1  0
 20 21  2  0
 21 22  1  0
 22 23  2  0
 23 24  1  0
 23 25  1  0
 25 26  2  0
 26 27  1  0
 27 28  2  0
  2 29  1  0
 29 30  2  0
 30 31  1  0
 31 32  2  0
 32 33  1  0
 32 34  1  0
 34 35  2  0
 11  6  1  0
 28 18  1  0
 35 29  1  0
 27 21  1  0
  1 36  1  0
  1 37  1  0
  1 38  1  0
  2 39  1  6
  3 40  1  0
  6 41  1  1
  7 42  1  0
  7 43  1  0
  8 44  1  6
  9 45  1  0
 10 46  1  0
 10 47  1  0
 14 48  1  0
 14 49  1  0
 15 50  1  0
 19 51  1  0
 20 52  1  0
 22 53  1  0
 25 54  1  0
 26 55  1  0
 30 56  1  0
 31 57  1  0
 34 58  1  0
 35 59  1  0
M  END
>  <UniqueID>  (20) 
80

>  <SMILES>  (20) 
C[C@@H](NC(=O)[C@@H]1C[C@@H](O)CN1C(=O)CNC(=O)c1ccc2cc(F)ccc2n1)c1ccc(Cl)cc1

>  <Energy>  (20) 
57.892266460593525

>  <Genealogy>  (20) 
C[C@@H](NC(=O)[C@@H]1C[C@@H](O)CN1C(=O)CNC(=O)c1ccc2cc(F)ccc2n1)c1ccc(Cl)cc1 (3D coordinates assigned)
C[C@@H](NC(=O)[C@@H]1C[C@@H](O)CN1C(=O)CNC(=O)c1ccc2cc(F)ccc2n1)c1ccc(Cl)cc1 (nonaromatic ring conformer: 57.892266460593525 kcal/mol)

>  <smiles>  (20) 
C[C@@H](NC(=O)[C@@H]1C[C@@H](O)CN1C(=O)CNC(=O)c1ccc2cc(F)ccc2n1)c1ccc(Cl)cc1

>  <score_type>  (20) 
oracle

>  <origin>  (20) 
autodockgpu

>  <m_score__min__energy>  (20) 
-9.9100000000000001

>  <m_primary>  (20) 
energy

>  <meeko>  (20) 
{"free_energy": -6.71, "intermolecular_energy": -9.09, "internal_energy": -5.0, "cluster_size": 15, "cluster_id": 4, "rank_in_cluster": 13}

>  <energy>  (20) 
-6.79

>  <cluster_rmsd>  (20) 
0.0

>  <rmsd>  (20) 
270.22

>  <cluster>  (20) 
5

$$$$
JDBMCWJIJNWNRF-OEQCPPMUNA-N
     RDKit          3D

 59 62  0  0  0  0  0  0  0  0999 V2000
  143.3410   76.7870  216.5960 C   0  0  0  0  0  0  0  0  0  0  0  0
  142.1590   76.6340  217.5610 C   0  0  1  0  0  0  0  0  0  0  0  0
  142.4250   75.5530  218.5160 N   0  0  0  0  0  0  0  0  0  0  0  0
  143.4120   75.6560  219.5570 C   0  0  0  0  0  0  0  0  0  0  0  0
  144.0720   76.7190  219.7040 O   0  0  0  0  0  0  0  0  0  0  0  0
  143.6990   74.4880  220.4660 C   0  0  2  0  0  0  0  0  0  0  0  0
  145.1890   74.1370  220.4520 C   0  0  0  0  0  0  0  0  0  0  0  0
  145.3100   72.8980  219.5570 C   0  0  1  0  0  0  0  0  0  0  0  0
  146.3190   72.0200  219.9910 O   0  0  0  0  0  0  0  0  0  0  0  0
  143.9270   72.2470  219.5610 C   0  0  0  0  0  0  0  0  0  0  0  0
  143.0090   73.2810  220.0170 N   0  0  0  0  0  0  0  0  0  0  0  0
  141.5830   73.0650  220.0640 C   0  0  0  0  0  0  0  0  0  0  0  0
  140.9880   72.6300  219.0390 O   0  0  0  0  0  0  0  0  0  0  0  0
  140.7680   73.3620  221.2940 C   0  0  0  0  0  0  0  0  0  0  0  0
  140.9750   74.7360  221.7390 N   0  0  0  0  0  0  0  0  0  0  0  0
  139.8940   75.6730  221.8680 C   0  0  0  0  0  0  0  0  0  0  0  0
  138.7270   75.3320  221.5340 O   0  0  0  0  0  0  0  0  0  0  0  0
  140.1420   77.0340  222.3900 C   0  0  0  0  0  0  0  0  0  0  0  0
  139.0810   77.8430  222.8380 C   0  0  0  0  0  0  0  0  0  0  0  0
  139.3440   79.1270  223.3230 C   0  0  0  0  0  0  0  0  0  0  0  0
  140.6610   79.6000  223.3640 C   0  0  0  0  0  0  0  0  0  0  0  0
  140.9610   80.8860  223.8430 C   0  0  0  0  0  0  0  0  0  0  0  0
  142.2880   81.3280  223.8720 C   0  0  0  0  0  0  0  0  0  0  0  0
  142.5780   82.5720  224.3300 F   0  0  0  0  0  0  0  0  0  0  0  0
  143.3190   80.4910  223.4260 C   0  0  0  0  0  0  0  0  0  0  0  0
  143.0270   79.2080  222.9480 C   0  0  0  0  0  0  0  0  0  0  0  0
  141.7030   78.7590  222.9130 C   0  0  0  0  0  0  0  0  0  0  0  0
  141.4150   77.5150  222.4440 N   0  0  0  0  0  0  0  0  0  0  0  0
  141.8850   77.9230  218.3090 C   0  0  0  0  0  0  0  0  0  0  0  0
  140.7700   78.0440  219.1620 C   0  0  0  0  0  0  0  0  0  0  0  0
  140.5270   79.2390  219.8460 C   0  0  0  0  0  0  0  0  0  0  0  0
  141.3880   80.3280  219.6790 C   0  0  0  0  0  0  0  0  0  0  0  0
  141.0880   81.8250  220.5420 Cl  0  0  0  0  0  0  0  0  0  0  0  0
  142.4910   80.2240  218.8260 C   0  0  0  0  0  0  0  0  0  0  0  0
  142.7390   79.0290  218.1440 C   0  0  0  0  0  0  0  0  0  0  0  0
  144.2708   76.9074  217.1713 H   0  0  0  0  0  0  0  0  0  0  0  0
  143.4153   75.8910  215.9623 H   0  0  0  0  0  0  0  0  0  0  0  0
  143.1847   77.6724  215.9623 H   0  0  0  0  0  0  0  0  0  0  0  0
  141.2677   76.3874  216.9653 H   0  0  0  0  0  0  0  0  0  0  0  0
  141.9080   74.6530  218.3980 H   0  0  0  0  0  0  0  0  0  0  0  0
  143.3607   74.7936  221.4671 H   0  0  0  0  0  0  0  0  0  0  0  0
  145.7761   74.9696  220.0372 H   0  0  0  0  0  0  0  0  0  0  0  0
  145.5730   73.9474  221.4652 H   0  0  0  0  0  0  0  0  0  0  0  0
  145.6135   73.1742  218.5364 H   0  0  0  0  0  0  0  0  0  0  0  0
  146.0820   71.7090  220.9060 H   0  0  0  0  0  0  0  0  0  0  0  0
  143.6569   71.9131  218.5483 H   0  0  0  0  0  0  0  0  0  0  0  0
  143.8965   71.3601  220.2109 H   0  0  0  0  0  0  0  0  0  0  0  0
  139.7025   73.2151  221.0637 H   0  0  0  0  0  0  0  0  0  0  0  0
  141.0858   72.6816  222.0978 H   0  0  0  0  0  0  0  0  0  0  0  0
  141.9560   75.0500  221.9180 H   0  0  0  0  0  0  0  0  0  0  0  0
  138.0481   77.4659  222.8065 H   0  0  0  0  0  0  0  0  0  0  0  0
  138.5182   79.7645  223.6717 H   0  0  0  0  0  0  0  0  0  0  0  0
  140.1534   81.5448  224.1949 H   0  0  0  0  0  0  0  0  0  0  0  0
  144.3609   80.8429  223.4514 H   0  0  0  0  0  0  0  0  0  0  0  0
  143.8392   78.5529  222.5999 H   0  0  0  0  0  0  0  0  0  0  0  0
  140.0859   77.1923  219.2907 H   0  0  0  0  0  0  0  0  0  0  0  0
  139.6583   79.3225  220.5156 H   0  0  0  0  0  0  0  0  0  0  0  0
  143.1644   81.0833  218.6914 H   0  0  0  0  0  0  0  0  0  0  0  0
  143.6079   78.9529  217.4737 H   0  0  0  0  0  0  0  0  0  0  0  0
  1  2  1  0
  2  3  1  0
  3  4  1  0
  4  5  2  0
  4  6  1  0
  6  7  1  0
  7  8  1  0
  8  9  1  0
  8 10  1  0
 10 11  1  0
 11 12  1  0
 12 13  2  0
 12 14  1  0
 14 15  1  0
 15 16  1  0
 16 17  2  0
 16 18  1  0
 18 19  2  0
 19 20  1  0
 20 21  2  0
 21 22  1  0
 22 23  2  0
 23 24  1  0
 23 25  1  0
 25 26  2  0
 26 27  1  0
 27 28  2  0
  2 29  1  0
 29 30  2  0
 30 31  1  0
 31 32  2  0
 32 33  1  0
 32 34  1  0
 34 35  2  0
 11  6  1  0
 28 18  1  0
 35 29  1  0
 27 21  1  0
  1 36  1  0
  1 37  1  0
  1 38  1  0
  2 39  1  6
  3 40  1  0
  6 41  1  1
  7 42  1  0
  7 43  1  0
  8 44  1  6
  9 45  1  0
 10 46  1  0
 10 47  1  0
 14 48  1  0
 14 49  1  0
 15 50  1  0
 19 51  1  0
 20 52  1  0
 22 53  1  0
 25 54  1  0
 26 55  1  0
 30 56  1  0
 31 57  1  0
 34 58  1  0
 35 59  1  0
M  END
>  <UniqueID>  (21) 
81

>  <SMILES>  (21) 
C[C@@H](NC(=O)[C@@H]1C[C@@H](O)CN1C(=O)CNC(=O)c1ccc2cc(F)ccc2n1)c1ccc(Cl)cc1

>  <Energy>  (21) 
59.84674722814225

>  <Genealogy>  (21) 
C[C@@H](NC(=O)[C@@H]1C[C@@H](O)CN1C(=O)CNC(=O)c1ccc2cc(F)ccc2n1)c1ccc(Cl)cc1 (3D coordinates assigned)
C[C@@H](NC(=O)[C@@H]1C[C@@H](O)CN1C(=O)CNC(=O)c1ccc2cc(F)ccc2n1)c1ccc(Cl)cc1 (nonaromatic ring conformer: 59.84674722814225 kcal/mol)

>  <smiles>  (21) 
C[C@@H](NC(=O)[C@@H]1C[C@@H](O)CN1C(=O)CNC(=O)c1ccc2cc(F)ccc2n1)c1ccc(Cl)cc1

>  <score_type>  (21) 
oracle

>  <origin>  (21) 
autodockgpu

>  <m_score__min__energy>  (21) 
-9.9100000000000001

>  <m_primary>  (21) 
energy

>  <meeko>  (21) 
{"free_energy": -7.49, "intermolecular_energy": -9.88, "internal_energy": -4.3, "cluster_size": 15, "cluster_id": 4, "rank_in_cluster": 2}

>  <energy>  (21) 
-9.91

>  <cluster_rmsd>  (21) 
0.0

>  <rmsd>  (21) 
270.7

>  <cluster>  (21) 
1

$$$$
JDBMCWJIJNWNRF-OEQCPPMUNA-N
     RDKit          3D

 59 62  0  0  0  0  0  0  0  0999 V2000
  142.9750   78.1000  217.4820 C   0  0  0  0  0  0  0  0  0  0  0  0
  141.8850   77.7720  218.5110 C   0  0  1  0  0  0  0  0  0  0  0  0
  142.4060   76.8410  219.5160 N   0  0  0  0  0  0  0  0  0  0  0  0
  142.8670   75.5180  219.1910 C   0  0  0  0  0  0  0  0  0  0  0  0
  142.8700   75.1220  217.9950 O   0  0  0  0  0  0  0  0  0  0  0  0
  143.3240   74.5720  220.2730 C   0  0  2  0  0  0  0  0  0  0  0  0
  144.8440   74.3950  220.2390 C   0  0  0  0  0  0  0  0  0  0  0  0
  145.0840   73.0380  219.5680 C   0  0  1  0  0  0  0  0  0  0  0  0
  146.2050   72.3720  220.0920 O   0  0  0  0  0  0  0  0  0  0  0  0
  143.7910   72.2460  219.7600 C   0  0  0  0  0  0  0  0  0  0  0  0
  142.7700   73.2330  220.0780 N   0  0  0  0  0  0  0  0  0  0  0  0
  141.3830   72.8700  220.2400 C   0  0  0  0  0  0  0  0  0  0  0  0
  141.0900   71.7880  220.8200 O   0  0  0  0  0  0  0  0  0  0  0  0
  140.2630   73.7310  219.7190 C   0  0  0  0  0  0  0  0  0  0  0  0
  140.3290   75.0730  220.2880 N   0  0  0  0  0  0  0  0  0  0  0  0
  140.0070   75.3410  221.6630 C   0  0  0  0  0  0  0  0  0  0  0  0
  139.5960   74.4060  222.4030 O   0  0  0  0  0  0  0  0  0  0  0  0
  140.1570   76.7050  222.2140 C   0  0  0  0  0  0  0  0  0  0  0  0
  139.0460   77.4100  222.7140 C   0  0  0  0  0  0  0  0  0  0  0  0
  139.2160   78.6990  223.2250 C   0  0  0  0  0  0  0  0  0  0  0  0
  140.4880   79.2810  223.2410 C   0  0  0  0  0  0  0  0  0  0  0  0
  140.6950   80.5750  223.7450 C   0  0  0  0  0  0  0  0  0  0  0  0
  141.9810   81.1280  223.7470 C   0  0  0  0  0  0  0  0  0  0  0  0
  142.1800   82.3800  224.2290 F   0  0  0  0  0  0  0  0  0  0  0  0
  143.0630   80.3920  223.2480 C   0  0  0  0  0  0  0  0  0  0  0  0
  142.8650   79.1010  222.7450 C   0  0  0  0  0  0  0  0  0  0  0  0
  141.5830   78.5430  222.7370 C   0  0  0  0  0  0  0  0  0  0  0  0
  141.3850   77.2900  222.2430 N   0  0  0  0  0  0  0  0  0  0  0  0
  141.3700   79.0250  219.1900 C   0  0  0  0  0  0  0  0  0  0  0  0
  142.2160   80.1310  219.4080 C   0  0  0  0  0  0  0  0  0  0  0  0
  141.7300   81.2820  220.0360 C   0  0  0  0  0  0  0  0  0  0  0  0
  140.3990   81.3370  220.4620 C   0  0  0  0  0  0  0  0  0  0  0  0
  139.7870   82.7830  221.2440 Cl  0  0  0  0  0  0  0  0  0  0  0  0
  139.5540   80.2410  220.2620 C   0  0  0  0  0  0  0  0  0  0  0  0
  140.0360   79.0900  219.6300 C   0  0  0  0  0  0  0  0  0  0  0  0
  143.9014   78.3788  218.0054 H   0  0  0  0  0  0  0  0  0  0  0  0
  143.1613   77.2181  216.8514 H   0  0  0  0  0  0  0  0  0  0  0  0
  142.6437   78.9382  216.8514 H   0  0  0  0  0  0  0  0  0  0  0  0
  141.0460   77.3034  217.9757 H   0  0  0  0  0  0  0  0  0  0  0  0
  142.3890   77.1370  220.5170 H   0  0  0  0  0  0  0  0  0  0  0  0
  142.9855   75.0117  221.2228 H   0  0  0  0  0  0  0  0  0  0  0  0
  145.3118   75.2009  219.6544 H   0  0  0  0  0  0  0  0  0  0  0  0
  145.2818   74.4345  221.2473 H   0  0  0  0  0  0  0  0  0  0  0  0
  145.3177   73.1598  218.5000 H   0  0  0  0  0  0  0  0  0  0  0  0
  145.9170   71.8810  220.9090 H   0  0  0  0  0  0  0  0  0  0  0  0
  143.5301   71.7076  218.8370 H   0  0  0  0  0  0  0  0  0  0  0  0
  143.8899   71.4925  220.5553 H   0  0  0  0  0  0  0  0  0  0  0  0
  140.3415   73.8000  218.6240 H   0  0  0  0  0  0  0  0  0  0  0  0
  139.3051   73.2738  220.0079 H   0  0  0  0  0  0  0  0  0  0  0  0
  140.5700   75.8640  219.6510 H   0  0  0  0  0  0  0  0  0  0  0  0
  138.0479   76.9478  222.7024 H   0  0  0  0  0  0  0  0  0  0  0  0
  138.3508   79.2556  223.6143 H   0  0  0  0  0  0  0  0  0  0  0  0
  139.8466   81.1543  224.1383 H   0  0  0  0  0  0  0  0  0  0  0  0
  144.0720   80.8301  223.2514 H   0  0  0  0  0  0  0  0  0  0  0  0
  143.7179   78.5254  222.3560 H   0  0  0  0  0  0  0  0  0  0  0  0
  143.2657   80.0885  219.0819 H   0  0  0  0  0  0  0  0  0  0  0  0
  142.3945   82.1441  220.1949 H   0  0  0  0  0  0  0  0  0  0  0  0
  138.5088   80.2840  220.6021 H   0  0  0  0  0  0  0  0  0  0  0  0
  139.3673   78.2302  219.4762 H   0  0  0  0  0  0  0  0  0  0  0  0
  1  2  1  0
  2  3  1  0
  3  4  1  0
  4  5  2  0
  4  6  1  0
  6  7  1  0
  7  8  1  0
  8  9  1  0
  8 10  1  0
 10 11  1  0
 11 12  1  0
 12 13  2  0
 12 14  1  0
 14 15  1  0
 15 16  1  0
 16 17  2  0
 16 18  1  0
 18 19  2  0
 19 20  1  0
 20 21  2  0
 21 22  1  0
 22 23  2  0
 23 24  1  0
 23 25  1  0
 25 26  2  0
 26 27  1  0
 27 28  2  0
  2 29  1  0
 29 30  2  0
 30 31  1  0
 31 32  2  0
 32 33  1  0
 32 34  1  0
 34 35  2  0
 11  6  1  0
 28 18  1  0
 35 29  1  0
 27 21  1  0
  1 36  1  0
  1 37  1  0
  1 38  1  0
  2 39  1  6
  3 40  1  0
  6 41  1  1
  7 42  1  0
  7 43  1  0
  8 44  1  6
  9 45  1  0
 10 46  1  0
 10 47  1  0
 14 48  1  0
 14 49  1  0
 15 50  1  0
 19 51  1  0
 20 52  1  0
 22 53  1  0
 25 54  1  0
 26 55  1  0
 30 56  1  0
 31 57  1  0
 34 58  1  0
 35 59  1  0
M  END
>  <UniqueID>  (22) 
81

>  <SMILES>  (22) 
C[C@@H](NC(=O)[C@@H]1C[C@@H](O)CN1C(=O)CNC(=O)c1ccc2cc(F)ccc2n1)c1ccc(Cl)cc1

>  <Energy>  (22) 
59.84674722814225

>  <Genealogy>  (22) 
C[C@@H](NC(=O)[C@@H]1C[C@@H](O)CN1C(=O)CNC(=O)c1ccc2cc(F)ccc2n1)c1ccc(Cl)cc1 (3D coordinates assigned)
C[C@@H](NC(=O)[C@@H]1C[C@@H](O)CN1C(=O)CNC(=O)c1ccc2cc(F)ccc2n1)c1ccc(Cl)cc1 (nonaromatic ring conformer: 59.84674722814225 kcal/mol)

>  <smiles>  (22) 
C[C@@H](NC(=O)[C@@H]1C[C@@H](O)CN1C(=O)CNC(=O)c1ccc2cc(F)ccc2n1)c1ccc(Cl)cc1

>  <score_type>  (22) 
oracle

>  <origin>  (22) 
autodockgpu

>  <m_score__min__energy>  (22) 
-9.9100000000000001

>  <m_primary>  (22) 
energy

>  <meeko>  (22) 
{"free_energy": -7.55, "intermolecular_energy": -9.93, "internal_energy": -4.35, "cluster_size": 15, "cluster_id": 4, "rank_in_cluster": 1}

>  <energy>  (22) 
-9.08

>  <cluster_rmsd>  (22) 
1.05

>  <rmsd>  (22) 
270.85

>  <cluster>  (22) 
1

$$$$
JDBMCWJIJNWNRF-OEQCPPMUNA-N
     RDKit          3D

 59 62  0  0  0  0  0  0  0  0999 V2000
  143.3640   76.8000  216.5690 C   0  0  0  0  0  0  0  0  0  0  0  0
  142.1730   76.6470  217.5240 C   0  0  1  0  0  0  0  0  0  0  0  0
  142.4310   75.5670  218.4820 N   0  0  0  0  0  0  0  0  0  0  0  0
  143.4030   75.6740  219.5370 C   0  0  0  0  0  0  0  0  0  0  0  0
  144.0540   76.7410  219.6940 O   0  0  0  0  0  0  0  0  0  0  0  0
  143.6830   74.5080  220.4490 C   0  0  2  0  0  0  0  0  0  0  0  0
  145.1770   74.1720  220.4660 C   0  0  0  0  0  0  0  0  0  0  0  0
  145.3300   72.9370  219.5710 C   0  0  1  0  0  0  0  0  0  0  0  0
  146.3390   72.0690  220.0230 O   0  0  0  0  0  0  0  0  0  0  0  0
  143.9550   72.2720  219.5440 C   0  0  0  0  0  0  0  0  0  0  0  0
  143.0160   73.2940  219.9820 N   0  0  0  0  0  0  0  0  0  0  0  0
  141.5910   73.0630  220.0000 C   0  0  0  0  0  0  0  0  0  0  0  0
  141.0230   72.6190  218.9630 O   0  0  0  0  0  0  0  0  0  0  0  0
  140.7460   73.3530  221.2110 C   0  0  0  0  0  0  0  0  0  0  0  0
  140.9480   74.7230  221.6720 N   0  0  0  0  0  0  0  0  0  0  0  0
  139.8620   75.6530  221.8150 C   0  0  0  0  0  0  0  0  0  0  0  0
  138.6960   75.3080  221.4800 O   0  0  0  0  0  0  0  0  0  0  0  0
  140.1040   77.0090  222.3520 C   0  0  0  0  0  0  0  0  0  0  0  0
  139.0400   77.8060  222.8130 C   0  0  0  0  0  0  0  0  0  0  0  0
  139.2970   79.0850  223.3120 C   0  0  0  0  0  0  0  0  0  0  0  0
  140.6100   79.5660  223.3550 C   0  0  0  0  0  0  0  0  0  0  0  0
  140.9050   80.8470  223.8480 C   0  0  0  0  0  0  0  0  0  0  0  0
  142.2300   81.2970  223.8780 C   0  0  0  0  0  0  0  0  0  0  0  0
  142.5140   82.5370  224.3500 F   0  0  0  0  0  0  0  0  0  0  0  0
  143.2640   80.4710  223.4190 C   0  0  0  0  0  0  0  0  0  0  0  0
  142.9780   79.1930  222.9270 C   0  0  0  0  0  0  0  0  0  0  0  0
  141.6560   78.7370  222.8910 C   0  0  0  0  0  0  0  0  0  0  0  0
  141.3730   77.4960  222.4080 N   0  0  0  0  0  0  0  0  0  0  0  0
  141.8920   77.9360  218.2690 C   0  0  0  0  0  0  0  0  0  0  0  0
  140.7980   78.0410  219.1510 C   0  0  0  0  0  0  0  0  0  0  0  0
  140.5480   79.2360  219.8320 C   0  0  0  0  0  0  0  0  0  0  0  0
  141.3810   80.3430  219.6330 C   0  0  0  0  0  0  0  0  0  0  0  0
  141.0720   81.8400  220.4920 Cl  0  0  0  0  0  0  0  0  0  0  0  0
  142.4620   80.2540  218.7500 C   0  0  0  0  0  0  0  0  0  0  0  0
  142.7170   79.0590  218.0710 C   0  0  0  0  0  0  0  0  0  0  0  0
  144.2889   76.9188  217.1525 H   0  0  0  0  0  0  0  0  0  0  0  0
  143.4429   75.9046  215.9349 H   0  0  0  0  0  0  0  0  0  0  0  0
  143.2141   77.6863  215.9349 H   0  0  0  0  0  0  0  0  0  0  0  0
  141.2873   76.3997  216.9204 H   0  0  0  0  0  0  0  0  0  0  0  0
  141.9210   74.6650  218.3550 H   0  0  0  0  0  0  0  0  0  0  0  0
  143.3202   74.8082  221.4431 H   0  0  0  0  0  0  0  0  0  0  0  0
  145.7643   75.0117  220.0660 H   0  0  0  0  0  0  0  0  0  0  0  0
  145.5410   73.9835  221.4868 H   0  0  0  0  0  0  0  0  0  0  0  0
  145.6520   73.2191  218.5577 H   0  0  0  0  0  0  0  0  0  0  0  0
  146.1480   71.8470  220.9750 H   0  0  0  0  0  0  0  0  0  0  0  0
  143.7104   71.9375  218.5250 H   0  0  0  0  0  0  0  0  0  0  0  0
  143.9203   71.3836  220.1918 H   0  0  0  0  0  0  0  0  0  0  0  0
  139.6861   73.2128  220.9524 H   0  0  0  0  0  0  0  0  0  0  0  0
  141.0395   72.6644  222.0170 H   0  0  0  0  0  0  0  0  0  0  0  0
  141.9270   75.0410  221.8510 H   0  0  0  0  0  0  0  0  0  0  0  0
  138.0093   77.4231  222.7805 H   0  0  0  0  0  0  0  0  0  0  0  0
  138.4682   79.7131  223.6706 H   0  0  0  0  0  0  0  0  0  0  0  0
  140.0950   81.4969  224.2106 H   0  0  0  0  0  0  0  0  0  0  0  0
  144.3040   80.8283  223.4455 H   0  0  0  0  0  0  0  0  0  0  0  0
  143.7927   78.5467  222.5684 H   0  0  0  0  0  0  0  0  0  0  0  0
  140.1358   77.1762  219.3048 H   0  0  0  0  0  0  0  0  0  0  0  0
  139.6963   79.3063  220.5245 H   0  0  0  0  0  0  0  0  0  0  0  0
  143.1129   81.1261  218.5895 H   0  0  0  0  0  0  0  0  0  0  0  0
  143.5683   78.9959  217.3772 H   0  0  0  0  0  0  0  0  0  0  0  0
  1  2  1  0
  2  3  1  0
  3  4  1  0
  4  5  2  0
  4  6  1  0
  6  7  1  0
  7  8  1  0
  8  9  1  0
  8 10  1  0
 10 11  1  0
 11 12  1  0
 12 13  2  0
 12 14  1  0
 14 15  1  0
 15 16  1  0
 16 17  2  0
 16 18  1  0
 18 19  2  0
 19 20  1  0
 20 21  2  0
 21 22  1  0
 22 23  2  0
 23 24  1  0
 23 25  1  0
 25 26  2  0
 26 27  1  0
 27 28  2  0
  2 29  1  0
 29 30  2  0
 30 31  1  0
 31 32  2  0
 32 33  1  0
 32 34  1  0
 34 35  2  0
 11  6  1  0
 28 18  1  0
 35 29  1  0
 27 21  1  0
  1 36  1  0
  1 37  1  0
  1 38  1  0
  2 39  1  6
  3 40  1  0
  6 41  1  1
  7 42  1  0
  7 43  1  0
  8 44  1  6
  9 45  1  0
 10 46  1  0
 10 47  1  0
 14 48  1  0
 14 49  1  0
 15 50  1  0
 19 51  1  0
 20 52  1  0
 22 53  1  0
 25 54  1  0
 26 55  1  0
 30 56  1  0
 31 57  1  0
 34 58  1  0
 35 59  1  0
M  END
>  <UniqueID>  (23) 
81

>  <SMILES>  (23) 
C[C@@H](NC(=O)[C@@H]1C[C@@H](O)CN1C(=O)CNC(=O)c1ccc2cc(F)ccc2n1)c1ccc(Cl)cc1

>  <Energy>  (23) 
59.84674722814225

>  <Genealogy>  (23) 
C[C@@H](NC(=O)[C@@H]1C[C@@H](O)CN1C(=O)CNC(=O)c1ccc2cc(F)ccc2n1)c1ccc(Cl)cc1 (3D coordinates assigned)
C[C@@H](NC(=O)[C@@H]1C[C@@H](O)CN1C(=O)CNC(=O)c1ccc2cc(F)ccc2n1)c1ccc(Cl)cc1 (nonaromatic ring conformer: 59.84674722814225 kcal/mol)

>  <smiles>  (23) 
C[C@@H](NC(=O)[C@@H]1C[C@@H](O)CN1C(=O)CNC(=O)c1ccc2cc(F)ccc2n1)c1ccc(Cl)cc1

>  <score_type>  (23) 
oracle

>  <origin>  (23) 
autodockgpu

>  <m_score__min__energy>  (23) 
-9.9100000000000001

>  <m_primary>  (23) 
energy

>  <meeko>  (23) 
{"free_energy": -7.49, "intermolecular_energy": -9.88, "internal_energy": -4.27, "cluster_size": 15, "cluster_id": 4, "rank_in_cluster": 3}

>  <energy>  (23) 
-8.63

>  <cluster_rmsd>  (23) 
0.0

>  <rmsd>  (23) 
270.62

>  <cluster>  (23) 
2

$$$$
JDBMCWJIJNWNRF-OEQCPPMUNA-N
     RDKit          3D

 59 62  0  0  0  0  0  0  0  0999 V2000
  141.2100   75.3490  221.1510 C   0  0  0  0  0  0  0  0  0  0  0  0
  140.6050   76.6950  220.7320 C   0  0  1  0  0  0  0  0  0  0  0  0
  139.1420   76.6380  220.8170 N   0  0  0  0  0  0  0  0  0  0  0  0
  138.4470   75.8940  221.8330 C   0  0  0  0  0  0  0  0  0  0  0  0
  139.0930   75.2800  222.7240 O   0  0  0  0  0  0  0  0  0  0  0  0
  136.9430   75.8070  221.8320 C   0  0  2  0  0  0  0  0  0  0  0  0
  136.3530   76.5070  223.0590 C   0  0  0  0  0  0  0  0  0  0  0  0
  135.9750   75.3830  224.0310 C   0  0  1  0  0  0  0  0  0  0  0  0
  134.8220   75.6850  224.7760 O   0  0  0  0  0  0  0  0  0  0  0  0
  135.8040   74.1320  223.1710 C   0  0  0  0  0  0  0  0  0  0  0  0
  136.4890   74.4200  221.9190 N   0  0  0  0  0  0  0  0  0  0  0  0
  136.6230   73.4290  220.8790 C   0  0  0  0  0  0  0  0  0  0  0  0
  135.6810   73.2650  220.0540 O   0  0  0  0  0  0  0  0  0  0  0  0
  137.8470   72.5610  220.7500 C   0  0  0  0  0  0  0  0  0  0  0  0
  138.4400   72.3000  222.0580 N   0  0  0  0  0  0  0  0  0  0  0  0
  138.6450   70.9680  222.5550 C   0  0  0  0  0  0  0  0  0  0  0  0
  138.2510   69.9790  221.8780 O   0  0  0  0  0  0  0  0  0  0  0  0
  139.3140   70.7490  223.8560 C   0  0  0  0  0  0  0  0  0  0  0  0
  140.0870   71.7620  224.4520 C   0  0  0  0  0  0  0  0  0  0  0  0
  140.7120   71.5270  225.6790 C   0  0  0  0  0  0  0  0  0  0  0  0
  140.5630   70.2870  226.3100 C   0  0  0  0  0  0  0  0  0  0  0  0
  141.1790   70.0150  227.5430 C   0  0  0  0  0  0  0  0  0  0  0  0
  141.0090   68.7640  228.1480 C   0  0  0  0  0  0  0  0  0  0  0  0
  141.6080   68.4990  229.3360 F   0  0  0  0  0  0  0  0  0  0  0  0
  140.2250   67.7830  227.5280 C   0  0  0  0  0  0  0  0  0  0  0  0
  139.6080   68.0470  226.3000 C   0  0  0  0  0  0  0  0  0  0  0  0
  139.7750   69.2940  225.6870 C   0  0  0  0  0  0  0  0  0  0  0  0
  139.1810   69.5520  224.4900 N   0  0  0  0  0  0  0  0  0  0  0  0
  141.1250   77.8280  221.5930 C   0  0  0  0  0  0  0  0  0  0  0  0
  141.6770   78.9870  221.0110 C   0  0  0  0  0  0  0  0  0  0  0  0
  142.1550   80.0260  221.8160 C   0  0  0  0  0  0  0  0  0  0  0  0
  142.0950   79.9150  223.2090 C   0  0  0  0  0  0  0  0  0  0  0  0
  142.6880   81.2200  224.2190 Cl  0  0  0  0  0  0  0  0  0  0  0  0
  141.5610   78.7650  223.7980 C   0  0  0  0  0  0  0  0  0  0  0  0
  141.0780   77.7260  222.9950 C   0  0  0  0  0  0  0  0  0  0  0  0
  141.2385   75.2857  222.2488 H   0  0  0  0  0  0  0  0  0  0  0  0
  140.5935   74.5299  220.7523 H   0  0  0  0  0  0  0  0  0  0  0  0
  142.2319   75.2663  220.7523 H   0  0  0  0  0  0  0  0  0  0  0  0
  140.9056   76.8898  219.6920 H   0  0  0  0  0  0  0  0  0  0  0  0
  138.5860   77.1180  220.0740 H   0  0  0  0  0  0  0  0  0  0  0  0
  136.6139   76.2789  220.8944 H   0  0  0  0  0  0  0  0  0  0  0  0
  137.0980   77.1753  223.5154 H   0  0  0  0  0  0  0  0  0  0  0  0
  135.4838   77.1276  222.7956 H   0  0  0  0  0  0  0  0  0  0  0  0
  136.7565   75.2359  224.7910 H   0  0  0  0  0  0  0  0  0  0  0  0
  134.0910   75.0840  224.4670 H   0  0  0  0  0  0  0  0  0  0  0  0
  136.2586   73.2610  223.6657 H   0  0  0  0  0  0  0  0  0  0  0  0
  134.7428   73.8923  223.0082 H   0  0  0  0  0  0  0  0  0  0  0  0
  137.5633   71.6049  220.2858 H   0  0  0  0  0  0  0  0  0  0  0  0
  138.5863   73.0858  220.1271 H   0  0  0  0  0  0  0  0  0  0  0  0
  138.6720   73.1190  222.6630 H   0  0  0  0  0  0  0  0  0  0  0  0
  140.1990   72.7361  223.9534 H   0  0  0  0  0  0  0  0  0  0  0  0
  141.3198   72.3148  226.1480 H   0  0  0  0  0  0  0  0  0  0  0  0
  141.7943   70.7842  228.0326 H   0  0  0  0  0  0  0  0  0  0  0  0
  140.0938   66.8019  228.0078 H   0  0  0  0  0  0  0  0  0  0  0  0
  138.9919   67.2745  225.8166 H   0  0  0  0  0  0  0  0  0  0  0  0
  141.7322   79.0749  219.9159 H   0  0  0  0  0  0  0  0  0  0  0  0
  142.5780   80.9301  221.3538 H   0  0  0  0  0  0  0  0  0  0  0  0
  141.5205   78.6769  224.8937 H   0  0  0  0  0  0  0  0  0  0  0  0
  140.6587   76.8233  223.4633 H   0  0  0  0  0  0  0  0  0  0  0  0
  1  2  1  0
  2  3  1  0
  3  4  1  0
  4  5  2  0
  4  6  1  0
  6  7  1  0
  7  8  1  0
  8  9  1  0
  8 10  1  0
 10 11  1  0
 11 12  1  0
 12 13  2  0
 12 14  1  0
 14 15  1  0
 15 16  1  0
 16 17  2  0
 16 18  1  0
 18 19  2  0
 19 20  1  0
 20 21  2  0
 21 22  1  0
 22 23  2  0
 23 24  1  0
 23 25  1  0
 25 26  2  0
 26 27  1  0
 27 28  2  0
  2 29  1  0
 29 30  2  0
 30 31  1  0
 31 32  2  0
 32 33  1  0
 32 34  1  0
 34 35  2  0
 11  6  1  0
 28 18  1  0
 35 29  1  0
 27 21  1  0
  1 36  1  0
  1 37  1  0
  1 38  1  0
  2 39  1  6
  3 40  1  0
  6 41  1  6
  7 42  1  0
  7 43  1  0
  8 44  1  1
  9 45  1  0
 10 46  1  0
 10 47  1  0
 14 48  1  0
 14 49  1  0
 15 50  1  0
 19 51  1  0
 20 52  1  0
 22 53  1  0
 25 54  1  0
 26 55  1  0
 30 56  1  0
 31 57  1  0
 34 58  1  0
 35 59  1  0
M  END
>  <UniqueID>  (24) 
81

>  <SMILES>  (24) 
C[C@@H](NC(=O)[C@@H]1C[C@@H](O)CN1C(=O)CNC(=O)c1ccc2cc(F)ccc2n1)c1ccc(Cl)cc1

>  <Energy>  (24) 
59.84674722814225

>  <Genealogy>  (24) 
C[C@@H](NC(=O)[C@@H]1C[C@@H](O)CN1C(=O)CNC(=O)c1ccc2cc(F)ccc2n1)c1ccc(Cl)cc1 (3D coordinates assigned)
C[C@@H](NC(=O)[C@@H]1C[C@@H](O)CN1C(=O)CNC(=O)c1ccc2cc(F)ccc2n1)c1ccc(Cl)cc1 (nonaromatic ring conformer: 59.84674722814225 kcal/mol)

>  <smiles>  (24) 
C[C@@H](NC(=O)[C@@H]1C[C@@H](O)CN1C(=O)CNC(=O)c1ccc2cc(F)ccc2n1)c1ccc(Cl)cc1

>  <score_type>  (24) 
oracle

>  <origin>  (24) 
autodockgpu

>  <m_score__min__energy>  (24) 
-9.9100000000000001

>  <m_primary>  (24) 
energy

>  <meeko>  (24) 
{"free_energy": -8.25, "intermolecular_energy": -10.64, "internal_energy": -2.37, "cluster_size": 1, "cluster_id": 3, "rank_in_cluster": 1}

>  <energy>  (24) 
-8.25

>  <cluster_rmsd>  (24) 
0.0

>  <rmsd>  (24) 
270.43

>  <cluster>  (24) 
3

$$$$
JDBMCWJIJNWNRF-OEQCPPMUNA-N
     RDKit          3D

 59 62  0  0  0  0  0  0  0  0999 V2000
  142.4730   76.7980  216.6780 C   0  0  0  0  0  0  0  0  0  0  0  0
  141.4180   76.7230  217.7890 C   0  0  1  0  0  0  0  0  0  0  0  0
  141.7730   75.6780  218.7530 N   0  0  0  0  0  0  0  0  0  0  0  0
  143.0210   75.6650  219.4680 C   0  0  0  0  0  0  0  0  0  0  0  0
  143.8540   76.5970  219.3070 O   0  0  0  0  0  0  0  0  0  0  0  0
  143.3700   74.5270  220.3920 C   0  0  2  0  0  0  0  0  0  0  0  0
  144.8790   74.2720  220.4010 C   0  0  0  0  0  0  0  0  0  0  0  0
  145.0920   73.0350  219.5210 C   0  0  1  0  0  0  0  0  0  0  0  0
  146.1490   72.2280  219.9760 O   0  0  0  0  0  0  0  0  0  0  0  0
  143.7540   72.2970  219.5130 C   0  0  0  0  0  0  0  0  0  0  0  0
  142.7650   73.2740  219.9460 N   0  0  0  0  0  0  0  0  0  0  0  0
  141.3550   72.9680  219.9770 C   0  0  0  0  0  0  0  0  0  0  0  0
  140.7800   72.5890  218.9190 O   0  0  0  0  0  0  0  0  0  0  0  0
  140.5330   73.1030  221.2310 C   0  0  0  0  0  0  0  0  0  0  0  0
  140.7020   74.4240  221.8260 N   0  0  0  0  0  0  0  0  0  0  0  0
  140.0930   75.6010  221.2710 C   0  0  0  0  0  0  0  0  0  0  0  0
  139.4320   75.5170  220.2000 O   0  0  0  0  0  0  0  0  0  0  0  0
  140.2340   76.9080  221.9480 C   0  0  0  0  0  0  0  0  0  0  0  0
  139.1160   77.5690  222.4870 C   0  0  0  0  0  0  0  0  0  0  0  0
  139.2780   78.8050  223.1190 C   0  0  0  0  0  0  0  0  0  0  0  0
  140.5520   79.3770  223.2150 C   0  0  0  0  0  0  0  0  0  0  0  0
  140.7520   80.6180  223.8400 C   0  0  0  0  0  0  0  0  0  0  0  0
  142.0390   81.1610  223.9200 C   0  0  0  0  0  0  0  0  0  0  0  0
  142.2320   82.3630  224.5190 F   0  0  0  0  0  0  0  0  0  0  0  0
  143.1300   80.4690  223.3790 C   0  0  0  0  0  0  0  0  0  0  0  0
  142.9390   79.2310  222.7550 C   0  0  0  0  0  0  0  0  0  0  0  0
  141.6550   78.6820  222.6680 C   0  0  0  0  0  0  0  0  0  0  0  0
  141.4640   77.4810  222.0570 N   0  0  0  0  0  0  0  0  0  0  0  0
  141.2730   78.0520  218.5030 C   0  0  0  0  0  0  0  0  0  0  0  0
  142.3590   78.9440  218.6040 C   0  0  0  0  0  0  0  0  0  0  0  0
  142.2140   80.1670  219.2660 C   0  0  0  0  0  0  0  0  0  0  0  0
  140.9860   80.5080  219.8440 C   0  0  0  0  0  0  0  0  0  0  0  0
  140.8010   82.0440  220.6690 Cl  0  0  0  0  0  0  0  0  0  0  0  0
  139.9050   79.6250  219.7620 C   0  0  0  0  0  0  0  0  0  0  0  0
  140.0460   78.4030  219.0950 C   0  0  0  0  0  0  0  0  0  0  0  0
  143.4744   76.8692  217.1275 H   0  0  0  0  0  0  0  0  0  0  0  0
  142.4143   75.8934  216.0549 H   0  0  0  0  0  0  0  0  0  0  0  0
  142.2869   77.6852  216.0549 H   0  0  0  0  0  0  0  0  0  0  0  0
  140.4533   76.4771  217.3211 H   0  0  0  0  0  0  0  0  0  0  0  0
  141.1100   74.8820  218.8830 H   0  0  0  0  0  0  0  0  0  0  0  0
  142.9995   74.8198  221.3855 H   0  0  0  0  0  0  0  0  0  0  0  0
  145.4172   75.1366  219.9852 H   0  0  0  0  0  0  0  0  0  0  0  0
  145.2600   74.1169  221.4212 H   0  0  0  0  0  0  0  0  0  0  0  0
  145.3918   73.3207  218.5019 H   0  0  0  0  0  0  0  0  0  0  0  0
  145.9150   71.9020  220.8870 H   0  0  0  0  0  0  0  0  0  0  0  0
  143.5202   71.9370  218.5002 H   0  0  0  0  0  0  0  0  0  0  0  0
  143.7712   71.4161  220.1716 H   0  0  0  0  0  0  0  0  0  0  0  0
  139.4718   72.9528  220.9836 H   0  0  0  0  0  0  0  0  0  0  0  0
  140.8703   72.3464  221.9548 H   0  0  0  0  0  0  0  0  0  0  0  0
  141.3330   74.5110  222.6550 H   0  0  0  0  0  0  0  0  0  0  0  0
  138.1170   77.1147  222.4115 H   0  0  0  0  0  0  0  0  0  0  0  0
  138.4062   79.3272  223.5401 H   0  0  0  0  0  0  0  0  0  0  0  0
  139.8972   81.1633  224.2667 H   0  0  0  0  0  0  0  0  0  0  0  0
  144.1400   80.8999  223.4448 H   0  0  0  0  0  0  0  0  0  0  0  0
  143.7984   78.6895  222.3329 H   0  0  0  0  0  0  0  0  0  0  0  0
  143.3284   78.6761  218.1586 H   0  0  0  0  0  0  0  0  0  0  0  0
  143.0649   80.8609  219.3325 H   0  0  0  0  0  0  0  0  0  0  0  0
  138.9422   79.8914  220.2225 H   0  0  0  0  0  0  0  0  0  0  0  0
  139.1920   77.7124  219.0332 H   0  0  0  0  0  0  0  0  0  0  0  0
  1  2  1  0
  2  3  1  0
  3  4  1  0
  4  5  2  0
  4  6  1  0
  6  7  1  0
  7  8  1  0
  8  9  1  0
  8 10  1  0
 10 11  1  0
 11 12  1  0
 12 13  2  0
 12 14  1  0
 14 15  1  0
 15 16  1  0
 16 17  2  0
 16 18  1  0
 18 19  2  0
 19 20  1  0
 20 21  2  0
 21 22  1  0
 22 23  2  0
 23 24  1  0
 23 25  1  0
 25 26  2  0
 26 27  1  0
 27 28  2  0
  2 29  1  0
 29 30  2  0
 30 31  1  0
 31 32  2  0
 32 33  1  0
 32 34  1  0
 34 35  2  0
 11  6  1  0
 28 18  1  0
 35 29  1  0
 27 21  1  0
  1 36  1  0
  1 37  1  0
  1 38  1  0
  2 39  1  6
  3 40  1  0
  6 41  1  1
  7 42  1  0
  7 43  1  0
  8 44  1  6
  9 45  1  0
 10 46  1  0
 10 47  1  0
 14 48  1  0
 14 49  1  0
 15 50  1  0
 19 51  1  0
 20 52  1  0
 22 53  1  0
 25 54  1  0
 26 55  1  0
 30 56  1  0
 31 57  1  0
 34 58  1  0
 35 59  1  0
M  END
>  <UniqueID>  (25) 
81

>  <SMILES>  (25) 
C[C@@H](NC(=O)[C@@H]1C[C@@H](O)CN1C(=O)CNC(=O)c1ccc2cc(F)ccc2n1)c1ccc(Cl)cc1

>  <Energy>  (25) 
59.84674722814225

>  <Genealogy>  (25) 
C[C@@H](NC(=O)[C@@H]1C[C@@H](O)CN1C(=O)CNC(=O)c1ccc2cc(F)ccc2n1)c1ccc(Cl)cc1 (3D coordinates assigned)
C[C@@H](NC(=O)[C@@H]1C[C@@H](O)CN1C(=O)CNC(=O)c1ccc2cc(F)ccc2n1)c1ccc(Cl)cc1 (nonaromatic ring conformer: 59.84674722814225 kcal/mol)

>  <smiles>  (25) 
C[C@@H](NC(=O)[C@@H]1C[C@@H](O)CN1C(=O)CNC(=O)c1ccc2cc(F)ccc2n1)c1ccc(Cl)cc1

>  <score_type>  (25) 
oracle

>  <origin>  (25) 
autodockgpu

>  <m_score__min__energy>  (25) 
-9.9100000000000001

>  <m_primary>  (25) 
energy

>  <meeko>  (25) 
{"free_energy": -6.68, "intermolecular_energy": -9.06, "internal_energy": -5.02, "cluster_size": 15, "cluster_id": 4, "rank_in_cluster": 14}

>  <energy>  (25) 
-7.55

>  <cluster_rmsd>  (25) 
0.0

>  <rmsd>  (25) 
270.65

>  <cluster>  (25) 
4

$$$$
JDBMCWJIJNWNRF-OEQCPPMUNA-N
     RDKit          3D

 59 62  0  0  0  0  0  0  0  0999 V2000
  142.9530   78.0830  217.6260 C   0  0  0  0  0  0  0  0  0  0  0  0
  141.8440   77.7370  218.6270 C   0  0  1  0  0  0  0  0  0  0  0  0
  142.3540   76.8130  219.6450 N   0  0  0  0  0  0  0  0  0  0  0  0
  142.8220   75.4890  219.3340 C   0  0  0  0  0  0  0  0  0  0  0  0
  142.8390   75.0860  218.1400 O   0  0  0  0  0  0  0  0  0  0  0  0
  143.2670   74.5510  220.4260 C   0  0  2  0  0  0  0  0  0  0  0  0
  144.7930   74.4360  220.4610 C   0  0  0  0  0  0  0  0  0  0  0  0
  145.1190   73.0970  219.7890 C   0  0  1  0  0  0  0  0  0  0  0  0
  146.2420   72.4710  220.3580 O   0  0  0  0  0  0  0  0  0  0  0  0
  143.8530   72.2520  219.9140 C   0  0  0  0  0  0  0  0  0  0  0  0
  142.7790   73.1930  220.1940 N   0  0  0  0  0  0  0  0  0  0  0  0
  141.4010   72.7720  220.2890 C   0  0  0  0  0  0  0  0  0  0  0  0
  140.8830   72.1300  219.3340 O   0  0  0  0  0  0  0  0  0  0  0  0
  140.5460   73.0900  221.4860 C   0  0  0  0  0  0  0  0  0  0  0  0
  140.7600   74.4640  221.9300 N   0  0  0  0  0  0  0  0  0  0  0  0
  139.7400   75.4710  221.8310 C   0  0  0  0  0  0  0  0  0  0  0  0
  138.6350   75.1910  221.2910 O   0  0  0  0  0  0  0  0  0  0  0  0
  139.9780   76.8320  222.3580 C   0  0  0  0  0  0  0  0  0  0  0  0
  138.9130   77.6250  222.8230 C   0  0  0  0  0  0  0  0  0  0  0  0
  139.1670   78.9090  223.3130 C   0  0  0  0  0  0  0  0  0  0  0  0
  140.4780   79.3980  223.3410 C   0  0  0  0  0  0  0  0  0  0  0  0
  140.7680   80.6840  223.8240 C   0  0  0  0  0  0  0  0  0  0  0  0
  142.0910   81.1420  223.8390 C   0  0  0  0  0  0  0  0  0  0  0  0
  142.3720   82.3860  224.3010 F   0  0  0  0  0  0  0  0  0  0  0  0
  143.1260   80.3200  223.3760 C   0  0  0  0  0  0  0  0  0  0  0  0
  142.8440   79.0370  222.8940 C   0  0  0  0  0  0  0  0  0  0  0  0
  141.5240   78.5720  222.8730 C   0  0  0  0  0  0  0  0  0  0  0  0
  141.2450   77.3270  222.3990 N   0  0  0  0  0  0  0  0  0  0  0  0
  141.2940   78.9810  219.2940 C   0  0  0  0  0  0  0  0  0  0  0  0
  142.1360   80.0650  219.6160 C   0  0  0  0  0  0  0  0  0  0  0  0
  141.6170   81.2080  220.2320 C   0  0  0  0  0  0  0  0  0  0  0  0
  140.2550   81.2780  220.5420 C   0  0  0  0  0  0  0  0  0  0  0  0
  139.6020   82.7130  221.3090 Cl  0  0  0  0  0  0  0  0  0  0  0  0
  139.4120   80.2040  220.2400 C   0  0  0  0  0  0  0  0  0  0  0  0
  139.9270   79.0610  219.6190 C   0  0  0  0  0  0  0  0  0  0  0  0
  143.8644   78.3674  218.1723 H   0  0  0  0  0  0  0  0  0  0  0  0
  143.1625   77.2075  216.9938 H   0  0  0  0  0  0  0  0  0  0  0  0
  142.6276   78.9223  216.9938 H   0  0  0  0  0  0  0  0  0  0  0  0
  141.0263   77.2557  218.0705 H   0  0  0  0  0  0  0  0  0  0  0  0
  142.3260   77.1160  220.6440 H   0  0  0  0  0  0  0  0  0  0  0  0
  142.8668   74.9665  221.3626 H   0  0  0  0  0  0  0  0  0  0  0  0
  145.2538   75.2666  219.9063 H   0  0  0  0  0  0  0  0  0  0  0  0
  145.1820   74.4818  221.4889 H   0  0  0  0  0  0  0  0  0  0  0  0
  145.3960   73.2398  218.7341 H   0  0  0  0  0  0  0  0  0  0  0  0
  145.9630   72.0690  221.2250 H   0  0  0  0  0  0  0  0  0  0  0  0
  143.6566   71.7138  218.9750 H   0  0  0  0  0  0  0  0  0  0  0  0
  143.9465   71.4944  220.7061 H   0  0  0  0  0  0  0  0  0  0  0  0
  139.4874   72.9593  221.2171 H   0  0  0  0  0  0  0  0  0  0  0  0
  140.8217   72.4095  222.3051 H   0  0  0  0  0  0  0  0  0  0  0  0
  141.7090   74.7230  222.2820 H   0  0  0  0  0  0  0  0  0  0  0  0
  137.8843   77.2359  222.8010 H   0  0  0  0  0  0  0  0  0  0  0  0
  138.3379   79.5342  223.6760 H   0  0  0  0  0  0  0  0  0  0  0  0
  139.9570   81.3308  224.1901 H   0  0  0  0  0  0  0  0  0  0  0  0
  144.1639   80.6841  223.3913 H   0  0  0  0  0  0  0  0  0  0  0  0
  143.6596   78.3939  222.5316 H   0  0  0  0  0  0  0  0  0  0  0  0
  143.2092   80.0112  219.3809 H   0  0  0  0  0  0  0  0  0  0  0  0
  142.2800   82.0521  220.4728 H   0  0  0  0  0  0  0  0  0  0  0  0
  138.3424   80.2579  220.4911 H   0  0  0  0  0  0  0  0  0  0  0  0
  139.2591   78.2194  219.3832 H   0  0  0  0  0  0  0  0  0  0  0  0
  1  2  1  0
  2  3  1  0
  3  4  1  0
  4  5  2  0
  4  6  1  0
  6  7  1  0
  7  8  1  0
  8  9  1  0
  8 10  1  0
 10 11  1  0
 11 12  1  0
 12 13  2  0
 12 14  1  0
 14 15  1  0
 15 16  1  0
 16 17  2  0
 16 18  1  0
 18 19  2  0
 19 20  1  0
 20 21  2  0
 21 22  1  0
 22 23  2  0
 23 24  1  0
 23 25  1  0
 25 26  2  0
 26 27  1  0
 27 28  2  0
  2 29  1  0
 29 30  2  0
 30 31  1  0
 31 32  2  0
 32 33  1  0
 32 34  1  0
 34 35  2  0
 11  6  1  0
 28 18  1  0
 35 29  1  0
 27 21  1  0
  1 36  1  0
  1 37  1  0
  1 38  1  0
  2 39  1  6
  3 40  1  0
  6 41  1  1
  7 42  1  0
  7 43  1  0
  8 44  1  6
  9 45  1  0
 10 46  1  0
 10 47  1  0
 14 48  1  0
 14 49  1  0
 15 50  1  0
 19 51  1  0
 20 52  1  0
 22 53  1  0
 25 54  1  0
 26 55  1  0
 30 56  1  0
 31 57  1  0
 34 58  1  0
 35 59  1  0
M  END
>  <UniqueID>  (26) 
81

>  <SMILES>  (26) 
C[C@@H](NC(=O)[C@@H]1C[C@@H](O)CN1C(=O)CNC(=O)c1ccc2cc(F)ccc2n1)c1ccc(Cl)cc1

>  <Energy>  (26) 
59.84674722814225

>  <Genealogy>  (26) 
C[C@@H](NC(=O)[C@@H]1C[C@@H](O)CN1C(=O)CNC(=O)c1ccc2cc(F)ccc2n1)c1ccc(Cl)cc1 (3D coordinates assigned)
C[C@@H](NC(=O)[C@@H]1C[C@@H](O)CN1C(=O)CNC(=O)c1ccc2cc(F)ccc2n1)c1ccc(Cl)cc1 (nonaromatic ring conformer: 59.84674722814225 kcal/mol)

>  <smiles>  (26) 
C[C@@H](NC(=O)[C@@H]1C[C@@H](O)CN1C(=O)CNC(=O)c1ccc2cc(F)ccc2n1)c1ccc(Cl)cc1

>  <score_type>  (26) 
oracle

>  <origin>  (26) 
autodockgpu

>  <m_score__min__energy>  (26) 
-9.9100000000000001

>  <m_primary>  (26) 
energy

>  <meeko>  (26) 
{"free_energy": -7.25, "intermolecular_energy": -9.64, "internal_energy": -4.52, "cluster_size": 15, "cluster_id": 4, "rank_in_cluster": 11}

>  <energy>  (26) 
-7.49

>  <cluster_rmsd>  (26) 
1.16

>  <rmsd>  (26) 
270.66

>  <cluster>  (26) 
4

$$$$
JDBMCWJIJNWNRF-OEQCPPMUNA-N
     RDKit          3D

 59 62  0  0  0  0  0  0  0  0999 V2000
  143.5350   77.0240  216.3470 C   0  0  0  0  0  0  0  0  0  0  0  0
  142.2510   76.8020  217.1560 C   0  0  1  0  0  0  0  0  0  0  0  0
  142.3670   75.5830  217.9620 N   0  0  0  0  0  0  0  0  0  0  0  0
  143.1720   75.5070  219.1510 C   0  0  0  0  0  0  0  0  0  0  0  0
  143.7900   76.5220  219.5660 O   0  0  0  0  0  0  0  0  0  0  0  0
  143.3170   74.2080  219.9030 C   0  0  2  0  0  0  0  0  0  0  0  0
  144.7490   74.0270  220.4120 C   0  0  0  0  0  0  0  0  0  0  0  0
  145.4040   73.0300  219.4500 C   0  0  1  0  0  0  0  0  0  0  0  0
  146.3290   72.1920  220.0960 O   0  0  0  0  0  0  0  0  0  0  0  0
  144.2540   72.2510  218.8140 C   0  0  0  0  0  0  0  0  0  0  0  0
  143.0640   73.0590  219.0350 N   0  0  0  0  0  0  0  0  0  0  0  0
  141.7790   72.6890  218.4910 C   0  0  0  0  0  0  0  0  0  0  0  0
  141.6460   72.5770  217.2400 O   0  0  0  0  0  0  0  0  0  0  0  0
  140.5770   72.4480  219.3640 C   0  0  0  0  0  0  0  0  0  0  0  0
  140.0830   73.7010  219.9270 N   0  0  0  0  0  0  0  0  0  0  0  0
  140.3740   74.1050  221.2750 C   0  0  0  0  0  0  0  0  0  0  0  0
  141.0300   73.3360  222.0300 O   0  0  0  0  0  0  0  0  0  0  0  0
  139.9120   75.4150  221.7800 C   0  0  0  0  0  0  0  0  0  0  0  0
  138.5440   75.7450  221.7920 C   0  0  0  0  0  0  0  0  0  0  0  0
  138.1350   76.9920  222.2710 C   0  0  0  0  0  0  0  0  0  0  0  0
  139.0870   77.9050  222.7400 C   0  0  0  0  0  0  0  0  0  0  0  0
  138.7110   79.1680  223.2260 C   0  0  0  0  0  0  0  0  0  0  0  0
  139.6890   80.0570  223.6880 C   0  0  0  0  0  0  0  0  0  0  0  0
  139.3280   81.2790  224.1540 F   0  0  0  0  0  0  0  0  0  0  0  0
  141.0400   79.6890  223.6690 C   0  0  0  0  0  0  0  0  0  0  0  0
  141.4210   78.4320  223.1860 C   0  0  0  0  0  0  0  0  0  0  0  0
  140.4510   77.5390  222.7200 C   0  0  0  0  0  0  0  0  0  0  0  0
  140.8180   76.3180  222.2440 N   0  0  0  0  0  0  0  0  0  0  0  0
  141.9530   77.9850  218.0550 C   0  0  0  0  0  0  0  0  0  0  0  0
  140.9450   77.9140  219.0370 C   0  0  0  0  0  0  0  0  0  0  0  0
  140.6790   79.0110  219.8610 C   0  0  0  0  0  0  0  0  0  0  0  0
  141.4080   80.1950  219.7070 C   0  0  0  0  0  0  0  0  0  0  0  0
  141.0790   81.5700  220.7440 Cl  0  0  0  0  0  0  0  0  0  0  0  0
  142.4020   80.2820  218.7270 C   0  0  0  0  0  0  0  0  0  0  0  0
  142.6750   79.1840  217.9050 C   0  0  0  0  0  0  0  0  0  0  0  0
  144.3810   77.1703  217.0347 H   0  0  0  0  0  0  0  0  0  0  0  0
  143.7255   76.1455  215.7131 H   0  0  0  0  0  0  0  0  0  0  0  0
  143.4194   77.9155  215.7131 H   0  0  0  0  0  0  0  0  0  0  0  0
  141.4192   76.6935  216.4445 H   0  0  0  0  0  0  0  0  0  0  0  0
  141.8840   74.7210  217.6230 H   0  0  0  0  0  0  0  0  0  0  0  0
  142.5923   74.2544  220.7292 H   0  0  0  0  0  0  0  0  0  0  0  0
  145.2867   74.9865  220.3957 H   0  0  0  0  0  0  0  0  0  0  0  0
  144.7697   73.6649  221.4505 H   0  0  0  0  0  0  0  0  0  0  0  0
  145.9993   73.5496  218.6847 H   0  0  0  0  0  0  0  0  0  0  0  0
  145.9040   71.8500  220.9280 H   0  0  0  0  0  0  0  0  0  0  0  0
  144.4315   72.1155  217.7369 H   0  0  0  0  0  0  0  0  0  0  0  0
  144.1513   71.2472  219.2520 H   0  0  0  0  0  0  0  0  0  0  0  0
  139.7813   71.9852  218.7617 H   0  0  0  0  0  0  0  0  0  0  0  0
  140.8698   71.7827  220.1897 H   0  0  0  0  0  0  0  0  0  0  0  0
  139.4540   74.2890  219.3360 H   0  0  0  0  0  0  0  0  0  0  0  0
  137.7991   75.0234  221.4254 H   0  0  0  0  0  0  0  0  0  0  0  0
  137.0672   77.2559  222.2796 H   0  0  0  0  0  0  0  0  0  0  0  0
  137.6501   79.4582  223.2436 H   0  0  0  0  0  0  0  0  0  0  0  0
  141.8043   80.3903  224.0350 H   0  0  0  0  0  0  0  0  0  0  0  0
  142.4832   78.1465  223.1729 H   0  0  0  0  0  0  0  0  0  0  0  0
  140.3631   76.9881  219.1560 H   0  0  0  0  0  0  0  0  0  0  0  0
  139.8962   78.9434  220.6308 H   0  0  0  0  0  0  0  0  0  0  0  0
  142.9701   81.2157  218.6025 H   0  0  0  0  0  0  0  0  0  0  0  0
  143.4587   79.2578  217.1366 H   0  0  0  0  0  0  0  0  0  0  0  0
  1  2  1  0
  2  3  1  0
  3  4  1  0
  4  5  2  0
  4  6  1  0
  6  7  1  0
  7  8  1  0
  8  9  1  0
  8 10  1  0
 10 11  1  0
 11 12  1  0
 12 13  2  0
 12 14  1  0
 14 15  1  0
 15 16  1  0
 16 17  2  0
 16 18  1  0
 18 19  2  0
 19 20  1  0
 20 21  2  0
 21 22  1  0
 22 23  2  0
 23 24  1  0
 23 25  1  0
 25 26  2  0
 26 27  1  0
 27 28  2  0
  2 29  1  0
 29 30  2  0
 30 31  1  0
 31 32  2  0
 32 33  1  0
 32 34  1  0
 34 35  2  0
 11  6  1  0
 28 18  1  0
 35 29  1  0
 27 21  1  0
  1 36  1  0
  1 37  1  0
  1 38  1  0
  2 39  1  6
  3 40  1  0
  6 41  1  1
  7 42  1  0
  7 43  1  0
  8 44  1  6
  9 45  1  0
 10 46  1  0
 10 47  1  0
 14 48  1  0
 14 49  1  0
 15 50  1  0
 19 51  1  0
 20 52  1  0
 22 53  1  0
 25 54  1  0
 26 55  1  0
 30 56  1  0
 31 57  1  0
 34 58  1  0
 35 59  1  0
M  END
>  <UniqueID>  (27) 
81

>  <SMILES>  (27) 
C[C@@H](NC(=O)[C@@H]1C[C@@H](O)CN1C(=O)CNC(=O)c1ccc2cc(F)ccc2n1)c1ccc(Cl)cc1

>  <Energy>  (27) 
59.84674722814225

>  <Genealogy>  (27) 
C[C@@H](NC(=O)[C@@H]1C[C@@H](O)CN1C(=O)CNC(=O)c1ccc2cc(F)ccc2n1)c1ccc(Cl)cc1 (3D coordinates assigned)
C[C@@H](NC(=O)[C@@H]1C[C@@H](O)CN1C(=O)CNC(=O)c1ccc2cc(F)ccc2n1)c1ccc(Cl)cc1 (nonaromatic ring conformer: 59.84674722814225 kcal/mol)

>  <smiles>  (27) 
C[C@@H](NC(=O)[C@@H]1C[C@@H](O)CN1C(=O)CNC(=O)c1ccc2cc(F)ccc2n1)c1ccc(Cl)cc1

>  <score_type>  (27) 
oracle

>  <origin>  (27) 
autodockgpu

>  <m_score__min__energy>  (27) 
-9.9100000000000001

>  <m_primary>  (27) 
energy

>  <meeko>  (27) 
{"free_energy": -6.94, "intermolecular_energy": -9.33, "internal_energy": -3.94, "cluster_size": 15, "cluster_id": 4, "rank_in_cluster": 12}

>  <energy>  (27) 
-7.49

>  <cluster_rmsd>  (27) 
1.15

>  <rmsd>  (27) 
270.64

>  <cluster>  (27) 
4

$$$$
JDBMCWJIJNWNRF-OEQCPPMUNA-N
     RDKit          3D

 59 62  0  0  0  0  0  0  0  0999 V2000
  138.0320   76.8260  221.0330 C   0  0  0  0  0  0  0  0  0  0  0  0
  139.3460   76.3970  221.6980 C   0  0  1  0  0  0  0  0  0  0  0  0
  140.1800   75.6650  220.7410 N   0  0  0  0  0  0  0  0  0  0  0  0
  140.8550   74.4380  221.0720 C   0  0  0  0  0  0  0  0  0  0  0  0
  140.7180   73.9260  222.2150 O   0  0  0  0  0  0  0  0  0  0  0  0
  141.7610   73.7630  220.0750 C   0  0  2  0  0  0  0  0  0  0  0  0
  142.7110   72.7860  220.7720 C   0  0  0  0  0  0  0  0  0  0  0  0
  144.0620   73.5060  220.8430 C   0  0  1  0  0  0  0  0  0  0  0  0
  145.1480   72.6230  220.7150 O   0  0  0  0  0  0  0  0  0  0  0  0
  144.0300   74.5570  219.7340 C   0  0  0  0  0  0  0  0  0  0  0  0
  142.6240   74.7300  219.3980 N   0  0  0  0  0  0  0  0  0  0  0  0
  142.1850   75.7190  218.4440 C   0  0  0  0  0  0  0  0  0  0  0  0
  141.0440   75.6050  217.9150 O   0  0  0  0  0  0  0  0  0  0  0  0
  143.0510   76.8810  218.0370 C   0  0  0  0  0  0  0  0  0  0  0  0
  142.6350   78.1050  218.7150 N   0  0  0  0  0  0  0  0  0  0  0  0
  141.3240   78.6690  218.5450 C   0  0  0  0  0  0  0  0  0  0  0  0
  140.5120   78.1340  217.7420 O   0  0  0  0  0  0  0  0  0  0  0  0
  140.9230   79.8710  219.3070 C   0  0  0  0  0  0  0  0  0  0  0  0
  141.8260   80.9280  219.5220 C   0  0  0  0  0  0  0  0  0  0  0  0
  141.4210   82.0500  220.2490 C   0  0  0  0  0  0  0  0  0  0  0  0
  140.1190   82.1190  220.7570 C   0  0  0  0  0  0  0  0  0  0  0  0
  139.6790   83.2300  221.4940 C   0  0  0  0  0  0  0  0  0  0  0  0
  138.3690   83.2670  221.9870 C   0  0  0  0  0  0  0  0  0  0  0  0
  137.9450   84.3380  222.7030 F   0  0  0  0  0  0  0  0  0  0  0  0
  137.4960   82.1990  221.7450 C   0  0  0  0  0  0  0  0  0  0  0  0
  137.9270   81.0890  221.0110 C   0  0  0  0  0  0  0  0  0  0  0  0
  139.2350   81.0420  220.5170 C   0  0  0  0  0  0  0  0  0  0  0  0
  139.6600   79.9620  219.8080 N   0  0  0  0  0  0  0  0  0  0  0  0
  140.1090   77.5920  222.2340 C   0  0  0  0  0  0  0  0  0  0  0  0
  139.4880   78.5250  223.0890 C   0  0  0  0  0  0  0  0  0  0  0  0
  140.2020   79.6230  223.5770 C   0  0  0  0  0  0  0  0  0  0  0  0
  141.5400   79.8080  223.2100 C   0  0  0  0  0  0  0  0  0  0  0  0
  142.4380   81.1820  223.8270 Cl  0  0  0  0  0  0  0  0  0  0  0  0
  142.1620   78.8960  222.3530 C   0  0  0  0  0  0  0  0  0  0  0  0
  141.4520   77.7930  221.8670 C   0  0  0  0  0  0  0  0  0  0  0  0
  137.2905   77.0681  221.8086 H   0  0  0  0  0  0  0  0  0  0  0  0
  138.2103   77.7126  220.4068 H   0  0  0  0  0  0  0  0  0  0  0  0
  137.6529   76.0050  220.4068 H   0  0  0  0  0  0  0  0  0  0  0  0
  139.0966   75.7404  222.5446 H   0  0  0  0  0  0  0  0  0  0  0  0
  140.3290   76.0830  219.7960 H   0  0  0  0  0  0  0  0  0  0  0  0
  141.0975   73.2503  219.3630 H   0  0  0  0  0  0  0  0  0  0  0  0
  142.3470   72.5517  221.7832 H   0  0  0  0  0  0  0  0  0  0  0  0
  142.7856   71.8326  220.2285 H   0  0  0  0  0  0  0  0  0  0  0  0
  144.2101   73.9740  221.8274 H   0  0  0  0  0  0  0  0  0  0  0  0
  145.3280   72.2260  221.6100 H   0  0  0  0  0  0  0  0  0  0  0  0
  144.4588   75.5050  220.0911 H   0  0  0  0  0  0  0  0  0  0  0  0
  144.6215   74.2449  218.8606 H   0  0  0  0  0  0  0  0  0  0  0  0
  144.0960   76.6608  218.3008 H   0  0  0  0  0  0  0  0  0  0  0  0
  142.9511   77.0298  216.9517 H   0  0  0  0  0  0  0  0  0  0  0  0
  143.3410   78.6050  219.3010 H   0  0  0  0  0  0  0  0  0  0  0  0
  142.8479   80.8712  219.1189 H   0  0  0  0  0  0  0  0  0  0  0  0
  142.1244   82.8779  220.4218 H   0  0  0  0  0  0  0  0  0  0  0  0
  140.3627   84.0705  221.6839 H   0  0  0  0  0  0  0  0  0  0  0  0
  136.4675   82.2332  222.1336 H   0  0  0  0  0  0  0  0  0  0  0  0
  137.2374   80.2530  220.8222 H   0  0  0  0  0  0  0  0  0  0  0  0
  138.4345   78.3880  223.3740 H   0  0  0  0  0  0  0  0  0  0  0  0
  139.7121   80.3422  224.2499 H   0  0  0  0  0  0  0  0  0  0  0  0
  143.2117   79.0458  222.0601 H   0  0  0  0  0  0  0  0  0  0  0  0
  141.9472   77.0781  221.1934 H   0  0  0  0  0  0  0  0  0  0  0  0
  1  2  1  0
  2  3  1  0
  3  4  1  0
  4  5  2  0
  4  6  1  0
  6  7  1  0
  7  8  1  0
  8  9  1  0
  8 10  1  0
 10 11  1  0
 11 12  1  0
 12 13  2  0
 12 14  1  0
 14 15  1  0
 15 16  1  0
 16 17  2  0
 16 18  1  0
 18 19  2  0
 19 20  1  0
 20 21  2  0
 21 22  1  0
 22 23  2  0
 23 24  1  0
 23 25  1  0
 25 26  2  0
 26 27  1  0
 27 28  2  0
  2 29  1  0
 29 30  2  0
 30 31  1  0
 31 32  2  0
 32 33  1  0
 32 34  1  0
 34 35  2  0
 11  6  1  0
 28 18  1  0
 35 29  1  0
 27 21  1  0
  1 36  1  0
  1 37  1  0
  1 38  1  0
  2 39  1  1
  3 40  1  0
  6 41  1  6
  7 42  1  0
  7 43  1  0
  8 44  1  1
  9 45  1  0
 10 46  1  0
 10 47  1  0
 14 48  1  0
 14 49  1  0
 15 50  1  0
 19 51  1  0
 20 52  1  0
 22 53  1  0
 25 54  1  0
 26 55  1  0
 30 56  1  0
 31 57  1  0
 34 58  1  0
 35 59  1  0
M  END
>  <UniqueID>  (28) 
81

>  <SMILES>  (28) 
C[C@@H](NC(=O)[C@@H]1C[C@@H](O)CN1C(=O)CNC(=O)c1ccc2cc(F)ccc2n1)c1ccc(Cl)cc1

>  <Energy>  (28) 
59.84674722814225

>  <Genealogy>  (28) 
C[C@@H](NC(=O)[C@@H]1C[C@@H](O)CN1C(=O)CNC(=O)c1ccc2cc(F)ccc2n1)c1ccc(Cl)cc1 (3D coordinates assigned)
C[C@@H](NC(=O)[C@@H]1C[C@@H](O)CN1C(=O)CNC(=O)c1ccc2cc(F)ccc2n1)c1ccc(Cl)cc1 (nonaromatic ring conformer: 59.84674722814225 kcal/mol)

>  <smiles>  (28) 
C[C@@H](NC(=O)[C@@H]1C[C@@H](O)CN1C(=O)CNC(=O)c1ccc2cc(F)ccc2n1)c1ccc(Cl)cc1

>  <score_type>  (28) 
oracle

>  <origin>  (28) 
autodockgpu

>  <m_score__min__energy>  (28) 
-9.9100000000000001

>  <m_primary>  (28) 
energy

>  <meeko>  (28) 
{"free_energy": -6.61, "intermolecular_energy": -9.0, "internal_energy": -4.57, "cluster_size": 15, "cluster_id": 4, "rank_in_cluster": 15}

>  <energy>  (28) 
-7.49

>  <cluster_rmsd>  (28) 
1.16

>  <rmsd>  (28) 
270.63

>  <cluster>  (28) 
4

$$$$
JDBMCWJIJNWNRF-OEQCPPMUNA-N
     RDKit          3D

 59 62  0  0  0  0  0  0  0  0999 V2000
  143.2930   76.8100  216.5750 C   0  0  0  0  0  0  0  0  0  0  0  0
  142.0810   76.6290  217.4990 C   0  0  1  0  0  0  0  0  0  0  0  0
  142.3370   75.5550  218.4620 N   0  0  0  0  0  0  0  0  0  0  0  0
  143.3220   75.6590  219.5050 C   0  0  0  0  0  0  0  0  0  0  0  0
  143.9880   76.7190  219.6460 O   0  0  0  0  0  0  0  0  0  0  0  0
  143.6000   74.4970  220.4240 C   0  0  2  0  0  0  0  0  0  0  0  0
  145.0980   74.1910  220.4840 C   0  0  0  0  0  0  0  0  0  0  0  0
  145.3020   72.9610  219.5920 C   0  0  1  0  0  0  0  0  0  0  0  0
  146.3150   72.1130  220.0730 O   0  0  0  0  0  0  0  0  0  0  0  0
  143.9420   72.2680  219.5250 C   0  0  0  0  0  0  0  0  0  0  0  0
  142.9710   73.2700  219.9370 N   0  0  0  0  0  0  0  0  0  0  0  0
  141.5510   73.0110  219.9130 C   0  0  0  0  0  0  0  0  0  0  0  0
  141.0220   72.5590  218.8590 O   0  0  0  0  0  0  0  0  0  0  0  0
  140.6660   73.2810  221.1000 C   0  0  0  0  0  0  0  0  0  0  0  0
  140.8820   74.6290  221.6160 N   0  0  0  0  0  0  0  0  0  0  0  0
  139.8640   75.6410  221.5710 C   0  0  0  0  0  0  0  0  0  0  0  0
  138.7580   75.3920  221.0180 O   0  0  0  0  0  0  0  0  0  0  0  0
  140.1040   76.9720  222.1700 C   0  0  0  0  0  0  0  0  0  0  0  0
  139.0480   77.7200  222.7210 C   0  0  0  0  0  0  0  0  0  0  0  0
  139.3030   78.9760  223.2770 C   0  0  0  0  0  0  0  0  0  0  0  0
  140.6080   79.4820  223.2860 C   0  0  0  0  0  0  0  0  0  0  0  0
  140.9000   80.7420  223.8340 C   0  0  0  0  0  0  0  0  0  0  0  0
  142.2160   81.2180  223.8280 C   0  0  0  0  0  0  0  0  0  0  0  0
  142.4980   82.4360  224.3530 F   0  0  0  0  0  0  0  0  0  0  0  0
  143.2430   80.4400  223.2790 C   0  0  0  0  0  0  0  0  0  0  0  0
  142.9600   79.1840  222.7310 C   0  0  0  0  0  0  0  0  0  0  0  0
  141.6460   78.7020  222.7310 C   0  0  0  0  0  0  0  0  0  0  0  0
  141.3660   77.4830  222.1940 N   0  0  0  0  0  0  0  0  0  0  0  0
  141.7530   77.9120  218.2360 C   0  0  0  0  0  0  0  0  0  0  0  0
  140.5680   78.0320  218.9900 C   0  0  0  0  0  0  0  0  0  0  0  0
  140.2750   79.2200  219.6660 C   0  0  0  0  0  0  0  0  0  0  0  0
  141.1560   80.3050  219.5890 C   0  0  0  0  0  0  0  0  0  0  0  0
  140.7930   81.7930  220.4410 Cl  0  0  0  0  0  0  0  0  0  0  0  0
  142.3280   80.2010  218.8330 C   0  0  0  0  0  0  0  0  0  0  0  0
  142.6260   79.0120  218.1600 C   0  0  0  0  0  0  0  0  0  0  0  0
  144.2001   76.9455  217.1823 H   0  0  0  0  0  0  0  0  0  0  0  0
  143.4065   75.9188  215.9402 H   0  0  0  0  0  0  0  0  0  0  0  0
  143.1411   77.6954  215.9402 H   0  0  0  0  0  0  0  0  0  0  0  0
  141.2167   76.3616  216.8733 H   0  0  0  0  0  0  0  0  0  0  0  0
  141.8160   74.6570  218.3490 H   0  0  0  0  0  0  0  0  0  0  0  0
  143.2033   74.7889  221.4076 H   0  0  0  0  0  0  0  0  0  0  0  0
  145.6798   75.0430  220.1025 H   0  0  0  0  0  0  0  0  0  0  0  0
  145.4356   74.0076  221.5147 H   0  0  0  0  0  0  0  0  0  0  0  0
  145.6471   73.2510  218.5886 H   0  0  0  0  0  0  0  0  0  0  0  0
  146.0710   71.8380  220.9980 H   0  0  0  0  0  0  0  0  0  0  0  0
  143.7334   71.9303  218.4991 H   0  0  0  0  0  0  0  0  0  0  0  0
  143.9068   71.3779  220.1703 H   0  0  0  0  0  0  0  0  0  0  0  0
  139.6141   73.1762  220.7959 H   0  0  0  0  0  0  0  0  0  0  0  0
  140.9113   72.5584  221.8923 H   0  0  0  0  0  0  0  0  0  0  0  0
  141.8320   74.8680  221.9810 H   0  0  0  0  0  0  0  0  0  0  0  0
  138.0244   77.3173  222.7142 H   0  0  0  0  0  0  0  0  0  0  0  0
  138.4800   79.5660  223.7067 H   0  0  0  0  0  0  0  0  0  0  0  0
  140.0951   81.3539  224.2674 H   0  0  0  0  0  0  0  0  0  0  0  0
  144.2761   80.8178  223.2786 H   0  0  0  0  0  0  0  0  0  0  0  0
  143.7694   78.5760  222.3006 H   0  0  0  0  0  0  0  0  0  0  0  0
  139.8688   77.1847  219.0469 H   0  0  0  0  0  0  0  0  0  0  0  0
  139.3519   79.3022  220.2586 H   0  0  0  0  0  0  0  0  0  0  0  0
  143.0168   81.0562  218.7676 H   0  0  0  0  0  0  0  0  0  0  0  0
  143.5495   78.9366  217.5672 H   0  0  0  0  0  0  0  0  0  0  0  0
  1  2  1  0
  2  3  1  0
  3  4  1  0
  4  5  2  0
  4  6  1  0
  6  7  1  0
  7  8  1  0
  8  9  1  0
  8 10  1  0
 10 11  1  0
 11 12  1  0
 12 13  2  0
 12 14  1  0
 14 15  1  0
 15 16  1  0
 16 17  2  0
 16 18  1  0
 18 19  2  0
 19 20  1  0
 20 21  2  0
 21 22  1  0
 22 23  2  0
 23 24  1  0
 23 25  1  0
 25 26  2  0
 26 27  1  0
 27 28  2  0
  2 29  1  0
 29 30  2  0
 30 31  1  0
 31 32  2  0
 32 33  1  0
 32 34  1  0
 34 35  2  0
 11  6  1  0
 28 18  1  0
 35 29  1  0
 27 21  1  0
  1 36  1  0
  1 37  1  0
  1 38  1  0
  2 39  1  6
  3 40  1  0
  6 41  1  1
  7 42  1  0
  7 43  1  0
  8 44  1  6
  9 45  1  0
 10 46  1  0
 10 47  1  0
 14 48  1  0
 14 49  1  0
 15 50  1  0
 19 51  1  0
 20 52  1  0
 22 53  1  0
 25 54  1  0
 26 55  1  0
 30 56  1  0
 31 57  1  0
 34 58  1  0
 35 59  1  0
M  END
>  <UniqueID>  (29) 
81

>  <SMILES>  (29) 
C[C@@H](NC(=O)[C@@H]1C[C@@H](O)CN1C(=O)CNC(=O)c1ccc2cc(F)ccc2n1)c1ccc(Cl)cc1

>  <Energy>  (29) 
59.84674722814225

>  <Genealogy>  (29) 
C[C@@H](NC(=O)[C@@H]1C[C@@H](O)CN1C(=O)CNC(=O)c1ccc2cc(F)ccc2n1)c1ccc(Cl)cc1 (3D coordinates assigned)
C[C@@H](NC(=O)[C@@H]1C[C@@H](O)CN1C(=O)CNC(=O)c1ccc2cc(F)ccc2n1)c1ccc(Cl)cc1 (nonaromatic ring conformer: 59.84674722814225 kcal/mol)

>  <smiles>  (29) 
C[C@@H](NC(=O)[C@@H]1C[C@@H](O)CN1C(=O)CNC(=O)c1ccc2cc(F)ccc2n1)c1ccc(Cl)cc1

>  <score_type>  (29) 
oracle

>  <origin>  (29) 
autodockgpu

>  <m_score__min__energy>  (29) 
-9.9100000000000001

>  <m_primary>  (29) 
energy

>  <meeko>  (29) 
{"free_energy": -7.38, "intermolecular_energy": -9.76, "internal_energy": -4.39, "cluster_size": 15, "cluster_id": 4, "rank_in_cluster": 6}

>  <energy>  (29) 
-7.39

>  <cluster_rmsd>  (29) 
1.17

>  <rmsd>  (29) 
270.55

>  <cluster>  (29) 
4

$$$$
JDBMCWJIJNWNRF-OEQCPPMUNA-N
     RDKit          3D

 59 62  0  0  0  0  0  0  0  0999 V2000
  143.2900   76.7620  216.5410 C   0  0  0  0  0  0  0  0  0  0  0  0
  142.0980   76.6270  217.4970 C   0  0  1  0  0  0  0  0  0  0  0  0
  142.3460   75.5500  218.4610 N   0  0  0  0  0  0  0  0  0  0  0  0
  143.3300   75.6470  219.5050 C   0  0  0  0  0  0  0  0  0  0  0  0
  144.0040   76.7020  219.6460 O   0  0  0  0  0  0  0  0  0  0  0  0
  143.5980   74.4830  220.4240 C   0  0  2  0  0  0  0  0  0  0  0  0
  145.0950   74.1680  220.4870 C   0  0  0  0  0  0  0  0  0  0  0  0
  145.2920   72.9370  219.5960 C   0  0  1  0  0  0  0  0  0  0  0  0
  146.2980   72.0820  220.0790 O   0  0  0  0  0  0  0  0  0  0  0  0
  143.9280   72.2530  219.5260 C   0  0  0  0  0  0  0  0  0  0  0  0
  142.9620   73.2610  219.9360 N   0  0  0  0  0  0  0  0  0  0  0  0
  141.5410   73.0120  219.9090 C   0  0  0  0  0  0  0  0  0  0  0  0
  141.0100   72.5720  218.8510 O   0  0  0  0  0  0  0  0  0  0  0  0
  140.6570   73.2770  221.0980 C   0  0  0  0  0  0  0  0  0  0  0  0
  140.8690   74.6260  221.6140 N   0  0  0  0  0  0  0  0  0  0  0  0
  139.8530   75.6390  221.5530 C   0  0  0  0  0  0  0  0  0  0  0  0
  138.7540   75.3910  220.9850 O   0  0  0  0  0  0  0  0  0  0  0  0
  140.0870   76.9710  222.1530 C   0  0  0  0  0  0  0  0  0  0  0  0
  139.0210   77.7300  222.6700 C   0  0  0  0  0  0  0  0  0  0  0  0
  139.2710   78.9860  223.2270 C   0  0  0  0  0  0  0  0  0  0  0  0
  140.5790   79.4820  223.2720 C   0  0  0  0  0  0  0  0  0  0  0  0
  140.8660   80.7420  223.8220 C   0  0  0  0  0  0  0  0  0  0  0  0
  142.1850   81.2070  223.8520 C   0  0  0  0  0  0  0  0  0  0  0  0
  142.4630   82.4260  224.3790 F   0  0  0  0  0  0  0  0  0  0  0  0
  143.2210   80.4180  223.3350 C   0  0  0  0  0  0  0  0  0  0  0  0
  142.9430   79.1620  222.7850 C   0  0  0  0  0  0  0  0  0  0  0  0
  141.6260   78.6900  222.7490 C   0  0  0  0  0  0  0  0  0  0  0  0
  141.3510   77.4720  222.2110 N   0  0  0  0  0  0  0  0  0  0  0  0
  141.8310   77.9240  218.2340 C   0  0  0  0  0  0  0  0  0  0  0  0
  140.6880   78.0750  219.0450 C   0  0  0  0  0  0  0  0  0  0  0  0
  140.4520   79.2770  219.7190 C   0  0  0  0  0  0  0  0  0  0  0  0
  141.3480   80.3430  219.5840 C   0  0  0  0  0  0  0  0  0  0  0  0
  141.0550   81.8480  220.4350 Cl  0  0  0  0  0  0  0  0  0  0  0  0
  142.4780   80.2080  218.7730 C   0  0  0  0  0  0  0  0  0  0  0  0
  142.7200   79.0060  218.1000 C   0  0  0  0  0  0  0  0  0  0  0  0
  144.2172   76.8670  217.1235 H   0  0  0  0  0  0  0  0  0  0  0  0
  143.3549   75.8655  215.9070 H   0  0  0  0  0  0  0  0  0  0  0  0
  143.1527   77.6503  215.9070 H   0  0  0  0  0  0  0  0  0  0  0  0
  141.2090   76.3851  216.8961 H   0  0  0  0  0  0  0  0  0  0  0  0
  141.8180   74.6570  218.3480 H   0  0  0  0  0  0  0  0  0  0  0  0
  143.2008   74.7765  221.4069 H   0  0  0  0  0  0  0  0  0  0  0  0
  145.6827   75.0163  220.1062 H   0  0  0  0  0  0  0  0  0  0  0  0
  145.4302   73.9833  221.5183 H   0  0  0  0  0  0  0  0  0  0  0  0
  145.6409   73.2251  218.5934 H   0  0  0  0  0  0  0  0  0  0  0  0
  146.0440   71.7970  220.9980 H   0  0  0  0  0  0  0  0  0  0  0  0
  143.7195   71.9167  218.4996 H   0  0  0  0  0  0  0  0  0  0  0  0
  143.8858   71.3632  220.1714 H   0  0  0  0  0  0  0  0  0  0  0  0
  139.6049   73.1681  220.7960 H   0  0  0  0  0  0  0  0  0  0  0  0
  140.9062   72.5547  221.8893 H   0  0  0  0  0  0  0  0  0  0  0  0
  141.8130   74.8630  221.9930 H   0  0  0  0  0  0  0  0  0  0  0  0
  137.9947   77.3356  222.6356 H   0  0  0  0  0  0  0  0  0  0  0  0
  138.4409   79.5848  223.6299 H   0  0  0  0  0  0  0  0  0  0  0  0
  140.0542   81.3628  224.2289 H   0  0  0  0  0  0  0  0  0  0  0  0
  144.2568   80.7875  223.3617 H   0  0  0  0  0  0  0  0  0  0  0  0
  143.7595   78.5455  222.3809 H   0  0  0  0  0  0  0  0  0  0  0  0
  139.9772   77.2419  219.1483 H   0  0  0  0  0  0  0  0  0  0  0  0
  139.5615   79.3846  220.3557 H   0  0  0  0  0  0  0  0  0  0  0  0
  143.1787   81.0489  218.6636 H   0  0  0  0  0  0  0  0  0  0  0  0
  143.6107   78.9061  217.4622 H   0  0  0  0  0  0  0  0  0  0  0  0
  1  2  1  0
  2  3  1  0
  3  4  1  0
  4  5  2  0
  4  6  1  0
  6  7  1  0
  7  8  1  0
  8  9  1  0
  8 10  1  0
 10 11  1  0
 11 12  1  0
 12 13  2  0
 12 14  1  0
 14 15  1  0
 15 16  1  0
 16 17  2  0
 16 18  1  0
 18 19  2  0
 19 20  1  0
 20 21  2  0
 21 22  1  0
 22 23  2  0
 23 24  1  0
 23 25  1  0
 25 26  2  0
 26 27  1  0
 27 28  2  0
  2 29  1  0
 29 30  2  0
 30 31  1  0
 31 32  2  0
 32 33  1  0
 32 34  1  0
 34 35  2  0
 11  6  1  0
 28 18  1  0
 35 29  1  0
 27 21  1  0
  1 36  1  0
  1 37  1  0
  1 38  1  0
  2 39  1  6
  3 40  1  0
  6 41  1  1
  7 42  1  0
  7 43  1  0
  8 44  1  6
  9 45  1  0
 10 46  1  0
 10 47  1  0
 14 48  1  0
 14 49  1  0
 15 50  1  0
 19 51  1  0
 20 52  1  0
 22 53  1  0
 25 54  1  0
 26 55  1  0
 30 56  1  0
 31 57  1  0
 34 58  1  0
 35 59  1  0
M  END
>  <UniqueID>  (30) 
81

>  <SMILES>  (30) 
C[C@@H](NC(=O)[C@@H]1C[C@@H](O)CN1C(=O)CNC(=O)c1ccc2cc(F)ccc2n1)c1ccc(Cl)cc1

>  <Energy>  (30) 
59.84674722814225

>  <Genealogy>  (30) 
C[C@@H](NC(=O)[C@@H]1C[C@@H](O)CN1C(=O)CNC(=O)c1ccc2cc(F)ccc2n1)c1ccc(Cl)cc1 (3D coordinates assigned)
C[C@@H](NC(=O)[C@@H]1C[C@@H](O)CN1C(=O)CNC(=O)c1ccc2cc(F)ccc2n1)c1ccc(Cl)cc1 (nonaromatic ring conformer: 59.84674722814225 kcal/mol)

>  <smiles>  (30) 
C[C@@H](NC(=O)[C@@H]1C[C@@H](O)CN1C(=O)CNC(=O)c1ccc2cc(F)ccc2n1)c1ccc(Cl)cc1

>  <score_type>  (30) 
oracle

>  <origin>  (30) 
autodockgpu

>  <m_score__min__energy>  (30) 
-9.9100000000000001

>  <m_primary>  (30) 
energy

>  <meeko>  (30) 
{"free_energy": -7.39, "intermolecular_energy": -9.78, "internal_energy": -4.35, "cluster_size": 15, "cluster_id": 4, "rank_in_cluster": 5}

>  <energy>  (30) 
-7.38

>  <cluster_rmsd>  (30) 
1.16

>  <rmsd>  (30) 
270.54

>  <cluster>  (30) 
4

$$$$
JDBMCWJIJNWNRF-OEQCPPMUNA-N
     RDKit          3D

 59 62  0  0  0  0  0  0  0  0999 V2000
  142.9510   78.0570  217.6320 C   0  0  0  0  0  0  0  0  0  0  0  0
  141.8540   77.7330  218.6540 C   0  0  1  0  0  0  0  0  0  0  0  0
  142.3690   76.8090  219.6690 N   0  0  0  0  0  0  0  0  0  0  0  0
  142.8640   75.4970  219.3520 C   0  0  0  0  0  0  0  0  0  0  0  0
  142.9040   75.1050  218.1560 O   0  0  0  0  0  0  0  0  0  0  0  0
  143.3130   74.5570  220.4420 C   0  0  2  0  0  0  0  0  0  0  0  0
  144.8400   74.4540  220.4810 C   0  0  0  0  0  0  0  0  0  0  0  0
  145.1800   73.1210  219.8040 C   0  0  1  0  0  0  0  0  0  0  0  0
  146.3050   72.5020  220.3740 O   0  0  0  0  0  0  0  0  0  0  0  0
  143.9200   72.2650  219.9200 C   0  0  0  0  0  0  0  0  0  0  0  0
  142.8370   73.1960  220.2010 N   0  0  0  0  0  0  0  0  0  0  0  0
  141.4620   72.7630  220.2880 C   0  0  0  0  0  0  0  0  0  0  0  0
  140.9580   72.1070  219.3350 O   0  0  0  0  0  0  0  0  0  0  0  0
  140.5940   73.0850  221.4750 C   0  0  0  0  0  0  0  0  0  0  0  0
  140.8030   74.4610  221.9160 N   0  0  0  0  0  0  0  0  0  0  0  0
  139.7660   75.4520  221.8560 C   0  0  0  0  0  0  0  0  0  0  0  0
  138.6470   75.1580  221.3530 O   0  0  0  0  0  0  0  0  0  0  0  0
  140.0020   76.8150  222.3810 C   0  0  0  0  0  0  0  0  0  0  0  0
  138.9380   77.6020  222.8570 C   0  0  0  0  0  0  0  0  0  0  0  0
  139.1890   78.8870  223.3440 C   0  0  0  0  0  0  0  0  0  0  0  0
  140.4970   79.3840  223.3570 C   0  0  0  0  0  0  0  0  0  0  0  0
  140.7860   80.6720  223.8360 C   0  0  0  0  0  0  0  0  0  0  0  0
  142.1060   81.1380  223.8370 C   0  0  0  0  0  0  0  0  0  0  0  0
  142.3850   82.3840  224.2950 F   0  0  0  0  0  0  0  0  0  0  0  0
  143.1400   80.3220  223.3630 C   0  0  0  0  0  0  0  0  0  0  0  0
  142.8600   79.0370  222.8840 C   0  0  0  0  0  0  0  0  0  0  0  0
  141.5430   78.5640  222.8770 C   0  0  0  0  0  0  0  0  0  0  0  0
  141.2660   77.3180  222.4070 N   0  0  0  0  0  0  0  0  0  0  0  0
  141.3330   78.9890  219.3210 C   0  0  0  0  0  0  0  0  0  0  0  0
  139.9780   79.1050  219.6910 C   0  0  0  0  0  0  0  0  0  0  0  0
  139.5070   80.2700  220.3060 C   0  0  0  0  0  0  0  0  0  0  0  0
  140.3820   81.3350  220.5490 C   0  0  0  0  0  0  0  0  0  0  0  0
  139.7940   82.7930  221.3260 Cl  0  0  0  0  0  0  0  0  0  0  0  0
  141.7250   81.2360  220.1750 C   0  0  0  0  0  0  0  0  0  0  0  0
  142.2000   80.0700  219.5650 C   0  0  0  0  0  0  0  0  0  0  0  0
  143.8759   78.3302  218.1611 H   0  0  0  0  0  0  0  0  0  0  0  0
  143.1363   77.1752  217.0010 H   0  0  0  0  0  0  0  0  0  0  0  0
  142.6275   78.8979  217.0010 H   0  0  0  0  0  0  0  0  0  0  0  0
  141.0199   77.2594  218.1155 H   0  0  0  0  0  0  0  0  0  0  0  0
  142.3220   77.1020  220.6710 H   0  0  0  0  0  0  0  0  0  0  0  0
  142.9065   74.9645  221.3794 H   0  0  0  0  0  0  0  0  0  0  0  0
  145.2956   75.2910  219.9316 H   0  0  0  0  0  0  0  0  0  0  0  0
  145.2250   74.4979  221.5105 H   0  0  0  0  0  0  0  0  0  0  0  0
  145.4603   73.2710  218.7510 H   0  0  0  0  0  0  0  0  0  0  0  0
  146.0170   72.0600  221.2180 H   0  0  0  0  0  0  0  0  0  0  0  0
  143.7314   71.7302  218.9775 H   0  0  0  0  0  0  0  0  0  0  0  0
  144.0167   71.5042  220.7085 H   0  0  0  0  0  0  0  0  0  0  0  0
  139.5383   72.9529  221.1955 H   0  0  0  0  0  0  0  0  0  0  0  0
  140.8611   72.4076  222.2995 H   0  0  0  0  0  0  0  0  0  0  0  0
  141.7600   74.7320  222.2370 H   0  0  0  0  0  0  0  0  0  0  0  0
  137.9115   77.2069  222.8458 H   0  0  0  0  0  0  0  0  0  0  0  0
  138.3601   79.5069  223.7165 H   0  0  0  0  0  0  0  0  0  0  0  0
  139.9754   81.3145  224.2103 H   0  0  0  0  0  0  0  0  0  0  0  0
  144.1759   80.6919  223.3670 H   0  0  0  0  0  0  0  0  0  0  0  0
  143.6754   78.3987  222.5129 H   0  0  0  0  0  0  0  0  0  0  0  0
  139.2855   78.2732  219.4947 H   0  0  0  0  0  0  0  0  0  0  0  0
  138.4495   80.3489  220.5984 H   0  0  0  0  0  0  0  0  0  0  0  0
  142.4099   82.0765  220.3606 H   0  0  0  0  0  0  0  0  0  0  0  0
  143.2584   79.9978  219.2742 H   0  0  0  0  0  0  0  0  0  0  0  0
  1  2  1  0
  2  3  1  0
  3  4  1  0
  4  5  2  0
  4  6  1  0
  6  7  1  0
  7  8  1  0
  8  9  1  0
  8 10  1  0
 10 11  1  0
 11 12  1  0
 12 13  2  0
 12 14  1  0
 14 15  1  0
 15 16  1  0
 16 17  2  0
 16 18  1  0
 18 19  2  0
 19 20  1  0
 20 21  2  0
 21 22  1  0
 22 23  2  0
 23 24  1  0
 23 25  1  0
 25 26  2  0
 26 27  1  0
 27 28  2  0
  2 29  1  0
 29 30  2  0
 30 31  1  0
 31 32  2  0
 32 33  1  0
 32 34  1  0
 34 35  2  0
 11  6  1  0
 28 18  1  0
 35 29  1  0
 27 21  1  0
  1 36  1  0
  1 37  1  0
  1 38  1  0
  2 39  1  6
  3 40  1  0
  6 41  1  1
  7 42  1  0
  7 43  1  0
  8 44  1  6
  9 45  1  0
 10 46  1  0
 10 47  1  0
 14 48  1  0
 14 49  1  0
 15 50  1  0
 19 51  1  0
 20 52  1  0
 22 53  1  0
 25 54  1  0
 26 55  1  0
 30 56  1  0
 31 57  1  0
 34 58  1  0
 35 59  1  0
M  END
>  <UniqueID>  (31) 
81

>  <SMILES>  (31) 
C[C@@H](NC(=O)[C@@H]1C[C@@H](O)CN1C(=O)CNC(=O)c1ccc2cc(F)ccc2n1)c1ccc(Cl)cc1

>  <Energy>  (31) 
59.84674722814225

>  <Genealogy>  (31) 
C[C@@H](NC(=O)[C@@H]1C[C@@H](O)CN1C(=O)CNC(=O)c1ccc2cc(F)ccc2n1)c1ccc(Cl)cc1 (3D coordinates assigned)
C[C@@H](NC(=O)[C@@H]1C[C@@H](O)CN1C(=O)CNC(=O)c1ccc2cc(F)ccc2n1)c1ccc(Cl)cc1 (nonaromatic ring conformer: 59.84674722814225 kcal/mol)

>  <smiles>  (31) 
C[C@@H](NC(=O)[C@@H]1C[C@@H](O)CN1C(=O)CNC(=O)c1ccc2cc(F)ccc2n1)c1ccc(Cl)cc1

>  <score_type>  (31) 
oracle

>  <origin>  (31) 
autodockgpu

>  <m_score__min__energy>  (31) 
-9.9100000000000001

>  <m_primary>  (31) 
energy

>  <meeko>  (31) 
{"free_energy": -7.31, "intermolecular_energy": -9.7, "internal_energy": -4.5, "cluster_size": 15, "cluster_id": 4, "rank_in_cluster": 8}

>  <energy>  (31) 
-7.36

>  <cluster_rmsd>  (31) 
0.73

>  <rmsd>  (31) 
270.85

>  <cluster>  (31) 
4

$$$$
JDBMCWJIJNWNRF-OEQCPPMUNA-N
     RDKit          3D

 59 62  0  0  0  0  0  0  0  0999 V2000
  140.5440   76.2590  219.0260 C   0  0  0  0  0  0  0  0  0  0  0  0
  140.3990   76.0350  220.5370 C   0  0  1  0  0  0  0  0  0  0  0  0
  141.0920   74.8050  220.9320 N   0  0  0  0  0  0  0  0  0  0  0  0
  142.4050   74.4600  220.4560 C   0  0  0  0  0  0  0  0  0  0  0  0
  143.0280   75.2420  219.6910 O   0  0  0  0  0  0  0  0  0  0  0  0
  143.0430   73.1480  220.8340 C   0  0  2  0  0  0  0  0  0  0  0  0
  144.5670   73.2800  220.9030 C   0  0  0  0  0  0  0  0  0  0  0  0
  145.0920   72.6540  219.6060 C   0  0  1  0  0  0  0  0  0  0  0  0
  146.3250   72.0040  219.7860 O   0  0  0  0  0  0  0  0  0  0  0  0
  143.9940   71.7030  219.1310 C   0  0  0  0  0  0  0  0  0  0  0  0
  142.7860   72.1200  219.8270 N   0  0  0  0  0  0  0  0  0  0  0  0
  141.5050   71.5090  219.5640 C   0  0  0  0  0  0  0  0  0  0  0  0
  141.3670   70.7760  218.5460 O   0  0  0  0  0  0  0  0  0  0  0  0
  140.3130   71.7310  220.4550 C   0  0  0  0  0  0  0  0  0  0  0  0
  140.5540   71.1970  221.7920 N   0  0  0  0  0  0  0  0  0  0  0  0
  140.3200   71.9700  222.9810 C   0  0  0  0  0  0  0  0  0  0  0  0
  139.9480   73.1710  222.8830 O   0  0  0  0  0  0  0  0  0  0  0  0
  140.5120   71.3640  224.3160 C   0  0  0  0  0  0  0  0  0  0  0  0
  140.8660   72.1540  225.4250 C   0  0  0  0  0  0  0  0  0  0  0  0
  141.0440   71.5550  226.6750 C   0  0  0  0  0  0  0  0  0  0  0  0
  140.8660   70.1740  226.8180 C   0  0  0  0  0  0  0  0  0  0  0  0
  141.0390   69.5380  228.0580 C   0  0  0  0  0  0  0  0  0  0  0  0
  140.8520   68.1560  228.1670 C   0  0  0  0  0  0  0  0  0  0  0  0
  141.0240   67.5400  229.3630 F   0  0  0  0  0  0  0  0  0  0  0  0
  140.4910   67.4040  227.0410 C   0  0  0  0  0  0  0  0  0  0  0  0
  140.3160   68.0310  225.8020 C   0  0  0  0  0  0  0  0  0  0  0  0
  140.5040   69.4120  225.6850 C   0  0  0  0  0  0  0  0  0  0  0  0
  140.3400   70.0240  224.4800 N   0  0  0  0  0  0  0  0  0  0  0  0
  140.9460   77.2080  221.3250 C   0  0  0  0  0  0  0  0  0  0  0  0
  141.4160   78.3640  220.6710 C   0  0  0  0  0  0  0  0  0  0  0  0
  141.9190   79.4410  221.4090 C   0  0  0  0  0  0  0  0  0  0  0  0
  141.9670   79.3700  222.8050 C   0  0  0  0  0  0  0  0  0  0  0  0
  142.5910   80.7220  223.7310 Cl  0  0  0  0  0  0  0  0  0  0  0  0
  141.5150   78.2230  223.4640 C   0  0  0  0  0  0  0  0  0  0  0  0
  141.0070   77.1460  222.7290 C   0  0  0  0  0  0  0  0  0  0  0  0
  141.1336   77.1699  218.8453 H   0  0  0  0  0  0  0  0  0  0  0  0
  141.0551   75.3958  218.5747 H   0  0  0  0  0  0  0  0  0  0  0  0
  139.5472   76.3719  218.5747 H   0  0  0  0  0  0  0  0  0  0  0  0
  139.3265   75.9413  220.7627 H   0  0  0  0  0  0  0  0  0  0  0  0
  140.5850   74.1290  221.5460 H   0  0  0  0  0  0  0  0  0  0  0  0
  142.6119   72.8721  221.8077 H   0  0  0  0  0  0  0  0  0  0  0  0
  144.8587   74.3389  220.9642 H   0  0  0  0  0  0  0  0  0  0  0  0
  144.9797   72.7817  221.7926 H   0  0  0  0  0  0  0  0  0  0  0  0
  145.3013   73.4250  218.8498 H   0  0  0  0  0  0  0  0  0  0  0  0
  146.2990   71.5340  220.6640 H   0  0  0  0  0  0  0  0  0  0  0  0
  143.8582   71.7866  218.0426 H   0  0  0  0  0  0  0  0  0  0  0  0
  144.2446   70.6534  219.3445 H   0  0  0  0  0  0  0  0  0  0  0  0
  140.1149   72.8105  220.5289 H   0  0  0  0  0  0  0  0  0  0  0  0
  139.4476   71.2099  220.0197 H   0  0  0  0  0  0  0  0  0  0  0  0
  140.9600   70.2380  221.8710 H   0  0  0  0  0  0  0  0  0  0  0  0
  141.0022   73.2393  225.3086 H   0  0  0  0  0  0  0  0  0  0  0  0
  141.3235   72.1676  227.5448 H   0  0  0  0  0  0  0  0  0  0  0  0
  141.3215   70.1264  228.9434 H   0  0  0  0  0  0  0  0  0  0  0  0
  140.3447   66.3175  227.1312 H   0  0  0  0  0  0  0  0  0  0  0  0
  140.0307   67.4379  224.9206 H   0  0  0  0  0  0  0  0  0  0  0  0
  141.3873   78.4202  219.5728 H   0  0  0  0  0  0  0  0  0  0  0  0
  142.2766   80.3433  220.8914 H   0  0  0  0  0  0  0  0  0  0  0  0
  141.5587   78.1670  224.5617 H   0  0  0  0  0  0  0  0  0  0  0  0
  140.6532   76.2455  223.2523 H   0  0  0  0  0  0  0  0  0  0  0  0
  1  2  1  0
  2  3  1  0
  3  4  1  0
  4  5  2  0
  4  6  1  0
  6  7  1  0
  7  8  1  0
  8  9  1  0
  8 10  1  0
 10 11  1  0
 11 12  1  0
 12 13  2  0
 12 14  1  0
 14 15  1  0
 15 16  1  0
 16 17  2  0
 16 18  1  0
 18 19  2  0
 19 20  1  0
 20 21  2  0
 21 22  1  0
 22 23  2  0
 23 24  1  0
 23 25  1  0
 25 26  2  0
 26 27  1  0
 27 28  2  0
  2 29  1  0
 29 30  2  0
 30 31  1  0
 31 32  2  0
 32 33  1  0
 32 34  1  0
 34 35  2  0
 11  6  1  0
 28 18  1  0
 35 29  1  0
 27 21  1  0
  1 36  1  0
  1 37  1  0
  1 38  1  0
  2 39  1  6
  3 40  1  0
  6 41  1  1
  7 42  1  0
  7 43  1  0
  8 44  1  6
  9 45  1  0
 10 46  1  0
 10 47  1  0
 14 48  1  0
 14 49  1  0
 15 50  1  0
 19 51  1  0
 20 52  1  0
 22 53  1  0
 25 54  1  0
 26 55  1  0
 30 56  1  0
 31 57  1  0
 34 58  1  0
 35 59  1  0
M  END
>  <UniqueID>  (32) 
81

>  <SMILES>  (32) 
C[C@@H](NC(=O)[C@@H]1C[C@@H](O)CN1C(=O)CNC(=O)c1ccc2cc(F)ccc2n1)c1ccc(Cl)cc1

>  <Energy>  (32) 
59.84674722814225

>  <Genealogy>  (32) 
C[C@@H](NC(=O)[C@@H]1C[C@@H](O)CN1C(=O)CNC(=O)c1ccc2cc(F)ccc2n1)c1ccc(Cl)cc1 (3D coordinates assigned)
C[C@@H](NC(=O)[C@@H]1C[C@@H](O)CN1C(=O)CNC(=O)c1ccc2cc(F)ccc2n1)c1ccc(Cl)cc1 (nonaromatic ring conformer: 59.84674722814225 kcal/mol)

>  <smiles>  (32) 
C[C@@H](NC(=O)[C@@H]1C[C@@H](O)CN1C(=O)CNC(=O)c1ccc2cc(F)ccc2n1)c1ccc(Cl)cc1

>  <score_type>  (32) 
oracle

>  <origin>  (32) 
autodockgpu

>  <m_score__min__energy>  (32) 
-9.9100000000000001

>  <m_primary>  (32) 
energy

>  <meeko>  (32) 
{"free_energy": -9.08, "intermolecular_energy": -11.46, "internal_energy": -2.78, "cluster_size": 2, "cluster_id": 1, "rank_in_cluster": 2}

>  <energy>  (32) 
-7.31

>  <cluster_rmsd>  (32) 
0.74

>  <rmsd>  (32) 
270.83

>  <cluster>  (32) 
4

$$$$
JDBMCWJIJNWNRF-OEQCPPMUNA-N
     RDKit          3D

 59 62  0  0  0  0  0  0  0  0999 V2000
  142.9500   78.1200  217.6270 C   0  0  0  0  0  0  0  0  0  0  0  0
  141.8540   77.7770  218.6430 C   0  0  1  0  0  0  0  0  0  0  0  0
  142.3750   76.8510  219.6540 N   0  0  0  0  0  0  0  0  0  0  0  0
  142.8330   75.5250  219.3360 C   0  0  0  0  0  0  0  0  0  0  0  0
  142.8300   75.1210  218.1430 O   0  0  0  0  0  0  0  0  0  0  0  0
  143.2900   74.5860  220.4230 C   0  0  2  0  0  0  0  0  0  0  0  0
  144.8180   74.4940  220.4600 C   0  0  0  0  0  0  0  0  0  0  0  0
  145.1650   73.1650  219.7790 C   0  0  1  0  0  0  0  0  0  0  0  0
  146.2960   72.5520  220.3450 O   0  0  0  0  0  0  0  0  0  0  0  0
  143.9110   72.2990  219.8950 C   0  0  0  0  0  0  0  0  0  0  0  0
  142.8220   73.2230  220.1800 N   0  0  0  0  0  0  0  0  0  0  0  0
  141.4510   72.7800  220.2690 C   0  0  0  0  0  0  0  0  0  0  0  0
  140.9570   72.1040  219.3250 O   0  0  0  0  0  0  0  0  0  0  0  0
  140.5760   73.1140  221.4470 C   0  0  0  0  0  0  0  0  0  0  0  0
  140.8040   74.4850  221.8940 N   0  0  0  0  0  0  0  0  0  0  0  0
  139.7950   75.5020  221.7970 C   0  0  0  0  0  0  0  0  0  0  0  0
  138.6870   75.2350  221.2560 O   0  0  0  0  0  0  0  0  0  0  0  0
  140.0470   76.8590  222.3280 C   0  0  0  0  0  0  0  0  0  0  0  0
  138.9920   77.6540  222.8140 C   0  0  0  0  0  0  0  0  0  0  0  0
  139.2590   78.9340  223.3070 C   0  0  0  0  0  0  0  0  0  0  0  0
  140.5720   79.4170  223.3180 C   0  0  0  0  0  0  0  0  0  0  0  0
  140.8750   80.7000  223.8030 C   0  0  0  0  0  0  0  0  0  0  0  0
  142.2000   81.1520  223.8010 C   0  0  0  0  0  0  0  0  0  0  0  0
  142.4930   82.3930  224.2650 F   0  0  0  0  0  0  0  0  0  0  0  0
  143.2240   80.3280  223.3170 C   0  0  0  0  0  0  0  0  0  0  0  0
  142.9290   79.0490  222.8330 C   0  0  0  0  0  0  0  0  0  0  0  0
  141.6080   78.5900  222.8290 C   0  0  0  0  0  0  0  0  0  0  0  0
  141.3160   77.3490  222.3530 N   0  0  0  0  0  0  0  0  0  0  0  0
  141.3160   79.0230  219.3180 C   0  0  0  0  0  0  0  0  0  0  0  0
  139.9520   79.1350  219.6540 C   0  0  0  0  0  0  0  0  0  0  0  0
  139.4670   80.2900  220.2750 C   0  0  0  0  0  0  0  0  0  0  0  0
  140.3360   81.3490  220.5600 C   0  0  0  0  0  0  0  0  0  0  0  0
  139.7310   82.7940  221.3450 Cl  0  0  0  0  0  0  0  0  0  0  0  0
  141.6890   81.2540  220.2200 C   0  0  0  0  0  0  0  0  0  0  0  0
  142.1780   80.0980  219.6020 C   0  0  0  0  0  0  0  0  0  0  0  0
  143.8679   78.4073  218.1608 H   0  0  0  0  0  0  0  0  0  0  0  0
  143.1524   77.2423  216.9957 H   0  0  0  0  0  0  0  0  0  0  0  0
  142.6159   78.9566  216.9957 H   0  0  0  0  0  0  0  0  0  0  0  0
  141.0275   77.2981  218.0974 H   0  0  0  0  0  0  0  0  0  0  0  0
  142.3620   77.1550  220.6530 H   0  0  0  0  0  0  0  0  0  0  0  0
  142.8825   74.9883  221.3622 H   0  0  0  0  0  0  0  0  0  0  0  0
  145.2672   75.3355  219.9121 H   0  0  0  0  0  0  0  0  0  0  0  0
  145.2047   74.5385  221.4888 H   0  0  0  0  0  0  0  0  0  0  0  0
  145.4413   73.3201  218.7256 H   0  0  0  0  0  0  0  0  0  0  0  0
  145.9880   71.9670  221.0890 H   0  0  0  0  0  0  0  0  0  0  0  0
  143.7245   71.7650  218.9516 H   0  0  0  0  0  0  0  0  0  0  0  0
  144.0141   71.5366  220.6812 H   0  0  0  0  0  0  0  0  0  0  0  0
  139.5213   73.0010  221.1556 H   0  0  0  0  0  0  0  0  0  0  0  0
  140.8223   72.4300  222.2725 H   0  0  0  0  0  0  0  0  0  0  0  0
  141.7550   74.7330  222.2480 H   0  0  0  0  0  0  0  0  0  0  0  0
  137.9615   77.2693  222.8057 H   0  0  0  0  0  0  0  0  0  0  0  0
  138.4382   79.5608  223.6858 H   0  0  0  0  0  0  0  0  0  0  0  0
  140.0723   81.3486  224.1838 H   0  0  0  0  0  0  0  0  0  0  0  0
  144.2635   80.6877  223.3175 H   0  0  0  0  0  0  0  0  0  0  0  0
  143.7363   78.4042  222.4555 H   0  0  0  0  0  0  0  0  0  0  0  0
  139.2638   78.3077  219.4261 H   0  0  0  0  0  0  0  0  0  0  0  0
  138.4020   80.3662  220.5396 H   0  0  0  0  0  0  0  0  0  0  0  0
  142.3701   82.0896  220.4388 H   0  0  0  0  0  0  0  0  0  0  0  0
  143.2432   80.0292  219.3365 H   0  0  0  0  0  0  0  0  0  0  0  0
  1  2  1  0
  2  3  1  0
  3  4  1  0
  4  5  2  0
  4  6  1  0
  6  7  1  0
  7  8  1  0
  8  9  1  0
  8 10  1  0
 10 11  1  0
 11 12  1  0
 12 13  2  0
 12 14  1  0
 14 15  1  0
 15 16  1  0
 16 17  2  0
 16 18  1  0
 18 19  2  0
 19 20  1  0
 20 21  2  0
 21 22  1  0
 22 23  2  0
 23 24  1  0
 23 25  1  0
 25 26  2  0
 26 27  1  0
 27 28  2  0
  2 29  1  0
 29 30  2  0
 30 31  1  0
 31 32  2  0
 32 33  1  0
 32 34  1  0
 34 35  2  0
 11  6  1  0
 28 18  1  0
 35 29  1  0
 27 21  1  0
  1 36  1  0
  1 37  1  0
  1 38  1  0
  2 39  1  6
  3 40  1  0
  6 41  1  1
  7 42  1  0
  7 43  1  0
  8 44  1  6
  9 45  1  0
 10 46  1  0
 10 47  1  0
 14 48  1  0
 14 49  1  0
 15 50  1  0
 19 51  1  0
 20 52  1  0
 22 53  1  0
 25 54  1  0
 26 55  1  0
 30 56  1  0
 31 57  1  0
 34 58  1  0
 35 59  1  0
M  END
>  <UniqueID>  (33) 
81

>  <SMILES>  (33) 
C[C@@H](NC(=O)[C@@H]1C[C@@H](O)CN1C(=O)CNC(=O)c1ccc2cc(F)ccc2n1)c1ccc(Cl)cc1

>  <Energy>  (33) 
59.84674722814225

>  <Genealogy>  (33) 
C[C@@H](NC(=O)[C@@H]1C[C@@H](O)CN1C(=O)CNC(=O)c1ccc2cc(F)ccc2n1)c1ccc(Cl)cc1 (3D coordinates assigned)
C[C@@H](NC(=O)[C@@H]1C[C@@H](O)CN1C(=O)CNC(=O)c1ccc2cc(F)ccc2n1)c1ccc(Cl)cc1 (nonaromatic ring conformer: 59.84674722814225 kcal/mol)

>  <smiles>  (33) 
C[C@@H](NC(=O)[C@@H]1C[C@@H](O)CN1C(=O)CNC(=O)c1ccc2cc(F)ccc2n1)c1ccc(Cl)cc1

>  <score_type>  (33) 
oracle

>  <origin>  (33) 
autodockgpu

>  <m_score__min__energy>  (33) 
-9.9100000000000001

>  <m_primary>  (33) 
energy

>  <meeko>  (33) 
{"free_energy": -7.31, "intermolecular_energy": -9.7, "internal_energy": -4.51, "cluster_size": 15, "cluster_id": 4, "rank_in_cluster": 9}

>  <energy>  (33) 
-7.31

>  <cluster_rmsd>  (33) 
0.74

>  <rmsd>  (33) 
270.82

>  <cluster>  (33) 
4

$$$$
JDBMCWJIJNWNRF-OEQCPPMUNA-N
     RDKit          3D

 59 62  0  0  0  0  0  0  0  0999 V2000
  143.3230   76.7690  216.5540 C   0  0  0  0  0  0  0  0  0  0  0  0
  142.1420   76.6360  217.5240 C   0  0  1  0  0  0  0  0  0  0  0  0
  142.4030   75.5650  218.4910 N   0  0  0  0  0  0  0  0  0  0  0  0
  143.3900   75.6750  219.5310 C   0  0  0  0  0  0  0  0  0  0  0  0
  144.0540   76.7370  219.6660 O   0  0  0  0  0  0  0  0  0  0  0  0
  143.6720   74.5170  220.4530 C   0  0  2  0  0  0  0  0  0  0  0  0
  145.1660   74.1840  220.4740 C   0  0  0  0  0  0  0  0  0  0  0  0
  145.3220   72.9420  219.5890 C   0  0  1  0  0  0  0  0  0  0  0  0
  146.3310   72.0790  220.0500 O   0  0  0  0  0  0  0  0  0  0  0  0
  143.9480   72.2740  219.5670 C   0  0  0  0  0  0  0  0  0  0  0  0
  143.0070   73.2980  219.9970 N   0  0  0  0  0  0  0  0  0  0  0  0
  141.5820   73.0650  220.0150 C   0  0  0  0  0  0  0  0  0  0  0  0
  141.0160   72.6110  218.9810 O   0  0  0  0  0  0  0  0  0  0  0  0
  140.7360   73.3640  221.2230 C   0  0  0  0  0  0  0  0  0  0  0  0
  140.9500   74.7330  221.6840 N   0  0  0  0  0  0  0  0  0  0  0  0
  139.8760   75.6780  221.8070 C   0  0  0  0  0  0  0  0  0  0  0  0
  138.7100   75.3500  221.4540 O   0  0  0  0  0  0  0  0  0  0  0  0
  140.1290   77.0320  222.3450 C   0  0  0  0  0  0  0  0  0  0  0  0
  139.0710   77.8370  222.8070 C   0  0  0  0  0  0  0  0  0  0  0  0
  139.3390   79.1140  223.3070 C   0  0  0  0  0  0  0  0  0  0  0  0
  140.6560   79.5840  223.3490 C   0  0  0  0  0  0  0  0  0  0  0  0
  140.9610   80.8630  223.8430 C   0  0  0  0  0  0  0  0  0  0  0  0
  142.2890   81.3030  223.8710 C   0  0  0  0  0  0  0  0  0  0  0  0
  142.5840   82.5400  224.3440 F   0  0  0  0  0  0  0  0  0  0  0  0
  143.3160   80.4690  223.4110 C   0  0  0  0  0  0  0  0  0  0  0  0
  143.0200   79.1940  222.9180 C   0  0  0  0  0  0  0  0  0  0  0  0
  141.6950   78.7480  222.8830 C   0  0  0  0  0  0  0  0  0  0  0  0
  141.4020   77.5100  222.3990 N   0  0  0  0  0  0  0  0  0  0  0  0
  141.8790   77.9360  218.2570 C   0  0  0  0  0  0  0  0  0  0  0  0
  142.7270   79.0490  218.0860 C   0  0  0  0  0  0  0  0  0  0  0  0
  142.4750   80.2430  218.7680 C   0  0  0  0  0  0  0  0  0  0  0  0
  141.3810   80.3370  219.6350 C   0  0  0  0  0  0  0  0  0  0  0  0
  141.0600   81.8360  220.4850 Cl  0  0  0  0  0  0  0  0  0  0  0  0
  140.5400   79.2350  219.8220 C   0  0  0  0  0  0  0  0  0  0  0  0
  140.7870   78.0400  219.1370 C   0  0  0  0  0  0  0  0  0  0  0  0
  144.2569   76.8742  217.1256 H   0  0  0  0  0  0  0  0  0  0  0  0
  143.3800   75.8716  215.9204 H   0  0  0  0  0  0  0  0  0  0  0  0
  143.1789   77.6566  215.9204 H   0  0  0  0  0  0  0  0  0  0  0  0
  141.2474   76.3885  216.9338 H   0  0  0  0  0  0  0  0  0  0  0  0
  141.8830   74.6660  218.3820 H   0  0  0  0  0  0  0  0  0  0  0  0
  143.3084   74.8253  221.4443 H   0  0  0  0  0  0  0  0  0  0  0  0
  145.7522   75.0215  220.0677 H   0  0  0  0  0  0  0  0  0  0  0  0
  145.5294   74.0044  221.4966 H   0  0  0  0  0  0  0  0  0  0  0  0
  145.6446   73.2167  218.5739 H   0  0  0  0  0  0  0  0  0  0  0  0
  145.9800   71.5900  220.8420 H   0  0  0  0  0  0  0  0  0  0  0  0
  143.7042   71.9311  218.5507 H   0  0  0  0  0  0  0  0  0  0  0  0
  143.9148   71.3906  220.2216 H   0  0  0  0  0  0  0  0  0  0  0  0
  139.6756   73.2340  220.9610 H   0  0  0  0  0  0  0  0  0  0  0  0
  141.0202   72.6731  222.0304 H   0  0  0  0  0  0  0  0  0  0  0  0
  141.9310   75.0360  221.8780 H   0  0  0  0  0  0  0  0  0  0  0  0
  138.0373   77.4624  222.7746 H   0  0  0  0  0  0  0  0  0  0  0  0
  138.5158   79.7486  223.6670 H   0  0  0  0  0  0  0  0  0  0  0  0
  140.1563   81.5184  224.2077 H   0  0  0  0  0  0  0  0  0  0  0  0
  144.3588   80.8179  223.4375 H   0  0  0  0  0  0  0  0  0  0  0  0
  143.8295   78.5420  222.5578 H   0  0  0  0  0  0  0  0  0  0  0  0
  143.5929   78.9775  217.4113 H   0  0  0  0  0  0  0  0  0  0  0  0
  143.1373   81.1092  218.6229 H   0  0  0  0  0  0  0  0  0  0  0  0
  139.6835   79.3078  220.5083 H   0  0  0  0  0  0  0  0  0  0  0  0
  140.1227   77.1764  219.2878 H   0  0  0  0  0  0  0  0  0  0  0  0
  1  2  1  0
  2  3  1  0
  3  4  1  0
  4  5  2  0
  4  6  1  0
  6  7  1  0
  7  8  1  0
  8  9  1  0
  8 10  1  0
 10 11  1  0
 11 12  1  0
 12 13  2  0
 12 14  1  0
 14 15  1  0
 15 16  1  0
 16 17  2  0
 16 18  1  0
 18 19  2  0
 19 20  1  0
 20 21  2  0
 21 22  1  0
 22 23  2  0
 23 24  1  0
 23 25  1  0
 25 26  2  0
 26 27  1  0
 27 28  2  0
  2 29  1  0
 29 30  2  0
 30 31  1  0
 31 32  2  0
 32 33  1  0
 32 34  1  0
 34 35  2  0
 11  6  1  0
 28 18  1  0
 35 29  1  0
 27 21  1  0
  1 36  1  0
  1 37  1  0
  1 38  1  0
  2 39  1  6
  3 40  1  0
  6 41  1  1
  7 42  1  0
  7 43  1  0
  8 44  1  6
  9 45  1  0
 10 46  1  0
 10 47  1  0
 14 48  1  0
 14 49  1  0
 15 50  1  0
 19 51  1  0
 20 52  1  0
 22 53  1  0
 25 54  1  0
 26 55  1  0
 30 56  1  0
 31 57  1  0
 34 58  1  0
 35 59  1  0
M  END
>  <UniqueID>  (34) 
81

>  <SMILES>  (34) 
C[C@@H](NC(=O)[C@@H]1C[C@@H](O)CN1C(=O)CNC(=O)c1ccc2cc(F)ccc2n1)c1ccc(Cl)cc1

>  <Energy>  (34) 
59.84674722814225

>  <Genealogy>  (34) 
C[C@@H](NC(=O)[C@@H]1C[C@@H](O)CN1C(=O)CNC(=O)c1ccc2cc(F)ccc2n1)c1ccc(Cl)cc1 (3D coordinates assigned)
C[C@@H](NC(=O)[C@@H]1C[C@@H](O)CN1C(=O)CNC(=O)c1ccc2cc(F)ccc2n1)c1ccc(Cl)cc1 (nonaromatic ring conformer: 59.84674722814225 kcal/mol)

>  <smiles>  (34) 
C[C@@H](NC(=O)[C@@H]1C[C@@H](O)CN1C(=O)CNC(=O)c1ccc2cc(F)ccc2n1)c1ccc(Cl)cc1

>  <score_type>  (34) 
oracle

>  <origin>  (34) 
autodockgpu

>  <m_score__min__energy>  (34) 
-9.9100000000000001

>  <m_primary>  (34) 
energy

>  <meeko>  (34) 
{"free_energy": -7.49, "intermolecular_energy": -9.87, "internal_energy": -4.29, "cluster_size": 15, "cluster_id": 4, "rank_in_cluster": 4}

>  <energy>  (34) 
-7.31

>  <cluster_rmsd>  (34) 
0.76

>  <rmsd>  (34) 
270.82

>  <cluster>  (34) 
4

$$$$
JDBMCWJIJNWNRF-OEQCPPMUNA-N
     RDKit          3D

 59 62  0  0  0  0  0  0  0  0999 V2000
  142.9670   76.6810  217.0630 C   0  0  0  0  0  0  0  0  0  0  0  0
  143.5660   76.4980  218.4640 C   0  0  1  0  0  0  0  0  0  0  0  0
  142.7920   77.2610  219.4470 N   0  0  0  0  0  0  0  0  0  0  0  0
  141.3560   77.2140  219.5160 C   0  0  0  0  0  0  0  0  0  0  0  0
  140.7060   76.4700  218.7350 O   0  0  0  0  0  0  0  0  0  0  0  0
  140.6020   78.0750  220.4980 C   0  0  2  0  0  0  0  0  0  0  0  0
  141.3950   79.3410  220.8360 C   0  0  0  0  0  0  0  0  0  0  0  0
  142.0110   79.0830  222.2160 C   0  0  1  0  0  0  0  0  0  0  0  0
  142.0910   80.2510  222.9940 O   0  0  0  0  0  0  0  0  0  0  0  0
  141.1390   78.0080  222.8640 C   0  0  0  0  0  0  0  0  0  0  0  0
  140.4060   77.3860  221.7710 N   0  0  0  0  0  0  0  0  0  0  0  0
  139.5390   76.2520  221.9840 C   0  0  0  0  0  0  0  0  0  0  0  0
  138.5230   76.3790  222.7220 O   0  0  0  0  0  0  0  0  0  0  0  0
  139.8130   74.9060  221.3680 C   0  0  0  0  0  0  0  0  0  0  0  0
  139.6170   73.8370  222.3410 N   0  0  0  0  0  0  0  0  0  0  0  0
  140.4360   72.6570  222.3620 C   0  0  0  0  0  0  0  0  0  0  0  0
  141.3230   72.4960  221.4790 O   0  0  0  0  0  0  0  0  0  0  0  0
  140.2470   71.6320  223.4110 C   0  0  0  0  0  0  0  0  0  0  0  0
  139.6070   70.4120  223.1250 C   0  0  0  0  0  0  0  0  0  0  0  0
  139.4380   69.4630  224.1370 C   0  0  0  0  0  0  0  0  0  0  0  0
  139.9080   69.7300  225.4280 C   0  0  0  0  0  0  0  0  0  0  0  0
  139.7530   68.8000  226.4690 C   0  0  0  0  0  0  0  0  0  0  0  0
  140.2360   69.0980  227.7490 C   0  0  0  0  0  0  0  0  0  0  0  0
  140.0820   68.2030  228.7560 F   0  0  0  0  0  0  0  0  0  0  0  0
  140.8750   70.3200  227.9930 C   0  0  0  0  0  0  0  0  0  0  0  0
  141.0330   71.2510  226.9600 C   0  0  0  0  0  0  0  0  0  0  0  0
  140.5520   70.9630  225.6790 C   0  0  0  0  0  0  0  0  0  0  0  0
  140.6990   71.8670  224.6730 N   0  0  0  0  0  0  0  0  0  0  0  0
  143.6030   75.0360  218.8620 C   0  0  0  0  0  0  0  0  0  0  0  0
  143.0660   74.0410  218.0200 C   0  0  0  0  0  0  0  0  0  0  0  0
  143.1040   72.6960  218.3980 C   0  0  0  0  0  0  0  0  0  0  0  0
  143.6700   72.3300  219.6240 C   0  0  0  0  0  0  0  0  0  0  0  0
  143.7250   70.6420  220.0960 Cl  0  0  0  0  0  0  0  0  0  0  0  0
  144.1950   73.3090  220.4730 C   0  0  0  0  0  0  0  0  0  0  0  0
  144.1620   74.6550  220.0950 C   0  0  0  0  0  0  0  0  0  0  0  0
  141.9184   77.0014  217.1515 H   0  0  0  0  0  0  0  0  0  0  0  0
  143.5390   77.4454  216.5166 H   0  0  0  0  0  0  0  0  0  0  0  0
  143.0142   75.7275  216.5166 H   0  0  0  0  0  0  0  0  0  0  0  0
  144.5997   76.8734  218.4404 H   0  0  0  0  0  0  0  0  0  0  0  0
  143.3070   77.9040  220.0880 H   0  0  0  0  0  0  0  0  0  0  0  0
  139.6405   78.3101  220.0181 H   0  0  0  0  0  0  0  0  0  0  0  0
  142.1840   79.5113  220.0887 H   0  0  0  0  0  0  0  0  0  0  0  0
  140.7548   80.2355  220.8359 H   0  0  0  0  0  0  0  0  0  0  0  0
  143.0543   78.7458  222.1279 H   0  0  0  0  0  0  0  0  0  0  0  0
  141.9590   81.0310  222.3900 H   0  0  0  0  0  0  0  0  0  0  0  0
  141.7654   77.2643  223.3783 H   0  0  0  0  0  0  0  0  0  0  0  0
  140.4608   78.4344  223.6178 H   0  0  0  0  0  0  0  0  0  0  0  0
  139.1283   74.7517  220.5211 H   0  0  0  0  0  0  0  0  0  0  0  0
  140.8585   74.8826  221.0269 H   0  0  0  0  0  0  0  0  0  0  0  0
  138.8170   73.9220  223.0080 H   0  0  0  0  0  0  0  0  0  0  0  0
  139.2409   70.2059  222.1084 H   0  0  0  0  0  0  0  0  0  0  0  0
  138.9367   68.5084  223.9193 H   0  0  0  0  0  0  0  0  0  0  0  0
  139.2529   67.8389  226.2790 H   0  0  0  0  0  0  0  0  0  0  0  0
  141.2540   70.5489  228.9999 H   0  0  0  0  0  0  0  0  0  0  0  0
  141.5357   72.2096  227.1559 H   0  0  0  0  0  0  0  0  0  0  0  0
  142.6137   74.3253  217.0584 H   0  0  0  0  0  0  0  0  0  0  0  0
  142.6890   71.9254  217.7317 H   0  0  0  0  0  0  0  0  0  0  0  0
  144.6344   73.0202  221.4392 H   0  0  0  0  0  0  0  0  0  0  0  0
  144.5762   75.4212  220.7668 H   0  0  0  0  0  0  0  0  0  0  0  0
  1  2  1  0
  2  3  1  0
  3  4  1  0
  4  5  2  0
  4  6  1  0
  6  7  1  0
  7  8  1  0
  8  9  1  0
  8 10  1  0
 10 11  1  0
 11 12  1  0
 12 13  2  0
 12 14  1  0
 14 15  1  0
 15 16  1  0
 16 17  2  0
 16 18  1  0
 18 19  2  0
 19 20  1  0
 20 21  2  0
 21 22  1  0
 22 23  2  0
 23 24  1  0
 23 25  1  0
 25 26  2  0
 26 27  1  0
 27 28  2  0
  2 29  1  0
 29 30  2  0
 30 31  1  0
 31 32  2  0
 32 33  1  0
 32 34  1  0
 34 35  2  0
 11  6  1  0
 28 18  1  0
 35 29  1  0
 27 21  1  0
  1 36  1  0
  1 37  1  0
  1 38  1  0
  2 39  1  6
  3 40  1  0
  6 41  1  6
  7 42  1  0
  7 43  1  0
  8 44  1  6
  9 45  1  0
 10 46  1  0
 10 47  1  0
 14 48  1  0
 14 49  1  0
 15 50  1  0
 19 51  1  0
 20 52  1  0
 22 53  1  0
 25 54  1  0
 26 55  1  0
 30 56  1  0
 31 57  1  0
 34 58  1  0
 35 59  1  0
M  END
>  <UniqueID>  (35) 
81

>  <SMILES>  (35) 
C[C@@H](NC(=O)[C@@H]1C[C@@H](O)CN1C(=O)CNC(=O)c1ccc2cc(F)ccc2n1)c1ccc(Cl)cc1

>  <Energy>  (35) 
59.84674722814225

>  <Genealogy>  (35) 
C[C@@H](NC(=O)[C@@H]1C[C@@H](O)CN1C(=O)CNC(=O)c1ccc2cc(F)ccc2n1)c1ccc(Cl)cc1 (3D coordinates assigned)
C[C@@H](NC(=O)[C@@H]1C[C@@H](O)CN1C(=O)CNC(=O)c1ccc2cc(F)ccc2n1)c1ccc(Cl)cc1 (nonaromatic ring conformer: 59.84674722814225 kcal/mol)

>  <smiles>  (35) 
C[C@@H](NC(=O)[C@@H]1C[C@@H](O)CN1C(=O)CNC(=O)c1ccc2cc(F)ccc2n1)c1ccc(Cl)cc1

>  <score_type>  (35) 
oracle

>  <origin>  (35) 
autodockgpu

>  <m_score__min__energy>  (35) 
-9.9100000000000001

>  <m_primary>  (35) 
energy

>  <meeko>  (35) 
{"free_energy": -8.63, "intermolecular_energy": -11.01, "internal_energy": -2.48, "cluster_size": 1, "cluster_id": 2, "rank_in_cluster": 1}

>  <energy>  (35) 
-7.25

>  <cluster_rmsd>  (35) 
0.75

>  <rmsd>  (35) 
270.8

>  <cluster>  (35) 
4

$$$$
JDBMCWJIJNWNRF-OEQCPPMUNA-N
     RDKit          3D

 59 62  0  0  0  0  0  0  0  0999 V2000
  136.3490   77.4090  221.3130 C   0  0  0  0  0  0  0  0  0  0  0  0
  136.8280   75.9520  221.3170 C   0  0  1  0  0  0  0  0  0  0  0  0
  138.2900   75.9030  221.4210 N   0  0  0  0  0  0  0  0  0  0  0  0
  139.0370   76.7280  222.3320 C   0  0  0  0  0  0  0  0  0  0  0  0
  138.4380   77.5140  223.1130 O   0  0  0  0  0  0  0  0  0  0  0  0
  140.5440   76.6930  222.3470 C   0  0  2  0  0  0  0  0  0  0  0  0
  141.1130   77.9360  223.0360 C   0  0  0  0  0  0  0  0  0  0  0  0
  141.5880   78.8530  221.9030 C   0  0  1  0  0  0  0  0  0  0  0  0
  142.7360   79.5860  222.2530 O   0  0  0  0  0  0  0  0  0  0  0  0
  141.8220   77.9390  220.7010 C   0  0  0  0  0  0  0  0  0  0  0  0
  141.0910   76.7140  220.9910 N   0  0  0  0  0  0  0  0  0  0  0  0
  140.9990   75.6370  220.0360 C   0  0  0  0  0  0  0  0  0  0  0  0
  140.1450   75.7020  219.1080 O   0  0  0  0  0  0  0  0  0  0  0  0
  141.8780   74.4170  220.1150 C   0  0  0  0  0  0  0  0  0  0  0  0
  141.5210   73.5910  221.2640 N   0  0  0  0  0  0  0  0  0  0  0  0
  140.1930   73.0790  221.4580 C   0  0  0  0  0  0  0  0  0  0  0  0
  139.2770   73.3920  220.6490 O   0  0  0  0  0  0  0  0  0  0  0  0
  139.8940   72.1870  222.5990 C   0  0  0  0  0  0  0  0  0  0  0  0
  138.8080   71.2930  222.5550 C   0  0  0  0  0  0  0  0  0  0  0  0
  138.5470   70.4650  223.6490 C   0  0  0  0  0  0  0  0  0  0  0  0
  139.3670   70.5260  224.7820 C   0  0  0  0  0  0  0  0  0  0  0  0
  139.1310   69.7100  225.9000 C   0  0  0  0  0  0  0  0  0  0  0  0
  139.9710   69.7960  227.0160 C   0  0  0  0  0  0  0  0  0  0  0  0
  139.7420   69.0120  228.0990 F   0  0  0  0  0  0  0  0  0  0  0  0
  141.0480   70.6920  227.0200 C   0  0  0  0  0  0  0  0  0  0  0  0
  141.2880   71.5080  225.9090 C   0  0  0  0  0  0  0  0  0  0  0  0
  140.4520   71.4310  224.7900 C   0  0  0  0  0  0  0  0  0  0  0  0
  140.6800   72.2260  223.7100 N   0  0  0  0  0  0  0  0  0  0  0  0
  136.2070   75.1690  222.4560 C   0  0  0  0  0  0  0  0  0  0  0  0
  136.1060   73.7640  222.4000 C   0  0  0  0  0  0  0  0  0  0  0  0
  135.5310   73.0520  223.4560 C   0  0  0  0  0  0  0  0  0  0  0  0
  135.0400   73.7340  224.5750 C   0  0  0  0  0  0  0  0  0  0  0  0
  134.3240   72.8410  225.9030 Cl  0  0  0  0  0  0  0  0  0  0  0  0
  135.1240   75.1290  224.6360 C   0  0  0  0  0  0  0  0  0  0  0  0
  135.7040   75.8440  223.5830 C   0  0  0  0  0  0  0  0  0  0  0  0
  136.2336   77.7599  222.3491 H   0  0  0  0  0  0  0  0  0  0  0  0
  137.0881   78.0365  220.7935 H   0  0  0  0  0  0  0  0  0  0  0  0
  135.3817   77.4755  220.7935 H   0  0  0  0  0  0  0  0  0  0  0  0
  136.5108   75.4904  220.3703 H   0  0  0  0  0  0  0  0  0  0  0  0
  138.8100   75.2780  220.7650 H   0  0  0  0  0  0  0  0  0  0  0  0
  140.8201   75.7693  222.8767 H   0  0  0  0  0  0  0  0  0  0  0  0
  140.3350   78.4343  223.6330 H   0  0  0  0  0  0  0  0  0  0  0  0
  141.9322   77.6812  223.7245 H   0  0  0  0  0  0  0  0  0  0  0  0
  140.8362   79.6225  221.6735 H   0  0  0  0  0  0  0  0  0  0  0  0
  143.5330   79.0580  221.9760 H   0  0  0  0  0  0  0  0  0  0  0  0
  141.4378   78.4069  219.7826 H   0  0  0  0  0  0  0  0  0  0  0  0
  142.8928   77.7450  220.5402 H   0  0  0  0  0  0  0  0  0  0  0  0
  141.7572   73.8259  219.1952 H   0  0  0  0  0  0  0  0  0  0  0  0
  142.9224   74.7432  220.2278 H   0  0  0  0  0  0  0  0  0  0  0  0
  142.2530   73.4160  221.9890 H   0  0  0  0  0  0  0  0  0  0  0  0
  138.1671   71.2465  221.6622 H   0  0  0  0  0  0  0  0  0  0  0  0
  137.6982   69.7659  223.6204 H   0  0  0  0  0  0  0  0  0  0  0  0
  138.2872   69.0043  225.8987 H   0  0  0  0  0  0  0  0  0  0  0  0
  141.7066   70.7542  227.8988 H   0  0  0  0  0  0  0  0  0  0  0  0
  142.1345   72.2104  225.9155 H   0  0  0  0  0  0  0  0  0  0  0  0
  136.4826   73.2242  221.5186 H   0  0  0  0  0  0  0  0  0  0  0  0
  135.4643   71.9551  223.4077 H   0  0  0  0  0  0  0  0  0  0  0  0
  134.7332   75.6647  225.5137 H   0  0  0  0  0  0  0  0  0  0  0  0
  135.7672   76.9409  223.6365 H   0  0  0  0  0  0  0  0  0  0  0  0
  1  2  1  0
  2  3  1  0
  3  4  1  0
  4  5  2  0
  4  6  1  0
  6  7  1  0
  7  8  1  0
  8  9  1  0
  8 10  1  0
 10 11  1  0
 11 12  1  0
 12 13  2  0
 12 14  1  0
 14 15  1  0
 15 16  1  0
 16 17  2  0
 16 18  1  0
 18 19  2  0
 19 20  1  0
 20 21  2  0
 21 22  1  0
 22 23  2  0
 23 24  1  0
 23 25  1  0
 25 26  2  0
 26 27  1  0
 27 28  2  0
  2 29  1  0
 29 30  2  0
 30 31  1  0
 31 32  2  0
 32 33  1  0
 32 34  1  0
 34 35  2  0
 11  6  1  0
 28 18  1  0
 35 29  1  0
 27 21  1  0
  1 36  1  0
  1 37  1  0
  1 38  1  0
  2 39  1  6
  3 40  1  0
  6 41  1  1
  7 42  1  0
  7 43  1  0
  8 44  1  6
  9 45  1  0
 10 46  1  0
 10 47  1  0
 14 48  1  0
 14 49  1  0
 15 50  1  0
 19 51  1  0
 20 52  1  0
 22 53  1  0
 25 54  1  0
 26 55  1  0
 30 56  1  0
 31 57  1  0
 34 58  1  0
 35 59  1  0
M  END
>  <UniqueID>  (36) 
81

>  <SMILES>  (36) 
C[C@@H](NC(=O)[C@@H]1C[C@@H](O)CN1C(=O)CNC(=O)c1ccc2cc(F)ccc2n1)c1ccc(Cl)cc1

>  <Energy>  (36) 
59.84674722814225

>  <Genealogy>  (36) 
C[C@@H](NC(=O)[C@@H]1C[C@@H](O)CN1C(=O)CNC(=O)c1ccc2cc(F)ccc2n1)c1ccc(Cl)cc1 (3D coordinates assigned)
C[C@@H](NC(=O)[C@@H]1C[C@@H](O)CN1C(=O)CNC(=O)c1ccc2cc(F)ccc2n1)c1ccc(Cl)cc1 (nonaromatic ring conformer: 59.84674722814225 kcal/mol)

>  <smiles>  (36) 
C[C@@H](NC(=O)[C@@H]1C[C@@H](O)CN1C(=O)CNC(=O)c1ccc2cc(F)ccc2n1)c1ccc(Cl)cc1

>  <score_type>  (36) 
oracle

>  <origin>  (36) 
autodockgpu

>  <m_score__min__energy>  (36) 
-9.9100000000000001

>  <m_primary>  (36) 
energy

>  <meeko>  (36) 
{"free_energy": -6.79, "intermolecular_energy": -9.18, "internal_energy": -4.12, "cluster_size": 1, "cluster_id": 5, "rank_in_cluster": 1}

>  <energy>  (36) 
-6.94

>  <cluster_rmsd>  (36) 
1.48

>  <rmsd>  (36) 
269.84

>  <cluster>  (36) 
4

$$$$
JDBMCWJIJNWNRF-OEQCPPMUNA-N
     RDKit          3D

 59 62  0  0  0  0  0  0  0  0999 V2000
  142.9410   78.1910  217.6410 C   0  0  0  0  0  0  0  0  0  0  0  0
  141.8590   77.8230  218.6640 C   0  0  1  0  0  0  0  0  0  0  0  0
  142.4020   76.8950  219.6600 N   0  0  0  0  0  0  0  0  0  0  0  0
  142.7320   75.5290  219.3570 C   0  0  0  0  0  0  0  0  0  0  0  0
  142.5920   75.0860  218.1860 O   0  0  0  0  0  0  0  0  0  0  0  0
  143.2170   74.5940  220.4360 C   0  0  2  0  0  0  0  0  0  0  0  0
  144.7460   74.5190  220.4480 C   0  0  0  0  0  0  0  0  0  0  0  0
  145.0980   73.1950  219.7600 C   0  0  1  0  0  0  0  0  0  0  0  0
  146.2450   72.5960  220.3080 O   0  0  0  0  0  0  0  0  0  0  0  0
  143.8570   72.3150  219.8960 C   0  0  0  0  0  0  0  0  0  0  0  0
  142.7620   73.2250  220.1990 N   0  0  0  0  0  0  0  0  0  0  0  0
  141.3980   72.7670  220.3100 C   0  0  0  0  0  0  0  0  0  0  0  0
  140.8950   72.0880  219.3710 O   0  0  0  0  0  0  0  0  0  0  0  0
  140.5390   73.0870  221.5030 C   0  0  0  0  0  0  0  0  0  0  0  0
  140.7590   74.4580  221.9520 N   0  0  0  0  0  0  0  0  0  0  0  0
  139.7540   75.4770  221.8280 C   0  0  0  0  0  0  0  0  0  0  0  0
  138.6590   75.2100  221.2610 O   0  0  0  0  0  0  0  0  0  0  0  0
  139.9960   76.8350  222.3610 C   0  0  0  0  0  0  0  0  0  0  0  0
  138.9360   77.6190  222.8530 C   0  0  0  0  0  0  0  0  0  0  0  0
  139.1930   78.9010  223.3470 C   0  0  0  0  0  0  0  0  0  0  0  0
  140.5020   79.3960  223.3540 C   0  0  0  0  0  0  0  0  0  0  0  0
  140.7960   80.6800  223.8410 C   0  0  0  0  0  0  0  0  0  0  0  0
  142.1160   81.1440  223.8340 C   0  0  0  0  0  0  0  0  0  0  0  0
  142.4000   82.3860  224.3000 F   0  0  0  0  0  0  0  0  0  0  0  0
  143.1460   80.3310  223.3440 C   0  0  0  0  0  0  0  0  0  0  0  0
  142.8610   79.0500  222.8580 C   0  0  0  0  0  0  0  0  0  0  0  0
  141.5430   78.5790  222.8590 C   0  0  0  0  0  0  0  0  0  0  0  0
  141.2610   77.3360  222.3810 N   0  0  0  0  0  0  0  0  0  0  0  0
  141.3110   79.0550  219.3560 C   0  0  0  0  0  0  0  0  0  0  0  0
  139.9470   79.1470  219.6990 C   0  0  0  0  0  0  0  0  0  0  0  0
  139.4520   80.2890  220.3370 C   0  0  0  0  0  0  0  0  0  0  0  0
  140.3100   81.3550  220.6290 C   0  0  0  0  0  0  0  0  0  0  0  0
  139.6920   82.7840  221.4340 Cl  0  0  0  0  0  0  0  0  0  0  0  0
  141.6620   81.2790  220.2820 C   0  0  0  0  0  0  0  0  0  0  0  0
  142.1620   80.1360  219.6480 C   0  0  0  0  0  0  0  0  0  0  0  0
  143.8545   78.5017  218.1692 H   0  0  0  0  0  0  0  0  0  0  0  0
  143.1614   77.3173  217.0101 H   0  0  0  0  0  0  0  0  0  0  0  0
  142.5830   79.0179  217.0101 H   0  0  0  0  0  0  0  0  0  0  0  0
  141.0337   77.3382  218.1219 H   0  0  0  0  0  0  0  0  0  0  0  0
  142.5030   77.2320  220.6440 H   0  0  0  0  0  0  0  0  0  0  0  0
  142.8192   74.9911  221.3816 H   0  0  0  0  0  0  0  0  0  0  0  0
  145.1766   75.3662  219.8940 H   0  0  0  0  0  0  0  0  0  0  0  0
  145.1483   74.5664  221.4707 H   0  0  0  0  0  0  0  0  0  0  0  0
  145.3555   73.3532  218.7023 H   0  0  0  0  0  0  0  0  0  0  0  0
  145.9480   71.8900  220.9450 H   0  0  0  0  0  0  0  0  0  0  0  0
  143.6616   71.7791  218.9555 H   0  0  0  0  0  0  0  0  0  0  0  0
  143.9821   71.5540  220.6803 H   0  0  0  0  0  0  0  0  0  0  0  0
  139.4810   72.9637  221.2282 H   0  0  0  0  0  0  0  0  0  0  0  0
  140.8063   72.4025  222.3216 H   0  0  0  0  0  0  0  0  0  0  0  0
  141.7020   74.7050  222.3280 H   0  0  0  0  0  0  0  0  0  0  0  0
  137.9092   77.2245  222.8488 H   0  0  0  0  0  0  0  0  0  0  0  0
  138.3679   79.5197  223.7296 H   0  0  0  0  0  0  0  0  0  0  0  0
  139.9894   81.3203  224.2276 H   0  0  0  0  0  0  0  0  0  0  0  0
  144.1820   80.7006  223.3412 H   0  0  0  0  0  0  0  0  0  0  0  0
  143.6725   78.4135  222.4754 H   0  0  0  0  0  0  0  0  0  0  0  0
  139.2672   78.3150  219.4633 H   0  0  0  0  0  0  0  0  0  0  0  0
  138.3879   80.3491  220.6093 H   0  0  0  0  0  0  0  0  0  0  0  0
  142.3345   82.1197  220.5078 H   0  0  0  0  0  0  0  0  0  0  0  0
  143.2266   80.0827  219.3765 H   0  0  0  0  0  0  0  0  0  0  0  0
  1  2  1  0
  2  3  1  0
  3  4  1  0
  4  5  2  0
  4  6  1  0
  6  7  1  0
  7  8  1  0
  8  9  1  0
  8 10  1  0
 10 11  1  0
 11 12  1  0
 12 13  2  0
 12 14  1  0
 14 15  1  0
 15 16  1  0
 16 17  2  0
 16 18  1  0
 18 19  2  0
 19 20  1  0
 20 21  2  0
 21 22  1  0
 22 23  2  0
 23 24  1  0
 23 25  1  0
 25 26  2  0
 26 27  1  0
 27 28  2  0
  2 29  1  0
 29 30  2  0
 30 31  1  0
 31 32  2  0
 32 33  1  0
 32 34  1  0
 34 35  2  0
 11  6  1  0
 28 18  1  0
 35 29  1  0
 27 21  1  0
  1 36  1  0
  1 37  1  0
  1 38  1  0
  2 39  1  6
  3 40  1  0
  6 41  1  1
  7 42  1  0
  7 43  1  0
  8 44  1  6
  9 45  1  0
 10 46  1  0
 10 47  1  0
 14 48  1  0
 14 49  1  0
 15 50  1  0
 19 51  1  0
 20 52  1  0
 22 53  1  0
 25 54  1  0
 26 55  1  0
 30 56  1  0
 31 57  1  0
 34 58  1  0
 35 59  1  0
M  END
>  <UniqueID>  (37) 
81

>  <SMILES>  (37) 
C[C@@H](NC(=O)[C@@H]1C[C@@H](O)CN1C(=O)CNC(=O)c1ccc2cc(F)ccc2n1)c1ccc(Cl)cc1

>  <Energy>  (37) 
59.84674722814225

>  <Genealogy>  (37) 
C[C@@H](NC(=O)[C@@H]1C[C@@H](O)CN1C(=O)CNC(=O)c1ccc2cc(F)ccc2n1)c1ccc(Cl)cc1 (3D coordinates assigned)
C[C@@H](NC(=O)[C@@H]1C[C@@H](O)CN1C(=O)CNC(=O)c1ccc2cc(F)ccc2n1)c1ccc(Cl)cc1 (nonaromatic ring conformer: 59.84674722814225 kcal/mol)

>  <smiles>  (37) 
C[C@@H](NC(=O)[C@@H]1C[C@@H](O)CN1C(=O)CNC(=O)c1ccc2cc(F)ccc2n1)c1ccc(Cl)cc1

>  <score_type>  (37) 
oracle

>  <origin>  (37) 
autodockgpu

>  <m_score__min__energy>  (37) 
-9.9100000000000001

>  <m_primary>  (37) 
energy

>  <meeko>  (37) 
{"free_energy": -7.31, "intermolecular_energy": -9.69, "internal_energy": -4.5, "cluster_size": 15, "cluster_id": 4, "rank_in_cluster": 10}

>  <energy>  (37) 
-6.71

>  <cluster_rmsd>  (37) 
1.12

>  <rmsd>  (37) 
270.47

>  <cluster>  (37) 
4

$$$$
JDBMCWJIJNWNRF-OEQCPPMUNA-N
     RDKit          3D

 59 62  0  0  0  0  0  0  0  0999 V2000
  141.2700   77.3440  218.6710 C   0  0  0  0  0  0  0  0  0  0  0  0
  140.7830   76.9660  220.0760 C   0  0  1  0  0  0  0  0  0  0  0  0
  141.2670   75.6300  220.4340 N   0  0  0  0  0  0  0  0  0  0  0  0
  142.6280   75.2110  220.2300 C   0  0  0  0  0  0  0  0  0  0  0  0
  143.4750   76.0140  219.7560 O   0  0  0  0  0  0  0  0  0  0  0  0
  143.0580   73.8020  220.5470 C   0  0  2  0  0  0  0  0  0  0  0  0
  144.5590   73.7400  220.8430 C   0  0  0  0  0  0  0  0  0  0  0  0
  145.2060   73.1790  219.5720 C   0  0  1  0  0  0  0  0  0  0  0  0
  146.3210   72.3700  219.8510 O   0  0  0  0  0  0  0  0  0  0  0  0
  144.0980   72.4180  218.8450 C   0  0  0  0  0  0  0  0  0  0  0  0
  142.8490   72.9120  219.4060 N   0  0  0  0  0  0  0  0  0  0  0  0
  141.5660   72.4880  218.9000 C   0  0  0  0  0  0  0  0  0  0  0  0
  141.5010   71.9200  217.7740 O   0  0  0  0  0  0  0  0  0  0  0  0
  140.2880   72.7180  219.6610 C   0  0  0  0  0  0  0  0  0  0  0  0
  140.2310   71.8740  220.8510 N   0  0  0  0  0  0  0  0  0  0  0  0
  140.2180   72.4210  222.1800 C   0  0  0  0  0  0  0  0  0  0  0  0
  140.3170   73.6680  222.3440 O   0  0  0  0  0  0  0  0  0  0  0  0
  140.0880   71.5310  223.3540 C   0  0  0  0  0  0  0  0  0  0  0  0
  139.4420   70.2860  223.2510 C   0  0  0  0  0  0  0  0  0  0  0  0
  139.3310   69.4670  224.3770 C   0  0  0  0  0  0  0  0  0  0  0  0
  139.8640   69.8880  225.6010 C   0  0  0  0  0  0  0  0  0  0  0  0
  139.7680   69.0920  226.7540 C   0  0  0  0  0  0  0  0  0  0  0  0
  140.3140   69.5430  227.9610 C   0  0  0  0  0  0  0  0  0  0  0  0
  140.2170   68.7760  229.0770 F   0  0  0  0  0  0  0  0  0  0  0  0
  140.9570   70.7850  228.0230 C   0  0  0  0  0  0  0  0  0  0  0  0
  141.0580   71.5830  226.8780 C   0  0  0  0  0  0  0  0  0  0  0  0
  140.5130   71.1420  225.6670 C   0  0  0  0  0  0  0  0  0  0  0  0
  140.6030   71.9180  224.5530 N   0  0  0  0  0  0  0  0  0  0  0  0
  141.2430   77.9730  221.1100 C   0  0  0  0  0  0  0  0  0  0  0  0
  141.1400   77.6970  222.4880 C   0  0  0  0  0  0  0  0  0  0  0  0
  141.5670   78.6340  223.4330 C   0  0  0  0  0  0  0  0  0  0  0  0
  142.0940   79.8600  223.0140 C   0  0  0  0  0  0  0  0  0  0  0  0
  142.6360   81.0340  224.1990 Cl  0  0  0  0  0  0  0  0  0  0  0  0
  142.1900   80.1510  221.6500 C   0  0  0  0  0  0  0  0  0  0  0  0
  141.7680   79.2130  220.7020 C   0  0  0  0  0  0  0  0  0  0  0  0
  142.1366   78.0166  218.7519 H   0  0  0  0  0  0  0  0  0  0  0  0
  141.5620   76.4337  218.1269 H   0  0  0  0  0  0  0  0  0  0  0  0
  140.4606   77.8527  218.1269 H   0  0  0  0  0  0  0  0  0  0  0  0
  139.6831   76.9667  220.0631 H   0  0  0  0  0  0  0  0  0  0  0  0
  140.5780   74.9390  220.8050 H   0  0  0  0  0  0  0  0  0  0  0  0
  142.4575   73.4910  221.4146 H   0  0  0  0  0  0  0  0  0  0  0  0
  144.9493   74.7450  221.0613 H   0  0  0  0  0  0  0  0  0  0  0  0
  144.7756   73.1136  221.7209 H   0  0  0  0  0  0  0  0  0  0  0  0
  145.6095   73.9857  218.9425 H   0  0  0  0  0  0  0  0  0  0  0  0
  146.1420   71.8830  220.7010 H   0  0  0  0  0  0  0  0  0  0  0  0
  144.1395   72.6193  217.7644 H   0  0  0  0  0  0  0  0  0  0  0  0
  144.1996   71.3304  218.9742 H   0  0  0  0  0  0  0  0  0  0  0  0
  140.2351   73.7737  219.9654 H   0  0  0  0  0  0  0  0  0  0  0  0
  139.4398   72.4633  219.0086 H   0  0  0  0  0  0  0  0  0  0  0  0
  140.2530   70.8380  220.7190 H   0  0  0  0  0  0  0  0  0  0  0  0
  139.0256   69.9584  222.2870 H   0  0  0  0  0  0  0  0  0  0  0  0
  138.8256   68.4929  224.3021 H   0  0  0  0  0  0  0  0  0  0  0  0
  139.2643   68.1152  226.7084 H   0  0  0  0  0  0  0  0  0  0  0  0
  141.3841   71.1346  228.9745 H   0  0  0  0  0  0  0  0  0  0  0  0
  141.5660   72.5573  226.9299 H   0  0  0  0  0  0  0  0  0  0  0  0
  140.7203   76.7368  222.8225 H   0  0  0  0  0  0  0  0  0  0  0  0
  141.4886   78.4072  224.5065 H   0  0  0  0  0  0  0  0  0  0  0  0
  142.5978   81.1185  221.3219 H   0  0  0  0  0  0  0  0  0  0  0  0
  141.8472   79.4464  219.6300 H   0  0  0  0  0  0  0  0  0  0  0  0
  1  2  1  0
  2  3  1  0
  3  4  1  0
  4  5  2  0
  4  6  1  0
  6  7  1  0
  7  8  1  0
  8  9  1  0
  8 10  1  0
 10 11  1  0
 11 12  1  0
 12 13  2  0
 12 14  1  0
 14 15  1  0
 15 16  1  0
 16 17  2  0
 16 18  1  0
 18 19  2  0
 19 20  1  0
 20 21  2  0
 21 22  1  0
 22 23  2  0
 23 24  1  0
 23 25  1  0
 25 26  2  0
 26 27  1  0
 27 28  2  0
  2 29  1  0
 29 30  2  0
 30 31  1  0
 31 32  2  0
 32 33  1  0
 32 34  1  0
 34 35  2  0
 11  6  1  0
 28 18  1  0
 35 29  1  0
 27 21  1  0
  1 36  1  0
  1 37  1  0
  1 38  1  0
  2 39  1  6
  3 40  1  0
  6 41  1  1
  7 42  1  0
  7 43  1  0
  8 44  1  6
  9 45  1  0
 10 46  1  0
 10 47  1  0
 14 48  1  0
 14 49  1  0
 15 50  1  0
 19 51  1  0
 20 52  1  0
 22 53  1  0
 25 54  1  0
 26 55  1  0
 30 56  1  0
 31 57  1  0
 34 58  1  0
 35 59  1  0
M  END
>  <UniqueID>  (38) 
81

>  <SMILES>  (38) 
C[C@@H](NC(=O)[C@@H]1C[C@@H](O)CN1C(=O)CNC(=O)c1ccc2cc(F)ccc2n1)c1ccc(Cl)cc1

>  <Energy>  (38) 
59.84674722814225

>  <Genealogy>  (38) 
C[C@@H](NC(=O)[C@@H]1C[C@@H](O)CN1C(=O)CNC(=O)c1ccc2cc(F)ccc2n1)c1ccc(Cl)cc1 (3D coordinates assigned)
C[C@@H](NC(=O)[C@@H]1C[C@@H](O)CN1C(=O)CNC(=O)c1ccc2cc(F)ccc2n1)c1ccc(Cl)cc1 (nonaromatic ring conformer: 59.84674722814225 kcal/mol)

>  <smiles>  (38) 
C[C@@H](NC(=O)[C@@H]1C[C@@H](O)CN1C(=O)CNC(=O)c1ccc2cc(F)ccc2n1)c1ccc(Cl)cc1

>  <score_type>  (38) 
oracle

>  <origin>  (38) 
autodockgpu

>  <m_score__min__energy>  (38) 
-9.9100000000000001

>  <m_primary>  (38) 
energy

>  <meeko>  (38) 
{"free_energy": -9.91, "intermolecular_energy": -12.29, "internal_energy": -2.6, "cluster_size": 2, "cluster_id": 1, "rank_in_cluster": 1}

>  <energy>  (38) 
-6.68

>  <cluster_rmsd>  (38) 
1.13

>  <rmsd>  (38) 
270.48

>  <cluster>  (38) 
4

$$$$
JDBMCWJIJNWNRF-OEQCPPMUNA-N
     RDKit          3D

 59 62  0  0  0  0  0  0  0  0999 V2000
  142.9510   78.1490  217.6410 C   0  0  0  0  0  0  0  0  0  0  0  0
  141.8600   77.8030  218.6630 C   0  0  1  0  0  0  0  0  0  0  0  0
  142.3860   76.8740  219.6670 N   0  0  0  0  0  0  0  0  0  0  0  0
  142.8470   75.5510  219.3420 C   0  0  0  0  0  0  0  0  0  0  0  0
  142.8440   75.1530  218.1470 O   0  0  0  0  0  0  0  0  0  0  0  0
  143.3100   74.6070  220.4220 C   0  0  2  0  0  0  0  0  0  0  0  0
  144.8380   74.5150  220.4510 C   0  0  0  0  0  0  0  0  0  0  0  0
  145.1820   73.1890  219.7640 C   0  0  1  0  0  0  0  0  0  0  0  0
  146.3150   72.5740  220.3220 O   0  0  0  0  0  0  0  0  0  0  0  0
  143.9280   72.3230  219.8830 C   0  0  0  0  0  0  0  0  0  0  0  0
  142.8410   73.2450  220.1770 N   0  0  0  0  0  0  0  0  0  0  0  0
  141.4710   72.8020  220.2700 C   0  0  0  0  0  0  0  0  0  0  0  0
  140.9770   72.1130  219.3340 O   0  0  0  0  0  0  0  0  0  0  0  0
  140.5940   73.1510  221.4430 C   0  0  0  0  0  0  0  0  0  0  0  0
  140.8240   74.5260  221.8760 N   0  0  0  0  0  0  0  0  0  0  0  0
  139.7800   75.5120  221.8860 C   0  0  0  0  0  0  0  0  0  0  0  0
  138.6320   75.2140  221.4540 O   0  0  0  0  0  0  0  0  0  0  0  0
  140.0420   76.8740  222.3990 C   0  0  0  0  0  0  0  0  0  0  0  0
  138.9930   77.6870  222.8660 C   0  0  0  0  0  0  0  0  0  0  0  0
  139.2690   78.9710  223.3420 C   0  0  0  0  0  0  0  0  0  0  0  0
  140.5870   79.4410  223.3560 C   0  0  0  0  0  0  0  0  0  0  0  0
  140.9010   80.7270  223.8250 C   0  0  0  0  0  0  0  0  0  0  0  0
  142.2300   81.1650  223.8260 C   0  0  0  0  0  0  0  0  0  0  0  0
  142.5330   82.4090  224.2750 F   0  0  0  0  0  0  0  0  0  0  0  0
  143.2490   80.3240  223.3620 C   0  0  0  0  0  0  0  0  0  0  0  0
  142.9440   79.0410  222.8930 C   0  0  0  0  0  0  0  0  0  0  0  0
  141.6180   78.5960  222.8860 C   0  0  0  0  0  0  0  0  0  0  0  0
  141.3170   77.3510  222.4260 N   0  0  0  0  0  0  0  0  0  0  0  0
  141.3270   79.0470  219.3440 C   0  0  0  0  0  0  0  0  0  0  0  0
  139.9640   79.1590  219.6860 C   0  0  0  0  0  0  0  0  0  0  0  0
  139.4830   80.3110  220.3150 C   0  0  0  0  0  0  0  0  0  0  0  0
  140.3540   81.3690  220.5990 C   0  0  0  0  0  0  0  0  0  0  0  0
  139.7530   82.8120  221.3920 Cl  0  0  0  0  0  0  0  0  0  0  0  0
  141.7050   81.2740  220.2520 C   0  0  0  0  0  0  0  0  0  0  0  0
  142.1910   80.1200  219.6280 C   0  0  0  0  0  0  0  0  0  0  0  0
  143.8701   78.4405  218.1704 H   0  0  0  0  0  0  0  0  0  0  0  0
  143.1540   77.2712  217.0100 H   0  0  0  0  0  0  0  0  0  0  0  0
  142.6110   78.9834  217.0100 H   0  0  0  0  0  0  0  0  0  0  0  0
  141.0299   77.3260  218.1214 H   0  0  0  0  0  0  0  0  0  0  0  0
  142.3740   77.1720  220.6680 H   0  0  0  0  0  0  0  0  0  0  0  0
  142.9070   75.0057  221.3647 H   0  0  0  0  0  0  0  0  0  0  0  0
  145.2843   75.3585  219.9038 H   0  0  0  0  0  0  0  0  0  0  0  0
  145.2296   74.5559  221.4781 H   0  0  0  0  0  0  0  0  0  0  0  0
  145.4540   73.3478  218.7101 H   0  0  0  0  0  0  0  0  0  0  0  0
  146.0030   71.8950  220.9800 H   0  0  0  0  0  0  0  0  0  0  0  0
  143.7367   71.7928  218.9384 H   0  0  0  0  0  0  0  0  0  0  0  0
  144.0351   71.5577  220.6659 H   0  0  0  0  0  0  0  0  0  0  0  0
  139.5397   73.0374  221.1505 H   0  0  0  0  0  0  0  0  0  0  0  0
  140.8372   72.4753  222.2763 H   0  0  0  0  0  0  0  0  0  0  0  0
  141.7970   74.8010  222.1360 H   0  0  0  0  0  0  0  0  0  0  0  0
  137.9587   77.3127  222.8563 H   0  0  0  0  0  0  0  0  0  0  0  0
  138.4517   79.6115  223.7052 H   0  0  0  0  0  0  0  0  0  0  0  0
  140.1028   81.3894  224.1913 H   0  0  0  0  0  0  0  0  0  0  0  0
  144.2922   80.6727  223.3661 H   0  0  0  0  0  0  0  0  0  0  0  0
  143.7470   78.3827  222.5300 H   0  0  0  0  0  0  0  0  0  0  0  0
  139.2739   78.3338  219.4562 H   0  0  0  0  0  0  0  0  0  0  0  0
  138.4197   80.3859  220.5868 H   0  0  0  0  0  0  0  0  0  0  0  0
  142.3875   82.1086  220.4701 H   0  0  0  0  0  0  0  0  0  0  0  0
  143.2551   80.0514  219.3579 H   0  0  0  0  0  0  0  0  0  0  0  0
  1  2  1  0
  2  3  1  0
  3  4  1  0
  4  5  2  0
  4  6  1  0
  6  7  1  0
  7  8  1  0
  8  9  1  0
  8 10  1  0
 10 11  1  0
 11 12  1  0
 12 13  2  0
 12 14  1  0
 14 15  1  0
 15 16  1  0
 16 17  2  0
 16 18  1  0
 18 19  2  0
 19 20  1  0
 20 21  2  0
 21 22  1  0
 22 23  2  0
 23 24  1  0
 23 25  1  0
 25 26  2  0
 26 27  1  0
 27 28  2  0
  2 29  1  0
 29 30  2  0
 30 31  1  0
 31 32  2  0
 32 33  1  0
 32 34  1  0
 34 35  2  0
 11  6  1  0
 28 18  1  0
 35 29  1  0
 27 21  1  0
  1 36  1  0
  1 37  1  0
  1 38  1  0
  2 39  1  6
  3 40  1  0
  6 41  1  1
  7 42  1  0
  7 43  1  0
  8 44  1  6
  9 45  1  0
 10 46  1  0
 10 47  1  0
 14 48  1  0
 14 49  1  0
 15 50  1  0
 19 51  1  0
 20 52  1  0
 22 53  1  0
 25 54  1  0
 26 55  1  0
 30 56  1  0
 31 57  1  0
 34 58  1  0
 35 59  1  0
M  END
>  <UniqueID>  (39) 
81

>  <SMILES>  (39) 
C[C@@H](NC(=O)[C@@H]1C[C@@H](O)CN1C(=O)CNC(=O)c1ccc2cc(F)ccc2n1)c1ccc(Cl)cc1

>  <Energy>  (39) 
59.84674722814225

>  <Genealogy>  (39) 
C[C@@H](NC(=O)[C@@H]1C[C@@H](O)CN1C(=O)CNC(=O)c1ccc2cc(F)ccc2n1)c1ccc(Cl)cc1 (3D coordinates assigned)
C[C@@H](NC(=O)[C@@H]1C[C@@H](O)CN1C(=O)CNC(=O)c1ccc2cc(F)ccc2n1)c1ccc(Cl)cc1 (nonaromatic ring conformer: 59.84674722814225 kcal/mol)

>  <smiles>  (39) 
C[C@@H](NC(=O)[C@@H]1C[C@@H](O)CN1C(=O)CNC(=O)c1ccc2cc(F)ccc2n1)c1ccc(Cl)cc1

>  <score_type>  (39) 
oracle

>  <origin>  (39) 
autodockgpu

>  <m_score__min__energy>  (39) 
-9.9100000000000001

>  <m_primary>  (39) 
energy

>  <meeko>  (39) 
{"free_energy": -7.36, "intermolecular_energy": -9.75, "internal_energy": -4.49, "cluster_size": 15, "cluster_id": 4, "rank_in_cluster": 7}

>  <energy>  (39) 
-6.61

>  <cluster_rmsd>  (39) 
1.96

>  <rmsd>  (39) 
270.43

>  <cluster>  (39) 
4

$$$$
JDBMCWJIJNWNRF-OEQCPPMUNA-N
     RDKit          3D

 59 62  0  0  0  0  0  0  0  0999 V2000
  142.6370   76.8550  216.7120 C   0  0  0  0  0  0  0  0  0  0  0  0
  141.5280   76.7400  217.7660 C   0  0  1  0  0  0  0  0  0  0  0  0
  141.8570   75.6860  218.7300 N   0  0  0  0  0  0  0  0  0  0  0  0
  143.0880   75.6640  219.4750 C   0  0  0  0  0  0  0  0  0  0  0  0
  143.9270   76.5940  219.3410 O   0  0  0  0  0  0  0  0  0  0  0  0
  143.4110   74.5190  220.3990 C   0  0  2  0  0  0  0  0  0  0  0  0
  144.9210   74.2750  220.4630 C   0  0  0  0  0  0  0  0  0  0  0  0
  145.1780   73.0510  219.5780 C   0  0  1  0  0  0  0  0  0  0  0  0
  146.2230   72.2470  220.0650 O   0  0  0  0  0  0  0  0  0  0  0  0
  143.8470   72.3020  219.5100 C   0  0  0  0  0  0  0  0  0  0  0  0
  142.8340   73.2650  219.9160 N   0  0  0  0  0  0  0  0  0  0  0  0
  141.4260   72.9470  219.8890 C   0  0  0  0  0  0  0  0  0  0  0  0
  140.8980   72.5660  218.8080 O   0  0  0  0  0  0  0  0  0  0  0  0
  140.5530   73.0730  221.1090 C   0  0  0  0  0  0  0  0  0  0  0  0
  140.7090   74.3850  221.7290 N   0  0  0  0  0  0  0  0  0  0  0  0
  140.1020   75.5690  221.1860 C   0  0  0  0  0  0  0  0  0  0  0  0
  139.4560   75.5010  220.1050 O   0  0  0  0  0  0  0  0  0  0  0  0
  140.2290   76.8640  221.8880 C   0  0  0  0  0  0  0  0  0  0  0  0
  139.1060   77.4940  222.4550 C   0  0  0  0  0  0  0  0  0  0  0  0
  139.2540   78.7200  223.1090 C   0  0  0  0  0  0  0  0  0  0  0  0
  140.5190   79.3130  223.2000 C   0  0  0  0  0  0  0  0  0  0  0  0
  140.7040   80.5450  223.8470 C   0  0  0  0  0  0  0  0  0  0  0  0
  141.9820   81.1100  223.9210 C   0  0  0  0  0  0  0  0  0  0  0  0
  142.1610   82.3020  224.5430 F   0  0  0  0  0  0  0  0  0  0  0  0
  143.0780   80.4480  223.3530 C   0  0  0  0  0  0  0  0  0  0  0  0
  142.9010   79.2200  222.7060 C   0  0  0  0  0  0  0  0  0  0  0  0
  141.6260   78.6490  222.6250 C   0  0  0  0  0  0  0  0  0  0  0  0
  141.4490   77.4580  221.9930 N   0  0  0  0  0  0  0  0  0  0  0  0
  141.3190   78.0530  218.4920 C   0  0  0  0  0  0  0  0  0  0  0  0
  140.0640   78.3860  219.0410 C   0  0  0  0  0  0  0  0  0  0  0  0
  139.8820   79.6010  219.7090 C   0  0  0  0  0  0  0  0  0  0  0  0
  140.9460   80.5000  219.8280 C   0  0  0  0  0  0  0  0  0  0  0  0
  140.7210   82.0210  220.6710 Cl  0  0  0  0  0  0  0  0  0  0  0  0
  142.1920   80.1860  219.2770 C   0  0  0  0  0  0  0  0  0  0  0  0
  142.3790   78.9700  218.6120 C   0  0  0  0  0  0  0  0  0  0  0  0
  143.6107   76.9560  217.2138 H   0  0  0  0  0  0  0  0  0  0  0  0
  142.6403   75.9524  216.0833 H   0  0  0  0  0  0  0  0  0  0  0  0
  142.4551   77.7391  216.0833 H   0  0  0  0  0  0  0  0  0  0  0  0
  140.5932   76.4829  217.2463 H   0  0  0  0  0  0  0  0  0  0  0  0
  141.1880   74.8920  218.8390 H   0  0  0  0  0  0  0  0  0  0  0  0
  143.0003   74.7984  221.3805 H   0  0  0  0  0  0  0  0  0  0  0  0
  145.4678   75.1486  220.0785 H   0  0  0  0  0  0  0  0  0  0  0  0
  145.2635   74.1103  221.4953 H   0  0  0  0  0  0  0  0  0  0  0  0
  145.5144   73.3511  218.5746 H   0  0  0  0  0  0  0  0  0  0  0  0
  145.9500   71.8960  220.9550 H   0  0  0  0  0  0  0  0  0  0  0  0
  143.6552   71.9524  218.4848 H   0  0  0  0  0  0  0  0  0  0  0  0
  143.8467   71.4135  220.1585 H   0  0  0  0  0  0  0  0  0  0  0  0
  139.5018   72.9365  220.8151 H   0  0  0  0  0  0  0  0  0  0  0  0
  140.8523   72.3035  221.8358 H   0  0  0  0  0  0  0  0  0  0  0  0
  141.3280   74.4600  222.5670 H   0  0  0  0  0  0  0  0  0  0  0  0
  138.1145   77.0229  222.3837 H   0  0  0  0  0  0  0  0  0  0  0  0
  138.3786   79.2180  223.5513 H   0  0  0  0  0  0  0  0  0  0  0  0
  139.8451   81.0657  224.2954 H   0  0  0  0  0  0  0  0  0  0  0  0
  144.0811   80.8950  223.4158 H   0  0  0  0  0  0  0  0  0  0  0  0
  143.7642   78.7034  222.2610 H   0  0  0  0  0  0  0  0  0  0  0  0
  139.2219   77.6851  218.9432 H   0  0  0  0  0  0  0  0  0  0  0  0
  138.9013   79.8494  220.1410 H   0  0  0  0  0  0  0  0  0  0  0  0
  143.0268   80.8967  219.3667 H   0  0  0  0  0  0  0  0  0  0  0  0
  143.3615   78.7290  218.1799 H   0  0  0  0  0  0  0  0  0  0  0  0
  1  2  1  0
  2  3  1  0
  3  4  1  0
  4  5  2  0
  4  6  1  0
  6  7  1  0
  7  8  1  0
  8  9  1  0
  8 10  1  0
 10 11  1  0
 11 12  1  0
 12 13  2  0
 12 14  1  0
 14 15  1  0
 15 16  1  0
 16 17  2  0
 16 18  1  0
 18 19  2  0
 19 20  1  0
 20 21  2  0
 21 22  1  0
 22 23  2  0
 23 24  1  0
 23 25  1  0
 25 26  2  0
 26 27  1  0
 27 28  2  0
  2 29  1  0
 29 30  2  0
 30 31  1  0
 31 32  2  0
 32 33  1  0
 32 34  1  0
 34 35  2  0
 11  6  1  0
 28 18  1  0
 35 29  1  0
 27 21  1  0
  1 36  1  0
  1 37  1  0
  1 38  1  0
  2 39  1  6
  3 40  1  0
  6 41  1  1
  7 42  1  0
  7 43  1  0
  8 44  1  6
  9 45  1  0
 10 46  1  0
 10 47  1  0
 14 48  1  0
 14 49  1  0
 15 50  1  0
 19 51  1  0
 20 52  1  0
 22 53  1  0
 25 54  1  0
 26 55  1  0
 30 56  1  0
 31 57  1  0
 34 58  1  0
 35 59  1  0
M  END
>  <UniqueID>  (40) 
81

>  <SMILES>  (40) 
C[C@@H](NC(=O)[C@@H]1C[C@@H](O)CN1C(=O)CNC(=O)c1ccc2cc(F)ccc2n1)c1ccc(Cl)cc1

>  <Energy>  (40) 
59.84674722814225

>  <Genealogy>  (40) 
C[C@@H](NC(=O)[C@@H]1C[C@@H](O)CN1C(=O)CNC(=O)c1ccc2cc(F)ccc2n1)c1ccc(Cl)cc1 (3D coordinates assigned)
C[C@@H](NC(=O)[C@@H]1C[C@@H](O)CN1C(=O)CNC(=O)c1ccc2cc(F)ccc2n1)c1ccc(Cl)cc1 (nonaromatic ring conformer: 59.84674722814225 kcal/mol)

>  <smiles>  (40) 
C[C@@H](NC(=O)[C@@H]1C[C@@H](O)CN1C(=O)CNC(=O)c1ccc2cc(F)ccc2n1)c1ccc(Cl)cc1

>  <score_type>  (40) 
oracle

>  <origin>  (40) 
autodockgpu

>  <m_score__min__energy>  (40) 
-9.9100000000000001

>  <m_primary>  (40) 
energy

>  <meeko>  (40) 
{"free_energy": -6.71, "intermolecular_energy": -9.09, "internal_energy": -5.0, "cluster_size": 15, "cluster_id": 4, "rank_in_cluster": 13}

>  <energy>  (40) 
-6.79

>  <cluster_rmsd>  (40) 
0.0

>  <rmsd>  (40) 
270.22

>  <cluster>  (40) 
5

$$$$
JDBMCWJIJNWNRF-OEQCPPMUNA-N
     RDKit          3D

 59 62  0  0  0  0  0  0  0  0999 V2000
  143.3410   76.7870  216.5960 C   0  0  0  0  0  0  0  0  0  0  0  0
  142.1590   76.6340  217.5610 C   0  0  1  0  0  0  0  0  0  0  0  0
  142.4250   75.5530  218.5160 N   0  0  0  0  0  0  0  0  0  0  0  0
  143.4120   75.6560  219.5570 C   0  0  0  0  0  0  0  0  0  0  0  0
  144.0720   76.7190  219.7040 O   0  0  0  0  0  0  0  0  0  0  0  0
  143.6990   74.4880  220.4660 C   0  0  2  0  0  0  0  0  0  0  0  0
  145.1890   74.1370  220.4520 C   0  0  0  0  0  0  0  0  0  0  0  0
  145.3100   72.8980  219.5570 C   0  0  1  0  0  0  0  0  0  0  0  0
  146.3190   72.0200  219.9910 O   0  0  0  0  0  0  0  0  0  0  0  0
  143.9270   72.2470  219.5610 C   0  0  0  0  0  0  0  0  0  0  0  0
  143.0090   73.2810  220.0170 N   0  0  0  0  0  0  0  0  0  0  0  0
  141.5830   73.0650  220.0640 C   0  0  0  0  0  0  0  0  0  0  0  0
  140.9880   72.6300  219.0390 O   0  0  0  0  0  0  0  0  0  0  0  0
  140.7680   73.3620  221.2940 C   0  0  0  0  0  0  0  0  0  0  0  0
  140.9750   74.7360  221.7390 N   0  0  0  0  0  0  0  0  0  0  0  0
  139.8940   75.6730  221.8680 C   0  0  0  0  0  0  0  0  0  0  0  0
  138.7270   75.3320  221.5340 O   0  0  0  0  0  0  0  0  0  0  0  0
  140.1420   77.0340  222.3900 C   0  0  0  0  0  0  0  0  0  0  0  0
  139.0810   77.8430  222.8380 C   0  0  0  0  0  0  0  0  0  0  0  0
  139.3440   79.1270  223.3230 C   0  0  0  0  0  0  0  0  0  0  0  0
  140.6610   79.6000  223.3640 C   0  0  0  0  0  0  0  0  0  0  0  0
  140.9610   80.8860  223.8430 C   0  0  0  0  0  0  0  0  0  0  0  0
  142.2880   81.3280  223.8720 C   0  0  0  0  0  0  0  0  0  0  0  0
  142.5780   82.5720  224.3300 F   0  0  0  0  0  0  0  0  0  0  0  0
  143.3190   80.4910  223.4260 C   0  0  0  0  0  0  0  0  0  0  0  0
  143.0270   79.2080  222.9480 C   0  0  0  0  0  0  0  0  0  0  0  0
  141.7030   78.7590  222.9130 C   0  0  0  0  0  0  0  0  0  0  0  0
  141.4150   77.5150  222.4440 N   0  0  0  0  0  0  0  0  0  0  0  0
  141.8850   77.9230  218.3090 C   0  0  0  0  0  0  0  0  0  0  0  0
  140.7700   78.0440  219.1620 C   0  0  0  0  0  0  0  0  0  0  0  0
  140.5270   79.2390  219.8460 C   0  0  0  0  0  0  0  0  0  0  0  0
  141.3880   80.3280  219.6790 C   0  0  0  0  0  0  0  0  0  0  0  0
  141.0880   81.8250  220.5420 Cl  0  0  0  0  0  0  0  0  0  0  0  0
  142.4910   80.2240  218.8260 C   0  0  0  0  0  0  0  0  0  0  0  0
  142.7390   79.0290  218.1440 C   0  0  0  0  0  0  0  0  0  0  0  0
  144.2708   76.9074  217.1713 H   0  0  0  0  0  0  0  0  0  0  0  0
  143.4153   75.8910  215.9623 H   0  0  0  0  0  0  0  0  0  0  0  0
  143.1847   77.6724  215.9623 H   0  0  0  0  0  0  0  0  0  0  0  0
  141.2677   76.3874  216.9653 H   0  0  0  0  0  0  0  0  0  0  0  0
  141.9080   74.6530  218.3980 H   0  0  0  0  0  0  0  0  0  0  0  0
  143.3607   74.7936  221.4671 H   0  0  0  0  0  0  0  0  0  0  0  0
  145.7761   74.9696  220.0372 H   0  0  0  0  0  0  0  0  0  0  0  0
  145.5730   73.9474  221.4652 H   0  0  0  0  0  0  0  0  0  0  0  0
  145.6135   73.1742  218.5364 H   0  0  0  0  0  0  0  0  0  0  0  0
  146.0820   71.7090  220.9060 H   0  0  0  0  0  0  0  0  0  0  0  0
  143.6569   71.9131  218.5483 H   0  0  0  0  0  0  0  0  0  0  0  0
  143.8965   71.3601  220.2109 H   0  0  0  0  0  0  0  0  0  0  0  0
  139.7025   73.2151  221.0637 H   0  0  0  0  0  0  0  0  0  0  0  0
  141.0858   72.6816  222.0978 H   0  0  0  0  0  0  0  0  0  0  0  0
  141.9560   75.0500  221.9180 H   0  0  0  0  0  0  0  0  0  0  0  0
  138.0481   77.4659  222.8065 H   0  0  0  0  0  0  0  0  0  0  0  0
  138.5182   79.7645  223.6717 H   0  0  0  0  0  0  0  0  0  0  0  0
  140.1534   81.5448  224.1949 H   0  0  0  0  0  0  0  0  0  0  0  0
  144.3609   80.8429  223.4514 H   0  0  0  0  0  0  0  0  0  0  0  0
  143.8392   78.5529  222.5999 H   0  0  0  0  0  0  0  0  0  0  0  0
  140.0859   77.1923  219.2907 H   0  0  0  0  0  0  0  0  0  0  0  0
  139.6583   79.3225  220.5156 H   0  0  0  0  0  0  0  0  0  0  0  0
  143.1644   81.0833  218.6914 H   0  0  0  0  0  0  0  0  0  0  0  0
  143.6079   78.9529  217.4737 H   0  0  0  0  0  0  0  0  0  0  0  0
  1  2  1  0
  2  3  1  0
  3  4  1  0
  4  5  2  0
  4  6  1  0
  6  7  1  0
  7  8  1  0
  8  9  1  0
  8 10  1  0
 10 11  1  0
 11 12  1  0
 12 13  2  0
 12 14  1  0
 14 15  1  0
 15 16  1  0
 16 17  2  0
 16 18  1  0
 18 19  2  0
 19 20  1  0
 20 21  2  0
 21 22  1  0
 22 23  2  0
 23 24  1  0
 23 25  1  0
 25 26  2  0
 26 27  1  0
 27 28  2  0
  2 29  1  0
 29 30  2  0
 30 31  1  0
 31 32  2  0
 32 33  1  0
 32 34  1  0
 34 35  2  0
 11  6  1  0
 28 18  1  0
 35 29  1  0
 27 21  1  0
  1 36  1  0
  1 37  1  0
  1 38  1  0
  2 39  1  6
  3 40  1  0
  6 41  1  1
  7 42  1  0
  7 43  1  0
  8 44  1  6
  9 45  1  0
 10 46  1  0
 10 47  1  0
 14 48  1  0
 14 49  1  0
 15 50  1  0
 19 51  1  0
 20 52  1  0
 22 53  1  0
 25 54  1  0
 26 55  1  0
 30 56  1  0
 31 57  1  0
 34 58  1  0
 35 59  1  0
M  END
>  <UniqueID>  (41) 
82

>  <SMILES>  (41) 
C[C@@H](NC(=O)[C@@H]1C[C@@H](O)CN1C(=O)CNC(=O)c1ccc2cc(F)ccc2n1)c1ccc(Cl)cc1

>  <Energy>  (41) 
60.14141454719763

>  <Genealogy>  (41) 
C[C@@H](NC(=O)[C@@H]1C[C@@H](O)CN1C(=O)CNC(=O)c1ccc2cc(F)ccc2n1)c1ccc(Cl)cc1 (3D coordinates assigned)
C[C@@H](NC(=O)[C@@H]1C[C@@H](O)CN1C(=O)CNC(=O)c1ccc2cc(F)ccc2n1)c1ccc(Cl)cc1 (nonaromatic ring conformer: 60.14141454719763 kcal/mol)

>  <smiles>  (41) 
C[C@@H](NC(=O)[C@@H]1C[C@@H](O)CN1C(=O)CNC(=O)c1ccc2cc(F)ccc2n1)c1ccc(Cl)cc1

>  <score_type>  (41) 
oracle

>  <origin>  (41) 
autodockgpu

>  <m_score__min__energy>  (41) 
-9.9100000000000001

>  <m_primary>  (41) 
energy

>  <meeko>  (41) 
{"free_energy": -7.49, "intermolecular_energy": -9.88, "internal_energy": -4.3, "cluster_size": 15, "cluster_id": 4, "rank_in_cluster": 2}

>  <energy>  (41) 
-9.91

>  <cluster_rmsd>  (41) 
0.0

>  <rmsd>  (41) 
270.7

>  <cluster>  (41) 
1

$$$$
JDBMCWJIJNWNRF-OEQCPPMUNA-N
     RDKit          3D

 59 62  0  0  0  0  0  0  0  0999 V2000
  142.9750   78.1000  217.4820 C   0  0  0  0  0  0  0  0  0  0  0  0
  141.8850   77.7720  218.5110 C   0  0  1  0  0  0  0  0  0  0  0  0
  142.4060   76.8410  219.5160 N   0  0  0  0  0  0  0  0  0  0  0  0
  142.8670   75.5180  219.1910 C   0  0  0  0  0  0  0  0  0  0  0  0
  142.8700   75.1220  217.9950 O   0  0  0  0  0  0  0  0  0  0  0  0
  143.3240   74.5720  220.2730 C   0  0  2  0  0  0  0  0  0  0  0  0
  144.8440   74.3950  220.2390 C   0  0  0  0  0  0  0  0  0  0  0  0
  145.0840   73.0380  219.5680 C   0  0  1  0  0  0  0  0  0  0  0  0
  146.2050   72.3720  220.0920 O   0  0  0  0  0  0  0  0  0  0  0  0
  143.7910   72.2460  219.7600 C   0  0  0  0  0  0  0  0  0  0  0  0
  142.7700   73.2330  220.0780 N   0  0  0  0  0  0  0  0  0  0  0  0
  141.3830   72.8700  220.2400 C   0  0  0  0  0  0  0  0  0  0  0  0
  141.0900   71.7880  220.8200 O   0  0  0  0  0  0  0  0  0  0  0  0
  140.2630   73.7310  219.7190 C   0  0  0  0  0  0  0  0  0  0  0  0
  140.3290   75.0730  220.2880 N   0  0  0  0  0  0  0  0  0  0  0  0
  140.0070   75.3410  221.6630 C   0  0  0  0  0  0  0  0  0  0  0  0
  139.5960   74.4060  222.4030 O   0  0  0  0  0  0  0  0  0  0  0  0
  140.1570   76.7050  222.2140 C   0  0  0  0  0  0  0  0  0  0  0  0
  139.0460   77.4100  222.7140 C   0  0  0  0  0  0  0  0  0  0  0  0
  139.2160   78.6990  223.2250 C   0  0  0  0  0  0  0  0  0  0  0  0
  140.4880   79.2810  223.2410 C   0  0  0  0  0  0  0  0  0  0  0  0
  140.6950   80.5750  223.7450 C   0  0  0  0  0  0  0  0  0  0  0  0
  141.9810   81.1280  223.7470 C   0  0  0  0  0  0  0  0  0  0  0  0
  142.1800   82.3800  224.2290 F   0  0  0  0  0  0  0  0  0  0  0  0
  143.0630   80.3920  223.2480 C   0  0  0  0  0  0  0  0  0  0  0  0
  142.8650   79.1010  222.7450 C   0  0  0  0  0  0  0  0  0  0  0  0
  141.5830   78.5430  222.7370 C   0  0  0  0  0  0  0  0  0  0  0  0
  141.3850   77.2900  222.2430 N   0  0  0  0  0  0  0  0  0  0  0  0
  141.3700   79.0250  219.1900 C   0  0  0  0  0  0  0  0  0  0  0  0
  142.2160   80.1310  219.4080 C   0  0  0  0  0  0  0  0  0  0  0  0
  141.7300   81.2820  220.0360 C   0  0  0  0  0  0  0  0  0  0  0  0
  140.3990   81.3370  220.4620 C   0  0  0  0  0  0  0  0  0  0  0  0
  139.7870   82.7830  221.2440 Cl  0  0  0  0  0  0  0  0  0  0  0  0
  139.5540   80.2410  220.2620 C   0  0  0  0  0  0  0  0  0  0  0  0
  140.0360   79.0900  219.6300 C   0  0  0  0  0  0  0  0  0  0  0  0
  143.9014   78.3788  218.0054 H   0  0  0  0  0  0  0  0  0  0  0  0
  143.1613   77.2181  216.8514 H   0  0  0  0  0  0  0  0  0  0  0  0
  142.6437   78.9382  216.8514 H   0  0  0  0  0  0  0  0  0  0  0  0
  141.0460   77.3034  217.9757 H   0  0  0  0  0  0  0  0  0  0  0  0
  142.3890   77.1370  220.5170 H   0  0  0  0  0  0  0  0  0  0  0  0
  142.9855   75.0117  221.2228 H   0  0  0  0  0  0  0  0  0  0  0  0
  145.3118   75.2009  219.6544 H   0  0  0  0  0  0  0  0  0  0  0  0
  145.2818   74.4345  221.2473 H   0  0  0  0  0  0  0  0  0  0  0  0
  145.3177   73.1598  218.5000 H   0  0  0  0  0  0  0  0  0  0  0  0
  145.9170   71.8810  220.9090 H   0  0  0  0  0  0  0  0  0  0  0  0
  143.5301   71.7076  218.8370 H   0  0  0  0  0  0  0  0  0  0  0  0
  143.8899   71.4925  220.5553 H   0  0  0  0  0  0  0  0  0  0  0  0
  140.3415   73.8000  218.6240 H   0  0  0  0  0  0  0  0  0  0  0  0
  139.3051   73.2738  220.0079 H   0  0  0  0  0  0  0  0  0  0  0  0
  140.5700   75.8640  219.6510 H   0  0  0  0  0  0  0  0  0  0  0  0
  138.0479   76.9478  222.7024 H   0  0  0  0  0  0  0  0  0  0  0  0
  138.3508   79.2556  223.6143 H   0  0  0  0  0  0  0  0  0  0  0  0
  139.8466   81.1543  224.1383 H   0  0  0  0  0  0  0  0  0  0  0  0
  144.0720   80.8301  223.2514 H   0  0  0  0  0  0  0  0  0  0  0  0
  143.7179   78.5254  222.3560 H   0  0  0  0  0  0  0  0  0  0  0  0
  143.2657   80.0885  219.0819 H   0  0  0  0  0  0  0  0  0  0  0  0
  142.3945   82.1441  220.1949 H   0  0  0  0  0  0  0  0  0  0  0  0
  138.5088   80.2840  220.6021 H   0  0  0  0  0  0  0  0  0  0  0  0
  139.3673   78.2302  219.4762 H   0  0  0  0  0  0  0  0  0  0  0  0
  1  2  1  0
  2  3  1  0
  3  4  1  0
  4  5  2  0
  4  6  1  0
  6  7  1  0
  7  8  1  0
  8  9  1  0
  8 10  1  0
 10 11  1  0
 11 12  1  0
 12 13  2  0
 12 14  1  0
 14 15  1  0
 15 16  1  0
 16 17  2  0
 16 18  1  0
 18 19  2  0
 19 20  1  0
 20 21  2  0
 21 22  1  0
 22 23  2  0
 23 24  1  0
 23 25  1  0
 25 26  2  0
 26 27  1  0
 27 28  2  0
  2 29  1  0
 29 30  2  0
 30 31  1  0
 31 32  2  0
 32 33  1  0
 32 34  1  0
 34 35  2  0
 11  6  1  0
 28 18  1  0
 35 29  1  0
 27 21  1  0
  1 36  1  0
  1 37  1  0
  1 38  1  0
  2 39  1  6
  3 40  1  0
  6 41  1  1
  7 42  1  0
  7 43  1  0
  8 44  1  6
  9 45  1  0
 10 46  1  0
 10 47  1  0
 14 48  1  0
 14 49  1  0
 15 50  1  0
 19 51  1  0
 20 52  1  0
 22 53  1  0
 25 54  1  0
 26 55  1  0
 30 56  1  0
 31 57  1  0
 34 58  1  0
 35 59  1  0
M  END
>  <UniqueID>  (42) 
82

>  <SMILES>  (42) 
C[C@@H](NC(=O)[C@@H]1C[C@@H](O)CN1C(=O)CNC(=O)c1ccc2cc(F)ccc2n1)c1ccc(Cl)cc1

>  <Energy>  (42) 
60.14141454719763

>  <Genealogy>  (42) 
C[C@@H](NC(=O)[C@@H]1C[C@@H](O)CN1C(=O)CNC(=O)c1ccc2cc(F)ccc2n1)c1ccc(Cl)cc1 (3D coordinates assigned)
C[C@@H](NC(=O)[C@@H]1C[C@@H](O)CN1C(=O)CNC(=O)c1ccc2cc(F)ccc2n1)c1ccc(Cl)cc1 (nonaromatic ring conformer: 60.14141454719763 kcal/mol)

>  <smiles>  (42) 
C[C@@H](NC(=O)[C@@H]1C[C@@H](O)CN1C(=O)CNC(=O)c1ccc2cc(F)ccc2n1)c1ccc(Cl)cc1

>  <score_type>  (42) 
oracle

>  <origin>  (42) 
autodockgpu

>  <m_score__min__energy>  (42) 
-9.9100000000000001

>  <m_primary>  (42) 
energy

>  <meeko>  (42) 
{"free_energy": -7.55, "intermolecular_energy": -9.93, "internal_energy": -4.35, "cluster_size": 15, "cluster_id": 4, "rank_in_cluster": 1}

>  <energy>  (42) 
-9.08

>  <cluster_rmsd>  (42) 
1.05

>  <rmsd>  (42) 
270.85

>  <cluster>  (42) 
1

$$$$
JDBMCWJIJNWNRF-OEQCPPMUNA-N
     RDKit          3D

 59 62  0  0  0  0  0  0  0  0999 V2000
  143.3640   76.8000  216.5690 C   0  0  0  0  0  0  0  0  0  0  0  0
  142.1730   76.6470  217.5240 C   0  0  1  0  0  0  0  0  0  0  0  0
  142.4310   75.5670  218.4820 N   0  0  0  0  0  0  0  0  0  0  0  0
  143.4030   75.6740  219.5370 C   0  0  0  0  0  0  0  0  0  0  0  0
  144.0540   76.7410  219.6940 O   0  0  0  0  0  0  0  0  0  0  0  0
  143.6830   74.5080  220.4490 C   0  0  2  0  0  0  0  0  0  0  0  0
  145.1770   74.1720  220.4660 C   0  0  0  0  0  0  0  0  0  0  0  0
  145.3300   72.9370  219.5710 C   0  0  1  0  0  0  0  0  0  0  0  0
  146.3390   72.0690  220.0230 O   0  0  0  0  0  0  0  0  0  0  0  0
  143.9550   72.2720  219.5440 C   0  0  0  0  0  0  0  0  0  0  0  0
  143.0160   73.2940  219.9820 N   0  0  0  0  0  0  0  0  0  0  0  0
  141.5910   73.0630  220.0000 C   0  0  0  0  0  0  0  0  0  0  0  0
  141.0230   72.6190  218.9630 O   0  0  0  0  0  0  0  0  0  0  0  0
  140.7460   73.3530  221.2110 C   0  0  0  0  0  0  0  0  0  0  0  0
  140.9480   74.7230  221.6720 N   0  0  0  0  0  0  0  0  0  0  0  0
  139.8620   75.6530  221.8150 C   0  0  0  0  0  0  0  0  0  0  0  0
  138.6960   75.3080  221.4800 O   0  0  0  0  0  0  0  0  0  0  0  0
  140.1040   77.0090  222.3520 C   0  0  0  0  0  0  0  0  0  0  0  0
  139.0400   77.8060  222.8130 C   0  0  0  0  0  0  0  0  0  0  0  0
  139.2970   79.0850  223.3120 C   0  0  0  0  0  0  0  0  0  0  0  0
  140.6100   79.5660  223.3550 C   0  0  0  0  0  0  0  0  0  0  0  0
  140.9050   80.8470  223.8480 C   0  0  0  0  0  0  0  0  0  0  0  0
  142.2300   81.2970  223.8780 C   0  0  0  0  0  0  0  0  0  0  0  0
  142.5140   82.5370  224.3500 F   0  0  0  0  0  0  0  0  0  0  0  0
  143.2640   80.4710  223.4190 C   0  0  0  0  0  0  0  0  0  0  0  0
  142.9780   79.1930  222.9270 C   0  0  0  0  0  0  0  0  0  0  0  0
  141.6560   78.7370  222.8910 C   0  0  0  0  0  0  0  0  0  0  0  0
  141.3730   77.4960  222.4080 N   0  0  0  0  0  0  0  0  0  0  0  0
  141.8920   77.9360  218.2690 C   0  0  0  0  0  0  0  0  0  0  0  0
  140.7980   78.0410  219.1510 C   0  0  0  0  0  0  0  0  0  0  0  0
  140.5480   79.2360  219.8320 C   0  0  0  0  0  0  0  0  0  0  0  0
  141.3810   80.3430  219.6330 C   0  0  0  0  0  0  0  0  0  0  0  0
  141.0720   81.8400  220.4920 Cl  0  0  0  0  0  0  0  0  0  0  0  0
  142.4620   80.2540  218.7500 C   0  0  0  0  0  0  0  0  0  0  0  0
  142.7170   79.0590  218.0710 C   0  0  0  0  0  0  0  0  0  0  0  0
  144.2889   76.9188  217.1525 H   0  0  0  0  0  0  0  0  0  0  0  0
  143.4429   75.9046  215.9349 H   0  0  0  0  0  0  0  0  0  0  0  0
  143.2141   77.6863  215.9349 H   0  0  0  0  0  0  0  0  0  0  0  0
  141.2873   76.3997  216.9204 H   0  0  0  0  0  0  0  0  0  0  0  0
  141.9210   74.6650  218.3550 H   0  0  0  0  0  0  0  0  0  0  0  0
  143.3202   74.8082  221.4431 H   0  0  0  0  0  0  0  0  0  0  0  0
  145.7643   75.0117  220.0660 H   0  0  0  0  0  0  0  0  0  0  0  0
  145.5410   73.9835  221.4868 H   0  0  0  0  0  0  0  0  0  0  0  0
  145.6520   73.2191  218.5577 H   0  0  0  0  0  0  0  0  0  0  0  0
  146.1480   71.8470  220.9750 H   0  0  0  0  0  0  0  0  0  0  0  0
  143.7104   71.9375  218.5250 H   0  0  0  0  0  0  0  0  0  0  0  0
  143.9203   71.3836  220.1918 H   0  0  0  0  0  0  0  0  0  0  0  0
  139.6861   73.2128  220.9524 H   0  0  0  0  0  0  0  0  0  0  0  0
  141.0395   72.6644  222.0170 H   0  0  0  0  0  0  0  0  0  0  0  0
  141.9270   75.0410  221.8510 H   0  0  0  0  0  0  0  0  0  0  0  0
  138.0093   77.4231  222.7805 H   0  0  0  0  0  0  0  0  0  0  0  0
  138.4682   79.7131  223.6706 H   0  0  0  0  0  0  0  0  0  0  0  0
  140.0950   81.4969  224.2106 H   0  0  0  0  0  0  0  0  0  0  0  0
  144.3040   80.8283  223.4455 H   0  0  0  0  0  0  0  0  0  0  0  0
  143.7927   78.5467  222.5684 H   0  0  0  0  0  0  0  0  0  0  0  0
  140.1358   77.1762  219.3048 H   0  0  0  0  0  0  0  0  0  0  0  0
  139.6963   79.3063  220.5245 H   0  0  0  0  0  0  0  0  0  0  0  0
  143.1129   81.1261  218.5895 H   0  0  0  0  0  0  0  0  0  0  0  0
  143.5683   78.9959  217.3772 H   0  0  0  0  0  0  0  0  0  0  0  0
  1  2  1  0
  2  3  1  0
  3  4  1  0
  4  5  2  0
  4  6  1  0
  6  7  1  0
  7  8  1  0
  8  9  1  0
  8 10  1  0
 10 11  1  0
 11 12  1  0
 12 13  2  0
 12 14  1  0
 14 15  1  0
 15 16  1  0
 16 17  2  0
 16 18  1  0
 18 19  2  0
 19 20  1  0
 20 21  2  0
 21 22  1  0
 22 23  2  0
 23 24  1  0
 23 25  1  0
 25 26  2  0
 26 27  1  0
 27 28  2  0
  2 29  1  0
 29 30  2  0
 30 31  1  0
 31 32  2  0
 32 33  1  0
 32 34  1  0
 34 35  2  0
 11  6  1  0
 28 18  1  0
 35 29  1  0
 27 21  1  0
  1 36  1  0
  1 37  1  0
  1 38  1  0
  2 39  1  6
  3 40  1  0
  6 41  1  1
  7 42  1  0
  7 43  1  0
  8 44  1  6
  9 45  1  0
 10 46  1  0
 10 47  1  0
 14 48  1  0
 14 49  1  0
 15 50  1  0
 19 51  1  0
 20 52  1  0
 22 53  1  0
 25 54  1  0
 26 55  1  0
 30 56  1  0
 31 57  1  0
 34 58  1  0
 35 59  1  0
M  END
>  <UniqueID>  (43) 
82

>  <SMILES>  (43) 
C[C@@H](NC(=O)[C@@H]1C[C@@H](O)CN1C(=O)CNC(=O)c1ccc2cc(F)ccc2n1)c1ccc(Cl)cc1

>  <Energy>  (43) 
60.14141454719763

>  <Genealogy>  (43) 
C[C@@H](NC(=O)[C@@H]1C[C@@H](O)CN1C(=O)CNC(=O)c1ccc2cc(F)ccc2n1)c1ccc(Cl)cc1 (3D coordinates assigned)
C[C@@H](NC(=O)[C@@H]1C[C@@H](O)CN1C(=O)CNC(=O)c1ccc2cc(F)ccc2n1)c1ccc(Cl)cc1 (nonaromatic ring conformer: 60.14141454719763 kcal/mol)

>  <smiles>  (43) 
C[C@@H](NC(=O)[C@@H]1C[C@@H](O)CN1C(=O)CNC(=O)c1ccc2cc(F)ccc2n1)c1ccc(Cl)cc1

>  <score_type>  (43) 
oracle

>  <origin>  (43) 
autodockgpu

>  <m_score__min__energy>  (43) 
-9.9100000000000001

>  <m_primary>  (43) 
energy

>  <meeko>  (43) 
{"free_energy": -7.49, "intermolecular_energy": -9.88, "internal_energy": -4.27, "cluster_size": 15, "cluster_id": 4, "rank_in_cluster": 3}

>  <energy>  (43) 
-8.63

>  <cluster_rmsd>  (43) 
0.0

>  <rmsd>  (43) 
270.62

>  <cluster>  (43) 
2

$$$$
JDBMCWJIJNWNRF-OEQCPPMUNA-N
     RDKit          3D

 59 62  0  0  0  0  0  0  0  0999 V2000
  141.2100   75.3490  221.1510 C   0  0  0  0  0  0  0  0  0  0  0  0
  140.6050   76.6950  220.7320 C   0  0  1  0  0  0  0  0  0  0  0  0
  139.1420   76.6380  220.8170 N   0  0  0  0  0  0  0  0  0  0  0  0
  138.4470   75.8940  221.8330 C   0  0  0  0  0  0  0  0  0  0  0  0
  139.0930   75.2800  222.7240 O   0  0  0  0  0  0  0  0  0  0  0  0
  136.9430   75.8070  221.8320 C   0  0  2  0  0  0  0  0  0  0  0  0
  136.3530   76.5070  223.0590 C   0  0  0  0  0  0  0  0  0  0  0  0
  135.9750   75.3830  224.0310 C   0  0  1  0  0  0  0  0  0  0  0  0
  134.8220   75.6850  224.7760 O   0  0  0  0  0  0  0  0  0  0  0  0
  135.8040   74.1320  223.1710 C   0  0  0  0  0  0  0  0  0  0  0  0
  136.4890   74.4200  221.9190 N   0  0  0  0  0  0  0  0  0  0  0  0
  136.6230   73.4290  220.8790 C   0  0  0  0  0  0  0  0  0  0  0  0
  135.6810   73.2650  220.0540 O   0  0  0  0  0  0  0  0  0  0  0  0
  137.8470   72.5610  220.7500 C   0  0  0  0  0  0  0  0  0  0  0  0
  138.4400   72.3000  222.0580 N   0  0  0  0  0  0  0  0  0  0  0  0
  138.6450   70.9680  222.5550 C   0  0  0  0  0  0  0  0  0  0  0  0
  138.2510   69.9790  221.8780 O   0  0  0  0  0  0  0  0  0  0  0  0
  139.3140   70.7490  223.8560 C   0  0  0  0  0  0  0  0  0  0  0  0
  140.0870   71.7620  224.4520 C   0  0  0  0  0  0  0  0  0  0  0  0
  140.7120   71.5270  225.6790 C   0  0  0  0  0  0  0  0  0  0  0  0
  140.5630   70.2870  226.3100 C   0  0  0  0  0  0  0  0  0  0  0  0
  141.1790   70.0150  227.5430 C   0  0  0  0  0  0  0  0  0  0  0  0
  141.0090   68.7640  228.1480 C   0  0  0  0  0  0  0  0  0  0  0  0
  141.6080   68.4990  229.3360 F   0  0  0  0  0  0  0  0  0  0  0  0
  140.2250   67.7830  227.5280 C   0  0  0  0  0  0  0  0  0  0  0  0
  139.6080   68.0470  226.3000 C   0  0  0  0  0  0  0  0  0  0  0  0
  139.7750   69.2940  225.6870 C   0  0  0  0  0  0  0  0  0  0  0  0
  139.1810   69.5520  224.4900 N   0  0  0  0  0  0  0  0  0  0  0  0
  141.1250   77.8280  221.5930 C   0  0  0  0  0  0  0  0  0  0  0  0
  141.6770   78.9870  221.0110 C   0  0  0  0  0  0  0  0  0  0  0  0
  142.1550   80.0260  221.8160 C   0  0  0  0  0  0  0  0  0  0  0  0
  142.0950   79.9150  223.2090 C   0  0  0  0  0  0  0  0  0  0  0  0
  142.6880   81.2200  224.2190 Cl  0  0  0  0  0  0  0  0  0  0  0  0
  141.5610   78.7650  223.7980 C   0  0  0  0  0  0  0  0  0  0  0  0
  141.0780   77.7260  222.9950 C   0  0  0  0  0  0  0  0  0  0  0  0
  141.2385   75.2857  222.2488 H   0  0  0  0  0  0  0  0  0  0  0  0
  140.5935   74.5299  220.7523 H   0  0  0  0  0  0  0  0  0  0  0  0
  142.2319   75.2663  220.7523 H   0  0  0  0  0  0  0  0  0  0  0  0
  140.9056   76.8898  219.6920 H   0  0  0  0  0  0  0  0  0  0  0  0
  138.5860   77.1180  220.0740 H   0  0  0  0  0  0  0  0  0  0  0  0
  136.6139   76.2789  220.8944 H   0  0  0  0  0  0  0  0  0  0  0  0
  137.0980   77.1753  223.5154 H   0  0  0  0  0  0  0  0  0  0  0  0
  135.4838   77.1276  222.7956 H   0  0  0  0  0  0  0  0  0  0  0  0
  136.7565   75.2359  224.7910 H   0  0  0  0  0  0  0  0  0  0  0  0
  134.0910   75.0840  224.4670 H   0  0  0  0  0  0  0  0  0  0  0  0
  136.2586   73.2610  223.6657 H   0  0  0  0  0  0  0  0  0  0  0  0
  134.7428   73.8923  223.0082 H   0  0  0  0  0  0  0  0  0  0  0  0
  137.5633   71.6049  220.2858 H   0  0  0  0  0  0  0  0  0  0  0  0
  138.5863   73.0858  220.1271 H   0  0  0  0  0  0  0  0  0  0  0  0
  138.6720   73.1190  222.6630 H   0  0  0  0  0  0  0  0  0  0  0  0
  140.1990   72.7361  223.9534 H   0  0  0  0  0  0  0  0  0  0  0  0
  141.3198   72.3148  226.1480 H   0  0  0  0  0  0  0  0  0  0  0  0
  141.7943   70.7842  228.0326 H   0  0  0  0  0  0  0  0  0  0  0  0
  140.0938   66.8019  228.0078 H   0  0  0  0  0  0  0  0  0  0  0  0
  138.9919   67.2745  225.8166 H   0  0  0  0  0  0  0  0  0  0  0  0
  141.7322   79.0749  219.9159 H   0  0  0  0  0  0  0  0  0  0  0  0
  142.5780   80.9301  221.3538 H   0  0  0  0  0  0  0  0  0  0  0  0
  141.5205   78.6769  224.8937 H   0  0  0  0  0  0  0  0  0  0  0  0
  140.6587   76.8233  223.4633 H   0  0  0  0  0  0  0  0  0  0  0  0
  1  2  1  0
  2  3  1  0
  3  4  1  0
  4  5  2  0
  4  6  1  0
  6  7  1  0
  7  8  1  0
  8  9  1  0
  8 10  1  0
 10 11  1  0
 11 12  1  0
 12 13  2  0
 12 14  1  0
 14 15  1  0
 15 16  1  0
 16 17  2  0
 16 18  1  0
 18 19  2  0
 19 20  1  0
 20 21  2  0
 21 22  1  0
 22 23  2  0
 23 24  1  0
 23 25  1  0
 25 26  2  0
 26 27  1  0
 27 28  2  0
  2 29  1  0
 29 30  2  0
 30 31  1  0
 31 32  2  0
 32 33  1  0
 32 34  1  0
 34 35  2  0
 11  6  1  0
 28 18  1  0
 35 29  1  0
 27 21  1  0
  1 36  1  0
  1 37  1  0
  1 38  1  0
  2 39  1  6
  3 40  1  0
  6 41  1  6
  7 42  1  0
  7 43  1  0
  8 44  1  1
  9 45  1  0
 10 46  1  0
 10 47  1  0
 14 48  1  0
 14 49  1  0
 15 50  1  0
 19 51  1  0
 20 52  1  0
 22 53  1  0
 25 54  1  0
 26 55  1  0
 30 56  1  0
 31 57  1  0
 34 58  1  0
 35 59  1  0
M  END
>  <UniqueID>  (44) 
82

>  <SMILES>  (44) 
C[C@@H](NC(=O)[C@@H]1C[C@@H](O)CN1C(=O)CNC(=O)c1ccc2cc(F)ccc2n1)c1ccc(Cl)cc1

>  <Energy>  (44) 
60.14141454719763

>  <Genealogy>  (44) 
C[C@@H](NC(=O)[C@@H]1C[C@@H](O)CN1C(=O)CNC(=O)c1ccc2cc(F)ccc2n1)c1ccc(Cl)cc1 (3D coordinates assigned)
C[C@@H](NC(=O)[C@@H]1C[C@@H](O)CN1C(=O)CNC(=O)c1ccc2cc(F)ccc2n1)c1ccc(Cl)cc1 (nonaromatic ring conformer: 60.14141454719763 kcal/mol)

>  <smiles>  (44) 
C[C@@H](NC(=O)[C@@H]1C[C@@H](O)CN1C(=O)CNC(=O)c1ccc2cc(F)ccc2n1)c1ccc(Cl)cc1

>  <score_type>  (44) 
oracle

>  <origin>  (44) 
autodockgpu

>  <m_score__min__energy>  (44) 
-9.9100000000000001

>  <m_primary>  (44) 
energy

>  <meeko>  (44) 
{"free_energy": -8.25, "intermolecular_energy": -10.64, "internal_energy": -2.37, "cluster_size": 1, "cluster_id": 3, "rank_in_cluster": 1}

>  <energy>  (44) 
-8.25

>  <cluster_rmsd>  (44) 
0.0

>  <rmsd>  (44) 
270.43

>  <cluster>  (44) 
3

$$$$
JDBMCWJIJNWNRF-OEQCPPMUNA-N
     RDKit          3D

 59 62  0  0  0  0  0  0  0  0999 V2000
  142.4730   76.7980  216.6780 C   0  0  0  0  0  0  0  0  0  0  0  0
  141.4180   76.7230  217.7890 C   0  0  1  0  0  0  0  0  0  0  0  0
  141.7730   75.6780  218.7530 N   0  0  0  0  0  0  0  0  0  0  0  0
  143.0210   75.6650  219.4680 C   0  0  0  0  0  0  0  0  0  0  0  0
  143.8540   76.5970  219.3070 O   0  0  0  0  0  0  0  0  0  0  0  0
  143.3700   74.5270  220.3920 C   0  0  2  0  0  0  0  0  0  0  0  0
  144.8790   74.2720  220.4010 C   0  0  0  0  0  0  0  0  0  0  0  0
  145.0920   73.0350  219.5210 C   0  0  1  0  0  0  0  0  0  0  0  0
  146.1490   72.2280  219.9760 O   0  0  0  0  0  0  0  0  0  0  0  0
  143.7540   72.2970  219.5130 C   0  0  0  0  0  0  0  0  0  0  0  0
  142.7650   73.2740  219.9460 N   0  0  0  0  0  0  0  0  0  0  0  0
  141.3550   72.9680  219.9770 C   0  0  0  0  0  0  0  0  0  0  0  0
  140.7800   72.5890  218.9190 O   0  0  0  0  0  0  0  0  0  0  0  0
  140.5330   73.1030  221.2310 C   0  0  0  0  0  0  0  0  0  0  0  0
  140.7020   74.4240  221.8260 N   0  0  0  0  0  0  0  0  0  0  0  0
  140.0930   75.6010  221.2710 C   0  0  0  0  0  0  0  0  0  0  0  0
  139.4320   75.5170  220.2000 O   0  0  0  0  0  0  0  0  0  0  0  0
  140.2340   76.9080  221.9480 C   0  0  0  0  0  0  0  0  0  0  0  0
  139.1160   77.5690  222.4870 C   0  0  0  0  0  0  0  0  0  0  0  0
  139.2780   78.8050  223.1190 C   0  0  0  0  0  0  0  0  0  0  0  0
  140.5520   79.3770  223.2150 C   0  0  0  0  0  0  0  0  0  0  0  0
  140.7520   80.6180  223.8400 C   0  0  0  0  0  0  0  0  0  0  0  0
  142.0390   81.1610  223.9200 C   0  0  0  0  0  0  0  0  0  0  0  0
  142.2320   82.3630  224.5190 F   0  0  0  0  0  0  0  0  0  0  0  0
  143.1300   80.4690  223.3790 C   0  0  0  0  0  0  0  0  0  0  0  0
  142.9390   79.2310  222.7550 C   0  0  0  0  0  0  0  0  0  0  0  0
  141.6550   78.6820  222.6680 C   0  0  0  0  0  0  0  0  0  0  0  0
  141.4640   77.4810  222.0570 N   0  0  0  0  0  0  0  0  0  0  0  0
  141.2730   78.0520  218.5030 C   0  0  0  0  0  0  0  0  0  0  0  0
  142.3590   78.9440  218.6040 C   0  0  0  0  0  0  0  0  0  0  0  0
  142.2140   80.1670  219.2660 C   0  0  0  0  0  0  0  0  0  0  0  0
  140.9860   80.5080  219.8440 C   0  0  0  0  0  0  0  0  0  0  0  0
  140.8010   82.0440  220.6690 Cl  0  0  0  0  0  0  0  0  0  0  0  0
  139.9050   79.6250  219.7620 C   0  0  0  0  0  0  0  0  0  0  0  0
  140.0460   78.4030  219.0950 C   0  0  0  0  0  0  0  0  0  0  0  0
  143.4744   76.8692  217.1275 H   0  0  0  0  0  0  0  0  0  0  0  0
  142.4143   75.8934  216.0549 H   0  0  0  0  0  0  0  0  0  0  0  0
  142.2869   77.6852  216.0549 H   0  0  0  0  0  0  0  0  0  0  0  0
  140.4533   76.4771  217.3211 H   0  0  0  0  0  0  0  0  0  0  0  0
  141.1100   74.8820  218.8830 H   0  0  0  0  0  0  0  0  0  0  0  0
  142.9995   74.8198  221.3855 H   0  0  0  0  0  0  0  0  0  0  0  0
  145.4172   75.1366  219.9852 H   0  0  0  0  0  0  0  0  0  0  0  0
  145.2600   74.1169  221.4212 H   0  0  0  0  0  0  0  0  0  0  0  0
  145.3918   73.3207  218.5019 H   0  0  0  0  0  0  0  0  0  0  0  0
  145.9150   71.9020  220.8870 H   0  0  0  0  0  0  0  0  0  0  0  0
  143.5202   71.9370  218.5002 H   0  0  0  0  0  0  0  0  0  0  0  0
  143.7712   71.4161  220.1716 H   0  0  0  0  0  0  0  0  0  0  0  0
  139.4718   72.9528  220.9836 H   0  0  0  0  0  0  0  0  0  0  0  0
  140.8703   72.3464  221.9548 H   0  0  0  0  0  0  0  0  0  0  0  0
  141.3330   74.5110  222.6550 H   0  0  0  0  0  0  0  0  0  0  0  0
  138.1170   77.1147  222.4115 H   0  0  0  0  0  0  0  0  0  0  0  0
  138.4062   79.3272  223.5401 H   0  0  0  0  0  0  0  0  0  0  0  0
  139.8972   81.1633  224.2667 H   0  0  0  0  0  0  0  0  0  0  0  0
  144.1400   80.8999  223.4448 H   0  0  0  0  0  0  0  0  0  0  0  0
  143.7984   78.6895  222.3329 H   0  0  0  0  0  0  0  0  0  0  0  0
  143.3284   78.6761  218.1586 H   0  0  0  0  0  0  0  0  0  0  0  0
  143.0649   80.8609  219.3325 H   0  0  0  0  0  0  0  0  0  0  0  0
  138.9422   79.8914  220.2225 H   0  0  0  0  0  0  0  0  0  0  0  0
  139.1920   77.7124  219.0332 H   0  0  0  0  0  0  0  0  0  0  0  0
  1  2  1  0
  2  3  1  0
  3  4  1  0
  4  5  2  0
  4  6  1  0
  6  7  1  0
  7  8  1  0
  8  9  1  0
  8 10  1  0
 10 11  1  0
 11 12  1  0
 12 13  2  0
 12 14  1  0
 14 15  1  0
 15 16  1  0
 16 17  2  0
 16 18  1  0
 18 19  2  0
 19 20  1  0
 20 21  2  0
 21 22  1  0
 22 23  2  0
 23 24  1  0
 23 25  1  0
 25 26  2  0
 26 27  1  0
 27 28  2  0
  2 29  1  0
 29 30  2  0
 30 31  1  0
 31 32  2  0
 32 33  1  0
 32 34  1  0
 34 35  2  0
 11  6  1  0
 28 18  1  0
 35 29  1  0
 27 21  1  0
  1 36  1  0
  1 37  1  0
  1 38  1  0
  2 39  1  6
  3 40  1  0
  6 41  1  1
  7 42  1  0
  7 43  1  0
  8 44  1  6
  9 45  1  0
 10 46  1  0
 10 47  1  0
 14 48  1  0
 14 49  1  0
 15 50  1  0
 19 51  1  0
 20 52  1  0
 22 53  1  0
 25 54  1  0
 26 55  1  0
 30 56  1  0
 31 57  1  0
 34 58  1  0
 35 59  1  0
M  END
>  <UniqueID>  (45) 
82

>  <SMILES>  (45) 
C[C@@H](NC(=O)[C@@H]1C[C@@H](O)CN1C(=O)CNC(=O)c1ccc2cc(F)ccc2n1)c1ccc(Cl)cc1

>  <Energy>  (45) 
60.14141454719763

>  <Genealogy>  (45) 
C[C@@H](NC(=O)[C@@H]1C[C@@H](O)CN1C(=O)CNC(=O)c1ccc2cc(F)ccc2n1)c1ccc(Cl)cc1 (3D coordinates assigned)
C[C@@H](NC(=O)[C@@H]1C[C@@H](O)CN1C(=O)CNC(=O)c1ccc2cc(F)ccc2n1)c1ccc(Cl)cc1 (nonaromatic ring conformer: 60.14141454719763 kcal/mol)

>  <smiles>  (45) 
C[C@@H](NC(=O)[C@@H]1C[C@@H](O)CN1C(=O)CNC(=O)c1ccc2cc(F)ccc2n1)c1ccc(Cl)cc1

>  <score_type>  (45) 
oracle

>  <origin>  (45) 
autodockgpu

>  <m_score__min__energy>  (45) 
-9.9100000000000001

>  <m_primary>  (45) 
energy

>  <meeko>  (45) 
{"free_energy": -6.68, "intermolecular_energy": -9.06, "internal_energy": -5.02, "cluster_size": 15, "cluster_id": 4, "rank_in_cluster": 14}

>  <energy>  (45) 
-7.55

>  <cluster_rmsd>  (45) 
0.0

>  <rmsd>  (45) 
270.65

>  <cluster>  (45) 
4

$$$$
JDBMCWJIJNWNRF-OEQCPPMUNA-N
     RDKit          3D

 59 62  0  0  0  0  0  0  0  0999 V2000
  142.9530   78.0830  217.6260 C   0  0  0  0  0  0  0  0  0  0  0  0
  141.8440   77.7370  218.6270 C   0  0  1  0  0  0  0  0  0  0  0  0
  142.3540   76.8130  219.6450 N   0  0  0  0  0  0  0  0  0  0  0  0
  142.8220   75.4890  219.3340 C   0  0  0  0  0  0  0  0  0  0  0  0
  142.8390   75.0860  218.1400 O   0  0  0  0  0  0  0  0  0  0  0  0
  143.2670   74.5510  220.4260 C   0  0  2  0  0  0  0  0  0  0  0  0
  144.7930   74.4360  220.4610 C   0  0  0  0  0  0  0  0  0  0  0  0
  145.1190   73.0970  219.7890 C   0  0  1  0  0  0  0  0  0  0  0  0
  146.2420   72.4710  220.3580 O   0  0  0  0  0  0  0  0  0  0  0  0
  143.8530   72.2520  219.9140 C   0  0  0  0  0  0  0  0  0  0  0  0
  142.7790   73.1930  220.1940 N   0  0  0  0  0  0  0  0  0  0  0  0
  141.4010   72.7720  220.2890 C   0  0  0  0  0  0  0  0  0  0  0  0
  140.8830   72.1300  219.3340 O   0  0  0  0  0  0  0  0  0  0  0  0
  140.5460   73.0900  221.4860 C   0  0  0  0  0  0  0  0  0  0  0  0
  140.7600   74.4640  221.9300 N   0  0  0  0  0  0  0  0  0  0  0  0
  139.7400   75.4710  221.8310 C   0  0  0  0  0  0  0  0  0  0  0  0
  138.6350   75.1910  221.2910 O   0  0  0  0  0  0  0  0  0  0  0  0
  139.9780   76.8320  222.3580 C   0  0  0  0  0  0  0  0  0  0  0  0
  138.9130   77.6250  222.8230 C   0  0  0  0  0  0  0  0  0  0  0  0
  139.1670   78.9090  223.3130 C   0  0  0  0  0  0  0  0  0  0  0  0
  140.4780   79.3980  223.3410 C   0  0  0  0  0  0  0  0  0  0  0  0
  140.7680   80.6840  223.8240 C   0  0  0  0  0  0  0  0  0  0  0  0
  142.0910   81.1420  223.8390 C   0  0  0  0  0  0  0  0  0  0  0  0
  142.3720   82.3860  224.3010 F   0  0  0  0  0  0  0  0  0  0  0  0
  143.1260   80.3200  223.3760 C   0  0  0  0  0  0  0  0  0  0  0  0
  142.8440   79.0370  222.8940 C   0  0  0  0  0  0  0  0  0  0  0  0
  141.5240   78.5720  222.8730 C   0  0  0  0  0  0  0  0  0  0  0  0
  141.2450   77.3270  222.3990 N   0  0  0  0  0  0  0  0  0  0  0  0
  141.2940   78.9810  219.2940 C   0  0  0  0  0  0  0  0  0  0  0  0
  142.1360   80.0650  219.6160 C   0  0  0  0  0  0  0  0  0  0  0  0
  141.6170   81.2080  220.2320 C   0  0  0  0  0  0  0  0  0  0  0  0
  140.2550   81.2780  220.5420 C   0  0  0  0  0  0  0  0  0  0  0  0
  139.6020   82.7130  221.3090 Cl  0  0  0  0  0  0  0  0  0  0  0  0
  139.4120   80.2040  220.2400 C   0  0  0  0  0  0  0  0  0  0  0  0
  139.9270   79.0610  219.6190 C   0  0  0  0  0  0  0  0  0  0  0  0
  143.8644   78.3674  218.1723 H   0  0  0  0  0  0  0  0  0  0  0  0
  143.1625   77.2075  216.9938 H   0  0  0  0  0  0  0  0  0  0  0  0
  142.6276   78.9223  216.9938 H   0  0  0  0  0  0  0  0  0  0  0  0
  141.0263   77.2557  218.0705 H   0  0  0  0  0  0  0  0  0  0  0  0
  142.3260   77.1160  220.6440 H   0  0  0  0  0  0  0  0  0  0  0  0
  142.8668   74.9665  221.3626 H   0  0  0  0  0  0  0  0  0  0  0  0
  145.2538   75.2666  219.9063 H   0  0  0  0  0  0  0  0  0  0  0  0
  145.1820   74.4818  221.4889 H   0  0  0  0  0  0  0  0  0  0  0  0
  145.3960   73.2398  218.7341 H   0  0  0  0  0  0  0  0  0  0  0  0
  145.9630   72.0690  221.2250 H   0  0  0  0  0  0  0  0  0  0  0  0
  143.6566   71.7138  218.9750 H   0  0  0  0  0  0  0  0  0  0  0  0
  143.9465   71.4944  220.7061 H   0  0  0  0  0  0  0  0  0  0  0  0
  139.4874   72.9593  221.2171 H   0  0  0  0  0  0  0  0  0  0  0  0
  140.8217   72.4095  222.3051 H   0  0  0  0  0  0  0  0  0  0  0  0
  141.7090   74.7230  222.2820 H   0  0  0  0  0  0  0  0  0  0  0  0
  137.8843   77.2359  222.8010 H   0  0  0  0  0  0  0  0  0  0  0  0
  138.3379   79.5342  223.6760 H   0  0  0  0  0  0  0  0  0  0  0  0
  139.9570   81.3308  224.1901 H   0  0  0  0  0  0  0  0  0  0  0  0
  144.1639   80.6841  223.3913 H   0  0  0  0  0  0  0  0  0  0  0  0
  143.6596   78.3939  222.5316 H   0  0  0  0  0  0  0  0  0  0  0  0
  143.2092   80.0112  219.3809 H   0  0  0  0  0  0  0  0  0  0  0  0
  142.2800   82.0521  220.4728 H   0  0  0  0  0  0  0  0  0  0  0  0
  138.3424   80.2579  220.4911 H   0  0  0  0  0  0  0  0  0  0  0  0
  139.2591   78.2194  219.3832 H   0  0  0  0  0  0  0  0  0  0  0  0
  1  2  1  0
  2  3  1  0
  3  4  1  0
  4  5  2  0
  4  6  1  0
  6  7  1  0
  7  8  1  0
  8  9  1  0
  8 10  1  0
 10 11  1  0
 11 12  1  0
 12 13  2  0
 12 14  1  0
 14 15  1  0
 15 16  1  0
 16 17  2  0
 16 18  1  0
 18 19  2  0
 19 20  1  0
 20 21  2  0
 21 22  1  0
 22 23  2  0
 23 24  1  0
 23 25  1  0
 25 26  2  0
 26 27  1  0
 27 28  2  0
  2 29  1  0
 29 30  2  0
 30 31  1  0
 31 32  2  0
 32 33  1  0
 32 34  1  0
 34 35  2  0
 11  6  1  0
 28 18  1  0
 35 29  1  0
 27 21  1  0
  1 36  1  0
  1 37  1  0
  1 38  1  0
  2 39  1  6
  3 40  1  0
  6 41  1  1
  7 42  1  0
  7 43  1  0
  8 44  1  6
  9 45  1  0
 10 46  1  0
 10 47  1  0
 14 48  1  0
 14 49  1  0
 15 50  1  0
 19 51  1  0
 20 52  1  0
 22 53  1  0
 25 54  1  0
 26 55  1  0
 30 56  1  0
 31 57  1  0
 34 58  1  0
 35 59  1  0
M  END
>  <UniqueID>  (46) 
82

>  <SMILES>  (46) 
C[C@@H](NC(=O)[C@@H]1C[C@@H](O)CN1C(=O)CNC(=O)c1ccc2cc(F)ccc2n1)c1ccc(Cl)cc1

>  <Energy>  (46) 
60.14141454719763

>  <Genealogy>  (46) 
C[C@@H](NC(=O)[C@@H]1C[C@@H](O)CN1C(=O)CNC(=O)c1ccc2cc(F)ccc2n1)c1ccc(Cl)cc1 (3D coordinates assigned)
C[C@@H](NC(=O)[C@@H]1C[C@@H](O)CN1C(=O)CNC(=O)c1ccc2cc(F)ccc2n1)c1ccc(Cl)cc1 (nonaromatic ring conformer: 60.14141454719763 kcal/mol)

>  <smiles>  (46) 
C[C@@H](NC(=O)[C@@H]1C[C@@H](O)CN1C(=O)CNC(=O)c1ccc2cc(F)ccc2n1)c1ccc(Cl)cc1

>  <score_type>  (46) 
oracle

>  <origin>  (46) 
autodockgpu

>  <m_score__min__energy>  (46) 
-9.9100000000000001

>  <m_primary>  (46) 
energy

>  <meeko>  (46) 
{"free_energy": -7.25, "intermolecular_energy": -9.64, "internal_energy": -4.52, "cluster_size": 15, "cluster_id": 4, "rank_in_cluster": 11}

>  <energy>  (46) 
-7.49

>  <cluster_rmsd>  (46) 
1.16

>  <rmsd>  (46) 
270.66

>  <cluster>  (46) 
4

$$$$
JDBMCWJIJNWNRF-OEQCPPMUNA-N
     RDKit          3D

 59 62  0  0  0  0  0  0  0  0999 V2000
  143.5350   77.0240  216.3470 C   0  0  0  0  0  0  0  0  0  0  0  0
  142.2510   76.8020  217.1560 C   0  0  1  0  0  0  0  0  0  0  0  0
  142.3670   75.5830  217.9620 N   0  0  0  0  0  0  0  0  0  0  0  0
  143.1720   75.5070  219.1510 C   0  0  0  0  0  0  0  0  0  0  0  0
  143.7900   76.5220  219.5660 O   0  0  0  0  0  0  0  0  0  0  0  0
  143.3170   74.2080  219.9030 C   0  0  2  0  0  0  0  0  0  0  0  0
  144.7490   74.0270  220.4120 C   0  0  0  0  0  0  0  0  0  0  0  0
  145.4040   73.0300  219.4500 C   0  0  1  0  0  0  0  0  0  0  0  0
  146.3290   72.1920  220.0960 O   0  0  0  0  0  0  0  0  0  0  0  0
  144.2540   72.2510  218.8140 C   0  0  0  0  0  0  0  0  0  0  0  0
  143.0640   73.0590  219.0350 N   0  0  0  0  0  0  0  0  0  0  0  0
  141.7790   72.6890  218.4910 C   0  0  0  0  0  0  0  0  0  0  0  0
  141.6460   72.5770  217.2400 O   0  0  0  0  0  0  0  0  0  0  0  0
  140.5770   72.4480  219.3640 C   0  0  0  0  0  0  0  0  0  0  0  0
  140.0830   73.7010  219.9270 N   0  0  0  0  0  0  0  0  0  0  0  0
  140.3740   74.1050  221.2750 C   0  0  0  0  0  0  0  0  0  0  0  0
  141.0300   73.3360  222.0300 O   0  0  0  0  0  0  0  0  0  0  0  0
  139.9120   75.4150  221.7800 C   0  0  0  0  0  0  0  0  0  0  0  0
  138.5440   75.7450  221.7920 C   0  0  0  0  0  0  0  0  0  0  0  0
  138.1350   76.9920  222.2710 C   0  0  0  0  0  0  0  0  0  0  0  0
  139.0870   77.9050  222.7400 C   0  0  0  0  0  0  0  0  0  0  0  0
  138.7110   79.1680  223.2260 C   0  0  0  0  0  0  0  0  0  0  0  0
  139.6890   80.0570  223.6880 C   0  0  0  0  0  0  0  0  0  0  0  0
  139.3280   81.2790  224.1540 F   0  0  0  0  0  0  0  0  0  0  0  0
  141.0400   79.6890  223.6690 C   0  0  0  0  0  0  0  0  0  0  0  0
  141.4210   78.4320  223.1860 C   0  0  0  0  0  0  0  0  0  0  0  0
  140.4510   77.5390  222.7200 C   0  0  0  0  0  0  0  0  0  0  0  0
  140.8180   76.3180  222.2440 N   0  0  0  0  0  0  0  0  0  0  0  0
  141.9530   77.9850  218.0550 C   0  0  0  0  0  0  0  0  0  0  0  0
  140.9450   77.9140  219.0370 C   0  0  0  0  0  0  0  0  0  0  0  0
  140.6790   79.0110  219.8610 C   0  0  0  0  0  0  0  0  0  0  0  0
  141.4080   80.1950  219.7070 C   0  0  0  0  0  0  0  0  0  0  0  0
  141.0790   81.5700  220.7440 Cl  0  0  0  0  0  0  0  0  0  0  0  0
  142.4020   80.2820  218.7270 C   0  0  0  0  0  0  0  0  0  0  0  0
  142.6750   79.1840  217.9050 C   0  0  0  0  0  0  0  0  0  0  0  0
  144.3810   77.1703  217.0347 H   0  0  0  0  0  0  0  0  0  0  0  0
  143.7255   76.1455  215.7131 H   0  0  0  0  0  0  0  0  0  0  0  0
  143.4194   77.9155  215.7131 H   0  0  0  0  0  0  0  0  0  0  0  0
  141.4192   76.6935  216.4445 H   0  0  0  0  0  0  0  0  0  0  0  0
  141.8840   74.7210  217.6230 H   0  0  0  0  0  0  0  0  0  0  0  0
  142.5923   74.2544  220.7292 H   0  0  0  0  0  0  0  0  0  0  0  0
  145.2867   74.9865  220.3957 H   0  0  0  0  0  0  0  0  0  0  0  0
  144.7697   73.6649  221.4505 H   0  0  0  0  0  0  0  0  0  0  0  0
  145.9993   73.5496  218.6847 H   0  0  0  0  0  0  0  0  0  0  0  0
  145.9040   71.8500  220.9280 H   0  0  0  0  0  0  0  0  0  0  0  0
  144.4315   72.1155  217.7369 H   0  0  0  0  0  0  0  0  0  0  0  0
  144.1513   71.2472  219.2520 H   0  0  0  0  0  0  0  0  0  0  0  0
  139.7813   71.9852  218.7617 H   0  0  0  0  0  0  0  0  0  0  0  0
  140.8698   71.7827  220.1897 H   0  0  0  0  0  0  0  0  0  0  0  0
  139.4540   74.2890  219.3360 H   0  0  0  0  0  0  0  0  0  0  0  0
  137.7991   75.0234  221.4254 H   0  0  0  0  0  0  0  0  0  0  0  0
  137.0672   77.2559  222.2796 H   0  0  0  0  0  0  0  0  0  0  0  0
  137.6501   79.4582  223.2436 H   0  0  0  0  0  0  0  0  0  0  0  0
  141.8043   80.3903  224.0350 H   0  0  0  0  0  0  0  0  0  0  0  0
  142.4832   78.1465  223.1729 H   0  0  0  0  0  0  0  0  0  0  0  0
  140.3631   76.9881  219.1560 H   0  0  0  0  0  0  0  0  0  0  0  0
  139.8962   78.9434  220.6308 H   0  0  0  0  0  0  0  0  0  0  0  0
  142.9701   81.2157  218.6025 H   0  0  0  0  0  0  0  0  0  0  0  0
  143.4587   79.2578  217.1366 H   0  0  0  0  0  0  0  0  0  0  0  0
  1  2  1  0
  2  3  1  0
  3  4  1  0
  4  5  2  0
  4  6  1  0
  6  7  1  0
  7  8  1  0
  8  9  1  0
  8 10  1  0
 10 11  1  0
 11 12  1  0
 12 13  2  0
 12 14  1  0
 14 15  1  0
 15 16  1  0
 16 17  2  0
 16 18  1  0
 18 19  2  0
 19 20  1  0
 20 21  2  0
 21 22  1  0
 22 23  2  0
 23 24  1  0
 23 25  1  0
 25 26  2  0
 26 27  1  0
 27 28  2  0
  2 29  1  0
 29 30  2  0
 30 31  1  0
 31 32  2  0
 32 33  1  0
 32 34  1  0
 34 35  2  0
 11  6  1  0
 28 18  1  0
 35 29  1  0
 27 21  1  0
  1 36  1  0
  1 37  1  0
  1 38  1  0
  2 39  1  6
  3 40  1  0
  6 41  1  1
  7 42  1  0
  7 43  1  0
  8 44  1  6
  9 45  1  0
 10 46  1  0
 10 47  1  0
 14 48  1  0
 14 49  1  0
 15 50  1  0
 19 51  1  0
 20 52  1  0
 22 53  1  0
 25 54  1  0
 26 55  1  0
 30 56  1  0
 31 57  1  0
 34 58  1  0
 35 59  1  0
M  END
>  <UniqueID>  (47) 
82

>  <SMILES>  (47) 
C[C@@H](NC(=O)[C@@H]1C[C@@H](O)CN1C(=O)CNC(=O)c1ccc2cc(F)ccc2n1)c1ccc(Cl)cc1

>  <Energy>  (47) 
60.14141454719763

>  <Genealogy>  (47) 
C[C@@H](NC(=O)[C@@H]1C[C@@H](O)CN1C(=O)CNC(=O)c1ccc2cc(F)ccc2n1)c1ccc(Cl)cc1 (3D coordinates assigned)
C[C@@H](NC(=O)[C@@H]1C[C@@H](O)CN1C(=O)CNC(=O)c1ccc2cc(F)ccc2n1)c1ccc(Cl)cc1 (nonaromatic ring conformer: 60.14141454719763 kcal/mol)

>  <smiles>  (47) 
C[C@@H](NC(=O)[C@@H]1C[C@@H](O)CN1C(=O)CNC(=O)c1ccc2cc(F)ccc2n1)c1ccc(Cl)cc1

>  <score_type>  (47) 
oracle

>  <origin>  (47) 
autodockgpu

>  <m_score__min__energy>  (47) 
-9.9100000000000001

>  <m_primary>  (47) 
energy

>  <meeko>  (47) 
{"free_energy": -6.94, "intermolecular_energy": -9.33, "internal_energy": -3.94, "cluster_size": 15, "cluster_id": 4, "rank_in_cluster": 12}

>  <energy>  (47) 
-7.49

>  <cluster_rmsd>  (47) 
1.15

>  <rmsd>  (47) 
270.64

>  <cluster>  (47) 
4

$$$$
JDBMCWJIJNWNRF-OEQCPPMUNA-N
     RDKit          3D

 59 62  0  0  0  0  0  0  0  0999 V2000
  138.0320   76.8260  221.0330 C   0  0  0  0  0  0  0  0  0  0  0  0
  139.3460   76.3970  221.6980 C   0  0  1  0  0  0  0  0  0  0  0  0
  140.1800   75.6650  220.7410 N   0  0  0  0  0  0  0  0  0  0  0  0
  140.8550   74.4380  221.0720 C   0  0  0  0  0  0  0  0  0  0  0  0
  140.7180   73.9260  222.2150 O   0  0  0  0  0  0  0  0  0  0  0  0
  141.7610   73.7630  220.0750 C   0  0  2  0  0  0  0  0  0  0  0  0
  142.7110   72.7860  220.7720 C   0  0  0  0  0  0  0  0  0  0  0  0
  144.0620   73.5060  220.8430 C   0  0  1  0  0  0  0  0  0  0  0  0
  145.1480   72.6230  220.7150 O   0  0  0  0  0  0  0  0  0  0  0  0
  144.0300   74.5570  219.7340 C   0  0  0  0  0  0  0  0  0  0  0  0
  142.6240   74.7300  219.3980 N   0  0  0  0  0  0  0  0  0  0  0  0
  142.1850   75.7190  218.4440 C   0  0  0  0  0  0  0  0  0  0  0  0
  141.0440   75.6050  217.9150 O   0  0  0  0  0  0  0  0  0  0  0  0
  143.0510   76.8810  218.0370 C   0  0  0  0  0  0  0  0  0  0  0  0
  142.6350   78.1050  218.7150 N   0  0  0  0  0  0  0  0  0  0  0  0
  141.3240   78.6690  218.5450 C   0  0  0  0  0  0  0  0  0  0  0  0
  140.5120   78.1340  217.7420 O   0  0  0  0  0  0  0  0  0  0  0  0
  140.9230   79.8710  219.3070 C   0  0  0  0  0  0  0  0  0  0  0  0
  141.8260   80.9280  219.5220 C   0  0  0  0  0  0  0  0  0  0  0  0
  141.4210   82.0500  220.2490 C   0  0  0  0  0  0  0  0  0  0  0  0
  140.1190   82.1190  220.7570 C   0  0  0  0  0  0  0  0  0  0  0  0
  139.6790   83.2300  221.4940 C   0  0  0  0  0  0  0  0  0  0  0  0
  138.3690   83.2670  221.9870 C   0  0  0  0  0  0  0  0  0  0  0  0
  137.9450   84.3380  222.7030 F   0  0  0  0  0  0  0  0  0  0  0  0
  137.4960   82.1990  221.7450 C   0  0  0  0  0  0  0  0  0  0  0  0
  137.9270   81.0890  221.0110 C   0  0  0  0  0  0  0  0  0  0  0  0
  139.2350   81.0420  220.5170 C   0  0  0  0  0  0  0  0  0  0  0  0
  139.6600   79.9620  219.8080 N   0  0  0  0  0  0  0  0  0  0  0  0
  140.1090   77.5920  222.2340 C   0  0  0  0  0  0  0  0  0  0  0  0
  139.4880   78.5250  223.0890 C   0  0  0  0  0  0  0  0  0  0  0  0
  140.2020   79.6230  223.5770 C   0  0  0  0  0  0  0  0  0  0  0  0
  141.5400   79.8080  223.2100 C   0  0  0  0  0  0  0  0  0  0  0  0
  142.4380   81.1820  223.8270 Cl  0  0  0  0  0  0  0  0  0  0  0  0
  142.1620   78.8960  222.3530 C   0  0  0  0  0  0  0  0  0  0  0  0
  141.4520   77.7930  221.8670 C   0  0  0  0  0  0  0  0  0  0  0  0
  137.2905   77.0681  221.8086 H   0  0  0  0  0  0  0  0  0  0  0  0
  138.2103   77.7126  220.4068 H   0  0  0  0  0  0  0  0  0  0  0  0
  137.6529   76.0050  220.4068 H   0  0  0  0  0  0  0  0  0  0  0  0
  139.0966   75.7404  222.5446 H   0  0  0  0  0  0  0  0  0  0  0  0
  140.3290   76.0830  219.7960 H   0  0  0  0  0  0  0  0  0  0  0  0
  141.0975   73.2503  219.3630 H   0  0  0  0  0  0  0  0  0  0  0  0
  142.3470   72.5517  221.7832 H   0  0  0  0  0  0  0  0  0  0  0  0
  142.7856   71.8326  220.2285 H   0  0  0  0  0  0  0  0  0  0  0  0
  144.2101   73.9740  221.8274 H   0  0  0  0  0  0  0  0  0  0  0  0
  145.3280   72.2260  221.6100 H   0  0  0  0  0  0  0  0  0  0  0  0
  144.4588   75.5050  220.0911 H   0  0  0  0  0  0  0  0  0  0  0  0
  144.6215   74.2449  218.8606 H   0  0  0  0  0  0  0  0  0  0  0  0
  144.0960   76.6608  218.3008 H   0  0  0  0  0  0  0  0  0  0  0  0
  142.9511   77.0298  216.9517 H   0  0  0  0  0  0  0  0  0  0  0  0
  143.3410   78.6050  219.3010 H   0  0  0  0  0  0  0  0  0  0  0  0
  142.8479   80.8712  219.1189 H   0  0  0  0  0  0  0  0  0  0  0  0
  142.1244   82.8779  220.4218 H   0  0  0  0  0  0  0  0  0  0  0  0
  140.3627   84.0705  221.6839 H   0  0  0  0  0  0  0  0  0  0  0  0
  136.4675   82.2332  222.1336 H   0  0  0  0  0  0  0  0  0  0  0  0
  137.2374   80.2530  220.8222 H   0  0  0  0  0  0  0  0  0  0  0  0
  138.4345   78.3880  223.3740 H   0  0  0  0  0  0  0  0  0  0  0  0
  139.7121   80.3422  224.2499 H   0  0  0  0  0  0  0  0  0  0  0  0
  143.2117   79.0458  222.0601 H   0  0  0  0  0  0  0  0  0  0  0  0
  141.9472   77.0781  221.1934 H   0  0  0  0  0  0  0  0  0  0  0  0
  1  2  1  0
  2  3  1  0
  3  4  1  0
  4  5  2  0
  4  6  1  0
  6  7  1  0
  7  8  1  0
  8  9  1  0
  8 10  1  0
 10 11  1  0
 11 12  1  0
 12 13  2  0
 12 14  1  0
 14 15  1  0
 15 16  1  0
 16 17  2  0
 16 18  1  0
 18 19  2  0
 19 20  1  0
 20 21  2  0
 21 22  1  0
 22 23  2  0
 23 24  1  0
 23 25  1  0
 25 26  2  0
 26 27  1  0
 27 28  2  0
  2 29  1  0
 29 30  2  0
 30 31  1  0
 31 32  2  0
 32 33  1  0
 32 34  1  0
 34 35  2  0
 11  6  1  0
 28 18  1  0
 35 29  1  0
 27 21  1  0
  1 36  1  0
  1 37  1  0
  1 38  1  0
  2 39  1  1
  3 40  1  0
  6 41  1  6
  7 42  1  0
  7 43  1  0
  8 44  1  1
  9 45  1  0
 10 46  1  0
 10 47  1  0
 14 48  1  0
 14 49  1  0
 15 50  1  0
 19 51  1  0
 20 52  1  0
 22 53  1  0
 25 54  1  0
 26 55  1  0
 30 56  1  0
 31 57  1  0
 34 58  1  0
 35 59  1  0
M  END
>  <UniqueID>  (48) 
82

>  <SMILES>  (48) 
C[C@@H](NC(=O)[C@@H]1C[C@@H](O)CN1C(=O)CNC(=O)c1ccc2cc(F)ccc2n1)c1ccc(Cl)cc1

>  <Energy>  (48) 
60.14141454719763

>  <Genealogy>  (48) 
C[C@@H](NC(=O)[C@@H]1C[C@@H](O)CN1C(=O)CNC(=O)c1ccc2cc(F)ccc2n1)c1ccc(Cl)cc1 (3D coordinates assigned)
C[C@@H](NC(=O)[C@@H]1C[C@@H](O)CN1C(=O)CNC(=O)c1ccc2cc(F)ccc2n1)c1ccc(Cl)cc1 (nonaromatic ring conformer: 60.14141454719763 kcal/mol)

>  <smiles>  (48) 
C[C@@H](NC(=O)[C@@H]1C[C@@H](O)CN1C(=O)CNC(=O)c1ccc2cc(F)ccc2n1)c1ccc(Cl)cc1

>  <score_type>  (48) 
oracle

>  <origin>  (48) 
autodockgpu

>  <m_score__min__energy>  (48) 
-9.9100000000000001

>  <m_primary>  (48) 
energy

>  <meeko>  (48) 
{"free_energy": -6.61, "intermolecular_energy": -9.0, "internal_energy": -4.57, "cluster_size": 15, "cluster_id": 4, "rank_in_cluster": 15}

>  <energy>  (48) 
-7.49

>  <cluster_rmsd>  (48) 
1.16

>  <rmsd>  (48) 
270.63

>  <cluster>  (48) 
4

$$$$
JDBMCWJIJNWNRF-OEQCPPMUNA-N
     RDKit          3D

 59 62  0  0  0  0  0  0  0  0999 V2000
  143.2930   76.8100  216.5750 C   0  0  0  0  0  0  0  0  0  0  0  0
  142.0810   76.6290  217.4990 C   0  0  1  0  0  0  0  0  0  0  0  0
  142.3370   75.5550  218.4620 N   0  0  0  0  0  0  0  0  0  0  0  0
  143.3220   75.6590  219.5050 C   0  0  0  0  0  0  0  0  0  0  0  0
  143.9880   76.7190  219.6460 O   0  0  0  0  0  0  0  0  0  0  0  0
  143.6000   74.4970  220.4240 C   0  0  2  0  0  0  0  0  0  0  0  0
  145.0980   74.1910  220.4840 C   0  0  0  0  0  0  0  0  0  0  0  0
  145.3020   72.9610  219.5920 C   0  0  1  0  0  0  0  0  0  0  0  0
  146.3150   72.1130  220.0730 O   0  0  0  0  0  0  0  0  0  0  0  0
  143.9420   72.2680  219.5250 C   0  0  0  0  0  0  0  0  0  0  0  0
  142.9710   73.2700  219.9370 N   0  0  0  0  0  0  0  0  0  0  0  0
  141.5510   73.0110  219.9130 C   0  0  0  0  0  0  0  0  0  0  0  0
  141.0220   72.5590  218.8590 O   0  0  0  0  0  0  0  0  0  0  0  0
  140.6660   73.2810  221.1000 C   0  0  0  0  0  0  0  0  0  0  0  0
  140.8820   74.6290  221.6160 N   0  0  0  0  0  0  0  0  0  0  0  0
  139.8640   75.6410  221.5710 C   0  0  0  0  0  0  0  0  0  0  0  0
  138.7580   75.3920  221.0180 O   0  0  0  0  0  0  0  0  0  0  0  0
  140.1040   76.9720  222.1700 C   0  0  0  0  0  0  0  0  0  0  0  0
  139.0480   77.7200  222.7210 C   0  0  0  0  0  0  0  0  0  0  0  0
  139.3030   78.9760  223.2770 C   0  0  0  0  0  0  0  0  0  0  0  0
  140.6080   79.4820  223.2860 C   0  0  0  0  0  0  0  0  0  0  0  0
  140.9000   80.7420  223.8340 C   0  0  0  0  0  0  0  0  0  0  0  0
  142.2160   81.2180  223.8280 C   0  0  0  0  0  0  0  0  0  0  0  0
  142.4980   82.4360  224.3530 F   0  0  0  0  0  0  0  0  0  0  0  0
  143.2430   80.4400  223.2790 C   0  0  0  0  0  0  0  0  0  0  0  0
  142.9600   79.1840  222.7310 C   0  0  0  0  0  0  0  0  0  0  0  0
  141.6460   78.7020  222.7310 C   0  0  0  0  0  0  0  0  0  0  0  0
  141.3660   77.4830  222.1940 N   0  0  0  0  0  0  0  0  0  0  0  0
  141.7530   77.9120  218.2360 C   0  0  0  0  0  0  0  0  0  0  0  0
  140.5680   78.0320  218.9900 C   0  0  0  0  0  0  0  0  0  0  0  0
  140.2750   79.2200  219.6660 C   0  0  0  0  0  0  0  0  0  0  0  0
  141.1560   80.3050  219.5890 C   0  0  0  0  0  0  0  0  0  0  0  0
  140.7930   81.7930  220.4410 Cl  0  0  0  0  0  0  0  0  0  0  0  0
  142.3280   80.2010  218.8330 C   0  0  0  0  0  0  0  0  0  0  0  0
  142.6260   79.0120  218.1600 C   0  0  0  0  0  0  0  0  0  0  0  0
  144.2001   76.9455  217.1823 H   0  0  0  0  0  0  0  0  0  0  0  0
  143.4065   75.9188  215.9402 H   0  0  0  0  0  0  0  0  0  0  0  0
  143.1411   77.6954  215.9402 H   0  0  0  0  0  0  0  0  0  0  0  0
  141.2167   76.3616  216.8733 H   0  0  0  0  0  0  0  0  0  0  0  0
  141.8160   74.6570  218.3490 H   0  0  0  0  0  0  0  0  0  0  0  0
  143.2033   74.7889  221.4076 H   0  0  0  0  0  0  0  0  0  0  0  0
  145.6798   75.0430  220.1025 H   0  0  0  0  0  0  0  0  0  0  0  0
  145.4356   74.0076  221.5147 H   0  0  0  0  0  0  0  0  0  0  0  0
  145.6471   73.2510  218.5886 H   0  0  0  0  0  0  0  0  0  0  0  0
  146.0710   71.8380  220.9980 H   0  0  0  0  0  0  0  0  0  0  0  0
  143.7334   71.9303  218.4991 H   0  0  0  0  0  0  0  0  0  0  0  0
  143.9068   71.3779  220.1703 H   0  0  0  0  0  0  0  0  0  0  0  0
  139.6141   73.1762  220.7959 H   0  0  0  0  0  0  0  0  0  0  0  0
  140.9113   72.5584  221.8923 H   0  0  0  0  0  0  0  0  0  0  0  0
  141.8320   74.8680  221.9810 H   0  0  0  0  0  0  0  0  0  0  0  0
  138.0244   77.3173  222.7142 H   0  0  0  0  0  0  0  0  0  0  0  0
  138.4800   79.5660  223.7067 H   0  0  0  0  0  0  0  0  0  0  0  0
  140.0951   81.3539  224.2674 H   0  0  0  0  0  0  0  0  0  0  0  0
  144.2761   80.8178  223.2786 H   0  0  0  0  0  0  0  0  0  0  0  0
  143.7694   78.5760  222.3006 H   0  0  0  0  0  0  0  0  0  0  0  0
  139.8688   77.1847  219.0469 H   0  0  0  0  0  0  0  0  0  0  0  0
  139.3519   79.3022  220.2586 H   0  0  0  0  0  0  0  0  0  0  0  0
  143.0168   81.0562  218.7676 H   0  0  0  0  0  0  0  0  0  0  0  0
  143.5495   78.9366  217.5672 H   0  0  0  0  0  0  0  0  0  0  0  0
  1  2  1  0
  2  3  1  0
  3  4  1  0
  4  5  2  0
  4  6  1  0
  6  7  1  0
  7  8  1  0
  8  9  1  0
  8 10  1  0
 10 11  1  0
 11 12  1  0
 12 13  2  0
 12 14  1  0
 14 15  1  0
 15 16  1  0
 16 17  2  0
 16 18  1  0
 18 19  2  0
 19 20  1  0
 20 21  2  0
 21 22  1  0
 22 23  2  0
 23 24  1  0
 23 25  1  0
 25 26  2  0
 26 27  1  0
 27 28  2  0
  2 29  1  0
 29 30  2  0
 30 31  1  0
 31 32  2  0
 32 33  1  0
 32 34  1  0
 34 35  2  0
 11  6  1  0
 28 18  1  0
 35 29  1  0
 27 21  1  0
  1 36  1  0
  1 37  1  0
  1 38  1  0
  2 39  1  6
  3 40  1  0
  6 41  1  1
  7 42  1  0
  7 43  1  0
  8 44  1  6
  9 45  1  0
 10 46  1  0
 10 47  1  0
 14 48  1  0
 14 49  1  0
 15 50  1  0
 19 51  1  0
 20 52  1  0
 22 53  1  0
 25 54  1  0
 26 55  1  0
 30 56  1  0
 31 57  1  0
 34 58  1  0
 35 59  1  0
M  END
>  <UniqueID>  (49) 
82

>  <SMILES>  (49) 
C[C@@H](NC(=O)[C@@H]1C[C@@H](O)CN1C(=O)CNC(=O)c1ccc2cc(F)ccc2n1)c1ccc(Cl)cc1

>  <Energy>  (49) 
60.14141454719763

>  <Genealogy>  (49) 
C[C@@H](NC(=O)[C@@H]1C[C@@H](O)CN1C(=O)CNC(=O)c1ccc2cc(F)ccc2n1)c1ccc(Cl)cc1 (3D coordinates assigned)
C[C@@H](NC(=O)[C@@H]1C[C@@H](O)CN1C(=O)CNC(=O)c1ccc2cc(F)ccc2n1)c1ccc(Cl)cc1 (nonaromatic ring conformer: 60.14141454719763 kcal/mol)

>  <smiles>  (49) 
C[C@@H](NC(=O)[C@@H]1C[C@@H](O)CN1C(=O)CNC(=O)c1ccc2cc(F)ccc2n1)c1ccc(Cl)cc1

>  <score_type>  (49) 
oracle

>  <origin>  (49) 
autodockgpu

>  <m_score__min__energy>  (49) 
-9.9100000000000001

>  <m_primary>  (49) 
energy

>  <meeko>  (49) 
{"free_energy": -7.38, "intermolecular_energy": -9.76, "internal_energy": -4.39, "cluster_size": 15, "cluster_id": 4, "rank_in_cluster": 6}

>  <energy>  (49) 
-7.39

>  <cluster_rmsd>  (49) 
1.17

>  <rmsd>  (49) 
270.55

>  <cluster>  (49) 
4

$$$$
JDBMCWJIJNWNRF-OEQCPPMUNA-N
     RDKit          3D

 59 62  0  0  0  0  0  0  0  0999 V2000
  143.2900   76.7620  216.5410 C   0  0  0  0  0  0  0  0  0  0  0  0
  142.0980   76.6270  217.4970 C   0  0  1  0  0  0  0  0  0  0  0  0
  142.3460   75.5500  218.4610 N   0  0  0  0  0  0  0  0  0  0  0  0
  143.3300   75.6470  219.5050 C   0  0  0  0  0  0  0  0  0  0  0  0
  144.0040   76.7020  219.6460 O   0  0  0  0  0  0  0  0  0  0  0  0
  143.5980   74.4830  220.4240 C   0  0  2  0  0  0  0  0  0  0  0  0
  145.0950   74.1680  220.4870 C   0  0  0  0  0  0  0  0  0  0  0  0
  145.2920   72.9370  219.5960 C   0  0  1  0  0  0  0  0  0  0  0  0
  146.2980   72.0820  220.0790 O   0  0  0  0  0  0  0  0  0  0  0  0
  143.9280   72.2530  219.5260 C   0  0  0  0  0  0  0  0  0  0  0  0
  142.9620   73.2610  219.9360 N   0  0  0  0  0  0  0  0  0  0  0  0
  141.5410   73.0120  219.9090 C   0  0  0  0  0  0  0  0  0  0  0  0
  141.0100   72.5720  218.8510 O   0  0  0  0  0  0  0  0  0  0  0  0
  140.6570   73.2770  221.0980 C   0  0  0  0  0  0  0  0  0  0  0  0
  140.8690   74.6260  221.6140 N   0  0  0  0  0  0  0  0  0  0  0  0
  139.8530   75.6390  221.5530 C   0  0  0  0  0  0  0  0  0  0  0  0
  138.7540   75.3910  220.9850 O   0  0  0  0  0  0  0  0  0  0  0  0
  140.0870   76.9710  222.1530 C   0  0  0  0  0  0  0  0  0  0  0  0
  139.0210   77.7300  222.6700 C   0  0  0  0  0  0  0  0  0  0  0  0
  139.2710   78.9860  223.2270 C   0  0  0  0  0  0  0  0  0  0  0  0
  140.5790   79.4820  223.2720 C   0  0  0  0  0  0  0  0  0  0  0  0
  140.8660   80.7420  223.8220 C   0  0  0  0  0  0  0  0  0  0  0  0
  142.1850   81.2070  223.8520 C   0  0  0  0  0  0  0  0  0  0  0  0
  142.4630   82.4260  224.3790 F   0  0  0  0  0  0  0  0  0  0  0  0
  143.2210   80.4180  223.3350 C   0  0  0  0  0  0  0  0  0  0  0  0
  142.9430   79.1620  222.7850 C   0  0  0  0  0  0  0  0  0  0  0  0
  141.6260   78.6900  222.7490 C   0  0  0  0  0  0  0  0  0  0  0  0
  141.3510   77.4720  222.2110 N   0  0  0  0  0  0  0  0  0  0  0  0
  141.8310   77.9240  218.2340 C   0  0  0  0  0  0  0  0  0  0  0  0
  140.6880   78.0750  219.0450 C   0  0  0  0  0  0  0  0  0  0  0  0
  140.4520   79.2770  219.7190 C   0  0  0  0  0  0  0  0  0  0  0  0
  141.3480   80.3430  219.5840 C   0  0  0  0  0  0  0  0  0  0  0  0
  141.0550   81.8480  220.4350 Cl  0  0  0  0  0  0  0  0  0  0  0  0
  142.4780   80.2080  218.7730 C   0  0  0  0  0  0  0  0  0  0  0  0
  142.7200   79.0060  218.1000 C   0  0  0  0  0  0  0  0  0  0  0  0
  144.2172   76.8670  217.1235 H   0  0  0  0  0  0  0  0  0  0  0  0
  143.3549   75.8655  215.9070 H   0  0  0  0  0  0  0  0  0  0  0  0
  143.1527   77.6503  215.9070 H   0  0  0  0  0  0  0  0  0  0  0  0
  141.2090   76.3851  216.8961 H   0  0  0  0  0  0  0  0  0  0  0  0
  141.8180   74.6570  218.3480 H   0  0  0  0  0  0  0  0  0  0  0  0
  143.2008   74.7765  221.4069 H   0  0  0  0  0  0  0  0  0  0  0  0
  145.6827   75.0163  220.1062 H   0  0  0  0  0  0  0  0  0  0  0  0
  145.4302   73.9833  221.5183 H   0  0  0  0  0  0  0  0  0  0  0  0
  145.6409   73.2251  218.5934 H   0  0  0  0  0  0  0  0  0  0  0  0
  146.0440   71.7970  220.9980 H   0  0  0  0  0  0  0  0  0  0  0  0
  143.7195   71.9167  218.4996 H   0  0  0  0  0  0  0  0  0  0  0  0
  143.8858   71.3632  220.1714 H   0  0  0  0  0  0  0  0  0  0  0  0
  139.6049   73.1681  220.7960 H   0  0  0  0  0  0  0  0  0  0  0  0
  140.9062   72.5547  221.8893 H   0  0  0  0  0  0  0  0  0  0  0  0
  141.8130   74.8630  221.9930 H   0  0  0  0  0  0  0  0  0  0  0  0
  137.9947   77.3356  222.6356 H   0  0  0  0  0  0  0  0  0  0  0  0
  138.4409   79.5848  223.6299 H   0  0  0  0  0  0  0  0  0  0  0  0
  140.0542   81.3628  224.2289 H   0  0  0  0  0  0  0  0  0  0  0  0
  144.2568   80.7875  223.3617 H   0  0  0  0  0  0  0  0  0  0  0  0
  143.7595   78.5455  222.3809 H   0  0  0  0  0  0  0  0  0  0  0  0
  139.9772   77.2419  219.1483 H   0  0  0  0  0  0  0  0  0  0  0  0
  139.5615   79.3846  220.3557 H   0  0  0  0  0  0  0  0  0  0  0  0
  143.1787   81.0489  218.6636 H   0  0  0  0  0  0  0  0  0  0  0  0
  143.6107   78.9061  217.4622 H   0  0  0  0  0  0  0  0  0  0  0  0
  1  2  1  0
  2  3  1  0
  3  4  1  0
  4  5  2  0
  4  6  1  0
  6  7  1  0
  7  8  1  0
  8  9  1  0
  8 10  1  0
 10 11  1  0
 11 12  1  0
 12 13  2  0
 12 14  1  0
 14 15  1  0
 15 16  1  0
 16 17  2  0
 16 18  1  0
 18 19  2  0
 19 20  1  0
 20 21  2  0
 21 22  1  0
 22 23  2  0
 23 24  1  0
 23 25  1  0
 25 26  2  0
 26 27  1  0
 27 28  2  0
  2 29  1  0
 29 30  2  0
 30 31  1  0
 31 32  2  0
 32 33  1  0
 32 34  1  0
 34 35  2  0
 11  6  1  0
 28 18  1  0
 35 29  1  0
 27 21  1  0
  1 36  1  0
  1 37  1  0
  1 38  1  0
  2 39  1  6
  3 40  1  0
  6 41  1  1
  7 42  1  0
  7 43  1  0
  8 44  1  6
  9 45  1  0
 10 46  1  0
 10 47  1  0
 14 48  1  0
 14 49  1  0
 15 50  1  0
 19 51  1  0
 20 52  1  0
 22 53  1  0
 25 54  1  0
 26 55  1  0
 30 56  1  0
 31 57  1  0
 34 58  1  0
 35 59  1  0
M  END
>  <UniqueID>  (50) 
82

>  <SMILES>  (50) 
C[C@@H](NC(=O)[C@@H]1C[C@@H](O)CN1C(=O)CNC(=O)c1ccc2cc(F)ccc2n1)c1ccc(Cl)cc1

>  <Energy>  (50) 
60.14141454719763

>  <Genealogy>  (50) 
C[C@@H](NC(=O)[C@@H]1C[C@@H](O)CN1C(=O)CNC(=O)c1ccc2cc(F)ccc2n1)c1ccc(Cl)cc1 (3D coordinates assigned)
C[C@@H](NC(=O)[C@@H]1C[C@@H](O)CN1C(=O)CNC(=O)c1ccc2cc(F)ccc2n1)c1ccc(Cl)cc1 (nonaromatic ring conformer: 60.14141454719763 kcal/mol)

>  <smiles>  (50) 
C[C@@H](NC(=O)[C@@H]1C[C@@H](O)CN1C(=O)CNC(=O)c1ccc2cc(F)ccc2n1)c1ccc(Cl)cc1

>  <score_type>  (50) 
oracle

>  <origin>  (50) 
autodockgpu

>  <m_score__min__energy>  (50) 
-9.9100000000000001

>  <m_primary>  (50) 
energy

>  <meeko>  (50) 
{"free_energy": -7.39, "intermolecular_energy": -9.78, "internal_energy": -4.35, "cluster_size": 15, "cluster_id": 4, "rank_in_cluster": 5}

>  <energy>  (50) 
-7.38

>  <cluster_rmsd>  (50) 
1.16

>  <rmsd>  (50) 
270.54

>  <cluster>  (50) 
4

$$$$
JDBMCWJIJNWNRF-OEQCPPMUNA-N
     RDKit          3D

 59 62  0  0  0  0  0  0  0  0999 V2000
  142.9510   78.0570  217.6320 C   0  0  0  0  0  0  0  0  0  0  0  0
  141.8540   77.7330  218.6540 C   0  0  1  0  0  0  0  0  0  0  0  0
  142.3690   76.8090  219.6690 N   0  0  0  0  0  0  0  0  0  0  0  0
  142.8640   75.4970  219.3520 C   0  0  0  0  0  0  0  0  0  0  0  0
  142.9040   75.1050  218.1560 O   0  0  0  0  0  0  0  0  0  0  0  0
  143.3130   74.5570  220.4420 C   0  0  2  0  0  0  0  0  0  0  0  0
  144.8400   74.4540  220.4810 C   0  0  0  0  0  0  0  0  0  0  0  0
  145.1800   73.1210  219.8040 C   0  0  1  0  0  0  0  0  0  0  0  0
  146.3050   72.5020  220.3740 O   0  0  0  0  0  0  0  0  0  0  0  0
  143.9200   72.2650  219.9200 C   0  0  0  0  0  0  0  0  0  0  0  0
  142.8370   73.1960  220.2010 N   0  0  0  0  0  0  0  0  0  0  0  0
  141.4620   72.7630  220.2880 C   0  0  0  0  0  0  0  0  0  0  0  0
  140.9580   72.1070  219.3350 O   0  0  0  0  0  0  0  0  0  0  0  0
  140.5940   73.0850  221.4750 C   0  0  0  0  0  0  0  0  0  0  0  0
  140.8030   74.4610  221.9160 N   0  0  0  0  0  0  0  0  0  0  0  0
  139.7660   75.4520  221.8560 C   0  0  0  0  0  0  0  0  0  0  0  0
  138.6470   75.1580  221.3530 O   0  0  0  0  0  0  0  0  0  0  0  0
  140.0020   76.8150  222.3810 C   0  0  0  0  0  0  0  0  0  0  0  0
  138.9380   77.6020  222.8570 C   0  0  0  0  0  0  0  0  0  0  0  0
  139.1890   78.8870  223.3440 C   0  0  0  0  0  0  0  0  0  0  0  0
  140.4970   79.3840  223.3570 C   0  0  0  0  0  0  0  0  0  0  0  0
  140.7860   80.6720  223.8360 C   0  0  0  0  0  0  0  0  0  0  0  0
  142.1060   81.1380  223.8370 C   0  0  0  0  0  0  0  0  0  0  0  0
  142.3850   82.3840  224.2950 F   0  0  0  0  0  0  0  0  0  0  0  0
  143.1400   80.3220  223.3630 C   0  0  0  0  0  0  0  0  0  0  0  0
  142.8600   79.0370  222.8840 C   0  0  0  0  0  0  0  0  0  0  0  0
  141.5430   78.5640  222.8770 C   0  0  0  0  0  0  0  0  0  0  0  0
  141.2660   77.3180  222.4070 N   0  0  0  0  0  0  0  0  0  0  0  0
  141.3330   78.9890  219.3210 C   0  0  0  0  0  0  0  0  0  0  0  0
  139.9780   79.1050  219.6910 C   0  0  0  0  0  0  0  0  0  0  0  0
  139.5070   80.2700  220.3060 C   0  0  0  0  0  0  0  0  0  0  0  0
  140.3820   81.3350  220.5490 C   0  0  0  0  0  0  0  0  0  0  0  0
  139.7940   82.7930  221.3260 Cl  0  0  0  0  0  0  0  0  0  0  0  0
  141.7250   81.2360  220.1750 C   0  0  0  0  0  0  0  0  0  0  0  0
  142.2000   80.0700  219.5650 C   0  0  0  0  0  0  0  0  0  0  0  0
  143.8759   78.3302  218.1611 H   0  0  0  0  0  0  0  0  0  0  0  0
  143.1363   77.1752  217.0010 H   0  0  0  0  0  0  0  0  0  0  0  0
  142.6275   78.8979  217.0010 H   0  0  0  0  0  0  0  0  0  0  0  0
  141.0199   77.2594  218.1155 H   0  0  0  0  0  0  0  0  0  0  0  0
  142.3220   77.1020  220.6710 H   0  0  0  0  0  0  0  0  0  0  0  0
  142.9065   74.9645  221.3794 H   0  0  0  0  0  0  0  0  0  0  0  0
  145.2956   75.2910  219.9316 H   0  0  0  0  0  0  0  0  0  0  0  0
  145.2250   74.4979  221.5105 H   0  0  0  0  0  0  0  0  0  0  0  0
  145.4603   73.2710  218.7510 H   0  0  0  0  0  0  0  0  0  0  0  0
  146.0170   72.0600  221.2180 H   0  0  0  0  0  0  0  0  0  0  0  0
  143.7314   71.7302  218.9775 H   0  0  0  0  0  0  0  0  0  0  0  0
  144.0167   71.5042  220.7085 H   0  0  0  0  0  0  0  0  0  0  0  0
  139.5383   72.9529  221.1955 H   0  0  0  0  0  0  0  0  0  0  0  0
  140.8611   72.4076  222.2995 H   0  0  0  0  0  0  0  0  0  0  0  0
  141.7600   74.7320  222.2370 H   0  0  0  0  0  0  0  0  0  0  0  0
  137.9115   77.2069  222.8458 H   0  0  0  0  0  0  0  0  0  0  0  0
  138.3601   79.5069  223.7165 H   0  0  0  0  0  0  0  0  0  0  0  0
  139.9754   81.3145  224.2103 H   0  0  0  0  0  0  0  0  0  0  0  0
  144.1759   80.6919  223.3670 H   0  0  0  0  0  0  0  0  0  0  0  0
  143.6754   78.3987  222.5129 H   0  0  0  0  0  0  0  0  0  0  0  0
  139.2855   78.2732  219.4947 H   0  0  0  0  0  0  0  0  0  0  0  0
  138.4495   80.3489  220.5984 H   0  0  0  0  0  0  0  0  0  0  0  0
  142.4099   82.0765  220.3606 H   0  0  0  0  0  0  0  0  0  0  0  0
  143.2584   79.9978  219.2742 H   0  0  0  0  0  0  0  0  0  0  0  0
  1  2  1  0
  2  3  1  0
  3  4  1  0
  4  5  2  0
  4  6  1  0
  6  7  1  0
  7  8  1  0
  8  9  1  0
  8 10  1  0
 10 11  1  0
 11 12  1  0
 12 13  2  0
 12 14  1  0
 14 15  1  0
 15 16  1  0
 16 17  2  0
 16 18  1  0
 18 19  2  0
 19 20  1  0
 20 21  2  0
 21 22  1  0
 22 23  2  0
 23 24  1  0
 23 25  1  0
 25 26  2  0
 26 27  1  0
 27 28  2  0
  2 29  1  0
 29 30  2  0
 30 31  1  0
 31 32  2  0
 32 33  1  0
 32 34  1  0
 34 35  2  0
 11  6  1  0
 28 18  1  0
 35 29  1  0
 27 21  1  0
  1 36  1  0
  1 37  1  0
  1 38  1  0
  2 39  1  6
  3 40  1  0
  6 41  1  1
  7 42  1  0
  7 43  1  0
  8 44  1  6
  9 45  1  0
 10 46  1  0
 10 47  1  0
 14 48  1  0
 14 49  1  0
 15 50  1  0
 19 51  1  0
 20 52  1  0
 22 53  1  0
 25 54  1  0
 26 55  1  0
 30 56  1  0
 31 57  1  0
 34 58  1  0
 35 59  1  0
M  END
>  <UniqueID>  (51) 
82

>  <SMILES>  (51) 
C[C@@H](NC(=O)[C@@H]1C[C@@H](O)CN1C(=O)CNC(=O)c1ccc2cc(F)ccc2n1)c1ccc(Cl)cc1

>  <Energy>  (51) 
60.14141454719763

>  <Genealogy>  (51) 
C[C@@H](NC(=O)[C@@H]1C[C@@H](O)CN1C(=O)CNC(=O)c1ccc2cc(F)ccc2n1)c1ccc(Cl)cc1 (3D coordinates assigned)
C[C@@H](NC(=O)[C@@H]1C[C@@H](O)CN1C(=O)CNC(=O)c1ccc2cc(F)ccc2n1)c1ccc(Cl)cc1 (nonaromatic ring conformer: 60.14141454719763 kcal/mol)

>  <smiles>  (51) 
C[C@@H](NC(=O)[C@@H]1C[C@@H](O)CN1C(=O)CNC(=O)c1ccc2cc(F)ccc2n1)c1ccc(Cl)cc1

>  <score_type>  (51) 
oracle

>  <origin>  (51) 
autodockgpu

>  <m_score__min__energy>  (51) 
-9.9100000000000001

>  <m_primary>  (51) 
energy

>  <meeko>  (51) 
{"free_energy": -7.31, "intermolecular_energy": -9.7, "internal_energy": -4.5, "cluster_size": 15, "cluster_id": 4, "rank_in_cluster": 8}

>  <energy>  (51) 
-7.36

>  <cluster_rmsd>  (51) 
0.73

>  <rmsd>  (51) 
270.85

>  <cluster>  (51) 
4

$$$$
JDBMCWJIJNWNRF-OEQCPPMUNA-N
     RDKit          3D

 59 62  0  0  0  0  0  0  0  0999 V2000
  140.5440   76.2590  219.0260 C   0  0  0  0  0  0  0  0  0  0  0  0
  140.3990   76.0350  220.5370 C   0  0  1  0  0  0  0  0  0  0  0  0
  141.0920   74.8050  220.9320 N   0  0  0  0  0  0  0  0  0  0  0  0
  142.4050   74.4600  220.4560 C   0  0  0  0  0  0  0  0  0  0  0  0
  143.0280   75.2420  219.6910 O   0  0  0  0  0  0  0  0  0  0  0  0
  143.0430   73.1480  220.8340 C   0  0  2  0  0  0  0  0  0  0  0  0
  144.5670   73.2800  220.9030 C   0  0  0  0  0  0  0  0  0  0  0  0
  145.0920   72.6540  219.6060 C   0  0  1  0  0  0  0  0  0  0  0  0
  146.3250   72.0040  219.7860 O   0  0  0  0  0  0  0  0  0  0  0  0
  143.9940   71.7030  219.1310 C   0  0  0  0  0  0  0  0  0  0  0  0
  142.7860   72.1200  219.8270 N   0  0  0  0  0  0  0  0  0  0  0  0
  141.5050   71.5090  219.5640 C   0  0  0  0  0  0  0  0  0  0  0  0
  141.3670   70.7760  218.5460 O   0  0  0  0  0  0  0  0  0  0  0  0
  140.3130   71.7310  220.4550 C   0  0  0  0  0  0  0  0  0  0  0  0
  140.5540   71.1970  221.7920 N   0  0  0  0  0  0  0  0  0  0  0  0
  140.3200   71.9700  222.9810 C   0  0  0  0  0  0  0  0  0  0  0  0
  139.9480   73.1710  222.8830 O   0  0  0  0  0  0  0  0  0  0  0  0
  140.5120   71.3640  224.3160 C   0  0  0  0  0  0  0  0  0  0  0  0
  140.8660   72.1540  225.4250 C   0  0  0  0  0  0  0  0  0  0  0  0
  141.0440   71.5550  226.6750 C   0  0  0  0  0  0  0  0  0  0  0  0
  140.8660   70.1740  226.8180 C   0  0  0  0  0  0  0  0  0  0  0  0
  141.0390   69.5380  228.0580 C   0  0  0  0  0  0  0  0  0  0  0  0
  140.8520   68.1560  228.1670 C   0  0  0  0  0  0  0  0  0  0  0  0
  141.0240   67.5400  229.3630 F   0  0  0  0  0  0  0  0  0  0  0  0
  140.4910   67.4040  227.0410 C   0  0  0  0  0  0  0  0  0  0  0  0
  140.3160   68.0310  225.8020 C   0  0  0  0  0  0  0  0  0  0  0  0
  140.5040   69.4120  225.6850 C   0  0  0  0  0  0  0  0  0  0  0  0
  140.3400   70.0240  224.4800 N   0  0  0  0  0  0  0  0  0  0  0  0
  140.9460   77.2080  221.3250 C   0  0  0  0  0  0  0  0  0  0  0  0
  141.4160   78.3640  220.6710 C   0  0  0  0  0  0  0  0  0  0  0  0
  141.9190   79.4410  221.4090 C   0  0  0  0  0  0  0  0  0  0  0  0
  141.9670   79.3700  222.8050 C   0  0  0  0  0  0  0  0  0  0  0  0
  142.5910   80.7220  223.7310 Cl  0  0  0  0  0  0  0  0  0  0  0  0
  141.5150   78.2230  223.4640 C   0  0  0  0  0  0  0  0  0  0  0  0
  141.0070   77.1460  222.7290 C   0  0  0  0  0  0  0  0  0  0  0  0
  141.1336   77.1699  218.8453 H   0  0  0  0  0  0  0  0  0  0  0  0
  141.0551   75.3958  218.5747 H   0  0  0  0  0  0  0  0  0  0  0  0
  139.5472   76.3719  218.5747 H   0  0  0  0  0  0  0  0  0  0  0  0
  139.3265   75.9413  220.7627 H   0  0  0  0  0  0  0  0  0  0  0  0
  140.5850   74.1290  221.5460 H   0  0  0  0  0  0  0  0  0  0  0  0
  142.6119   72.8721  221.8077 H   0  0  0  0  0  0  0  0  0  0  0  0
  144.8587   74.3389  220.9642 H   0  0  0  0  0  0  0  0  0  0  0  0
  144.9797   72.7817  221.7926 H   0  0  0  0  0  0  0  0  0  0  0  0
  145.3013   73.4250  218.8498 H   0  0  0  0  0  0  0  0  0  0  0  0
  146.2990   71.5340  220.6640 H   0  0  0  0  0  0  0  0  0  0  0  0
  143.8582   71.7866  218.0426 H   0  0  0  0  0  0  0  0  0  0  0  0
  144.2446   70.6534  219.3445 H   0  0  0  0  0  0  0  0  0  0  0  0
  140.1149   72.8105  220.5289 H   0  0  0  0  0  0  0  0  0  0  0  0
  139.4476   71.2099  220.0197 H   0  0  0  0  0  0  0  0  0  0  0  0
  140.9600   70.2380  221.8710 H   0  0  0  0  0  0  0  0  0  0  0  0
  141.0022   73.2393  225.3086 H   0  0  0  0  0  0  0  0  0  0  0  0
  141.3235   72.1676  227.5448 H   0  0  0  0  0  0  0  0  0  0  0  0
  141.3215   70.1264  228.9434 H   0  0  0  0  0  0  0  0  0  0  0  0
  140.3447   66.3175  227.1312 H   0  0  0  0  0  0  0  0  0  0  0  0
  140.0307   67.4379  224.9206 H   0  0  0  0  0  0  0  0  0  0  0  0
  141.3873   78.4202  219.5728 H   0  0  0  0  0  0  0  0  0  0  0  0
  142.2766   80.3433  220.8914 H   0  0  0  0  0  0  0  0  0  0  0  0
  141.5587   78.1670  224.5617 H   0  0  0  0  0  0  0  0  0  0  0  0
  140.6532   76.2455  223.2523 H   0  0  0  0  0  0  0  0  0  0  0  0
  1  2  1  0
  2  3  1  0
  3  4  1  0
  4  5  2  0
  4  6  1  0
  6  7  1  0
  7  8  1  0
  8  9  1  0
  8 10  1  0
 10 11  1  0
 11 12  1  0
 12 13  2  0
 12 14  1  0
 14 15  1  0
 15 16  1  0
 16 17  2  0
 16 18  1  0
 18 19  2  0
 19 20  1  0
 20 21  2  0
 21 22  1  0
 22 23  2  0
 23 24  1  0
 23 25  1  0
 25 26  2  0
 26 27  1  0
 27 28  2  0
  2 29  1  0
 29 30  2  0
 30 31  1  0
 31 32  2  0
 32 33  1  0
 32 34  1  0
 34 35  2  0
 11  6  1  0
 28 18  1  0
 35 29  1  0
 27 21  1  0
  1 36  1  0
  1 37  1  0
  1 38  1  0
  2 39  1  6
  3 40  1  0
  6 41  1  1
  7 42  1  0
  7 43  1  0
  8 44  1  6
  9 45  1  0
 10 46  1  0
 10 47  1  0
 14 48  1  0
 14 49  1  0
 15 50  1  0
 19 51  1  0
 20 52  1  0
 22 53  1  0
 25 54  1  0
 26 55  1  0
 30 56  1  0
 31 57  1  0
 34 58  1  0
 35 59  1  0
M  END
>  <UniqueID>  (52) 
82

>  <SMILES>  (52) 
C[C@@H](NC(=O)[C@@H]1C[C@@H](O)CN1C(=O)CNC(=O)c1ccc2cc(F)ccc2n1)c1ccc(Cl)cc1

>  <Energy>  (52) 
60.14141454719763

>  <Genealogy>  (52) 
C[C@@H](NC(=O)[C@@H]1C[C@@H](O)CN1C(=O)CNC(=O)c1ccc2cc(F)ccc2n1)c1ccc(Cl)cc1 (3D coordinates assigned)
C[C@@H](NC(=O)[C@@H]1C[C@@H](O)CN1C(=O)CNC(=O)c1ccc2cc(F)ccc2n1)c1ccc(Cl)cc1 (nonaromatic ring conformer: 60.14141454719763 kcal/mol)

>  <smiles>  (52) 
C[C@@H](NC(=O)[C@@H]1C[C@@H](O)CN1C(=O)CNC(=O)c1ccc2cc(F)ccc2n1)c1ccc(Cl)cc1

>  <score_type>  (52) 
oracle

>  <origin>  (52) 
autodockgpu

>  <m_score__min__energy>  (52) 
-9.9100000000000001

>  <m_primary>  (52) 
energy

>  <meeko>  (52) 
{"free_energy": -9.08, "intermolecular_energy": -11.46, "internal_energy": -2.78, "cluster_size": 2, "cluster_id": 1, "rank_in_cluster": 2}

>  <energy>  (52) 
-7.31

>  <cluster_rmsd>  (52) 
0.74

>  <rmsd>  (52) 
270.83

>  <cluster>  (52) 
4

$$$$
JDBMCWJIJNWNRF-OEQCPPMUNA-N
     RDKit          3D

 59 62  0  0  0  0  0  0  0  0999 V2000
  142.9500   78.1200  217.6270 C   0  0  0  0  0  0  0  0  0  0  0  0
  141.8540   77.7770  218.6430 C   0  0  1  0  0  0  0  0  0  0  0  0
  142.3750   76.8510  219.6540 N   0  0  0  0  0  0  0  0  0  0  0  0
  142.8330   75.5250  219.3360 C   0  0  0  0  0  0  0  0  0  0  0  0
  142.8300   75.1210  218.1430 O   0  0  0  0  0  0  0  0  0  0  0  0
  143.2900   74.5860  220.4230 C   0  0  2  0  0  0  0  0  0  0  0  0
  144.8180   74.4940  220.4600 C   0  0  0  0  0  0  0  0  0  0  0  0
  145.1650   73.1650  219.7790 C   0  0  1  0  0  0  0  0  0  0  0  0
  146.2960   72.5520  220.3450 O   0  0  0  0  0  0  0  0  0  0  0  0
  143.9110   72.2990  219.8950 C   0  0  0  0  0  0  0  0  0  0  0  0
  142.8220   73.2230  220.1800 N   0  0  0  0  0  0  0  0  0  0  0  0
  141.4510   72.7800  220.2690 C   0  0  0  0  0  0  0  0  0  0  0  0
  140.9570   72.1040  219.3250 O   0  0  0  0  0  0  0  0  0  0  0  0
  140.5760   73.1140  221.4470 C   0  0  0  0  0  0  0  0  0  0  0  0
  140.8040   74.4850  221.8940 N   0  0  0  0  0  0  0  0  0  0  0  0
  139.7950   75.5020  221.7970 C   0  0  0  0  0  0  0  0  0  0  0  0
  138.6870   75.2350  221.2560 O   0  0  0  0  0  0  0  0  0  0  0  0
  140.0470   76.8590  222.3280 C   0  0  0  0  0  0  0  0  0  0  0  0
  138.9920   77.6540  222.8140 C   0  0  0  0  0  0  0  0  0  0  0  0
  139.2590   78.9340  223.3070 C   0  0  0  0  0  0  0  0  0  0  0  0
  140.5720   79.4170  223.3180 C   0  0  0  0  0  0  0  0  0  0  0  0
  140.8750   80.7000  223.8030 C   0  0  0  0  0  0  0  0  0  0  0  0
  142.2000   81.1520  223.8010 C   0  0  0  0  0  0  0  0  0  0  0  0
  142.4930   82.3930  224.2650 F   0  0  0  0  0  0  0  0  0  0  0  0
  143.2240   80.3280  223.3170 C   0  0  0  0  0  0  0  0  0  0  0  0
  142.9290   79.0490  222.8330 C   0  0  0  0  0  0  0  0  0  0  0  0
  141.6080   78.5900  222.8290 C   0  0  0  0  0  0  0  0  0  0  0  0
  141.3160   77.3490  222.3530 N   0  0  0  0  0  0  0  0  0  0  0  0
  141.3160   79.0230  219.3180 C   0  0  0  0  0  0  0  0  0  0  0  0
  139.9520   79.1350  219.6540 C   0  0  0  0  0  0  0  0  0  0  0  0
  139.4670   80.2900  220.2750 C   0  0  0  0  0  0  0  0  0  0  0  0
  140.3360   81.3490  220.5600 C   0  0  0  0  0  0  0  0  0  0  0  0
  139.7310   82.7940  221.3450 Cl  0  0  0  0  0  0  0  0  0  0  0  0
  141.6890   81.2540  220.2200 C   0  0  0  0  0  0  0  0  0  0  0  0
  142.1780   80.0980  219.6020 C   0  0  0  0  0  0  0  0  0  0  0  0
  143.8679   78.4073  218.1608 H   0  0  0  0  0  0  0  0  0  0  0  0
  143.1524   77.2423  216.9957 H   0  0  0  0  0  0  0  0  0  0  0  0
  142.6159   78.9566  216.9957 H   0  0  0  0  0  0  0  0  0  0  0  0
  141.0275   77.2981  218.0974 H   0  0  0  0  0  0  0  0  0  0  0  0
  142.3620   77.1550  220.6530 H   0  0  0  0  0  0  0  0  0  0  0  0
  142.8825   74.9883  221.3622 H   0  0  0  0  0  0  0  0  0  0  0  0
  145.2672   75.3355  219.9121 H   0  0  0  0  0  0  0  0  0  0  0  0
  145.2047   74.5385  221.4888 H   0  0  0  0  0  0  0  0  0  0  0  0
  145.4413   73.3201  218.7256 H   0  0  0  0  0  0  0  0  0  0  0  0
  145.9880   71.9670  221.0890 H   0  0  0  0  0  0  0  0  0  0  0  0
  143.7245   71.7650  218.9516 H   0  0  0  0  0  0  0  0  0  0  0  0
  144.0141   71.5366  220.6812 H   0  0  0  0  0  0  0  0  0  0  0  0
  139.5213   73.0010  221.1556 H   0  0  0  0  0  0  0  0  0  0  0  0
  140.8223   72.4300  222.2725 H   0  0  0  0  0  0  0  0  0  0  0  0
  141.7550   74.7330  222.2480 H   0  0  0  0  0  0  0  0  0  0  0  0
  137.9615   77.2693  222.8057 H   0  0  0  0  0  0  0  0  0  0  0  0
  138.4382   79.5608  223.6858 H   0  0  0  0  0  0  0  0  0  0  0  0
  140.0723   81.3486  224.1838 H   0  0  0  0  0  0  0  0  0  0  0  0
  144.2635   80.6877  223.3175 H   0  0  0  0  0  0  0  0  0  0  0  0
  143.7363   78.4042  222.4555 H   0  0  0  0  0  0  0  0  0  0  0  0
  139.2638   78.3077  219.4261 H   0  0  0  0  0  0  0  0  0  0  0  0
  138.4020   80.3662  220.5396 H   0  0  0  0  0  0  0  0  0  0  0  0
  142.3701   82.0896  220.4388 H   0  0  0  0  0  0  0  0  0  0  0  0
  143.2432   80.0292  219.3365 H   0  0  0  0  0  0  0  0  0  0  0  0
  1  2  1  0
  2  3  1  0
  3  4  1  0
  4  5  2  0
  4  6  1  0
  6  7  1  0
  7  8  1  0
  8  9  1  0
  8 10  1  0
 10 11  1  0
 11 12  1  0
 12 13  2  0
 12 14  1  0
 14 15  1  0
 15 16  1  0
 16 17  2  0
 16 18  1  0
 18 19  2  0
 19 20  1  0
 20 21  2  0
 21 22  1  0
 22 23  2  0
 23 24  1  0
 23 25  1  0
 25 26  2  0
 26 27  1  0
 27 28  2  0
  2 29  1  0
 29 30  2  0
 30 31  1  0
 31 32  2  0
 32 33  1  0
 32 34  1  0
 34 35  2  0
 11  6  1  0
 28 18  1  0
 35 29  1  0
 27 21  1  0
  1 36  1  0
  1 37  1  0
  1 38  1  0
  2 39  1  6
  3 40  1  0
  6 41  1  1
  7 42  1  0
  7 43  1  0
  8 44  1  6
  9 45  1  0
 10 46  1  0
 10 47  1  0
 14 48  1  0
 14 49  1  0
 15 50  1  0
 19 51  1  0
 20 52  1  0
 22 53  1  0
 25 54  1  0
 26 55  1  0
 30 56  1  0
 31 57  1  0
 34 58  1  0
 35 59  1  0
M  END
>  <UniqueID>  (53) 
82

>  <SMILES>  (53) 
C[C@@H](NC(=O)[C@@H]1C[C@@H](O)CN1C(=O)CNC(=O)c1ccc2cc(F)ccc2n1)c1ccc(Cl)cc1

>  <Energy>  (53) 
60.14141454719763

>  <Genealogy>  (53) 
C[C@@H](NC(=O)[C@@H]1C[C@@H](O)CN1C(=O)CNC(=O)c1ccc2cc(F)ccc2n1)c1ccc(Cl)cc1 (3D coordinates assigned)
C[C@@H](NC(=O)[C@@H]1C[C@@H](O)CN1C(=O)CNC(=O)c1ccc2cc(F)ccc2n1)c1ccc(Cl)cc1 (nonaromatic ring conformer: 60.14141454719763 kcal/mol)

>  <smiles>  (53) 
C[C@@H](NC(=O)[C@@H]1C[C@@H](O)CN1C(=O)CNC(=O)c1ccc2cc(F)ccc2n1)c1ccc(Cl)cc1

>  <score_type>  (53) 
oracle

>  <origin>  (53) 
autodockgpu

>  <m_score__min__energy>  (53) 
-9.9100000000000001

>  <m_primary>  (53) 
energy

>  <meeko>  (53) 
{"free_energy": -7.31, "intermolecular_energy": -9.7, "internal_energy": -4.51, "cluster_size": 15, "cluster_id": 4, "rank_in_cluster": 9}

>  <energy>  (53) 
-7.31

>  <cluster_rmsd>  (53) 
0.74

>  <rmsd>  (53) 
270.82

>  <cluster>  (53) 
4

$$$$
JDBMCWJIJNWNRF-OEQCPPMUNA-N
     RDKit          3D

 59 62  0  0  0  0  0  0  0  0999 V2000
  143.3230   76.7690  216.5540 C   0  0  0  0  0  0  0  0  0  0  0  0
  142.1420   76.6360  217.5240 C   0  0  1  0  0  0  0  0  0  0  0  0
  142.4030   75.5650  218.4910 N   0  0  0  0  0  0  0  0  0  0  0  0
  143.3900   75.6750  219.5310 C   0  0  0  0  0  0  0  0  0  0  0  0
  144.0540   76.7370  219.6660 O   0  0  0  0  0  0  0  0  0  0  0  0
  143.6720   74.5170  220.4530 C   0  0  2  0  0  0  0  0  0  0  0  0
  145.1660   74.1840  220.4740 C   0  0  0  0  0  0  0  0  0  0  0  0
  145.3220   72.9420  219.5890 C   0  0  1  0  0  0  0  0  0  0  0  0
  146.3310   72.0790  220.0500 O   0  0  0  0  0  0  0  0  0  0  0  0
  143.9480   72.2740  219.5670 C   0  0  0  0  0  0  0  0  0  0  0  0
  143.0070   73.2980  219.9970 N   0  0  0  0  0  0  0  0  0  0  0  0
  141.5820   73.0650  220.0150 C   0  0  0  0  0  0  0  0  0  0  0  0
  141.0160   72.6110  218.9810 O   0  0  0  0  0  0  0  0  0  0  0  0
  140.7360   73.3640  221.2230 C   0  0  0  0  0  0  0  0  0  0  0  0
  140.9500   74.7330  221.6840 N   0  0  0  0  0  0  0  0  0  0  0  0
  139.8760   75.6780  221.8070 C   0  0  0  0  0  0  0  0  0  0  0  0
  138.7100   75.3500  221.4540 O   0  0  0  0  0  0  0  0  0  0  0  0
  140.1290   77.0320  222.3450 C   0  0  0  0  0  0  0  0  0  0  0  0
  139.0710   77.8370  222.8070 C   0  0  0  0  0  0  0  0  0  0  0  0
  139.3390   79.1140  223.3070 C   0  0  0  0  0  0  0  0  0  0  0  0
  140.6560   79.5840  223.3490 C   0  0  0  0  0  0  0  0  0  0  0  0
  140.9610   80.8630  223.8430 C   0  0  0  0  0  0  0  0  0  0  0  0
  142.2890   81.3030  223.8710 C   0  0  0  0  0  0  0  0  0  0  0  0
  142.5840   82.5400  224.3440 F   0  0  0  0  0  0  0  0  0  0  0  0
  143.3160   80.4690  223.4110 C   0  0  0  0  0  0  0  0  0  0  0  0
  143.0200   79.1940  222.9180 C   0  0  0  0  0  0  0  0  0  0  0  0
  141.6950   78.7480  222.8830 C   0  0  0  0  0  0  0  0  0  0  0  0
  141.4020   77.5100  222.3990 N   0  0  0  0  0  0  0  0  0  0  0  0
  141.8790   77.9360  218.2570 C   0  0  0  0  0  0  0  0  0  0  0  0
  142.7270   79.0490  218.0860 C   0  0  0  0  0  0  0  0  0  0  0  0
  142.4750   80.2430  218.7680 C   0  0  0  0  0  0  0  0  0  0  0  0
  141.3810   80.3370  219.6350 C   0  0  0  0  0  0  0  0  0  0  0  0
  141.0600   81.8360  220.4850 Cl  0  0  0  0  0  0  0  0  0  0  0  0
  140.5400   79.2350  219.8220 C   0  0  0  0  0  0  0  0  0  0  0  0
  140.7870   78.0400  219.1370 C   0  0  0  0  0  0  0  0  0  0  0  0
  144.2569   76.8742  217.1256 H   0  0  0  0  0  0  0  0  0  0  0  0
  143.3800   75.8716  215.9204 H   0  0  0  0  0  0  0  0  0  0  0  0
  143.1789   77.6566  215.9204 H   0  0  0  0  0  0  0  0  0  0  0  0
  141.2474   76.3885  216.9338 H   0  0  0  0  0  0  0  0  0  0  0  0
  141.8830   74.6660  218.3820 H   0  0  0  0  0  0  0  0  0  0  0  0
  143.3084   74.8253  221.4443 H   0  0  0  0  0  0  0  0  0  0  0  0
  145.7522   75.0215  220.0677 H   0  0  0  0  0  0  0  0  0  0  0  0
  145.5294   74.0044  221.4966 H   0  0  0  0  0  0  0  0  0  0  0  0
  145.6446   73.2167  218.5739 H   0  0  0  0  0  0  0  0  0  0  0  0
  145.9800   71.5900  220.8420 H   0  0  0  0  0  0  0  0  0  0  0  0
  143.7042   71.9311  218.5507 H   0  0  0  0  0  0  0  0  0  0  0  0
  143.9148   71.3906  220.2216 H   0  0  0  0  0  0  0  0  0  0  0  0
  139.6756   73.2340  220.9610 H   0  0  0  0  0  0  0  0  0  0  0  0
  141.0202   72.6731  222.0304 H   0  0  0  0  0  0  0  0  0  0  0  0
  141.9310   75.0360  221.8780 H   0  0  0  0  0  0  0  0  0  0  0  0
  138.0373   77.4624  222.7746 H   0  0  0  0  0  0  0  0  0  0  0  0
  138.5158   79.7486  223.6670 H   0  0  0  0  0  0  0  0  0  0  0  0
  140.1563   81.5184  224.2077 H   0  0  0  0  0  0  0  0  0  0  0  0
  144.3588   80.8179  223.4375 H   0  0  0  0  0  0  0  0  0  0  0  0
  143.8295   78.5420  222.5578 H   0  0  0  0  0  0  0  0  0  0  0  0
  143.5929   78.9775  217.4113 H   0  0  0  0  0  0  0  0  0  0  0  0
  143.1373   81.1092  218.6229 H   0  0  0  0  0  0  0  0  0  0  0  0
  139.6835   79.3078  220.5083 H   0  0  0  0  0  0  0  0  0  0  0  0
  140.1227   77.1764  219.2878 H   0  0  0  0  0  0  0  0  0  0  0  0
  1  2  1  0
  2  3  1  0
  3  4  1  0
  4  5  2  0
  4  6  1  0
  6  7  1  0
  7  8  1  0
  8  9  1  0
  8 10  1  0
 10 11  1  0
 11 12  1  0
 12 13  2  0
 12 14  1  0
 14 15  1  0
 15 16  1  0
 16 17  2  0
 16 18  1  0
 18 19  2  0
 19 20  1  0
 20 21  2  0
 21 22  1  0
 22 23  2  0
 23 24  1  0
 23 25  1  0
 25 26  2  0
 26 27  1  0
 27 28  2  0
  2 29  1  0
 29 30  2  0
 30 31  1  0
 31 32  2  0
 32 33  1  0
 32 34  1  0
 34 35  2  0
 11  6  1  0
 28 18  1  0
 35 29  1  0
 27 21  1  0
  1 36  1  0
  1 37  1  0
  1 38  1  0
  2 39  1  6
  3 40  1  0
  6 41  1  1
  7 42  1  0
  7 43  1  0
  8 44  1  6
  9 45  1  0
 10 46  1  0
 10 47  1  0
 14 48  1  0
 14 49  1  0
 15 50  1  0
 19 51  1  0
 20 52  1  0
 22 53  1  0
 25 54  1  0
 26 55  1  0
 30 56  1  0
 31 57  1  0
 34 58  1  0
 35 59  1  0
M  END
>  <UniqueID>  (54) 
82

>  <SMILES>  (54) 
C[C@@H](NC(=O)[C@@H]1C[C@@H](O)CN1C(=O)CNC(=O)c1ccc2cc(F)ccc2n1)c1ccc(Cl)cc1

>  <Energy>  (54) 
60.14141454719763

>  <Genealogy>  (54) 
C[C@@H](NC(=O)[C@@H]1C[C@@H](O)CN1C(=O)CNC(=O)c1ccc2cc(F)ccc2n1)c1ccc(Cl)cc1 (3D coordinates assigned)
C[C@@H](NC(=O)[C@@H]1C[C@@H](O)CN1C(=O)CNC(=O)c1ccc2cc(F)ccc2n1)c1ccc(Cl)cc1 (nonaromatic ring conformer: 60.14141454719763 kcal/mol)

>  <smiles>  (54) 
C[C@@H](NC(=O)[C@@H]1C[C@@H](O)CN1C(=O)CNC(=O)c1ccc2cc(F)ccc2n1)c1ccc(Cl)cc1

>  <score_type>  (54) 
oracle

>  <origin>  (54) 
autodockgpu

>  <m_score__min__energy>  (54) 
-9.9100000000000001

>  <m_primary>  (54) 
energy

>  <meeko>  (54) 
{"free_energy": -7.49, "intermolecular_energy": -9.87, "internal_energy": -4.29, "cluster_size": 15, "cluster_id": 4, "rank_in_cluster": 4}

>  <energy>  (54) 
-7.31

>  <cluster_rmsd>  (54) 
0.76

>  <rmsd>  (54) 
270.82

>  <cluster>  (54) 
4

$$$$
JDBMCWJIJNWNRF-OEQCPPMUNA-N
     RDKit          3D

 59 62  0  0  0  0  0  0  0  0999 V2000
  142.9670   76.6810  217.0630 C   0  0  0  0  0  0  0  0  0  0  0  0
  143.5660   76.4980  218.4640 C   0  0  1  0  0  0  0  0  0  0  0  0
  142.7920   77.2610  219.4470 N   0  0  0  0  0  0  0  0  0  0  0  0
  141.3560   77.2140  219.5160 C   0  0  0  0  0  0  0  0  0  0  0  0
  140.7060   76.4700  218.7350 O   0  0  0  0  0  0  0  0  0  0  0  0
  140.6020   78.0750  220.4980 C   0  0  2  0  0  0  0  0  0  0  0  0
  141.3950   79.3410  220.8360 C   0  0  0  0  0  0  0  0  0  0  0  0
  142.0110   79.0830  222.2160 C   0  0  1  0  0  0  0  0  0  0  0  0
  142.0910   80.2510  222.9940 O   0  0  0  0  0  0  0  0  0  0  0  0
  141.1390   78.0080  222.8640 C   0  0  0  0  0  0  0  0  0  0  0  0
  140.4060   77.3860  221.7710 N   0  0  0  0  0  0  0  0  0  0  0  0
  139.5390   76.2520  221.9840 C   0  0  0  0  0  0  0  0  0  0  0  0
  138.5230   76.3790  222.7220 O   0  0  0  0  0  0  0  0  0  0  0  0
  139.8130   74.9060  221.3680 C   0  0  0  0  0  0  0  0  0  0  0  0
  139.6170   73.8370  222.3410 N   0  0  0  0  0  0  0  0  0  0  0  0
  140.4360   72.6570  222.3620 C   0  0  0  0  0  0  0  0  0  0  0  0
  141.3230   72.4960  221.4790 O   0  0  0  0  0  0  0  0  0  0  0  0
  140.2470   71.6320  223.4110 C   0  0  0  0  0  0  0  0  0  0  0  0
  139.6070   70.4120  223.1250 C   0  0  0  0  0  0  0  0  0  0  0  0
  139.4380   69.4630  224.1370 C   0  0  0  0  0  0  0  0  0  0  0  0
  139.9080   69.7300  225.4280 C   0  0  0  0  0  0  0  0  0  0  0  0
  139.7530   68.8000  226.4690 C   0  0  0  0  0  0  0  0  0  0  0  0
  140.2360   69.0980  227.7490 C   0  0  0  0  0  0  0  0  0  0  0  0
  140.0820   68.2030  228.7560 F   0  0  0  0  0  0  0  0  0  0  0  0
  140.8750   70.3200  227.9930 C   0  0  0  0  0  0  0  0  0  0  0  0
  141.0330   71.2510  226.9600 C   0  0  0  0  0  0  0  0  0  0  0  0
  140.5520   70.9630  225.6790 C   0  0  0  0  0  0  0  0  0  0  0  0
  140.6990   71.8670  224.6730 N   0  0  0  0  0  0  0  0  0  0  0  0
  143.6030   75.0360  218.8620 C   0  0  0  0  0  0  0  0  0  0  0  0
  143.0660   74.0410  218.0200 C   0  0  0  0  0  0  0  0  0  0  0  0
  143.1040   72.6960  218.3980 C   0  0  0  0  0  0  0  0  0  0  0  0
  143.6700   72.3300  219.6240 C   0  0  0  0  0  0  0  0  0  0  0  0
  143.7250   70.6420  220.0960 Cl  0  0  0  0  0  0  0  0  0  0  0  0
  144.1950   73.3090  220.4730 C   0  0  0  0  0  0  0  0  0  0  0  0
  144.1620   74.6550  220.0950 C   0  0  0  0  0  0  0  0  0  0  0  0
  141.9184   77.0014  217.1515 H   0  0  0  0  0  0  0  0  0  0  0  0
  143.5390   77.4454  216.5166 H   0  0  0  0  0  0  0  0  0  0  0  0
  143.0142   75.7275  216.5166 H   0  0  0  0  0  0  0  0  0  0  0  0
  144.5997   76.8734  218.4404 H   0  0  0  0  0  0  0  0  0  0  0  0
  143.3070   77.9040  220.0880 H   0  0  0  0  0  0  0  0  0  0  0  0
  139.6405   78.3101  220.0181 H   0  0  0  0  0  0  0  0  0  0  0  0
  142.1840   79.5113  220.0887 H   0  0  0  0  0  0  0  0  0  0  0  0
  140.7548   80.2355  220.8359 H   0  0  0  0  0  0  0  0  0  0  0  0
  143.0543   78.7458  222.1279 H   0  0  0  0  0  0  0  0  0  0  0  0
  141.9590   81.0310  222.3900 H   0  0  0  0  0  0  0  0  0  0  0  0
  141.7654   77.2643  223.3783 H   0  0  0  0  0  0  0  0  0  0  0  0
  140.4608   78.4344  223.6178 H   0  0  0  0  0  0  0  0  0  0  0  0
  139.1283   74.7517  220.5211 H   0  0  0  0  0  0  0  0  0  0  0  0
  140.8585   74.8826  221.0269 H   0  0  0  0  0  0  0  0  0  0  0  0
  138.8170   73.9220  223.0080 H   0  0  0  0  0  0  0  0  0  0  0  0
  139.2409   70.2059  222.1084 H   0  0  0  0  0  0  0  0  0  0  0  0
  138.9367   68.5084  223.9193 H   0  0  0  0  0  0  0  0  0  0  0  0
  139.2529   67.8389  226.2790 H   0  0  0  0  0  0  0  0  0  0  0  0
  141.2540   70.5489  228.9999 H   0  0  0  0  0  0  0  0  0  0  0  0
  141.5357   72.2096  227.1559 H   0  0  0  0  0  0  0  0  0  0  0  0
  142.6137   74.3253  217.0584 H   0  0  0  0  0  0  0  0  0  0  0  0
  142.6890   71.9254  217.7317 H   0  0  0  0  0  0  0  0  0  0  0  0
  144.6344   73.0202  221.4392 H   0  0  0  0  0  0  0  0  0  0  0  0
  144.5762   75.4212  220.7668 H   0  0  0  0  0  0  0  0  0  0  0  0
  1  2  1  0
  2  3  1  0
  3  4  1  0
  4  5  2  0
  4  6  1  0
  6  7  1  0
  7  8  1  0
  8  9  1  0
  8 10  1  0
 10 11  1  0
 11 12  1  0
 12 13  2  0
 12 14  1  0
 14 15  1  0
 15 16  1  0
 16 17  2  0
 16 18  1  0
 18 19  2  0
 19 20  1  0
 20 21  2  0
 21 22  1  0
 22 23  2  0
 23 24  1  0
 23 25  1  0
 25 26  2  0
 26 27  1  0
 27 28  2  0
  2 29  1  0
 29 30  2  0
 30 31  1  0
 31 32  2  0
 32 33  1  0
 32 34  1  0
 34 35  2  0
 11  6  1  0
 28 18  1  0
 35 29  1  0
 27 21  1  0
  1 36  1  0
  1 37  1  0
  1 38  1  0
  2 39  1  6
  3 40  1  0
  6 41  1  6
  7 42  1  0
  7 43  1  0
  8 44  1  6
  9 45  1  0
 10 46  1  0
 10 47  1  0
 14 48  1  0
 14 49  1  0
 15 50  1  0
 19 51  1  0
 20 52  1  0
 22 53  1  0
 25 54  1  0
 26 55  1  0
 30 56  1  0
 31 57  1  0
 34 58  1  0
 35 59  1  0
M  END
>  <UniqueID>  (55) 
82

>  <SMILES>  (55) 
C[C@@H](NC(=O)[C@@H]1C[C@@H](O)CN1C(=O)CNC(=O)c1ccc2cc(F)ccc2n1)c1ccc(Cl)cc1

>  <Energy>  (55) 
60.14141454719763

>  <Genealogy>  (55) 
C[C@@H](NC(=O)[C@@H]1C[C@@H](O)CN1C(=O)CNC(=O)c1ccc2cc(F)ccc2n1)c1ccc(Cl)cc1 (3D coordinates assigned)
C[C@@H](NC(=O)[C@@H]1C[C@@H](O)CN1C(=O)CNC(=O)c1ccc2cc(F)ccc2n1)c1ccc(Cl)cc1 (nonaromatic ring conformer: 60.14141454719763 kcal/mol)

>  <smiles>  (55) 
C[C@@H](NC(=O)[C@@H]1C[C@@H](O)CN1C(=O)CNC(=O)c1ccc2cc(F)ccc2n1)c1ccc(Cl)cc1

>  <score_type>  (55) 
oracle

>  <origin>  (55) 
autodockgpu

>  <m_score__min__energy>  (55) 
-9.9100000000000001

>  <m_primary>  (55) 
energy

>  <meeko>  (55) 
{"free_energy": -8.63, "intermolecular_energy": -11.01, "internal_energy": -2.48, "cluster_size": 1, "cluster_id": 2, "rank_in_cluster": 1}

>  <energy>  (55) 
-7.25

>  <cluster_rmsd>  (55) 
0.75

>  <rmsd>  (55) 
270.8

>  <cluster>  (55) 
4

$$$$
JDBMCWJIJNWNRF-OEQCPPMUNA-N
     RDKit          3D

 59 62  0  0  0  0  0  0  0  0999 V2000
  136.3490   77.4090  221.3130 C   0  0  0  0  0  0  0  0  0  0  0  0
  136.8280   75.9520  221.3170 C   0  0  1  0  0  0  0  0  0  0  0  0
  138.2900   75.9030  221.4210 N   0  0  0  0  0  0  0  0  0  0  0  0
  139.0370   76.7280  222.3320 C   0  0  0  0  0  0  0  0  0  0  0  0
  138.4380   77.5140  223.1130 O   0  0  0  0  0  0  0  0  0  0  0  0
  140.5440   76.6930  222.3470 C   0  0  2  0  0  0  0  0  0  0  0  0
  141.1130   77.9360  223.0360 C   0  0  0  0  0  0  0  0  0  0  0  0
  141.5880   78.8530  221.9030 C   0  0  1  0  0  0  0  0  0  0  0  0
  142.7360   79.5860  222.2530 O   0  0  0  0  0  0  0  0  0  0  0  0
  141.8220   77.9390  220.7010 C   0  0  0  0  0  0  0  0  0  0  0  0
  141.0910   76.7140  220.9910 N   0  0  0  0  0  0  0  0  0  0  0  0
  140.9990   75.6370  220.0360 C   0  0  0  0  0  0  0  0  0  0  0  0
  140.1450   75.7020  219.1080 O   0  0  0  0  0  0  0  0  0  0  0  0
  141.8780   74.4170  220.1150 C   0  0  0  0  0  0  0  0  0  0  0  0
  141.5210   73.5910  221.2640 N   0  0  0  0  0  0  0  0  0  0  0  0
  140.1930   73.0790  221.4580 C   0  0  0  0  0  0  0  0  0  0  0  0
  139.2770   73.3920  220.6490 O   0  0  0  0  0  0  0  0  0  0  0  0
  139.8940   72.1870  222.5990 C   0  0  0  0  0  0  0  0  0  0  0  0
  138.8080   71.2930  222.5550 C   0  0  0  0  0  0  0  0  0  0  0  0
  138.5470   70.4650  223.6490 C   0  0  0  0  0  0  0  0  0  0  0  0
  139.3670   70.5260  224.7820 C   0  0  0  0  0  0  0  0  0  0  0  0
  139.1310   69.7100  225.9000 C   0  0  0  0  0  0  0  0  0  0  0  0
  139.9710   69.7960  227.0160 C   0  0  0  0  0  0  0  0  0  0  0  0
  139.7420   69.0120  228.0990 F   0  0  0  0  0  0  0  0  0  0  0  0
  141.0480   70.6920  227.0200 C   0  0  0  0  0  0  0  0  0  0  0  0
  141.2880   71.5080  225.9090 C   0  0  0  0  0  0  0  0  0  0  0  0
  140.4520   71.4310  224.7900 C   0  0  0  0  0  0  0  0  0  0  0  0
  140.6800   72.2260  223.7100 N   0  0  0  0  0  0  0  0  0  0  0  0
  136.2070   75.1690  222.4560 C   0  0  0  0  0  0  0  0  0  0  0  0
  136.1060   73.7640  222.4000 C   0  0  0  0  0  0  0  0  0  0  0  0
  135.5310   73.0520  223.4560 C   0  0  0  0  0  0  0  0  0  0  0  0
  135.0400   73.7340  224.5750 C   0  0  0  0  0  0  0  0  0  0  0  0
  134.3240   72.8410  225.9030 Cl  0  0  0  0  0  0  0  0  0  0  0  0
  135.1240   75.1290  224.6360 C   0  0  0  0  0  0  0  0  0  0  0  0
  135.7040   75.8440  223.5830 C   0  0  0  0  0  0  0  0  0  0  0  0
  136.2336   77.7599  222.3491 H   0  0  0  0  0  0  0  0  0  0  0  0
  137.0881   78.0365  220.7935 H   0  0  0  0  0  0  0  0  0  0  0  0
  135.3817   77.4755  220.7935 H   0  0  0  0  0  0  0  0  0  0  0  0
  136.5108   75.4904  220.3703 H   0  0  0  0  0  0  0  0  0  0  0  0
  138.8100   75.2780  220.7650 H   0  0  0  0  0  0  0  0  0  0  0  0
  140.8201   75.7693  222.8767 H   0  0  0  0  0  0  0  0  0  0  0  0
  140.3350   78.4343  223.6330 H   0  0  0  0  0  0  0  0  0  0  0  0
  141.9322   77.6812  223.7245 H   0  0  0  0  0  0  0  0  0  0  0  0
  140.8362   79.6225  221.6735 H   0  0  0  0  0  0  0  0  0  0  0  0
  143.5330   79.0580  221.9760 H   0  0  0  0  0  0  0  0  0  0  0  0
  141.4378   78.4069  219.7826 H   0  0  0  0  0  0  0  0  0  0  0  0
  142.8928   77.7450  220.5402 H   0  0  0  0  0  0  0  0  0  0  0  0
  141.7572   73.8259  219.1952 H   0  0  0  0  0  0  0  0  0  0  0  0
  142.9224   74.7432  220.2278 H   0  0  0  0  0  0  0  0  0  0  0  0
  142.2530   73.4160  221.9890 H   0  0  0  0  0  0  0  0  0  0  0  0
  138.1671   71.2465  221.6622 H   0  0  0  0  0  0  0  0  0  0  0  0
  137.6982   69.7659  223.6204 H   0  0  0  0  0  0  0  0  0  0  0  0
  138.2872   69.0043  225.8987 H   0  0  0  0  0  0  0  0  0  0  0  0
  141.7066   70.7542  227.8988 H   0  0  0  0  0  0  0  0  0  0  0  0
  142.1345   72.2104  225.9155 H   0  0  0  0  0  0  0  0  0  0  0  0
  136.4826   73.2242  221.5186 H   0  0  0  0  0  0  0  0  0  0  0  0
  135.4643   71.9551  223.4077 H   0  0  0  0  0  0  0  0  0  0  0  0
  134.7332   75.6647  225.5137 H   0  0  0  0  0  0  0  0  0  0  0  0
  135.7672   76.9409  223.6365 H   0  0  0  0  0  0  0  0  0  0  0  0
  1  2  1  0
  2  3  1  0
  3  4  1  0
  4  5  2  0
  4  6  1  0
  6  7  1  0
  7  8  1  0
  8  9  1  0
  8 10  1  0
 10 11  1  0
 11 12  1  0
 12 13  2  0
 12 14  1  0
 14 15  1  0
 15 16  1  0
 16 17  2  0
 16 18  1  0
 18 19  2  0
 19 20  1  0
 20 21  2  0
 21 22  1  0
 22 23  2  0
 23 24  1  0
 23 25  1  0
 25 26  2  0
 26 27  1  0
 27 28  2  0
  2 29  1  0
 29 30  2  0
 30 31  1  0
 31 32  2  0
 32 33  1  0
 32 34  1  0
 34 35  2  0
 11  6  1  0
 28 18  1  0
 35 29  1  0
 27 21  1  0
  1 36  1  0
  1 37  1  0
  1 38  1  0
  2 39  1  6
  3 40  1  0
  6 41  1  1
  7 42  1  0
  7 43  1  0
  8 44  1  6
  9 45  1  0
 10 46  1  0
 10 47  1  0
 14 48  1  0
 14 49  1  0
 15 50  1  0
 19 51  1  0
 20 52  1  0
 22 53  1  0
 25 54  1  0
 26 55  1  0
 30 56  1  0
 31 57  1  0
 34 58  1  0
 35 59  1  0
M  END
>  <UniqueID>  (56) 
82

>  <SMILES>  (56) 
C[C@@H](NC(=O)[C@@H]1C[C@@H](O)CN1C(=O)CNC(=O)c1ccc2cc(F)ccc2n1)c1ccc(Cl)cc1

>  <Energy>  (56) 
60.14141454719763

>  <Genealogy>  (56) 
C[C@@H](NC(=O)[C@@H]1C[C@@H](O)CN1C(=O)CNC(=O)c1ccc2cc(F)ccc2n1)c1ccc(Cl)cc1 (3D coordinates assigned)
C[C@@H](NC(=O)[C@@H]1C[C@@H](O)CN1C(=O)CNC(=O)c1ccc2cc(F)ccc2n1)c1ccc(Cl)cc1 (nonaromatic ring conformer: 60.14141454719763 kcal/mol)

>  <smiles>  (56) 
C[C@@H](NC(=O)[C@@H]1C[C@@H](O)CN1C(=O)CNC(=O)c1ccc2cc(F)ccc2n1)c1ccc(Cl)cc1

>  <score_type>  (56) 
oracle

>  <origin>  (56) 
autodockgpu

>  <m_score__min__energy>  (56) 
-9.9100000000000001

>  <m_primary>  (56) 
energy

>  <meeko>  (56) 
{"free_energy": -6.79, "intermolecular_energy": -9.18, "internal_energy": -4.12, "cluster_size": 1, "cluster_id": 5, "rank_in_cluster": 1}

>  <energy>  (56) 
-6.94

>  <cluster_rmsd>  (56) 
1.48

>  <rmsd>  (56) 
269.84

>  <cluster>  (56) 
4

$$$$
JDBMCWJIJNWNRF-OEQCPPMUNA-N
     RDKit          3D

 59 62  0  0  0  0  0  0  0  0999 V2000
  142.9410   78.1910  217.6410 C   0  0  0  0  0  0  0  0  0  0  0  0
  141.8590   77.8230  218.6640 C   0  0  1  0  0  0  0  0  0  0  0  0
  142.4020   76.8950  219.6600 N   0  0  0  0  0  0  0  0  0  0  0  0
  142.7320   75.5290  219.3570 C   0  0  0  0  0  0  0  0  0  0  0  0
  142.5920   75.0860  218.1860 O   0  0  0  0  0  0  0  0  0  0  0  0
  143.2170   74.5940  220.4360 C   0  0  2  0  0  0  0  0  0  0  0  0
  144.7460   74.5190  220.4480 C   0  0  0  0  0  0  0  0  0  0  0  0
  145.0980   73.1950  219.7600 C   0  0  1  0  0  0  0  0  0  0  0  0
  146.2450   72.5960  220.3080 O   0  0  0  0  0  0  0  0  0  0  0  0
  143.8570   72.3150  219.8960 C   0  0  0  0  0  0  0  0  0  0  0  0
  142.7620   73.2250  220.1990 N   0  0  0  0  0  0  0  0  0  0  0  0
  141.3980   72.7670  220.3100 C   0  0  0  0  0  0  0  0  0  0  0  0
  140.8950   72.0880  219.3710 O   0  0  0  0  0  0  0  0  0  0  0  0
  140.5390   73.0870  221.5030 C   0  0  0  0  0  0  0  0  0  0  0  0
  140.7590   74.4580  221.9520 N   0  0  0  0  0  0  0  0  0  0  0  0
  139.7540   75.4770  221.8280 C   0  0  0  0  0  0  0  0  0  0  0  0
  138.6590   75.2100  221.2610 O   0  0  0  0  0  0  0  0  0  0  0  0
  139.9960   76.8350  222.3610 C   0  0  0  0  0  0  0  0  0  0  0  0
  138.9360   77.6190  222.8530 C   0  0  0  0  0  0  0  0  0  0  0  0
  139.1930   78.9010  223.3470 C   0  0  0  0  0  0  0  0  0  0  0  0
  140.5020   79.3960  223.3540 C   0  0  0  0  0  0  0  0  0  0  0  0
  140.7960   80.6800  223.8410 C   0  0  0  0  0  0  0  0  0  0  0  0
  142.1160   81.1440  223.8340 C   0  0  0  0  0  0  0  0  0  0  0  0
  142.4000   82.3860  224.3000 F   0  0  0  0  0  0  0  0  0  0  0  0
  143.1460   80.3310  223.3440 C   0  0  0  0  0  0  0  0  0  0  0  0
  142.8610   79.0500  222.8580 C   0  0  0  0  0  0  0  0  0  0  0  0
  141.5430   78.5790  222.8590 C   0  0  0  0  0  0  0  0  0  0  0  0
  141.2610   77.3360  222.3810 N   0  0  0  0  0  0  0  0  0  0  0  0
  141.3110   79.0550  219.3560 C   0  0  0  0  0  0  0  0  0  0  0  0
  139.9470   79.1470  219.6990 C   0  0  0  0  0  0  0  0  0  0  0  0
  139.4520   80.2890  220.3370 C   0  0  0  0  0  0  0  0  0  0  0  0
  140.3100   81.3550  220.6290 C   0  0  0  0  0  0  0  0  0  0  0  0
  139.6920   82.7840  221.4340 Cl  0  0  0  0  0  0  0  0  0  0  0  0
  141.6620   81.2790  220.2820 C   0  0  0  0  0  0  0  0  0  0  0  0
  142.1620   80.1360  219.6480 C   0  0  0  0  0  0  0  0  0  0  0  0
  143.8545   78.5017  218.1692 H   0  0  0  0  0  0  0  0  0  0  0  0
  143.1614   77.3173  217.0101 H   0  0  0  0  0  0  0  0  0  0  0  0
  142.5830   79.0179  217.0101 H   0  0  0  0  0  0  0  0  0  0  0  0
  141.0337   77.3382  218.1219 H   0  0  0  0  0  0  0  0  0  0  0  0
  142.5030   77.2320  220.6440 H   0  0  0  0  0  0  0  0  0  0  0  0
  142.8192   74.9911  221.3816 H   0  0  0  0  0  0  0  0  0  0  0  0
  145.1766   75.3662  219.8940 H   0  0  0  0  0  0  0  0  0  0  0  0
  145.1483   74.5664  221.4707 H   0  0  0  0  0  0  0  0  0  0  0  0
  145.3555   73.3532  218.7023 H   0  0  0  0  0  0  0  0  0  0  0  0
  145.9480   71.8900  220.9450 H   0  0  0  0  0  0  0  0  0  0  0  0
  143.6616   71.7791  218.9555 H   0  0  0  0  0  0  0  0  0  0  0  0
  143.9821   71.5540  220.6803 H   0  0  0  0  0  0  0  0  0  0  0  0
  139.4810   72.9637  221.2282 H   0  0  0  0  0  0  0  0  0  0  0  0
  140.8063   72.4025  222.3216 H   0  0  0  0  0  0  0  0  0  0  0  0
  141.7020   74.7050  222.3280 H   0  0  0  0  0  0  0  0  0  0  0  0
  137.9092   77.2245  222.8488 H   0  0  0  0  0  0  0  0  0  0  0  0
  138.3679   79.5197  223.7296 H   0  0  0  0  0  0  0  0  0  0  0  0
  139.9894   81.3203  224.2276 H   0  0  0  0  0  0  0  0  0  0  0  0
  144.1820   80.7006  223.3412 H   0  0  0  0  0  0  0  0  0  0  0  0
  143.6725   78.4135  222.4754 H   0  0  0  0  0  0  0  0  0  0  0  0
  139.2672   78.3150  219.4633 H   0  0  0  0  0  0  0  0  0  0  0  0
  138.3879   80.3491  220.6093 H   0  0  0  0  0  0  0  0  0  0  0  0
  142.3345   82.1197  220.5078 H   0  0  0  0  0  0  0  0  0  0  0  0
  143.2266   80.0827  219.3765 H   0  0  0  0  0  0  0  0  0  0  0  0
  1  2  1  0
  2  3  1  0
  3  4  1  0
  4  5  2  0
  4  6  1  0
  6  7  1  0
  7  8  1  0
  8  9  1  0
  8 10  1  0
 10 11  1  0
 11 12  1  0
 12 13  2  0
 12 14  1  0
 14 15  1  0
 15 16  1  0
 16 17  2  0
 16 18  1  0
 18 19  2  0
 19 20  1  0
 20 21  2  0
 21 22  1  0
 22 23  2  0
 23 24  1  0
 23 25  1  0
 25 26  2  0
 26 27  1  0
 27 28  2  0
  2 29  1  0
 29 30  2  0
 30 31  1  0
 31 32  2  0
 32 33  1  0
 32 34  1  0
 34 35  2  0
 11  6  1  0
 28 18  1  0
 35 29  1  0
 27 21  1  0
  1 36  1  0
  1 37  1  0
  1 38  1  0
  2 39  1  6
  3 40  1  0
  6 41  1  1
  7 42  1  0
  7 43  1  0
  8 44  1  6
  9 45  1  0
 10 46  1  0
 10 47  1  0
 14 48  1  0
 14 49  1  0
 15 50  1  0
 19 51  1  0
 20 52  1  0
 22 53  1  0
 25 54  1  0
 26 55  1  0
 30 56  1  0
 31 57  1  0
 34 58  1  0
 35 59  1  0
M  END
>  <UniqueID>  (57) 
82

>  <SMILES>  (57) 
C[C@@H](NC(=O)[C@@H]1C[C@@H](O)CN1C(=O)CNC(=O)c1ccc2cc(F)ccc2n1)c1ccc(Cl)cc1

>  <Energy>  (57) 
60.14141454719763

>  <Genealogy>  (57) 
C[C@@H](NC(=O)[C@@H]1C[C@@H](O)CN1C(=O)CNC(=O)c1ccc2cc(F)ccc2n1)c1ccc(Cl)cc1 (3D coordinates assigned)
C[C@@H](NC(=O)[C@@H]1C[C@@H](O)CN1C(=O)CNC(=O)c1ccc2cc(F)ccc2n1)c1ccc(Cl)cc1 (nonaromatic ring conformer: 60.14141454719763 kcal/mol)

>  <smiles>  (57) 
C[C@@H](NC(=O)[C@@H]1C[C@@H](O)CN1C(=O)CNC(=O)c1ccc2cc(F)ccc2n1)c1ccc(Cl)cc1

>  <score_type>  (57) 
oracle

>  <origin>  (57) 
autodockgpu

>  <m_score__min__energy>  (57) 
-9.9100000000000001

>  <m_primary>  (57) 
energy

>  <meeko>  (57) 
{"free_energy": -7.31, "intermolecular_energy": -9.69, "internal_energy": -4.5, "cluster_size": 15, "cluster_id": 4, "rank_in_cluster": 10}

>  <energy>  (57) 
-6.71

>  <cluster_rmsd>  (57) 
1.12

>  <rmsd>  (57) 
270.47

>  <cluster>  (57) 
4

$$$$
JDBMCWJIJNWNRF-OEQCPPMUNA-N
     RDKit          3D

 59 62  0  0  0  0  0  0  0  0999 V2000
  141.2700   77.3440  218.6710 C   0  0  0  0  0  0  0  0  0  0  0  0
  140.7830   76.9660  220.0760 C   0  0  1  0  0  0  0  0  0  0  0  0
  141.2670   75.6300  220.4340 N   0  0  0  0  0  0  0  0  0  0  0  0
  142.6280   75.2110  220.2300 C   0  0  0  0  0  0  0  0  0  0  0  0
  143.4750   76.0140  219.7560 O   0  0  0  0  0  0  0  0  0  0  0  0
  143.0580   73.8020  220.5470 C   0  0  2  0  0  0  0  0  0  0  0  0
  144.5590   73.7400  220.8430 C   0  0  0  0  0  0  0  0  0  0  0  0
  145.2060   73.1790  219.5720 C   0  0  1  0  0  0  0  0  0  0  0  0
  146.3210   72.3700  219.8510 O   0  0  0  0  0  0  0  0  0  0  0  0
  144.0980   72.4180  218.8450 C   0  0  0  0  0  0  0  0  0  0  0  0
  142.8490   72.9120  219.4060 N   0  0  0  0  0  0  0  0  0  0  0  0
  141.5660   72.4880  218.9000 C   0  0  0  0  0  0  0  0  0  0  0  0
  141.5010   71.9200  217.7740 O   0  0  0  0  0  0  0  0  0  0  0  0
  140.2880   72.7180  219.6610 C   0  0  0  0  0  0  0  0  0  0  0  0
  140.2310   71.8740  220.8510 N   0  0  0  0  0  0  0  0  0  0  0  0
  140.2180   72.4210  222.1800 C   0  0  0  0  0  0  0  0  0  0  0  0
  140.3170   73.6680  222.3440 O   0  0  0  0  0  0  0  0  0  0  0  0
  140.0880   71.5310  223.3540 C   0  0  0  0  0  0  0  0  0  0  0  0
  139.4420   70.2860  223.2510 C   0  0  0  0  0  0  0  0  0  0  0  0
  139.3310   69.4670  224.3770 C   0  0  0  0  0  0  0  0  0  0  0  0
  139.8640   69.8880  225.6010 C   0  0  0  0  0  0  0  0  0  0  0  0
  139.7680   69.0920  226.7540 C   0  0  0  0  0  0  0  0  0  0  0  0
  140.3140   69.5430  227.9610 C   0  0  0  0  0  0  0  0  0  0  0  0
  140.2170   68.7760  229.0770 F   0  0  0  0  0  0  0  0  0  0  0  0
  140.9570   70.7850  228.0230 C   0  0  0  0  0  0  0  0  0  0  0  0
  141.0580   71.5830  226.8780 C   0  0  0  0  0  0  0  0  0  0  0  0
  140.5130   71.1420  225.6670 C   0  0  0  0  0  0  0  0  0  0  0  0
  140.6030   71.9180  224.5530 N   0  0  0  0  0  0  0  0  0  0  0  0
  141.2430   77.9730  221.1100 C   0  0  0  0  0  0  0  0  0  0  0  0
  141.1400   77.6970  222.4880 C   0  0  0  0  0  0  0  0  0  0  0  0
  141.5670   78.6340  223.4330 C   0  0  0  0  0  0  0  0  0  0  0  0
  142.0940   79.8600  223.0140 C   0  0  0  0  0  0  0  0  0  0  0  0
  142.6360   81.0340  224.1990 Cl  0  0  0  0  0  0  0  0  0  0  0  0
  142.1900   80.1510  221.6500 C   0  0  0  0  0  0  0  0  0  0  0  0
  141.7680   79.2130  220.7020 C   0  0  0  0  0  0  0  0  0  0  0  0
  142.1366   78.0166  218.7519 H   0  0  0  0  0  0  0  0  0  0  0  0
  141.5620   76.4337  218.1269 H   0  0  0  0  0  0  0  0  0  0  0  0
  140.4606   77.8527  218.1269 H   0  0  0  0  0  0  0  0  0  0  0  0
  139.6831   76.9667  220.0631 H   0  0  0  0  0  0  0  0  0  0  0  0
  140.5780   74.9390  220.8050 H   0  0  0  0  0  0  0  0  0  0  0  0
  142.4575   73.4910  221.4146 H   0  0  0  0  0  0  0  0  0  0  0  0
  144.9493   74.7450  221.0613 H   0  0  0  0  0  0  0  0  0  0  0  0
  144.7756   73.1136  221.7209 H   0  0  0  0  0  0  0  0  0  0  0  0
  145.6095   73.9857  218.9425 H   0  0  0  0  0  0  0  0  0  0  0  0
  146.1420   71.8830  220.7010 H   0  0  0  0  0  0  0  0  0  0  0  0
  144.1395   72.6193  217.7644 H   0  0  0  0  0  0  0  0  0  0  0  0
  144.1996   71.3304  218.9742 H   0  0  0  0  0  0  0  0  0  0  0  0
  140.2351   73.7737  219.9654 H   0  0  0  0  0  0  0  0  0  0  0  0
  139.4398   72.4633  219.0086 H   0  0  0  0  0  0  0  0  0  0  0  0
  140.2530   70.8380  220.7190 H   0  0  0  0  0  0  0  0  0  0  0  0
  139.0256   69.9584  222.2870 H   0  0  0  0  0  0  0  0  0  0  0  0
  138.8256   68.4929  224.3021 H   0  0  0  0  0  0  0  0  0  0  0  0
  139.2643   68.1152  226.7084 H   0  0  0  0  0  0  0  0  0  0  0  0
  141.3841   71.1346  228.9745 H   0  0  0  0  0  0  0  0  0  0  0  0
  141.5660   72.5573  226.9299 H   0  0  0  0  0  0  0  0  0  0  0  0
  140.7203   76.7368  222.8225 H   0  0  0  0  0  0  0  0  0  0  0  0
  141.4886   78.4072  224.5065 H   0  0  0  0  0  0  0  0  0  0  0  0
  142.5978   81.1185  221.3219 H   0  0  0  0  0  0  0  0  0  0  0  0
  141.8472   79.4464  219.6300 H   0  0  0  0  0  0  0  0  0  0  0  0
  1  2  1  0
  2  3  1  0
  3  4  1  0
  4  5  2  0
  4  6  1  0
  6  7  1  0
  7  8  1  0
  8  9  1  0
  8 10  1  0
 10 11  1  0
 11 12  1  0
 12 13  2  0
 12 14  1  0
 14 15  1  0
 15 16  1  0
 16 17  2  0
 16 18  1  0
 18 19  2  0
 19 20  1  0
 20 21  2  0
 21 22  1  0
 22 23  2  0
 23 24  1  0
 23 25  1  0
 25 26  2  0
 26 27  1  0
 27 28  2  0
  2 29  1  0
 29 30  2  0
 30 31  1  0
 31 32  2  0
 32 33  1  0
 32 34  1  0
 34 35  2  0
 11  6  1  0
 28 18  1  0
 35 29  1  0
 27 21  1  0
  1 36  1  0
  1 37  1  0
  1 38  1  0
  2 39  1  6
  3 40  1  0
  6 41  1  1
  7 42  1  0
  7 43  1  0
  8 44  1  6
  9 45  1  0
 10 46  1  0
 10 47  1  0
 14 48  1  0
 14 49  1  0
 15 50  1  0
 19 51  1  0
 20 52  1  0
 22 53  1  0
 25 54  1  0
 26 55  1  0
 30 56  1  0
 31 57  1  0
 34 58  1  0
 35 59  1  0
M  END
>  <UniqueID>  (58) 
82

>  <SMILES>  (58) 
C[C@@H](NC(=O)[C@@H]1C[C@@H](O)CN1C(=O)CNC(=O)c1ccc2cc(F)ccc2n1)c1ccc(Cl)cc1

>  <Energy>  (58) 
60.14141454719763

>  <Genealogy>  (58) 
C[C@@H](NC(=O)[C@@H]1C[C@@H](O)CN1C(=O)CNC(=O)c1ccc2cc(F)ccc2n1)c1ccc(Cl)cc1 (3D coordinates assigned)
C[C@@H](NC(=O)[C@@H]1C[C@@H](O)CN1C(=O)CNC(=O)c1ccc2cc(F)ccc2n1)c1ccc(Cl)cc1 (nonaromatic ring conformer: 60.14141454719763 kcal/mol)

>  <smiles>  (58) 
C[C@@H](NC(=O)[C@@H]1C[C@@H](O)CN1C(=O)CNC(=O)c1ccc2cc(F)ccc2n1)c1ccc(Cl)cc1

>  <score_type>  (58) 
oracle

>  <origin>  (58) 
autodockgpu

>  <m_score__min__energy>  (58) 
-9.9100000000000001

>  <m_primary>  (58) 
energy

>  <meeko>  (58) 
{"free_energy": -9.91, "intermolecular_energy": -12.29, "internal_energy": -2.6, "cluster_size": 2, "cluster_id": 1, "rank_in_cluster": 1}

>  <energy>  (58) 
-6.68

>  <cluster_rmsd>  (58) 
1.13

>  <rmsd>  (58) 
270.48

>  <cluster>  (58) 
4

$$$$
JDBMCWJIJNWNRF-OEQCPPMUNA-N
     RDKit          3D

 59 62  0  0  0  0  0  0  0  0999 V2000
  142.9510   78.1490  217.6410 C   0  0  0  0  0  0  0  0  0  0  0  0
  141.8600   77.8030  218.6630 C   0  0  1  0  0  0  0  0  0  0  0  0
  142.3860   76.8740  219.6670 N   0  0  0  0  0  0  0  0  0  0  0  0
  142.8470   75.5510  219.3420 C   0  0  0  0  0  0  0  0  0  0  0  0
  142.8440   75.1530  218.1470 O   0  0  0  0  0  0  0  0  0  0  0  0
  143.3100   74.6070  220.4220 C   0  0  2  0  0  0  0  0  0  0  0  0
  144.8380   74.5150  220.4510 C   0  0  0  0  0  0  0  0  0  0  0  0
  145.1820   73.1890  219.7640 C   0  0  1  0  0  0  0  0  0  0  0  0
  146.3150   72.5740  220.3220 O   0  0  0  0  0  0  0  0  0  0  0  0
  143.9280   72.3230  219.8830 C   0  0  0  0  0  0  0  0  0  0  0  0
  142.8410   73.2450  220.1770 N   0  0  0  0  0  0  0  0  0  0  0  0
  141.4710   72.8020  220.2700 C   0  0  0  0  0  0  0  0  0  0  0  0
  140.9770   72.1130  219.3340 O   0  0  0  0  0  0  0  0  0  0  0  0
  140.5940   73.1510  221.4430 C   0  0  0  0  0  0  0  0  0  0  0  0
  140.8240   74.5260  221.8760 N   0  0  0  0  0  0  0  0  0  0  0  0
  139.7800   75.5120  221.8860 C   0  0  0  0  0  0  0  0  0  0  0  0
  138.6320   75.2140  221.4540 O   0  0  0  0  0  0  0  0  0  0  0  0
  140.0420   76.8740  222.3990 C   0  0  0  0  0  0  0  0  0  0  0  0
  138.9930   77.6870  222.8660 C   0  0  0  0  0  0  0  0  0  0  0  0
  139.2690   78.9710  223.3420 C   0  0  0  0  0  0  0  0  0  0  0  0
  140.5870   79.4410  223.3560 C   0  0  0  0  0  0  0  0  0  0  0  0
  140.9010   80.7270  223.8250 C   0  0  0  0  0  0  0  0  0  0  0  0
  142.2300   81.1650  223.8260 C   0  0  0  0  0  0  0  0  0  0  0  0
  142.5330   82.4090  224.2750 F   0  0  0  0  0  0  0  0  0  0  0  0
  143.2490   80.3240  223.3620 C   0  0  0  0  0  0  0  0  0  0  0  0
  142.9440   79.0410  222.8930 C   0  0  0  0  0  0  0  0  0  0  0  0
  141.6180   78.5960  222.8860 C   0  0  0  0  0  0  0  0  0  0  0  0
  141.3170   77.3510  222.4260 N   0  0  0  0  0  0  0  0  0  0  0  0
  141.3270   79.0470  219.3440 C   0  0  0  0  0  0  0  0  0  0  0  0
  139.9640   79.1590  219.6860 C   0  0  0  0  0  0  0  0  0  0  0  0
  139.4830   80.3110  220.3150 C   0  0  0  0  0  0  0  0  0  0  0  0
  140.3540   81.3690  220.5990 C   0  0  0  0  0  0  0  0  0  0  0  0
  139.7530   82.8120  221.3920 Cl  0  0  0  0  0  0  0  0  0  0  0  0
  141.7050   81.2740  220.2520 C   0  0  0  0  0  0  0  0  0  0  0  0
  142.1910   80.1200  219.6280 C   0  0  0  0  0  0  0  0  0  0  0  0
  143.8701   78.4405  218.1704 H   0  0  0  0  0  0  0  0  0  0  0  0
  143.1540   77.2712  217.0100 H   0  0  0  0  0  0  0  0  0  0  0  0
  142.6110   78.9834  217.0100 H   0  0  0  0  0  0  0  0  0  0  0  0
  141.0299   77.3260  218.1214 H   0  0  0  0  0  0  0  0  0  0  0  0
  142.3740   77.1720  220.6680 H   0  0  0  0  0  0  0  0  0  0  0  0
  142.9070   75.0057  221.3647 H   0  0  0  0  0  0  0  0  0  0  0  0
  145.2843   75.3585  219.9038 H   0  0  0  0  0  0  0  0  0  0  0  0
  145.2296   74.5559  221.4781 H   0  0  0  0  0  0  0  0  0  0  0  0
  145.4540   73.3478  218.7101 H   0  0  0  0  0  0  0  0  0  0  0  0
  146.0030   71.8950  220.9800 H   0  0  0  0  0  0  0  0  0  0  0  0
  143.7367   71.7928  218.9384 H   0  0  0  0  0  0  0  0  0  0  0  0
  144.0351   71.5577  220.6659 H   0  0  0  0  0  0  0  0  0  0  0  0
  139.5397   73.0374  221.1505 H   0  0  0  0  0  0  0  0  0  0  0  0
  140.8372   72.4753  222.2763 H   0  0  0  0  0  0  0  0  0  0  0  0
  141.7970   74.8010  222.1360 H   0  0  0  0  0  0  0  0  0  0  0  0
  137.9587   77.3127  222.8563 H   0  0  0  0  0  0  0  0  0  0  0  0
  138.4517   79.6115  223.7052 H   0  0  0  0  0  0  0  0  0  0  0  0
  140.1028   81.3894  224.1913 H   0  0  0  0  0  0  0  0  0  0  0  0
  144.2922   80.6727  223.3661 H   0  0  0  0  0  0  0  0  0  0  0  0
  143.7470   78.3827  222.5300 H   0  0  0  0  0  0  0  0  0  0  0  0
  139.2739   78.3338  219.4562 H   0  0  0  0  0  0  0  0  0  0  0  0
  138.4197   80.3859  220.5868 H   0  0  0  0  0  0  0  0  0  0  0  0
  142.3875   82.1086  220.4701 H   0  0  0  0  0  0  0  0  0  0  0  0
  143.2551   80.0514  219.3579 H   0  0  0  0  0  0  0  0  0  0  0  0
  1  2  1  0
  2  3  1  0
  3  4  1  0
  4  5  2  0
  4  6  1  0
  6  7  1  0
  7  8  1  0
  8  9  1  0
  8 10  1  0
 10 11  1  0
 11 12  1  0
 12 13  2  0
 12 14  1  0
 14 15  1  0
 15 16  1  0
 16 17  2  0
 16 18  1  0
 18 19  2  0
 19 20  1  0
 20 21  2  0
 21 22  1  0
 22 23  2  0
 23 24  1  0
 23 25  1  0
 25 26  2  0
 26 27  1  0
 27 28  2  0
  2 29  1  0
 29 30  2  0
 30 31  1  0
 31 32  2  0
 32 33  1  0
 32 34  1  0
 34 35  2  0
 11  6  1  0
 28 18  1  0
 35 29  1  0
 27 21  1  0
  1 36  1  0
  1 37  1  0
  1 38  1  0
  2 39  1  6
  3 40  1  0
  6 41  1  1
  7 42  1  0
  7 43  1  0
  8 44  1  6
  9 45  1  0
 10 46  1  0
 10 47  1  0
 14 48  1  0
 14 49  1  0
 15 50  1  0
 19 51  1  0
 20 52  1  0
 22 53  1  0
 25 54  1  0
 26 55  1  0
 30 56  1  0
 31 57  1  0
 34 58  1  0
 35 59  1  0
M  END
>  <UniqueID>  (59) 
82

>  <SMILES>  (59) 
C[C@@H](NC(=O)[C@@H]1C[C@@H](O)CN1C(=O)CNC(=O)c1ccc2cc(F)ccc2n1)c1ccc(Cl)cc1

>  <Energy>  (59) 
60.14141454719763

>  <Genealogy>  (59) 
C[C@@H](NC(=O)[C@@H]1C[C@@H](O)CN1C(=O)CNC(=O)c1ccc2cc(F)ccc2n1)c1ccc(Cl)cc1 (3D coordinates assigned)
C[C@@H](NC(=O)[C@@H]1C[C@@H](O)CN1C(=O)CNC(=O)c1ccc2cc(F)ccc2n1)c1ccc(Cl)cc1 (nonaromatic ring conformer: 60.14141454719763 kcal/mol)

>  <smiles>  (59) 
C[C@@H](NC(=O)[C@@H]1C[C@@H](O)CN1C(=O)CNC(=O)c1ccc2cc(F)ccc2n1)c1ccc(Cl)cc1

>  <score_type>  (59) 
oracle

>  <origin>  (59) 
autodockgpu

>  <m_score__min__energy>  (59) 
-9.9100000000000001

>  <m_primary>  (59) 
energy

>  <meeko>  (59) 
{"free_energy": -7.36, "intermolecular_energy": -9.75, "internal_energy": -4.49, "cluster_size": 15, "cluster_id": 4, "rank_in_cluster": 7}

>  <energy>  (59) 
-6.61

>  <cluster_rmsd>  (59) 
1.96

>  <rmsd>  (59) 
270.43

>  <cluster>  (59) 
4

$$$$
JDBMCWJIJNWNRF-OEQCPPMUNA-N
     RDKit          3D

 59 62  0  0  0  0  0  0  0  0999 V2000
  142.6370   76.8550  216.7120 C   0  0  0  0  0  0  0  0  0  0  0  0
  141.5280   76.7400  217.7660 C   0  0  1  0  0  0  0  0  0  0  0  0
  141.8570   75.6860  218.7300 N   0  0  0  0  0  0  0  0  0  0  0  0
  143.0880   75.6640  219.4750 C   0  0  0  0  0  0  0  0  0  0  0  0
  143.9270   76.5940  219.3410 O   0  0  0  0  0  0  0  0  0  0  0  0
  143.4110   74.5190  220.3990 C   0  0  2  0  0  0  0  0  0  0  0  0
  144.9210   74.2750  220.4630 C   0  0  0  0  0  0  0  0  0  0  0  0
  145.1780   73.0510  219.5780 C   0  0  1  0  0  0  0  0  0  0  0  0
  146.2230   72.2470  220.0650 O   0  0  0  0  0  0  0  0  0  0  0  0
  143.8470   72.3020  219.5100 C   0  0  0  0  0  0  0  0  0  0  0  0
  142.8340   73.2650  219.9160 N   0  0  0  0  0  0  0  0  0  0  0  0
  141.4260   72.9470  219.8890 C   0  0  0  0  0  0  0  0  0  0  0  0
  140.8980   72.5660  218.8080 O   0  0  0  0  0  0  0  0  0  0  0  0
  140.5530   73.0730  221.1090 C   0  0  0  0  0  0  0  0  0  0  0  0
  140.7090   74.3850  221.7290 N   0  0  0  0  0  0  0  0  0  0  0  0
  140.1020   75.5690  221.1860 C   0  0  0  0  0  0  0  0  0  0  0  0
  139.4560   75.5010  220.1050 O   0  0  0  0  0  0  0  0  0  0  0  0
  140.2290   76.8640  221.8880 C   0  0  0  0  0  0  0  0  0  0  0  0
  139.1060   77.4940  222.4550 C   0  0  0  0  0  0  0  0  0  0  0  0
  139.2540   78.7200  223.1090 C   0  0  0  0  0  0  0  0  0  0  0  0
  140.5190   79.3130  223.2000 C   0  0  0  0  0  0  0  0  0  0  0  0
  140.7040   80.5450  223.8470 C   0  0  0  0  0  0  0  0  0  0  0  0
  141.9820   81.1100  223.9210 C   0  0  0  0  0  0  0  0  0  0  0  0
  142.1610   82.3020  224.5430 F   0  0  0  0  0  0  0  0  0  0  0  0
  143.0780   80.4480  223.3530 C   0  0  0  0  0  0  0  0  0  0  0  0
  142.9010   79.2200  222.7060 C   0  0  0  0  0  0  0  0  0  0  0  0
  141.6260   78.6490  222.6250 C   0  0  0  0  0  0  0  0  0  0  0  0
  141.4490   77.4580  221.9930 N   0  0  0  0  0  0  0  0  0  0  0  0
  141.3190   78.0530  218.4920 C   0  0  0  0  0  0  0  0  0  0  0  0
  140.0640   78.3860  219.0410 C   0  0  0  0  0  0  0  0  0  0  0  0
  139.8820   79.6010  219.7090 C   0  0  0  0  0  0  0  0  0  0  0  0
  140.9460   80.5000  219.8280 C   0  0  0  0  0  0  0  0  0  0  0  0
  140.7210   82.0210  220.6710 Cl  0  0  0  0  0  0  0  0  0  0  0  0
  142.1920   80.1860  219.2770 C   0  0  0  0  0  0  0  0  0  0  0  0
  142.3790   78.9700  218.6120 C   0  0  0  0  0  0  0  0  0  0  0  0
  143.6107   76.9560  217.2138 H   0  0  0  0  0  0  0  0  0  0  0  0
  142.6403   75.9524  216.0833 H   0  0  0  0  0  0  0  0  0  0  0  0
  142.4551   77.7391  216.0833 H   0  0  0  0  0  0  0  0  0  0  0  0
  140.5932   76.4829  217.2463 H   0  0  0  0  0  0  0  0  0  0  0  0
  141.1880   74.8920  218.8390 H   0  0  0  0  0  0  0  0  0  0  0  0
  143.0003   74.7984  221.3805 H   0  0  0  0  0  0  0  0  0  0  0  0
  145.4678   75.1486  220.0785 H   0  0  0  0  0  0  0  0  0  0  0  0
  145.2635   74.1103  221.4953 H   0  0  0  0  0  0  0  0  0  0  0  0
  145.5144   73.3511  218.5746 H   0  0  0  0  0  0  0  0  0  0  0  0
  145.9500   71.8960  220.9550 H   0  0  0  0  0  0  0  0  0  0  0  0
  143.6552   71.9524  218.4848 H   0  0  0  0  0  0  0  0  0  0  0  0
  143.8467   71.4135  220.1585 H   0  0  0  0  0  0  0  0  0  0  0  0
  139.5018   72.9365  220.8151 H   0  0  0  0  0  0  0  0  0  0  0  0
  140.8523   72.3035  221.8358 H   0  0  0  0  0  0  0  0  0  0  0  0
  141.3280   74.4600  222.5670 H   0  0  0  0  0  0  0  0  0  0  0  0
  138.1145   77.0229  222.3837 H   0  0  0  0  0  0  0  0  0  0  0  0
  138.3786   79.2180  223.5513 H   0  0  0  0  0  0  0  0  0  0  0  0
  139.8451   81.0657  224.2954 H   0  0  0  0  0  0  0  0  0  0  0  0
  144.0811   80.8950  223.4158 H   0  0  0  0  0  0  0  0  0  0  0  0
  143.7642   78.7034  222.2610 H   0  0  0  0  0  0  0  0  0  0  0  0
  139.2219   77.6851  218.9432 H   0  0  0  0  0  0  0  0  0  0  0  0
  138.9013   79.8494  220.1410 H   0  0  0  0  0  0  0  0  0  0  0  0
  143.0268   80.8967  219.3667 H   0  0  0  0  0  0  0  0  0  0  0  0
  143.3615   78.7290  218.1799 H   0  0  0  0  0  0  0  0  0  0  0  0
  1  2  1  0
  2  3  1  0
  3  4  1  0
  4  5  2  0
  4  6  1  0
  6  7  1  0
  7  8  1  0
  8  9  1  0
  8 10  1  0
 10 11  1  0
 11 12  1  0
 12 13  2  0
 12 14  1  0
 14 15  1  0
 15 16  1  0
 16 17  2  0
 16 18  1  0
 18 19  2  0
 19 20  1  0
 20 21  2  0
 21 22  1  0
 22 23  2  0
 23 24  1  0
 23 25  1  0
 25 26  2  0
 26 27  1  0
 27 28  2  0
  2 29  1  0
 29 30  2  0
 30 31  1  0
 31 32  2  0
 32 33  1  0
 32 34  1  0
 34 35  2  0
 11  6  1  0
 28 18  1  0
 35 29  1  0
 27 21  1  0
  1 36  1  0
  1 37  1  0
  1 38  1  0
  2 39  1  6
  3 40  1  0
  6 41  1  1
  7 42  1  0
  7 43  1  0
  8 44  1  6
  9 45  1  0
 10 46  1  0
 10 47  1  0
 14 48  1  0
 14 49  1  0
 15 50  1  0
 19 51  1  0
 20 52  1  0
 22 53  1  0
 25 54  1  0
 26 55  1  0
 30 56  1  0
 31 57  1  0
 34 58  1  0
 35 59  1  0
M  END
>  <UniqueID>  (60) 
82

>  <SMILES>  (60) 
C[C@@H](NC(=O)[C@@H]1C[C@@H](O)CN1C(=O)CNC(=O)c1ccc2cc(F)ccc2n1)c1ccc(Cl)cc1

>  <Energy>  (60) 
60.14141454719763

>  <Genealogy>  (60) 
C[C@@H](NC(=O)[C@@H]1C[C@@H](O)CN1C(=O)CNC(=O)c1ccc2cc(F)ccc2n1)c1ccc(Cl)cc1 (3D coordinates assigned)
C[C@@H](NC(=O)[C@@H]1C[C@@H](O)CN1C(=O)CNC(=O)c1ccc2cc(F)ccc2n1)c1ccc(Cl)cc1 (nonaromatic ring conformer: 60.14141454719763 kcal/mol)

>  <smiles>  (60) 
C[C@@H](NC(=O)[C@@H]1C[C@@H](O)CN1C(=O)CNC(=O)c1ccc2cc(F)ccc2n1)c1ccc(Cl)cc1

>  <score_type>  (60) 
oracle

>  <origin>  (60) 
autodockgpu

>  <m_score__min__energy>  (60) 
-9.9100000000000001

>  <m_primary>  (60) 
energy

>  <meeko>  (60) 
{"free_energy": -6.71, "intermolecular_energy": -9.09, "internal_energy": -5.0, "cluster_size": 15, "cluster_id": 4, "rank_in_cluster": 13}

>  <energy>  (60) 
-6.79

>  <cluster_rmsd>  (60) 
0.0

>  <rmsd>  (60) 
270.22

>  <cluster>  (60) 
5

$$$$
VISCJLQOHKTNMF-GXGKPUEPNA-O
     RDKit          3D

 60 63  0  0  0  0  0  0  0  0999 V2000
  139.1740   74.9840  223.4720 H   0  0  0  0  0  0  0  0  0  0  0  0
  138.7810   75.8250  223.0720 O   0  0  0  0  0  0  0  0  0  0  0  0
  138.9210   76.1950  221.7290 C   0  0  0  0  0  0  0  0  0  0  0  0
  137.9720   75.9510  220.8480 N   0  0  0  0  0  0  0  0  0  0  0  0
  137.7970   76.6890  219.6000 C   0  0  0  0  0  0  0  0  0  0  0  0
  138.7165   76.6419  218.9981 H   0  0  0  0  0  0  0  0  0  0  0  0
  137.5810   77.7505  219.7915 H   0  0  0  0  0  0  0  0  0  0  0  0
  136.6450   76.0150  218.8580 C   0  0  2  0  0  0  0  0  0  0  0  0
  137.0163   75.4029  218.0228 H   0  0  0  0  0  0  0  0  0  0  0  0
  135.7750   76.9590  218.2940 O   0  0  0  0  0  0  0  0  0  0  0  0
  136.2120   77.2800  217.4620 H   0  0  0  0  0  0  0  0  0  0  0  0
  135.9190   75.1750  219.9040 C   0  0  0  0  0  0  0  0  0  0  0  0
  135.5918   74.2194  219.4683 H   0  0  0  0  0  0  0  0  0  0  0  0
  135.0193   75.6845  220.2795 H   0  0  0  0  0  0  0  0  0  0  0  0
  136.9360   74.9310  221.0210 C   0  0  1  0  0  0  0  0  0  0  0  0
  136.4643   74.9995  222.0124 H   0  0  0  0  0  0  0  0  0  0  0  0
  137.5240   73.5440  220.9290 C   0  0  0  0  0  0  0  0  0  0  0  0
  137.2880   72.8440  219.9080 O   0  0  0  0  0  0  0  0  0  0  0  0
  138.3640   73.0320  221.9760 N   0  0  0  0  0  0  0  0  0  0  0  0
  138.5900   73.6590  222.7800 H   0  0  0  0  0  0  0  0  0  0  0  0
  138.8120   71.6340  222.0060 C   0  0  1  0  0  0  0  0  0  0  0  0
  139.6538   71.5189  221.3073 H   0  0  0  0  0  0  0  0  0  0  0  0
  139.2990   71.2580  223.3920 C   0  0  0  0  0  0  0  0  0  0  0  0
  138.6060   70.2970  224.1510 C   0  0  0  0  0  0  0  0  0  0  0  0
  137.7124   69.8108  223.7326 H   0  0  0  0  0  0  0  0  0  0  0  0
  139.0460   69.9560  225.4340 C   0  0  0  0  0  0  0  0  0  0  0  0
  138.5012   69.1995  226.0179 H   0  0  0  0  0  0  0  0  0  0  0  0
  140.1760   70.5740  225.9760 C   0  0  0  0  0  0  0  0  0  0  0  0
  140.7230   70.1470  227.5880 Cl  0  0  0  0  0  0  0  0  0  0  0  0
  140.8720   71.5310  225.2310 C   0  0  0  0  0  0  0  0  0  0  0  0
  141.7608   72.0191  225.6574 H   0  0  0  0  0  0  0  0  0  0  0  0
  140.4400   71.8680  223.9460 C   0  0  0  0  0  0  0  0  0  0  0  0
  140.9962   72.6163  223.3623 H   0  0  0  0  0  0  0  0  0  0  0  0
  137.6760   70.7060  221.5580 C   0  0  0  0  0  0  0  0  0  0  0  0
  137.1698   70.2925  222.4428 H   0  0  0  0  0  0  0  0  0  0  0  0
  136.9535   71.2755  220.9550 H   0  0  0  0  0  0  0  0  0  0  0  0
  138.0899   69.8844  220.9550 H   0  0  0  0  0  0  0  0  0  0  0  0
  140.2220   76.8660  221.3640 C   0  0  0  0  0  0  0  0  0  0  0  0
  140.0219   77.7130  220.6913 H   0  0  0  0  0  0  0  0  0  0  0  0
  140.7151   77.2320  222.2766 H   0  0  0  0  0  0  0  0  0  0  0  0
  141.0930   75.9040  220.6910 N   0  0  0  0  0  0  0  0  0  0  0  0
  141.6100   76.2290  219.8440 H   0  0  0  0  0  0  0  0  0  0  0  0
  141.3930   74.6170  221.2500 C   0  0  0  0  0  0  0  0  0  0  0  0
  140.6450   74.1300  222.1400 O   0  0  0  0  0  0  0  0  0  0  0  0
  142.5800   73.8630  220.7980 C   0  0  0  0  0  0  0  0  0  0  0  0
  142.4880   72.5160  220.6120 N   0  0  0  0  0  0  0  0  0  0  0  0
  143.5310   71.7760  220.1490 C   0  0  0  0  0  0  0  0  0  0  0  0
  143.3870   70.3960  219.9720 C   0  0  0  0  0  0  0  0  0  0  0  0
  142.4324   69.9067  220.2155 H   0  0  0  0  0  0  0  0  0  0  0  0
  144.4580   69.6380  219.4850 C   0  0  0  0  0  0  0  0  0  0  0  0
  144.3426   68.5530  219.3454 H   0  0  0  0  0  0  0  0  0  0  0  0
  145.6750   70.2550  219.1750 C   0  0  0  0  0  0  0  0  0  0  0  0
  146.7090   69.5150  218.7040 F   0  0  0  0  0  0  0  0  0  0  0  0
  145.8280   71.6370  219.3550 C   0  0  0  0  0  0  0  0  0  0  0  0
  146.7868   72.1204  219.1162 H   0  0  0  0  0  0  0  0  0  0  0  0
  144.7570   72.4030  219.8400 C   0  0  0  0  0  0  0  0  0  0  0  0
  144.8770   73.7860  220.0270 C   0  0  0  0  0  0  0  0  0  0  0  0
  145.8245   74.2939  219.7939 H   0  0  0  0  0  0  0  0  0  0  0  0
  143.7910   74.5180  220.5100 C   0  0  0  0  0  0  0  0  0  0  0  0
  143.8819   75.6032  220.6648 H   0  0  0  0  0  0  0  0  0  0  0  0
  1  2  1  0
  2  3  1  0
  3  4  2  0
  4  5  1  0
  5  6  1  0
  5  7  1  0
  5  8  1  0
  8  9  1  6
  8 10  1  0
 10 11  1  0
  8 12  1  0
 12 13  1  0
 12 14  1  0
 12 15  1  0
 15 16  1  1
 15 17  1  0
 17 18  2  0
 17 19  1  0
 19 20  1  0
 19 21  1  0
 21 22  1  6
 21 23  1  0
 23 24  2  0
 24 25  1  0
 24 26  1  0
 26 27  1  0
 26 28  2  0
 28 29  1  0
 28 30  1  0
 30 31  1  0
 30 32  2  0
 32 33  1  0
 21 34  1  0
 34 35  1  0
 34 36  1  0
 34 37  1  0
  3 38  1  0
 38 39  1  0
 38 40  1  0
 38 41  1  0
 41 42  1  0
 41 43  1  0
 43 44  2  0
 43 45  1  0
 45 46  2  0
 46 47  1  0
 47 48  2  0
 48 49  1  0
 48 50  1  0
 50 51  1  0
 50 52  2  0
 52 53  1  0
 52 54  1  0
 54 55  1  0
 54 56  2  0
 56 57  1  0
 57 58  1  0
 57 59  2  0
 59 60  1  0
 15  4  1  0
 32 23  1  0
 59 45  1  0
 56 47  1  0
M  CHG  1   4   1
M  END
>  <UniqueID>  (61) 
83

>  <SMILES>  (61) 
C[C@@H](NC(=O)[C@@H]1C[C@@H](O)C/[N+]1=C(/O)CNC(=O)c1ccc2cc(F)ccc2n1)c1ccc(Cl)cc1

>  <Energy>  (61) 
61.2501450166287

>  <Genealogy>  (61) 
C[C@@H](NC(=O)[C@@H]1C[C@@H](O)C[NH+]1C(=O)CNC(=O)c1ccc2cc(F)ccc2n1)c1ccc(Cl)cc1 (protonated)
C[C@@H](NC(=O)[C@@H]1C[C@@H](O)C[N+]1=C(O)CNC(=O)c1ccc2cc(F)ccc2n1)c1ccc(Cl)cc1 (tautomer)
C[C@@H](NC(=O)[C@@H]1C[C@@H](O)C/[N+]1=C(/O)CNC(=O)c1ccc2cc(F)ccc2n1)c1ccc(Cl)cc1 (cis-trans isomerization)
C[C@@H](NC(=O)[C@@H]1C[C@@H](O)C/[N+]1=C(/O)CNC(=O)c1ccc2cc(F)ccc2n1)c1ccc(Cl)cc1 (3D coordinates assigned)
C[C@@H](NC(=O)[C@@H]1C[C@@H](O)C/[N+]1=C(/O)CNC(=O)c1ccc2cc(F)ccc2n1)c1ccc(Cl)cc1 (nonaromatic ring conformer: 61.2501450166287 kcal/mol)

>  <smiles>  (61) 
C[C@@H](NC(=O)[C@@H]1C[C@@H](O)CN1C(=O)CNC(=O)c1ccc2cc(F)ccc2n1)c1ccc(Cl)cc1

>  <score_type>  (61) 
oracle

>  <origin>  (61) 
autodockgpu

>  <m_score__min__energy>  (61) 
-9.3499999999999996

>  <m_primary>  (61) 
energy

>  <meeko>  (61) 
{"free_energy": -6.62, "intermolecular_energy": -9.31, "internal_energy": -3.62, "cluster_size": 2, "cluster_id": 4, "rank_in_cluster": 2}

>  <energy>  (61) 
-9.35

>  <cluster_rmsd>  (61) 
0.0

>  <rmsd>  (61) 
271.99

>  <cluster>  (61) 
1

$$$$
VISCJLQOHKTNMF-GXGKPUEPNA-O
     RDKit          3D

 60 63  0  0  0  0  0  0  0  0999 V2000
  139.2060   73.6150  220.7910 H   0  0  0  0  0  0  0  0  0  0  0  0
  139.6080   73.7470  219.8730 O   0  0  0  0  0  0  0  0  0  0  0  0
  140.9530   73.5120  219.5640 C   0  0  0  0  0  0  0  0  0  0  0  0
  141.7260   74.4720  219.0970 N   0  0  0  0  0  0  0  0  0  0  0  0
  142.0680   74.6420  217.6870 C   0  0  0  0  0  0  0  0  0  0  0  0
  141.1539   74.7388  217.0828 H   0  0  0  0  0  0  0  0  0  0  0  0
  142.6267   73.7749  217.3048 H   0  0  0  0  0  0  0  0  0  0  0  0
  142.8990   75.9200  217.5960 C   0  0  2  0  0  0  0  0  0  0  0  0
  142.3074   76.7489  217.1802 H   0  0  0  0  0  0  0  0  0  0  0  0
  143.9990   75.7570  216.7410 O   0  0  0  0  0  0  0  0  0  0  0  0
  144.8090   75.9100  217.2960 H   0  0  0  0  0  0  0  0  0  0  0  0
  143.3650   76.2080  219.0200 C   0  0  0  0  0  0  0  0  0  0  0  0
  143.3417   77.2895  219.2195 H   0  0  0  0  0  0  0  0  0  0  0  0
  144.3992   75.8710  219.1840 H   0  0  0  0  0  0  0  0  0  0  0  0
  142.3820   75.4760  219.9350 C   0  0  1  0  0  0  0  0  0  0  0  0
  142.9004   75.0125  220.7873 H   0  0  0  0  0  0  0  0  0  0  0  0
  141.3710   76.4310  220.5240 C   0  0  0  0  0  0  0  0  0  0  0  0
  141.4340   77.6540  220.2210 O   0  0  0  0  0  0  0  0  0  0  0  0
  140.3340   75.9570  221.3970 N   0  0  0  0  0  0  0  0  0  0  0  0
  140.2730   74.9300  221.5800 H   0  0  0  0  0  0  0  0  0  0  0  0
  139.4430   76.8710  222.1220 C   0  0  1  0  0  0  0  0  0  0  0  0
  139.0202   76.3390  222.9870 H   0  0  0  0  0  0  0  0  0  0  0  0
  140.2140   78.0700  222.6410 C   0  0  0  0  0  0  0  0  0  0  0  0
  141.4440   77.8910  223.3000 C   0  0  0  0  0  0  0  0  0  0  0  0
  141.8521   76.8778  223.4298 H   0  0  0  0  0  0  0  0  0  0  0  0
  142.1510   78.9930  223.7910 C   0  0  0  0  0  0  0  0  0  0  0  0
  143.1135   78.8438  224.3022 H   0  0  0  0  0  0  0  0  0  0  0  0
  141.6380   80.2830  223.6340 C   0  0  0  0  0  0  0  0  0  0  0  0
  142.5260   81.6630  224.2540 Cl  0  0  0  0  0  0  0  0  0  0  0  0
  140.4150   80.4730  222.9810 C   0  0  0  0  0  0  0  0  0  0  0  0
  140.0090   81.4880  222.8588 H   0  0  0  0  0  0  0  0  0  0  0  0
  139.7090   79.3740  222.4840 C   0  0  0  0  0  0  0  0  0  0  0  0
  138.7511   79.5296  221.9660 H   0  0  0  0  0  0  0  0  0  0  0  0
  138.2910   77.3160  221.2130 C   0  0  0  0  0  0  0  0  0  0  0  0
  137.4421   77.6439  221.8309 H   0  0  0  0  0  0  0  0  0  0  0  0
  138.6259   78.1495  220.5780 H   0  0  0  0  0  0  0  0  0  0  0  0
  137.9786   76.4738  220.5780 H   0  0  0  0  0  0  0  0  0  0  0  0
  141.4420   72.1020  219.7830 C   0  0  0  0  0  0  0  0  0  0  0  0
  141.2655   71.5072  218.8747 H   0  0  0  0  0  0  0  0  0  0  0  0
  142.5189   72.1173  220.0069 H   0  0  0  0  0  0  0  0  0  0  0  0
  140.7190   71.5060  220.9040 N   0  0  0  0  0  0  0  0  0  0  0  0
  140.4060   70.5150  220.8070 H   0  0  0  0  0  0  0  0  0  0  0  0
  140.5910   72.1660  222.1730 C   0  0  0  0  0  0  0  0  0  0  0  0
  140.7730   73.4100  222.2550 O   0  0  0  0  0  0  0  0  0  0  0  0
  140.2580   71.3930  223.3870 C   0  0  0  0  0  0  0  0  0  0  0  0
  140.6860   71.8370  224.6030 N   0  0  0  0  0  0  0  0  0  0  0  0
  140.3690   71.1970  225.7610 C   0  0  0  0  0  0  0  0  0  0  0  0
  140.8290   71.6930  226.9850 C   0  0  0  0  0  0  0  0  0  0  0  0
  141.4552   72.5970  227.0117 H   0  0  0  0  0  0  0  0  0  0  0  0
  140.4930   71.0400  228.1750 C   0  0  0  0  0  0  0  0  0  0  0  0
  140.8547   71.4329  229.1367 H   0  0  0  0  0  0  0  0  0  0  0  0
  139.6980   69.8880  228.1470 C   0  0  0  0  0  0  0  0  0  0  0  0
  139.3750   69.2600  229.3040 F   0  0  0  0  0  0  0  0  0  0  0  0
  139.2370   69.3830  226.9240 C   0  0  0  0  0  0  0  0  0  0  0  0
  138.6157   68.4755  226.9028 H   0  0  0  0  0  0  0  0  0  0  0  0
  139.5680   70.0350  225.7260 C   0  0  0  0  0  0  0  0  0  0  0  0
  139.1210   69.5580  224.4880 C   0  0  0  0  0  0  0  0  0  0  0  0
  138.4972   68.6533  224.4390 H   0  0  0  0  0  0  0  0  0  0  0  0
  139.4680   70.2320  223.3160 C   0  0  0  0  0  0  0  0  0  0  0  0
  139.1248   69.8564  222.3407 H   0  0  0  0  0  0  0  0  0  0  0  0
  1  2  1  0
  2  3  1  0
  3  4  2  0
  4  5  1  0
  5  6  1  0
  5  7  1  0
  5  8  1  0
  8  9  1  6
  8 10  1  0
 10 11  1  0
  8 12  1  0
 12 13  1  0
 12 14  1  0
 12 15  1  0
 15 16  1  1
 15 17  1  0
 17 18  2  0
 17 19  1  0
 19 20  1  0
 19 21  1  0
 21 22  1  1
 21 23  1  0
 23 24  2  0
 24 25  1  0
 24 26  1  0
 26 27  1  0
 26 28  2  0
 28 29  1  0
 28 30  1  0
 30 31  1  0
 30 32  2  0
 32 33  1  0
 21 34  1  0
 34 35  1  0
 34 36  1  0
 34 37  1  0
  3 38  1  0
 38 39  1  0
 38 40  1  0
 38 41  1  0
 41 42  1  0
 41 43  1  0
 43 44  2  0
 43 45  1  0
 45 46  2  0
 46 47  1  0
 47 48  2  0
 48 49  1  0
 48 50  1  0
 50 51  1  0
 50 52  2  0
 52 53  1  0
 52 54  1  0
 54 55  1  0
 54 56  2  0
 56 57  1  0
 57 58  1  0
 57 59  2  0
 59 60  1  0
 15  4  1  0
 32 23  1  0
 59 45  1  0
 56 47  1  0
M  CHG  1   4   1
M  END
>  <UniqueID>  (62) 
83

>  <SMILES>  (62) 
C[C@@H](NC(=O)[C@@H]1C[C@@H](O)C/[N+]1=C(/O)CNC(=O)c1ccc2cc(F)ccc2n1)c1ccc(Cl)cc1

>  <Energy>  (62) 
61.2501450166287

>  <Genealogy>  (62) 
C[C@@H](NC(=O)[C@@H]1C[C@@H](O)C[NH+]1C(=O)CNC(=O)c1ccc2cc(F)ccc2n1)c1ccc(Cl)cc1 (protonated)
C[C@@H](NC(=O)[C@@H]1C[C@@H](O)C[N+]1=C(O)CNC(=O)c1ccc2cc(F)ccc2n1)c1ccc(Cl)cc1 (tautomer)
C[C@@H](NC(=O)[C@@H]1C[C@@H](O)C/[N+]1=C(/O)CNC(=O)c1ccc2cc(F)ccc2n1)c1ccc(Cl)cc1 (cis-trans isomerization)
C[C@@H](NC(=O)[C@@H]1C[C@@H](O)C/[N+]1=C(/O)CNC(=O)c1ccc2cc(F)ccc2n1)c1ccc(Cl)cc1 (3D coordinates assigned)
C[C@@H](NC(=O)[C@@H]1C[C@@H](O)C/[N+]1=C(/O)CNC(=O)c1ccc2cc(F)ccc2n1)c1ccc(Cl)cc1 (nonaromatic ring conformer: 61.2501450166287 kcal/mol)

>  <smiles>  (62) 
C[C@@H](NC(=O)[C@@H]1C[C@@H](O)CN1C(=O)CNC(=O)c1ccc2cc(F)ccc2n1)c1ccc(Cl)cc1

>  <score_type>  (62) 
oracle

>  <origin>  (62) 
autodockgpu

>  <m_score__min__energy>  (62) 
-9.3499999999999996

>  <m_primary>  (62) 
energy

>  <meeko>  (62) 
{"free_energy": -8.39, "intermolecular_energy": -11.07, "internal_energy": -3.37, "cluster_size": 5, "cluster_id": 1, "rank_in_cluster": 3}

>  <energy>  (62) 
-9.14

>  <cluster_rmsd>  (62) 
1.15

>  <rmsd>  (62) 
272.18

>  <cluster>  (62) 
1

$$$$
VISCJLQOHKTNMF-GXGKPUEPNA-O
     RDKit          3D

 60 63  0  0  0  0  0  0  0  0999 V2000
  141.0770   70.5840  218.1510 H   0  0  0  0  0  0  0  0  0  0  0  0
  141.7330   70.8660  218.8660 O   0  0  0  0  0  0  0  0  0  0  0  0
  141.7460   72.1320  219.4650 C   0  0  0  0  0  0  0  0  0  0  0  0
  142.8540   72.8390  219.5500 N   0  0  0  0  0  0  0  0  0  0  0  0
  144.0110   72.6660  218.6740 C   0  0  0  0  0  0  0  0  0  0  0  0
  143.7137   72.7898  217.6222 H   0  0  0  0  0  0  0  0  0  0  0  0
  144.4439   71.6602  218.7791 H   0  0  0  0  0  0  0  0  0  0  0  0
  145.0160   73.7450  219.0690 C   0  0  2  0  0  0  0  0  0  0  0  0
  145.0329   74.5601  218.3305 H   0  0  0  0  0  0  0  0  0  0  0  0
  146.3220   73.2360  219.1200 O   0  0  0  0  0  0  0  0  0  0  0  0
  146.9300   74.0150  219.0100 H   0  0  0  0  0  0  0  0  0  0  0  0
  144.5760   74.2310  220.4470 C   0  0  0  0  0  0  0  0  0  0  0  0
  144.7117   75.3194  220.5309 H   0  0  0  0  0  0  0  0  0  0  0  0
  145.1701   73.7683  221.2488 H   0  0  0  0  0  0  0  0  0  0  0  0
  143.0940   73.8680  220.5620 C   0  0  1  0  0  0  0  0  0  0  0  0
  142.8493   73.5047  221.5710 H   0  0  0  0  0  0  0  0  0  0  0  0
  142.2180   75.0740  220.3240 C   0  0  0  0  0  0  0  0  0  0  0  0
  142.5740   75.9310  219.4710 O   0  0  0  0  0  0  0  0  0  0  0  0
  140.9820   75.2360  221.0370 N   0  0  0  0  0  0  0  0  0  0  0  0
  140.6860   74.4780  221.6920 H   0  0  0  0  0  0  0  0  0  0  0  0
  140.1910   76.4700  220.9610 C   0  0  1  0  0  0  0  0  0  0  0  0
  139.2191   76.2958  221.4458 H   0  0  0  0  0  0  0  0  0  0  0  0
  140.8880   77.5980  221.6990 C   0  0  0  0  0  0  0  0  0  0  0  0
  141.0960   77.5150  223.0870 C   0  0  0  0  0  0  0  0  0  0  0  0
  140.7596   76.6242  223.6377 H   0  0  0  0  0  0  0  0  0  0  0  0
  141.7280   78.5580  223.7720 C   0  0  0  0  0  0  0  0  0  0  0  0
  141.8916   78.4818  224.8571 H   0  0  0  0  0  0  0  0  0  0  0  0
  142.1520   79.6960  223.0820 C   0  0  0  0  0  0  0  0  0  0  0  0
  142.9410   81.0050  223.9450 Cl  0  0  0  0  0  0  0  0  0  0  0  0
  141.9500   79.7900  221.7010 C   0  0  0  0  0  0  0  0  0  0  0  0
  142.2825   80.6862  221.1568 H   0  0  0  0  0  0  0  0  0  0  0  0
  141.3260   78.7460  221.0120 C   0  0  0  0  0  0  0  0  0  0  0  0
  141.1761   78.8221  219.9249 H   0  0  0  0  0  0  0  0  0  0  0  0
  139.9430   76.8490  219.4970 C   0  0  0  0  0  0  0  0  0  0  0  0
  139.3412   77.7687  219.4532 H   0  0  0  0  0  0  0  0  0  0  0  0
  140.9064   77.0169  218.9934 H   0  0  0  0  0  0  0  0  0  0  0  0
  139.4034   76.0334  218.9934 H   0  0  0  0  0  0  0  0  0  0  0  0
  140.4250   72.6140  220.0110 C   0  0  0  0  0  0  0  0  0  0  0  0
  140.5342   73.6449  220.3788 H   0  0  0  0  0  0  0  0  0  0  0  0
  139.6668   72.5880  219.2144 H   0  0  0  0  0  0  0  0  0  0  0  0
  140.0080   71.7460  221.1100 N   0  0  0  0  0  0  0  0  0  0  0  0
  139.8590   70.7340  220.8990 H   0  0  0  0  0  0  0  0  0  0  0  0
  139.9760   72.1930  222.4730 C   0  0  0  0  0  0  0  0  0  0  0  0
  139.9500   73.4270  222.7280 O   0  0  0  0  0  0  0  0  0  0  0  0
  139.9840   71.2170  223.5820 C   0  0  0  0  0  0  0  0  0  0  0  0
  140.5220   71.5700  224.7840 N   0  0  0  0  0  0  0  0  0  0  0  0
  140.5130   70.7330  225.8550 C   0  0  0  0  0  0  0  0  0  0  0  0
  141.0760   71.1430  227.0690 C   0  0  0  0  0  0  0  0  0  0  0  0
  141.5339   72.1395  227.1547 H   0  0  0  0  0  0  0  0  0  0  0  0
  141.0560   70.2840  228.1740 C   0  0  0  0  0  0  0  0  0  0  0  0
  141.4980   70.6079  229.1278 H   0  0  0  0  0  0  0  0  0  0  0  0
  140.4760   69.0150  228.0700 C   0  0  0  0  0  0  0  0  0  0  0  0
  140.4590   68.1880  229.1440 F   0  0  0  0  0  0  0  0  0  0  0  0
  139.9140   68.5970  226.8560 C   0  0  0  0  0  0  0  0  0  0  0  0
  139.4619   67.5975  226.7745 H   0  0  0  0  0  0  0  0  0  0  0  0
  139.9280   69.4530  225.7450 C   0  0  0  0  0  0  0  0  0  0  0  0
  139.3730   69.0670  224.5190 C   0  0  0  0  0  0  0  0  0  0  0  0
  138.9139   68.0733  224.4108 H   0  0  0  0  0  0  0  0  0  0  0  0
  139.4030   69.9450  223.4340 C   0  0  0  0  0  0  0  0  0  0  0  0
  138.9739   69.6430  222.4672 H   0  0  0  0  0  0  0  0  0  0  0  0
  1  2  1  0
  2  3  1  0
  3  4  2  0
  4  5  1  0
  5  6  1  0
  5  7  1  0
  5  8  1  0
  8  9  1  6
  8 10  1  0
 10 11  1  0
  8 12  1  0
 12 13  1  0
 12 14  1  0
 12 15  1  0
 15 16  1  1
 15 17  1  0
 17 18  2  0
 17 19  1  0
 19 20  1  0
 19 21  1  0
 21 22  1  1
 21 23  1  0
 23 24  2  0
 24 25  1  0
 24 26  1  0
 26 27  1  0
 26 28  2  0
 28 29  1  0
 28 30  1  0
 30 31  1  0
 30 32  2  0
 32 33  1  0
 21 34  1  0
 34 35  1  0
 34 36  1  0
 34 37  1  0
  3 38  1  0
 38 39  1  0
 38 40  1  0
 38 41  1  0
 41 42  1  0
 41 43  1  0
 43 44  2  0
 43 45  1  0
 45 46  2  0
 46 47  1  0
 47 48  2  0
 48 49  1  0
 48 50  1  0
 50 51  1  0
 50 52  2  0
 52 53  1  0
 52 54  1  0
 54 55  1  0
 54 56  2  0
 56 57  1  0
 57 58  1  0
 57 59  2  0
 59 60  1  0
 15  4  1  0
 32 23  1  0
 59 45  1  0
 56 47  1  0
M  CHG  1   4   1
M  END
>  <UniqueID>  (63) 
83

>  <SMILES>  (63) 
C[C@@H](NC(=O)[C@@H]1C[C@@H](O)C/[N+]1=C(/O)CNC(=O)c1ccc2cc(F)ccc2n1)c1ccc(Cl)cc1

>  <Energy>  (63) 
61.2501450166287

>  <Genealogy>  (63) 
C[C@@H](NC(=O)[C@@H]1C[C@@H](O)C[NH+]1C(=O)CNC(=O)c1ccc2cc(F)ccc2n1)c1ccc(Cl)cc1 (protonated)
C[C@@H](NC(=O)[C@@H]1C[C@@H](O)C[N+]1=C(O)CNC(=O)c1ccc2cc(F)ccc2n1)c1ccc(Cl)cc1 (tautomer)
C[C@@H](NC(=O)[C@@H]1C[C@@H](O)C/[N+]1=C(/O)CNC(=O)c1ccc2cc(F)ccc2n1)c1ccc(Cl)cc1 (cis-trans isomerization)
C[C@@H](NC(=O)[C@@H]1C[C@@H](O)C/[N+]1=C(/O)CNC(=O)c1ccc2cc(F)ccc2n1)c1ccc(Cl)cc1 (3D coordinates assigned)
C[C@@H](NC(=O)[C@@H]1C[C@@H](O)C/[N+]1=C(/O)CNC(=O)c1ccc2cc(F)ccc2n1)c1ccc(Cl)cc1 (nonaromatic ring conformer: 61.2501450166287 kcal/mol)

>  <smiles>  (63) 
C[C@@H](NC(=O)[C@@H]1C[C@@H](O)CN1C(=O)CNC(=O)c1ccc2cc(F)ccc2n1)c1ccc(Cl)cc1

>  <score_type>  (63) 
oracle

>  <origin>  (63) 
autodockgpu

>  <m_score__min__energy>  (63) 
-9.3499999999999996

>  <m_primary>  (63) 
energy

>  <meeko>  (63) 
{"free_energy": -9.35, "intermolecular_energy": -12.03, "internal_energy": -2.26, "cluster_size": 5, "cluster_id": 1, "rank_in_cluster": 1}

>  <energy>  (63) 
-8.39

>  <cluster_rmsd>  (63) 
1.56

>  <rmsd>  (63) 
271.94

>  <cluster>  (63) 
1

$$$$
VISCJLQOHKTNMF-GXGKPUEPNA-O
     RDKit          3D

 60 63  0  0  0  0  0  0  0  0999 V2000
  142.1670   76.2650  222.6470 H   0  0  0  0  0  0  0  0  0  0  0  0
  141.4630   76.8460  223.0800 O   0  0  0  0  0  0  0  0  0  0  0  0
  140.5520   77.6370  222.3690 C   0  0  0  0  0  0  0  0  0  0  0  0
  140.8440   78.8750  222.0240 N   0  0  0  0  0  0  0  0  0  0  0  0
  141.2600   79.9150  222.9610 C   0  0  0  0  0  0  0  0  0  0  0  0
  142.1528   79.5917  223.5163 H   0  0  0  0  0  0  0  0  0  0  0  0
  140.4710   80.1268  223.6976 H   0  0  0  0  0  0  0  0  0  0  0  0
  141.5790   81.1500  222.1210 C   0  0  2  0  0  0  0  0  0  0  0  0
  142.6653   81.2996  222.0338 H   0  0  0  0  0  0  0  0  0  0  0  0
  141.0700   82.3170  222.7090 O   0  0  0  0  0  0  0  0  0  0  0  0
  140.2950   82.5940  222.1540 H   0  0  0  0  0  0  0  0  0  0  0  0
  140.9250   80.9040  220.7650 C   0  0  0  0  0  0  0  0  0  0  0  0
  141.5706   81.2748  219.9553 H   0  0  0  0  0  0  0  0  0  0  0  0
  139.9626   81.4296  220.6780 H   0  0  0  0  0  0  0  0  0  0  0  0
  140.7510   79.3880  220.6560 C   0  0  1  0  0  0  0  0  0  0  0  0
  139.7872   79.1296  220.1931 H   0  0  0  0  0  0  0  0  0  0  0  0
  141.8180   78.7790  219.7790 C   0  0  0  0  0  0  0  0  0  0  0  0
  142.2220   79.4200  218.7710 O   0  0  0  0  0  0  0  0  0  0  0  0
  142.3870   77.4990  220.0950 N   0  0  0  0  0  0  0  0  0  0  0  0
  142.0740   77.0210  220.9700 H   0  0  0  0  0  0  0  0  0  0  0  0
  143.2960   76.7980  219.1790 C   0  0  1  0  0  0  0  0  0  0  0  0
  144.3110   77.1996  219.3148 H   0  0  0  0  0  0  0  0  0  0  0  0
  143.3340   75.3150  219.4930 C   0  0  0  0  0  0  0  0  0  0  0  0
  142.4770   74.4250  218.8190 C   0  0  0  0  0  0  0  0  0  0  0  0
  141.7838   74.8069  218.0551 H   0  0  0  0  0  0  0  0  0  0  0  0
  142.5010   73.0590  219.1140 C   0  0  0  0  0  0  0  0  0  0  0  0
  141.8312   72.3702  218.5783 H   0  0  0  0  0  0  0  0  0  0  0  0
  143.3740   72.5660  220.0880 C   0  0  0  0  0  0  0  0  0  0  0  0
  143.3990   70.8510  220.4590 Cl  0  0  0  0  0  0  0  0  0  0  0  0
  144.2290   73.4410  220.7650 C   0  0  0  0  0  0  0  0  0  0  0  0
  144.9150   73.0543  221.5331 H   0  0  0  0  0  0  0  0  0  0  0  0
  144.2130   74.8060  220.4670 C   0  0  0  0  0  0  0  0  0  0  0  0
  144.8930   75.4883  220.9981 H   0  0  0  0  0  0  0  0  0  0  0  0
  142.8680   77.0360  217.7260 C   0  0  0  0  0  0  0  0  0  0  0  0
  141.9067   77.5705  217.7098 H   0  0  0  0  0  0  0  0  0  0  0  0
  143.6316   77.6391  217.2129 H   0  0  0  0  0  0  0  0  0  0  0  0
  142.7586   76.0692  217.2129 H   0  0  0  0  0  0  0  0  0  0  0  0
  139.2290   76.9890  222.0460 C   0  0  0  0  0  0  0  0  0  0  0  0
  138.4237   77.5108  222.5839 H   0  0  0  0  0  0  0  0  0  0  0  0
  139.0446   77.0497  220.9633 H   0  0  0  0  0  0  0  0  0  0  0  0
  139.2620   75.5870  222.4580 N   0  0  0  0  0  0  0  0  0  0  0  0
  138.5040   75.2500  223.0920 H   0  0  0  0  0  0  0  0  0  0  0  0
  140.1770   74.6400  221.8870 C   0  0  0  0  0  0  0  0  0  0  0  0
  141.2100   75.0450  221.2900 O   0  0  0  0  0  0  0  0  0  0  0  0
  139.9090   73.1900  221.9830 C   0  0  0  0  0  0  0  0  0  0  0  0
  140.0470   72.5610  223.1860 N   0  0  0  0  0  0  0  0  0  0  0  0
  139.7670   71.2400  223.3480 C   0  0  0  0  0  0  0  0  0  0  0  0
  139.9210   70.6400  224.6020 C   0  0  0  0  0  0  0  0  0  0  0  0
  140.2780   71.2343  225.4560 H   0  0  0  0  0  0  0  0  0  0  0  0
  139.6210   69.2840  224.7700 C   0  0  0  0  0  0  0  0  0  0  0  0
  139.7408   68.8143  225.7575 H   0  0  0  0  0  0  0  0  0  0  0  0
  139.1690   68.5230  223.6860 C   0  0  0  0  0  0  0  0  0  0  0  0
  138.8800   67.2090  223.8550 F   0  0  0  0  0  0  0  0  0  0  0  0
  139.0160   69.1160  222.4260 C   0  0  0  0  0  0  0  0  0  0  0  0
  138.6639   68.5155  221.5743 H   0  0  0  0  0  0  0  0  0  0  0  0
  139.3120   70.4760  222.2510 C   0  0  0  0  0  0  0  0  0  0  0  0
  139.1670   71.1000  221.0060 C   0  0  0  0  0  0  0  0  0  0  0  0
  138.8157   70.5227  220.1380 H   0  0  0  0  0  0  0  0  0  0  0  0
  139.4690   72.4560  220.8680 C   0  0  0  0  0  0  0  0  0  0  0  0
  139.3630   72.9483  219.8900 H   0  0  0  0  0  0  0  0  0  0  0  0
  1  2  1  0
  2  3  1  0
  3  4  2  0
  4  5  1  0
  5  6  1  0
  5  7  1  0
  5  8  1  0
  8  9  1  6
  8 10  1  0
 10 11  1  0
  8 12  1  0
 12 13  1  0
 12 14  1  0
 12 15  1  0
 15 16  1  6
 15 17  1  0
 17 18  2  0
 17 19  1  0
 19 20  1  0
 19 21  1  0
 21 22  1  6
 21 23  1  0
 23 24  2  0
 24 25  1  0
 24 26  1  0
 26 27  1  0
 26 28  2  0
 28 29  1  0
 28 30  1  0
 30 31  1  0
 30 32  2  0
 32 33  1  0
 21 34  1  0
 34 35  1  0
 34 36  1  0
 34 37  1  0
  3 38  1  0
 38 39  1  0
 38 40  1  0
 38 41  1  0
 41 42  1  0
 41 43  1  0
 43 44  2  0
 43 45  1  0
 45 46  2  0
 46 47  1  0
 47 48  2  0
 48 49  1  0
 48 50  1  0
 50 51  1  0
 50 52  2  0
 52 53  1  0
 52 54  1  0
 54 55  1  0
 54 56  2  0
 56 57  1  0
 57 58  1  0
 57 59  2  0
 59 60  1  0
 15  4  1  0
 32 23  1  0
 59 45  1  0
 56 47  1  0
M  CHG  1   4   1
M  END
>  <UniqueID>  (64) 
83

>  <SMILES>  (64) 
C[C@@H](NC(=O)[C@@H]1C[C@@H](O)C/[N+]1=C(/O)CNC(=O)c1ccc2cc(F)ccc2n1)c1ccc(Cl)cc1

>  <Energy>  (64) 
61.2501450166287

>  <Genealogy>  (64) 
C[C@@H](NC(=O)[C@@H]1C[C@@H](O)C[NH+]1C(=O)CNC(=O)c1ccc2cc(F)ccc2n1)c1ccc(Cl)cc1 (protonated)
C[C@@H](NC(=O)[C@@H]1C[C@@H](O)C[N+]1=C(O)CNC(=O)c1ccc2cc(F)ccc2n1)c1ccc(Cl)cc1 (tautomer)
C[C@@H](NC(=O)[C@@H]1C[C@@H](O)C/[N+]1=C(/O)CNC(=O)c1ccc2cc(F)ccc2n1)c1ccc(Cl)cc1 (cis-trans isomerization)
C[C@@H](NC(=O)[C@@H]1C[C@@H](O)C/[N+]1=C(/O)CNC(=O)c1ccc2cc(F)ccc2n1)c1ccc(Cl)cc1 (3D coordinates assigned)
C[C@@H](NC(=O)[C@@H]1C[C@@H](O)C/[N+]1=C(/O)CNC(=O)c1ccc2cc(F)ccc2n1)c1ccc(Cl)cc1 (nonaromatic ring conformer: 61.2501450166287 kcal/mol)

>  <smiles>  (64) 
C[C@@H](NC(=O)[C@@H]1C[C@@H](O)CN1C(=O)CNC(=O)c1ccc2cc(F)ccc2n1)c1ccc(Cl)cc1

>  <score_type>  (64) 
oracle

>  <origin>  (64) 
autodockgpu

>  <m_score__min__energy>  (64) 
-9.3499999999999996

>  <m_primary>  (64) 
energy

>  <meeko>  (64) 
{"free_energy": -6.48, "intermolecular_energy": -9.16, "internal_energy": -4.0, "cluster_size": 1, "cluster_id": 6, "rank_in_cluster": 1}

>  <energy>  (64) 
-8.39

>  <cluster_rmsd>  (64) 
1.65

>  <rmsd>  (64) 
271.96

>  <cluster>  (64) 
1

$$$$
VISCJLQOHKTNMF-GXGKPUEPNA-O
     RDKit          3D

 60 63  0  0  0  0  0  0  0  0999 V2000
  142.4620   72.5880  221.9200 H   0  0  0  0  0  0  0  0  0  0  0  0
  142.6960   72.5650  220.9370 O   0  0  0  0  0  0  0  0  0  0  0  0
  141.9620   73.2170  219.9400 C   0  0  0  0  0  0  0  0  0  0  0  0
  142.4330   74.2870  219.3310 N   0  0  0  0  0  0  0  0  0  0  0  0
  142.6840   74.3740  217.8950 C   0  0  0  0  0  0  0  0  0  0  0  0
  141.7650   74.1491  217.3338 H   0  0  0  0  0  0  0  0  0  0  0  0
  143.4496   73.6500  217.5793 H   0  0  0  0  0  0  0  0  0  0  0  0
  143.1320   75.8080  217.6220 C   0  0  2  0  0  0  0  0  0  0  0  0
  142.3276   76.3920  217.1510 H   0  0  0  0  0  0  0  0  0  0  0  0
  144.2160   75.8460  216.7320 O   0  0  0  0  0  0  0  0  0  0  0  0
  145.0270   75.6460  217.2710 H   0  0  0  0  0  0  0  0  0  0  0  0
  143.5320   76.3780  218.9790 C   0  0  0  0  0  0  0  0  0  0  0  0
  143.2180   77.4291  219.0608 H   0  0  0  0  0  0  0  0  0  0  0  0
  144.6222   76.3538  219.1233 H   0  0  0  0  0  0  0  0  0  0  0  0
  142.8070   75.5230  220.0190 C   0  0  1  0  0  0  0  0  0  0  0  0
  143.4507   75.3213  220.8879 H   0  0  0  0  0  0  0  0  0  0  0  0
  141.5870   76.2330  220.5540 C   0  0  0  0  0  0  0  0  0  0  0  0
  140.8910   76.9320  219.7680 O   0  0  0  0  0  0  0  0  0  0  0  0
  141.2030   76.0990  221.9310 N   0  0  0  0  0  0  0  0  0  0  0  0
  141.7650   75.4650  222.5420 H   0  0  0  0  0  0  0  0  0  0  0  0
  140.1300   76.9050  222.5270 C   0  0  1  0  0  0  0  0  0  0  0  0
  140.1115   76.7200  223.6112 H   0  0  0  0  0  0  0  0  0  0  0  0
  140.3870   78.3840  222.3080 C   0  0  0  0  0  0  0  0  0  0  0  0
  139.4580   79.1680  221.6000 C   0  0  0  0  0  0  0  0  0  0  0  0
  138.5375   78.7073  221.2122 H   0  0  0  0  0  0  0  0  0  0  0  0
  139.6970   80.5290  221.3860 C   0  0  0  0  0  0  0  0  0  0  0  0
  138.9625   81.1352  220.8355 H   0  0  0  0  0  0  0  0  0  0  0  0
  140.8670   81.1210  221.8700 C   0  0  0  0  0  0  0  0  0  0  0  0
  141.1660   82.8280  221.5960 Cl  0  0  0  0  0  0  0  0  0  0  0  0
  141.7980   80.3510  222.5740 C   0  0  0  0  0  0  0  0  0  0  0  0
  142.7199   80.8156  222.9537 H   0  0  0  0  0  0  0  0  0  0  0  0
  141.5590   78.9920  222.7960 C   0  0  0  0  0  0  0  0  0  0  0  0
  142.2922   78.3931  223.3562 H   0  0  0  0  0  0  0  0  0  0  0  0
  138.7740   76.4960  221.9390 C   0  0  0  0  0  0  0  0  0  0  0  0
  138.0691   76.2834  222.7562 H   0  0  0  0  0  0  0  0  0  0  0  0
  138.3808   77.3155  221.3195 H   0  0  0  0  0  0  0  0  0  0  0  0
  138.8995   75.5957  221.3195 H   0  0  0  0  0  0  0  0  0  0  0  0
  140.6090   72.6280  219.6270 C   0  0  0  0  0  0  0  0  0  0  0  0
  139.9110   73.4344  219.3574 H   0  0  0  0  0  0  0  0  0  0  0  0
  140.6995   71.9261  218.7849 H   0  0  0  0  0  0  0  0  0  0  0  0
  140.1050   71.9190  220.8020 N   0  0  0  0  0  0  0  0  0  0  0  0
  139.7160   70.9600  220.6600 H   0  0  0  0  0  0  0  0  0  0  0  0
  140.2930   72.4130  222.1360 C   0  0  0  0  0  0  0  0  0  0  0  0
  140.5660   73.6290  222.3230 O   0  0  0  0  0  0  0  0  0  0  0  0
  140.1780   71.5020  223.2940 C   0  0  0  0  0  0  0  0  0  0  0  0
  140.6660   71.8930  224.5060 N   0  0  0  0  0  0  0  0  0  0  0  0
  140.5460   71.1210  225.6180 C   0  0  0  0  0  0  0  0  0  0  0  0
  141.0610   71.5670  226.8400 C   0  0  0  0  0  0  0  0  0  0  0  0
  141.5719   72.5393  226.8997 H   0  0  0  0  0  0  0  0  0  0  0  0
  140.9260   70.7760  227.9860 C   0  0  0  0  0  0  0  0  0  0  0  0
  141.3307   71.1290  228.9460 H   0  0  0  0  0  0  0  0  0  0  0  0
  140.2780   69.5370  227.9160 C   0  0  0  0  0  0  0  0  0  0  0  0
  140.1500   68.7750  229.0300 F   0  0  0  0  0  0  0  0  0  0  0  0
  139.7640   69.0820  226.6940 C   0  0  0  0  0  0  0  0  0  0  0  0
  139.2596   68.1060  226.6386 H   0  0  0  0  0  0  0  0  0  0  0  0
  139.8930   69.8720  225.5410 C   0  0  0  0  0  0  0  0  0  0  0  0
  139.3870   69.4470  224.3060 C   0  0  0  0  0  0  0  0  0  0  0  0
  138.8767   68.4760  224.2237 H   0  0  0  0  0  0  0  0  0  0  0  0
  139.5320   70.2590  223.1800 C   0  0  0  0  0  0  0  0  0  0  0  0
  139.1419   69.9271  222.2065 H   0  0  0  0  0  0  0  0  0  0  0  0
  1  2  1  0
  2  3  1  0
  3  4  2  0
  4  5  1  0
  5  6  1  0
  5  7  1  0
  5  8  1  0
  8  9  1  6
  8 10  1  0
 10 11  1  0
  8 12  1  0
 12 13  1  0
 12 14  1  0
 12 15  1  0
 15 16  1  1
 15 17  1  0
 17 18  2  0
 17 19  1  0
 19 20  1  0
 19 21  1  0
 21 22  1  1
 21 23  1  0
 23 24  2  0
 24 25  1  0
 24 26  1  0
 26 27  1  0
 26 28  2  0
 28 29  1  0
 28 30  1  0
 30 31  1  0
 30 32  2  0
 32 33  1  0
 21 34  1  0
 34 35  1  0
 34 36  1  0
 34 37  1  0
  3 38  1  0
 38 39  1  0
 38 40  1  0
 38 41  1  0
 41 42  1  0
 41 43  1  0
 43 44  2  0
 43 45  1  0
 45 46  2  0
 46 47  1  0
 47 48  2  0
 48 49  1  0
 48 50  1  0
 50 51  1  0
 50 52  2  0
 52 53  1  0
 52 54  1  0
 54 55  1  0
 54 56  2  0
 56 57  1  0
 57 58  1  0
 57 59  2  0
 59 60  1  0
 15  4  1  0
 32 23  1  0
 59 45  1  0
 56 47  1  0
M  CHG  1   4   1
M  END
>  <UniqueID>  (65) 
83

>  <SMILES>  (65) 
C[C@@H](NC(=O)[C@@H]1C[C@@H](O)C/[N+]1=C(/O)CNC(=O)c1ccc2cc(F)ccc2n1)c1ccc(Cl)cc1

>  <Energy>  (65) 
61.2501450166287

>  <Genealogy>  (65) 
C[C@@H](NC(=O)[C@@H]1C[C@@H](O)C[NH+]1C(=O)CNC(=O)c1ccc2cc(F)ccc2n1)c1ccc(Cl)cc1 (protonated)
C[C@@H](NC(=O)[C@@H]1C[C@@H](O)C[N+]1=C(O)CNC(=O)c1ccc2cc(F)ccc2n1)c1ccc(Cl)cc1 (tautomer)
C[C@@H](NC(=O)[C@@H]1C[C@@H](O)C/[N+]1=C(/O)CNC(=O)c1ccc2cc(F)ccc2n1)c1ccc(Cl)cc1 (cis-trans isomerization)
C[C@@H](NC(=O)[C@@H]1C[C@@H](O)C/[N+]1=C(/O)CNC(=O)c1ccc2cc(F)ccc2n1)c1ccc(Cl)cc1 (3D coordinates assigned)
C[C@@H](NC(=O)[C@@H]1C[C@@H](O)C/[N+]1=C(/O)CNC(=O)c1ccc2cc(F)ccc2n1)c1ccc(Cl)cc1 (nonaromatic ring conformer: 61.2501450166287 kcal/mol)

>  <smiles>  (65) 
C[C@@H](NC(=O)[C@@H]1C[C@@H](O)CN1C(=O)CNC(=O)c1ccc2cc(F)ccc2n1)c1ccc(Cl)cc1

>  <score_type>  (65) 
oracle

>  <origin>  (65) 
autodockgpu

>  <m_score__min__energy>  (65) 
-9.3499999999999996

>  <m_primary>  (65) 
energy

>  <meeko>  (65) 
{"free_energy": -8.39, "intermolecular_energy": -11.07, "internal_energy": -2.8, "cluster_size": 5, "cluster_id": 1, "rank_in_cluster": 4}

>  <energy>  (65) 
-8.35

>  <cluster_rmsd>  (65) 
1.39

>  <rmsd>  (65) 
272.01

>  <cluster>  (65) 
1

$$$$
VISCJLQOHKTNMF-GXGKPUEPNA-O
     RDKit          3D

 60 63  0  0  0  0  0  0  0  0999 V2000
  139.4620   79.3000  218.5240 H   0  0  0  0  0  0  0  0  0  0  0  0
  139.7370   79.7890  219.3640 O   0  0  0  0  0  0  0  0  0  0  0  0
  141.0650   80.0580  219.7170 C   0  0  0  0  0  0  0  0  0  0  0  0
  141.4560   80.0410  220.9750 N   0  0  0  0  0  0  0  0  0  0  0  0
  141.3710   81.1850  221.8800 C   0  0  0  0  0  0  0  0  0  0  0  0
  140.3328   81.5428  221.9444 H   0  0  0  0  0  0  0  0  0  0  0  0
  141.9879   82.0227  221.5228 H   0  0  0  0  0  0  0  0  0  0  0  0
  141.8450   80.6910  223.2450 C   0  0  2  0  0  0  0  0  0  0  0  0
  140.9970   80.5440  223.9301 H   0  0  0  0  0  0  0  0  0  0  0  0
  142.6900   81.6250  223.8630 O   0  0  0  0  0  0  0  0  0  0  0  0
  142.0980   82.2940  224.2960 H   0  0  0  0  0  0  0  0  0  0  0  0
  142.5910   79.3890  222.9740 C   0  0  0  0  0  0  0  0  0  0  0  0
  142.3813   78.6553  223.7663 H   0  0  0  0  0  0  0  0  0  0  0  0
  143.6800   79.5427  222.9549 H   0  0  0  0  0  0  0  0  0  0  0  0
  142.0700   78.8830  221.6280 C   0  0  1  0  0  0  0  0  0  0  0  0
  142.8833   78.4609  221.0194 H   0  0  0  0  0  0  0  0  0  0  0  0
  141.0630   77.7740  221.8150 C   0  0  0  0  0  0  0  0  0  0  0  0
  141.1140   77.0710  222.8600 O   0  0  0  0  0  0  0  0  0  0  0  0
  140.0430   77.5340  220.8330 N   0  0  0  0  0  0  0  0  0  0  0  0
  139.9900   78.1730  220.0080 H   0  0  0  0  0  0  0  0  0  0  0  0
  139.1580   76.3640  220.8940 C   0  0  1  0  0  0  0  0  0  0  0  0
  138.4183   76.4390  220.0833 H   0  0  0  0  0  0  0  0  0  0  0  0
  139.9480   75.0850  220.6910 C   0  0  0  0  0  0  0  0  0  0  0  0
  140.3420   74.3120  221.7980 C   0  0  0  0  0  0  0  0  0  0  0  0
  140.0678   74.6330  222.8138 H   0  0  0  0  0  0  0  0  0  0  0  0
  141.0800   73.1380  221.6160 C   0  0  0  0  0  0  0  0  0  0  0  0
  141.3799   72.5372  222.4873 H   0  0  0  0  0  0  0  0  0  0  0  0
  141.4370   72.7270  220.3290 C   0  0  0  0  0  0  0  0  0  0  0  0
  142.3670   71.2550  220.1040 Cl  0  0  0  0  0  0  0  0  0  0  0  0
  141.0510   73.4880  219.2210 C   0  0  0  0  0  0  0  0  0  0  0  0
  141.3328   73.1656  218.2077 H   0  0  0  0  0  0  0  0  0  0  0  0
  140.3080   74.6570  219.4000 C   0  0  0  0  0  0  0  0  0  0  0  0
  140.0017   75.2480  218.5243 H   0  0  0  0  0  0  0  0  0  0  0  0
  138.4120   76.3360  222.2330 C   0  0  0  0  0  0  0  0  0  0  0  0
  139.1388   76.3633  223.0583 H   0  0  0  0  0  0  0  0  0  0  0  0
  137.7473   77.2098  222.3008 H   0  0  0  0  0  0  0  0  0  0  0  0
  137.8147   75.4148  222.3008 H   0  0  0  0  0  0  0  0  0  0  0  0
  141.9970   80.3780  218.5750 C   0  0  0  0  0  0  0  0  0  0  0  0
  141.4165   80.7692  217.7265 H   0  0  0  0  0  0  0  0  0  0  0  0
  142.7278   81.1338  218.8985 H   0  0  0  0  0  0  0  0  0  0  0  0
  142.7000   79.1640  218.1660 N   0  0  0  0  0  0  0  0  0  0  0  0
  143.7200   79.2410  217.9580 H   0  0  0  0  0  0  0  0  0  0  0  0
  142.0860   77.8670  218.2190 C   0  0  0  0  0  0  0  0  0  0  0  0
  140.8310   77.7680  218.2660 O   0  0  0  0  0  0  0  0  0  0  0  0
  142.9180   76.6460  218.2280 C   0  0  0  0  0  0  0  0  0  0  0  0
  143.3460   76.1360  219.4180 N   0  0  0  0  0  0  0  0  0  0  0  0
  144.0710   74.9880  219.4950 C   0  0  0  0  0  0  0  0  0  0  0  0
  144.4860   74.5030  220.7390 C   0  0  0  0  0  0  0  0  0  0  0  0
  144.2340   75.0551  221.6564 H   0  0  0  0  0  0  0  0  0  0  0  0
  145.2220   73.3150  220.8170 C   0  0  0  0  0  0  0  0  0  0  0  0
  145.5451   72.9337  221.7969 H   0  0  0  0  0  0  0  0  0  0  0  0
  145.5480   72.6110  219.6530 C   0  0  0  0  0  0  0  0  0  0  0  0
  146.2620   71.4610  219.7340 F   0  0  0  0  0  0  0  0  0  0  0  0
  145.1410   73.0940  218.4020 C   0  0  0  0  0  0  0  0  0  0  0  0
  145.4030   72.5422  217.4872 H   0  0  0  0  0  0  0  0  0  0  0  0
  144.3990   74.2820  218.3170 C   0  0  0  0  0  0  0  0  0  0  0  0
  143.9740   74.7900  217.0830 C   0  0  0  0  0  0  0  0  0  0  0  0
  144.2213   74.2569  216.1531 H   0  0  0  0  0  0  0  0  0  0  0  0
  143.2360   75.9740  217.0350 C   0  0  0  0  0  0  0  0  0  0  0  0
  142.9047   76.3794  216.0676 H   0  0  0  0  0  0  0  0  0  0  0  0
  1  2  1  0
  2  3  1  0
  3  4  2  0
  4  5  1  0
  5  6  1  0
  5  7  1  0
  5  8  1  0
  8  9  1  1
  8 10  1  0
 10 11  1  0
  8 12  1  0
 12 13  1  0
 12 14  1  0
 12 15  1  0
 15 16  1  6
 15 17  1  0
 17 18  2  0
 17 19  1  0
 19 20  1  0
 19 21  1  0
 21 22  1  6
 21 23  1  0
 23 24  2  0
 24 25  1  0
 24 26  1  0
 26 27  1  0
 26 28  2  0
 28 29  1  0
 28 30  1  0
 30 31  1  0
 30 32  2  0
 32 33  1  0
 21 34  1  0
 34 35  1  0
 34 36  1  0
 34 37  1  0
  3 38  1  0
 38 39  1  0
 38 40  1  0
 38 41  1  0
 41 42  1  0
 41 43  1  0
 43 44  2  0
 43 45  1  0
 45 46  2  0
 46 47  1  0
 47 48  2  0
 48 49  1  0
 48 50  1  0
 50 51  1  0
 50 52  2  0
 52 53  1  0
 52 54  1  0
 54 55  1  0
 54 56  2  0
 56 57  1  0
 57 58  1  0
 57 59  2  0
 59 60  1  0
 15  4  1  0
 32 23  1  0
 59 45  1  0
 56 47  1  0
M  CHG  1   4   1
M  END
>  <UniqueID>  (66) 
83

>  <SMILES>  (66) 
C[C@@H](NC(=O)[C@@H]1C[C@@H](O)C/[N+]1=C(/O)CNC(=O)c1ccc2cc(F)ccc2n1)c1ccc(Cl)cc1

>  <Energy>  (66) 
61.2501450166287

>  <Genealogy>  (66) 
C[C@@H](NC(=O)[C@@H]1C[C@@H](O)C[NH+]1C(=O)CNC(=O)c1ccc2cc(F)ccc2n1)c1ccc(Cl)cc1 (protonated)
C[C@@H](NC(=O)[C@@H]1C[C@@H](O)C[N+]1=C(O)CNC(=O)c1ccc2cc(F)ccc2n1)c1ccc(Cl)cc1 (tautomer)
C[C@@H](NC(=O)[C@@H]1C[C@@H](O)C/[N+]1=C(/O)CNC(=O)c1ccc2cc(F)ccc2n1)c1ccc(Cl)cc1 (cis-trans isomerization)
C[C@@H](NC(=O)[C@@H]1C[C@@H](O)C/[N+]1=C(/O)CNC(=O)c1ccc2cc(F)ccc2n1)c1ccc(Cl)cc1 (3D coordinates assigned)
C[C@@H](NC(=O)[C@@H]1C[C@@H](O)C/[N+]1=C(/O)CNC(=O)c1ccc2cc(F)ccc2n1)c1ccc(Cl)cc1 (nonaromatic ring conformer: 61.2501450166287 kcal/mol)

>  <smiles>  (66) 
C[C@@H](NC(=O)[C@@H]1C[C@@H](O)CN1C(=O)CNC(=O)c1ccc2cc(F)ccc2n1)c1ccc(Cl)cc1

>  <score_type>  (66) 
oracle

>  <origin>  (66) 
autodockgpu

>  <m_score__min__energy>  (66) 
-9.3499999999999996

>  <m_primary>  (66) 
energy

>  <meeko>  (66) 
{"free_energy": -5.59, "intermolecular_energy": -8.28, "internal_energy": -5.33, "cluster_size": 1, "cluster_id": 7, "rank_in_cluster": 1}

>  <energy>  (66) 
-8.76

>  <cluster_rmsd>  (66) 
0.0

>  <rmsd>  (66) 
271.68

>  <cluster>  (66) 
2

$$$$
VISCJLQOHKTNMF-GXGKPUEPNA-O
     RDKit          3D

 60 63  0  0  0  0  0  0  0  0999 V2000
  140.2570   76.0880  217.7140 H   0  0  0  0  0  0  0  0  0  0  0  0
  140.8510   75.3000  217.9350 O   0  0  0  0  0  0  0  0  0  0  0  0
  142.1340   75.4140  218.4840 C   0  0  0  0  0  0  0  0  0  0  0  0
  142.5800   74.5460  219.3690 N   0  0  0  0  0  0  0  0  0  0  0  0
  143.9930   74.3130  219.6550 C   0  0  0  0  0  0  0  0  0  0  0  0
  144.4802   75.2522  219.9558 H   0  0  0  0  0  0  0  0  0  0  0  0
  144.5226   73.9354  218.7679 H   0  0  0  0  0  0  0  0  0  0  0  0
  144.0400   73.3030  220.8000 C   0  0  2  0  0  0  0  0  0  0  0  0
  144.2995   73.7922  221.7505 H   0  0  0  0  0  0  0  0  0  0  0  0
  145.0230   72.3260  220.5810 O   0  0  0  0  0  0  0  0  0  0  0  0
  145.1900   71.8960  221.4610 H   0  0  0  0  0  0  0  0  0  0  0  0
  142.6540   72.6690  220.8450 C   0  0  0  0  0  0  0  0  0  0  0  0
  142.3418   72.5039  221.8868 H   0  0  0  0  0  0  0  0  0  0  0  0
  142.6399   71.6899  220.3438 H   0  0  0  0  0  0  0  0  0  0  0  0
  141.7180   73.6660  220.1600 C   0  0  1  0  0  0  0  0  0  0  0  0
  140.9799   73.1512  219.5274 H   0  0  0  0  0  0  0  0  0  0  0  0
  140.9270   74.4550  221.1750 C   0  0  0  0  0  0  0  0  0  0  0  0
  140.7380   73.9660  222.3210 O   0  0  0  0  0  0  0  0  0  0  0  0
  140.4140   75.7580  220.8540 N   0  0  0  0  0  0  0  0  0  0  0  0
  140.6380   76.1610  219.9170 H   0  0  0  0  0  0  0  0  0  0  0  0
  139.4990   76.4810  221.7470 C   0  0  1  0  0  0  0  0  0  0  0  0
  139.2513   75.8312  222.5992 H   0  0  0  0  0  0  0  0  0  0  0  0
  140.1600   77.7330  222.2900 C   0  0  0  0  0  0  0  0  0  0  0  0
  141.5140   77.9970  222.0140 C   0  0  0  0  0  0  0  0  0  0  0  0
  142.0918   77.2962  221.3936 H   0  0  0  0  0  0  0  0  0  0  0  0
  142.1300   79.1440  222.5230 C   0  0  0  0  0  0  0  0  0  0  0  0
  143.1881   79.3440  222.2986 H   0  0  0  0  0  0  0  0  0  0  0  0
  141.4050   80.0370  223.3160 C   0  0  0  0  0  0  0  0  0  0  0  0
  142.1820   81.4740  223.9570 Cl  0  0  0  0  0  0  0  0  0  0  0  0
  140.0580   79.7850  223.5970 C   0  0  0  0  0  0  0  0  0  0  0  0
  139.4865   80.4866  224.2224 H   0  0  0  0  0  0  0  0  0  0  0  0
  139.4380   78.6430  223.0840 C   0  0  0  0  0  0  0  0  0  0  0  0
  138.3767   78.4537  223.3026 H   0  0  0  0  0  0  0  0  0  0  0  0
  138.2030   76.8270  221.0060 C   0  0  0  0  0  0  0  0  0  0  0  0
  137.4084   77.0391  221.7365 H   0  0  0  0  0  0  0  0  0  0  0  0
  138.3668   77.7129  220.3748 H   0  0  0  0  0  0  0  0  0  0  0  0
  137.9035   75.9774  220.3748 H   0  0  0  0  0  0  0  0  0  0  0  0
  142.9500   76.5910  218.0100 C   0  0  0  0  0  0  0  0  0  0  0  0
  144.0204   76.3669  218.1285 H   0  0  0  0  0  0  0  0  0  0  0  0
  142.7321   76.7858  216.9495 H   0  0  0  0  0  0  0  0  0  0  0  0
  142.6080   77.7700  218.8030 N   0  0  0  0  0  0  0  0  0  0  0  0
  143.3860   78.2720  219.2850 H   0  0  0  0  0  0  0  0  0  0  0  0
  141.2950   78.3500  218.7900 C   0  0  0  0  0  0  0  0  0  0  0  0
  140.3120   77.6690  218.3940 O   0  0  0  0  0  0  0  0  0  0  0  0
  141.0900   79.7460  219.2280 C   0  0  0  0  0  0  0  0  0  0  0  0
  140.0090   80.0560  219.9980 N   0  0  0  0  0  0  0  0  0  0  0  0
  139.7930   81.3110  220.4730 C   0  0  0  0  0  0  0  0  0  0  0  0
  138.6700   81.5790  221.2620 C   0  0  0  0  0  0  0  0  0  0  0  0
  137.9546   80.7754  221.4912 H   0  0  0  0  0  0  0  0  0  0  0  0
  138.4560   82.8690  221.7600 C   0  0  0  0  0  0  0  0  0  0  0  0
  137.5730   83.0769  222.3822 H   0  0  0  0  0  0  0  0  0  0  0  0
  139.3620   83.8960  221.4690 C   0  0  0  0  0  0  0  0  0  0  0  0
  139.1500   85.1440  221.9540 F   0  0  0  0  0  0  0  0  0  0  0  0
  140.4870   83.6360  220.6750 C   0  0  0  0  0  0  0  0  0  0  0  0
  141.1957   84.4447  220.4432 H   0  0  0  0  0  0  0  0  0  0  0  0
  140.7090   82.3440  220.1760 C   0  0  0  0  0  0  0  0  0  0  0  0
  141.8260   82.0500  219.3820 C   0  0  0  0  0  0  0  0  0  0  0  0
  142.5513   82.8399  219.1369 H   0  0  0  0  0  0  0  0  0  0  0  0
  142.0160   80.7530  218.9030 C   0  0  0  0  0  0  0  0  0  0  0  0
  142.8872   80.5193  218.2734 H   0  0  0  0  0  0  0  0  0  0  0  0
  1  2  1  0
  2  3  1  0
  3  4  2  0
  4  5  1  0
  5  6  1  0
  5  7  1  0
  5  8  1  0
  8  9  1  1
  8 10  1  0
 10 11  1  0
  8 12  1  0
 12 13  1  0
 12 14  1  0
 12 15  1  0
 15 16  1  6
 15 17  1  0
 17 18  2  0
 17 19  1  0
 19 20  1  0
 19 21  1  0
 21 22  1  1
 21 23  1  0
 23 24  2  0
 24 25  1  0
 24 26  1  0
 26 27  1  0
 26 28  2  0
 28 29  1  0
 28 30  1  0
 30 31  1  0
 30 32  2  0
 32 33  1  0
 21 34  1  0
 34 35  1  0
 34 36  1  0
 34 37  1  0
  3 38  1  0
 38 39  1  0
 38 40  1  0
 38 41  1  0
 41 42  1  0
 41 43  1  0
 43 44  2  0
 43 45  1  0
 45 46  2  0
 46 47  1  0
 47 48  2  0
 48 49  1  0
 48 50  1  0
 50 51  1  0
 50 52  2  0
 52 53  1  0
 52 54  1  0
 54 55  1  0
 54 56  2  0
 56 57  1  0
 57 58  1  0
 57 59  2  0
 59 60  1  0
 15  4  1  0
 32 23  1  0
 59 45  1  0
 56 47  1  0
M  CHG  1   4   1
M  END
>  <UniqueID>  (67) 
83

>  <SMILES>  (67) 
C[C@@H](NC(=O)[C@@H]1C[C@@H](O)C/[N+]1=C(/O)CNC(=O)c1ccc2cc(F)ccc2n1)c1ccc(Cl)cc1

>  <Energy>  (67) 
61.2501450166287

>  <Genealogy>  (67) 
C[C@@H](NC(=O)[C@@H]1C[C@@H](O)C[NH+]1C(=O)CNC(=O)c1ccc2cc(F)ccc2n1)c1ccc(Cl)cc1 (protonated)
C[C@@H](NC(=O)[C@@H]1C[C@@H](O)C[N+]1=C(O)CNC(=O)c1ccc2cc(F)ccc2n1)c1ccc(Cl)cc1 (tautomer)
C[C@@H](NC(=O)[C@@H]1C[C@@H](O)C/[N+]1=C(/O)CNC(=O)c1ccc2cc(F)ccc2n1)c1ccc(Cl)cc1 (cis-trans isomerization)
C[C@@H](NC(=O)[C@@H]1C[C@@H](O)C/[N+]1=C(/O)CNC(=O)c1ccc2cc(F)ccc2n1)c1ccc(Cl)cc1 (3D coordinates assigned)
C[C@@H](NC(=O)[C@@H]1C[C@@H](O)C/[N+]1=C(/O)CNC(=O)c1ccc2cc(F)ccc2n1)c1ccc(Cl)cc1 (nonaromatic ring conformer: 61.2501450166287 kcal/mol)

>  <smiles>  (67) 
C[C@@H](NC(=O)[C@@H]1C[C@@H](O)CN1C(=O)CNC(=O)c1ccc2cc(F)ccc2n1)c1ccc(Cl)cc1

>  <score_type>  (67) 
oracle

>  <origin>  (67) 
autodockgpu

>  <m_score__min__energy>  (67) 
-9.3499999999999996

>  <m_primary>  (67) 
energy

>  <meeko>  (67) 
{"free_energy": -6.55, "intermolecular_energy": -9.23, "internal_energy": -5.3, "cluster_size": 4, "cluster_id": 5, "rank_in_cluster": 1}

>  <energy>  (67) 
-8.75

>  <cluster_rmsd>  (67) 
0.04

>  <rmsd>  (67) 
271.68

>  <cluster>  (67) 
2

$$$$
VISCJLQOHKTNMF-GXGKPUEPNA-O
     RDKit          3D

 60 63  0  0  0  0  0  0  0  0999 V2000
  138.3780   74.4560  219.1940 H   0  0  0  0  0  0  0  0  0  0  0  0
  139.0980   73.7490  219.2460 O   0  0  0  0  0  0  0  0  0  0  0  0
  139.9280   73.5540  220.3570 C   0  0  0  0  0  0  0  0  0  0  0  0
  141.2380   73.4910  220.2310 N   0  0  0  0  0  0  0  0  0  0  0  0
  141.9750   72.2810  219.8760 C   0  0  0  0  0  0  0  0  0  0  0  0
  141.6106   71.8808  218.9184 H   0  0  0  0  0  0  0  0  0  0  0  0
  141.8416   71.4959  220.6348 H   0  0  0  0  0  0  0  0  0  0  0  0
  143.4410   72.6890  219.7540 C   0  0  2  0  0  0  0  0  0  0  0  0
  143.7486   72.7518  218.6997 H   0  0  0  0  0  0  0  0  0  0  0  0
  144.2880   71.7440  220.3540 O   0  0  0  0  0  0  0  0  0  0  0  0
  144.4800   72.0820  221.2680 H   0  0  0  0  0  0  0  0  0  0  0  0
  143.5530   74.0350  220.4620 C   0  0  0  0  0  0  0  0  0  0  0  0
  144.2398   74.6990  219.9166 H   0  0  0  0  0  0  0  0  0  0  0  0
  143.9511   73.9248  221.4815 H   0  0  0  0  0  0  0  0  0  0  0  0
  142.1390   74.6200  220.4690 C   0  0  1  0  0  0  0  0  0  0  0  0
  141.9172   75.1174  221.4247 H   0  0  0  0  0  0  0  0  0  0  0  0
  141.9800   75.6730  219.4000 C   0  0  0  0  0  0  0  0  0  0  0  0
  142.1820   75.3590  218.1950 O   0  0  0  0  0  0  0  0  0  0  0  0
  141.5790   77.0100  219.7390 N   0  0  0  0  0  0  0  0  0  0  0  0
  141.3600   77.2220  220.7380 H   0  0  0  0  0  0  0  0  0  0  0  0
  141.5800   78.1000  218.7560 C   0  0  1  0  0  0  0  0  0  0  0  0
  140.8621   77.8561  217.9591 H   0  0  0  0  0  0  0  0  0  0  0  0
  141.1410   79.4010  219.4000 C   0  0  0  0  0  0  0  0  0  0  0  0
  139.7800   79.6390  219.6610 C   0  0  0  0  0  0  0  0  0  0  0  0
  139.0327   78.8732  219.4058 H   0  0  0  0  0  0  0  0  0  0  0  0
  139.3700   80.8430  220.2430 C   0  0  0  0  0  0  0  0  0  0  0  0
  138.3035   81.0190  220.4469 H   0  0  0  0  0  0  0  0  0  0  0  0
  140.3130   81.8230  220.5660 C   0  0  0  0  0  0  0  0  0  0  0  0
  139.7950   83.3330  221.2940 Cl  0  0  0  0  0  0  0  0  0  0  0  0
  141.6690   81.5970  220.3110 C   0  0  0  0  0  0  0  0  0  0  0  0
  142.4116   82.3680  220.5642 H   0  0  0  0  0  0  0  0  0  0  0  0
  142.0820   80.3930  219.7350 C   0  0  0  0  0  0  0  0  0  0  0  0
  143.1508   80.2188  219.5418 H   0  0  0  0  0  0  0  0  0  0  0  0
  142.9720   78.2450  218.1290 C   0  0  0  0  0  0  0  0  0  0  0  0
  143.7266   78.3236  218.9255 H   0  0  0  0  0  0  0  0  0  0  0  0
  143.1870   77.3644  217.5059 H   0  0  0  0  0  0  0  0  0  0  0  0
  143.0009   79.1510  217.5059 H   0  0  0  0  0  0  0  0  0  0  0  0
  139.2270   73.4070  221.6840 C   0  0  0  0  0  0  0  0  0  0  0  0
  138.1947   73.0654  221.5178 H   0  0  0  0  0  0  0  0  0  0  0  0
  139.7613   72.6703  222.3019 H   0  0  0  0  0  0  0  0  0  0  0  0
  139.2090   74.6980  222.3700 N   0  0  0  0  0  0  0  0  0  0  0  0
  139.4990   74.7180  223.3730 H   0  0  0  0  0  0  0  0  0  0  0  0
  138.9900   75.9340  221.6740 C   0  0  0  0  0  0  0  0  0  0  0  0
  138.4500   75.9260  220.5360 O   0  0  0  0  0  0  0  0  0  0  0  0
  139.4040   77.2160  222.2800 C   0  0  0  0  0  0  0  0  0  0  0  0
  140.7260   77.5470  222.3130 N   0  0  0  0  0  0  0  0  0  0  0  0
  141.1640   78.7340  222.8110 C   0  0  0  0  0  0  0  0  0  0  0  0
  142.5310   79.0290  222.8210 C   0  0  0  0  0  0  0  0  0  0  0  0
  143.2547   78.2967  222.4336 H   0  0  0  0  0  0  0  0  0  0  0  0
  142.9780   80.2560  223.3240 C   0  0  0  0  0  0  0  0  0  0  0  0
  144.0535   80.4868  223.3301 H   0  0  0  0  0  0  0  0  0  0  0  0
  142.0620   81.1900  223.8190 C   0  0  0  0  0  0  0  0  0  0  0  0
  142.5020   82.3780  224.3050 F   0  0  0  0  0  0  0  0  0  0  0  0
  140.6910   80.9000  223.8170 C   0  0  0  0  0  0  0  0  0  0  0  0
  139.9724   81.6334  224.2116 H   0  0  0  0  0  0  0  0  0  0  0  0
  140.2360   79.6730  223.3110 C   0  0  0  0  0  0  0  0  0  0  0  0
  138.8720   79.3540  223.2920 C   0  0  0  0  0  0  0  0  0  0  0  0
  138.1325   80.0703  223.6793 H   0  0  0  0  0  0  0  0  0  0  0  0
  138.4540   78.1240  222.7800 C   0  0  0  0  0  0  0  0  0  0  0  0
  137.3847   77.8662  222.7679 H   0  0  0  0  0  0  0  0  0  0  0  0
  1  2  1  0
  2  3  1  0
  3  4  2  0
  4  5  1  0
  5  6  1  0
  5  7  1  0
  5  8  1  0
  8  9  1  6
  8 10  1  0
 10 11  1  0
  8 12  1  0
 12 13  1  0
 12 14  1  0
 12 15  1  0
 15 16  1  1
 15 17  1  0
 17 18  2  0
 17 19  1  0
 19 20  1  0
 19 21  1  0
 21 22  1  6
 21 23  1  0
 23 24  2  0
 24 25  1  0
 24 26  1  0
 26 27  1  0
 26 28  2  0
 28 29  1  0
 28 30  1  0
 30 31  1  0
 30 32  2  0
 32 33  1  0
 21 34  1  0
 34 35  1  0
 34 36  1  0
 34 37  1  0
  3 38  1  0
 38 39  1  0
 38 40  1  0
 38 41  1  0
 41 42  1  0
 41 43  1  0
 43 44  2  0
 43 45  1  0
 45 46  2  0
 46 47  1  0
 47 48  2  0
 48 49  1  0
 48 50  1  0
 50 51  1  0
 50 52  2  0
 52 53  1  0
 52 54  1  0
 54 55  1  0
 54 56  2  0
 56 57  1  0
 57 58  1  0
 57 59  2  0
 59 60  1  0
 15  4  1  0
 32 23  1  0
 59 45  1  0
 56 47  1  0
M  CHG  1   4   1
M  END
>  <UniqueID>  (68) 
83

>  <SMILES>  (68) 
C[C@@H](NC(=O)[C@@H]1C[C@@H](O)C/[N+]1=C(/O)CNC(=O)c1ccc2cc(F)ccc2n1)c1ccc(Cl)cc1

>  <Energy>  (68) 
61.2501450166287

>  <Genealogy>  (68) 
C[C@@H](NC(=O)[C@@H]1C[C@@H](O)C[NH+]1C(=O)CNC(=O)c1ccc2cc(F)ccc2n1)c1ccc(Cl)cc1 (protonated)
C[C@@H](NC(=O)[C@@H]1C[C@@H](O)C[N+]1=C(O)CNC(=O)c1ccc2cc(F)ccc2n1)c1ccc(Cl)cc1 (tautomer)
C[C@@H](NC(=O)[C@@H]1C[C@@H](O)C/[N+]1=C(/O)CNC(=O)c1ccc2cc(F)ccc2n1)c1ccc(Cl)cc1 (cis-trans isomerization)
C[C@@H](NC(=O)[C@@H]1C[C@@H](O)C/[N+]1=C(/O)CNC(=O)c1ccc2cc(F)ccc2n1)c1ccc(Cl)cc1 (3D coordinates assigned)
C[C@@H](NC(=O)[C@@H]1C[C@@H](O)C/[N+]1=C(/O)CNC(=O)c1ccc2cc(F)ccc2n1)c1ccc(Cl)cc1 (nonaromatic ring conformer: 61.2501450166287 kcal/mol)

>  <smiles>  (68) 
C[C@@H](NC(=O)[C@@H]1C[C@@H](O)CN1C(=O)CNC(=O)c1ccc2cc(F)ccc2n1)c1ccc(Cl)cc1

>  <score_type>  (68) 
oracle

>  <origin>  (68) 
autodockgpu

>  <m_score__min__energy>  (68) 
-9.3499999999999996

>  <m_primary>  (68) 
energy

>  <meeko>  (68) 
{"free_energy": -5.69, "intermolecular_energy": -8.38, "internal_energy": -4.99, "cluster_size": 4, "cluster_id": 3, "rank_in_cluster": 4}

>  <energy>  (68) 
-8.73

>  <cluster_rmsd>  (68) 
0.13

>  <rmsd>  (68) 
271.68

>  <cluster>  (68) 
2

$$$$
VISCJLQOHKTNMF-GXGKPUEPNA-O
     RDKit          3D

 60 63  0  0  0  0  0  0  0  0999 V2000
  138.9770   73.4570  222.7900 H   0  0  0  0  0  0  0  0  0  0  0  0
  139.9340   73.7690  222.7030 O   0  0  0  0  0  0  0  0  0  0  0  0
  140.6070   73.9060  221.4820 C   0  0  0  0  0  0  0  0  0  0  0  0
  140.9690   75.0890  221.0290 N   0  0  0  0  0  0  0  0  0  0  0  0
  141.7680   75.3000  219.8240 C   0  0  0  0  0  0  0  0  0  0  0  0
  141.2761   74.8380  218.9554 H   0  0  0  0  0  0  0  0  0  0  0  0
  142.7642   74.8437  219.9206 H   0  0  0  0  0  0  0  0  0  0  0  0
  141.8670   76.8120  219.6330 C   0  0  2  0  0  0  0  0  0  0  0  0
  141.2080   77.1533  218.8210 H   0  0  0  0  0  0  0  0  0  0  0  0
  143.1660   77.1990  219.2710 O   0  0  0  0  0  0  0  0  0  0  0  0
  143.6980   77.2090  220.1100 H   0  0  0  0  0  0  0  0  0  0  0  0
  141.4790   77.4220  220.9760 C   0  0  0  0  0  0  0  0  0  0  0  0
  140.8786   78.3312  220.8247 H   0  0  0  0  0  0  0  0  0  0  0  0
  142.3647   77.7124  221.5601 H   0  0  0  0  0  0  0  0  0  0  0  0
  140.6550   76.3530  221.6960 C   0  0  1  0  0  0  0  0  0  0  0  0
  140.9002   76.3147  222.7676 H   0  0  0  0  0  0  0  0  0  0  0  0
  139.1790   76.6550  221.6110 C   0  0  0  0  0  0  0  0  0  0  0  0
  138.7860   77.5890  220.8610 O   0  0  0  0  0  0  0  0  0  0  0  0
  138.2260   75.8770  222.3530 N   0  0  0  0  0  0  0  0  0  0  0  0
  138.5780   75.0720  222.9170 H   0  0  0  0  0  0  0  0  0  0  0  0
  136.8070   76.2460  222.4320 C   0  0  1  0  0  0  0  0  0  0  0  0
  136.3637   76.1574  221.4292 H   0  0  0  0  0  0  0  0  0  0  0  0
  136.0610   75.3050  223.3600 C   0  0  0  0  0  0  0  0  0  0  0  0
  135.3990   75.8070  224.4950 C   0  0  0  0  0  0  0  0  0  0  0  0
  135.4149   76.8868  224.7041 H   0  0  0  0  0  0  0  0  0  0  0  0
  134.7210   74.9420  225.3590 C   0  0  0  0  0  0  0  0  0  0  0  0
  134.2026   75.3439  226.2420 H   0  0  0  0  0  0  0  0  0  0  0  0
  134.7000   73.5680  225.1040 C   0  0  0  0  0  0  0  0  0  0  0  0
  133.8510   72.4840  226.1920 Cl  0  0  0  0  0  0  0  0  0  0  0  0
  135.3550   73.0580  223.9780 C   0  0  0  0  0  0  0  0  0  0  0  0
  135.3403   71.9767  223.7765 H   0  0  0  0  0  0  0  0  0  0  0  0
  136.0280   73.9210  223.1090 C   0  0  0  0  0  0  0  0  0  0  0  0
  136.5359   73.5151  222.2217 H   0  0  0  0  0  0  0  0  0  0  0  0
  136.6640   77.6980  222.9000 C   0  0  0  0  0  0  0  0  0  0  0  0
  136.6608   77.7302  223.9995 H   0  0  0  0  0  0  0  0  0  0  0  0
  137.5081   78.2911  222.5182 H   0  0  0  0  0  0  0  0  0  0  0  0
  135.7204   78.1150  222.5182 H   0  0  0  0  0  0  0  0  0  0  0  0
  140.8680   72.6260  220.7280 C   0  0  0  0  0  0  0  0  0  0  0  0
  140.0972   72.4920  219.9547 H   0  0  0  0  0  0  0  0  0  0  0  0
  141.8587   72.6753  220.2526 H   0  0  0  0  0  0  0  0  0  0  0  0
  140.8280   71.4980  221.6570 N   0  0  0  0  0  0  0  0  0  0  0  0
  141.7330   71.0370  221.8980 H   0  0  0  0  0  0  0  0  0  0  0  0
  139.6370   71.1330  222.3700 C   0  0  0  0  0  0  0  0  0  0  0  0
  138.5130   71.5260  221.9580 O   0  0  0  0  0  0  0  0  0  0  0  0
  139.7210   70.3060  223.5920 C   0  0  0  0  0  0  0  0  0  0  0  0
  140.3180   70.8160  224.7070 N   0  0  0  0  0  0  0  0  0  0  0  0
  140.3810   70.1230  225.8750 C   0  0  0  0  0  0  0  0  0  0  0  0
  141.0010   70.6900  226.9930 C   0  0  0  0  0  0  0  0  0  0  0  0
  141.4461   71.6937  226.9254 H   0  0  0  0  0  0  0  0  0  0  0  0
  141.0550   69.9800  228.1980 C   0  0  0  0  0  0  0  0  0  0  0  0
  141.5417   70.4282  229.0767 H   0  0  0  0  0  0  0  0  0  0  0  0
  140.4920   68.7020  228.2890 C   0  0  0  0  0  0  0  0  0  0  0  0
  140.5470   68.0190  229.4590 F   0  0  0  0  0  0  0  0  0  0  0  0
  139.8730   68.1270  227.1710 C   0  0  0  0  0  0  0  0  0  0  0  0
  139.4347   67.1206  227.2423 H   0  0  0  0  0  0  0  0  0  0  0  0
  139.8120   68.8340  225.9610 C   0  0  0  0  0  0  0  0  0  0  0  0
  139.1980   68.2880  224.8270 C   0  0  0  0  0  0  0  0  0  0  0  0
  138.7514   67.2837  224.8716 H   0  0  0  0  0  0  0  0  0  0  0  0
  139.1540   69.0210  223.6400 C   0  0  0  0  0  0  0  0  0  0  0  0
  138.6772   68.5944  222.7452 H   0  0  0  0  0  0  0  0  0  0  0  0
  1  2  1  0
  2  3  1  0
  3  4  2  0
  4  5  1  0
  5  6  1  0
  5  7  1  0
  5  8  1  0
  8  9  1  6
  8 10  1  0
 10 11  1  0
  8 12  1  0
 12 13  1  0
 12 14  1  0
 12 15  1  0
 15 16  1  1
 15 17  1  0
 17 18  2  0
 17 19  1  0
 19 20  1  0
 19 21  1  0
 21 22  1  6
 21 23  1  0
 23 24  2  0
 24 25  1  0
 24 26  1  0
 26 27  1  0
 26 28  2  0
 28 29  1  0
 28 30  1  0
 30 31  1  0
 30 32  2  0
 32 33  1  0
 21 34  1  0
 34 35  1  0
 34 36  1  0
 34 37  1  0
  3 38  1  0
 38 39  1  0
 38 40  1  0
 38 41  1  0
 41 42  1  0
 41 43  1  0
 43 44  2  0
 43 45  1  0
 45 46  2  0
 46 47  1  0
 47 48  2  0
 48 49  1  0
 48 50  1  0
 50 51  1  0
 50 52  2  0
 52 53  1  0
 52 54  1  0
 54 55  1  0
 54 56  2  0
 56 57  1  0
 57 58  1  0
 57 59  2  0
 59 60  1  0
 15  4  1  0
 32 23  1  0
 59 45  1  0
 56 47  1  0
M  CHG  1   4   1
M  END
>  <UniqueID>  (69) 
83

>  <SMILES>  (69) 
C[C@@H](NC(=O)[C@@H]1C[C@@H](O)C/[N+]1=C(/O)CNC(=O)c1ccc2cc(F)ccc2n1)c1ccc(Cl)cc1

>  <Energy>  (69) 
61.2501450166287

>  <Genealogy>  (69) 
C[C@@H](NC(=O)[C@@H]1C[C@@H](O)C[NH+]1C(=O)CNC(=O)c1ccc2cc(F)ccc2n1)c1ccc(Cl)cc1 (protonated)
C[C@@H](NC(=O)[C@@H]1C[C@@H](O)C[N+]1=C(O)CNC(=O)c1ccc2cc(F)ccc2n1)c1ccc(Cl)cc1 (tautomer)
C[C@@H](NC(=O)[C@@H]1C[C@@H](O)C/[N+]1=C(/O)CNC(=O)c1ccc2cc(F)ccc2n1)c1ccc(Cl)cc1 (cis-trans isomerization)
C[C@@H](NC(=O)[C@@H]1C[C@@H](O)C/[N+]1=C(/O)CNC(=O)c1ccc2cc(F)ccc2n1)c1ccc(Cl)cc1 (3D coordinates assigned)
C[C@@H](NC(=O)[C@@H]1C[C@@H](O)C/[N+]1=C(/O)CNC(=O)c1ccc2cc(F)ccc2n1)c1ccc(Cl)cc1 (nonaromatic ring conformer: 61.2501450166287 kcal/mol)

>  <smiles>  (69) 
C[C@@H](NC(=O)[C@@H]1C[C@@H](O)CN1C(=O)CNC(=O)c1ccc2cc(F)ccc2n1)c1ccc(Cl)cc1

>  <score_type>  (69) 
oracle

>  <origin>  (69) 
autodockgpu

>  <m_score__min__energy>  (69) 
-9.3499999999999996

>  <m_primary>  (69) 
energy

>  <meeko>  (69) 
{"free_energy": -8.73, "intermolecular_energy": -11.42, "internal_energy": -2.79, "cluster_size": 3, "cluster_id": 2, "rank_in_cluster": 3}

>  <energy>  (69) 
-6.98

>  <cluster_rmsd>  (69) 
0.0

>  <rmsd>  (69) 
272.06

>  <cluster>  (69) 
3

$$$$
VISCJLQOHKTNMF-GXGKPUEPNA-O
     RDKit          3D

 60 63  0  0  0  0  0  0  0  0999 V2000
  138.5300   75.3060  223.3000 H   0  0  0  0  0  0  0  0  0  0  0  0
  137.7180   75.4710  222.7220 O   0  0  0  0  0  0  0  0  0  0  0  0
  137.3380   74.6540  221.6510 C   0  0  0  0  0  0  0  0  0  0  0  0
  136.4280   73.7120  221.7960 N   0  0  0  0  0  0  0  0  0  0  0  0
  135.3100   73.4990  220.8810 C   0  0  0  0  0  0  0  0  0  0  0  0
  135.6809   73.3353  219.8584 H   0  0  0  0  0  0  0  0  0  0  0  0
  134.6436   74.3738  220.8543 H   0  0  0  0  0  0  0  0  0  0  0  0
  134.5750   72.2570  221.3820 C   0  0  2  0  0  0  0  0  0  0  0  0
  134.7916   71.3851  220.7472 H   0  0  0  0  0  0  0  0  0  0  0  0
  133.1840   72.4340  221.3430 O   0  0  0  0  0  0  0  0  0  0  0  0
  132.8330   71.7510  220.7130 H   0  0  0  0  0  0  0  0  0  0  0  0
  135.0490   72.0500  222.8160 C   0  0  0  0  0  0  0  0  0  0  0  0
  135.1746   70.9778  223.0270 H   0  0  0  0  0  0  0  0  0  0  0  0
  134.3217   72.4401  223.5433 H   0  0  0  0  0  0  0  0  0  0  0  0
  136.3920   72.7740  222.9190 C   0  0  1  0  0  0  0  0  0  0  0  0
  136.4915   73.2950  223.8827 H   0  0  0  0  0  0  0  0  0  0  0  0
  137.5430   71.8000  222.8450 C   0  0  0  0  0  0  0  0  0  0  0  0
  137.2990   70.5700  222.7150 O   0  0  0  0  0  0  0  0  0  0  0  0
  138.9020   72.2640  222.8970 N   0  0  0  0  0  0  0  0  0  0  0  0
  139.0720   73.2930  222.9430 H   0  0  0  0  0  0  0  0  0  0  0  0
  140.0400   71.3410  223.0010 C   0  0  1  0  0  0  0  0  0  0  0  0
  140.9697   71.9079  222.8450 H   0  0  0  0  0  0  0  0  0  0  0  0
  140.0980   70.7180  224.3830 C   0  0  0  0  0  0  0  0  0  0  0  0
  140.6810   71.4190  225.4530 C   0  0  0  0  0  0  0  0  0  0  0  0
  141.0881   72.4275  225.2881 H   0  0  0  0  0  0  0  0  0  0  0  0
  140.7470   70.8430  226.7260 C   0  0  0  0  0  0  0  0  0  0  0  0
  141.2004   71.4012  227.5584 H   0  0  0  0  0  0  0  0  0  0  0  0
  140.2380   69.5600  226.9420 C   0  0  0  0  0  0  0  0  0  0  0  0
  140.3260   68.8370  228.5390 Cl  0  0  0  0  0  0  0  0  0  0  0  0
  139.6560   68.8530  225.8850 C   0  0  0  0  0  0  0  0  0  0  0  0
  139.2560   67.8424  226.0543 H   0  0  0  0  0  0  0  0  0  0  0  0
  139.5820   69.4290  224.6140 C   0  0  0  0  0  0  0  0  0  0  0  0
  139.1171   68.8709  223.7879 H   0  0  0  0  0  0  0  0  0  0  0  0
  139.9430   70.2600  221.9190 C   0  0  0  0  0  0  0  0  0  0  0  0
  139.8543   69.2721  222.3946 H   0  0  0  0  0  0  0  0  0  0  0  0
  139.0580   70.4463  221.2929 H   0  0  0  0  0  0  0  0  0  0  0  0
  140.8471   70.2857  221.2929 H   0  0  0  0  0  0  0  0  0  0  0  0
  138.0440   74.9140  220.3430 C   0  0  0  0  0  0  0  0  0  0  0  0
  137.3728   74.6652  219.5078 H   0  0  0  0  0  0  0  0  0  0  0  0
  138.3256   75.9756  220.2820 H   0  0  0  0  0  0  0  0  0  0  0  0
  139.2450   74.0850  220.2670 N   0  0  0  0  0  0  0  0  0  0  0  0
  139.3580   73.4710  219.4300 H   0  0  0  0  0  0  0  0  0  0  0  0
  140.3330   74.2230  221.1930 C   0  0  0  0  0  0  0  0  0  0  0  0
  140.1460   74.7920  222.3010 O   0  0  0  0  0  0  0  0  0  0  0  0
  141.6760   73.7120  220.8500 C   0  0  0  0  0  0  0  0  0  0  0  0
  141.8290   72.3990  220.5150 N   0  0  0  0  0  0  0  0  0  0  0  0
  143.0300   71.8820  220.1420 C   0  0  0  0  0  0  0  0  0  0  0  0
  143.1360   70.5280  219.8050 C   0  0  0  0  0  0  0  0  0  0  0  0
  142.2494   69.8785  219.8507 H   0  0  0  0  0  0  0  0  0  0  0  0
  144.3700   70.0010  219.4100 C   0  0  0  0  0  0  0  0  0  0  0  0
  144.4511   68.9368  219.1438 H   0  0  0  0  0  0  0  0  0  0  0  0
  145.5020   70.8220  219.3520 C   0  0  0  0  0  0  0  0  0  0  0  0
  146.6950   70.3050  218.9690 F   0  0  0  0  0  0  0  0  0  0  0  0
  145.4040   72.1780  219.6930 C   0  0  0  0  0  0  0  0  0  0  0  0
  146.2951   72.8216  219.6516 H   0  0  0  0  0  0  0  0  0  0  0  0
  144.1690   72.7140  220.0870 C   0  0  0  0  0  0  0  0  0  0  0  0
  144.0370   74.0650  220.4300 C   0  0  0  0  0  0  0  0  0  0  0  0
  144.9122   74.7304  220.3955 H   0  0  0  0  0  0  0  0  0  0  0  0
  142.7920   74.5660  220.8160 C   0  0  0  0  0  0  0  0  0  0  0  0
  142.6850   75.6253  221.0925 H   0  0  0  0  0  0  0  0  0  0  0  0
  1  2  1  0
  2  3  1  0
  3  4  2  0
  4  5  1  0
  5  6  1  0
  5  7  1  0
  5  8  1  0
  8  9  1  6
  8 10  1  0
 10 11  1  0
  8 12  1  0
 12 13  1  0
 12 14  1  0
 12 15  1  0
 15 16  1  1
 15 17  1  0
 17 18  2  0
 17 19  1  0
 19 20  1  0
 19 21  1  0
 21 22  1  6
 21 23  1  0
 23 24  2  0
 24 25  1  0
 24 26  1  0
 26 27  1  0
 26 28  2  0
 28 29  1  0
 28 30  1  0
 30 31  1  0
 30 32  2  0
 32 33  1  0
 21 34  1  0
 34 35  1  0
 34 36  1  0
 34 37  1  0
  3 38  1  0
 38 39  1  0
 38 40  1  0
 38 41  1  0
 41 42  1  0
 41 43  1  0
 43 44  2  0
 43 45  1  0
 45 46  2  0
 46 47  1  0
 47 48  2  0
 48 49  1  0
 48 50  1  0
 50 51  1  0
 50 52  2  0
 52 53  1  0
 52 54  1  0
 54 55  1  0
 54 56  2  0
 56 57  1  0
 57 58  1  0
 57 59  2  0
 59 60  1  0
 15  4  1  0
 32 23  1  0
 59 45  1  0
 56 47  1  0
M  CHG  1   4   1
M  END
>  <UniqueID>  (70) 
83

>  <SMILES>  (70) 
C[C@@H](NC(=O)[C@@H]1C[C@@H](O)C/[N+]1=C(/O)CNC(=O)c1ccc2cc(F)ccc2n1)c1ccc(Cl)cc1

>  <Energy>  (70) 
61.2501450166287

>  <Genealogy>  (70) 
C[C@@H](NC(=O)[C@@H]1C[C@@H](O)C[NH+]1C(=O)CNC(=O)c1ccc2cc(F)ccc2n1)c1ccc(Cl)cc1 (protonated)
C[C@@H](NC(=O)[C@@H]1C[C@@H](O)C[N+]1=C(O)CNC(=O)c1ccc2cc(F)ccc2n1)c1ccc(Cl)cc1 (tautomer)
C[C@@H](NC(=O)[C@@H]1C[C@@H](O)C/[N+]1=C(/O)CNC(=O)c1ccc2cc(F)ccc2n1)c1ccc(Cl)cc1 (cis-trans isomerization)
C[C@@H](NC(=O)[C@@H]1C[C@@H](O)C/[N+]1=C(/O)CNC(=O)c1ccc2cc(F)ccc2n1)c1ccc(Cl)cc1 (3D coordinates assigned)
C[C@@H](NC(=O)[C@@H]1C[C@@H](O)C/[N+]1=C(/O)CNC(=O)c1ccc2cc(F)ccc2n1)c1ccc(Cl)cc1 (nonaromatic ring conformer: 61.2501450166287 kcal/mol)

>  <smiles>  (70) 
C[C@@H](NC(=O)[C@@H]1C[C@@H](O)CN1C(=O)CNC(=O)c1ccc2cc(F)ccc2n1)c1ccc(Cl)cc1

>  <score_type>  (70) 
oracle

>  <origin>  (70) 
autodockgpu

>  <m_score__min__energy>  (70) 
-9.3499999999999996

>  <m_primary>  (70) 
energy

>  <meeko>  (70) 
{"free_energy": -6.89, "intermolecular_energy": -9.58, "internal_energy": -3.68, "cluster_size": 2, "cluster_id": 4, "rank_in_cluster": 1}

>  <energy>  (70) 
-6.13

>  <cluster_rmsd>  (70) 
1.11

>  <rmsd>  (70) 
271.72

>  <cluster>  (70) 
3

$$$$
VISCJLQOHKTNMF-GXGKPUEPNA-O
     RDKit          3D

 60 63  0  0  0  0  0  0  0  0999 V2000
  140.2380   76.0530  217.6650 H   0  0  0  0  0  0  0  0  0  0  0  0
  140.8430   75.2750  217.8890 O   0  0  0  0  0  0  0  0  0  0  0  0
  142.1210   75.4100  218.4440 C   0  0  0  0  0  0  0  0  0  0  0  0
  142.5730   74.5560  219.3400 N   0  0  0  0  0  0  0  0  0  0  0  0
  143.9880   74.3310  219.6240 C   0  0  0  0  0  0  0  0  0  0  0  0
  144.4735   75.2756  219.9104 H   0  0  0  0  0  0  0  0  0  0  0  0
  144.5156   73.9430  218.7402 H   0  0  0  0  0  0  0  0  0  0  0  0
  144.0420   73.3370  220.7820 C   0  0  2  0  0  0  0  0  0  0  0  0
  144.3037   73.8409  221.7241 H   0  0  0  0  0  0  0  0  0  0  0  0
  145.0270   72.3590  220.5740 O   0  0  0  0  0  0  0  0  0  0  0  0
  145.1200   71.8700  221.4330 H   0  0  0  0  0  0  0  0  0  0  0  0
  142.6580   72.6990  220.8410 C   0  0  0  0  0  0  0  0  0  0  0  0
  142.3501   72.5476  221.8861 H   0  0  0  0  0  0  0  0  0  0  0  0
  142.6452   71.7128  220.3538 H   0  0  0  0  0  0  0  0  0  0  0  0
  141.7160   73.6840  220.1450 C   0  0  1  0  0  0  0  0  0  0  0  0
  140.9775   73.1582  219.5220 H   0  0  0  0  0  0  0  0  0  0  0  0
  140.9260   74.4850  221.1520 C   0  0  0  0  0  0  0  0  0  0  0  0
  140.7550   74.0170  222.3100 O   0  0  0  0  0  0  0  0  0  0  0  0
  140.3940   75.7750  220.8090 N   0  0  0  0  0  0  0  0  0  0  0  0
  140.6050   76.1610  219.8620 H   0  0  0  0  0  0  0  0  0  0  0  0
  139.4800   76.5050  221.6970 C   0  0  1  0  0  0  0  0  0  0  0  0
  139.2014   75.8481  222.5342 H   0  0  0  0  0  0  0  0  0  0  0  0
  140.1600   77.7320  222.2720 C   0  0  0  0  0  0  0  0  0  0  0  0
  139.4380   78.6300  223.0790 C   0  0  0  0  0  0  0  0  0  0  0  0
  138.3785   78.4346  223.3008 H   0  0  0  0  0  0  0  0  0  0  0  0
  140.0580   79.7690  223.6010 C   0  0  0  0  0  0  0  0  0  0  0  0
  139.4863   80.4631  224.2346 H   0  0  0  0  0  0  0  0  0  0  0  0
  141.4020   80.0280  223.3200 C   0  0  0  0  0  0  0  0  0  0  0  0
  142.1770   81.4610  223.9730 Cl  0  0  0  0  0  0  0  0  0  0  0  0
  142.1300   79.1430  222.5180 C   0  0  0  0  0  0  0  0  0  0  0  0
  143.1878   79.3466  222.2951 H   0  0  0  0  0  0  0  0  0  0  0  0
  141.5150   78.0010  222.0000 C   0  0  0  0  0  0  0  0  0  0  0  0
  142.0941   77.3059  221.3743 H   0  0  0  0  0  0  0  0  0  0  0  0
  138.2060   76.8930  220.9380 C   0  0  0  0  0  0  0  0  0  0  0  0
  137.4100   77.1354  221.6575 H   0  0  0  0  0  0  0  0  0  0  0  0
  138.4085   77.7702  220.3059 H   0  0  0  0  0  0  0  0  0  0  0  0
  137.8852   76.0518  220.3059 H   0  0  0  0  0  0  0  0  0  0  0  0
  142.9250   76.5930  217.9640 C   0  0  0  0  0  0  0  0  0  0  0  0
  143.9980   76.3736  218.0670 H   0  0  0  0  0  0  0  0  0  0  0  0
  142.6920   76.7913  216.9074 H   0  0  0  0  0  0  0  0  0  0  0  0
  142.5880   77.7670  218.7670 N   0  0  0  0  0  0  0  0  0  0  0  0
  143.3680   78.2620  219.2530 H   0  0  0  0  0  0  0  0  0  0  0  0
  141.2770   78.3520  218.7600 C   0  0  0  0  0  0  0  0  0  0  0  0
  140.2910   77.6770  218.3590 O   0  0  0  0  0  0  0  0  0  0  0  0
  141.0770   79.7450  219.2080 C   0  0  0  0  0  0  0  0  0  0  0  0
  139.9990   80.0510  219.9840 N   0  0  0  0  0  0  0  0  0  0  0  0
  139.7880   81.3040  220.4690 C   0  0  0  0  0  0  0  0  0  0  0  0
  138.6680   81.5690  221.2640 C   0  0  0  0  0  0  0  0  0  0  0  0
  137.9514   80.7656  221.4899 H   0  0  0  0  0  0  0  0  0  0  0  0
  138.4590   82.8560  221.7720 C   0  0  0  0  0  0  0  0  0  0  0  0
  137.5783   83.0620  222.3981 H   0  0  0  0  0  0  0  0  0  0  0  0
  139.3670   83.8820  221.4860 C   0  0  0  0  0  0  0  0  0  0  0  0
  139.1590   85.1270  221.9810 F   0  0  0  0  0  0  0  0  0  0  0  0
  140.4890   83.6250  220.6870 C   0  0  0  0  0  0  0  0  0  0  0  0
  141.1994   84.4335  220.4597 H   0  0  0  0  0  0  0  0  0  0  0  0
  140.7060   82.3360  220.1770 C   0  0  0  0  0  0  0  0  0  0  0  0
  141.8190   82.0460  219.3780 C   0  0  0  0  0  0  0  0  0  0  0  0
  142.5450   82.8362  219.1361 H   0  0  0  0  0  0  0  0  0  0  0  0
  142.0050   80.7510  218.8890 C   0  0  0  0  0  0  0  0  0  0  0  0
  142.8747   80.5194  218.2565 H   0  0  0  0  0  0  0  0  0  0  0  0
  1  2  1  0
  2  3  1  0
  3  4  2  0
  4  5  1  0
  5  6  1  0
  5  7  1  0
  5  8  1  0
  8  9  1  1
  8 10  1  0
 10 11  1  0
  8 12  1  0
 12 13  1  0
 12 14  1  0
 12 15  1  0
 15 16  1  6
 15 17  1  0
 17 18  2  0
 17 19  1  0
 19 20  1  0
 19 21  1  0
 21 22  1  1
 21 23  1  0
 23 24  2  0
 24 25  1  0
 24 26  1  0
 26 27  1  0
 26 28  2  0
 28 29  1  0
 28 30  1  0
 30 31  1  0
 30 32  2  0
 32 33  1  0
 21 34  1  0
 34 35  1  0
 34 36  1  0
 34 37  1  0
  3 38  1  0
 38 39  1  0
 38 40  1  0
 38 41  1  0
 41 42  1  0
 41 43  1  0
 43 44  2  0
 43 45  1  0
 45 46  2  0
 46 47  1  0
 47 48  2  0
 48 49  1  0
 48 50  1  0
 50 51  1  0
 50 52  2  0
 52 53  1  0
 52 54  1  0
 54 55  1  0
 54 56  2  0
 56 57  1  0
 57 58  1  0
 57 59  2  0
 59 60  1  0
 15  4  1  0
 32 23  1  0
 59 45  1  0
 56 47  1  0
M  CHG  1   4   1
M  END
>  <UniqueID>  (71) 
83

>  <SMILES>  (71) 
C[C@@H](NC(=O)[C@@H]1C[C@@H](O)C/[N+]1=C(/O)CNC(=O)c1ccc2cc(F)ccc2n1)c1ccc(Cl)cc1

>  <Energy>  (71) 
61.2501450166287

>  <Genealogy>  (71) 
C[C@@H](NC(=O)[C@@H]1C[C@@H](O)C[NH+]1C(=O)CNC(=O)c1ccc2cc(F)ccc2n1)c1ccc(Cl)cc1 (protonated)
C[C@@H](NC(=O)[C@@H]1C[C@@H](O)C[N+]1=C(O)CNC(=O)c1ccc2cc(F)ccc2n1)c1ccc(Cl)cc1 (tautomer)
C[C@@H](NC(=O)[C@@H]1C[C@@H](O)C/[N+]1=C(/O)CNC(=O)c1ccc2cc(F)ccc2n1)c1ccc(Cl)cc1 (cis-trans isomerization)
C[C@@H](NC(=O)[C@@H]1C[C@@H](O)C/[N+]1=C(/O)CNC(=O)c1ccc2cc(F)ccc2n1)c1ccc(Cl)cc1 (3D coordinates assigned)
C[C@@H](NC(=O)[C@@H]1C[C@@H](O)C/[N+]1=C(/O)CNC(=O)c1ccc2cc(F)ccc2n1)c1ccc(Cl)cc1 (nonaromatic ring conformer: 61.2501450166287 kcal/mol)

>  <smiles>  (71) 
C[C@@H](NC(=O)[C@@H]1C[C@@H](O)CN1C(=O)CNC(=O)c1ccc2cc(F)ccc2n1)c1ccc(Cl)cc1

>  <score_type>  (71) 
oracle

>  <origin>  (71) 
autodockgpu

>  <m_score__min__energy>  (71) 
-9.3499999999999996

>  <m_primary>  (71) 
energy

>  <meeko>  (71) 
{"free_energy": -6.49, "intermolecular_energy": -9.17, "internal_energy": -5.34, "cluster_size": 4, "cluster_id": 5, "rank_in_cluster": 4}

>  <energy>  (71) 
-5.96

>  <cluster_rmsd>  (71) 
1.34

>  <rmsd>  (71) 
271.57

>  <cluster>  (71) 
3

$$$$
VISCJLQOHKTNMF-GXGKPUEPNA-O
     RDKit          3D

 60 63  0  0  0  0  0  0  0  0999 V2000
  138.9490   73.4480  222.8200 H   0  0  0  0  0  0  0  0  0  0  0  0
  139.9060   73.7500  222.7040 O   0  0  0  0  0  0  0  0  0  0  0  0
  140.5450   73.8770  221.4650 C   0  0  0  0  0  0  0  0  0  0  0  0
  140.9190   75.0530  221.0040 N   0  0  0  0  0  0  0  0  0  0  0  0
  141.7020   75.2500  219.7870 C   0  0  0  0  0  0  0  0  0  0  0  0
  141.1896   74.7939  218.9271 H   0  0  0  0  0  0  0  0  0  0  0  0
  142.6926   74.7791  219.8700 H   0  0  0  0  0  0  0  0  0  0  0  0
  141.8220   76.7600  219.5900 C   0  0  2  0  0  0  0  0  0  0  0  0
  141.1571   77.1097  218.7865 H   0  0  0  0  0  0  0  0  0  0  0  0
  143.1210   77.1260  219.2090 O   0  0  0  0  0  0  0  0  0  0  0  0
  143.5430   77.5350  220.0110 H   0  0  0  0  0  0  0  0  0  0  0  0
  141.4640   77.3780  220.9380 C   0  0  0  0  0  0  0  0  0  0  0  0
  140.8761   78.2965  220.7942 H   0  0  0  0  0  0  0  0  0  0  0  0
  142.3633   77.6546  221.5080 H   0  0  0  0  0  0  0  0  0  0  0  0
  140.6340   76.3240  221.6730 C   0  0  1  0  0  0  0  0  0  0  0  0
  140.8940   76.2850  222.7411 H   0  0  0  0  0  0  0  0  0  0  0  0
  139.1620   76.6480  221.6090 C   0  0  0  0  0  0  0  0  0  0  0  0
  138.7590   77.5140  220.7850 O   0  0  0  0  0  0  0  0  0  0  0  0
  138.2220   75.9670  222.4560 N   0  0  0  0  0  0  0  0  0  0  0  0
  138.5790   75.2130  223.0840 H   0  0  0  0  0  0  0  0  0  0  0  0
  136.8140   76.3730  222.5470 C   0  0  1  0  0  0  0  0  0  0  0  0
  136.3653   76.3141  221.5444 H   0  0  0  0  0  0  0  0  0  0  0  0
  136.0460   75.4370  223.4610 C   0  0  0  0  0  0  0  0  0  0  0  0
  135.9950   74.0590  223.1840 C   0  0  0  0  0  0  0  0  0  0  0  0
  136.5228   73.6584  222.3060 H   0  0  0  0  0  0  0  0  0  0  0  0
  135.2780   73.1950  224.0170 C   0  0  0  0  0  0  0  0  0  0  0  0
  135.2467   72.1183  223.7942 H   0  0  0  0  0  0  0  0  0  0  0  0
  134.6010   73.6960  225.1320 C   0  0  0  0  0  0  0  0  0  0  0  0
  133.6990   72.6100  226.1750 Cl  0  0  0  0  0  0  0  0  0  0  0  0
  134.6450   75.0640  225.4180 C   0  0  0  0  0  0  0  0  0  0  0  0
  134.1115   75.4595  226.2949 H   0  0  0  0  0  0  0  0  0  0  0  0
  135.3660   75.9290  224.5910 C   0  0  0  0  0  0  0  0  0  0  0  0
  135.4026   77.0032  224.8248 H   0  0  0  0  0  0  0  0  0  0  0  0
  136.7120   77.8200  223.0410 C   0  0  0  0  0  0  0  0  0  0  0  0
  136.7111   77.8327  224.1409 H   0  0  0  0  0  0  0  0  0  0  0  0
  137.5718   78.3961  222.6683 H   0  0  0  0  0  0  0  0  0  0  0  0
  135.7799   78.2698  222.6683 H   0  0  0  0  0  0  0  0  0  0  0  0
  140.7560   72.5940  220.7000 C   0  0  0  0  0  0  0  0  0  0  0  0
  139.9538   72.4736  219.9571 H   0  0  0  0  0  0  0  0  0  0  0  0
  141.7282   72.6282  220.1866 H   0  0  0  0  0  0  0  0  0  0  0  0
  140.7340   71.4660  221.6280 N   0  0  0  0  0  0  0  0  0  0  0  0
  141.6410   70.9920  221.8370 H   0  0  0  0  0  0  0  0  0  0  0  0
  139.5650   71.1150  222.3830 C   0  0  0  0  0  0  0  0  0  0  0  0
  138.4320   71.5240  222.0120 O   0  0  0  0  0  0  0  0  0  0  0  0
  139.6810   70.2860  223.6000 C   0  0  0  0  0  0  0  0  0  0  0  0
  140.2820   70.8030  224.7100 N   0  0  0  0  0  0  0  0  0  0  0  0
  140.3740   70.1080  225.8740 C   0  0  0  0  0  0  0  0  0  0  0  0
  140.9980   70.6830  226.9860 C   0  0  0  0  0  0  0  0  0  0  0  0
  141.4226   71.6954  226.9163 H   0  0  0  0  0  0  0  0  0  0  0  0
  141.0820   69.9700  228.1870 C   0  0  0  0  0  0  0  0  0  0  0  0
  141.5720   70.4244  229.0607 H   0  0  0  0  0  0  0  0  0  0  0  0
  140.5450   68.6810  228.2810 C   0  0  0  0  0  0  0  0  0  0  0  0
  140.6290   67.9950  229.4470 F   0  0  0  0  0  0  0  0  0  0  0  0
  139.9230   68.0970  227.1690 C   0  0  0  0  0  0  0  0  0  0  0  0
  139.5055   67.0819  227.2422 H   0  0  0  0  0  0  0  0  0  0  0  0
  139.8330   68.8070  225.9630 C   0  0  0  0  0  0  0  0  0  0  0  0
  139.2140   68.2530  224.8350 C   0  0  0  0  0  0  0  0  0  0  0  0
  138.7865   67.2406  224.8821 H   0  0  0  0  0  0  0  0  0  0  0  0
  139.1410   68.9890  223.6510 C   0  0  0  0  0  0  0  0  0  0  0  0
  138.6624   68.5554  222.7606 H   0  0  0  0  0  0  0  0  0  0  0  0
  1  2  1  0
  2  3  1  0
  3  4  2  0
  4  5  1  0
  5  6  1  0
  5  7  1  0
  5  8  1  0
  8  9  1  6
  8 10  1  0
 10 11  1  0
  8 12  1  0
 12 13  1  0
 12 14  1  0
 12 15  1  0
 15 16  1  1
 15 17  1  0
 17 18  2  0
 17 19  1  0
 19 20  1  0
 19 21  1  0
 21 22  1  6
 21 23  1  0
 23 24  2  0
 24 25  1  0
 24 26  1  0
 26 27  1  0
 26 28  2  0
 28 29  1  0
 28 30  1  0
 30 31  1  0
 30 32  2  0
 32 33  1  0
 21 34  1  0
 34 35  1  0
 34 36  1  0
 34 37  1  0
  3 38  1  0
 38 39  1  0
 38 40  1  0
 38 41  1  0
 41 42  1  0
 41 43  1  0
 43 44  2  0
 43 45  1  0
 45 46  2  0
 46 47  1  0
 47 48  2  0
 48 49  1  0
 48 50  1  0
 50 51  1  0
 50 52  2  0
 52 53  1  0
 52 54  1  0
 54 55  1  0
 54 56  2  0
 56 57  1  0
 57 58  1  0
 57 59  2  0
 59 60  1  0
 15  4  1  0
 32 23  1  0
 59 45  1  0
 56 47  1  0
M  CHG  1   4   1
M  END
>  <UniqueID>  (72) 
83

>  <SMILES>  (72) 
C[C@@H](NC(=O)[C@@H]1C[C@@H](O)C/[N+]1=C(/O)CNC(=O)c1ccc2cc(F)ccc2n1)c1ccc(Cl)cc1

>  <Energy>  (72) 
61.2501450166287

>  <Genealogy>  (72) 
C[C@@H](NC(=O)[C@@H]1C[C@@H](O)C[NH+]1C(=O)CNC(=O)c1ccc2cc(F)ccc2n1)c1ccc(Cl)cc1 (protonated)
C[C@@H](NC(=O)[C@@H]1C[C@@H](O)C[N+]1=C(O)CNC(=O)c1ccc2cc(F)ccc2n1)c1ccc(Cl)cc1 (tautomer)
C[C@@H](NC(=O)[C@@H]1C[C@@H](O)C/[N+]1=C(/O)CNC(=O)c1ccc2cc(F)ccc2n1)c1ccc(Cl)cc1 (cis-trans isomerization)
C[C@@H](NC(=O)[C@@H]1C[C@@H](O)C/[N+]1=C(/O)CNC(=O)c1ccc2cc(F)ccc2n1)c1ccc(Cl)cc1 (3D coordinates assigned)
C[C@@H](NC(=O)[C@@H]1C[C@@H](O)C/[N+]1=C(/O)CNC(=O)c1ccc2cc(F)ccc2n1)c1ccc(Cl)cc1 (nonaromatic ring conformer: 61.2501450166287 kcal/mol)

>  <smiles>  (72) 
C[C@@H](NC(=O)[C@@H]1C[C@@H](O)CN1C(=O)CNC(=O)c1ccc2cc(F)ccc2n1)c1ccc(Cl)cc1

>  <score_type>  (72) 
oracle

>  <origin>  (72) 
autodockgpu

>  <m_score__min__energy>  (72) 
-9.3499999999999996

>  <m_primary>  (72) 
energy

>  <meeko>  (72) 
{"free_energy": -8.75, "intermolecular_energy": -11.44, "internal_energy": -2.79, "cluster_size": 3, "cluster_id": 2, "rank_in_cluster": 2}

>  <energy>  (72) 
-5.69

>  <cluster_rmsd>  (72) 
1.21

>  <rmsd>  (72) 
271.75

>  <cluster>  (72) 
3

$$$$
VISCJLQOHKTNMF-GXGKPUEPNA-O
     RDKit          3D

 60 63  0  0  0  0  0  0  0  0999 V2000
  140.2210   76.0960  217.8000 H   0  0  0  0  0  0  0  0  0  0  0  0
  140.8400   75.3120  217.9550 O   0  0  0  0  0  0  0  0  0  0  0  0
  142.1260   75.4240  218.4980 C   0  0  0  0  0  0  0  0  0  0  0  0
  142.5770   74.5520  219.3770 N   0  0  0  0  0  0  0  0  0  0  0  0
  143.9910   74.3200  219.6570 C   0  0  0  0  0  0  0  0  0  0  0  0
  144.4772   75.2583  219.9622 H   0  0  0  0  0  0  0  0  0  0  0  0
  144.5179   73.9488  218.7656 H   0  0  0  0  0  0  0  0  0  0  0  0
  144.0450   73.3030  220.7950 C   0  0  2  0  0  0  0  0  0  0  0  0
  144.3075   73.7865  221.7475 H   0  0  0  0  0  0  0  0  0  0  0  0
  145.0290   72.3300  220.5670 O   0  0  0  0  0  0  0  0  0  0  0  0
  145.1790   71.8760  221.4380 H   0  0  0  0  0  0  0  0  0  0  0  0
  142.6600   72.6660  220.8410 C   0  0  0  0  0  0  0  0  0  0  0  0
  142.3518   72.4942  221.8829 H   0  0  0  0  0  0  0  0  0  0  0  0
  142.6463   71.6900  220.3339 H   0  0  0  0  0  0  0  0  0  0  0  0
  141.7190   73.6650  220.1650 C   0  0  1  0  0  0  0  0  0  0  0  0
  140.9799   73.1524  219.5318 H   0  0  0  0  0  0  0  0  0  0  0  0
  140.9300   74.4460  221.1870 C   0  0  0  0  0  0  0  0  0  0  0  0
  140.7410   73.9460  222.3290 O   0  0  0  0  0  0  0  0  0  0  0  0
  140.4180   75.7520  220.8780 N   0  0  0  0  0  0  0  0  0  0  0  0
  140.6430   76.1630  219.9450 H   0  0  0  0  0  0  0  0  0  0  0  0
  139.5050   76.4680  221.7770 C   0  0  1  0  0  0  0  0  0  0  0  0
  139.2671   75.8147  222.6294 H   0  0  0  0  0  0  0  0  0  0  0  0
  140.1610   77.7230  222.3180 C   0  0  0  0  0  0  0  0  0  0  0  0
  141.5190   77.9830  222.0550 C   0  0  0  0  0  0  0  0  0  0  0  0
  142.1028   77.2764  221.4468 H   0  0  0  0  0  0  0  0  0  0  0  0
  142.1310   79.1340  222.5620 C   0  0  0  0  0  0  0  0  0  0  0  0
  143.1915   79.3319  222.3470 H   0  0  0  0  0  0  0  0  0  0  0  0
  141.3980   80.0330  223.3410 C   0  0  0  0  0  0  0  0  0  0  0  0
  142.1700   81.4740  223.9800 Cl  0  0  0  0  0  0  0  0  0  0  0  0
  140.0490   79.7850  223.6100 C   0  0  0  0  0  0  0  0  0  0  0  0
  139.4724   80.4919  224.2246 H   0  0  0  0  0  0  0  0  0  0  0  0
  139.4320   78.6400  223.0990 C   0  0  0  0  0  0  0  0  0  0  0  0
  138.3684   78.4537  223.3086 H   0  0  0  0  0  0  0  0  0  0  0  0
  138.2020   76.8080  221.0450 C   0  0  0  0  0  0  0  0  0  0  0  0
  137.4110   77.0144  221.7811 H   0  0  0  0  0  0  0  0  0  0  0  0
  138.3567   77.6959  220.4143 H   0  0  0  0  0  0  0  0  0  0  0  0
  137.9031   75.9578  220.4143 H   0  0  0  0  0  0  0  0  0  0  0  0
  142.9390   76.6040  218.0260 C   0  0  0  0  0  0  0  0  0  0  0  0
  144.0101   76.3805  218.1391 H   0  0  0  0  0  0  0  0  0  0  0  0
  142.7167   76.8034  216.9673 H   0  0  0  0  0  0  0  0  0  0  0  0
  142.5990   77.7790  218.8260 N   0  0  0  0  0  0  0  0  0  0  0  0
  143.3790   78.2830  219.3030 H   0  0  0  0  0  0  0  0  0  0  0  0
  141.2830   78.3530  218.8250 C   0  0  0  0  0  0  0  0  0  0  0  0
  140.3000   77.6690  218.4360 O   0  0  0  0  0  0  0  0  0  0  0  0
  141.0760   79.7470  219.2690 C   0  0  0  0  0  0  0  0  0  0  0  0
  139.9820   80.0560  220.0220 N   0  0  0  0  0  0  0  0  0  0  0  0
  139.7630   81.3090  220.5020 C   0  0  0  0  0  0  0  0  0  0  0  0
  138.6270   81.5760  221.2730 C   0  0  0  0  0  0  0  0  0  0  0  0
  137.9046   80.7739  221.4846 H   0  0  0  0  0  0  0  0  0  0  0  0
  138.4100   82.8640  221.7750 C   0  0  0  0  0  0  0  0  0  0  0  0
  137.5167   83.0716  222.3823 H   0  0  0  0  0  0  0  0  0  0  0  0
  139.3240   83.8890  221.5080 C   0  0  0  0  0  0  0  0  0  0  0  0
  139.1080   85.1340  221.9970 F   0  0  0  0  0  0  0  0  0  0  0  0
  140.4620   83.6290  220.7320 C   0  0  0  0  0  0  0  0  0  0  0  0
  141.1780   84.4363  220.5183 H   0  0  0  0  0  0  0  0  0  0  0  0
  140.6880   82.3400  220.2280 C   0  0  0  0  0  0  0  0  0  0  0  0
  141.8170   82.0470  219.4520 C   0  0  0  0  0  0  0  0  0  0  0  0
  142.5488   82.8361  219.2246 H   0  0  0  0  0  0  0  0  0  0  0  0
  142.0120   80.7530  218.9680 C   0  0  0  0  0  0  0  0  0  0  0  0
  142.8942   80.5204  218.3535 H   0  0  0  0  0  0  0  0  0  0  0  0
  1  2  1  0
  2  3  1  0
  3  4  2  0
  4  5  1  0
  5  6  1  0
  5  7  1  0
  5  8  1  0
  8  9  1  1
  8 10  1  0
 10 11  1  0
  8 12  1  0
 12 13  1  0
 12 14  1  0
 12 15  1  0
 15 16  1  6
 15 17  1  0
 17 18  2  0
 17 19  1  0
 19 20  1  0
 19 21  1  0
 21 22  1  1
 21 23  1  0
 23 24  2  0
 24 25  1  0
 24 26  1  0
 26 27  1  0
 26 28  2  0
 28 29  1  0
 28 30  1  0
 30 31  1  0
 30 32  2  0
 32 33  1  0
 21 34  1  0
 34 35  1  0
 34 36  1  0
 34 37  1  0
  3 38  1  0
 38 39  1  0
 38 40  1  0
 38 41  1  0
 41 42  1  0
 41 43  1  0
 43 44  2  0
 43 45  1  0
 45 46  2  0
 46 47  1  0
 47 48  2  0
 48 49  1  0
 48 50  1  0
 50 51  1  0
 50 52  2  0
 52 53  1  0
 52 54  1  0
 54 55  1  0
 54 56  2  0
 56 57  1  0
 57 58  1  0
 57 59  2  0
 59 60  1  0
 15  4  1  0
 32 23  1  0
 59 45  1  0
 56 47  1  0
M  CHG  1   4   1
M  END
>  <UniqueID>  (73) 
83

>  <SMILES>  (73) 
C[C@@H](NC(=O)[C@@H]1C[C@@H](O)C/[N+]1=C(/O)CNC(=O)c1ccc2cc(F)ccc2n1)c1ccc(Cl)cc1

>  <Energy>  (73) 
61.2501450166287

>  <Genealogy>  (73) 
C[C@@H](NC(=O)[C@@H]1C[C@@H](O)C[NH+]1C(=O)CNC(=O)c1ccc2cc(F)ccc2n1)c1ccc(Cl)cc1 (protonated)
C[C@@H](NC(=O)[C@@H]1C[C@@H](O)C[N+]1=C(O)CNC(=O)c1ccc2cc(F)ccc2n1)c1ccc(Cl)cc1 (tautomer)
C[C@@H](NC(=O)[C@@H]1C[C@@H](O)C/[N+]1=C(/O)CNC(=O)c1ccc2cc(F)ccc2n1)c1ccc(Cl)cc1 (cis-trans isomerization)
C[C@@H](NC(=O)[C@@H]1C[C@@H](O)C/[N+]1=C(/O)CNC(=O)c1ccc2cc(F)ccc2n1)c1ccc(Cl)cc1 (3D coordinates assigned)
C[C@@H](NC(=O)[C@@H]1C[C@@H](O)C/[N+]1=C(/O)CNC(=O)c1ccc2cc(F)ccc2n1)c1ccc(Cl)cc1 (nonaromatic ring conformer: 61.2501450166287 kcal/mol)

>  <smiles>  (73) 
C[C@@H](NC(=O)[C@@H]1C[C@@H](O)CN1C(=O)CNC(=O)c1ccc2cc(F)ccc2n1)c1ccc(Cl)cc1

>  <score_type>  (73) 
oracle

>  <origin>  (73) 
autodockgpu

>  <m_score__min__energy>  (73) 
-9.3499999999999996

>  <m_primary>  (73) 
energy

>  <meeko>  (73) 
{"free_energy": -6.53, "intermolecular_energy": -9.21, "internal_energy": -5.32, "cluster_size": 4, "cluster_id": 5, "rank_in_cluster": 2}

>  <energy>  (73) 
-6.89

>  <cluster_rmsd>  (73) 
0.0

>  <rmsd>  (73) 
270.62

>  <cluster>  (73) 
4

$$$$
VISCJLQOHKTNMF-GXGKPUEPNA-O
     RDKit          3D

 60 63  0  0  0  0  0  0  0  0999 V2000
  140.2670   76.1040  217.6770 H   0  0  0  0  0  0  0  0  0  0  0  0
  140.8390   75.3100  217.9300 O   0  0  0  0  0  0  0  0  0  0  0  0
  142.1130   75.4120  218.5010 C   0  0  0  0  0  0  0  0  0  0  0  0
  142.5420   74.5300  219.3810 N   0  0  0  0  0  0  0  0  0  0  0  0
  143.9500   74.2720  219.6700 C   0  0  0  0  0  0  0  0  0  0  0  0
  144.4509   75.2008  219.9805 H   0  0  0  0  0  0  0  0  0  0  0  0
  144.4762   73.8932  218.7814 H   0  0  0  0  0  0  0  0  0  0  0  0
  143.9780   73.2520  220.8060 C   0  0  2  0  0  0  0  0  0  0  0  0
  144.2423   73.7289  221.7614 H   0  0  0  0  0  0  0  0  0  0  0  0
  144.9460   72.2620  220.5830 O   0  0  0  0  0  0  0  0  0  0  0  0
  145.1870   71.9010  221.4770 H   0  0  0  0  0  0  0  0  0  0  0  0
  142.5810   72.6390  220.8400 C   0  0  0  0  0  0  0  0  0  0  0  0
  142.2621   72.4698  221.8791 H   0  0  0  0  0  0  0  0  0  0  0  0
  142.5539   71.6647  220.3301 H   0  0  0  0  0  0  0  0  0  0  0  0
  141.6630   73.6560  220.1600 C   0  0  1  0  0  0  0  0  0  0  0  0
  140.9199   73.1574  219.5203 H   0  0  0  0  0  0  0  0  0  0  0  0
  140.8800   74.4490  221.1780 C   0  0  0  0  0  0  0  0  0  0  0  0
  140.7110   73.9690  222.3320 O   0  0  0  0  0  0  0  0  0  0  0  0
  140.3530   75.7450  220.8530 N   0  0  0  0  0  0  0  0  0  0  0  0
  140.5630   76.1420  219.9100 H   0  0  0  0  0  0  0  0  0  0  0  0
  139.4460   76.4690  221.7520 C   0  0  1  0  0  0  0  0  0  0  0  0
  139.1956   75.8157  222.6008 H   0  0  0  0  0  0  0  0  0  0  0  0
  140.1170   77.7130  222.3010 C   0  0  0  0  0  0  0  0  0  0  0  0
  141.4790   77.9560  222.0450 C   0  0  0  0  0  0  0  0  0  0  0  0
  142.0559   77.2446  221.4358 H   0  0  0  0  0  0  0  0  0  0  0  0
  142.1040   79.0960  222.5600 C   0  0  0  0  0  0  0  0  0  0  0  0
  143.1681   79.2800  222.3504 H   0  0  0  0  0  0  0  0  0  0  0  0
  141.3810   80.0020  223.3400 C   0  0  0  0  0  0  0  0  0  0  0  0
  142.1690   81.4290  223.9880 Cl  0  0  0  0  0  0  0  0  0  0  0  0
  140.0270   79.7710  223.6010 C   0  0  0  0  0  0  0  0  0  0  0  0
  139.4567   80.4832  224.2155 H   0  0  0  0  0  0  0  0  0  0  0  0
  139.3970   78.6360  223.0820 C   0  0  0  0  0  0  0  0  0  0  0  0
  138.3300   78.4631  223.2858 H   0  0  0  0  0  0  0  0  0  0  0  0
  138.1510   76.8300  221.0150 C   0  0  0  0  0  0  0  0  0  0  0  0
  137.3611   77.0502  221.7481 H   0  0  0  0  0  0  0  0  0  0  0  0
  138.3226   77.7146  220.3840 H   0  0  0  0  0  0  0  0  0  0  0  0
  137.8402   75.9842  220.3840 H   0  0  0  0  0  0  0  0  0  0  0  0
  142.9400   76.5930  218.0580 C   0  0  0  0  0  0  0  0  0  0  0  0
  144.0075   76.3649  218.1937 H   0  0  0  0  0  0  0  0  0  0  0  0
  142.7423   76.8020  216.9963 H   0  0  0  0  0  0  0  0  0  0  0  0
  142.5860   77.7620  218.8590 N   0  0  0  0  0  0  0  0  0  0  0  0
  143.3550   78.2560  219.3630 H   0  0  0  0  0  0  0  0  0  0  0  0
  141.2750   78.3470  218.8270 C   0  0  0  0  0  0  0  0  0  0  0  0
  140.2980   77.6740  218.4020 O   0  0  0  0  0  0  0  0  0  0  0  0
  141.0650   79.7380  219.2780 C   0  0  0  0  0  0  0  0  0  0  0  0
  139.9560   80.0450  220.0090 N   0  0  0  0  0  0  0  0  0  0  0  0
  139.7330   81.2950  220.4950 C   0  0  0  0  0  0  0  0  0  0  0  0
  138.5810   81.5610  221.2430 C   0  0  0  0  0  0  0  0  0  0  0  0
  137.8500   80.7607  221.4308 H   0  0  0  0  0  0  0  0  0  0  0  0
  138.3590   82.8450  221.7520 C   0  0  0  0  0  0  0  0  0  0  0  0
  137.4533   83.0514  222.3412 H   0  0  0  0  0  0  0  0  0  0  0  0
  139.2840   83.8680  221.5150 C   0  0  0  0  0  0  0  0  0  0  0  0
  139.0640   85.1100  222.0110 F   0  0  0  0  0  0  0  0  0  0  0  0
  140.4380   83.6100  220.7630 C   0  0  0  0  0  0  0  0  0  0  0  0
  141.1626   84.4156  220.5732 H   0  0  0  0  0  0  0  0  0  0  0  0
  140.6690   82.3230  220.2520 C   0  0  0  0  0  0  0  0  0  0  0  0
  141.8140   82.0320  219.5000 C   0  0  0  0  0  0  0  0  0  0  0  0
  142.5554   82.8189  219.2974 H   0  0  0  0  0  0  0  0  0  0  0  0
  142.0120   80.7400  219.0080 C   0  0  0  0  0  0  0  0  0  0  0  0
  142.9063   80.5077  218.4111 H   0  0  0  0  0  0  0  0  0  0  0  0
  1  2  1  0
  2  3  1  0
  3  4  2  0
  4  5  1  0
  5  6  1  0
  5  7  1  0
  5  8  1  0
  8  9  1  1
  8 10  1  0
 10 11  1  0
  8 12  1  0
 12 13  1  0
 12 14  1  0
 12 15  1  0
 15 16  1  6
 15 17  1  0
 17 18  2  0
 17 19  1  0
 19 20  1  0
 19 21  1  0
 21 22  1  1
 21 23  1  0
 23 24  2  0
 24 25  1  0
 24 26  1  0
 26 27  1  0
 26 28  2  0
 28 29  1  0
 28 30  1  0
 30 31  1  0
 30 32  2  0
 32 33  1  0
 21 34  1  0
 34 35  1  0
 34 36  1  0
 34 37  1  0
  3 38  1  0
 38 39  1  0
 38 40  1  0
 38 41  1  0
 41 42  1  0
 41 43  1  0
 43 44  2  0
 43 45  1  0
 45 46  2  0
 46 47  1  0
 47 48  2  0
 48 49  1  0
 48 50  1  0
 50 51  1  0
 50 52  2  0
 52 53  1  0
 52 54  1  0
 54 55  1  0
 54 56  2  0
 56 57  1  0
 57 58  1  0
 57 59  2  0
 59 60  1  0
 15  4  1  0
 32 23  1  0
 59 45  1  0
 56 47  1  0
M  CHG  1   4   1
M  END
>  <UniqueID>  (74) 
83

>  <SMILES>  (74) 
C[C@@H](NC(=O)[C@@H]1C[C@@H](O)C/[N+]1=C(/O)CNC(=O)c1ccc2cc(F)ccc2n1)c1ccc(Cl)cc1

>  <Energy>  (74) 
61.2501450166287

>  <Genealogy>  (74) 
C[C@@H](NC(=O)[C@@H]1C[C@@H](O)C[NH+]1C(=O)CNC(=O)c1ccc2cc(F)ccc2n1)c1ccc(Cl)cc1 (protonated)
C[C@@H](NC(=O)[C@@H]1C[C@@H](O)C[N+]1=C(O)CNC(=O)c1ccc2cc(F)ccc2n1)c1ccc(Cl)cc1 (tautomer)
C[C@@H](NC(=O)[C@@H]1C[C@@H](O)C/[N+]1=C(/O)CNC(=O)c1ccc2cc(F)ccc2n1)c1ccc(Cl)cc1 (cis-trans isomerization)
C[C@@H](NC(=O)[C@@H]1C[C@@H](O)C/[N+]1=C(/O)CNC(=O)c1ccc2cc(F)ccc2n1)c1ccc(Cl)cc1 (3D coordinates assigned)
C[C@@H](NC(=O)[C@@H]1C[C@@H](O)C/[N+]1=C(/O)CNC(=O)c1ccc2cc(F)ccc2n1)c1ccc(Cl)cc1 (nonaromatic ring conformer: 61.2501450166287 kcal/mol)

>  <smiles>  (74) 
C[C@@H](NC(=O)[C@@H]1C[C@@H](O)CN1C(=O)CNC(=O)c1ccc2cc(F)ccc2n1)c1ccc(Cl)cc1

>  <score_type>  (74) 
oracle

>  <origin>  (74) 
autodockgpu

>  <m_score__min__energy>  (74) 
-9.3499999999999996

>  <m_primary>  (74) 
energy

>  <meeko>  (74) 
{"free_energy": -6.51, "intermolecular_energy": -9.2, "internal_energy": -5.34, "cluster_size": 4, "cluster_id": 5, "rank_in_cluster": 3}

>  <energy>  (74) 
-6.62

>  <cluster_rmsd>  (74) 
1.93

>  <rmsd>  (74) 
270.6

>  <cluster>  (74) 
4

$$$$
VISCJLQOHKTNMF-GXGKPUEPNA-O
     RDKit          3D

 60 63  0  0  0  0  0  0  0  0999 V2000
  142.0440   72.5740  222.2300 H   0  0  0  0  0  0  0  0  0  0  0  0
  142.3840   72.4970  221.2820 O   0  0  0  0  0  0  0  0  0  0  0  0
  141.7410   73.0540  220.1700 C   0  0  0  0  0  0  0  0  0  0  0  0
  142.3160   73.9920  219.4450 N   0  0  0  0  0  0  0  0  0  0  0  0
  142.5940   73.8750  218.0160 C   0  0  0  0  0  0  0  0  0  0  0  0
  141.6662   73.6637  217.4641 H   0  0  0  0  0  0  0  0  0  0  0  0
  143.2948   73.0520  217.8123 H   0  0  0  0  0  0  0  0  0  0  0  0
  143.1750   75.2180  217.5780 C   0  0  2  0  0  0  0  0  0  0  0  0
  142.4336   75.8066  217.0178 H   0  0  0  0  0  0  0  0  0  0  0  0
  144.2700   75.0480  216.7180 O   0  0  0  0  0  0  0  0  0  0  0  0
  145.0610   75.4100  217.1980 H   0  0  0  0  0  0  0  0  0  0  0  0
  143.6070   75.9170  218.8640 C   0  0  0  0  0  0  0  0  0  0  0  0
  143.3892   76.9937  218.8068 H   0  0  0  0  0  0  0  0  0  0  0  0
  144.6884   75.8146  219.0376 H   0  0  0  0  0  0  0  0  0  0  0  0
  142.7920   75.2670  219.9840 C   0  0  1  0  0  0  0  0  0  0  0  0
  143.4020   75.1192  220.8874 H   0  0  0  0  0  0  0  0  0  0  0  0
  141.6350   76.1450  220.3950 C   0  0  0  0  0  0  0  0  0  0  0  0
  141.4620   77.2470  219.8080 O   0  0  0  0  0  0  0  0  0  0  0  0
  140.7240   75.7250  221.4230 N   0  0  0  0  0  0  0  0  0  0  0  0
  140.8580   74.7800  221.8480 H   0  0  0  0  0  0  0  0  0  0  0  0
  139.6950   76.6180  221.9690 C   0  0  1  0  0  0  0  0  0  0  0  0
  139.1777   76.0997  222.7898 H   0  0  0  0  0  0  0  0  0  0  0  0
  140.3240   77.8770  222.5340 C   0  0  0  0  0  0  0  0  0  0  0  0
  139.7830   79.1390  222.2280 C   0  0  0  0  0  0  0  0  0  0  0  0
  138.8943   79.2106  221.5838 H   0  0  0  0  0  0  0  0  0  0  0  0
  140.3670   80.3030  222.7370 C   0  0  0  0  0  0  0  0  0  0  0  0
  139.9345   81.2851  222.4954 H   0  0  0  0  0  0  0  0  0  0  0  0
  141.4990   80.2210  223.5520 C   0  0  0  0  0  0  0  0  0  0  0  0
  142.2320   81.6840  224.1870 Cl  0  0  0  0  0  0  0  0  0  0  0  0
  142.0460   78.9720  223.8630 C   0  0  0  0  0  0  0  0  0  0  0  0
  142.9381   78.9067  224.5032 H   0  0  0  0  0  0  0  0  0  0  0  0
  141.4600   77.8070  223.3610 C   0  0  0  0  0  0  0  0  0  0  0  0
  141.8905   76.8270  223.6145 H   0  0  0  0  0  0  0  0  0  0  0  0
  138.6670   76.9620  220.8850 C   0  0  0  0  0  0  0  0  0  0  0  0
  137.7257   77.2770  221.3591 H   0  0  0  0  0  0  0  0  0  0  0  0
  139.0539   77.7796  220.2591 H   0  0  0  0  0  0  0  0  0  0  0  0
  138.4838   76.0762  220.2591 H   0  0  0  0  0  0  0  0  0  0  0  0
  140.3600   72.5240  219.8740 C   0  0  0  0  0  0  0  0  0  0  0  0
  139.6675   73.3659  219.7267 H   0  0  0  0  0  0  0  0  0  0  0  0
  140.3893   71.9109  218.9612 H   0  0  0  0  0  0  0  0  0  0  0  0
  139.9030   71.7070  220.9970 N   0  0  0  0  0  0  0  0  0  0  0  0
  139.6650   70.7090  220.8040 H   0  0  0  0  0  0  0  0  0  0  0  0
  139.9470   72.1730  222.3530 C   0  0  0  0  0  0  0  0  0  0  0  0
  140.0320   73.4070  222.5910 O   0  0  0  0  0  0  0  0  0  0  0  0
  139.9040   71.2130  223.4760 C   0  0  0  0  0  0  0  0  0  0  0  0
  140.4950   71.5390  224.6600 N   0  0  0  0  0  0  0  0  0  0  0  0
  140.4460   70.7190  225.7440 C   0  0  0  0  0  0  0  0  0  0  0  0
  141.0660   71.0990  226.9390 C   0  0  0  0  0  0  0  0  0  0  0  0
  141.6023   72.0575  226.9997 H   0  0  0  0  0  0  0  0  0  0  0  0
  141.0040   70.2600  228.0570 C   0  0  0  0  0  0  0  0  0  0  0  0
  141.4899   70.5620  228.9966 H   0  0  0  0  0  0  0  0  0  0  0  0
  140.3260   69.0380  227.9840 C   0  0  0  0  0  0  0  0  0  0  0  0
  140.2700   68.2280  229.0700 F   0  0  0  0  0  0  0  0  0  0  0  0
  139.7070   68.6480  226.7880 C   0  0  0  0  0  0  0  0  0  0  0  0
  139.1786   67.6849  226.7302 H   0  0  0  0  0  0  0  0  0  0  0  0
  139.7620   69.4870  225.6650 C   0  0  0  0  0  0  0  0  0  0  0  0
  139.1510   69.1290  224.4560 C   0  0  0  0  0  0  0  0  0  0  0  0
  138.6147   68.1723  224.3719 H   0  0  0  0  0  0  0  0  0  0  0  0
  139.2240   69.9880  223.3590 C   0  0  0  0  0  0  0  0  0  0  0  0
  138.7513   69.7079  222.4061 H   0  0  0  0  0  0  0  0  0  0  0  0
  1  2  1  0
  2  3  1  0
  3  4  2  0
  4  5  1  0
  5  6  1  0
  5  7  1  0
  5  8  1  0
  8  9  1  6
  8 10  1  0
 10 11  1  0
  8 12  1  0
 12 13  1  0
 12 14  1  0
 12 15  1  0
 15 16  1  1
 15 17  1  0
 17 18  2  0
 17 19  1  0
 19 20  1  0
 19 21  1  0
 21 22  1  1
 21 23  1  0
 23 24  2  0
 24 25  1  0
 24 26  1  0
 26 27  1  0
 26 28  2  0
 28 29  1  0
 28 30  1  0
 30 31  1  0
 30 32  2  0
 32 33  1  0
 21 34  1  0
 34 35  1  0
 34 36  1  0
 34 37  1  0
  3 38  1  0
 38 39  1  0
 38 40  1  0
 38 41  1  0
 41 42  1  0
 41 43  1  0
 43 44  2  0
 43 45  1  0
 45 46  2  0
 46 47  1  0
 47 48  2  0
 48 49  1  0
 48 50  1  0
 50 51  1  0
 50 52  2  0
 52 53  1  0
 52 54  1  0
 54 55  1  0
 54 56  2  0
 56 57  1  0
 57 58  1  0
 57 59  2  0
 59 60  1  0
 15  4  1  0
 32 23  1  0
 59 45  1  0
 56 47  1  0
M  CHG  1   4   1
M  END
>  <UniqueID>  (75) 
83

>  <SMILES>  (75) 
C[C@@H](NC(=O)[C@@H]1C[C@@H](O)C/[N+]1=C(/O)CNC(=O)c1ccc2cc(F)ccc2n1)c1ccc(Cl)cc1

>  <Energy>  (75) 
61.2501450166287

>  <Genealogy>  (75) 
C[C@@H](NC(=O)[C@@H]1C[C@@H](O)C[NH+]1C(=O)CNC(=O)c1ccc2cc(F)ccc2n1)c1ccc(Cl)cc1 (protonated)
C[C@@H](NC(=O)[C@@H]1C[C@@H](O)C[N+]1=C(O)CNC(=O)c1ccc2cc(F)ccc2n1)c1ccc(Cl)cc1 (tautomer)
C[C@@H](NC(=O)[C@@H]1C[C@@H](O)C/[N+]1=C(/O)CNC(=O)c1ccc2cc(F)ccc2n1)c1ccc(Cl)cc1 (cis-trans isomerization)
C[C@@H](NC(=O)[C@@H]1C[C@@H](O)C/[N+]1=C(/O)CNC(=O)c1ccc2cc(F)ccc2n1)c1ccc(Cl)cc1 (3D coordinates assigned)
C[C@@H](NC(=O)[C@@H]1C[C@@H](O)C/[N+]1=C(/O)CNC(=O)c1ccc2cc(F)ccc2n1)c1ccc(Cl)cc1 (nonaromatic ring conformer: 61.2501450166287 kcal/mol)

>  <smiles>  (75) 
C[C@@H](NC(=O)[C@@H]1C[C@@H](O)CN1C(=O)CNC(=O)c1ccc2cc(F)ccc2n1)c1ccc(Cl)cc1

>  <score_type>  (75) 
oracle

>  <origin>  (75) 
autodockgpu

>  <m_score__min__energy>  (75) 
-9.3499999999999996

>  <m_primary>  (75) 
energy

>  <meeko>  (75) 
{"free_energy": -8.35, "intermolecular_energy": -11.03, "internal_energy": -2.93, "cluster_size": 5, "cluster_id": 1, "rank_in_cluster": 5}

>  <energy>  (75) 
-6.55

>  <cluster_rmsd>  (75) 
0.0

>  <rmsd>  (75) 
271.69

>  <cluster>  (75) 
5

$$$$
VISCJLQOHKTNMF-GXGKPUEPNA-O
     RDKit          3D

 60 63  0  0  0  0  0  0  0  0999 V2000
  139.0960   74.1770  218.7970 H   0  0  0  0  0  0  0  0  0  0  0  0
  139.8280   73.4900  218.9180 O   0  0  0  0  0  0  0  0  0  0  0  0
  140.5820   73.3450  220.0890 C   0  0  0  0  0  0  0  0  0  0  0  0
  141.8980   73.3890  220.0660 N   0  0  0  0  0  0  0  0  0  0  0  0
  142.7570   72.2400  219.7870 C   0  0  0  0  0  0  0  0  0  0  0  0
  142.5031   71.8036  218.8097 H   0  0  0  0  0  0  0  0  0  0  0  0
  142.6282   71.4527  220.5443 H   0  0  0  0  0  0  0  0  0  0  0  0
  144.1900   72.7660  219.7740 C   0  0  2  0  0  0  0  0  0  0  0  0
  144.5734   72.8454  218.7460 H   0  0  0  0  0  0  0  0  0  0  0  0
  145.0610   71.8990  220.4520 O   0  0  0  0  0  0  0  0  0  0  0  0
  144.7540   71.8780  221.3970 H   0  0  0  0  0  0  0  0  0  0  0  0
  144.1360   74.1220  220.4700 C   0  0  0  0  0  0  0  0  0  0  0  0
  144.8076   74.8360  219.9709 H   0  0  0  0  0  0  0  0  0  0  0  0
  144.4598   74.0525  221.5190 H   0  0  0  0  0  0  0  0  0  0  0  0
  142.6830   74.5890  220.3580 C   0  0  1  0  0  0  0  0  0  0  0  0
  142.3472   75.0737  221.2866 H   0  0  0  0  0  0  0  0  0  0  0  0
  142.5240   75.6170  219.2640 C   0  0  0  0  0  0  0  0  0  0  0  0
  143.1610   75.4690  218.1860 O   0  0  0  0  0  0  0  0  0  0  0  0
  141.6410   76.7370  219.4320 N   0  0  0  0  0  0  0  0  0  0  0  0
  141.0820   76.7990  220.3120 H   0  0  0  0  0  0  0  0  0  0  0  0
  141.5890   77.8440  218.4680 C   0  0  1  0  0  0  0  0  0  0  0  0
  140.8321   77.6111  217.7046 H   0  0  0  0  0  0  0  0  0  0  0  0
  141.1800   79.1330  219.1550 C   0  0  0  0  0  0  0  0  0  0  0  0
  139.8360   79.3540  219.5050 C   0  0  0  0  0  0  0  0  0  0  0  0
  139.0811   78.5838  219.2883 H   0  0  0  0  0  0  0  0  0  0  0  0
  139.4530   80.5470  220.1270 C   0  0  0  0  0  0  0  0  0  0  0  0
  138.3999   80.7101  220.3995 H   0  0  0  0  0  0  0  0  0  0  0  0
  140.4050   81.5320  220.4030 C   0  0  0  0  0  0  0  0  0  0  0  0
  139.9210   83.0280  221.1810 Cl  0  0  0  0  0  0  0  0  0  0  0  0
  141.7450   81.3220  220.0590 C   0  0  0  0  0  0  0  0  0  0  0  0
  142.4952   82.0974  220.2732 H   0  0  0  0  0  0  0  0  0  0  0  0
  142.1310   80.1290  219.4440 C   0  0  0  0  0  0  0  0  0  0  0  0
  143.1873   79.9666  219.1834 H   0  0  0  0  0  0  0  0  0  0  0  0
  142.9470   78.0040  217.7750 C   0  0  0  0  0  0  0  0  0  0  0  0
  143.7374   78.0971  218.5343 H   0  0  0  0  0  0  0  0  0  0  0  0
  143.1441   77.1229  217.1467 H   0  0  0  0  0  0  0  0  0  0  0  0
  142.9339   78.9068  217.1467 H   0  0  0  0  0  0  0  0  0  0  0  0
  139.7930   73.1210  221.3550 C   0  0  0  0  0  0  0  0  0  0  0  0
  138.8083   72.6997  221.1041 H   0  0  0  0  0  0  0  0  0  0  0  0
  140.3352   72.4202  222.0069 H   0  0  0  0  0  0  0  0  0  0  0  0
  139.6160   74.3950  222.0480 N   0  0  0  0  0  0  0  0  0  0  0  0
  139.7020   74.3960  223.0890 H   0  0  0  0  0  0  0  0  0  0  0  0
  139.5130   75.6430  221.3470 C   0  0  0  0  0  0  0  0  0  0  0  0
  139.2070   75.6530  220.1250 O   0  0  0  0  0  0  0  0  0  0  0  0
  139.7750   76.9180  222.0470 C   0  0  0  0  0  0  0  0  0  0  0  0
  141.0500   77.3960  222.1160 N   0  0  0  0  0  0  0  0  0  0  0  0
  141.3460   78.5860  222.7030 C   0  0  0  0  0  0  0  0  0  0  0  0
  142.6700   79.0360  222.7460 C   0  0  0  0  0  0  0  0  0  0  0  0
  143.4739   78.4228  222.3128 H   0  0  0  0  0  0  0  0  0  0  0  0
  142.9710   80.2660  223.3400 C   0  0  0  0  0  0  0  0  0  0  0  0
  144.0127   80.6179  223.3726 H   0  0  0  0  0  0  0  0  0  0  0  0
  141.9530   81.0510  223.8930 C   0  0  0  0  0  0  0  0  0  0  0  0
  142.2510   82.2420  224.4670 F   0  0  0  0  0  0  0  0  0  0  0  0
  140.6250   80.6040  223.8570 C   0  0  0  0  0  0  0  0  0  0  0  0
  139.8258   81.2186  224.2969 H   0  0  0  0  0  0  0  0  0  0  0  0
  140.3150   79.3730  223.2600 C   0  0  0  0  0  0  0  0  0  0  0  0
  138.9980   78.9000  223.2050 C   0  0  0  0  0  0  0  0  0  0  0  0
  138.1801   79.4959  223.6362 H   0  0  0  0  0  0  0  0  0  0  0  0
  138.7250   77.6710  222.6020 C   0  0  0  0  0  0  0  0  0  0  0  0
  137.6928   77.2931  222.5611 H   0  0  0  0  0  0  0  0  0  0  0  0
  1  2  1  0
  2  3  1  0
  3  4  2  0
  4  5  1  0
  5  6  1  0
  5  7  1  0
  5  8  1  0
  8  9  1  6
  8 10  1  0
 10 11  1  0
  8 12  1  0
 12 13  1  0
 12 14  1  0
 12 15  1  0
 15 16  1  1
 15 17  1  0
 17 18  2  0
 17 19  1  0
 19 20  1  0
 19 21  1  0
 21 22  1  6
 21 23  1  0
 23 24  2  0
 24 25  1  0
 24 26  1  0
 26 27  1  0
 26 28  2  0
 28 29  1  0
 28 30  1  0
 30 31  1  0
 30 32  2  0
 32 33  1  0
 21 34  1  0
 34 35  1  0
 34 36  1  0
 34 37  1  0
  3 38  1  0
 38 39  1  0
 38 40  1  0
 38 41  1  0
 41 42  1  0
 41 43  1  0
 43 44  2  0
 43 45  1  0
 45 46  2  0
 46 47  1  0
 47 48  2  0
 48 49  1  0
 48 50  1  0
 50 51  1  0
 50 52  2  0
 52 53  1  0
 52 54  1  0
 54 55  1  0
 54 56  2  0
 56 57  1  0
 57 58  1  0
 57 59  2  0
 59 60  1  0
 15  4  1  0
 32 23  1  0
 59 45  1  0
 56 47  1  0
M  CHG  1   4   1
M  END
>  <UniqueID>  (76) 
83

>  <SMILES>  (76) 
C[C@@H](NC(=O)[C@@H]1C[C@@H](O)C/[N+]1=C(/O)CNC(=O)c1ccc2cc(F)ccc2n1)c1ccc(Cl)cc1

>  <Energy>  (76) 
61.2501450166287

>  <Genealogy>  (76) 
C[C@@H](NC(=O)[C@@H]1C[C@@H](O)C[NH+]1C(=O)CNC(=O)c1ccc2cc(F)ccc2n1)c1ccc(Cl)cc1 (protonated)
C[C@@H](NC(=O)[C@@H]1C[C@@H](O)C[N+]1=C(O)CNC(=O)c1ccc2cc(F)ccc2n1)c1ccc(Cl)cc1 (tautomer)
C[C@@H](NC(=O)[C@@H]1C[C@@H](O)C/[N+]1=C(/O)CNC(=O)c1ccc2cc(F)ccc2n1)c1ccc(Cl)cc1 (cis-trans isomerization)
C[C@@H](NC(=O)[C@@H]1C[C@@H](O)C/[N+]1=C(/O)CNC(=O)c1ccc2cc(F)ccc2n1)c1ccc(Cl)cc1 (3D coordinates assigned)
C[C@@H](NC(=O)[C@@H]1C[C@@H](O)C/[N+]1=C(/O)CNC(=O)c1ccc2cc(F)ccc2n1)c1ccc(Cl)cc1 (nonaromatic ring conformer: 61.2501450166287 kcal/mol)

>  <smiles>  (76) 
C[C@@H](NC(=O)[C@@H]1C[C@@H](O)CN1C(=O)CNC(=O)c1ccc2cc(F)ccc2n1)c1ccc(Cl)cc1

>  <score_type>  (76) 
oracle

>  <origin>  (76) 
autodockgpu

>  <m_score__min__energy>  (76) 
-9.3499999999999996

>  <m_primary>  (76) 
energy

>  <meeko>  (76) 
{"free_energy": -6.13, "intermolecular_energy": -8.81, "internal_energy": -5.07, "cluster_size": 4, "cluster_id": 3, "rank_in_cluster": 2}

>  <energy>  (76) 
-6.53

>  <cluster_rmsd>  (76) 
0.04

>  <rmsd>  (76) 
271.71

>  <cluster>  (76) 
5

$$$$
VISCJLQOHKTNMF-GXGKPUEPNA-O
     RDKit          3D

 60 63  0  0  0  0  0  0  0  0999 V2000
  140.4520   71.1540  221.6150 H   0  0  0  0  0  0  0  0  0  0  0  0
  141.3790   71.4940  221.3960 O   0  0  0  0  0  0  0  0  0  0  0  0
  141.6410   72.7490  220.8340 C   0  0  0  0  0  0  0  0  0  0  0  0
  142.8660   73.1120  220.5110 N   0  0  0  0  0  0  0  0  0  0  0  0
  143.9210   72.1850  220.1070 C   0  0  0  0  0  0  0  0  0  0  0  0
  143.5959   71.5938  219.2382 H   0  0  0  0  0  0  0  0  0  0  0  0
  144.1629   71.4792  220.9152 H   0  0  0  0  0  0  0  0  0  0  0  0
  145.1300   73.0420  219.7400 C   0  0  2  0  0  0  0  0  0  0  0  0
  145.2590   73.0978  218.6490 H   0  0  0  0  0  0  0  0  0  0  0  0
  146.3190   72.4970  220.2480 O   0  0  0  0  0  0  0  0  0  0  0  0
  146.0590   71.9420  221.0300 H   0  0  0  0  0  0  0  0  0  0  0  0
  144.8640   74.4120  220.3550 C   0  0  0  0  0  0  0  0  0  0  0  0
  145.2059   75.2088  219.6781 H   0  0  0  0  0  0  0  0  0  0  0  0
  145.4029   74.5411  221.3052 H   0  0  0  0  0  0  0  0  0  0  0  0
  143.3490   74.4930  220.5510 C   0  0  1  0  0  0  0  0  0  0  0  0
  143.0956   74.9810  221.5037 H   0  0  0  0  0  0  0  0  0  0  0  0
  142.7030   75.3220  219.4680 C   0  0  0  0  0  0  0  0  0  0  0  0
  142.5290   74.8140  218.3280 O   0  0  0  0  0  0  0  0  0  0  0  0
  142.2660   76.6650  219.7330 N   0  0  0  0  0  0  0  0  0  0  0  0
  142.3680   77.0360  220.7040 H   0  0  0  0  0  0  0  0  0  0  0  0
  141.7930   77.5580  218.6680 C   0  0  1  0  0  0  0  0  0  0  0  0
  140.9575   77.0704  218.1444 H   0  0  0  0  0  0  0  0  0  0  0  0
  141.2840   78.8620  219.2510 C   0  0  0  0  0  0  0  0  0  0  0  0
  142.1720   79.9250  219.4960 C   0  0  0  0  0  0  0  0  0  0  0  0
  143.2392   79.8116  219.2548 H   0  0  0  0  0  0  0  0  0  0  0  0
  141.7080   81.1250  220.0440 C   0  0  0  0  0  0  0  0  0  0  0  0
  142.4097   81.9520  220.2275 H   0  0  0  0  0  0  0  0  0  0  0  0
  140.3550   81.2760  220.3590 C   0  0  0  0  0  0  0  0  0  0  0  0
  139.7760   82.7810  221.0510 Cl  0  0  0  0  0  0  0  0  0  0  0  0
  139.4620   80.2260  220.1200 C   0  0  0  0  0  0  0  0  0  0  0  0
  138.3969   80.3430  220.3685 H   0  0  0  0  0  0  0  0  0  0  0  0
  139.9220   79.0290  219.5660 C   0  0  0  0  0  0  0  0  0  0  0  0
  139.2137   78.2095  219.3741 H   0  0  0  0  0  0  0  0  0  0  0  0
  142.9170   77.8160  217.6580 C   0  0  0  0  0  0  0  0  0  0  0  0
  143.8518   78.0306  218.1966 H   0  0  0  0  0  0  0  0  0  0  0  0
  143.0538   76.9259  217.0263 H   0  0  0  0  0  0  0  0  0  0  0  0
  142.6519   78.6767  217.0263 H   0  0  0  0  0  0  0  0  0  0  0  0
  140.4450   73.6480  220.6440 C   0  0  0  0  0  0  0  0  0  0  0  0
  140.4387   74.0378  219.6154 H   0  0  0  0  0  0  0  0  0  0  0  0
  139.5230   73.0757  220.8242 H   0  0  0  0  0  0  0  0  0  0  0  0
  140.5200   74.7620  221.5870 N   0  0  0  0  0  0  0  0  0  0  0  0
  141.3750   74.8380  222.1800 H   0  0  0  0  0  0  0  0  0  0  0  0
  139.5610   75.8300  221.5920 C   0  0  0  0  0  0  0  0  0  0  0  0
  138.4370   75.6670  221.0460 O   0  0  0  0  0  0  0  0  0  0  0  0
  139.8860   77.1240  222.2250 C   0  0  0  0  0  0  0  0  0  0  0  0
  141.1800   77.5560  222.2430 N   0  0  0  0  0  0  0  0  0  0  0  0
  141.5340   78.7600  222.7650 C   0  0  0  0  0  0  0  0  0  0  0  0
  142.8740   79.1600  222.7580 C   0  0  0  0  0  0  0  0  0  0  0  0
  143.6438   78.4959  222.3381 H   0  0  0  0  0  0  0  0  0  0  0  0
  143.2360   80.4050  223.2850 C   0  0  0  0  0  0  0  0  0  0  0  0
  144.2903   80.7187  223.2764 H   0  0  0  0  0  0  0  0  0  0  0  0
  142.2600   81.2520  223.8230 C   0  0  0  0  0  0  0  0  0  0  0  0
  142.6170   82.4570  224.3330 F   0  0  0  0  0  0  0  0  0  0  0  0
  140.9160   80.8560  223.8370 C   0  0  0  0  0  0  0  0  0  0  0  0
  140.1507   81.5212  224.2634 H   0  0  0  0  0  0  0  0  0  0  0  0
  140.5470   79.6110  223.3070 C   0  0  0  0  0  0  0  0  0  0  0  0
  139.2120   79.1870  223.3040 C   0  0  0  0  0  0  0  0  0  0  0  0
  138.4275   79.8333  223.7245 H   0  0  0  0  0  0  0  0  0  0  0  0
  138.8790   77.9420  222.7660 C   0  0  0  0  0  0  0  0  0  0  0  0
  137.8326   77.6028  222.7656 H   0  0  0  0  0  0  0  0  0  0  0  0
  1  2  1  0
  2  3  1  0
  3  4  2  0
  4  5  1  0
  5  6  1  0
  5  7  1  0
  5  8  1  0
  8  9  1  6
  8 10  1  0
 10 11  1  0
  8 12  1  0
 12 13  1  0
 12 14  1  0
 12 15  1  0
 15 16  1  1
 15 17  1  0
 17 18  2  0
 17 19  1  0
 19 20  1  0
 19 21  1  0
 21 22  1  6
 21 23  1  0
 23 24  2  0
 24 25  1  0
 24 26  1  0
 26 27  1  0
 26 28  2  0
 28 29  1  0
 28 30  1  0
 30 31  1  0
 30 32  2  0
 32 33  1  0
 21 34  1  0
 34 35  1  0
 34 36  1  0
 34 37  1  0
  3 38  1  0
 38 39  1  0
 38 40  1  0
 38 41  1  0
 41 42  1  0
 41 43  1  0
 43 44  2  0
 43 45  1  0
 45 46  2  0
 46 47  1  0
 47 48  2  0
 48 49  1  0
 48 50  1  0
 50 51  1  0
 50 52  2  0
 52 53  1  0
 52 54  1  0
 54 55  1  0
 54 56  2  0
 56 57  1  0
 57 58  1  0
 57 59  2  0
 59 60  1  0
 15  4  1  0
 32 23  1  0
 59 45  1  0
 56 47  1  0
M  CHG  1   4   1
M  END
>  <UniqueID>  (77) 
83

>  <SMILES>  (77) 
C[C@@H](NC(=O)[C@@H]1C[C@@H](O)C/[N+]1=C(/O)CNC(=O)c1ccc2cc(F)ccc2n1)c1ccc(Cl)cc1

>  <Energy>  (77) 
61.2501450166287

>  <Genealogy>  (77) 
C[C@@H](NC(=O)[C@@H]1C[C@@H](O)C[NH+]1C(=O)CNC(=O)c1ccc2cc(F)ccc2n1)c1ccc(Cl)cc1 (protonated)
C[C@@H](NC(=O)[C@@H]1C[C@@H](O)C[N+]1=C(O)CNC(=O)c1ccc2cc(F)ccc2n1)c1ccc(Cl)cc1 (tautomer)
C[C@@H](NC(=O)[C@@H]1C[C@@H](O)C/[N+]1=C(/O)CNC(=O)c1ccc2cc(F)ccc2n1)c1ccc(Cl)cc1 (cis-trans isomerization)
C[C@@H](NC(=O)[C@@H]1C[C@@H](O)C/[N+]1=C(/O)CNC(=O)c1ccc2cc(F)ccc2n1)c1ccc(Cl)cc1 (3D coordinates assigned)
C[C@@H](NC(=O)[C@@H]1C[C@@H](O)C/[N+]1=C(/O)CNC(=O)c1ccc2cc(F)ccc2n1)c1ccc(Cl)cc1 (nonaromatic ring conformer: 61.2501450166287 kcal/mol)

>  <smiles>  (77) 
C[C@@H](NC(=O)[C@@H]1C[C@@H](O)CN1C(=O)CNC(=O)c1ccc2cc(F)ccc2n1)c1ccc(Cl)cc1

>  <score_type>  (77) 
oracle

>  <origin>  (77) 
autodockgpu

>  <m_score__min__energy>  (77) 
-9.3499999999999996

>  <m_primary>  (77) 
energy

>  <meeko>  (77) 
{"free_energy": -6.98, "intermolecular_energy": -9.67, "internal_energy": -4.18, "cluster_size": 4, "cluster_id": 3, "rank_in_cluster": 1}

>  <energy>  (77) 
-6.51

>  <cluster_rmsd>  (77) 
0.07

>  <rmsd>  (77) 
271.68

>  <cluster>  (77) 
5

$$$$
VISCJLQOHKTNMF-GXGKPUEPNA-O
     RDKit          3D

 60 63  0  0  0  0  0  0  0  0999 V2000
  140.1520   73.6240  222.3230 H   0  0  0  0  0  0  0  0  0  0  0  0
  141.0580   73.7700  221.8990 O   0  0  0  0  0  0  0  0  0  0  0  0
  141.5940   72.9570  220.8930 C   0  0  0  0  0  0  0  0  0  0  0  0
  142.8340   73.1100  220.4760 N   0  0  0  0  0  0  0  0  0  0  0  0
  143.5440   72.1530  219.6320 C   0  0  0  0  0  0  0  0  0  0  0  0
  142.9849   71.9790  218.7008 H   0  0  0  0  0  0  0  0  0  0  0  0
  143.6557   71.1822  220.1370 H   0  0  0  0  0  0  0  0  0  0  0  0
  144.9040   72.7760  219.3230 C   0  0  2  0  0  0  0  0  0  0  0  0
  144.9388   73.1609  218.2931 H   0  0  0  0  0  0  0  0  0  0  0  0
  145.9360   71.8310  219.4230 O   0  0  0  0  0  0  0  0  0  0  0  0
  145.9350   71.5140  220.3650 H   0  0  0  0  0  0  0  0  0  0  0  0
  145.0910   73.8840  220.3540 C   0  0  0  0  0  0  0  0  0  0  0  0
  145.5750   74.7580  219.8936 H   0  0  0  0  0  0  0  0  0  0  0  0
  145.7331   73.5590  221.1859 H   0  0  0  0  0  0  0  0  0  0  0  0
  143.6850   74.2460  220.8360 C   0  0  1  0  0  0  0  0  0  0  0  0
  143.6705   74.4331  221.9199 H   0  0  0  0  0  0  0  0  0  0  0  0
  143.1950   75.5150  220.1820 C   0  0  0  0  0  0  0  0  0  0  0  0
  144.0340   76.3030  219.6660 O   0  0  0  0  0  0  0  0  0  0  0  0
  141.7920   75.8170  220.1240 N   0  0  0  0  0  0  0  0  0  0  0  0
  141.1190   75.1160  220.5060 H   0  0  0  0  0  0  0  0  0  0  0  0
  141.2890   77.1140  219.6540 C   0  0  1  0  0  0  0  0  0  0  0  0
  140.2039   77.0333  219.4927 H   0  0  0  0  0  0  0  0  0  0  0  0
  141.5290   78.1900  220.6950 C   0  0  0  0  0  0  0  0  0  0  0  0
  141.4330   77.8840  222.0650 C   0  0  0  0  0  0  0  0  0  0  0  0
  141.1920   76.8581  222.3804 H   0  0  0  0  0  0  0  0  0  0  0  0
  141.6420   78.8760  223.0280 C   0  0  0  0  0  0  0  0  0  0  0  0
  141.5693   78.6269  224.0969 H   0  0  0  0  0  0  0  0  0  0  0  0
  141.9430   80.1830  222.6360 C   0  0  0  0  0  0  0  0  0  0  0  0
  142.2000   81.4270  223.8470 Cl  0  0  0  0  0  0  0  0  0  0  0  0
  142.0400   80.4990  221.2770 C   0  0  0  0  0  0  0  0  0  0  0  0
  142.2746   81.5280  220.9671 H   0  0  0  0  0  0  0  0  0  0  0  0
  141.8390   79.5080  220.3130 C   0  0  0  0  0  0  0  0  0  0  0  0
  141.9239   79.7605  219.2458 H   0  0  0  0  0  0  0  0  0  0  0  0
  141.9540   77.4870  218.3230 C   0  0  0  0  0  0  0  0  0  0  0  0
  142.8978   78.0164  218.5203 H   0  0  0  0  0  0  0  0  0  0  0  0
  142.1599   76.5727  217.7471 H   0  0  0  0  0  0  0  0  0  0  0  0
  141.2811   78.1394  217.7471 H   0  0  0  0  0  0  0  0  0  0  0  0
  140.6610   71.9190  220.3190 C   0  0  0  0  0  0  0  0  0  0  0  0
  139.7377   72.4067  219.9731 H   0  0  0  0  0  0  0  0  0  0  0  0
  141.1485   71.4155  219.4712 H   0  0  0  0  0  0  0  0  0  0  0  0
  140.3360   70.9350  221.3500 N   0  0  0  0  0  0  0  0  0  0  0  0
  140.7140   69.9690  221.2340 H   0  0  0  0  0  0  0  0  0  0  0  0
  139.6840   71.2950  222.5770 C   0  0  0  0  0  0  0  0  0  0  0  0
  139.0500   72.3810  222.6560 O   0  0  0  0  0  0  0  0  0  0  0  0
  139.7620   70.4060  223.7540 C   0  0  0  0  0  0  0  0  0  0  0  0
  140.3640   70.8510  224.8940 N   0  0  0  0  0  0  0  0  0  0  0  0
  140.4220   70.0980  226.0240 C   0  0  0  0  0  0  0  0  0  0  0  0
  141.0480   70.6000  227.1700 C   0  0  0  0  0  0  0  0  0  0  0  0
  141.5027   71.6015  227.1541 H   0  0  0  0  0  0  0  0  0  0  0  0
  141.0960   69.8290  228.3360 C   0  0  0  0  0  0  0  0  0  0  0  0
  141.5872   70.2267  229.2363 H   0  0  0  0  0  0  0  0  0  0  0  0
  140.5210   68.5530  228.3610 C   0  0  0  0  0  0  0  0  0  0  0  0
  140.5710   67.8090  229.4940 F   0  0  0  0  0  0  0  0  0  0  0  0
  139.8960   68.0410  227.2160 C   0  0  0  0  0  0  0  0  0  0  0  0
  139.4488   67.0362  227.2359 H   0  0  0  0  0  0  0  0  0  0  0  0
  139.8410   68.8110  226.0440 C   0  0  0  0  0  0  0  0  0  0  0  0
  139.2210   68.3310  224.8840 C   0  0  0  0  0  0  0  0  0  0  0  0
  138.7638   67.3305  224.8774 H   0  0  0  0  0  0  0  0  0  0  0  0
  139.1840   69.1240  223.7360 C   0  0  0  0  0  0  0  0  0  0  0  0
  138.7045   68.7476  222.8204 H   0  0  0  0  0  0  0  0  0  0  0  0
  1  2  1  0
  2  3  1  0
  3  4  2  0
  4  5  1  0
  5  6  1  0
  5  7  1  0
  5  8  1  0
  8  9  1  6
  8 10  1  0
 10 11  1  0
  8 12  1  0
 12 13  1  0
 12 14  1  0
 12 15  1  0
 15 16  1  1
 15 17  1  0
 17 18  2  0
 17 19  1  0
 19 20  1  0
 19 21  1  0
 21 22  1  6
 21 23  1  0
 23 24  2  0
 24 25  1  0
 24 26  1  0
 26 27  1  0
 26 28  2  0
 28 29  1  0
 28 30  1  0
 30 31  1  0
 30 32  2  0
 32 33  1  0
 21 34  1  0
 34 35  1  0
 34 36  1  0
 34 37  1  0
  3 38  1  0
 38 39  1  0
 38 40  1  0
 38 41  1  0
 41 42  1  0
 41 43  1  0
 43 44  2  0
 43 45  1  0
 45 46  2  0
 46 47  1  0
 47 48  2  0
 48 49  1  0
 48 50  1  0
 50 51  1  0
 50 52  2  0
 52 53  1  0
 52 54  1  0
 54 55  1  0
 54 56  2  0
 56 57  1  0
 57 58  1  0
 57 59  2  0
 59 60  1  0
 15  4  1  0
 32 23  1  0
 59 45  1  0
 56 47  1  0
M  CHG  1   4   1
M  END
>  <UniqueID>  (78) 
83

>  <SMILES>  (78) 
C[C@@H](NC(=O)[C@@H]1C[C@@H](O)C/[N+]1=C(/O)CNC(=O)c1ccc2cc(F)ccc2n1)c1ccc(Cl)cc1

>  <Energy>  (78) 
61.2501450166287

>  <Genealogy>  (78) 
C[C@@H](NC(=O)[C@@H]1C[C@@H](O)C[NH+]1C(=O)CNC(=O)c1ccc2cc(F)ccc2n1)c1ccc(Cl)cc1 (protonated)
C[C@@H](NC(=O)[C@@H]1C[C@@H](O)C[N+]1=C(O)CNC(=O)c1ccc2cc(F)ccc2n1)c1ccc(Cl)cc1 (tautomer)
C[C@@H](NC(=O)[C@@H]1C[C@@H](O)C/[N+]1=C(/O)CNC(=O)c1ccc2cc(F)ccc2n1)c1ccc(Cl)cc1 (cis-trans isomerization)
C[C@@H](NC(=O)[C@@H]1C[C@@H](O)C/[N+]1=C(/O)CNC(=O)c1ccc2cc(F)ccc2n1)c1ccc(Cl)cc1 (3D coordinates assigned)
C[C@@H](NC(=O)[C@@H]1C[C@@H](O)C/[N+]1=C(/O)CNC(=O)c1ccc2cc(F)ccc2n1)c1ccc(Cl)cc1 (nonaromatic ring conformer: 61.2501450166287 kcal/mol)

>  <smiles>  (78) 
C[C@@H](NC(=O)[C@@H]1C[C@@H](O)CN1C(=O)CNC(=O)c1ccc2cc(F)ccc2n1)c1ccc(Cl)cc1

>  <score_type>  (78) 
oracle

>  <origin>  (78) 
autodockgpu

>  <m_score__min__energy>  (78) 
-9.3499999999999996

>  <m_primary>  (78) 
energy

>  <meeko>  (78) 
{"free_energy": -9.14, "intermolecular_energy": -11.83, "internal_energy": -2.58, "cluster_size": 5, "cluster_id": 1, "rank_in_cluster": 2}

>  <energy>  (78) 
-6.49

>  <cluster_rmsd>  (78) 
0.04

>  <rmsd>  (78) 
271.67

>  <cluster>  (78) 
5

$$$$
VISCJLQOHKTNMF-GXGKPUEPNA-O
     RDKit          3D

 60 63  0  0  0  0  0  0  0  0999 V2000
  139.0300   74.2900  218.7210 H   0  0  0  0  0  0  0  0  0  0  0  0
  139.8320   73.6880  218.8460 O   0  0  0  0  0  0  0  0  0  0  0  0
  140.5150   73.5340  220.0590 C   0  0  0  0  0  0  0  0  0  0  0  0
  141.8320   73.5450  220.1090 N   0  0  0  0  0  0  0  0  0  0  0  0
  142.6770   72.3880  219.8240 C   0  0  0  0  0  0  0  0  0  0  0  0
  142.4672   72.0028  218.8152 H   0  0  0  0  0  0  0  0  0  0  0  0
  142.4879   71.5708  220.5357 H   0  0  0  0  0  0  0  0  0  0  0  0
  144.1210   72.8770  219.9130 C   0  0  2  0  0  0  0  0  0  0  0  0
  144.5629   72.9929  218.9123 H   0  0  0  0  0  0  0  0  0  0  0  0
  144.9320   71.9580  220.5960 O   0  0  0  0  0  0  0  0  0  0  0  0
  144.3560   71.5360  221.2860 H   0  0  0  0  0  0  0  0  0  0  0  0
  144.0600   74.2010  220.6670 C   0  0  0  0  0  0  0  0  0  0  0  0
  144.7746   74.9192  220.2386 H   0  0  0  0  0  0  0  0  0  0  0  0
  144.3235   74.0756  221.7276 H   0  0  0  0  0  0  0  0  0  0  0  0
  142.6280   74.7100  220.4990 C   0  0  1  0  0  0  0  0  0  0  0  0
  142.2537   75.1608  221.4300 H   0  0  0  0  0  0  0  0  0  0  0  0
  142.5530   75.7900  219.4470 C   0  0  0  0  0  0  0  0  0  0  0  0
  143.5550   76.5310  219.2560 O   0  0  0  0  0  0  0  0  0  0  0  0
  141.3690   75.9610  218.6520 N   0  0  0  0  0  0  0  0  0  0  0  0
  140.5790   75.2930  218.7920 H   0  0  0  0  0  0  0  0  0  0  0  0
  141.1940   77.1010  217.7440 C   0  0  1  0  0  0  0  0  0  0  0  0
  140.2418   76.9806  217.2066 H   0  0  0  0  0  0  0  0  0  0  0  0
  141.1310   78.4010  218.5240 C   0  0  0  0  0  0  0  0  0  0  0  0
  139.9320   78.8010  219.1400 C   0  0  0  0  0  0  0  0  0  0  0  0
  139.0390   78.1633  219.0629 H   0  0  0  0  0  0  0  0  0  0  0  0
  139.8670   80.0040  219.8500 C   0  0  0  0  0  0  0  0  0  0  0  0
  138.9261   80.3057  220.3333 H   0  0  0  0  0  0  0  0  0  0  0  0
  140.9950   80.8240  219.9470 C   0  0  0  0  0  0  0  0  0  0  0  0
  140.9090   82.3350  220.8350 Cl  0  0  0  0  0  0  0  0  0  0  0  0
  142.1920   80.4360  219.3370 C   0  0  0  0  0  0  0  0  0  0  0  0
  143.0801   81.0809  219.4109 H   0  0  0  0  0  0  0  0  0  0  0  0
  142.2620   79.2310  218.6340 C   0  0  0  0  0  0  0  0  0  0  0  0
  143.2087   78.9285  218.1626 H   0  0  0  0  0  0  0  0  0  0  0  0
  142.3310   77.1370  216.7170 C   0  0  0  0  0  0  0  0  0  0  0  0
  143.2976   77.1676  217.2411 H   0  0  0  0  0  0  0  0  0  0  0  0
  142.2841   76.2369  216.0864 H   0  0  0  0  0  0  0  0  0  0  0  0
  142.2273   78.0323  216.0864 H   0  0  0  0  0  0  0  0  0  0  0  0
  139.6520   73.3420  221.2810 C   0  0  0  0  0  0  0  0  0  0  0  0
  138.6466   73.0187  220.9732 H   0  0  0  0  0  0  0  0  0  0  0  0
  140.0999   72.5754  221.9304 H   0  0  0  0  0  0  0  0  0  0  0  0
  139.5560   74.6050  222.0110 N   0  0  0  0  0  0  0  0  0  0  0  0
  139.7230   74.5830  223.0410 H   0  0  0  0  0  0  0  0  0  0  0  0
  139.4240   75.8690  221.3440 C   0  0  0  0  0  0  0  0  0  0  0  0
  139.0240   75.9110  220.1500 O   0  0  0  0  0  0  0  0  0  0  0  0
  139.7650   77.1240  222.0460 C   0  0  0  0  0  0  0  0  0  0  0  0
  141.0630   77.5400  222.0830 N   0  0  0  0  0  0  0  0  0  0  0  0
  141.4320   78.7100  222.6700 C   0  0  0  0  0  0  0  0  0  0  0  0
  142.7770   79.0950  222.6800 C   0  0  0  0  0  0  0  0  0  0  0  0
  143.5384   78.4471  222.2213 H   0  0  0  0  0  0  0  0  0  0  0  0
  143.1530   80.3050  223.2740 C   0  0  0  0  0  0  0  0  0  0  0  0
  144.2106   80.6074  223.2797 H   0  0  0  0  0  0  0  0  0  0  0  0
  142.1880   81.1320  223.8610 C   0  0  0  0  0  0  0  0  0  0  0  0
  142.5590   82.3030  224.4350 F   0  0  0  0  0  0  0  0  0  0  0  0
  140.8400   80.7500  223.8590 C   0  0  0  0  0  0  0  0  0  0  0  0
  140.0836   81.3986  224.3250 H   0  0  0  0  0  0  0  0  0  0  0  0
  140.4550   79.5390  223.2620 C   0  0  0  0  0  0  0  0  0  0  0  0
  139.1160   79.1300  223.2400 C   0  0  0  0  0  0  0  0  0  0  0  0
  138.3395   79.7604  223.6978 H   0  0  0  0  0  0  0  0  0  0  0  0
  138.7690   77.9210  222.6360 C   0  0  0  0  0  0  0  0  0  0  0  0
  137.7192   77.5927  222.6216 H   0  0  0  0  0  0  0  0  0  0  0  0
  1  2  1  0
  2  3  1  0
  3  4  2  0
  4  5  1  0
  5  6  1  0
  5  7  1  0
  5  8  1  0
  8  9  1  6
  8 10  1  0
 10 11  1  0
  8 12  1  0
 12 13  1  0
 12 14  1  0
 12 15  1  0
 15 16  1  1
 15 17  1  0
 17 18  2  0
 17 19  1  0
 19 20  1  0
 19 21  1  0
 21 22  1  6
 21 23  1  0
 23 24  2  0
 24 25  1  0
 24 26  1  0
 26 27  1  0
 26 28  2  0
 28 29  1  0
 28 30  1  0
 30 31  1  0
 30 32  2  0
 32 33  1  0
 21 34  1  0
 34 35  1  0
 34 36  1  0
 34 37  1  0
  3 38  1  0
 38 39  1  0
 38 40  1  0
 38 41  1  0
 41 42  1  0
 41 43  1  0
 43 44  2  0
 43 45  1  0
 45 46  2  0
 46 47  1  0
 47 48  2  0
 48 49  1  0
 48 50  1  0
 50 51  1  0
 50 52  2  0
 52 53  1  0
 52 54  1  0
 54 55  1  0
 54 56  2  0
 56 57  1  0
 57 58  1  0
 57 59  2  0
 59 60  1  0
 15  4  1  0
 32 23  1  0
 59 45  1  0
 56 47  1  0
M  CHG  1   4   1
M  END
>  <UniqueID>  (79) 
83

>  <SMILES>  (79) 
C[C@@H](NC(=O)[C@@H]1C[C@@H](O)C/[N+]1=C(/O)CNC(=O)c1ccc2cc(F)ccc2n1)c1ccc(Cl)cc1

>  <Energy>  (79) 
61.2501450166287

>  <Genealogy>  (79) 
C[C@@H](NC(=O)[C@@H]1C[C@@H](O)C[NH+]1C(=O)CNC(=O)c1ccc2cc(F)ccc2n1)c1ccc(Cl)cc1 (protonated)
C[C@@H](NC(=O)[C@@H]1C[C@@H](O)C[N+]1=C(O)CNC(=O)c1ccc2cc(F)ccc2n1)c1ccc(Cl)cc1 (tautomer)
C[C@@H](NC(=O)[C@@H]1C[C@@H](O)C/[N+]1=C(/O)CNC(=O)c1ccc2cc(F)ccc2n1)c1ccc(Cl)cc1 (cis-trans isomerization)
C[C@@H](NC(=O)[C@@H]1C[C@@H](O)C/[N+]1=C(/O)CNC(=O)c1ccc2cc(F)ccc2n1)c1ccc(Cl)cc1 (3D coordinates assigned)
C[C@@H](NC(=O)[C@@H]1C[C@@H](O)C/[N+]1=C(/O)CNC(=O)c1ccc2cc(F)ccc2n1)c1ccc(Cl)cc1 (nonaromatic ring conformer: 61.2501450166287 kcal/mol)

>  <smiles>  (79) 
C[C@@H](NC(=O)[C@@H]1C[C@@H](O)CN1C(=O)CNC(=O)c1ccc2cc(F)ccc2n1)c1ccc(Cl)cc1

>  <score_type>  (79) 
oracle

>  <origin>  (79) 
autodockgpu

>  <m_score__min__energy>  (79) 
-9.3499999999999996

>  <m_primary>  (79) 
energy

>  <meeko>  (79) 
{"free_energy": -5.96, "intermolecular_energy": -8.64, "internal_energy": -5.55, "cluster_size": 4, "cluster_id": 3, "rank_in_cluster": 3}

>  <energy>  (79) 
-6.48

>  <cluster_rmsd>  (79) 
0.0

>  <rmsd>  (79) 
271.6

>  <cluster>  (79) 
6

$$$$
VISCJLQOHKTNMF-GXGKPUEPNA-O
     RDKit          3D

 60 63  0  0  0  0  0  0  0  0999 V2000
  138.9560   73.4950  222.8570 H   0  0  0  0  0  0  0  0  0  0  0  0
  139.9180   73.7700  222.7190 O   0  0  0  0  0  0  0  0  0  0  0  0
  140.5280   73.8880  221.4650 C   0  0  0  0  0  0  0  0  0  0  0  0
  140.9050   75.0590  220.9930 N   0  0  0  0  0  0  0  0  0  0  0  0
  141.6740   75.2440  219.7650 C   0  0  0  0  0  0  0  0  0  0  0  0
  141.1478   74.7867  218.9141 H   0  0  0  0  0  0  0  0  0  0  0  0
  142.6624   74.7667  219.8376 H   0  0  0  0  0  0  0  0  0  0  0  0
  141.8010   76.7520  219.5590 C   0  0  2  0  0  0  0  0  0  0  0  0
  141.1274   77.1019  218.7629 H   0  0  0  0  0  0  0  0  0  0  0  0
  143.0980   77.1070  219.1590 O   0  0  0  0  0  0  0  0  0  0  0  0
  143.5200   77.5490  219.9430 H   0  0  0  0  0  0  0  0  0  0  0  0
  141.4650   77.3800  220.9080 C   0  0  0  0  0  0  0  0  0  0  0  0
  140.8818   78.3019  220.7670 H   0  0  0  0  0  0  0  0  0  0  0  0
  142.3731   77.6538  221.4652 H   0  0  0  0  0  0  0  0  0  0  0  0
  140.6370   76.3350  221.6580 C   0  0  1  0  0  0  0  0  0  0  0  0
  140.9104   76.2994  222.7229 H   0  0  0  0  0  0  0  0  0  0  0  0
  139.1660   76.6690  221.6120 C   0  0  0  0  0  0  0  0  0  0  0  0
  138.7630   77.5550  220.8100 O   0  0  0  0  0  0  0  0  0  0  0  0
  138.2280   75.9740  222.4480 N   0  0  0  0  0  0  0  0  0  0  0  0
  138.5840   75.2040  223.0570 H   0  0  0  0  0  0  0  0  0  0  0  0
  136.8220   76.3850  222.5570 C   0  0  1  0  0  0  0  0  0  0  0  0
  136.3659   76.3494  221.5566 H   0  0  0  0  0  0  0  0  0  0  0  0
  136.0550   75.4340  223.4560 C   0  0  0  0  0  0  0  0  0  0  0  0
  135.3760   75.9200  224.5880 C   0  0  0  0  0  0  0  0  0  0  0  0
  135.3943   76.9959  224.8162 H   0  0  0  0  0  0  0  0  0  0  0  0
  134.6780   75.0440  225.4250 C   0  0  0  0  0  0  0  0  0  0  0  0
  134.1472   75.4334  226.3063 H   0  0  0  0  0  0  0  0  0  0  0  0
  134.6530   73.6760  225.1450 C   0  0  0  0  0  0  0  0  0  0  0  0
  133.7790   72.5790  226.2000 Cl  0  0  0  0  0  0  0  0  0  0  0  0
  135.3250   73.1810  224.0230 C   0  0  0  0  0  0  0  0  0  0  0  0
  135.3081   72.1032  223.8037 H   0  0  0  0  0  0  0  0  0  0  0  0
  136.0180   74.0540  223.1800 C   0  0  0  0  0  0  0  0  0  0  0  0
  136.5383   73.6601  222.2945 H   0  0  0  0  0  0  0  0  0  0  0  0
  136.7320   77.8220  223.0830 C   0  0  0  0  0  0  0  0  0  0  0  0
  136.7327   77.8106  224.1829 H   0  0  0  0  0  0  0  0  0  0  0  0
  137.5957   78.3995  222.7217 H   0  0  0  0  0  0  0  0  0  0  0  0
  135.8030   78.2872  222.7217 H   0  0  0  0  0  0  0  0  0  0  0  0
  140.7070   72.6010  220.6970 C   0  0  0  0  0  0  0  0  0  0  0  0
  139.8914   72.4929  219.9669 H   0  0  0  0  0  0  0  0  0  0  0  0
  141.6714   72.6198  220.1682 H   0  0  0  0  0  0  0  0  0  0  0  0
  140.6820   71.4740  221.6260 N   0  0  0  0  0  0  0  0  0  0  0  0
  141.5820   70.9810  221.8150 H   0  0  0  0  0  0  0  0  0  0  0  0
  139.5230   71.1490  222.4080 C   0  0  0  0  0  0  0  0  0  0  0  0
  138.3910   71.5820  222.0630 O   0  0  0  0  0  0  0  0  0  0  0  0
  139.6490   70.3170  223.6230 C   0  0  0  0  0  0  0  0  0  0  0  0
  140.2480   70.8370  224.7320 N   0  0  0  0  0  0  0  0  0  0  0  0
  140.3490   70.1390  225.8940 C   0  0  0  0  0  0  0  0  0  0  0  0
  140.9710   70.7160  227.0070 C   0  0  0  0  0  0  0  0  0  0  0  0
  141.3874   71.7319  226.9393 H   0  0  0  0  0  0  0  0  0  0  0  0
  141.0630   70.0010  228.2050 C   0  0  0  0  0  0  0  0  0  0  0  0
  141.5502   70.4576  229.0791 H   0  0  0  0  0  0  0  0  0  0  0  0
  140.5380   68.7070  228.2970 C   0  0  0  0  0  0  0  0  0  0  0  0
  140.6300   68.0190  229.4610 F   0  0  0  0  0  0  0  0  0  0  0  0
  139.9180   68.1210  227.1850 C   0  0  0  0  0  0  0  0  0  0  0  0
  139.5098   67.1020  227.2563 H   0  0  0  0  0  0  0  0  0  0  0  0
  139.8180   68.8340  225.9810 C   0  0  0  0  0  0  0  0  0  0  0  0
  139.2020   68.2780  224.8530 C   0  0  0  0  0  0  0  0  0  0  0  0
  138.7842   67.2614  224.8983 H   0  0  0  0  0  0  0  0  0  0  0  0
  139.1190   69.0160  223.6710 C   0  0  0  0  0  0  0  0  0  0  0  0
  138.6408   68.5812  222.7809 H   0  0  0  0  0  0  0  0  0  0  0  0
  1  2  1  0
  2  3  1  0
  3  4  2  0
  4  5  1  0
  5  6  1  0
  5  7  1  0
  5  8  1  0
  8  9  1  6
  8 10  1  0
 10 11  1  0
  8 12  1  0
 12 13  1  0
 12 14  1  0
 12 15  1  0
 15 16  1  1
 15 17  1  0
 17 18  2  0
 17 19  1  0
 19 20  1  0
 19 21  1  0
 21 22  1  6
 21 23  1  0
 23 24  2  0
 24 25  1  0
 24 26  1  0
 26 27  1  0
 26 28  2  0
 28 29  1  0
 28 30  1  0
 30 31  1  0
 30 32  2  0
 32 33  1  0
 21 34  1  0
 34 35  1  0
 34 36  1  0
 34 37  1  0
  3 38  1  0
 38 39  1  0
 38 40  1  0
 38 41  1  0
 41 42  1  0
 41 43  1  0
 43 44  2  0
 43 45  1  0
 45 46  2  0
 46 47  1  0
 47 48  2  0
 48 49  1  0
 48 50  1  0
 50 51  1  0
 50 52  2  0
 52 53  1  0
 52 54  1  0
 54 55  1  0
 54 56  2  0
 56 57  1  0
 57 58  1  0
 57 59  2  0
 59 60  1  0
 15  4  1  0
 32 23  1  0
 59 45  1  0
 56 47  1  0
M  CHG  1   4   1
M  END
>  <UniqueID>  (80) 
83

>  <SMILES>  (80) 
C[C@@H](NC(=O)[C@@H]1C[C@@H](O)C/[N+]1=C(/O)CNC(=O)c1ccc2cc(F)ccc2n1)c1ccc(Cl)cc1

>  <Energy>  (80) 
61.2501450166287

>  <Genealogy>  (80) 
C[C@@H](NC(=O)[C@@H]1C[C@@H](O)C[NH+]1C(=O)CNC(=O)c1ccc2cc(F)ccc2n1)c1ccc(Cl)cc1 (protonated)
C[C@@H](NC(=O)[C@@H]1C[C@@H](O)C[N+]1=C(O)CNC(=O)c1ccc2cc(F)ccc2n1)c1ccc(Cl)cc1 (tautomer)
C[C@@H](NC(=O)[C@@H]1C[C@@H](O)C/[N+]1=C(/O)CNC(=O)c1ccc2cc(F)ccc2n1)c1ccc(Cl)cc1 (cis-trans isomerization)
C[C@@H](NC(=O)[C@@H]1C[C@@H](O)C/[N+]1=C(/O)CNC(=O)c1ccc2cc(F)ccc2n1)c1ccc(Cl)cc1 (3D coordinates assigned)
C[C@@H](NC(=O)[C@@H]1C[C@@H](O)C/[N+]1=C(/O)CNC(=O)c1ccc2cc(F)ccc2n1)c1ccc(Cl)cc1 (nonaromatic ring conformer: 61.2501450166287 kcal/mol)

>  <smiles>  (80) 
C[C@@H](NC(=O)[C@@H]1C[C@@H](O)CN1C(=O)CNC(=O)c1ccc2cc(F)ccc2n1)c1ccc(Cl)cc1

>  <score_type>  (80) 
oracle

>  <origin>  (80) 
autodockgpu

>  <m_score__min__energy>  (80) 
-9.3499999999999996

>  <m_primary>  (80) 
energy

>  <meeko>  (80) 
{"free_energy": -8.76, "intermolecular_energy": -11.44, "internal_energy": -2.8, "cluster_size": 3, "cluster_id": 2, "rank_in_cluster": 1}

>  <energy>  (80) 
-5.59

>  <cluster_rmsd>  (80) 
0.0

>  <rmsd>  (80) 
271.47

>  <cluster>  (80) 
7

$$$$
