
     RDKit          3D

 63 67  0  0  0  0  0  0  0  0999 V2000
  135.2920   74.8860  220.3500 O   0  0  0  0  0  0  0  0  0  0  0  0
  135.1580   73.5480  219.9220 C   0  0  0  0  0  0  0  0  0  0  0  0
  134.8900   72.7340  221.1680 C   0  0  0  0  0  0  0  0  0  0  0  0
  135.5940   73.3450  222.2670 N   0  0  0  0  0  0  0  0  0  0  0  0
  134.8500   74.0230  223.3150 C   0  0  0  0  0  0  0  0  0  0  0  0
  135.6530   75.2130  223.8160 C   0  0  0  0  0  0  0  0  0  0  0  0
  135.8450   76.1330  222.7860 O   0  0  0  0  0  0  0  0  0  0  0  0
  137.0130   73.2840  222.3170 C   0  0  0  0  0  0  0  0  0  0  0  0
  137.7180   74.3070  221.7820 N   0  0  0  0  0  0  0  0  0  0  0  0
  139.0740   74.3160  221.7970 C   0  0  0  0  0  0  0  0  0  0  0  0
  139.8320   75.3900  221.2370 N   0  0  0  0  0  0  0  0  0  0  0  0
  139.4210   76.0850  220.0360 C   0  0  0  0  0  0  0  0  0  0  0  0
  139.1550   77.5310  220.3640 C   0  0  0  0  0  0  0  0  0  0  0  0
  139.8950   77.9960  221.5340 C   0  0  0  0  0  0  0  0  0  0  0  0
  139.6810   79.3060  221.9540 C   0  0  0  0  0  0  0  0  0  0  0  0
  140.3280   79.8440  223.0450 C   0  0  0  0  0  0  0  0  0  0  0  0
  141.2420   79.0900  223.7920 C   0  0  0  0  0  0  0  0  0  0  0  0
  141.4440   77.7950  223.3660 C   0  0  0  0  0  0  0  0  0  0  0  0
  140.7920   77.2540  222.2680 C   0  0  0  0  0  0  0  0  0  0  0  0
  141.0770   75.8330  221.8790 C   0  0  0  0  0  0  0  0  0  0  0  0
  139.7360   73.3120  222.3410 N   0  0  0  0  0  0  0  0  0  0  0  0
  139.0580   72.2800  222.8800 C   0  0  0  0  0  0  0  0  0  0  0  0
  139.7630   71.1890  223.4670 N   0  0  0  0  0  0  0  0  0  0  0  0
  139.5810   69.8130  223.0670 C   0  0  0  0  0  0  0  0  0  0  0  0
  139.0810   68.9590  224.2210 C   0  0  0  0  0  0  0  0  0  0  0  0
  139.7130   69.3680  225.4960 C   0  0  0  0  0  0  0  0  0  0  0  0
  139.5350   68.5600  226.5990 C   0  0  0  0  0  0  0  0  0  0  0  0
  140.1120   68.9120  227.8010 C   0  0  0  0  0  0  0  0  0  0  0  0
  140.8740   70.0510  227.9650 C   0  0  0  0  0  0  0  0  0  0  0  0
  141.0530   70.8590  226.8680 C   0  0  0  0  0  0  0  0  0  0  0  0
  140.4710   70.5090  225.6460 C   0  0  0  0  0  0  0  0  0  0  0  0
  140.7240   71.4490  224.5230 C   0  0  0  0  0  0  0  0  0  0  0  0
  137.6950   72.2650  222.8690 N   0  0  0  0  0  0  0  0  0  0  0  0
  136.0650   75.0100  220.9270 H   0  0  0  0  0  0  0  0  0  0  0  0
  134.3186   73.4549  219.2172 H   0  0  0  0  0  0  0  0  0  0  0  0
  136.0624   73.2001  219.4015 H   0  0  0  0  0  0  0  0  0  0  0  0
  133.8105   72.7210  221.3789 H   0  0  0  0  0  0  0  0  0  0  0  0
  135.2338   71.6988  221.0260 H   0  0  0  0  0  0  0  0  0  0  0  0
  133.8872   74.3727  222.9140 H   0  0  0  0  0  0  0  0  0  0  0  0
  134.6688   73.3260  224.1465 H   0  0  0  0  0  0  0  0  0  0  0  0
  135.1083   75.6980  224.6394 H   0  0  0  0  0  0  0  0  0  0  0  0
  136.6332   74.8609  224.1698 H   0  0  0  0  0  0  0  0  0  0  0  0
  136.3840   75.6670  222.0670 H   0  0  0  0  0  0  0  0  0  0  0  0
  140.2196   76.0201  219.2823 H   0  0  0  0  0  0  0  0  0  0  0  0
  138.5056   75.6230  219.6378 H   0  0  0  0  0  0  0  0  0  0  0  0
  139.4446   78.1457  219.4990 H   0  0  0  0  0  0  0  0  0  0  0  0
  138.0834   77.6246  220.5938 H   0  0  0  0  0  0  0  0  0  0  0  0
  138.9707   79.9333  221.3954 H   0  0  0  0  0  0  0  0  0  0  0  0
  140.1229   80.8851  223.3348 H   0  0  0  0  0  0  0  0  0  0  0  0
  141.7663   79.5059  224.6650 H   0  0  0  0  0  0  0  0  0  0  0  0
  142.1531   77.1631  223.9209 H   0  0  0  0  0  0  0  0  0  0  0  0
  141.9210   75.7809  221.1754 H   0  0  0  0  0  0  0  0  0  0  0  0
  141.3604   75.2054  222.7368 H   0  0  0  0  0  0  0  0  0  0  0  0
  138.8473   69.7728  222.2484 H   0  0  0  0  0  0  0  0  0  0  0  0
  140.5539   69.4168  222.7406 H   0  0  0  0  0  0  0  0  0  0  0  0
  137.9904   69.0734  224.3071 H   0  0  0  0  0  0  0  0  0  0  0  0
  139.3436   67.9098  224.0202 H   0  0  0  0  0  0  0  0  0  0  0  0
  138.9365   67.6404  226.5206 H   0  0  0  0  0  0  0  0  0  0  0  0
  139.9578   68.2545  228.6693 H   0  0  0  0  0  0  0  0  0  0  0  0
  141.3215   70.3027  228.9378 H   0  0  0  0  0  0  0  0  0  0  0  0
  141.6520   71.7778  226.9510 H   0  0  0  0  0  0  0  0  0  0  0  0
  140.6132   72.4848  224.8763 H   0  0  0  0  0  0  0  0  0  0  0  0
  141.7456   71.3067  224.1407 H   0  0  0  0  0  0  0  0  0  0  0  0
  1  2  1  0
  2  3  1  0
  3  4  1  0
  4  5  1  0
  5  6  1  0
  6  7  1  0
  4  8  1  0
  8  9  2  0
  9 10  1  0
 10 11  1  0
 11 12  1  0
 12 13  1  0
 13 14  1  0
 14 15  2  0
 15 16  1  0
 16 17  2  0
 17 18  1  0
 18 19  2  0
 19 20  1  0
 10 21  2  0
 21 22  1  0
 22 23  1  0
 23 24  1  0
 24 25  1  0
 25 26  1  0
 26 27  2  0
 27 28  1  0
 28 29  2  0
 29 30  1  0
 30 31  2  0
 31 32  1  0
 22 33  2  0
 33  8  1  0
 20 11  1  0
 32 23  1  0
 19 14  1  0
 31 26  1  0
  1 34  1  0
  2 35  1  0
  2 36  1  0
  3 37  1  0
  3 38  1  0
  5 39  1  0
  5 40  1  0
  6 41  1  0
  6 42  1  0
  7 43  1  0
 12 44  1  0
 12 45  1  0
 13 46  1  0
 13 47  1  0
 15 48  1  0
 16 49  1  0
 17 50  1  0
 18 51  1  0
 20 52  1  0
 20 53  1  0
 24 54  1  0
 24 55  1  0
 25 56  1  0
 25 57  1  0
 27 58  1  0
 28 59  1  0
 29 60  1  0
 30 61  1  0
 32 62  1  0
 32 63  1  0
M  END
>  <smiles>  (1) 
OCCN(CCO)c1nc(N2CCc3ccccc3C2)nc(N2CCc3ccccc3C2)n1

>  <score_type>  (1) 
oracle

>  <origin>  (1) 
autodockgpu

>  <m_score__min__energy>  (1) 
-6.79

>  <m_primary>  (1) 
energy

>  <meeko>  (1) 
{"free_energy": -6.09, "intermolecular_energy": -8.78, "internal_energy": -4.09, "cluster_size": 4, "cluster_id": 1, "rank_in_cluster": 4}

>  <energy>  (1) 
-6.79

>  <cluster_rmsd>  (1) 
0.0

>  <rmsd>  (1) 
270.38

>  <cluster>  (1) 
1

$$$$

     RDKit          3D

 63 67  0  0  0  0  0  0  0  0999 V2000
  134.6880   68.0630  225.0580 O   0  0  0  0  0  0  0  0  0  0  0  0
  133.4610   68.0610  224.3620 C   0  0  0  0  0  0  0  0  0  0  0  0
  133.5880   69.1140  223.2840 C   0  0  0  0  0  0  0  0  0  0  0  0
  134.0080   70.3450  223.9030 N   0  0  0  0  0  0  0  0  0  0  0  0
  133.0790   71.0880  224.7390 C   0  0  0  0  0  0  0  0  0  0  0  0
  133.7060   71.3230  226.1040 C   0  0  0  0  0  0  0  0  0  0  0  0
  134.3650   70.1730  226.5370 O   0  0  0  0  0  0  0  0  0  0  0  0
  135.3270   70.8290  223.6890 C   0  0  0  0  0  0  0  0  0  0  0  0
  135.4840   71.9740  222.9840 N   0  0  0  0  0  0  0  0  0  0  0  0
  136.7130   72.4940  222.7440 C   0  0  0  0  0  0  0  0  0  0  0  0
  136.8940   73.7010  222.0020 N   0  0  0  0  0  0  0  0  0  0  0  0
  136.0830   74.8790  222.2280 C   0  0  0  0  0  0  0  0  0  0  0  0
  136.9630   76.0050  222.7030 C   0  0  0  0  0  0  0  0  0  0  0  0
  138.3510   75.8660  222.2690 C   0  0  0  0  0  0  0  0  0  0  0  0
  139.2600   76.8300  222.6980 C   0  0  0  0  0  0  0  0  0  0  0  0
  140.5910   76.7930  222.3460 C   0  0  0  0  0  0  0  0  0  0  0  0
  141.1000   75.7740  221.5320 C   0  0  0  0  0  0  0  0  0  0  0  0
  140.1900   74.8260  221.1150 C   0  0  0  0  0  0  0  0  0  0  0  0
  138.8490   74.8650  221.4700 C   0  0  0  0  0  0  0  0  0  0  0  0
  137.9330   73.7880  220.9670 C   0  0  0  0  0  0  0  0  0  0  0  0
  137.7900   71.8830  223.2010 N   0  0  0  0  0  0  0  0  0  0  0  0
  137.6620   70.7420  223.9050 C   0  0  0  0  0  0  0  0  0  0  0  0
  138.8190   70.0720  224.3990 N   0  0  0  0  0  0  0  0  0  0  0  0
  138.9940   68.6390  224.3510 C   0  0  0  0  0  0  0  0  0  0  0  0
  139.1430   68.0500  225.7440 C   0  0  0  0  0  0  0  0  0  0  0  0
  139.9350   68.9450  226.6180 C   0  0  0  0  0  0  0  0  0  0  0  0
  140.3460   68.4640  227.8420 C   0  0  0  0  0  0  0  0  0  0  0  0
  141.0860   69.2740  228.6790 C   0  0  0  0  0  0  0  0  0  0  0  0
  141.4460   70.5650  228.3510 C   0  0  0  0  0  0  0  0  0  0  0  0
  141.0390   71.0480  227.1310 C   0  0  0  0  0  0  0  0  0  0  0  0
  140.2880   70.2340  226.2770 C   0  0  0  0  0  0  0  0  0  0  0  0
  139.8960   70.8510  224.9830 C   0  0  0  0  0  0  0  0  0  0  0  0
  136.4290   70.2130  224.1500 N   0  0  0  0  0  0  0  0  0  0  0  0
  135.1560   68.9100  224.9710 H   0  0  0  0  0  0  0  0  0  0  0  0
  133.2792   67.0739  223.9118 H   0  0  0  0  0  0  0  0  0  0  0  0
  132.6173   68.2746  225.0347 H   0  0  0  0  0  0  0  0  0  0  0  0
  134.3346   68.7975  222.5407 H   0  0  0  0  0  0  0  0  0  0  0  0
  132.6228   69.2549  222.7756 H   0  0  0  0  0  0  0  0  0  0  0  0
  132.8536   72.0557  224.2670 H   0  0  0  0  0  0  0  0  0  0  0  0
  132.1486   70.5129  224.8558 H   0  0  0  0  0  0  0  0  0  0  0  0
  134.4274   72.1505  226.0346 H   0  0  0  0  0  0  0  0  0  0  0  0
  132.9133   71.5743  226.8240 H   0  0  0  0  0  0  0  0  0  0  0  0
  135.1210   70.0010  225.8880 H   0  0  0  0  0  0  0  0  0  0  0  0
  135.5881   75.1700  221.2897 H   0  0  0  0  0  0  0  0  0  0  0  0
  135.3201   74.6608  222.9898 H   0  0  0  0  0  0  0  0  0  0  0  0
  136.5652   76.9515  222.3080 H   0  0  0  0  0  0  0  0  0  0  0  0
  136.9583   75.9851  223.8028 H   0  0  0  0  0  0  0  0  0  0  0  0
  138.9027   77.6488  223.3398 H   0  0  0  0  0  0  0  0  0  0  0  0
  141.2675   77.5796  222.7116 H   0  0  0  0  0  0  0  0  0  0  0  0
  142.1605   75.7323  221.2430 H   0  0  0  0  0  0  0  0  0  0  0  0
  140.5417   74.0042  220.4740 H   0  0  0  0  0  0  0  0  0  0  0  0
  137.4969   74.0661  219.9962 H   0  0  0  0  0  0  0  0  0  0  0  0
  138.4507   72.8316  220.8021 H   0  0  0  0  0  0  0  0  0  0  0  0
  138.1170   68.1878  223.8639 H   0  0  0  0  0  0  0  0  0  0  0  0
  139.9113   68.4217  223.7841 H   0  0  0  0  0  0  0  0  0  0  0  0
  138.1445   67.9096  226.1836 H   0  0  0  0  0  0  0  0  0  0  0  0
  139.6677   67.0867  225.6623 H   0  0  0  0  0  0  0  0  0  0  0  0
  140.0858   67.4406  228.1501 H   0  0  0  0  0  0  0  0  0  0  0  0
  141.4035   68.8720  229.6524 H   0  0  0  0  0  0  0  0  0  0  0  0
  142.0373   71.1848  229.0411 H   0  0  0  0  0  0  0  0  0  0  0  0
  141.3030   72.0716  226.8268 H   0  0  0  0  0  0  0  0  0  0  0  0
  139.5551   71.8828  225.1539 H   0  0  0  0  0  0  0  0  0  0  0  0
  140.7584   70.8660  224.3003 H   0  0  0  0  0  0  0  0  0  0  0  0
  1  2  1  0
  2  3  1  0
  3  4  1  0
  4  5  1  0
  5  6  1  0
  6  7  1  0
  4  8  1  0
  8  9  2  0
  9 10  1  0
 10 11  1  0
 11 12  1  0
 12 13  1  0
 13 14  1  0
 14 15  2  0
 15 16  1  0
 16 17  2  0
 17 18  1  0
 18 19  2  0
 19 20  1  0
 10 21  2  0
 21 22  1  0
 22 23  1  0
 23 24  1  0
 24 25  1  0
 25 26  1  0
 26 27  2  0
 27 28  1  0
 28 29  2  0
 29 30  1  0
 30 31  2  0
 31 32  1  0
 22 33  2  0
 33  8  1  0
 20 11  1  0
 32 23  1  0
 19 14  1  0
 31 26  1  0
  1 34  1  0
  2 35  1  0
  2 36  1  0
  3 37  1  0
  3 38  1  0
  5 39  1  0
  5 40  1  0
  6 41  1  0
  6 42  1  0
  7 43  1  0
 12 44  1  0
 12 45  1  0
 13 46  1  0
 13 47  1  0
 15 48  1  0
 16 49  1  0
 17 50  1  0
 18 51  1  0
 20 52  1  0
 20 53  1  0
 24 54  1  0
 24 55  1  0
 25 56  1  0
 25 57  1  0
 27 58  1  0
 28 59  1  0
 29 60  1  0
 30 61  1  0
 32 62  1  0
 32 63  1  0
M  END
>  <smiles>  (2) 
OCCN(CCO)c1nc(N2CCc3ccccc3C2)nc(N2CCc3ccccc3C2)n1

>  <score_type>  (2) 
oracle

>  <origin>  (2) 
autodockgpu

>  <m_score__min__energy>  (2) 
-6.79

>  <m_primary>  (2) 
energy

>  <meeko>  (2) 
{"free_energy": -6.23, "intermolecular_energy": -8.91, "internal_energy": -4.03, "cluster_size": 6, "cluster_id": 4, "rank_in_cluster": 6}

>  <energy>  (2) 
-6.71

>  <cluster_rmsd>  (2) 
0.29

>  <rmsd>  (2) 
270.37

>  <cluster>  (2) 
1

$$$$

     RDKit          3D

 63 67  0  0  0  0  0  0  0  0999 V2000
  135.3820   75.8360  221.3390 O   0  0  0  0  0  0  0  0  0  0  0  0
  134.3320   74.9520  221.0080 C   0  0  0  0  0  0  0  0  0  0  0  0
  134.9340   73.5650  221.0170 C   0  0  0  0  0  0  0  0  0  0  0  0
  135.5980   73.3690  222.2810 N   0  0  0  0  0  0  0  0  0  0  0  0
  134.8140   73.2420  223.4980 C   0  0  0  0  0  0  0  0  0  0  0  0
  135.3470   74.2070  224.5460 C   0  0  0  0  0  0  0  0  0  0  0  0
  135.6900   75.4210  223.9530 O   0  0  0  0  0  0  0  0  0  0  0  0
  137.0170   73.3060  222.3300 C   0  0  0  0  0  0  0  0  0  0  0  0
  137.7240   74.3270  221.7930 N   0  0  0  0  0  0  0  0  0  0  0  0
  139.0800   74.3330  221.8060 C   0  0  0  0  0  0  0  0  0  0  0  0
  139.8390   75.4040  221.2440 N   0  0  0  0  0  0  0  0  0  0  0  0
  139.4320   76.0930  220.0380 C   0  0  0  0  0  0  0  0  0  0  0  0
  139.1650   77.5410  220.3580 C   0  0  0  0  0  0  0  0  0  0  0  0
  139.9020   78.0110  221.5280 C   0  0  0  0  0  0  0  0  0  0  0  0
  139.6870   79.3240  221.9410 C   0  0  0  0  0  0  0  0  0  0  0  0
  140.3310   79.8670  223.0320 C   0  0  0  0  0  0  0  0  0  0  0  0
  141.2420   79.1170  223.7850 C   0  0  0  0  0  0  0  0  0  0  0  0
  141.4460   77.8190  223.3660 C   0  0  0  0  0  0  0  0  0  0  0  0
  140.7960   77.2740  222.2680 C   0  0  0  0  0  0  0  0  0  0  0  0
  141.0820   75.8510  221.8870 C   0  0  0  0  0  0  0  0  0  0  0  0
  139.7400   73.3290  222.3530 N   0  0  0  0  0  0  0  0  0  0  0  0
  139.0610   72.3000  222.8940 C   0  0  0  0  0  0  0  0  0  0  0  0
  139.7640   71.2090  223.4830 N   0  0  0  0  0  0  0  0  0  0  0  0
  139.5800   69.8330  223.0850 C   0  0  0  0  0  0  0  0  0  0  0  0
  139.0790   68.9810  224.2400 C   0  0  0  0  0  0  0  0  0  0  0  0
  139.7110   69.3910  225.5150 C   0  0  0  0  0  0  0  0  0  0  0  0
  139.5320   68.5850  226.6190 C   0  0  0  0  0  0  0  0  0  0  0  0
  140.1080   68.9390  227.8210 C   0  0  0  0  0  0  0  0  0  0  0  0
  140.8720   70.0760  227.9830 C   0  0  0  0  0  0  0  0  0  0  0  0
  141.0530   70.8820  226.8850 C   0  0  0  0  0  0  0  0  0  0  0  0
  140.4710   70.5310  225.6630 C   0  0  0  0  0  0  0  0  0  0  0  0
  140.7250   71.4690  224.5390 C   0  0  0  0  0  0  0  0  0  0  0  0
  137.6970   72.2870  222.8840 N   0  0  0  0  0  0  0  0  0  0  0  0
  136.0890   75.3930  221.8360 H   0  0  0  0  0  0  0  0  0  0  0  0
  133.5245   75.0227  221.7516 H   0  0  0  0  0  0  0  0  0  0  0  0
  133.8959   75.1948  220.0278 H   0  0  0  0  0  0  0  0  0  0  0  0
  134.1399   72.8139  220.8934 H   0  0  0  0  0  0  0  0  0  0  0  0
  135.6521   73.4577  220.1906 H   0  0  0  0  0  0  0  0  0  0  0  0
  133.7615   73.4787  223.2828 H   0  0  0  0  0  0  0  0  0  0  0  0
  134.8875   72.2117  223.8763 H   0  0  0  0  0  0  0  0  0  0  0  0
  134.5723   74.3807  225.3073 H   0  0  0  0  0  0  0  0  0  0  0  0
  136.2420   73.7705  225.0134 H   0  0  0  0  0  0  0  0  0  0  0  0
  136.3310   75.2130  223.1980 H   0  0  0  0  0  0  0  0  0  0  0  0
  140.2331   76.0242  219.2873 H   0  0  0  0  0  0  0  0  0  0  0  0
  138.5179   75.6290  219.6391 H   0  0  0  0  0  0  0  0  0  0  0  0
  139.4572   78.1515  219.4909 H   0  0  0  0  0  0  0  0  0  0  0  0
  138.0927   77.6363  220.5839 H   0  0  0  0  0  0  0  0  0  0  0  0
  138.9789   79.9489  221.3770 H   0  0  0  0  0  0  0  0  0  0  0  0
  140.1251   80.9095  223.3163 H   0  0  0  0  0  0  0  0  0  0  0  0
  141.7634   79.5373  224.6577 H   0  0  0  0  0  0  0  0  0  0  0  0
  142.1535   77.1895  223.9256 H   0  0  0  0  0  0  0  0  0  0  0  0
  141.9278   75.7954  221.1859 H   0  0  0  0  0  0  0  0  0  0  0  0
  141.3630   75.2280  222.7489 H   0  0  0  0  0  0  0  0  0  0  0  0
  138.8461   69.7928  222.2666 H   0  0  0  0  0  0  0  0  0  0  0  0
  140.5524   69.4351  222.7591 H   0  0  0  0  0  0  0  0  0  0  0  0
  137.9884   69.0965  224.3256 H   0  0  0  0  0  0  0  0  0  0  0  0
  139.3409   67.9314  224.0406 H   0  0  0  0  0  0  0  0  0  0  0  0
  138.9335   67.6653  226.5417 H   0  0  0  0  0  0  0  0  0  0  0  0
  139.9509   68.2843  228.6909 H   0  0  0  0  0  0  0  0  0  0  0  0
  141.3199   70.3282  228.9555 H   0  0  0  0  0  0  0  0  0  0  0  0
  141.6535   71.8000  226.9670 H   0  0  0  0  0  0  0  0  0  0  0  0
  140.6153   72.5054  224.8910 H   0  0  0  0  0  0  0  0  0  0  0  0
  141.7464   71.3248  224.1570 H   0  0  0  0  0  0  0  0  0  0  0  0
  1  2  1  0
  2  3  1  0
  3  4  1  0
  4  5  1  0
  5  6  1  0
  6  7  1  0
  4  8  1  0
  8  9  2  0
  9 10  1  0
 10 11  1  0
 11 12  1  0
 12 13  1  0
 13 14  1  0
 14 15  2  0
 15 16  1  0
 16 17  2  0
 17 18  1  0
 18 19  2  0
 19 20  1  0
 10 21  2  0
 21 22  1  0
 22 23  1  0
 23 24  1  0
 24 25  1  0
 25 26  1  0
 26 27  2  0
 27 28  1  0
 28 29  2  0
 29 30  1  0
 30 31  2  0
 31 32  1  0
 22 33  2  0
 33  8  1  0
 20 11  1  0
 32 23  1  0
 19 14  1  0
 31 26  1  0
  1 34  1  0
  2 35  1  0
  2 36  1  0
  3 37  1  0
  3 38  1  0
  5 39  1  0
  5 40  1  0
  6 41  1  0
  6 42  1  0
  7 43  1  0
 12 44  1  0
 12 45  1  0
 13 46  1  0
 13 47  1  0
 15 48  1  0
 16 49  1  0
 17 50  1  0
 18 51  1  0
 20 52  1  0
 20 53  1  0
 24 54  1  0
 24 55  1  0
 25 56  1  0
 25 57  1  0
 27 58  1  0
 28 59  1  0
 29 60  1  0
 30 61  1  0
 32 62  1  0
 32 63  1  0
M  END
>  <smiles>  (3) 
OCCN(CCO)c1nc(N2CCc3ccccc3C2)nc(N2CCc3ccccc3C2)n1

>  <score_type>  (3) 
oracle

>  <origin>  (3) 
autodockgpu

>  <m_score__min__energy>  (3) 
-6.79

>  <m_primary>  (3) 
energy

>  <meeko>  (3) 
{"free_energy": -6.21, "intermolecular_energy": -8.89, "internal_energy": -4.0, "cluster_size": 4, "cluster_id": 1, "rank_in_cluster": 3}

>  <energy>  (3) 
-6.21

>  <cluster_rmsd>  (3) 
1.07

>  <rmsd>  (3) 
270.3

>  <cluster>  (3) 
1

$$$$

     RDKit          3D

 63 67  0  0  0  0  0  0  0  0999 V2000
  135.8870   73.6790  224.2400 O   0  0  0  0  0  0  0  0  0  0  0  0
  135.4700   74.9010  223.6710 C   0  0  0  0  0  0  0  0  0  0  0  0
  136.5000   75.2480  222.6200 C   0  0  0  0  0  0  0  0  0  0  0  0
  136.7550   74.0690  221.8310 N   0  0  0  0  0  0  0  0  0  0  0  0
  135.6920   73.4960  221.0220 C   0  0  0  0  0  0  0  0  0  0  0  0
  135.6140   71.9990  221.2790 C   0  0  0  0  0  0  0  0  0  0  0  0
  135.6830   71.7400  222.6470 O   0  0  0  0  0  0  0  0  0  0  0  0
  138.0450   73.4710  221.8520 C   0  0  0  0  0  0  0  0  0  0  0  0
  138.9640   73.8980  220.9560 N   0  0  0  0  0  0  0  0  0  0  0  0
  140.2140   73.3730  220.9210 C   0  0  0  0  0  0  0  0  0  0  0  0
  141.1960   73.8140  219.9810 N   0  0  0  0  0  0  0  0  0  0  0  0
  141.4300   75.2150  219.7050 C   0  0  0  0  0  0  0  0  0  0  0  0
  142.8390   75.5710  220.1010 C   0  0  0  0  0  0  0  0  0  0  0  0
  143.7450   74.4250  220.0780 C   0  0  0  0  0  0  0  0  0  0  0  0
  145.0620   74.6360  220.4780 C   0  0  0  0  0  0  0  0  0  0  0  0
  145.9970   73.6240  220.4940 C   0  0  0  0  0  0  0  0  0  0  0  0
  145.6640   72.3210  220.1040 C   0  0  0  0  0  0  0  0  0  0  0  0
  144.3570   72.1260  219.7110 C   0  0  0  0  0  0  0  0  0  0  0  0
  143.4160   73.1460  219.6960 C   0  0  0  0  0  0  0  0  0  0  0  0
  142.0170   72.8380  219.2520 C   0  0  0  0  0  0  0  0  0  0  0  0
  140.5570   72.4250  221.7720 N   0  0  0  0  0  0  0  0  0  0  0  0
  139.6600   71.9810  222.6740 C   0  0  0  0  0  0  0  0  0  0  0  0
  140.0200   70.9550  223.5950 N   0  0  0  0  0  0  0  0  0  0  0  0
  139.3790   69.6610  223.6390 C   0  0  0  0  0  0  0  0  0  0  0  0
  138.7160   69.4130  224.9850 C   0  0  0  0  0  0  0  0  0  0  0  0
  139.5360   69.9620  226.0890 C   0  0  0  0  0  0  0  0  0  0  0  0
  139.1890   69.6340  227.3820 C   0  0  0  0  0  0  0  0  0  0  0  0
  139.9330   70.1290  228.4330 C   0  0  0  0  0  0  0  0  0  0  0  0
  141.0280   70.9490  228.2590 C   0  0  0  0  0  0  0  0  0  0  0  0
  141.3770   71.2780  226.9710 C   0  0  0  0  0  0  0  0  0  0  0  0
  140.6280   70.7810  225.9000 C   0  0  0  0  0  0  0  0  0  0  0  0
  141.0870   71.1970  224.5490 C   0  0  0  0  0  0  0  0  0  0  0  0
  138.4020   72.5050  222.7150 N   0  0  0  0  0  0  0  0  0  0  0  0
  136.6780   73.3230  223.8010 H   0  0  0  0  0  0  0  0  0  0  0  0
  134.4775   74.7884  223.2102 H   0  0  0  0  0  0  0  0  0  0  0  0
  135.3903   75.6917  224.4316 H   0  0  0  0  0  0  0  0  0  0  0  0
  136.1167   76.0520  221.9745 H   0  0  0  0  0  0  0  0  0  0  0  0
  137.4287   75.5927  223.0982 H   0  0  0  0  0  0  0  0  0  0  0  0
  134.7336   73.9649  221.2895 H   0  0  0  0  0  0  0  0  0  0  0  0
  135.9022   73.6760  219.9574 H   0  0  0  0  0  0  0  0  0  0  0  0
  134.6634   71.6117  220.8836 H   0  0  0  0  0  0  0  0  0  0  0  0
  136.4592   71.5048  220.7776 H   0  0  0  0  0  0  0  0  0  0  0  0
  136.5820   72.0750  222.9680 H   0  0  0  0  0  0  0  0  0  0  0  0
  141.2906   75.4063  218.6308 H   0  0  0  0  0  0  0  0  0  0  0  0
  140.7195   75.8277  220.2793 H   0  0  0  0  0  0  0  0  0  0  0  0
  143.2179   76.3316  219.4025 H   0  0  0  0  0  0  0  0  0  0  0  0
  142.8060   75.9438  221.1354 H   0  0  0  0  0  0  0  0  0  0  0  0
  145.3664   75.6453  220.7920 H   0  0  0  0  0  0  0  0  0  0  0  0
  147.0245   73.8439  220.8193 H   0  0  0  0  0  0  0  0  0  0  0  0
  146.3999   71.5034  220.1108 H   0  0  0  0  0  0  0  0  0  0  0  0
  144.0467   71.1188  219.3958 H   0  0  0  0  0  0  0  0  0  0  0  0
  141.9123   72.9716  218.1652 H   0  0  0  0  0  0  0  0  0  0  0  0
  141.7245   71.7977  219.4574 H   0  0  0  0  0  0  0  0  0  0  0  0
  138.6142   69.6139  222.8498 H   0  0  0  0  0  0  0  0  0  0  0  0
  140.1479   68.8895  223.4856 H   0  0  0  0  0  0  0  0  0  0  0  0
  137.7287   69.8979  224.9946 H   0  0  0  0  0  0  0  0  0  0  0  0
  138.6133   68.3275  225.1307 H   0  0  0  0  0  0  0  0  0  0  0  0
  138.3244   68.9818  227.5746 H   0  0  0  0  0  0  0  0  0  0  0  0
  139.6391   69.8569  229.4575 H   0  0  0  0  0  0  0  0  0  0  0  0
  141.6009   71.3258  229.1191 H   0  0  0  0  0  0  0  0  0  0  0  0
  142.2427   71.9302  226.7833 H   0  0  0  0  0  0  0  0  0  0  0  0
  141.3386   72.2678  224.5579 H   0  0  0  0  0  0  0  0  0  0  0  0
  141.9794   70.6202  224.2645 H   0  0  0  0  0  0  0  0  0  0  0  0
  1  2  1  0
  2  3  1  0
  3  4  1  0
  4  5  1  0
  5  6  1  0
  6  7  1  0
  4  8  1  0
  8  9  2  0
  9 10  1  0
 10 11  1  0
 11 12  1  0
 12 13  1  0
 13 14  1  0
 14 15  2  0
 15 16  1  0
 16 17  2  0
 17 18  1  0
 18 19  2  0
 19 20  1  0
 10 21  2  0
 21 22  1  0
 22 23  1  0
 23 24  1  0
 24 25  1  0
 25 26  1  0
 26 27  2  0
 27 28  1  0
 28 29  2  0
 29 30  1  0
 30 31  2  0
 31 32  1  0
 22 33  2  0
 33  8  1  0
 20 11  1  0
 32 23  1  0
 19 14  1  0
 31 26  1  0
  1 34  1  0
  2 35  1  0
  2 36  1  0
  3 37  1  0
  3 38  1  0
  5 39  1  0
  5 40  1  0
  6 41  1  0
  6 42  1  0
  7 43  1  0
 12 44  1  0
 12 45  1  0
 13 46  1  0
 13 47  1  0
 15 48  1  0
 16 49  1  0
 17 50  1  0
 18 51  1  0
 20 52  1  0
 20 53  1  0
 24 54  1  0
 24 55  1  0
 25 56  1  0
 25 57  1  0
 27 58  1  0
 28 59  1  0
 29 60  1  0
 30 61  1  0
 32 62  1  0
 32 63  1  0
M  END
>  <smiles>  (4) 
OCCN(CCO)c1nc(N2CCc3ccccc3C2)nc(N2CCc3ccccc3C2)n1

>  <score_type>  (4) 
oracle

>  <origin>  (4) 
autodockgpu

>  <m_score__min__energy>  (4) 
-6.79

>  <m_primary>  (4) 
energy

>  <meeko>  (4) 
{"free_energy": -6.46, "intermolecular_energy": -9.14, "internal_energy": -3.95, "cluster_size": 1, "cluster_id": 6, "rank_in_cluster": 1}

>  <energy>  (4) 
-6.09

>  <cluster_rmsd>  (4) 
1.27

>  <rmsd>  (4) 
270.17

>  <cluster>  (4) 
1

$$$$

     RDKit          3D

 63 67  0  0  0  0  0  0  0  0999 V2000
  143.5230   73.2890  218.9480 O   0  0  0  0  0  0  0  0  0  0  0  0
  144.3130   73.0710  220.0980 C   0  0  0  0  0  0  0  0  0  0  0  0
  144.1240   71.6160  220.4660 C   0  0  0  0  0  0  0  0  0  0  0  0
  142.7200   71.3070  220.3830 N   0  0  0  0  0  0  0  0  0  0  0  0
  142.2690   70.2040  219.5500 C   0  0  0  0  0  0  0  0  0  0  0  0
  141.1160   70.6700  218.6750 C   0  0  0  0  0  0  0  0  0  0  0  0
  141.4170   71.9000  218.0940 O   0  0  0  0  0  0  0  0  0  0  0  0
  141.7810   72.0870  221.1120 C   0  0  0  0  0  0  0  0  0  0  0  0
  141.1160   71.4990  222.1330 N   0  0  0  0  0  0  0  0  0  0  0  0
  140.2080   72.1830  222.8730 C   0  0  0  0  0  0  0  0  0  0  0  0
  139.4990   71.5760  223.9550 N   0  0  0  0  0  0  0  0  0  0  0  0
  138.1780   71.0060  223.7930 C   0  0  0  0  0  0  0  0  0  0  0  0
  138.2360   69.5280  224.0810 C   0  0  0  0  0  0  0  0  0  0  0  0
  139.3340   69.1630  224.9700 C   0  0  0  0  0  0  0  0  0  0  0  0
  139.5070   67.8120  225.2600 C   0  0  0  0  0  0  0  0  0  0  0  0
  140.5120   67.3600  226.0870 C   0  0  0  0  0  0  0  0  0  0  0  0
  141.4170   68.2470  226.6830 C   0  0  0  0  0  0  0  0  0  0  0  0
  141.2340   69.5810  226.3890 C   0  0  0  0  0  0  0  0  0  0  0  0
  140.2220   70.0350  225.5550 C   0  0  0  0  0  0  0  0  0  0  0  0
  140.1020   71.5070  225.2920 C   0  0  0  0  0  0  0  0  0  0  0  0
  139.9570   73.4500  222.6040 N   0  0  0  0  0  0  0  0  0  0  0  0
  140.6050   74.0590  221.5930 C   0  0  0  0  0  0  0  0  0  0  0  0
  140.3370   75.4270  221.2920 N   0  0  0  0  0  0  0  0  0  0  0  0
  140.4610   75.9920  219.9680 C   0  0  0  0  0  0  0  0  0  0  0  0
  141.4960   77.1050  219.9330 C   0  0  0  0  0  0  0  0  0  0  0  0
  141.4470   77.9150  221.1710 C   0  0  0  0  0  0  0  0  0  0  0  0
  142.1660   79.0900  221.2100 C   0  0  0  0  0  0  0  0  0  0  0  0
  142.1400   79.8680  222.3480 C   0  0  0  0  0  0  0  0  0  0  0  0
  141.4180   79.5290  223.4740 C   0  0  0  0  0  0  0  0  0  0  0  0
  140.6990   78.3580  223.4400 C   0  0  0  0  0  0  0  0  0  0  0  0
  140.7210   77.5640  222.2890 C   0  0  0  0  0  0  0  0  0  0  0  0
  139.9130   76.3180  222.3550 C   0  0  0  0  0  0  0  0  0  0  0  0
  141.5190   73.3770  220.8450 N   0  0  0  0  0  0  0  0  0  0  0  0
  142.6220   72.9390  219.0520 H   0  0  0  0  0  0  0  0  0  0  0  0
  145.3714   73.2751  219.8786 H   0  0  0  0  0  0  0  0  0  0  0  0
  144.0159   73.7362  220.9221 H   0  0  0  0  0  0  0  0  0  0  0  0
  144.6868   70.9795  219.7673 H   0  0  0  0  0  0  0  0  0  0  0  0
  144.4927   71.4322  221.4859 H   0  0  0  0  0  0  0  0  0  0  0  0
  143.0982   69.8623  218.9131 H   0  0  0  0  0  0  0  0  0  0  0  0
  141.9328   69.3745  220.1894 H   0  0  0  0  0  0  0  0  0  0  0  0
  140.9387   69.9279  217.8826 H   0  0  0  0  0  0  0  0  0  0  0  0
  140.2155   70.7788  219.2973 H   0  0  0  0  0  0  0  0  0  0  0  0
  141.4140   72.5880  218.8360 H   0  0  0  0  0  0  0  0  0  0  0  0
  137.4805   71.4898  224.4926 H   0  0  0  0  0  0  0  0  0  0  0  0
  137.8302   71.1677  222.7620 H   0  0  0  0  0  0  0  0  0  0  0  0
  137.2888   69.2251  224.5512 H   0  0  0  0  0  0  0  0  0  0  0  0
  138.4025   69.0125  223.1236 H   0  0  0  0  0  0  0  0  0  0  0  0
  138.8175   67.0805  224.8134 H   0  0  0  0  0  0  0  0  0  0  0  0
  140.6053   66.2816  226.2829 H   0  0  0  0  0  0  0  0  0  0  0  0
  142.2242   67.9004  227.3450 H   0  0  0  0  0  0  0  0  0  0  0  0
  141.9193   70.3172  226.8344 H   0  0  0  0  0  0  0  0  0  0  0  0
  139.4535   71.9870  226.0396 H   0  0  0  0  0  0  0  0  0  0  0  0
  141.0681   72.0297  225.3504 H   0  0  0  0  0  0  0  0  0  0  0  0
  140.7642   75.1995  219.2680 H   0  0  0  0  0  0  0  0  0  0  0  0
  139.4876   76.4161  219.6807 H   0  0  0  0  0  0  0  0  0  0  0  0
  142.4977   76.6616  219.8328 H   0  0  0  0  0  0  0  0  0  0  0  0
  141.2768   77.7602  219.0770 H   0  0  0  0  0  0  0  0  0  0  0  0
  142.7575   79.4055  220.3379 H   0  0  0  0  0  0  0  0  0  0  0  0
  142.7214   80.8017  222.3588 H   0  0  0  0  0  0  0  0  0  0  0  0
  141.4178   80.1724  224.3662 H   0  0  0  0  0  0  0  0  0  0  0  0
  140.1088   78.0467  224.3145 H   0  0  0  0  0  0  0  0  0  0  0  0
  140.0656   75.8300  223.3289 H   0  0  0  0  0  0  0  0  0  0  0  0
  138.8462   76.5586  222.2367 H   0  0  0  0  0  0  0  0  0  0  0  0
  1  2  1  0
  2  3  1  0
  3  4  1  0
  4  5  1  0
  5  6  1  0
  6  7  1  0
  4  8  1  0
  8  9  2  0
  9 10  1  0
 10 11  1  0
 11 12  1  0
 12 13  1  0
 13 14  1  0
 14 15  2  0
 15 16  1  0
 16 17  2  0
 17 18  1  0
 18 19  2  0
 19 20  1  0
 10 21  2  0
 21 22  1  0
 22 23  1  0
 23 24  1  0
 24 25  1  0
 25 26  1  0
 26 27  2  0
 27 28  1  0
 28 29  2  0
 29 30  1  0
 30 31  2  0
 31 32  1  0
 22 33  2  0
 33  8  1  0
 20 11  1  0
 32 23  1  0
 19 14  1  0
 31 26  1  0
  1 34  1  0
  2 35  1  0
  2 36  1  0
  3 37  1  0
  3 38  1  0
  5 39  1  0
  5 40  1  0
  6 41  1  0
  6 42  1  0
  7 43  1  0
 12 44  1  0
 12 45  1  0
 13 46  1  0
 13 47  1  0
 15 48  1  0
 16 49  1  0
 17 50  1  0
 18 51  1  0
 20 52  1  0
 20 53  1  0
 24 54  1  0
 24 55  1  0
 25 56  1  0
 25 57  1  0
 27 58  1  0
 28 59  1  0
 29 60  1  0
 30 61  1  0
 32 62  1  0
 32 63  1  0
M  END
>  <smiles>  (5) 
OCCN(CCO)c1nc(N2CCc3ccccc3C2)nc(N2CCc3ccccc3C2)n1

>  <score_type>  (5) 
oracle

>  <origin>  (5) 
autodockgpu

>  <m_score__min__energy>  (5) 
-6.79

>  <m_primary>  (5) 
energy

>  <meeko>  (5) 
{"free_energy": -6.7, "intermolecular_energy": -9.38, "internal_energy": -3.92, "cluster_size": 4, "cluster_id": 2, "rank_in_cluster": 1}

>  <energy>  (5) 
-6.7

>  <cluster_rmsd>  (5) 
0.0

>  <rmsd>  (5) 
270.46

>  <cluster>  (5) 
2

$$$$

     RDKit          3D

 63 67  0  0  0  0  0  0  0  0999 V2000
  132.0380   68.9800  226.1000 O   0  0  0  0  0  0  0  0  0  0  0  0
  132.0820   67.5700  226.1460 C   0  0  0  0  0  0  0  0  0  0  0  0
  133.5290   67.1880  225.9280 C   0  0  0  0  0  0  0  0  0  0  0  0
  133.9380   67.6860  224.6400 N   0  0  0  0  0  0  0  0  0  0  0  0
  133.5480   66.9770  223.4320 C   0  0  0  0  0  0  0  0  0  0  0  0
  132.7100   67.8950  222.5560 C   0  0  0  0  0  0  0  0  0  0  0  0
  131.8800   68.6900  223.3460 O   0  0  0  0  0  0  0  0  0  0  0  0
  134.7260   68.8670  224.5570 C   0  0  0  0  0  0  0  0  0  0  0  0
  136.0730   68.7410  224.5600 N   0  0  0  0  0  0  0  0  0  0  0  0
  136.8850   69.8250  224.4820 C   0  0  0  0  0  0  0  0  0  0  0  0
  138.3080   69.7070  224.4820 N   0  0  0  0  0  0  0  0  0  0  0  0
  139.1400   70.3560  223.4920 C   0  0  0  0  0  0  0  0  0  0  0  0
  140.0420   71.3520  224.1740 C   0  0  0  0  0  0  0  0  0  0  0  0
  140.2980   71.0230  225.5740 C   0  0  0  0  0  0  0  0  0  0  0  0
  141.0800   71.9080  226.3120 C   0  0  0  0  0  0  0  0  0  0  0  0
  141.3820   71.6930  227.6390 C   0  0  0  0  0  0  0  0  0  0  0  0
  140.9120   70.5610  228.3160 C   0  0  0  0  0  0  0  0  0  0  0  0
  140.1400   69.6930  227.5750 C   0  0  0  0  0  0  0  0  0  0  0  0
  139.8360   69.9120  226.2390 C   0  0  0  0  0  0  0  0  0  0  0  0
  138.9860   68.9100  225.5130 C   0  0  0  0  0  0  0  0  0  0  0  0
  136.3650   71.0360  224.4000 N   0  0  0  0  0  0  0  0  0  0  0  0
  135.0270   71.1890  224.3960 C   0  0  0  0  0  0  0  0  0  0  0  0
  134.4560   72.4920  224.3130 N   0  0  0  0  0  0  0  0  0  0  0  0
  135.0880   73.5980  223.6320 C   0  0  0  0  0  0  0  0  0  0  0  0
  135.3740   74.7480  224.5840 C   0  0  0  0  0  0  0  0  0  0  0  0
  134.2810   74.9060  225.5690 C   0  0  0  0  0  0  0  0  0  0  0  0
  134.2780   76.0320  226.3640 C   0  0  0  0  0  0  0  0  0  0  0  0
  133.2730   76.2090  227.2910 C   0  0  0  0  0  0  0  0  0  0  0  0
  132.2470   75.3050  227.4710 C   0  0  0  0  0  0  0  0  0  0  0  0
  132.2450   74.1800  226.6800 C   0  0  0  0  0  0  0  0  0  0  0  0
  133.2620   73.9930  225.7380 C   0  0  0  0  0  0  0  0  0  0  0  0
  133.1700   72.7460  224.9350 C   0  0  0  0  0  0  0  0  0  0  0  0
  134.2050   70.1030  224.4750 N   0  0  0  0  0  0  0  0  0  0  0  0
  132.5170   69.3350  225.3320 H   0  0  0  0  0  0  0  0  0  0  0  0
  131.7353   67.2090  227.1255 H   0  0  0  0  0  0  0  0  0  0  0  0
  131.4289   67.1225  225.3823 H   0  0  0  0  0  0  0  0  0  0  0  0
  134.1544   67.6343  226.7152 H   0  0  0  0  0  0  0  0  0  0  0  0
  133.6426   66.0945  225.9655 H   0  0  0  0  0  0  0  0  0  0  0  0
  134.4485   66.6662  222.8820 H   0  0  0  0  0  0  0  0  0  0  0  0
  132.9590   66.0879  223.7016 H   0  0  0  0  0  0  0  0  0  0  0  0
  133.3761   68.5406  221.9649 H   0  0  0  0  0  0  0  0  0  0  0  0
  132.0885   67.2826  221.8862 H   0  0  0  0  0  0  0  0  0  0  0  0
  132.4780   69.2120  223.9730 H   0  0  0  0  0  0  0  0  0  0  0  0
  139.7507   69.6019  222.9740 H   0  0  0  0  0  0  0  0  0  0  0  0
  138.5041   70.8759  222.7603 H   0  0  0  0  0  0  0  0  0  0  0  0
  141.0026   71.3793  223.6387 H   0  0  0  0  0  0  0  0  0  0  0  0
  139.5328   72.3268  224.1522 H   0  0  0  0  0  0  0  0  0  0  0  0
  141.4702   72.8102  225.8182 H   0  0  0  0  0  0  0  0  0  0  0  0
  142.0038   72.4241  228.1765 H   0  0  0  0  0  0  0  0  0  0  0  0
  141.1449   70.3759  229.3750 H   0  0  0  0  0  0  0  0  0  0  0  0
  139.7482   68.7884  228.0631 H   0  0  0  0  0  0  0  0  0  0  0  0
  139.6081   68.1261  225.0563 H   0  0  0  0  0  0  0  0  0  0  0  0
  138.2824   68.3878  226.1780 H   0  0  0  0  0  0  0  0  0  0  0  0
  136.0359   73.2530  223.1932 H   0  0  0  0  0  0  0  0  0  0  0  0
  134.4032   73.9590  222.8505 H   0  0  0  0  0  0  0  0  0  0  0  0
  136.3139   74.5468  225.1189 H   0  0  0  0  0  0  0  0  0  0  0  0
  135.4546   75.6757  223.9984 H   0  0  0  0  0  0  0  0  0  0  0  0
  135.0729   76.7851  226.2594 H   0  0  0  0  0  0  0  0  0  0  0  0
  133.2902   77.1137  227.9165 H   0  0  0  0  0  0  0  0  0  0  0  0
  131.4595   75.4775  228.2194 H   0  0  0  0  0  0  0  0  0  0  0  0
  131.4471   73.4305  226.7876 H   0  0  0  0  0  0  0  0  0  0  0  0
  132.9039   71.9035  225.5903 H   0  0  0  0  0  0  0  0  0  0  0  0
  132.3968   72.8574  224.1606 H   0  0  0  0  0  0  0  0  0  0  0  0
  1  2  1  0
  2  3  1  0
  3  4  1  0
  4  5  1  0
  5  6  1  0
  6  7  1  0
  4  8  1  0
  8  9  2  0
  9 10  1  0
 10 11  1  0
 11 12  1  0
 12 13  1  0
 13 14  1  0
 14 15  2  0
 15 16  1  0
 16 17  2  0
 17 18  1  0
 18 19  2  0
 19 20  1  0
 10 21  2  0
 21 22  1  0
 22 23  1  0
 23 24  1  0
 24 25  1  0
 25 26  1  0
 26 27  2  0
 27 28  1  0
 28 29  2  0
 29 30  1  0
 30 31  2  0
 31 32  1  0
 22 33  2  0
 33  8  1  0
 20 11  1  0
 32 23  1  0
 19 14  1  0
 31 26  1  0
  1 34  1  0
  2 35  1  0
  2 36  1  0
  3 37  1  0
  3 38  1  0
  5 39  1  0
  5 40  1  0
  6 41  1  0
  6 42  1  0
  7 43  1  0
 12 44  1  0
 12 45  1  0
 13 46  1  0
 13 47  1  0
 15 48  1  0
 16 49  1  0
 17 50  1  0
 18 51  1  0
 20 52  1  0
 20 53  1  0
 24 54  1  0
 24 55  1  0
 25 56  1  0
 25 57  1  0
 27 58  1  0
 28 59  1  0
 29 60  1  0
 30 61  1  0
 32 62  1  0
 32 63  1  0
M  END
>  <smiles>  (6) 
OCCN(CCO)c1nc(N2CCc3ccccc3C2)nc(N2CCc3ccccc3C2)n1

>  <score_type>  (6) 
oracle

>  <origin>  (6) 
autodockgpu

>  <m_score__min__energy>  (6) 
-6.79

>  <m_primary>  (6) 
energy

>  <meeko>  (6) 
{"free_energy": -6.66, "intermolecular_energy": -9.35, "internal_energy": -4.01, "cluster_size": 3, "cluster_id": 3, "rank_in_cluster": 1}

>  <energy>  (6) 
-6.68

>  <cluster_rmsd>  (6) 
0.12

>  <rmsd>  (6) 
270.47

>  <cluster>  (6) 
2

$$$$

     RDKit          3D

 63 67  0  0  0  0  0  0  0  0999 V2000
  143.6570   73.2760  218.8650 O   0  0  0  0  0  0  0  0  0  0  0  0
  144.4450   73.2650  220.0370 C   0  0  0  0  0  0  0  0  0  0  0  0
  144.3000   71.8790  220.6260 C   0  0  0  0  0  0  0  0  0  0  0  0
  142.9210   71.4800  220.5080 N   0  0  0  0  0  0  0  0  0  0  0  0
  142.5670   70.3290  219.6940 C   0  0  0  0  0  0  0  0  0  0  0  0
  141.3010   70.6360  218.9100 C   0  0  0  0  0  0  0  0  0  0  0  0
  141.4150   71.8700  218.2720 O   0  0  0  0  0  0  0  0  0  0  0  0
  141.9120   72.2170  221.1870 C   0  0  0  0  0  0  0  0  0  0  0  0
  141.2040   71.5930  222.1560 N   0  0  0  0  0  0  0  0  0  0  0  0
  140.2290   72.2350  222.8450 C   0  0  0  0  0  0  0  0  0  0  0  0
  139.4730   71.5890  223.8710 N   0  0  0  0  0  0  0  0  0  0  0  0
  138.1890   70.9730  223.6170 C   0  0  0  0  0  0  0  0  0  0  0  0
  138.2830   69.4950  223.8930 C   0  0  0  0  0  0  0  0  0  0  0  0
  139.3340   69.1590  224.8500 C   0  0  0  0  0  0  0  0  0  0  0  0
  139.5380   67.8120  225.1370 C   0  0  0  0  0  0  0  0  0  0  0  0
  140.5030   67.3870  226.0240 C   0  0  0  0  0  0  0  0  0  0  0  0
  141.3320   68.3000  226.6880 C   0  0  0  0  0  0  0  0  0  0  0  0
  141.1190   69.6300  226.3950 C   0  0  0  0  0  0  0  0  0  0  0  0
  140.1480   70.0560  225.5000 C   0  0  0  0  0  0  0  0  0  0  0  0
  139.9900   71.5260  225.2450 C   0  0  0  0  0  0  0  0  0  0  0  0
  139.9520   73.4980  222.5770 N   0  0  0  0  0  0  0  0  0  0  0  0
  140.6420   74.1430  221.6170 C   0  0  0  0  0  0  0  0  0  0  0  0
  140.3480   75.5050  221.3170 N   0  0  0  0  0  0  0  0  0  0  0  0
  140.4590   76.0730  219.9940 C   0  0  0  0  0  0  0  0  0  0  0  0
  141.4730   77.2060  219.9570 C   0  0  0  0  0  0  0  0  0  0  0  0
  141.4100   78.0140  221.1960 C   0  0  0  0  0  0  0  0  0  0  0  0
  142.1070   79.2030  221.2340 C   0  0  0  0  0  0  0  0  0  0  0  0
  142.0690   79.9780  222.3730 C   0  0  0  0  0  0  0  0  0  0  0  0
  141.3550   79.6260  223.5000 C   0  0  0  0  0  0  0  0  0  0  0  0
  140.6590   78.4410  223.4670 C   0  0  0  0  0  0  0  0  0  0  0  0
  140.6930   77.6480  222.3160 C   0  0  0  0  0  0  0  0  0  0  0  0
  139.9090   76.3880  222.3820 C   0  0  0  0  0  0  0  0  0  0  0  0
  141.6240   73.5020  220.9200 N   0  0  0  0  0  0  0  0  0  0  0  0
  142.7140   73.4100  219.0610 H   0  0  0  0  0  0  0  0  0  0  0  0
  145.4979   73.4673  219.7912 H   0  0  0  0  0  0  0  0  0  0  0  0
  144.1205   74.0398  220.7472 H   0  0  0  0  0  0  0  0  0  0  0  0
  144.9400   71.1726  220.0770 H   0  0  0  0  0  0  0  0  0  0  0  0
  144.6047   71.8823  221.6830 H   0  0  0  0  0  0  0  0  0  0  0  0
  143.3870   70.1075  218.9951 H   0  0  0  0  0  0  0  0  0  0  0  0
  142.3952   69.4581  220.3436 H   0  0  0  0  0  0  0  0  0  0  0  0
  141.1416   69.8510  218.1561 H   0  0  0  0  0  0  0  0  0  0  0  0
  140.4489   70.6695  219.6048 H   0  0  0  0  0  0  0  0  0  0  0  0
  141.5960   72.5600  218.9890 H   0  0  0  0  0  0  0  0  0  0  0  0
  137.4296   71.4220  224.2740 H   0  0  0  0  0  0  0  0  0  0  0  0
  137.9039   71.1345  222.5670 H   0  0  0  0  0  0  0  0  0  0  0  0
  137.3189   69.1517  224.2962 H   0  0  0  0  0  0  0  0  0  0  0  0
  138.5313   68.9981  222.9436 H   0  0  0  0  0  0  0  0  0  0  0  0
  138.9072   67.0613  224.6385 H   0  0  0  0  0  0  0  0  0  0  0  0
  140.6246   66.3104  226.2142 H   0  0  0  0  0  0  0  0  0  0  0  0
  142.1056   67.9756  227.3996 H   0  0  0  0  0  0  0  0  0  0  0  0
  141.7453   70.3856  226.8917 H   0  0  0  0  0  0  0  0  0  0  0  0
  139.2764   71.9722  225.9532 H   0  0  0  0  0  0  0  0  0  0  0  0
  140.9296   72.0836  225.3723 H   0  0  0  0  0  0  0  0  0  0  0  0
  140.7758   75.2868  219.2929 H   0  0  0  0  0  0  0  0  0  0  0  0
  139.4772   76.4792  219.7094 H   0  0  0  0  0  0  0  0  0  0  0  0
  142.4828   76.7820  219.8548 H   0  0  0  0  0  0  0  0  0  0  0  0
  141.2405   77.8571  219.1014 H   0  0  0  0  0  0  0  0  0  0  0  0
  142.6898   79.5310  220.3606 H   0  0  0  0  0  0  0  0  0  0  0  0
  142.6344   80.9215  222.3842 H   0  0  0  0  0  0  0  0  0  0  0  0
  141.3431   80.2698  224.3919 H   0  0  0  0  0  0  0  0  0  0  0  0
  140.0774   78.1178  224.3430 H   0  0  0  0  0  0  0  0  0  0  0  0
  140.0721   75.9022  223.3553 H   0  0  0  0  0  0  0  0  0  0  0  0
  138.8378   76.6090  222.2653 H   0  0  0  0  0  0  0  0  0  0  0  0
  1  2  1  0
  2  3  1  0
  3  4  1  0
  4  5  1  0
  5  6  1  0
  6  7  1  0
  4  8  1  0
  8  9  2  0
  9 10  1  0
 10 11  1  0
 11 12  1  0
 12 13  1  0
 13 14  1  0
 14 15  2  0
 15 16  1  0
 16 17  2  0
 17 18  1  0
 18 19  2  0
 19 20  1  0
 10 21  2  0
 21 22  1  0
 22 23  1  0
 23 24  1  0
 24 25  1  0
 25 26  1  0
 26 27  2  0
 27 28  1  0
 28 29  2  0
 29 30  1  0
 30 31  2  0
 31 32  1  0
 22 33  2  0
 33  8  1  0
 20 11  1  0
 32 23  1  0
 19 14  1  0
 31 26  1  0
  1 34  1  0
  2 35  1  0
  2 36  1  0
  3 37  1  0
  3 38  1  0
  5 39  1  0
  5 40  1  0
  6 41  1  0
  6 42  1  0
  7 43  1  0
 12 44  1  0
 12 45  1  0
 13 46  1  0
 13 47  1  0
 15 48  1  0
 16 49  1  0
 17 50  1  0
 18 51  1  0
 20 52  1  0
 20 53  1  0
 24 54  1  0
 24 55  1  0
 25 56  1  0
 25 57  1  0
 27 58  1  0
 28 59  1  0
 29 60  1  0
 30 61  1  0
 32 62  1  0
 32 63  1  0
M  END
>  <smiles>  (7) 
OCCN(CCO)c1nc(N2CCc3ccccc3C2)nc(N2CCc3ccccc3C2)n1

>  <score_type>  (7) 
oracle

>  <origin>  (7) 
autodockgpu

>  <m_score__min__energy>  (7) 
-6.79

>  <m_primary>  (7) 
energy

>  <meeko>  (7) 
{"free_energy": -6.67, "intermolecular_energy": -9.35, "internal_energy": -4.04, "cluster_size": 4, "cluster_id": 2, "rank_in_cluster": 3}

>  <energy>  (7) 
-6.67

>  <cluster_rmsd>  (7) 
0.19

>  <rmsd>  (7) 
270.5

>  <cluster>  (7) 
2

$$$$

     RDKit          3D

 63 67  0  0  0  0  0  0  0  0999 V2000
  134.3280   69.2870  226.5260 O   0  0  0  0  0  0  0  0  0  0  0  0
  134.0320   70.6310  226.8410 C   0  0  0  0  0  0  0  0  0  0  0  0
  133.2550   71.1760  225.6640 C   0  0  0  0  0  0  0  0  0  0  0  0
  133.8400   70.6540  224.4560 N   0  0  0  0  0  0  0  0  0  0  0  0
  133.0790   69.7390  223.6200 C   0  0  0  0  0  0  0  0  0  0  0  0
  133.2800   68.3160  224.1170 C   0  0  0  0  0  0  0  0  0  0  0  0
  134.6380   68.0090  224.1660 O   0  0  0  0  0  0  0  0  0  0  0  0
  135.1600   71.0340  224.0890 C   0  0  0  0  0  0  0  0  0  0  0  0
  135.3190   72.1310  223.3140 N   0  0  0  0  0  0  0  0  0  0  0  0
  136.5500   72.5520  222.9280 C   0  0  0  0  0  0  0  0  0  0  0  0
  136.7340   73.7100  222.1120 N   0  0  0  0  0  0  0  0  0  0  0  0
  135.9060   74.8900  222.2420 C   0  0  0  0  0  0  0  0  0  0  0  0
  136.7650   76.0560  222.6590 C   0  0  0  0  0  0  0  0  0  0  0  0
  138.1630   75.9040  222.2640 C   0  0  0  0  0  0  0  0  0  0  0  0
  139.0530   76.9050  222.6460 C   0  0  0  0  0  0  0  0  0  0  0  0
  140.3920   76.8600  222.3250 C   0  0  0  0  0  0  0  0  0  0  0  0
  140.9280   75.7950  221.5910 C   0  0  0  0  0  0  0  0  0  0  0  0
  140.0370   74.8110  221.2190 C   0  0  0  0  0  0  0  0  0  0  0  0
  138.6880   74.8570  221.5440 C   0  0  0  0  0  0  0  0  0  0  0  0
  137.7930   73.7400  221.0950 C   0  0  0  0  0  0  0  0  0  0  0  0
  137.6250   71.8870  223.3080 N   0  0  0  0  0  0  0  0  0  0  0  0
  137.4930   70.7900  224.0790 C   0  0  0  0  0  0  0  0  0  0  0  0
  138.6480   70.0630  224.4910 N   0  0  0  0  0  0  0  0  0  0  0  0
  138.7770   68.6300  224.3600 C   0  0  0  0  0  0  0  0  0  0  0  0
  138.9620   67.9620  225.7130 C   0  0  0  0  0  0  0  0  0  0  0  0
  139.8130   68.7870  226.6010 C   0  0  0  0  0  0  0  0  0  0  0  0
  140.2550   68.2290  227.7820 C   0  0  0  0  0  0  0  0  0  0  0  0
  141.0500   68.9710  228.6300 C   0  0  0  0  0  0  0  0  0  0  0  0
  141.4370   70.2670  228.3570 C   0  0  0  0  0  0  0  0  0  0  0  0
  140.9970   70.8270  227.1810 C   0  0  0  0  0  0  0  0  0  0  0  0
  140.1910   70.0810  226.3160 C   0  0  0  0  0  0  0  0  0  0  0  0
  139.7680   70.7780  225.0730 C   0  0  0  0  0  0  0  0  0  0  0  0
  136.2590   70.3620  224.4700 N   0  0  0  0  0  0  0  0  0  0  0  0
  135.0700   69.2130  225.9030 H   0  0  0  0  0  0  0  0  0  0  0  0
  133.4248   70.6837  227.7567 H   0  0  0  0  0  0  0  0  0  0  0  0
  134.9480   71.2126  227.0219 H   0  0  0  0  0  0  0  0  0  0  0  0
  132.2034   70.8610  225.7344 H   0  0  0  0  0  0  0  0  0  0  0  0
  133.2941   72.2753  225.6600 H   0  0  0  0  0  0  0  0  0  0  0  0
  132.0111   69.9979  223.6700 H   0  0  0  0  0  0  0  0  0  0  0  0
  133.4257   69.8173  222.5790 H   0  0  0  0  0  0  0  0  0  0  0  0
  132.8494   68.2192  225.1246 H   0  0  0  0  0  0  0  0  0  0  0  0
  132.7805   67.6213  223.4257 H   0  0  0  0  0  0  0  0  0  0  0  0
  135.1130   68.8160  224.5500 H   0  0  0  0  0  0  0  0  0  0  0  0
  135.4281   75.1121  221.2764 H   0  0  0  0  0  0  0  0  0  0  0  0
  135.1291   74.7140  223.0006 H   0  0  0  0  0  0  0  0  0  0  0  0
  136.3664   76.9694  222.1934 H   0  0  0  0  0  0  0  0  0  0  0  0
  136.7370   76.1096  223.7573 H   0  0  0  0  0  0  0  0  0  0  0  0
  138.6738   77.7608  223.2238 H   0  0  0  0  0  0  0  0  0  0  0  0
  141.0527   77.6765  222.6517 H   0  0  0  0  0  0  0  0  0  0  0  0
  141.9948   75.7464  221.3273 H   0  0  0  0  0  0  0  0  0  0  0  0
  140.4106   73.9533  220.6403 H   0  0  0  0  0  0  0  0  0  0  0  0
  137.3745   73.9491  220.0994 H   0  0  0  0  0  0  0  0  0  0  0  0
  138.3230   72.7804  221.0039 H   0  0  0  0  0  0  0  0  0  0  0  0
  137.8683   68.2311  223.8855 H   0  0  0  0  0  0  0  0  0  0  0  0
  139.6645   68.4178  223.7457 H   0  0  0  0  0  0  0  0  0  0  0  0
  137.9774   67.8250  226.1840 H   0  0  0  0  0  0  0  0  0  0  0  0
  139.4546   66.9905  225.5595 H   0  0  0  0  0  0  0  0  0  0  0  0
  139.9752   67.1985  228.0460 H   0  0  0  0  0  0  0  0  0  0  0  0
  141.3915   68.5082  229.5677 H   0  0  0  0  0  0  0  0  0  0  0  0
  142.0738   70.8311  229.0543 H   0  0  0  0  0  0  0  0  0  0  0  0
  141.2781   71.8584  226.9216 H   0  0  0  0  0  0  0  0  0  0  0  0
  139.4644   71.8079  225.3122 H   0  0  0  0  0  0  0  0  0  0  0  0
  140.6040   70.8059  224.3586 H   0  0  0  0  0  0  0  0  0  0  0  0
  1  2  1  0
  2  3  1  0
  3  4  1  0
  4  5  1  0
  5  6  1  0
  6  7  1  0
  4  8  1  0
  8  9  2  0
  9 10  1  0
 10 11  1  0
 11 12  1  0
 12 13  1  0
 13 14  1  0
 14 15  2  0
 15 16  1  0
 16 17  2  0
 17 18  1  0
 18 19  2  0
 19 20  1  0
 10 21  2  0
 21 22  1  0
 22 23  1  0
 23 24  1  0
 24 25  1  0
 25 26  1  0
 26 27  2  0
 27 28  1  0
 28 29  2  0
 29 30  1  0
 30 31  2  0
 31 32  1  0
 22 33  2  0
 33  8  1  0
 20 11  1  0
 32 23  1  0
 19 14  1  0
 31 26  1  0
  1 34  1  0
  2 35  1  0
  2 36  1  0
  3 37  1  0
  3 38  1  0
  5 39  1  0
  5 40  1  0
  6 41  1  0
  6 42  1  0
  7 43  1  0
 12 44  1  0
 12 45  1  0
 13 46  1  0
 13 47  1  0
 15 48  1  0
 16 49  1  0
 17 50  1  0
 18 51  1  0
 20 52  1  0
 20 53  1  0
 24 54  1  0
 24 55  1  0
 25 56  1  0
 25 57  1  0
 27 58  1  0
 28 59  1  0
 29 60  1  0
 30 61  1  0
 32 62  1  0
 32 63  1  0
M  END
>  <smiles>  (8) 
OCCN(CCO)c1nc(N2CCc3ccccc3C2)nc(N2CCc3ccccc3C2)n1

>  <score_type>  (8) 
oracle

>  <origin>  (8) 
autodockgpu

>  <m_score__min__energy>  (8) 
-6.79

>  <m_primary>  (8) 
energy

>  <meeko>  (8) 
{"free_energy": -6.61, "intermolecular_energy": -9.3, "internal_energy": -3.98, "cluster_size": 6, "cluster_id": 4, "rank_in_cluster": 1}

>  <energy>  (8) 
-6.59

>  <cluster_rmsd>  (8) 
0.32

>  <rmsd>  (8) 
270.49

>  <cluster>  (8) 
2

$$$$

     RDKit          3D

 63 67  0  0  0  0  0  0  0  0999 V2000
  134.3140   69.5380  226.4760 O   0  0  0  0  0  0  0  0  0  0  0  0
  133.1630   70.3550  226.4670 C   0  0  0  0  0  0  0  0  0  0  0  0
  133.4120   71.4180  225.4210 C   0  0  0  0  0  0  0  0  0  0  0  0
  134.0250   70.7920  224.2770 N   0  0  0  0  0  0  0  0  0  0  0  0
  133.2810   69.8090  223.5050 C   0  0  0  0  0  0  0  0  0  0  0  0
  134.1840   68.6270  223.1890 C   0  0  0  0  0  0  0  0  0  0  0  0
  134.7040   68.0890  224.3650 O   0  0  0  0  0  0  0  0  0  0  0  0
  135.3550   71.1350  223.9120 C   0  0  0  0  0  0  0  0  0  0  0  0
  135.5430   72.2090  223.1110 N   0  0  0  0  0  0  0  0  0  0  0  0
  136.7850   72.5950  222.7250 C   0  0  0  0  0  0  0  0  0  0  0  0
  136.9990   73.7280  221.8810 N   0  0  0  0  0  0  0  0  0  0  0  0
  136.0870   74.8510  221.8440 C   0  0  0  0  0  0  0  0  0  0  0  0
  136.8060   76.0910  222.3070 C   0  0  0  0  0  0  0  0  0  0  0  0
  138.2510   76.0220  222.1020 C   0  0  0  0  0  0  0  0  0  0  0  0
  139.0160   77.0990  222.5430 C   0  0  0  0  0  0  0  0  0  0  0  0
  140.3860   77.1350  222.3990 C   0  0  0  0  0  0  0  0  0  0  0  0
  141.0810   76.0800  221.7950 C   0  0  0  0  0  0  0  0  0  0  0  0
  140.3120   75.0210  221.3630 C   0  0  0  0  0  0  0  0  0  0  0  0
  138.9320   74.9860  221.5090 C   0  0  0  0  0  0  0  0  0  0  0  0
  138.1780   73.7890  221.0070 C   0  0  0  0  0  0  0  0  0  0  0  0
  137.8430   71.9180  223.1310 N   0  0  0  0  0  0  0  0  0  0  0  0
  137.6830   70.8450  223.9280 C   0  0  0  0  0  0  0  0  0  0  0  0
  138.8200   70.1050  224.3680 N   0  0  0  0  0  0  0  0  0  0  0  0
  138.9520   68.6760  224.2080 C   0  0  0  0  0  0  0  0  0  0  0  0
  139.0820   67.9750  225.5510 C   0  0  0  0  0  0  0  0  0  0  0  0
  139.8970   68.7760  226.4920 C   0  0  0  0  0  0  0  0  0  0  0  0
  140.2920   68.1890  227.6750 C   0  0  0  0  0  0  0  0  0  0  0  0
  141.0530   68.9100  228.5720 C   0  0  0  0  0  0  0  0  0  0  0  0
  141.4520   70.2110  228.3460 C   0  0  0  0  0  0  0  0  0  0  0  0
  141.0610   70.8000  227.1670 C   0  0  0  0  0  0  0  0  0  0  0  0
  140.2880   70.0770  226.2530 C   0  0  0  0  0  0  0  0  0  0  0  0
  139.9170   70.8040  225.0110 C   0  0  0  0  0  0  0  0  0  0  0  0
  136.4380   70.4520  224.3200 N   0  0  0  0  0  0  0  0  0  0  0  0
  134.9140   69.7440  225.7390 H   0  0  0  0  0  0  0  0  0  0  0  0
  132.2752   69.7611  226.2040 H   0  0  0  0  0  0  0  0  0  0  0  0
  132.9779   70.7997  227.4559 H   0  0  0  0  0  0  0  0  0  0  0  0
  132.4584   71.8800  225.1258 H   0  0  0  0  0  0  0  0  0  0  0  0
  134.0724   72.1996  225.8246 H   0  0  0  0  0  0  0  0  0  0  0  0
  132.4147   69.4635  224.0882 H   0  0  0  0  0  0  0  0  0  0  0  0
  132.9317   70.2658  222.5673 H   0  0  0  0  0  0  0  0  0  0  0  0
  133.6020   67.8558  222.6632 H   0  0  0  0  0  0  0  0  0  0  0  0
  135.0142   68.9700  222.5541 H   0  0  0  0  0  0  0  0  0  0  0  0
  135.3500   68.7690  224.7440 H   0  0  0  0  0  0  0  0  0  0  0  0
  135.7263   74.9978  220.8152 H   0  0  0  0  0  0  0  0  0  0  0  0
  135.2308   74.6526  222.5055 H   0  0  0  0  0  0  0  0  0  0  0  0
  136.4133   76.9534  221.7483 H   0  0  0  0  0  0  0  0  0  0  0  0
  136.6310   76.1889  223.3886 H   0  0  0  0  0  0  0  0  0  0  0  0
  138.5095   77.9496  223.0225 H   0  0  0  0  0  0  0  0  0  0  0  0
  140.9443   78.0091  222.7655 H   0  0  0  0  0  0  0  0  0  0  0  0
  142.1741   76.0955  221.6728 H   0  0  0  0  0  0  0  0  0  0  0  0
  140.8128   74.1677  220.8823 H   0  0  0  0  0  0  0  0  0  0  0  0
  137.8809   73.9248  219.9566 H   0  0  0  0  0  0  0  0  0  0  0  0
  138.7764   72.8664  221.0337 H   0  0  0  0  0  0  0  0  0  0  0  0
  138.0624   68.2908  223.6883 H   0  0  0  0  0  0  0  0  0  0  0  0
  139.8630   68.4765  223.6247 H   0  0  0  0  0  0  0  0  0  0  0  0
  138.0792   67.8285  225.9787 H   0  0  0  0  0  0  0  0  0  0  0  0
  139.5796   67.0067  225.3936 H   0  0  0  0  0  0  0  0  0  0  0  0
  140.0024   67.1525  227.9024 H   0  0  0  0  0  0  0  0  0  0  0  0
  141.3558   68.4246  229.5115 H   0  0  0  0  0  0  0  0  0  0  0  0
  142.0605   70.7569  229.0819 H   0  0  0  0  0  0  0  0  0  0  0  0
  141.3551   71.8361  226.9434 H   0  0  0  0  0  0  0  0  0  0  0  0
  139.6056   71.8288  225.2618 H   0  0  0  0  0  0  0  0  0  0  0  0
  140.7811   70.8470  224.3317 H   0  0  0  0  0  0  0  0  0  0  0  0
  1  2  1  0
  2  3  1  0
  3  4  1  0
  4  5  1  0
  5  6  1  0
  6  7  1  0
  4  8  1  0
  8  9  2  0
  9 10  1  0
 10 11  1  0
 11 12  1  0
 12 13  1  0
 13 14  1  0
 14 15  2  0
 15 16  1  0
 16 17  2  0
 17 18  1  0
 18 19  2  0
 19 20  1  0
 10 21  2  0
 21 22  1  0
 22 23  1  0
 23 24  1  0
 24 25  1  0
 25 26  1  0
 26 27  2  0
 27 28  1  0
 28 29  2  0
 29 30  1  0
 30 31  2  0
 31 32  1  0
 22 33  2  0
 33  8  1  0
 20 11  1  0
 32 23  1  0
 19 14  1  0
 31 26  1  0
  1 34  1  0
  2 35  1  0
  2 36  1  0
  3 37  1  0
  3 38  1  0
  5 39  1  0
  5 40  1  0
  6 41  1  0
  6 42  1  0
  7 43  1  0
 12 44  1  0
 12 45  1  0
 13 46  1  0
 13 47  1  0
 15 48  1  0
 16 49  1  0
 17 50  1  0
 18 51  1  0
 20 52  1  0
 20 53  1  0
 24 54  1  0
 24 55  1  0
 25 56  1  0
 25 57  1  0
 27 58  1  0
 28 59  1  0
 29 60  1  0
 30 61  1  0
 32 62  1  0
 32 63  1  0
M  END
>  <smiles>  (9) 
OCCN(CCO)c1nc(N2CCc3ccccc3C2)nc(N2CCc3ccccc3C2)n1

>  <score_type>  (9) 
oracle

>  <origin>  (9) 
autodockgpu

>  <m_score__min__energy>  (9) 
-6.79

>  <m_primary>  (9) 
energy

>  <meeko>  (9) 
{"free_energy": -6.45, "intermolecular_energy": -9.13, "internal_energy": -3.99, "cluster_size": 6, "cluster_id": 4, "rank_in_cluster": 5}

>  <energy>  (9) 
-6.66

>  <cluster_rmsd>  (9) 
0.0

>  <rmsd>  (9) 
269.71

>  <cluster>  (9) 
3

$$$$

     RDKit          3D

 63 67  0  0  0  0  0  0  0  0999 V2000
  137.4120   74.4600  222.0880 O   0  0  0  0  0  0  0  0  0  0  0  0
  137.5800   74.2210  220.7070 C   0  0  0  0  0  0  0  0  0  0  0  0
  138.8180   74.9860  220.2970 C   0  0  0  0  0  0  0  0  0  0  0  0
  139.9390   74.4590  221.0330 N   0  0  0  0  0  0  0  0  0  0  0  0
  140.9140   75.3670  221.6140 C   0  0  0  0  0  0  0  0  0  0  0  0
  140.1900   76.4960  222.3290 C   0  0  0  0  0  0  0  0  0  0  0  0
  139.1340   75.9890  223.0860 O   0  0  0  0  0  0  0  0  0  0  0  0
  140.0870   73.0530  221.1830 C   0  0  0  0  0  0  0  0  0  0  0  0
  139.4690   72.4510  222.2250 N   0  0  0  0  0  0  0  0  0  0  0  0
  139.5660   71.1130  222.4280 C   0  0  0  0  0  0  0  0  0  0  0  0
  138.9180   70.4630  223.5230 N   0  0  0  0  0  0  0  0  0  0  0  0
  138.2000   69.2170  223.3700 C   0  0  0  0  0  0  0  0  0  0  0  0
  138.8690   68.1520  224.2000 C   0  0  0  0  0  0  0  0  0  0  0  0
  139.6140   68.6960  225.3320 C   0  0  0  0  0  0  0  0  0  0  0  0
  140.3130   67.7980  226.1350 C   0  0  0  0  0  0  0  0  0  0  0  0
  141.0470   68.2050  227.2280 C   0  0  0  0  0  0  0  0  0  0  0  0
  141.1260   69.5570  227.5870 C   0  0  0  0  0  0  0  0  0  0  0  0
  140.4290   70.4350  226.7840 C   0  0  0  0  0  0  0  0  0  0  0  0
  139.6910   70.0230  225.6830 C   0  0  0  0  0  0  0  0  0  0  0  0
  138.9650   71.0520  224.8680 C   0  0  0  0  0  0  0  0  0  0  0  0
  140.2740   70.3690  221.5990 N   0  0  0  0  0  0  0  0  0  0  0  0
  140.9000   70.9440  220.5540 C   0  0  0  0  0  0  0  0  0  0  0  0
  141.6710   70.1490  219.6570 N   0  0  0  0  0  0  0  0  0  0  0  0
  141.2640   68.8410  219.1980 C   0  0  0  0  0  0  0  0  0  0  0  0
  142.2660   67.7720  219.6050 C   0  0  0  0  0  0  0  0  0  0  0  0
  143.6530   68.2810  219.5120 C   0  0  0  0  0  0  0  0  0  0  0  0
  144.6880   67.3790  219.6370 C   0  0  0  0  0  0  0  0  0  0  0  0
  145.9910   67.8220  219.5530 C   0  0  0  0  0  0  0  0  0  0  0  0
  146.3250   69.1450  219.3460 C   0  0  0  0  0  0  0  0  0  0  0  0
  145.2960   70.0480  219.2220 C   0  0  0  0  0  0  0  0  0  0  0  0
  143.9720   69.6070  219.3060 C   0  0  0  0  0  0  0  0  0  0  0  0
  142.9340   70.6610  219.1590 C   0  0  0  0  0  0  0  0  0  0  0  0
  140.8070   72.2880  220.3450 N   0  0  0  0  0  0  0  0  0  0  0  0
  138.1450   74.0950  222.6130 H   0  0  0  0  0  0  0  0  0  0  0  0
  137.7160   73.1457  220.5194 H   0  0  0  0  0  0  0  0  0  0  0  0
  136.6991   74.5443  220.1330 H   0  0  0  0  0  0  0  0  0  0  0  0
  138.9908   74.8633  219.2176 H   0  0  0  0  0  0  0  0  0  0  0  0
  138.6914   76.0569  220.5140 H   0  0  0  0  0  0  0  0  0  0  0  0
  141.5417   74.8202  222.3331 H   0  0  0  0  0  0  0  0  0  0  0  0
  141.5480   75.7837  220.8175 H   0  0  0  0  0  0  0  0  0  0  0  0
  140.8956   77.0169  222.9930 H   0  0  0  0  0  0  0  0  0  0  0  0
  139.7908   77.1965  221.5807 H   0  0  0  0  0  0  0  0  0  0  0  0
  139.2370   74.9830  223.1030 H   0  0  0  0  0  0  0  0  0  0  0  0
  137.1612   69.3476  223.7076 H   0  0  0  0  0  0  0  0  0  0  0  0
  138.2043   68.9166  222.3118 H   0  0  0  0  0  0  0  0  0  0  0  0
  138.0963   67.4697  224.5840 H   0  0  0  0  0  0  0  0  0  0  0  0
  139.5892   67.6324  223.5508 H   0  0  0  0  0  0  0  0  0  0  0  0
  140.2780   66.7266  225.8881 H   0  0  0  0  0  0  0  0  0  0  0  0
  141.5807   67.4546  227.8297 H   0  0  0  0  0  0  0  0  0  0  0  0
  141.7083   69.8972  228.4560 H   0  0  0  0  0  0  0  0  0  0  0  0
  140.4591   71.5076  227.0263 H   0  0  0  0  0  0  0  0  0  0  0  0
  137.9503   71.2175  225.2592 H   0  0  0  0  0  0  0  0  0  0  0  0
  139.4587   72.0348  224.8854 H   0  0  0  0  0  0  0  0  0  0  0  0
  140.2842   68.5976  219.6347 H   0  0  0  0  0  0  0  0  0  0  0  0
  141.2082   68.8621  218.0996 H   0  0  0  0  0  0  0  0  0  0  0  0
  142.0640   67.4660  220.6421 H   0  0  0  0  0  0  0  0  0  0  0  0
  142.1608   66.9156  218.9227 H   0  0  0  0  0  0  0  0  0  0  0  0
  144.4757   66.3125  219.8027 H   0  0  0  0  0  0  0  0  0  0  0  0
  146.8024   67.0864  219.6558 H   0  0  0  0  0  0  0  0  0  0  0  0
  147.3755   69.4650  219.2826 H   0  0  0  0  0  0  0  0  0  0  0  0
  145.5135   71.1136  219.0573 H   0  0  0  0  0  0  0  0  0  0  0  0
  143.2259   71.5500  219.7373 H   0  0  0  0  0  0  0  0  0  0  0  0
  142.8320   70.9387  218.0995 H   0  0  0  0  0  0  0  0  0  0  0  0
  1  2  1  0
  2  3  1  0
  3  4  1  0
  4  5  1  0
  5  6  1  0
  6  7  1  0
  4  8  1  0
  8  9  2  0
  9 10  1  0
 10 11  1  0
 11 12  1  0
 12 13  1  0
 13 14  1  0
 14 15  2  0
 15 16  1  0
 16 17  2  0
 17 18  1  0
 18 19  2  0
 19 20  1  0
 10 21  2  0
 21 22  1  0
 22 23  1  0
 23 24  1  0
 24 25  1  0
 25 26  1  0
 26 27  2  0
 27 28  1  0
 28 29  2  0
 29 30  1  0
 30 31  2  0
 31 32  1  0
 22 33  2  0
 33  8  1  0
 20 11  1  0
 32 23  1  0
 19 14  1  0
 31 26  1  0
  1 34  1  0
  2 35  1  0
  2 36  1  0
  3 37  1  0
  3 38  1  0
  5 39  1  0
  5 40  1  0
  6 41  1  0
  6 42  1  0
  7 43  1  0
 12 44  1  0
 12 45  1  0
 13 46  1  0
 13 47  1  0
 15 48  1  0
 16 49  1  0
 17 50  1  0
 18 51  1  0
 20 52  1  0
 20 53  1  0
 24 54  1  0
 24 55  1  0
 25 56  1  0
 25 57  1  0
 27 58  1  0
 28 59  1  0
 29 60  1  0
 30 61  1  0
 32 62  1  0
 32 63  1  0
M  END
>  <smiles>  (10) 
OCCN(CCO)c1nc(N2CCc3ccccc3C2)nc(N2CCc3ccccc3C2)n1

>  <score_type>  (10) 
oracle

>  <origin>  (10) 
autodockgpu

>  <m_score__min__energy>  (10) 
-6.79

>  <m_primary>  (10) 
energy

>  <meeko>  (10) 
{"free_energy": -6.52, "intermolecular_energy": -9.2, "internal_energy": -3.42, "cluster_size": 2, "cluster_id": 5, "rank_in_cluster": 1}

>  <energy>  (10) 
-6.65

>  <cluster_rmsd>  (10) 
0.45

>  <rmsd>  (10) 
269.53

>  <cluster>  (10) 
3

$$$$

     RDKit          3D

 63 67  0  0  0  0  0  0  0  0999 V2000
  134.6480   68.0550  224.1950 O   0  0  0  0  0  0  0  0  0  0  0  0
  134.1670   68.7600  223.0710 C   0  0  0  0  0  0  0  0  0  0  0  0
  133.1960   69.7880  223.6050 C   0  0  0  0  0  0  0  0  0  0  0  0
  133.9340   70.7350  224.4010 N   0  0  0  0  0  0  0  0  0  0  0  0
  133.3210   71.3190  225.5830 C   0  0  0  0  0  0  0  0  0  0  0  0
  133.8420   70.6120  226.8240 C   0  0  0  0  0  0  0  0  0  0  0  0
  134.2870   69.3320  226.4990 O   0  0  0  0  0  0  0  0  0  0  0  0
  135.2560   71.0960  224.0240 C   0  0  0  0  0  0  0  0  0  0  0  0
  135.4240   72.1840  223.2370 N   0  0  0  0  0  0  0  0  0  0  0  0
  136.6570   72.5870  222.8410 C   0  0  0  0  0  0  0  0  0  0  0  0
  136.8490   73.7330  222.0100 N   0  0  0  0  0  0  0  0  0  0  0  0
  135.9840   74.8910  222.0740 C   0  0  0  0  0  0  0  0  0  0  0  0
  136.7870   76.0890  222.5090 C   0  0  0  0  0  0  0  0  0  0  0  0
  138.2070   75.9710  222.1870 C   0  0  0  0  0  0  0  0  0  0  0  0
  139.0480   77.0040  222.5920 C   0  0  0  0  0  0  0  0  0  0  0  0
  140.4030   76.9920  222.3400 C   0  0  0  0  0  0  0  0  0  0  0  0
  141.0040   75.9280  221.6560 C   0  0  0  0  0  0  0  0  0  0  0  0
  140.1610   74.9120  221.2610 C   0  0  0  0  0  0  0  0  0  0  0  0
  138.7970   74.9260  221.5170 C   0  0  0  0  0  0  0  0  0  0  0  0
  137.9580   73.7740  221.0470 C   0  0  0  0  0  0  0  0  0  0  0  0
  137.7260   71.9150  223.2240 N   0  0  0  0  0  0  0  0  0  0  0  0
  137.5870   70.8280  224.0070 C   0  0  0  0  0  0  0  0  0  0  0  0
  138.7360   70.0930  224.4220 N   0  0  0  0  0  0  0  0  0  0  0  0
  138.8730   68.6650  224.2560 C   0  0  0  0  0  0  0  0  0  0  0  0
  139.0320   67.9610  225.5940 C   0  0  0  0  0  0  0  0  0  0  0  0
  139.8630   68.7640  226.5200 C   0  0  0  0  0  0  0  0  0  0  0  0
  140.2840   68.1760  227.6940 C   0  0  0  0  0  0  0  0  0  0  0  0
  141.0590   68.8980  228.5770 C   0  0  0  0  0  0  0  0  0  0  0  0
  141.4470   70.2010  228.3470 C   0  0  0  0  0  0  0  0  0  0  0  0
  141.0290   70.7920  227.1780 C   0  0  0  0  0  0  0  0  0  0  0  0
  140.2420   70.0670  226.2770 C   0  0  0  0  0  0  0  0  0  0  0  0
  139.8420   70.7960  225.0450 C   0  0  0  0  0  0  0  0  0  0  0  0
  136.3500   70.4180  224.4090 N   0  0  0  0  0  0  0  0  0  0  0  0
  135.2680   68.5870  224.7220 H   0  0  0  0  0  0  0  0  0  0  0  0
  134.9976   69.2554  222.5470 H   0  0  0  0  0  0  0  0  0  0  0  0
  133.6818   68.0850  222.3506 H   0  0  0  0  0  0  0  0  0  0  0  0
  132.7061   70.3072  222.7681 H   0  0  0  0  0  0  0  0  0  0  0  0
  132.4236   69.2987  224.2165 H   0  0  0  0  0  0  0  0  0  0  0  0
  133.5732   72.3884  225.6368 H   0  0  0  0  0  0  0  0  0  0  0  0
  132.2286   71.2031  225.5256 H   0  0  0  0  0  0  0  0  0  0  0  0
  134.6766   71.1899  227.2477 H   0  0  0  0  0  0  0  0  0  0  0  0
  133.0279   70.5324  227.5595 H   0  0  0  0  0  0  0  0  0  0  0  0
  135.0260   69.4380  225.8150 H   0  0  0  0  0  0  0  0  0  0  0  0
  135.5497   75.0805  221.0813 H   0  0  0  0  0  0  0  0  0  0  0  0
  135.1754   74.7073  222.7968 H   0  0  0  0  0  0  0  0  0  0  0  0
  136.3863   76.9813  222.0057 H   0  0  0  0  0  0  0  0  0  0  0  0
  136.7024   76.1625  223.6033 H   0  0  0  0  0  0  0  0  0  0  0  0
  138.6160   77.8595  223.1319 H   0  0  0  0  0  0  0  0  0  0  0  0
  141.0235   77.8333  222.6823 H   0  0  0  0  0  0  0  0  0  0  0  0
  142.0837   75.9047  221.4467 H   0  0  0  0  0  0  0  0  0  0  0  0
  140.5869   74.0540  220.7202 H   0  0  0  0  0  0  0  0  0  0  0  0
  137.5853   73.9509  220.0273 H   0  0  0  0  0  0  0  0  0  0  0  0
  138.5190   72.8288  221.0034 H   0  0  0  0  0  0  0  0  0  0  0  0
  137.9760   68.2761  223.7519 H   0  0  0  0  0  0  0  0  0  0  0  0
  139.7743   68.4724  223.6555 H   0  0  0  0  0  0  0  0  0  0  0  0
  138.0385   67.8097  226.0413 H   0  0  0  0  0  0  0  0  0  0  0  0
  139.5293   66.9945  225.4249 H   0  0  0  0  0  0  0  0  0  0  0  0
  140.0034   67.1377  227.9247 H   0  0  0  0  0  0  0  0  0  0  0  0
  141.3830   68.4115  229.5088 H   0  0  0  0  0  0  0  0  0  0  0  0
  142.0680   70.7475  229.0720 H   0  0  0  0  0  0  0  0  0  0  0  0
  141.3123   71.8306  226.9522 H   0  0  0  0  0  0  0  0  0  0  0  0
  139.5302   71.8182  225.3054 H   0  0  0  0  0  0  0  0  0  0  0  0
  140.6920   70.8459  224.3485 H   0  0  0  0  0  0  0  0  0  0  0  0
  1  2  1  0
  2  3  1  0
  3  4  1  0
  4  5  1  0
  5  6  1  0
  6  7  1  0
  4  8  1  0
  8  9  2  0
  9 10  1  0
 10 11  1  0
 11 12  1  0
 12 13  1  0
 13 14  1  0
 14 15  2  0
 15 16  1  0
 16 17  2  0
 17 18  1  0
 18 19  2  0
 19 20  1  0
 10 21  2  0
 21 22  1  0
 22 23  1  0
 23 24  1  0
 24 25  1  0
 25 26  1  0
 26 27  2  0
 27 28  1  0
 28 29  2  0
 29 30  1  0
 30 31  2  0
 31 32  1  0
 22 33  2  0
 33  8  1  0
 20 11  1  0
 32 23  1  0
 19 14  1  0
 31 26  1  0
  1 34  1  0
  2 35  1  0
  2 36  1  0
  3 37  1  0
  3 38  1  0
  5 39  1  0
  5 40  1  0
  6 41  1  0
  6 42  1  0
  7 43  1  0
 12 44  1  0
 12 45  1  0
 13 46  1  0
 13 47  1  0
 15 48  1  0
 16 49  1  0
 17 50  1  0
 18 51  1  0
 20 52  1  0
 20 53  1  0
 24 54  1  0
 24 55  1  0
 25 56  1  0
 25 57  1  0
 27 58  1  0
 28 59  1  0
 29 60  1  0
 30 61  1  0
 32 62  1  0
 32 63  1  0
M  END
>  <smiles>  (11) 
OCCN(CCO)c1nc(N2CCc3ccccc3C2)nc(N2CCc3ccccc3C2)n1

>  <score_type>  (11) 
oracle

>  <origin>  (11) 
autodockgpu

>  <m_score__min__energy>  (11) 
-6.79

>  <m_primary>  (11) 
energy

>  <meeko>  (11) 
{"free_energy": -6.59, "intermolecular_energy": -9.28, "internal_energy": -4.07, "cluster_size": 6, "cluster_id": 4, "rank_in_cluster": 2}

>  <energy>  (11) 
-6.64

>  <cluster_rmsd>  (11) 
0.44

>  <rmsd>  (11) 
269.53

>  <cluster>  (11) 
3

$$$$

     RDKit          3D

 63 67  0  0  0  0  0  0  0  0999 V2000
  132.7310   68.8390  226.0820 O   0  0  0  0  0  0  0  0  0  0  0  0
  133.7040   67.8220  226.1990 C   0  0  0  0  0  0  0  0  0  0  0  0
  133.5760   66.9750  224.9520 C   0  0  0  0  0  0  0  0  0  0  0  0
  133.8140   67.8170  223.8080 N   0  0  0  0  0  0  0  0  0  0  0  0
  133.2170   67.4820  222.5260 C   0  0  0  0  0  0  0  0  0  0  0  0
  132.0020   68.3650  222.2880 C   0  0  0  0  0  0  0  0  0  0  0  0
  131.4580   68.7740  223.5050 O   0  0  0  0  0  0  0  0  0  0  0  0
  134.6370   68.9700  223.9380 C   0  0  0  0  0  0  0  0  0  0  0  0
  135.9710   68.7940  224.0740 N   0  0  0  0  0  0  0  0  0  0  0  0
  136.8150   69.8480  224.2010 C   0  0  0  0  0  0  0  0  0  0  0  0
  138.2260   69.6770  224.3450 N   0  0  0  0  0  0  0  0  0  0  0  0
  139.1730   70.2260  223.3990 C   0  0  0  0  0  0  0  0  0  0  0  0
  140.0510   71.2300  224.0990 C   0  0  0  0  0  0  0  0  0  0  0  0
  140.1620   70.9870  225.5350 C   0  0  0  0  0  0  0  0  0  0  0  0
  140.9110   71.8900  226.2860 C   0  0  0  0  0  0  0  0  0  0  0  0
  141.0790   71.7530  227.6470 C   0  0  0  0  0  0  0  0  0  0  0  0
  140.5000   70.6880  228.3470 C   0  0  0  0  0  0  0  0  0  0  0  0
  139.7610   69.8020  227.5920 C   0  0  0  0  0  0  0  0  0  0  0  0
  139.5920   69.9410  226.2220 C   0  0  0  0  0  0  0  0  0  0  0  0
  138.7700   68.9260  225.4840 C   0  0  0  0  0  0  0  0  0  0  0  0
  136.3390   71.0790  224.1940 N   0  0  0  0  0  0  0  0  0  0  0  0
  135.0150   71.2830  224.0600 C   0  0  0  0  0  0  0  0  0  0  0  0
  134.4910   72.6080  224.0550 N   0  0  0  0  0  0  0  0  0  0  0  0
  135.2030   73.7450  223.5190 C   0  0  0  0  0  0  0  0  0  0  0  0
  135.4560   74.7970  224.5870 C   0  0  0  0  0  0  0  0  0  0  0  0
  134.3010   74.9090  225.5070 C   0  0  0  0  0  0  0  0  0  0  0  0
  134.2770   75.9610  226.3970 C   0  0  0  0  0  0  0  0  0  0  0  0
  133.2140   76.0940  227.2660 C   0  0  0  0  0  0  0  0  0  0  0  0
  132.1510   75.2150  227.2940 C   0  0  0  0  0  0  0  0  0  0  0  0
  132.1710   74.1640  226.4080 C   0  0  0  0  0  0  0  0  0  0  0  0
  133.2450   74.0230  225.5240 C   0  0  0  0  0  0  0  0  0  0  0  0
  133.1720   72.8540  224.6080 C   0  0  0  0  0  0  0  0  0  0  0  0
  134.1610   70.2270  223.9320 N   0  0  0  0  0  0  0  0  0  0  0  0
  132.7260   69.2390  225.1960 H   0  0  0  0  0  0  0  0  0  0  0  0
  134.7105   68.2616  226.2605 H   0  0  0  0  0  0  0  0  0  0  0  0
  133.5527   67.2233  227.1093 H   0  0  0  0  0  0  0  0  0  0  0  0
  134.3170   66.1624  224.9765 H   0  0  0  0  0  0  0  0  0  0  0  0
  132.5703   66.5331  224.8951 H   0  0  0  0  0  0  0  0  0  0  0  0
  133.9525   67.6461  221.7247 H   0  0  0  0  0  0  0  0  0  0  0  0
  132.9087   66.4261  222.5292 H   0  0  0  0  0  0  0  0  0  0  0  0
  132.3040   69.2503  221.7092 H   0  0  0  0  0  0  0  0  0  0  0  0
  131.2457   67.7923  221.7312 H   0  0  0  0  0  0  0  0  0  0  0  0
  132.1620   69.3290  223.9740 H   0  0  0  0  0  0  0  0  0  0  0  0
  139.7949   69.4162  222.9897 H   0  0  0  0  0  0  0  0  0  0  0  0
  138.6307   70.7193  222.5789 H   0  0  0  0  0  0  0  0  0  0  0  0
  141.0572   71.1845  223.6568 H   0  0  0  0  0  0  0  0  0  0  0  0
  139.5893   72.2197  223.9672 H   0  0  0  0  0  0  0  0  0  0  0  0
  141.3845   72.7415  225.7753 H   0  0  0  0  0  0  0  0  0  0  0  0
  141.6796   72.4948  228.1938 H   0  0  0  0  0  0  0  0  0  0  0  0
  140.6268   70.5655  229.4328 H   0  0  0  0  0  0  0  0  0  0  0  0
  139.2852   68.9487  228.0974 H   0  0  0  0  0  0  0  0  0  0  0  0
  139.3965   68.0902  225.1390 H   0  0  0  0  0  0  0  0  0  0  0  0
  137.9857   68.4766  226.1108 H   0  0  0  0  0  0  0  0  0  0  0  0
  136.1685   73.4049  223.1163 H   0  0  0  0  0  0  0  0  0  0  0  0
  134.5866   74.1970  222.7280 H   0  0  0  0  0  0  0  0  0  0  0  0
  136.3493   74.5160  225.1640 H   0  0  0  0  0  0  0  0  0  0  0  0
  135.6055   75.7684  224.0930 H   0  0  0  0  0  0  0  0  0  0  0  0
  135.1004   76.6901  226.4143 H   0  0  0  0  0  0  0  0  0  0  0  0
  133.2139   76.9400  227.9691 H   0  0  0  0  0  0  0  0  0  0  0  0
  131.3179   75.3502  227.9995 H   0  0  0  0  0  0  0  0  0  0  0  0
  131.3455   73.4371  226.3946 H   0  0  0  0  0  0  0  0  0  0  0  0
  132.8342   71.9681  225.1658 H   0  0  0  0  0  0  0  0  0  0  0  0
  132.4595   73.0605  223.7957 H   0  0  0  0  0  0  0  0  0  0  0  0
  1  2  1  0
  2  3  1  0
  3  4  1  0
  4  5  1  0
  5  6  1  0
  6  7  1  0
  4  8  1  0
  8  9  2  0
  9 10  1  0
 10 11  1  0
 11 12  1  0
 12 13  1  0
 13 14  1  0
 14 15  2  0
 15 16  1  0
 16 17  2  0
 17 18  1  0
 18 19  2  0
 19 20  1  0
 10 21  2  0
 21 22  1  0
 22 23  1  0
 23 24  1  0
 24 25  1  0
 25 26  1  0
 26 27  2  0
 27 28  1  0
 28 29  2  0
 29 30  1  0
 30 31  2  0
 31 32  1  0
 22 33  2  0
 33  8  1  0
 20 11  1  0
 32 23  1  0
 19 14  1  0
 31 26  1  0
  1 34  1  0
  2 35  1  0
  2 36  1  0
  3 37  1  0
  3 38  1  0
  5 39  1  0
  5 40  1  0
  6 41  1  0
  6 42  1  0
  7 43  1  0
 12 44  1  0
 12 45  1  0
 13 46  1  0
 13 47  1  0
 15 48  1  0
 16 49  1  0
 17 50  1  0
 18 51  1  0
 20 52  1  0
 20 53  1  0
 24 54  1  0
 24 55  1  0
 25 56  1  0
 25 57  1  0
 27 58  1  0
 28 59  1  0
 29 60  1  0
 30 61  1  0
 32 62  1  0
 32 63  1  0
M  END
>  <smiles>  (12) 
OCCN(CCO)c1nc(N2CCc3ccccc3C2)nc(N2CCc3ccccc3C2)n1

>  <score_type>  (12) 
oracle

>  <origin>  (12) 
autodockgpu

>  <m_score__min__energy>  (12) 
-6.79

>  <m_primary>  (12) 
energy

>  <meeko>  (12) 
{"free_energy": -6.64, "intermolecular_energy": -9.32, "internal_energy": -4.02, "cluster_size": 3, "cluster_id": 3, "rank_in_cluster": 3}

>  <energy>  (12) 
-6.61

>  <cluster_rmsd>  (12) 
0.0

>  <rmsd>  (12) 
269.99

>  <cluster>  (12) 
4

$$$$

     RDKit          3D

 63 67  0  0  0  0  0  0  0  0999 V2000
  134.3080   69.6730  226.8090 O   0  0  0  0  0  0  0  0  0  0  0  0
  133.9180   70.9920  227.1250 C   0  0  0  0  0  0  0  0  0  0  0  0
  133.2930   71.5570  225.8690 C   0  0  0  0  0  0  0  0  0  0  0  0
  133.8570   70.8690  224.7360 N   0  0  0  0  0  0  0  0  0  0  0  0
  133.0940   69.8270  224.0700 C   0  0  0  0  0  0  0  0  0  0  0  0
  134.0440   68.7580  223.5520 C   0  0  0  0  0  0  0  0  0  0  0  0
  134.6890   68.1300  224.6160 O   0  0  0  0  0  0  0  0  0  0  0  0
  135.1580   71.2120  224.2770 C   0  0  0  0  0  0  0  0  0  0  0  0
  135.2900   72.2850  223.4640 N   0  0  0  0  0  0  0  0  0  0  0  0
  136.5010   72.6700  222.9910 C   0  0  0  0  0  0  0  0  0  0  0  0
  136.6560   73.8010  222.1320 N   0  0  0  0  0  0  0  0  0  0  0  0
  135.7550   74.9320  222.1710 C   0  0  0  0  0  0  0  0  0  0  0  0
  136.5210   76.1650  222.5730 C   0  0  0  0  0  0  0  0  0  0  0  0
  137.9430   76.0830  222.2500 C   0  0  0  0  0  0  0  0  0  0  0  0
  138.7530   77.1520  222.6260 C   0  0  0  0  0  0  0  0  0  0  0  0
  140.1060   77.1760  222.3690 C   0  0  0  0  0  0  0  0  0  0  0  0
  140.7390   76.1150  221.7100 C   0  0  0  0  0  0  0  0  0  0  0  0
  139.9270   75.0630  221.3420 C   0  0  0  0  0  0  0  0  0  0  0  0
  138.5640   75.0410  221.6020 C   0  0  0  0  0  0  0  0  0  0  0  0
  137.7600   73.8520  221.1640 C   0  0  0  0  0  0  0  0  0  0  0  0
  137.5850   71.9930  223.3220 N   0  0  0  0  0  0  0  0  0  0  0  0
  137.4820   70.9210  224.1300 C   0  0  0  0  0  0  0  0  0  0  0  0
  138.6460   70.1810  224.4900 N   0  0  0  0  0  0  0  0  0  0  0  0
  138.7900   68.7610  224.2680 C   0  0  0  0  0  0  0  0  0  0  0  0
  138.9880   68.0100  225.5750 C   0  0  0  0  0  0  0  0  0  0  0  0
  139.8340   68.7860  226.5100 C   0  0  0  0  0  0  0  0  0  0  0  0
  140.2880   68.1590  227.6510 C   0  0  0  0  0  0  0  0  0  0  0  0
  141.0780   68.8540  228.5410 C   0  0  0  0  0  0  0  0  0  0  0  0
  141.4500   70.1690  228.3510 C   0  0  0  0  0  0  0  0  0  0  0  0
  140.9990   70.7980  227.2150 C   0  0  0  0  0  0  0  0  0  0  0  0
  140.1970   70.1000  226.3070 C   0  0  0  0  0  0  0  0  0  0  0  0
  139.7610   70.8700  225.1120 C   0  0  0  0  0  0  0  0  0  0  0  0
  136.2670   70.5280  224.6090 N   0  0  0  0  0  0  0  0  0  0  0  0
  134.9980   69.6500  226.1240 H   0  0  0  0  0  0  0  0  0  0  0  0
  133.1865   70.9873  227.9466 H   0  0  0  0  0  0  0  0  0  0  0  0
  134.7759   71.5968  227.4540 H   0  0  0  0  0  0  0  0  0  0  0  0
  132.2041   71.4033  225.8935 H   0  0  0  0  0  0  0  0  0  0  0  0
  133.4946   72.6360  225.7969 H   0  0  0  0  0  0  0  0  0  0  0  0
  132.3881   69.3763  224.7831 H   0  0  0  0  0  0  0  0  0  0  0  0
  132.5356   70.2617  223.2278 H   0  0  0  0  0  0  0  0  0  0  0  0
  133.4734   68.0107  222.9810 H   0  0  0  0  0  0  0  0  0  0  0  0
  134.7972   69.2308  222.9046 H   0  0  0  0  0  0  0  0  0  0  0  0
  135.2750   68.8250  225.0610 H   0  0  0  0  0  0  0  0  0  0  0  0
  135.3116   75.0831  221.1757 H   0  0  0  0  0  0  0  0  0  0  0  0
  134.9550   74.7408  222.9013 H   0  0  0  0  0  0  0  0  0  0  0  0
  136.0916   77.0312  222.0483 H   0  0  0  0  0  0  0  0  0  0  0  0
  136.4365   76.2638  223.6653 H   0  0  0  0  0  0  0  0  0  0  0  0
  138.2963   78.0068  223.1463 H   0  0  0  0  0  0  0  0  0  0  0  0
  140.7004   78.0450  222.6874 H   0  0  0  0  0  0  0  0  0  0  0  0
  141.8185   76.1204  221.4987 H   0  0  0  0  0  0  0  0  0  0  0  0
  140.3783   74.2058  220.8208 H   0  0  0  0  0  0  0  0  0  0  0  0
  137.3788   73.9915  220.1416 H   0  0  0  0  0  0  0  0  0  0  0  0
  138.3499   72.9239  221.1416 H   0  0  0  0  0  0  0  0  0  0  0  0
  137.8837   68.3830  223.7723 H   0  0  0  0  0  0  0  0  0  0  0  0
  139.6773   68.5983  223.6386 H   0  0  0  0  0  0  0  0  0  0  0  0
  138.0071   67.8327  226.0401 H   0  0  0  0  0  0  0  0  0  0  0  0
  139.4899   67.0555  225.3581 H   0  0  0  0  0  0  0  0  0  0  0  0
  140.0213   67.1105  227.8497 H   0  0  0  0  0  0  0  0  0  0  0  0
  141.4286   68.3358  229.4457 H   0  0  0  0  0  0  0  0  0  0  0  0
  142.0835   70.6942  229.0810 H   0  0  0  0  0  0  0  0  0  0  0  0
  141.2681   71.8468  227.0210 H   0  0  0  0  0  0  0  0  0  0  0  0
  139.4475   71.8792  225.4172 H   0  0  0  0  0  0  0  0  0  0  0  0
  140.5934   70.9524  224.3977 H   0  0  0  0  0  0  0  0  0  0  0  0
  1  2  1  0
  2  3  1  0
  3  4  1  0
  4  5  1  0
  5  6  1  0
  6  7  1  0
  4  8  1  0
  8  9  2  0
  9 10  1  0
 10 11  1  0
 11 12  1  0
 12 13  1  0
 13 14  1  0
 14 15  2  0
 15 16  1  0
 16 17  2  0
 17 18  1  0
 18 19  2  0
 19 20  1  0
 10 21  2  0
 21 22  1  0
 22 23  1  0
 23 24  1  0
 24 25  1  0
 25 26  1  0
 26 27  2  0
 27 28  1  0
 28 29  2  0
 29 30  1  0
 30 31  2  0
 31 32  1  0
 22 33  2  0
 33  8  1  0
 20 11  1  0
 32 23  1  0
 19 14  1  0
 31 26  1  0
  1 34  1  0
  2 35  1  0
  2 36  1  0
  3 37  1  0
  3 38  1  0
  5 39  1  0
  5 40  1  0
  6 41  1  0
  6 42  1  0
  7 43  1  0
 12 44  1  0
 12 45  1  0
 13 46  1  0
 13 47  1  0
 15 48  1  0
 16 49  1  0
 17 50  1  0
 18 51  1  0
 20 52  1  0
 20 53  1  0
 24 54  1  0
 24 55  1  0
 25 56  1  0
 25 57  1  0
 27 58  1  0
 28 59  1  0
 29 60  1  0
 30 61  1  0
 32 62  1  0
 32 63  1  0
M  END
>  <smiles>  (13) 
OCCN(CCO)c1nc(N2CCc3ccccc3C2)nc(N2CCc3ccccc3C2)n1

>  <score_type>  (13) 
oracle

>  <origin>  (13) 
autodockgpu

>  <m_score__min__energy>  (13) 
-6.79

>  <m_primary>  (13) 
energy

>  <meeko>  (13) 
{"free_energy": -6.57, "intermolecular_energy": -9.26, "internal_energy": -4.05, "cluster_size": 6, "cluster_id": 4, "rank_in_cluster": 4}

>  <energy>  (13) 
-6.59

>  <cluster_rmsd>  (13) 
0.28

>  <rmsd>  (13) 
269.98

>  <cluster>  (13) 
4

$$$$

     RDKit          3D

 63 67  0  0  0  0  0  0  0  0999 V2000
  143.4870   73.0870  218.7730 O   0  0  0  0  0  0  0  0  0  0  0  0
  144.3140   73.0200  219.9150 C   0  0  0  0  0  0  0  0  0  0  0  0
  144.1160   71.6380  220.4950 C   0  0  0  0  0  0  0  0  0  0  0  0
  142.7130   71.3180  220.4330 N   0  0  0  0  0  0  0  0  0  0  0  0
  142.2600   70.1980  219.6240 C   0  0  0  0  0  0  0  0  0  0  0  0
  140.9870   70.5880  218.8900 C   0  0  0  0  0  0  0  0  0  0  0  0
  141.1590   71.8100  218.2420 O   0  0  0  0  0  0  0  0  0  0  0  0
  141.7770   72.1030  221.1610 C   0  0  0  0  0  0  0  0  0  0  0  0
  141.1140   71.5230  222.1870 N   0  0  0  0  0  0  0  0  0  0  0  0
  140.2090   72.2120  222.9260 C   0  0  0  0  0  0  0  0  0  0  0  0
  139.5010   71.6130  224.0120 N   0  0  0  0  0  0  0  0  0  0  0  0
  138.1660   71.0760  223.8650 C   0  0  0  0  0  0  0  0  0  0  0  0
  138.1920   69.5950  224.1400 C   0  0  0  0  0  0  0  0  0  0  0  0
  139.2950   69.1960  225.0100 C   0  0  0  0  0  0  0  0  0  0  0  0
  139.4400   67.8380  225.2850 C   0  0  0  0  0  0  0  0  0  0  0  0
  140.4460   67.3550  226.0940 C   0  0  0  0  0  0  0  0  0  0  0  0
  141.3800   68.2160  226.6840 C   0  0  0  0  0  0  0  0  0  0  0  0
  141.2250   69.5560  226.4030 C   0  0  0  0  0  0  0  0  0  0  0  0
  140.2120   70.0410  225.5880 C   0  0  0  0  0  0  0  0  0  0  0  0
  140.1230   71.5180  225.3400 C   0  0  0  0  0  0  0  0  0  0  0  0
  139.9590   73.4790  222.6500 N   0  0  0  0  0  0  0  0  0  0  0  0
  140.6060   74.0810  221.6330 C   0  0  0  0  0  0  0  0  0  0  0  0
  140.3400   75.4470  221.3250 N   0  0  0  0  0  0  0  0  0  0  0  0
  140.4770   76.0080  220.0010 C   0  0  0  0  0  0  0  0  0  0  0  0
  141.5110   77.1220  219.9730 C   0  0  0  0  0  0  0  0  0  0  0  0
  141.4480   77.9360  221.2080 C   0  0  0  0  0  0  0  0  0  0  0  0
  142.1650   79.1120  221.2510 C   0  0  0  0  0  0  0  0  0  0  0  0
  142.1260   79.8930  222.3870 C   0  0  0  0  0  0  0  0  0  0  0  0
  141.3930   79.5580  223.5060 C   0  0  0  0  0  0  0  0  0  0  0  0
  140.6760   78.3850  223.4680 C   0  0  0  0  0  0  0  0  0  0  0  0
  140.7100   77.5880  222.3200 C   0  0  0  0  0  0  0  0  0  0  0  0
  139.9030   76.3410  222.3810 C   0  0  0  0  0  0  0  0  0  0  0  0
  141.5160   73.3930  220.8870 N   0  0  0  0  0  0  0  0  0  0  0  0
  142.5590   73.2650  219.0030 H   0  0  0  0  0  0  0  0  0  0  0  0
  145.3669   73.1686  219.6332 H   0  0  0  0  0  0  0  0  0  0  0  0
  144.0569   73.8026  220.6440 H   0  0  0  0  0  0  0  0  0  0  0  0
  144.6910   70.9039  219.9115 H   0  0  0  0  0  0  0  0  0  0  0  0
  144.4650   71.6112  221.5378 H   0  0  0  0  0  0  0  0  0  0  0  0
  143.0388   69.9342  218.8934 H   0  0  0  0  0  0  0  0  0  0  0  0
  142.0596   69.3329  220.2732 H   0  0  0  0  0  0  0  0  0  0  0  0
  140.7445   69.8139  218.1470 H   0  0  0  0  0  0  0  0  0  0  0  0
  140.1675   70.6804  219.6179 H   0  0  0  0  0  0  0  0  0  0  0  0
  141.3840   72.4950  218.9530 H   0  0  0  0  0  0  0  0  0  0  0  0
  137.4904   71.5704  224.5786 H   0  0  0  0  0  0  0  0  0  0  0  0
  137.8078   71.2543  222.8403 H   0  0  0  0  0  0  0  0  0  0  0  0
  137.2449   69.3112  224.6221 H   0  0  0  0  0  0  0  0  0  0  0  0
  138.3312   69.0835  223.1762 H   0  0  0  0  0  0  0  0  0  0  0  0
  138.7274   67.1270  224.8414 H   0  0  0  0  0  0  0  0  0  0  0  0
  140.5167   66.2731  226.2797 H   0  0  0  0  0  0  0  0  0  0  0  0
  142.1878   67.8452  227.3320 H   0  0  0  0  0  0  0  0  0  0  0  0
  141.9346   70.2719  226.8435 H   0  0  0  0  0  0  0  0  0  0  0  0
  139.4974   72.0064  226.1017 H   0  0  0  0  0  0  0  0  0  0  0  0
  141.1019   72.0174  225.3882 H   0  0  0  0  0  0  0  0  0  0  0  0
  140.7882   75.2137  219.3066 H   0  0  0  0  0  0  0  0  0  0  0  0
  139.5061   76.4303  219.7026 H   0  0  0  0  0  0  0  0  0  0  0  0
  142.5142   76.6794  219.8847 H   0  0  0  0  0  0  0  0  0  0  0  0
  141.3002   77.7741  219.1126 H   0  0  0  0  0  0  0  0  0  0  0  0
  142.7650   79.4260  220.3842 H   0  0  0  0  0  0  0  0  0  0  0  0
  142.7069   80.8270  222.4011 H   0  0  0  0  0  0  0  0  0  0  0  0
  141.3822   80.2048  224.3957 H   0  0  0  0  0  0  0  0  0  0  0  0
  140.0780   78.0751  224.3377 H   0  0  0  0  0  0  0  0  0  0  0  0
  140.0456   75.8561  223.3580 H   0  0  0  0  0  0  0  0  0  0  0  0
  138.8372   76.5797  222.2503 H   0  0  0  0  0  0  0  0  0  0  0  0
  1  2  1  0
  2  3  1  0
  3  4  1  0
  4  5  1  0
  5  6  1  0
  6  7  1  0
  4  8  1  0
  8  9  2  0
  9 10  1  0
 10 11  1  0
 11 12  1  0
 12 13  1  0
 13 14  1  0
 14 15  2  0
 15 16  1  0
 16 17  2  0
 17 18  1  0
 18 19  2  0
 19 20  1  0
 10 21  2  0
 21 22  1  0
 22 23  1  0
 23 24  1  0
 24 25  1  0
 25 26  1  0
 26 27  2  0
 27 28  1  0
 28 29  2  0
 29 30  1  0
 30 31  2  0
 31 32  1  0
 22 33  2  0
 33  8  1  0
 20 11  1  0
 32 23  1  0
 19 14  1  0
 31 26  1  0
  1 34  1  0
  2 35  1  0
  2 36  1  0
  3 37  1  0
  3 38  1  0
  5 39  1  0
  5 40  1  0
  6 41  1  0
  6 42  1  0
  7 43  1  0
 12 44  1  0
 12 45  1  0
 13 46  1  0
 13 47  1  0
 15 48  1  0
 16 49  1  0
 17 50  1  0
 18 51  1  0
 20 52  1  0
 20 53  1  0
 24 54  1  0
 24 55  1  0
 25 56  1  0
 25 57  1  0
 27 58  1  0
 28 59  1  0
 29 60  1  0
 30 61  1  0
 32 62  1  0
 32 63  1  0
M  END
>  <smiles>  (14) 
OCCN(CCO)c1nc(N2CCc3ccccc3C2)nc(N2CCc3ccccc3C2)n1

>  <score_type>  (14) 
oracle

>  <origin>  (14) 
autodockgpu

>  <m_score__min__energy>  (14) 
-6.79

>  <m_primary>  (14) 
energy

>  <meeko>  (14) 
{"free_energy": -6.68, "intermolecular_energy": -9.37, "internal_energy": -4.04, "cluster_size": 4, "cluster_id": 2, "rank_in_cluster": 2}

>  <energy>  (14) 
-6.58

>  <cluster_rmsd>  (14) 
0.26

>  <rmsd>  (14) 
269.98

>  <cluster>  (14) 
4

$$$$

     RDKit          3D

 63 67  0  0  0  0  0  0  0  0999 V2000
  135.1460   71.7270  223.5300 O   0  0  0  0  0  0  0  0  0  0  0  0
  134.9610   71.2630  222.2100 C   0  0  0  0  0  0  0  0  0  0  0  0
  134.9780   72.4910  221.3280 C   0  0  0  0  0  0  0  0  0  0  0  0
  135.6950   73.5330  222.0180 N   0  0  0  0  0  0  0  0  0  0  0  0
  134.9700   74.6620  222.5770 C   0  0  0  0  0  0  0  0  0  0  0  0
  135.5760   75.0360  223.9210 C   0  0  0  0  0  0  0  0  0  0  0  0
  135.7750   73.8940  224.6950 O   0  0  0  0  0  0  0  0  0  0  0  0
  137.1090   73.4530  222.1440 C   0  0  0  0  0  0  0  0  0  0  0  0
  137.8550   74.4710  221.6560 N   0  0  0  0  0  0  0  0  0  0  0  0
  139.2080   74.4620  221.7440 C   0  0  0  0  0  0  0  0  0  0  0  0
  140.0080   75.5300  221.2340 N   0  0  0  0  0  0  0  0  0  0  0  0
  139.6950   76.2120  219.9970 C   0  0  0  0  0  0  0  0  0  0  0  0
  139.4040   77.6610  220.2870 C   0  0  0  0  0  0  0  0  0  0  0  0
  140.0490   78.1390  221.5080 C   0  0  0  0  0  0  0  0  0  0  0  0
  139.8040   79.4540  221.8950 C   0  0  0  0  0  0  0  0  0  0  0  0
  140.3620   80.0030  223.0280 C   0  0  0  0  0  0  0  0  0  0  0  0
  141.2130   79.2580  223.8530 C   0  0  0  0  0  0  0  0  0  0  0  0
  141.4480   77.9580  223.4590 C   0  0  0  0  0  0  0  0  0  0  0  0
  140.8840   77.4060  222.3180 C   0  0  0  0  0  0  0  0  0  0  0  0
  141.1990   75.9810  221.9680 C   0  0  0  0  0  0  0  0  0  0  0  0
  139.8260   73.4450  222.3150 N   0  0  0  0  0  0  0  0  0  0  0  0
  139.1070   72.4180  222.8080 C   0  0  0  0  0  0  0  0  0  0  0  0
  139.7660   71.3140  223.4230 N   0  0  0  0  0  0  0  0  0  0  0  0
  139.5480   69.9390  223.0360 C   0  0  0  0  0  0  0  0  0  0  0  0
  138.9990   69.1160  224.1900 C   0  0  0  0  0  0  0  0  0  0  0  0
  139.6170   69.5210  225.4730 C   0  0  0  0  0  0  0  0  0  0  0  0
  139.3920   68.7340  226.5820 C   0  0  0  0  0  0  0  0  0  0  0  0
  139.9540   69.0840  227.7910 C   0  0  0  0  0  0  0  0  0  0  0  0
  140.7480   70.2000  227.9570 C   0  0  0  0  0  0  0  0  0  0  0  0
  140.9750   70.9880  226.8540 C   0  0  0  0  0  0  0  0  0  0  0  0
  140.4080   70.6410  225.6240 C   0  0  0  0  0  0  0  0  0  0  0  0
  140.7120   71.5580  224.4950 C   0  0  0  0  0  0  0  0  0  0  0  0
  137.7460   72.4220  222.7230 N   0  0  0  0  0  0  0  0  0  0  0  0
  136.0600   72.0170  223.6910 H   0  0  0  0  0  0  0  0  0  0  0  0
  135.7751   70.5791  221.9281 H   0  0  0  0  0  0  0  0  0  0  0  0
  134.0170   70.7076  222.1077 H   0  0  0  0  0  0  0  0  0  0  0  0
  135.4813   72.2596  220.3777 H   0  0  0  0  0  0  0  0  0  0  0  0
  133.9499   72.8171  221.1120 H   0  0  0  0  0  0  0  0  0  0  0  0
  135.0405   75.5193  221.8913 H   0  0  0  0  0  0  0  0  0  0  0  0
  133.9133   74.3888  222.7136 H   0  0  0  0  0  0  0  0  0  0  0  0
  136.5418   75.5365  223.7572 H   0  0  0  0  0  0  0  0  0  0  0  0
  134.8871   75.7115  224.4493 H   0  0  0  0  0  0  0  0  0  0  0  0
  136.4830   73.3400  224.2310 H   0  0  0  0  0  0  0  0  0  0  0  0
  140.5515   76.1395  219.3106 H   0  0  0  0  0  0  0  0  0  0  0  0
  138.8142   75.7453  219.5317 H   0  0  0  0  0  0  0  0  0  0  0  0
  139.7618   78.2666  219.4413 H   0  0  0  0  0  0  0  0  0  0  0  0
  138.3175   77.7566  220.4294 H   0  0  0  0  0  0  0  0  0  0  0  0
  139.1420   80.0757  221.2743 H   0  0  0  0  0  0  0  0  0  0  0  0
  140.1347   81.0469  223.2898 H   0  0  0  0  0  0  0  0  0  0  0  0
  141.6664   79.6839  224.7602 H   0  0  0  0  0  0  0  0  0  0  0  0
  142.1104   77.3322  224.0751 H   0  0  0  0  0  0  0  0  0  0  0  0
  142.0960   75.9221  221.3340 H   0  0  0  0  0  0  0  0  0  0  0  0
  141.4138   75.3628  222.8521 H   0  0  0  0  0  0  0  0  0  0  0  0
  138.8293   69.9116  222.2037 H   0  0  0  0  0  0  0  0  0  0  0  0
  140.5139   69.5082  222.7336 H   0  0  0  0  0  0  0  0  0  0  0  0
  137.9109   69.2650  224.2522 H   0  0  0  0  0  0  0  0  0  0  0  0
  139.2336   68.0569  224.0074 H   0  0  0  0  0  0  0  0  0  0  0  0
  138.7676   67.8319  226.5027 H   0  0  0  0  0  0  0  0  0  0  0  0
  139.7604   68.4436  228.6642 H   0  0  0  0  0  0  0  0  0  0  0  0
  141.1833   70.4499  228.9358 H   0  0  0  0  0  0  0  0  0  0  0  0
  141.6007   71.8887  226.9387 H   0  0  0  0  0  0  0  0  0  0  0  0
  140.6257   72.6012  224.8332 H   0  0  0  0  0  0  0  0  0  0  0  0
  141.7362   71.3795  224.1357 H   0  0  0  0  0  0  0  0  0  0  0  0
  1  2  1  0
  2  3  1  0
  3  4  1  0
  4  5  1  0
  5  6  1  0
  6  7  1  0
  4  8  1  0
  8  9  2  0
  9 10  1  0
 10 11  1  0
 11 12  1  0
 12 13  1  0
 13 14  1  0
 14 15  2  0
 15 16  1  0
 16 17  2  0
 17 18  1  0
 18 19  2  0
 19 20  1  0
 10 21  2  0
 21 22  1  0
 22 23  1  0
 23 24  1  0
 24 25  1  0
 25 26  1  0
 26 27  2  0
 27 28  1  0
 28 29  2  0
 29 30  1  0
 30 31  2  0
 31 32  1  0
 22 33  2  0
 33  8  1  0
 20 11  1  0
 32 23  1  0
 19 14  1  0
 31 26  1  0
  1 34  1  0
  2 35  1  0
  2 36  1  0
  3 37  1  0
  3 38  1  0
  5 39  1  0
  5 40  1  0
  6 41  1  0
  6 42  1  0
  7 43  1  0
 12 44  1  0
 12 45  1  0
 13 46  1  0
 13 47  1  0
 15 48  1  0
 16 49  1  0
 17 50  1  0
 18 51  1  0
 20 52  1  0
 20 53  1  0
 24 54  1  0
 24 55  1  0
 25 56  1  0
 25 57  1  0
 27 58  1  0
 28 59  1  0
 29 60  1  0
 30 61  1  0
 32 62  1  0
 32 63  1  0
M  END
>  <smiles>  (15) 
OCCN(CCO)c1nc(N2CCc3ccccc3C2)nc(N2CCc3ccccc3C2)n1

>  <score_type>  (15) 
oracle

>  <origin>  (15) 
autodockgpu

>  <m_score__min__energy>  (15) 
-6.79

>  <m_primary>  (15) 
energy

>  <meeko>  (15) 
{"free_energy": -6.71, "intermolecular_energy": -9.4, "internal_energy": -3.93, "cluster_size": 4, "cluster_id": 1, "rank_in_cluster": 2}

>  <energy>  (15) 
-6.57

>  <cluster_rmsd>  (15) 
0.34

>  <rmsd>  (15) 
270.08

>  <cluster>  (15) 
4

$$$$

     RDKit          3D

 63 67  0  0  0  0  0  0  0  0999 V2000
  134.5640   68.0830  224.1480 O   0  0  0  0  0  0  0  0  0  0  0  0
  134.0660   68.7530  223.0100 C   0  0  0  0  0  0  0  0  0  0  0  0
  133.1320   69.8230  223.5300 C   0  0  0  0  0  0  0  0  0  0  0  0
  133.8850   70.7040  224.3850 N   0  0  0  0  0  0  0  0  0  0  0  0
  133.2840   71.2170  225.6060 C   0  0  0  0  0  0  0  0  0  0  0  0
  133.9550   70.5710  226.8080 C   0  0  0  0  0  0  0  0  0  0  0  0
  134.3200   69.2600  226.5110 O   0  0  0  0  0  0  0  0  0  0  0  0
  135.2120   71.0710  224.0280 C   0  0  0  0  0  0  0  0  0  0  0  0
  135.3880   72.1690  223.2580 N   0  0  0  0  0  0  0  0  0  0  0  0
  136.6250   72.5780  222.8820 C   0  0  0  0  0  0  0  0  0  0  0  0
  136.8260   73.7360  222.0690 N   0  0  0  0  0  0  0  0  0  0  0  0
  136.0030   74.9200  222.1890 C   0  0  0  0  0  0  0  0  0  0  0  0
  136.8600   76.0810  222.6190 C   0  0  0  0  0  0  0  0  0  0  0  0
  138.2630   75.9240  222.2450 C   0  0  0  0  0  0  0  0  0  0  0  0
  139.1510   76.9200  222.6420 C   0  0  0  0  0  0  0  0  0  0  0  0
  140.4950   76.8690  222.3410 C   0  0  0  0  0  0  0  0  0  0  0  0
  141.0370   75.8020  221.6140 C   0  0  0  0  0  0  0  0  0  0  0  0
  140.1470   74.8230  221.2280 C   0  0  0  0  0  0  0  0  0  0  0  0
  138.7940   74.8750  221.5320 C   0  0  0  0  0  0  0  0  0  0  0  0
  137.9010   73.7620  221.0680 C   0  0  0  0  0  0  0  0  0  0  0  0
  137.6900   71.9010  223.2670 N   0  0  0  0  0  0  0  0  0  0  0  0
  137.5430   70.8040  224.0340 C   0  0  0  0  0  0  0  0  0  0  0  0
  138.6870   70.0640  224.4520 N   0  0  0  0  0  0  0  0  0  0  0  0
  138.8020   68.6300  224.3180 C   0  0  0  0  0  0  0  0  0  0  0  0
  138.9710   67.9570  225.6710 C   0  0  0  0  0  0  0  0  0  0  0  0
  139.8240   68.7710  226.5670 C   0  0  0  0  0  0  0  0  0  0  0  0
  140.2530   68.2050  227.7490 C   0  0  0  0  0  0  0  0  0  0  0  0
  141.0490   68.9370  228.6040 C   0  0  0  0  0  0  0  0  0  0  0  0
  141.4510   70.2300  228.3370 C   0  0  0  0  0  0  0  0  0  0  0  0
  141.0260   70.7970  227.1600 C   0  0  0  0  0  0  0  0  0  0  0  0
  140.2170   70.0620  226.2870 C   0  0  0  0  0  0  0  0  0  0  0  0
  139.8110   70.7660  225.0430 C   0  0  0  0  0  0  0  0  0  0  0  0
  136.3020   70.3870  224.4160 N   0  0  0  0  0  0  0  0  0  0  0  0
  135.2100   68.6220  224.6360 H   0  0  0  0  0  0  0  0  0  0  0  0
  134.8914   69.2088  222.4435 H   0  0  0  0  0  0  0  0  0  0  0  0
  133.5466   68.0609  222.3308 H   0  0  0  0  0  0  0  0  0  0  0  0
  132.7121   70.3917  222.6873 H   0  0  0  0  0  0  0  0  0  0  0  0
  132.3056   69.3640  224.0924 H   0  0  0  0  0  0  0  0  0  0  0  0
  133.4196   72.3076  225.6519 H   0  0  0  0  0  0  0  0  0  0  0  0
  132.2094   70.9819  225.6141 H   0  0  0  0  0  0  0  0  0  0  0  0
  134.8538   71.1464  227.0746 H   0  0  0  0  0  0  0  0  0  0  0  0
  133.2486   70.5636  227.6511 H   0  0  0  0  0  0  0  0  0  0  0  0
  135.0870   69.3070  225.8520 H   0  0  0  0  0  0  0  0  0  0  0  0
  135.5398   75.1455  221.2171 H   0  0  0  0  0  0  0  0  0  0  0  0
  135.2154   74.7467  222.9371 H   0  0  0  0  0  0  0  0  0  0  0  0
  136.4720   76.9963  222.1482 H   0  0  0  0  0  0  0  0  0  0  0  0
  136.8160   76.1336  223.7169 H   0  0  0  0  0  0  0  0  0  0  0  0
  138.7670   77.7766  223.2153 H   0  0  0  0  0  0  0  0  0  0  0  0
  141.1546   77.6821  222.6784 H   0  0  0  0  0  0  0  0  0  0  0  0
  142.1074   75.7485  221.3662 H   0  0  0  0  0  0  0  0  0  0  0  0
  140.5253   73.9639  220.6546 H   0  0  0  0  0  0  0  0  0  0  0  0
  137.4989   73.9737  220.0663 H   0  0  0  0  0  0  0  0  0  0  0  0
  138.4280   72.8001  220.9841 H   0  0  0  0  0  0  0  0  0  0  0  0
  137.8924   68.2417  223.8365 H   0  0  0  0  0  0  0  0  0  0  0  0
  139.6912   68.4099  223.7089 H   0  0  0  0  0  0  0  0  0  0  0  0
  137.9818   67.8289  226.1349 H   0  0  0  0  0  0  0  0  0  0  0  0
  139.4550   66.9811  225.5184 H   0  0  0  0  0  0  0  0  0  0  0  0
  139.9620   67.1763  228.0079 H   0  0  0  0  0  0  0  0  0  0  0  0
  141.3792   68.4686  229.5429 H   0  0  0  0  0  0  0  0  0  0  0  0
  142.0881   70.7860  229.0405 H   0  0  0  0  0  0  0  0  0  0  0  0
  141.3209   71.8256  226.9049 H   0  0  0  0  0  0  0  0  0  0  0  0
  139.5172   71.7987  225.2821 H   0  0  0  0  0  0  0  0  0  0  0  0
  140.6522   70.7865  224.3345 H   0  0  0  0  0  0  0  0  0  0  0  0
  1  2  1  0
  2  3  1  0
  3  4  1  0
  4  5  1  0
  5  6  1  0
  6  7  1  0
  4  8  1  0
  8  9  2  0
  9 10  1  0
 10 11  1  0
 11 12  1  0
 12 13  1  0
 13 14  1  0
 14 15  2  0
 15 16  1  0
 16 17  2  0
 17 18  1  0
 18 19  2  0
 19 20  1  0
 10 21  2  0
 21 22  1  0
 22 23  1  0
 23 24  1  0
 24 25  1  0
 25 26  1  0
 26 27  2  0
 27 28  1  0
 28 29  2  0
 29 30  1  0
 30 31  2  0
 31 32  1  0
 22 33  2  0
 33  8  1  0
 20 11  1  0
 32 23  1  0
 19 14  1  0
 31 26  1  0
  1 34  1  0
  2 35  1  0
  2 36  1  0
  3 37  1  0
  3 38  1  0
  5 39  1  0
  5 40  1  0
  6 41  1  0
  6 42  1  0
  7 43  1  0
 12 44  1  0
 12 45  1  0
 13 46  1  0
 13 47  1  0
 15 48  1  0
 16 49  1  0
 17 50  1  0
 18 51  1  0
 20 52  1  0
 20 53  1  0
 24 54  1  0
 24 55  1  0
 25 56  1  0
 25 57  1  0
 27 58  1  0
 28 59  1  0
 29 60  1  0
 30 61  1  0
 32 62  1  0
 32 63  1  0
M  END
>  <smiles>  (16) 
OCCN(CCO)c1nc(N2CCc3ccccc3C2)nc(N2CCc3ccccc3C2)n1

>  <score_type>  (16) 
oracle

>  <origin>  (16) 
autodockgpu

>  <m_score__min__energy>  (16) 
-6.79

>  <m_primary>  (16) 
energy

>  <meeko>  (16) 
{"free_energy": -6.58, "intermolecular_energy": -9.26, "internal_energy": -4.09, "cluster_size": 6, "cluster_id": 4, "rank_in_cluster": 3}

>  <energy>  (16) 
-6.45

>  <cluster_rmsd>  (16) 
0.39

>  <rmsd>  (16) 
269.97

>  <cluster>  (16) 
4

$$$$

     RDKit          3D

 63 67  0  0  0  0  0  0  0  0999 V2000
  131.7200   68.6960  223.2670 O   0  0  0  0  0  0  0  0  0  0  0  0
  132.3170   68.2870  222.0540 C   0  0  0  0  0  0  0  0  0  0  0  0
  133.4690   67.3840  222.4380 C   0  0  0  0  0  0  0  0  0  0  0  0
  133.9390   67.7820  223.7400 N   0  0  0  0  0  0  0  0  0  0  0  0
  133.5890   66.9920  224.9090 C   0  0  0  0  0  0  0  0  0  0  0  0
  133.6920   67.8580  226.1540 C   0  0  0  0  0  0  0  0  0  0  0  0
  132.8090   68.9330  226.0690 O   0  0  0  0  0  0  0  0  0  0  0  0
  134.7410   68.9490  223.8760 C   0  0  0  0  0  0  0  0  0  0  0  0
  136.0790   68.7950  224.0010 N   0  0  0  0  0  0  0  0  0  0  0  0
  136.9050   69.8640  224.1320 C   0  0  0  0  0  0  0  0  0  0  0  0
  138.3190   69.7180  224.2640 N   0  0  0  0  0  0  0  0  0  0  0  0
  139.2520   70.3560  223.3610 C   0  0  0  0  0  0  0  0  0  0  0  0
  140.1060   71.3290  224.1320 C   0  0  0  0  0  0  0  0  0  0  0  0
  140.2240   70.9860  225.5470 C   0  0  0  0  0  0  0  0  0  0  0  0
  140.9510   71.8510  226.3610 C   0  0  0  0  0  0  0  0  0  0  0  0
  141.1240   71.6220  227.7090 C   0  0  0  0  0  0  0  0  0  0  0  0
  140.5710   70.4950  228.3310 C   0  0  0  0  0  0  0  0  0  0  0  0
  139.8540   69.6470  227.5140 C   0  0  0  0  0  0  0  0  0  0  0  0
  139.6800   69.8800  226.1570 C   0  0  0  0  0  0  0  0  0  0  0  0
  138.8830   68.9000  225.3470 C   0  0  0  0  0  0  0  0  0  0  0  0
  136.4060   71.0860  224.1390 N   0  0  0  0  0  0  0  0  0  0  0  0
  135.0770   71.2660  224.0160 C   0  0  0  0  0  0  0  0  0  0  0  0
  134.5290   72.5820  224.0270 N   0  0  0  0  0  0  0  0  0  0  0  0
  135.2040   73.7320  223.4700 C   0  0  0  0  0  0  0  0  0  0  0  0
  135.4690   74.7890  224.5300 C   0  0  0  0  0  0  0  0  0  0  0  0
  134.3400   74.8800  225.4840 C   0  0  0  0  0  0  0  0  0  0  0  0
  134.3230   75.9320  226.3750 C   0  0  0  0  0  0  0  0  0  0  0  0
  133.2850   76.0440  227.2750 C   0  0  0  0  0  0  0  0  0  0  0  0
  132.2390   75.1470  227.3340 C   0  0  0  0  0  0  0  0  0  0  0  0
  132.2520   74.0960  226.4480 C   0  0  0  0  0  0  0  0  0  0  0  0
  133.3020   73.9740  225.5320 C   0  0  0  0  0  0  0  0  0  0  0  0
  133.2240   72.8040  224.6190 C   0  0  0  0  0  0  0  0  0  0  0  0
  134.2420   70.1960  223.8840 N   0  0  0  0  0  0  0  0  0  0  0  0
  132.3660   69.0930  223.8750 H   0  0  0  0  0  0  0  0  0  0  0  0
  131.5906   67.7379  221.4369 H   0  0  0  0  0  0  0  0  0  0  0  0
  132.6611   69.1494  221.4642 H   0  0  0  0  0  0  0  0  0  0  0  0
  133.1282   66.3386  222.4688 H   0  0  0  0  0  0  0  0  0  0  0  0
  134.2799   67.4682  221.6995 H   0  0  0  0  0  0  0  0  0  0  0  0
  132.5591   66.6197  224.8053 H   0  0  0  0  0  0  0  0  0  0  0  0
  134.2793   66.1400  224.9964 H   0  0  0  0  0  0  0  0  0  0  0  0
  133.4435   67.2531  227.0385 H   0  0  0  0  0  0  0  0  0  0  0  0
  134.7187   68.2437  226.2381 H   0  0  0  0  0  0  0  0  0  0  0  0
  132.7770   69.2160  225.0980 H   0  0  0  0  0  0  0  0  0  0  0  0
  139.8933   69.5928  222.8959 H   0  0  0  0  0  0  0  0  0  0  0  0
  138.6974   70.8933  222.5776 H   0  0  0  0  0  0  0  0  0  0  0  0
  141.1126   71.3401  223.6886 H   0  0  0  0  0  0  0  0  0  0  0  0
  139.6204   72.3141  224.0710 H   0  0  0  0  0  0  0  0  0  0  0  0
  141.4028   72.7481  225.9125 H   0  0  0  0  0  0  0  0  0  0  0  0
  141.7070   72.3373  228.3076 H   0  0  0  0  0  0  0  0  0  0  0  0
  140.7009   70.2987  229.4055 H   0  0  0  0  0  0  0  0  0  0  0  0
  139.4007   68.7477  227.9564 H   0  0  0  0  0  0  0  0  0  0  0  0
  139.5300   68.1073  224.9433 H   0  0  0  0  0  0  0  0  0  0  0  0
  138.1110   68.3868  225.9391 H   0  0  0  0  0  0  0  0  0  0  0  0
  136.1633   73.4095  223.0389 H   0  0  0  0  0  0  0  0  0  0  0  0
  134.5563   74.1722  222.6976 H   0  0  0  0  0  0  0  0  0  0  0  0
  136.3842   74.5249  225.0802 H   0  0  0  0  0  0  0  0  0  0  0  0
  135.5857   75.7628  224.0318 H   0  0  0  0  0  0  0  0  0  0  0  0
  135.1323   76.6769  226.3677 H   0  0  0  0  0  0  0  0  0  0  0  0
  133.2912   76.8888  227.9795 H   0  0  0  0  0  0  0  0  0  0  0  0
  131.4244   75.2681  228.0632 H   0  0  0  0  0  0  0  0  0  0  0  0
  131.4400   73.3540  226.4594 H   0  0  0  0  0  0  0  0  0  0  0  0
  132.9196   71.9123  225.1867 H   0  0  0  0  0  0  0  0  0  0  0  0
  132.4841   72.9972  223.8282 H   0  0  0  0  0  0  0  0  0  0  0  0
  1  2  1  0
  2  3  1  0
  3  4  1  0
  4  5  1  0
  5  6  1  0
  6  7  1  0
  4  8  1  0
  8  9  2  0
  9 10  1  0
 10 11  1  0
 11 12  1  0
 12 13  1  0
 13 14  1  0
 14 15  2  0
 15 16  1  0
 16 17  2  0
 17 18  1  0
 18 19  2  0
 19 20  1  0
 10 21  2  0
 21 22  1  0
 22 23  1  0
 23 24  1  0
 24 25  1  0
 25 26  1  0
 26 27  2  0
 27 28  1  0
 28 29  2  0
 29 30  1  0
 30 31  2  0
 31 32  1  0
 22 33  2  0
 33  8  1  0
 20 11  1  0
 32 23  1  0
 19 14  1  0
 31 26  1  0
  1 34  1  0
  2 35  1  0
  2 36  1  0
  3 37  1  0
  3 38  1  0
  5 39  1  0
  5 40  1  0
  6 41  1  0
  6 42  1  0
  7 43  1  0
 12 44  1  0
 12 45  1  0
 13 46  1  0
 13 47  1  0
 15 48  1  0
 16 49  1  0
 17 50  1  0
 18 51  1  0
 20 52  1  0
 20 53  1  0
 24 54  1  0
 24 55  1  0
 25 56  1  0
 25 57  1  0
 27 58  1  0
 28 59  1  0
 29 60  1  0
 30 61  1  0
 32 62  1  0
 32 63  1  0
M  END
>  <smiles>  (17) 
OCCN(CCO)c1nc(N2CCc3ccccc3C2)nc(N2CCc3ccccc3C2)n1

>  <score_type>  (17) 
oracle

>  <origin>  (17) 
autodockgpu

>  <m_score__min__energy>  (17) 
-6.79

>  <m_primary>  (17) 
energy

>  <meeko>  (17) 
{"free_energy": -6.65, "intermolecular_energy": -9.33, "internal_energy": -3.97, "cluster_size": 3, "cluster_id": 3, "rank_in_cluster": 2}

>  <energy>  (17) 
-6.23

>  <cluster_rmsd>  (17) 
0.44

>  <rmsd>  (17) 
270.0

>  <cluster>  (17) 
4

$$$$

     RDKit          3D

 63 67  0  0  0  0  0  0  0  0999 V2000
  139.4550   76.2250  222.9090 O   0  0  0  0  0  0  0  0  0  0  0  0
  140.7440   76.6040  222.4720 C   0  0  0  0  0  0  0  0  0  0  0  0
  140.8970   76.0380  221.0780 C   0  0  0  0  0  0  0  0  0  0  0  0
  139.8390   75.0840  220.8590 N   0  0  0  0  0  0  0  0  0  0  0  0
  138.5640   75.5290  220.3210 C   0  0  0  0  0  0  0  0  0  0  0  0
  137.4410   74.7160  220.9470 C   0  0  0  0  0  0  0  0  0  0  0  0
  137.3700   74.9650  222.3160 O   0  0  0  0  0  0  0  0  0  0  0  0
  140.0480   73.7130  221.1740 C   0  0  0  0  0  0  0  0  0  0  0  0
  139.6160   73.2580  222.3720 N   0  0  0  0  0  0  0  0  0  0  0  0
  139.7800   71.9620  222.7380 C   0  0  0  0  0  0  0  0  0  0  0  0
  139.3290   71.4670  223.9990 N   0  0  0  0  0  0  0  0  0  0  0  0
  137.9770   70.9950  224.2080 C   0  0  0  0  0  0  0  0  0  0  0  0
  138.0110   69.5330  224.5720 C   0  0  0  0  0  0  0  0  0  0  0  0
  139.2730   69.1280  225.1850 C   0  0  0  0  0  0  0  0  0  0  0  0
  139.4280   67.7840  225.5130 C   0  0  0  0  0  0  0  0  0  0  0  0
  140.5780   67.2960  226.0950 C   0  0  0  0  0  0  0  0  0  0  0  0
  141.6570   68.1380  226.3880 C   0  0  0  0  0  0  0  0  0  0  0  0
  141.4920   69.4670  226.0580 C   0  0  0  0  0  0  0  0  0  0  0  0
  140.3330   69.9560  225.4710 C   0  0  0  0  0  0  0  0  0  0  0  0
  140.2440   71.4180  225.1480 C   0  0  0  0  0  0  0  0  0  0  0  0
  140.3720   71.1140  221.9170 N   0  0  0  0  0  0  0  0  0  0  0  0
  140.8110   71.5420  220.7180 C   0  0  0  0  0  0  0  0  0  0  0  0
  141.4550   70.6350  219.8270 N   0  0  0  0  0  0  0  0  0  0  0  0
  140.9410   69.3210  219.5170 C   0  0  0  0  0  0  0  0  0  0  0  0
  141.9190   68.2300  219.9230 C   0  0  0  0  0  0  0  0  0  0  0  0
  143.3160   68.6480  219.6680 C   0  0  0  0  0  0  0  0  0  0  0  0
  144.3100   67.6990  219.7780 C   0  0  0  0  0  0  0  0  0  0  0  0
  145.6210   68.0560  219.5460 C   0  0  0  0  0  0  0  0  0  0  0  0
  146.0030   69.3360  219.2010 C   0  0  0  0  0  0  0  0  0  0  0  0
  145.0150   70.2860  219.0900 C   0  0  0  0  0  0  0  0  0  0  0  0
  143.6830   69.9320  219.3250 C   0  0  0  0  0  0  0  0  0  0  0  0
  142.6930   71.0310  219.1810 C   0  0  0  0  0  0  0  0  0  0  0  0
  140.6500   72.8440  220.3450 N   0  0  0  0  0  0  0  0  0  0  0  0
  139.3970   75.2720  223.0910 H   0  0  0  0  0  0  0  0  0  0  0  0
  140.8331   77.7002  222.4509 H   0  0  0  0  0  0  0  0  0  0  0  0
  141.5251   76.2253  223.1477 H   0  0  0  0  0  0  0  0  0  0  0  0
  140.8264   76.8484  220.3376 H   0  0  0  0  0  0  0  0  0  0  0  0
  141.8766   75.5488  220.9727 H   0  0  0  0  0  0  0  0  0  0  0  0
  138.4193   76.5945  220.5531 H   0  0  0  0  0  0  0  0  0  0  0  0
  138.5559   75.3883  219.2301 H   0  0  0  0  0  0  0  0  0  0  0  0
  136.4860   74.9943  220.4774 H   0  0  0  0  0  0  0  0  0  0  0  0
  137.6413   73.6462  220.7874 H   0  0  0  0  0  0  0  0  0  0  0  0
  138.1700   74.5140  222.7430 H   0  0  0  0  0  0  0  0  0  0  0  0
  137.5104   71.5662  225.0241 H   0  0  0  0  0  0  0  0  0  0  0  0
  137.3921   71.1320  223.2865 H   0  0  0  0  0  0  0  0  0  0  0  0
  137.1952   69.3290  225.2812 H   0  0  0  0  0  0  0  0  0  0  0  0
  137.8978   68.9588  223.6406 H   0  0  0  0  0  0  0  0  0  0  0  0
  138.6038   67.0872  225.3002 H   0  0  0  0  0  0  0  0  0  0  0  0
  140.6492   66.2246  226.3338 H   0  0  0  0  0  0  0  0  0  0  0  0
  142.5804   67.7626  226.8532 H   0  0  0  0  0  0  0  0  0  0  0  0
  142.3128   70.1684  226.2687 H   0  0  0  0  0  0  0  0  0  0  0  0
  139.8357   71.9833  225.9987 H   0  0  0  0  0  0  0  0  0  0  0  0
  141.2246   71.8666  224.9309 H   0  0  0  0  0  0  0  0  0  0  0  0
  139.9942   69.1711  220.0565 H   0  0  0  0  0  0  0  0  0  0  0  0
  140.7863   69.2586  218.4297 H   0  0  0  0  0  0  0  0  0  0  0  0
  141.7969   68.0184  220.9955 H   0  0  0  0  0  0  0  0  0  0  0  0
  141.7079   67.3304  219.3262 H   0  0  0  0  0  0  0  0  0  0  0  0
  144.0584   66.6631  220.0493 H   0  0  0  0  0  0  0  0  0  0  0  0
  146.3991   67.2842  219.6404 H   0  0  0  0  0  0  0  0  0  0  0  0
  147.0587   69.5873  219.0214 H   0  0  0  0  0  0  0  0  0  0  0  0
  145.2716   71.3203  218.8174 H   0  0  0  0  0  0  0  0  0  0  0  0
  143.0822   71.9435  219.6563 H   0  0  0  0  0  0  0  0  0  0  0  0
  142.5101   71.2311  218.1149 H   0  0  0  0  0  0  0  0  0  0  0  0
  1  2  1  0
  2  3  1  0
  3  4  1  0
  4  5  1  0
  5  6  1  0
  6  7  1  0
  4  8  1  0
  8  9  2  0
  9 10  1  0
 10 11  1  0
 11 12  1  0
 12 13  1  0
 13 14  1  0
 14 15  2  0
 15 16  1  0
 16 17  2  0
 17 18  1  0
 18 19  2  0
 19 20  1  0
 10 21  2  0
 21 22  1  0
 22 23  1  0
 23 24  1  0
 24 25  1  0
 25 26  1  0
 26 27  2  0
 27 28  1  0
 28 29  2  0
 29 30  1  0
 30 31  2  0
 31 32  1  0
 22 33  2  0
 33  8  1  0
 20 11  1  0
 32 23  1  0
 19 14  1  0
 31 26  1  0
  1 34  1  0
  2 35  1  0
  2 36  1  0
  3 37  1  0
  3 38  1  0
  5 39  1  0
  5 40  1  0
  6 41  1  0
  6 42  1  0
  7 43  1  0
 12 44  1  0
 12 45  1  0
 13 46  1  0
 13 47  1  0
 15 48  1  0
 16 49  1  0
 17 50  1  0
 18 51  1  0
 20 52  1  0
 20 53  1  0
 24 54  1  0
 24 55  1  0
 25 56  1  0
 25 57  1  0
 27 58  1  0
 28 59  1  0
 29 60  1  0
 30 61  1  0
 32 62  1  0
 32 63  1  0
M  END
>  <smiles>  (18) 
OCCN(CCO)c1nc(N2CCc3ccccc3C2)nc(N2CCc3ccccc3C2)n1

>  <score_type>  (18) 
oracle

>  <origin>  (18) 
autodockgpu

>  <m_score__min__energy>  (18) 
-6.79

>  <m_primary>  (18) 
energy

>  <meeko>  (18) 
{"free_energy": -6.36, "intermolecular_energy": -9.05, "internal_energy": -3.96, "cluster_size": 2, "cluster_id": 5, "rank_in_cluster": 2}

>  <energy>  (18) 
-6.52

>  <cluster_rmsd>  (18) 
0.0

>  <rmsd>  (18) 
269.74

>  <cluster>  (18) 
5

$$$$

     RDKit          3D

 63 67  0  0  0  0  0  0  0  0999 V2000
  135.1220   72.0440  223.8000 O   0  0  0  0  0  0  0  0  0  0  0  0
  134.9260   71.4810  222.5200 C   0  0  0  0  0  0  0  0  0  0  0  0
  134.8130   72.6470  221.5630 C   0  0  0  0  0  0  0  0  0  0  0  0
  135.5680   73.7490  222.1010 N   0  0  0  0  0  0  0  0  0  0  0  0
  134.8780   74.9400  222.5690 C   0  0  0  0  0  0  0  0  0  0  0  0
  135.4990   75.4020  223.8780 C   0  0  0  0  0  0  0  0  0  0  0  0
  135.7770   74.3060  224.6940 O   0  0  0  0  0  0  0  0  0  0  0  0
  136.9860   73.6670  222.1680 C   0  0  0  0  0  0  0  0  0  0  0  0
  137.7110   74.7000  221.6810 N   0  0  0  0  0  0  0  0  0  0  0  0
  139.0670   74.6910  221.7130 C   0  0  0  0  0  0  0  0  0  0  0  0
  139.8460   75.7740  221.2040 N   0  0  0  0  0  0  0  0  0  0  0  0
  139.4630   76.5150  220.0210 C   0  0  0  0  0  0  0  0  0  0  0  0
  139.2080   77.9520  220.3950 C   0  0  0  0  0  0  0  0  0  0  0  0
  139.9340   78.3670  221.5920 C   0  0  0  0  0  0  0  0  0  0  0  0
  139.7280   79.6640  222.0540 C   0  0  0  0  0  0  0  0  0  0  0  0
  140.3630   80.1570  223.1730 C   0  0  0  0  0  0  0  0  0  0  0  0
  141.2550   79.3670  223.9080 C   0  0  0  0  0  0  0  0  0  0  0  0
  141.4500   78.0850  223.4410 C   0  0  0  0  0  0  0  0  0  0  0  0
  140.8100   77.5900  222.3140 C   0  0  0  0  0  0  0  0  0  0  0  0
  141.0850   76.1800  221.8800 C   0  0  0  0  0  0  0  0  0  0  0  0
  139.7080   73.6580  222.2290 N   0  0  0  0  0  0  0  0  0  0  0  0
  139.0100   72.6170  222.7210 C   0  0  0  0  0  0  0  0  0  0  0  0
  139.6930   71.4960  223.2760 N   0  0  0  0  0  0  0  0  0  0  0  0
  139.4610   70.1330  222.8570 C   0  0  0  0  0  0  0  0  0  0  0  0
  138.9580   69.2750  224.0070 C   0  0  0  0  0  0  0  0  0  0  0  0
  139.6270   69.6430  225.2760 C   0  0  0  0  0  0  0  0  0  0  0  0
  139.4460   68.8230  226.3690 C   0  0  0  0  0  0  0  0  0  0  0  0
  140.0560   69.1380  227.5650 C   0  0  0  0  0  0  0  0  0  0  0  0
  140.8550   70.2500  227.7330 C   0  0  0  0  0  0  0  0  0  0  0  0
  141.0370   71.0710  226.6450 C   0  0  0  0  0  0  0  0  0  0  0  0
  140.4220   70.7590  225.4290 C   0  0  0  0  0  0  0  0  0  0  0  0
  140.6810   71.7100  224.3160 C   0  0  0  0  0  0  0  0  0  0  0  0
  137.6470   72.6200  222.6910 N   0  0  0  0  0  0  0  0  0  0  0  0
  136.0450   72.3140  223.9420 H   0  0  0  0  0  0  0  0  0  0  0  0
  135.7809   70.8447  222.2476 H   0  0  0  0  0  0  0  0  0  0  0  0
  134.0262   70.8488  222.4920 H   0  0  0  0  0  0  0  0  0  0  0  0
  135.2186   72.3626  220.5809 H   0  0  0  0  0  0  0  0  0  0  0  0
  133.7585   72.9348  221.4394 H   0  0  0  0  0  0  0  0  0  0  0  0
  134.9712   75.7374  221.8170 H   0  0  0  0  0  0  0  0  0  0  0  0
  133.8142   74.7097  222.7281 H   0  0  0  0  0  0  0  0  0  0  0  0
  136.4330   75.9429  223.6658 H   0  0  0  0  0  0  0  0  0  0  0  0
  134.7902   76.0642  224.3967 H   0  0  0  0  0  0  0  0  0  0  0  0
  136.4540   73.7350  224.2040 H   0  0  0  0  0  0  0  0  0  0  0  0
  140.2733   76.4667  219.2787 H   0  0  0  0  0  0  0  0  0  0  0  0
  138.5493   76.0780  219.5919 H   0  0  0  0  0  0  0  0  0  0  0  0
  139.5186   78.5929  219.5567 H   0  0  0  0  0  0  0  0  0  0  0  0
  138.1339   78.0504  220.6107 H   0  0  0  0  0  0  0  0  0  0  0  0
  139.0338   80.3183  221.5064 H   0  0  0  0  0  0  0  0  0  0  0  0
  140.1655   81.1902  223.4947 H   0  0  0  0  0  0  0  0  0  0  0  0
  141.7689   79.7463  224.8036 H   0  0  0  0  0  0  0  0  0  0  0  0
  142.1427   77.4261  223.9851 H   0  0  0  0  0  0  0  0  0  0  0  0
  141.9394   76.1424  221.1882 H   0  0  0  0  0  0  0  0  0  0  0  0
  141.3476   75.5198  222.7198 H   0  0  0  0  0  0  0  0  0  0  0  0
  138.7103   70.1290  222.0530 H   0  0  0  0  0  0  0  0  0  0  0  0
  140.4145   69.7131  222.5042 H   0  0  0  0  0  0  0  0  0  0  0  0
  137.8732   69.4207  224.1168 H   0  0  0  0  0  0  0  0  0  0  0  0
  139.1848   68.2220  223.7839 H   0  0  0  0  0  0  0  0  0  0  0  0
  138.8189   67.9229  226.2878 H   0  0  0  0  0  0  0  0  0  0  0  0
  139.8981   68.4712  228.4255 H   0  0  0  0  0  0  0  0  0  0  0  0
  141.3286   70.4716  228.7008 H   0  0  0  0  0  0  0  0  0  0  0  0
  141.6645   71.9703  226.7312 H   0  0  0  0  0  0  0  0  0  0  0  0
  140.6079   72.7426  224.6880 H   0  0  0  0  0  0  0  0  0  0  0  0
  141.6903   71.5441  223.9112 H   0  0  0  0  0  0  0  0  0  0  0  0
  1  2  1  0
  2  3  1  0
  3  4  1  0
  4  5  1  0
  5  6  1  0
  6  7  1  0
  4  8  1  0
  8  9  2  0
  9 10  1  0
 10 11  1  0
 11 12  1  0
 12 13  1  0
 13 14  1  0
 14 15  2  0
 15 16  1  0
 16 17  2  0
 17 18  1  0
 18 19  2  0
 19 20  1  0
 10 21  2  0
 21 22  1  0
 22 23  1  0
 23 24  1  0
 24 25  1  0
 25 26  1  0
 26 27  2  0
 27 28  1  0
 28 29  2  0
 29 30  1  0
 30 31  2  0
 31 32  1  0
 22 33  2  0
 33  8  1  0
 20 11  1  0
 32 23  1  0
 19 14  1  0
 31 26  1  0
  1 34  1  0
  2 35  1  0
  2 36  1  0
  3 37  1  0
  3 38  1  0
  5 39  1  0
  5 40  1  0
  6 41  1  0
  6 42  1  0
  7 43  1  0
 12 44  1  0
 12 45  1  0
 13 46  1  0
 13 47  1  0
 15 48  1  0
 16 49  1  0
 17 50  1  0
 18 51  1  0
 20 52  1  0
 20 53  1  0
 24 54  1  0
 24 55  1  0
 25 56  1  0
 25 57  1  0
 27 58  1  0
 28 59  1  0
 29 60  1  0
 30 61  1  0
 32 62  1  0
 32 63  1  0
M  END
>  <smiles>  (19) 
OCCN(CCO)c1nc(N2CCc3ccccc3C2)nc(N2CCc3ccccc3C2)n1

>  <score_type>  (19) 
oracle

>  <origin>  (19) 
autodockgpu

>  <m_score__min__energy>  (19) 
-6.79

>  <m_primary>  (19) 
energy

>  <meeko>  (19) 
{"free_energy": -6.79, "intermolecular_energy": -9.48, "internal_energy": -3.86, "cluster_size": 4, "cluster_id": 1, "rank_in_cluster": 1}

>  <energy>  (19) 
-6.36

>  <cluster_rmsd>  (19) 
0.77

>  <rmsd>  (19) 
269.8

>  <cluster>  (19) 
5

$$$$

     RDKit          3D

 63 67  0  0  0  0  0  0  0  0999 V2000
  141.6270   71.9130  218.2660 O   0  0  0  0  0  0  0  0  0  0  0  0
  142.1170   70.5900  218.2240 C   0  0  0  0  0  0  0  0  0  0  0  0
  142.2750   70.1560  219.6640 C   0  0  0  0  0  0  0  0  0  0  0  0
  142.7280   71.2890  220.4300 N   0  0  0  0  0  0  0  0  0  0  0  0
  144.1430   71.6190  220.4670 C   0  0  0  0  0  0  0  0  0  0  0  0
  144.4680   72.5800  219.3340 C   0  0  0  0  0  0  0  0  0  0  0  0
  143.7130   73.7450  219.4590 O   0  0  0  0  0  0  0  0  0  0  0  0
  141.7880   72.0760  221.1490 C   0  0  0  0  0  0  0  0  0  0  0  0
  141.1230   71.5000  222.1770 N   0  0  0  0  0  0  0  0  0  0  0  0
  140.2140   72.1920  222.9080 C   0  0  0  0  0  0  0  0  0  0  0  0
  139.5050   71.5970  223.9970 N   0  0  0  0  0  0  0  0  0  0  0  0
  138.1690   71.0610  223.8510 C   0  0  0  0  0  0  0  0  0  0  0  0
  138.1930   69.5810  224.1320 C   0  0  0  0  0  0  0  0  0  0  0  0
  139.2950   69.1840  225.0040 C   0  0  0  0  0  0  0  0  0  0  0  0
  139.4390   67.8280  225.2850 C   0  0  0  0  0  0  0  0  0  0  0  0
  140.4440   67.3470  226.0960 C   0  0  0  0  0  0  0  0  0  0  0  0
  141.3780   68.2090  226.6830 C   0  0  0  0  0  0  0  0  0  0  0  0
  141.2250   69.5490  226.3970 C   0  0  0  0  0  0  0  0  0  0  0  0
  140.2130   70.0310  225.5800 C   0  0  0  0  0  0  0  0  0  0  0  0
  140.1250   71.5070  225.3260 C   0  0  0  0  0  0  0  0  0  0  0  0
  139.9600   73.4550  222.6230 N   0  0  0  0  0  0  0  0  0  0  0  0
  140.6080   74.0520  221.6040 C   0  0  0  0  0  0  0  0  0  0  0  0
  140.3380   75.4150  221.2860 N   0  0  0  0  0  0  0  0  0  0  0  0
  140.4750   75.9670  219.9580 C   0  0  0  0  0  0  0  0  0  0  0  0
  141.5060   77.0840  219.9220 C   0  0  0  0  0  0  0  0  0  0  0  0
  141.4390   77.9070  221.1520 C   0  0  0  0  0  0  0  0  0  0  0  0
  142.1530   79.0860  221.1860 C   0  0  0  0  0  0  0  0  0  0  0  0
  142.1110   79.8750  222.3160 C   0  0  0  0  0  0  0  0  0  0  0  0
  141.3770   79.5450  223.4370 C   0  0  0  0  0  0  0  0  0  0  0  0
  140.6640   78.3710  223.4070 C   0  0  0  0  0  0  0  0  0  0  0  0
  140.7020   77.5650  222.2650 C   0  0  0  0  0  0  0  0  0  0  0  0
  139.8980   76.3160  222.3340 C   0  0  0  0  0  0  0  0  0  0  0  0
  141.5230   73.3620  220.8660 N   0  0  0  0  0  0  0  0  0  0  0  0
  142.0390   72.4330  218.9760 H   0  0  0  0  0  0  0  0  0  0  0  0
  141.4029   69.9346  217.7038 H   0  0  0  0  0  0  0  0  0  0  0  0
  143.0710   70.5316  217.6795 H   0  0  0  0  0  0  0  0  0  0  0  0
  141.3086   69.8049  220.0550 H   0  0  0  0  0  0  0  0  0  0  0  0
  143.0031   69.3346  219.7349 H   0  0  0  0  0  0  0  0  0  0  0  0
  144.3843   72.0924  221.4302 H   0  0  0  0  0  0  0  0  0  0  0  0
  144.7373   70.7006  220.3514 H   0  0  0  0  0  0  0  0  0  0  0  0
  145.5375   72.8347  219.3692 H   0  0  0  0  0  0  0  0  0  0  0  0
  144.2279   72.0981  218.3748 H   0  0  0  0  0  0  0  0  0  0  0  0
  142.7820   73.5340  219.1220 H   0  0  0  0  0  0  0  0  0  0  0  0
  137.4935   71.5591  224.5620 H   0  0  0  0  0  0  0  0  0  0  0  0
  137.8119   71.2357  222.8254 H   0  0  0  0  0  0  0  0  0  0  0  0
  137.2453   69.3004  224.6148 H   0  0  0  0  0  0  0  0  0  0  0  0
  138.3320   69.0655  223.1703 H   0  0  0  0  0  0  0  0  0  0  0  0
  138.7258   67.1159  224.8444 H   0  0  0  0  0  0  0  0  0  0  0  0
  140.5136   66.2657  226.2856 H   0  0  0  0  0  0  0  0  0  0  0  0
  142.1849   67.8396  227.3329 H   0  0  0  0  0  0  0  0  0  0  0  0
  141.9352   70.2658  226.8350 H   0  0  0  0  0  0  0  0  0  0  0  0
  139.4986   71.9987  226.0849 H   0  0  0  0  0  0  0  0  0  0  0  0
  141.1041   72.0062  225.3736 H   0  0  0  0  0  0  0  0  0  0  0  0
  140.7891   75.1685  219.2697 H   0  0  0  0  0  0  0  0  0  0  0  0
  139.5032   76.3847  219.6561 H   0  0  0  0  0  0  0  0  0  0  0  0
  142.5106   76.6439  219.8377 H   0  0  0  0  0  0  0  0  0  0  0  0
  141.2944   77.7289  219.0564 H   0  0  0  0  0  0  0  0  0  0  0  0
  142.7524   79.3952  220.3171 H   0  0  0  0  0  0  0  0  0  0  0  0
  142.6893   80.8107  222.3243 H   0  0  0  0  0  0  0  0  0  0  0  0
  141.3633   80.1980  224.3221 H   0  0  0  0  0  0  0  0  0  0  0  0
  140.0655   78.0662  224.2781 H   0  0  0  0  0  0  0  0  0  0  0  0
  140.0405   75.8390  223.3149 H   0  0  0  0  0  0  0  0  0  0  0  0
  138.8319   76.5514  222.1996 H   0  0  0  0  0  0  0  0  0  0  0  0
  1  2  1  0
  2  3  1  0
  3  4  1  0
  4  5  1  0
  5  6  1  0
  6  7  1  0
  4  8  1  0
  8  9  2  0
  9 10  1  0
 10 11  1  0
 11 12  1  0
 12 13  1  0
 13 14  1  0
 14 15  2  0
 15 16  1  0
 16 17  2  0
 17 18  1  0
 18 19  2  0
 19 20  1  0
 10 21  2  0
 21 22  1  0
 22 23  1  0
 23 24  1  0
 24 25  1  0
 25 26  1  0
 26 27  2  0
 27 28  1  0
 28 29  2  0
 29 30  1  0
 30 31  2  0
 31 32  1  0
 22 33  2  0
 33  8  1  0
 20 11  1  0
 32 23  1  0
 19 14  1  0
 31 26  1  0
  1 34  1  0
  2 35  1  0
  2 36  1  0
  3 37  1  0
  3 38  1  0
  5 39  1  0
  5 40  1  0
  6 41  1  0
  6 42  1  0
  7 43  1  0
 12 44  1  0
 12 45  1  0
 13 46  1  0
 13 47  1  0
 15 48  1  0
 16 49  1  0
 17 50  1  0
 18 51  1  0
 20 52  1  0
 20 53  1  0
 24 54  1  0
 24 55  1  0
 25 56  1  0
 25 57  1  0
 27 58  1  0
 28 59  1  0
 29 60  1  0
 30 61  1  0
 32 62  1  0
 32 63  1  0
M  END
>  <smiles>  (20) 
OCCN(CCO)c1nc(N2CCc3ccccc3C2)nc(N2CCc3ccccc3C2)n1

>  <score_type>  (20) 
oracle

>  <origin>  (20) 
autodockgpu

>  <m_score__min__energy>  (20) 
-6.79

>  <m_primary>  (20) 
energy

>  <meeko>  (20) 
{"free_energy": -6.59, "intermolecular_energy": -9.28, "internal_energy": -3.81, "cluster_size": 4, "cluster_id": 2, "rank_in_cluster": 4}

>  <energy>  (20) 
-6.46

>  <cluster_rmsd>  (20) 
0.0

>  <rmsd>  (20) 
270.17

>  <cluster>  (20) 
6

$$$$
