
     RDKit          3D

 56 59  0  0  0  0  0  0  0  0999 V2000
  136.9370   70.8520  221.4720 O   0  0  0  0  0  0  0  0  0  0  0  0
  137.5650   71.4950  222.3520 C   0  0  0  0  0  0  0  0  0  0  0  0
  137.6220   72.9200  222.3390 N   0  0  0  0  0  0  0  0  0  0  0  0
  136.9600   73.6930  221.3120 C   0  0  0  0  0  0  0  0  0  0  0  0
  137.8630   73.9610  220.1630 C   0  0  0  0  0  0  0  0  0  0  0  0
  137.4210   74.0010  218.9650 O   0  0  0  0  0  0  0  0  0  0  0  0
  139.2370   74.1690  220.4570 N   0  0  0  0  0  0  0  0  0  0  0  0
  140.3560   73.2520  220.3670 C   0  0  0  0  0  0  0  0  0  0  0  0
  141.1080   73.6260  221.6490 C   0  0  2  0  0  0  0  0  0  0  0  0
  140.2810   73.3240  222.7100 O   0  0  0  0  0  0  0  0  0  0  0  0
  141.1520   75.1320  221.5060 C   0  0  0  0  0  0  0  0  0  0  0  0
  139.7840   75.4240  220.9320 C   0  0  1  0  0  0  0  0  0  0  0  0
  139.8990   76.4520  219.8220 C   0  0  0  0  0  0  0  0  0  0  0  0
  140.9580   77.2980  219.9960 O   0  0  0  0  0  0  0  0  0  0  0  0
  140.6040   78.5880  220.3540 C   0  0  0  0  0  0  0  0  0  0  0  0
  141.2560   79.0970  221.5570 C   0  0  0  0  0  0  0  0  0  0  0  0
  141.9330   80.2990  221.5050 C   0  0  0  0  0  0  0  0  0  0  0  0
  142.5440   80.7610  222.6580 C   0  0  0  0  0  0  0  0  0  0  0  0
  142.4900   80.0470  223.8560 C   0  0  0  0  0  0  0  0  0  0  0  0
  141.8060   78.8350  223.9060 C   0  0  0  0  0  0  0  0  0  0  0  0
  141.1950   78.3830  222.7310 C   0  0  0  0  0  0  0  0  0  0  0  0
  138.2610   70.7900  223.4240 C   0  0  0  0  0  0  0  0  0  0  0  0
  138.1560   69.3990  223.5020 C   0  0  0  0  0  0  0  0  0  0  0  0
  138.8070   68.7090  224.5090 C   0  0  0  0  0  0  0  0  0  0  0  0
  139.5650   69.4040  225.4440 C   0  0  0  0  0  0  0  0  0  0  0  0
  140.2330   68.7650  226.4660 C   0  0  0  0  0  0  0  0  0  0  0  0
  140.9930   69.4380  227.4070 C   0  0  0  0  0  0  0  0  0  0  0  0
  141.0700   70.8230  227.2930 C   0  0  0  0  0  0  0  0  0  0  0  0
  140.4080   71.4730  226.2760 C   0  0  0  0  0  0  0  0  0  0  0  0
  139.6530   70.7910  225.3440 C   0  0  0  0  0  0  0  0  0  0  0  0
  139.0070   71.4210  224.3520 N   0  0  0  0  0  0  0  0  0  0  0  0
  138.1570   73.4180  223.0920 H   0  0  0  0  0  0  0  0  0  0  0  0
  136.0827   73.1342  220.9540 H   0  0  0  0  0  0  0  0  0  0  0  0
  136.6600   74.6579  221.7467 H   0  0  0  0  0  0  0  0  0  0  0  0
  140.0262   72.2027  220.3782 H   0  0  0  0  0  0  0  0  0  0  0  0
  140.9471   73.3306  219.4427 H   0  0  0  0  0  0  0  0  0  0  0  0
  142.0824   73.1376  221.7972 H   0  0  0  0  0  0  0  0  0  0  0  0
  139.8890   72.4080  222.6500 H   0  0  0  0  0  0  0  0  0  0  0  0
  141.2917   75.6236  222.4801 H   0  0  0  0  0  0  0  0  0  0  0  0
  141.9841   75.4982  220.8868 H   0  0  0  0  0  0  0  0  0  0  0  0
  139.1109   75.8499  221.6906 H   0  0  0  0  0  0  0  0  0  0  0  0
  140.0233   75.9244  218.8649 H   0  0  0  0  0  0  0  0  0  0  0  0
  138.9821   77.0595  219.8347 H   0  0  0  0  0  0  0  0  0  0  0  0
  140.8604   79.2561  219.5186 H   0  0  0  0  0  0  0  0  0  0  0  0
  139.5273   78.5598  220.5773 H   0  0  0  0  0  0  0  0  0  0  0  0
  141.9856   80.8758  220.5698 H   0  0  0  0  0  0  0  0  0  0  0  0
  143.0870   81.7172  222.6292 H   0  0  0  0  0  0  0  0  0  0  0  0
  142.9853   80.4397  224.7563 H   0  0  0  0  0  0  0  0  0  0  0  0
  141.7480   78.2527  224.8375 H   0  0  0  0  0  0  0  0  0  0  0  0
  140.6495   77.4279  222.7468 H   0  0  0  0  0  0  0  0  0  0  0  0
  137.5546   68.8515  222.7614 H   0  0  0  0  0  0  0  0  0  0  0  0
  138.7250   67.6137  224.5695 H   0  0  0  0  0  0  0  0  0  0  0  0
  140.1589   67.6698  226.5373 H   0  0  0  0  0  0  0  0  0  0  0  0
  141.5149   68.9001  228.2122 H   0  0  0  0  0  0  0  0  0  0  0  0
  141.6621   71.4004  228.0183 H   0  0  0  0  0  0  0  0  0  0  0  0
  140.4831   72.5681  226.2043 H   0  0  0  0  0  0  0  0  0  0  0  0
  1  2  2  0
  2  3  1  0
  3  4  1  0
  4  5  1  0
  5  6  2  0
  5  7  1  0
  7  8  1  0
  8  9  1  0
  9 10  1  0
  9 11  1  0
 11 12  1  0
 12 13  1  0
 13 14  1  0
 14 15  1  0
 15 16  1  0
 16 17  2  0
 17 18  1  0
 18 19  2  0
 19 20  1  0
 20 21  2  0
  2 22  1  0
 22 23  2  0
 23 24  1  0
 24 25  2  0
 25 26  1  0
 26 27  2  0
 27 28  1  0
 28 29  2  0
 29 30  1  0
 30 31  2  0
 12  7  1  0
 21 16  1  0
 31 22  1  0
 30 25  1  0
  3 32  1  0
  4 33  1  0
  4 34  1  0
  8 35  1  0
  8 36  1  0
  9 37  1  1
 10 38  1  0
 11 39  1  0
 11 40  1  0
 12 41  1  1
 13 42  1  0
 13 43  1  0
 15 44  1  0
 15 45  1  0
 17 46  1  0
 18 47  1  0
 19 48  1  0
 20 49  1  0
 21 50  1  0
 23 51  1  0
 24 52  1  0
 26 53  1  0
 27 54  1  0
 28 55  1  0
 29 56  1  0
M  END
>  <smiles>  (1) 
O=C(NCC(=O)N1C[C@H](O)C[C@H]1COCc1ccccc1)c1ccc2ccccc2n1

>  <score_type>  (1) 
oracle

>  <origin>  (1) 
autodockgpu

>  <m_score__min__energy>  (1) 
-9

>  <m_primary>  (1) 
energy

>  <meeko>  (1) 
{"free_energy": -7.17, "intermolecular_energy": -9.86, "internal_energy": -3.39, "cluster_size": 8, "cluster_id": 1, "rank_in_cluster": 8}

>  <energy>  (1) 
-9.0

>  <cluster_rmsd>  (1) 
0.0

>  <rmsd>  (1) 
271.26

>  <cluster>  (1) 
1

$$$$

     RDKit          3D

 56 59  0  0  0  0  0  0  0  0999 V2000
  138.3970   75.6640  221.9120 O   0  0  0  0  0  0  0  0  0  0  0  0
  139.6030   76.0160  221.9780 C   0  0  0  0  0  0  0  0  0  0  0  0
  140.6590   75.1370  221.5980 N   0  0  0  0  0  0  0  0  0  0  0  0
  140.3920   73.7990  221.1180 C   0  0  0  0  0  0  0  0  0  0  0  0
  139.9440   72.9040  222.2160 C   0  0  0  0  0  0  0  0  0  0  0  0
  140.7250   72.5890  223.1780 O   0  0  0  0  0  0  0  0  0  0  0  0
  138.6120   72.4160  222.1480 N   0  0  0  0  0  0  0  0  0  0  0  0
  137.6070   72.5960  221.1200 C   0  0  0  0  0  0  0  0  0  0  0  0
  136.3670   72.8100  221.9950 C   0  0  2  0  0  0  0  0  0  0  0  0
  136.5740   73.9640  222.7200 O   0  0  0  0  0  0  0  0  0  0  0  0
  136.5010   71.6360  222.9410 C   0  0  0  0  0  0  0  0  0  0  0  0
  137.9940   71.5990  223.1740 C   0  0  1  0  0  0  0  0  0  0  0  0
  138.4880   70.1650  223.1360 C   0  0  0  0  0  0  0  0  0  0  0  0
  138.6950   69.6460  224.3830 O   0  0  0  0  0  0  0  0  0  0  0  0
  140.0190   69.6460  224.7870 C   0  0  0  0  0  0  0  0  0  0  0  0
  140.2940   70.4040  226.0050 C   0  0  0  0  0  0  0  0  0  0  0  0
  139.7360   69.9920  227.1990 C   0  0  0  0  0  0  0  0  0  0  0  0
  140.0100   70.7250  228.3410 C   0  0  0  0  0  0  0  0  0  0  0  0
  140.8270   71.8560  228.3100 C   0  0  0  0  0  0  0  0  0  0  0  0
  141.3890   72.2690  227.1040 C   0  0  0  0  0  0  0  0  0  0  0  0
  141.1010   71.5160  225.9600 C   0  0  0  0  0  0  0  0  0  0  0  0
  139.9580   77.3500  222.4520 C   0  0  0  0  0  0  0  0  0  0  0  0
  138.9400   78.2310  222.8260 C   0  0  0  0  0  0  0  0  0  0  0  0
  139.2510   79.5000  223.2790 C   0  0  0  0  0  0  0  0  0  0  0  0
  140.5800   79.8970  223.3590 C   0  0  0  0  0  0  0  0  0  0  0  0
  140.9450   81.1500  223.8030 C   0  0  0  0  0  0  0  0  0  0  0  0
  142.2620   81.5650  223.8910 C   0  0  0  0  0  0  0  0  0  0  0  0
  143.2450   80.6570  223.5090 C   0  0  0  0  0  0  0  0  0  0  0  0
  142.8940   79.4030  223.0640 C   0  0  0  0  0  0  0  0  0  0  0  0
  141.5770   79.0000  222.9800 C   0  0  0  0  0  0  0  0  0  0  0  0
  141.2310   77.7780  222.5480 N   0  0  0  0  0  0  0  0  0  0  0  0
  141.6520   75.4680  221.6680 H   0  0  0  0  0  0  0  0  0  0  0  0
  139.6047   73.8452  220.3512 H   0  0  0  0  0  0  0  0  0  0  0  0
  141.3239   73.3909  220.6996 H   0  0  0  0  0  0  0  0  0  0  0  0
  137.8190   73.4731  220.4909 H   0  0  0  0  0  0  0  0  0  0  0  0
  137.5283   71.7690  220.3990 H   0  0  0  0  0  0  0  0  0  0  0  0
  135.4067   72.8816  221.4634 H   0  0  0  0  0  0  0  0  0  0  0  0
  137.5140   74.0580  223.0420 H   0  0  0  0  0  0  0  0  0  0  0  0
  135.9531   71.8119  223.8785 H   0  0  0  0  0  0  0  0  0  0  0  0
  136.0871   70.6959  222.5474 H   0  0  0  0  0  0  0  0  0  0  0  0
  138.2575   71.9980  224.1646 H   0  0  0  0  0  0  0  0  0  0  0  0
  137.7389   69.5482  222.6179 H   0  0  0  0  0  0  0  0  0  0  0  0
  139.4536   70.1598  222.6091 H   0  0  0  0  0  0  0  0  0  0  0  0
  140.3232   68.6029  224.9585 H   0  0  0  0  0  0  0  0  0  0  0  0
  140.5850   70.1402  223.9836 H   0  0  0  0  0  0  0  0  0  0  0  0
  139.0895   69.1030  227.2417 H   0  0  0  0  0  0  0  0  0  0  0  0
  139.5719   70.4074  229.2987 H   0  0  0  0  0  0  0  0  0  0  0  0
  141.0263   72.4189  229.2338 H   0  0  0  0  0  0  0  0  0  0  0  0
  142.0369   73.1565  227.0527 H   0  0  0  0  0  0  0  0  0  0  0  0
  141.5332   71.8231  224.9962 H   0  0  0  0  0  0  0  0  0  0  0  0
  137.8886   77.9144  222.7599 H   0  0  0  0  0  0  0  0  0  0  0  0
  138.4492   80.1925  223.5749 H   0  0  0  0  0  0  0  0  0  0  0  0
  140.1526   81.8523  224.1011 H   0  0  0  0  0  0  0  0  0  0  0  0
  142.5216   82.5723  224.2486 H   0  0  0  0  0  0  0  0  0  0  0  0
  144.3059   80.9426  223.5629 H   0  0  0  0  0  0  0  0  0  0  0  0
  143.6869   78.7010  222.7664 H   0  0  0  0  0  0  0  0  0  0  0  0
  1  2  2  0
  2  3  1  0
  3  4  1  0
  4  5  1  0
  5  6  2  0
  5  7  1  0
  7  8  1  0
  8  9  1  0
  9 10  1  0
  9 11  1  0
 11 12  1  0
 12 13  1  0
 13 14  1  0
 14 15  1  0
 15 16  1  0
 16 17  2  0
 17 18  1  0
 18 19  2  0
 19 20  1  0
 20 21  2  0
  2 22  1  0
 22 23  2  0
 23 24  1  0
 24 25  2  0
 25 26  1  0
 26 27  2  0
 27 28  1  0
 28 29  2  0
 29 30  1  0
 30 31  2  0
 12  7  1  0
 21 16  1  0
 31 22  1  0
 30 25  1  0
  3 32  1  0
  4 33  1  0
  4 34  1  0
  8 35  1  0
  8 36  1  0
  9 37  1  6
 10 38  1  0
 11 39  1  0
 11 40  1  0
 12 41  1  1
 13 42  1  0
 13 43  1  0
 15 44  1  0
 15 45  1  0
 17 46  1  0
 18 47  1  0
 19 48  1  0
 20 49  1  0
 21 50  1  0
 23 51  1  0
 24 52  1  0
 26 53  1  0
 27 54  1  0
 28 55  1  0
 29 56  1  0
M  END
>  <smiles>  (2) 
O=C(NCC(=O)N1C[C@H](O)C[C@H]1COCc1ccccc1)c1ccc2ccccc2n1

>  <score_type>  (2) 
oracle

>  <origin>  (2) 
autodockgpu

>  <m_score__min__energy>  (2) 
-9

>  <m_primary>  (2) 
energy

>  <meeko>  (2) 
{"free_energy": -8.78, "intermolecular_energy": -11.47, "internal_energy": -2.7, "cluster_size": 6, "cluster_id": 2, "rank_in_cluster": 2}

>  <energy>  (2) 
-8.99

>  <cluster_rmsd>  (2) 
0.75

>  <rmsd>  (2) 
271.14

>  <cluster>  (2) 
1

$$$$

     RDKit          3D

 56 59  0  0  0  0  0  0  0  0999 V2000
  138.1270   71.9970  222.2320 O   0  0  0  0  0  0  0  0  0  0  0  0
  139.2440   71.8960  222.8020 C   0  0  0  0  0  0  0  0  0  0  0  0
  140.3850   72.6170  222.3410 N   0  0  0  0  0  0  0  0  0  0  0  0
  140.3110   73.4980  221.1960 C   0  0  0  0  0  0  0  0  0  0  0  0
  140.3820   74.9260  221.6000 C   0  0  0  0  0  0  0  0  0  0  0  0
  141.4930   75.4730  221.9170 O   0  0  0  0  0  0  0  0  0  0  0  0
  139.1610   75.6530  221.6200 N   0  0  0  0  0  0  0  0  0  0  0  0
  138.4420   76.2320  222.7370 C   0  0  0  0  0  0  0  0  0  0  0  0
  137.0050   75.8770  222.3380 C   0  0  2  0  0  0  0  0  0  0  0  0
  136.9130   74.5020  222.3250 O   0  0  0  0  0  0  0  0  0  0  0  0
  136.9970   76.3580  220.9030 C   0  0  0  0  0  0  0  0  0  0  0  0
  138.3780   75.9540  220.4380 C   0  0  1  0  0  0  0  0  0  0  0  0
  138.9930   77.0710  219.6150 C   0  0  0  0  0  0  0  0  0  0  0  0
  139.4580   78.0980  220.3870 O   0  0  0  0  0  0  0  0  0  0  0  0
  140.8370   78.2130  220.4120 C   0  0  0  0  0  0  0  0  0  0  0  0
  141.3800   78.8880  221.5880 C   0  0  0  0  0  0  0  0  0  0  0  0
  141.9570   80.1350  221.4470 C   0  0  0  0  0  0  0  0  0  0  0  0
  142.4640   80.7560  222.5750 C   0  0  0  0  0  0  0  0  0  0  0  0
  142.4060   80.1560  223.8340 C   0  0  0  0  0  0  0  0  0  0  0  0
  141.8230   78.8990  223.9730 C   0  0  0  0  0  0  0  0  0  0  0  0
  141.3150   78.2860  222.8220 C   0  0  0  0  0  0  0  0  0  0  0  0
  139.4050   71.0290  223.9640 C   0  0  0  0  0  0  0  0  0  0  0  0
  138.7950   69.7710  223.9620 C   0  0  0  0  0  0  0  0  0  0  0  0
  138.9320   68.9310  225.0510 C   0  0  0  0  0  0  0  0  0  0  0  0
  139.6790   69.3400  226.1500 C   0  0  0  0  0  0  0  0  0  0  0  0
  139.8480   68.5430  227.2600 C   0  0  0  0  0  0  0  0  0  0  0  0
  140.5870   68.9320  228.3640 C   0  0  0  0  0  0  0  0  0  0  0  0
  141.1780   70.1910  228.3240 C   0  0  0  0  0  0  0  0  0  0  0  0
  141.0170   70.9980  227.2210 C   0  0  0  0  0  0  0  0  0  0  0  0
  140.2770   70.5990  226.1270 C   0  0  0  0  0  0  0  0  0  0  0  0
  140.1190   71.3820  225.0490 N   0  0  0  0  0  0  0  0  0  0  0  0
  141.2990   72.5060  222.8440 H   0  0  0  0  0  0  0  0  0  0  0  0
  141.1498   73.2760  220.5199 H   0  0  0  0  0  0  0  0  0  0  0  0
  139.3469   73.3297  220.6938 H   0  0  0  0  0  0  0  0  0  0  0  0
  138.7277   75.7670  223.6921 H   0  0  0  0  0  0  0  0  0  0  0  0
  138.6266   77.3037  222.9026 H   0  0  0  0  0  0  0  0  0  0  0  0
  136.2107   76.2886  222.9781 H   0  0  0  0  0  0  0  0  0  0  0  0
  137.7120   74.0540  222.7230 H   0  0  0  0  0  0  0  0  0  0  0  0
  136.2134   75.8565  220.3161 H   0  0  0  0  0  0  0  0  0  0  0  0
  136.7843   77.4316  220.7925 H   0  0  0  0  0  0  0  0  0  0  0  0
  138.3421   75.0660  219.7898 H   0  0  0  0  0  0  0  0  0  0  0  0
  139.8314   76.6597  219.0337 H   0  0  0  0  0  0  0  0  0  0  0  0
  138.2059   77.4754  218.9616 H   0  0  0  0  0  0  0  0  0  0  0  0
  141.2644   77.2002  220.3724 H   0  0  0  0  0  0  0  0  0  0  0  0
  141.1087   78.8365  219.5475 H   0  0  0  0  0  0  0  0  0  0  0  0
  142.0121   80.6224  220.4624 H   0  0  0  0  0  0  0  0  0  0  0  0
  142.9254   81.7497  222.4768 H   0  0  0  0  0  0  0  0  0  0  0  0
  142.8189   80.6737  224.7123 H   0  0  0  0  0  0  0  0  0  0  0  0
  141.7638   78.4048  224.9540 H   0  0  0  0  0  0  0  0  0  0  0  0
  140.8498   77.2929  222.9074 H   0  0  0  0  0  0  0  0  0  0  0  0
  138.2045   69.4490  223.0916 H   0  0  0  0  0  0  0  0  0  0  0  0
  138.4514   67.9416  225.0482 H   0  0  0  0  0  0  0  0  0  0  0  0
  139.3735   67.5506  227.2700 H   0  0  0  0  0  0  0  0  0  0  0  0
  140.7023   68.2728  229.2370 H   0  0  0  0  0  0  0  0  0  0  0  0
  141.7763   70.5427  229.1775 H   0  0  0  0  0  0  0  0  0  0  0  0
  141.4921   71.9901  227.2112 H   0  0  0  0  0  0  0  0  0  0  0  0
  1  2  2  0
  2  3  1  0
  3  4  1  0
  4  5  1  0
  5  6  2  0
  5  7  1  0
  7  8  1  0
  8  9  1  0
  9 10  1  0
  9 11  1  0
 11 12  1  0
 12 13  1  0
 13 14  1  0
 14 15  1  0
 15 16  1  0
 16 17  2  0
 17 18  1  0
 18 19  2  0
 19 20  1  0
 20 21  2  0
  2 22  1  0
 22 23  2  0
 23 24  1  0
 24 25  2  0
 25 26  1  0
 26 27  2  0
 27 28  1  0
 28 29  2  0
 29 30  1  0
 30 31  2  0
 12  7  1  0
 21 16  1  0
 31 22  1  0
 30 25  1  0
  3 32  1  0
  4 33  1  0
  4 34  1  0
  8 35  1  0
  8 36  1  0
  9 37  1  1
 10 38  1  0
 11 39  1  0
 11 40  1  0
 12 41  1  6
 13 42  1  0
 13 43  1  0
 15 44  1  0
 15 45  1  0
 17 46  1  0
 18 47  1  0
 19 48  1  0
 20 49  1  0
 21 50  1  0
 23 51  1  0
 24 52  1  0
 26 53  1  0
 27 54  1  0
 28 55  1  0
 29 56  1  0
M  END
>  <smiles>  (3) 
O=C(NCC(=O)N1C[C@H](O)C[C@H]1COCc1ccccc1)c1ccc2ccccc2n1

>  <score_type>  (3) 
oracle

>  <origin>  (3) 
autodockgpu

>  <m_score__min__energy>  (3) 
-9

>  <m_primary>  (3) 
energy

>  <meeko>  (3) 
{"free_energy": -7.79, "intermolecular_energy": -10.48, "internal_energy": -2.76, "cluster_size": 8, "cluster_id": 1, "rank_in_cluster": 6}

>  <energy>  (3) 
-8.98

>  <cluster_rmsd>  (3) 
0.09

>  <rmsd>  (3) 
271.23

>  <cluster>  (3) 
1

$$$$

     RDKit          3D

 56 59  0  0  0  0  0  0  0  0999 V2000
  137.7790   74.9060  222.3300 O   0  0  0  0  0  0  0  0  0  0  0  0
  138.9690   75.3090  222.2520 C   0  0  0  0  0  0  0  0  0  0  0  0
  140.0260   74.4390  221.8530 N   0  0  0  0  0  0  0  0  0  0  0  0
  139.7800   73.0530  221.5200 C   0  0  0  0  0  0  0  0  0  0  0  0
  139.6990   72.2050  222.7370 C   0  0  0  0  0  0  0  0  0  0  0  0
  140.6690   72.1380  223.5660 O   0  0  0  0  0  0  0  0  0  0  0  0
  138.4970   71.4740  222.9360 N   0  0  0  0  0  0  0  0  0  0  0  0
  137.2880   71.4380  222.1370 C   0  0  0  0  0  0  0  0  0  0  0  0
  136.2350   71.4360  223.2510 C   0  0  2  0  0  0  0  0  0  0  0  0
  136.3630   72.6260  223.9350 O   0  0  0  0  0  0  0  0  0  0  0  0
  136.7780   70.3310  224.1320 C   0  0  0  0  0  0  0  0  0  0  0  0
  138.2670   70.5820  224.0540 C   0  0  1  0  0  0  0  0  0  0  0  0
  139.0030   69.2650  223.8940 C   0  0  0  0  0  0  0  0  0  0  0  0
  138.8240   68.4290  224.9600 O   0  0  0  0  0  0  0  0  0  0  0  0
  139.9040   68.3670  225.8240 C   0  0  0  0  0  0  0  0  0  0  0  0
  140.2380   69.6260  226.4860 C   0  0  0  0  0  0  0  0  0  0  0  0
  141.1330   70.4890  225.8870 C   0  0  0  0  0  0  0  0  0  0  0  0
  141.4340   71.6770  226.5320 C   0  0  0  0  0  0  0  0  0  0  0  0
  140.8600   72.0130  227.7590 C   0  0  0  0  0  0  0  0  0  0  0  0
  139.9570   71.1400  228.3600 C   0  0  0  0  0  0  0  0  0  0  0  0
  139.6640   69.9450  227.6940 C   0  0  0  0  0  0  0  0  0  0  0  0
  139.3030   76.6930  222.5710 C   0  0  0  0  0  0  0  0  0  0  0  0
  138.2690   77.6170  222.7480 C   0  0  0  0  0  0  0  0  0  0  0  0
  138.5600   78.9340  223.0520 C   0  0  0  0  0  0  0  0  0  0  0  0
  139.8840   79.3370  223.1790 C   0  0  0  0  0  0  0  0  0  0  0  0
  140.2290   80.6370  223.4800 C   0  0  0  0  0  0  0  0  0  0  0  0
  141.5400   81.0590  223.6120 C   0  0  0  0  0  0  0  0  0  0  0  0
  142.5380   80.1060  223.4280 C   0  0  0  0  0  0  0  0  0  0  0  0
  142.2080   78.8050  223.1270 C   0  0  0  0  0  0  0  0  0  0  0  0
  140.8960   78.3960  222.9980 C   0  0  0  0  0  0  0  0  0  0  0  0
  140.5690   77.1290  222.7050 N   0  0  0  0  0  0  0  0  0  0  0  0
  141.0050   74.8130  221.8000 H   0  0  0  0  0  0  0  0  0  0  0  0
  138.8297   72.9810  220.9707 H   0  0  0  0  0  0  0  0  0  0  0  0
  140.6175   72.6928  220.9044 H   0  0  0  0  0  0  0  0  0  0  0  0
  137.1983   72.3243  221.4916 H   0  0  0  0  0  0  0  0  0  0  0  0
  137.2213   70.5946  221.4340 H   0  0  0  0  0  0  0  0  0  0  0  0
  135.1906   71.3124  222.9287 H   0  0  0  0  0  0  0  0  0  0  0  0
  137.0130   73.2530  223.5080 H   0  0  0  0  0  0  0  0  0  0  0  0
  136.4092   70.4231  225.1642 H   0  0  0  0  0  0  0  0  0  0  0  0
  136.4780   69.3205  223.8175 H   0  0  0  0  0  0  0  0  0  0  0  0
  138.6472   71.0485  224.9748 H   0  0  0  0  0  0  0  0  0  0  0  0
  138.6340   68.7633  222.9873 H   0  0  0  0  0  0  0  0  0  0  0  0
  140.0774   69.4906  223.8248 H   0  0  0  0  0  0  0  0  0  0  0  0
  139.6769   67.6225  226.6013 H   0  0  0  0  0  0  0  0  0  0  0  0
  140.7760   68.1028  225.2078 H   0  0  0  0  0  0  0  0  0  0  0  0
  141.5959   70.2394  224.9209 H   0  0  0  0  0  0  0  0  0  0  0  0
  142.1446   72.3746  226.0647 H   0  0  0  0  0  0  0  0  0  0  0  0
  141.1197   72.9630  228.2489 H   0  0  0  0  0  0  0  0  0  0  0  0
  139.4897   71.3817  229.3260 H   0  0  0  0  0  0  0  0  0  0  0  0
  138.9535   69.2399  228.1502 H   0  0  0  0  0  0  0  0  0  0  0  0
  137.2220   77.2957  222.6452 H   0  0  0  0  0  0  0  0  0  0  0  0
  137.7462   79.6605  223.1929 H   0  0  0  0  0  0  0  0  0  0  0  0
  139.4244   81.3735  223.6219 H   0  0  0  0  0  0  0  0  0  0  0  0
  141.7837   82.1044  223.8524 H   0  0  0  0  0  0  0  0  0  0  0  0
  143.5951   80.3947  223.5237 H   0  0  0  0  0  0  0  0  0  0  0  0
  143.0131   78.0691  222.9850 H   0  0  0  0  0  0  0  0  0  0  0  0
  1  2  2  0
  2  3  1  0
  3  4  1  0
  4  5  1  0
  5  6  2  0
  5  7  1  0
  7  8  1  0
  8  9  1  0
  9 10  1  0
  9 11  1  0
 11 12  1  0
 12 13  1  0
 13 14  1  0
 14 15  1  0
 15 16  1  0
 16 17  2  0
 17 18  1  0
 18 19  2  0
 19 20  1  0
 20 21  2  0
  2 22  1  0
 22 23  2  0
 23 24  1  0
 24 25  2  0
 25 26  1  0
 26 27  2  0
 27 28  1  0
 28 29  2  0
 29 30  1  0
 30 31  2  0
 12  7  1  0
 21 16  1  0
 31 22  1  0
 30 25  1  0
  3 32  1  0
  4 33  1  0
  4 34  1  0
  8 35  1  0
  8 36  1  0
  9 37  1  6
 10 38  1  0
 11 39  1  0
 11 40  1  0
 12 41  1  1
 13 42  1  0
 13 43  1  0
 15 44  1  0
 15 45  1  0
 17 46  1  0
 18 47  1  0
 19 48  1  0
 20 49  1  0
 21 50  1  0
 23 51  1  0
 24 52  1  0
 26 53  1  0
 27 54  1  0
 28 55  1  0
 29 56  1  0
M  END
>  <smiles>  (4) 
O=C(NCC(=O)N1C[C@H](O)C[C@H]1COCc1ccccc1)c1ccc2ccccc2n1

>  <score_type>  (4) 
oracle

>  <origin>  (4) 
autodockgpu

>  <m_score__min__energy>  (4) 
-9

>  <m_primary>  (4) 
energy

>  <meeko>  (4) 
{"free_energy": -8.84, "intermolecular_energy": -11.52, "internal_energy": -2.78, "cluster_size": 6, "cluster_id": 2, "rank_in_cluster": 1}

>  <energy>  (4) 
-8.95

>  <cluster_rmsd>  (4) 
0.2

>  <rmsd>  (4) 
271.25

>  <cluster>  (4) 
1

$$$$

     RDKit          3D

 56 59  0  0  0  0  0  0  0  0999 V2000
  139.5860   74.4840  222.0920 O   0  0  0  0  0  0  0  0  0  0  0  0
  140.5370   75.2920  221.9300 C   0  0  0  0  0  0  0  0  0  0  0  0
  141.7710   74.8850  221.3440 N   0  0  0  0  0  0  0  0  0  0  0  0
  141.9880   73.5220  220.9090 C   0  0  0  0  0  0  0  0  0  0  0  0
  143.3790   73.3170  220.4300 C   0  0  0  0  0  0  0  0  0  0  0  0
  144.3160   72.9790  221.2310 O   0  0  0  0  0  0  0  0  0  0  0  0
  143.6200   73.5140  219.0440 N   0  0  0  0  0  0  0  0  0  0  0  0
  143.7610   72.5430  217.9770 C   0  0  0  0  0  0  0  0  0  0  0  0
  144.9180   73.1760  217.1940 C   0  0  2  0  0  0  0  0  0  0  0  0
  146.0160   73.1870  218.0280 O   0  0  0  0  0  0  0  0  0  0  0  0
  144.4130   74.5980  217.0700 C   0  0  0  0  0  0  0  0  0  0  0  0
  143.7780   74.8160  218.4260 C   0  0  1  0  0  0  0  0  0  0  0  0
  142.4530   75.5360  218.2650 C   0  0  0  0  0  0  0  0  0  0  0  0
  142.2360   76.4630  219.2460 O   0  0  0  0  0  0  0  0  0  0  0  0
  142.6380   77.7460  218.9150 C   0  0  0  0  0  0  0  0  0  0  0  0
  141.6990   78.8020  219.2830 C   0  0  0  0  0  0  0  0  0  0  0  0
  142.1780   80.0640  219.5730 C   0  0  0  0  0  0  0  0  0  0  0  0
  141.2700   81.0490  219.9200 C   0  0  0  0  0  0  0  0  0  0  0  0
  139.8990   80.7960  219.9810 C   0  0  0  0  0  0  0  0  0  0  0  0
  139.4180   79.5230  219.6880 C   0  0  0  0  0  0  0  0  0  0  0  0
  140.3500   78.5390  219.3400 C   0  0  0  0  0  0  0  0  0  0  0  0
  140.4000   76.6850  222.3420 C   0  0  0  0  0  0  0  0  0  0  0  0
  139.1220   77.2080  222.5540 C   0  0  0  0  0  0  0  0  0  0  0  0
  138.9660   78.5250  222.9460 C   0  0  0  0  0  0  0  0  0  0  0  0
  140.0850   79.3280  223.1270 C   0  0  0  0  0  0  0  0  0  0  0  0
  139.9870   80.6470  223.5160 C   0  0  0  0  0  0  0  0  0  0  0  0
  141.0890   81.4630  223.7030 C   0  0  0  0  0  0  0  0  0  0  0  0
  142.3430   80.9020  223.4810 C   0  0  0  0  0  0  0  0  0  0  0  0
  142.4560   79.5870  223.0920 C   0  0  0  0  0  0  0  0  0  0  0  0
  141.3500   78.7830  222.9090 C   0  0  0  0  0  0  0  0  0  0  0  0
  141.4550   77.5000  222.5310 N   0  0  0  0  0  0  0  0  0  0  0  0
  142.5400   75.5890  221.2260 H   0  0  0  0  0  0  0  0  0  0  0  0
  141.7972   72.8430  221.7531 H   0  0  0  0  0  0  0  0  0  0  0  0
  141.3020   73.3132  220.0748 H   0  0  0  0  0  0  0  0  0  0  0  0
  144.0254   71.5475  218.3630 H   0  0  0  0  0  0  0  0  0  0  0  0
  142.8481   72.3624  217.3906 H   0  0  0  0  0  0  0  0  0  0  0  0
  145.1854   72.6859  216.2462 H   0  0  0  0  0  0  0  0  0  0  0  0
  146.1600   74.0700  218.4700 H   0  0  0  0  0  0  0  0  0  0  0  0
  145.2389   75.3033  216.8957 H   0  0  0  0  0  0  0  0  0  0  0  0
  143.7274   74.7568  216.2246 H   0  0  0  0  0  0  0  0  0  0  0  0
  144.4066   75.4494  219.0692 H   0  0  0  0  0  0  0  0  0  0  0  0
  142.4453   76.0460  217.2904 H   0  0  0  0  0  0  0  0  0  0  0  0
  141.6540   74.7832  218.3352 H   0  0  0  0  0  0  0  0  0  0  0  0
  143.5927   77.9461  219.4234 H   0  0  0  0  0  0  0  0  0  0  0  0
  142.7133   77.7707  217.8179 H   0  0  0  0  0  0  0  0  0  0  0  0
  143.2554   80.2813  219.5293 H   0  0  0  0  0  0  0  0  0  0  0  0
  141.6389   82.0585  220.1540 H   0  0  0  0  0  0  0  0  0  0  0  0
  139.2011   81.5994  220.2595 H   0  0  0  0  0  0  0  0  0  0  0  0
  138.3420   79.2983  219.7287 H   0  0  0  0  0  0  0  0  0  0  0  0
  139.9934   77.5253  219.1051 H   0  0  0  0  0  0  0  0  0  0  0  0
  138.2374   76.5705  222.4087 H   0  0  0  0  0  0  0  0  0  0  0  0
  137.9593   78.9353  223.1139 H   0  0  0  0  0  0  0  0  0  0  0  0
  138.9861   81.0706  223.6857 H   0  0  0  0  0  0  0  0  0  0  0  0
  140.9782   82.5122  224.0144 H   0  0  0  0  0  0  0  0  0  0  0  0
  143.2479   81.5125  223.6171 H   0  0  0  0  0  0  0  0  0  0  0  0
  143.4573   79.1646  222.9220 H   0  0  0  0  0  0  0  0  0  0  0  0
  1  2  2  0
  2  3  1  0
  3  4  1  0
  4  5  1  0
  5  6  2  0
  5  7  1  0
  7  8  1  0
  8  9  1  0
  9 10  1  0
  9 11  1  0
 11 12  1  0
 12 13  1  0
 13 14  1  0
 14 15  1  0
 15 16  1  0
 16 17  2  0
 17 18  1  0
 18 19  2  0
 19 20  1  0
 20 21  2  0
  2 22  1  0
 22 23  2  0
 23 24  1  0
 24 25  2  0
 25 26  1  0
 26 27  2  0
 27 28  1  0
 28 29  2  0
 29 30  1  0
 30 31  2  0
 12  7  1  0
 21 16  1  0
 31 22  1  0
 30 25  1  0
  3 32  1  0
  4 33  1  0
  4 34  1  0
  8 35  1  0
  8 36  1  0
  9 37  1  6
 10 38  1  0
 11 39  1  0
 11 40  1  0
 12 41  1  1
 13 42  1  0
 13 43  1  0
 15 44  1  0
 15 45  1  0
 17 46  1  0
 18 47  1  0
 19 48  1  0
 20 49  1  0
 21 50  1  0
 23 51  1  0
 24 52  1  0
 26 53  1  0
 27 54  1  0
 28 55  1  0
 29 56  1  0
M  END
>  <smiles>  (5) 
O=C(NCC(=O)N1C[C@H](O)C[C@H]1COCc1ccccc1)c1ccc2ccccc2n1

>  <score_type>  (5) 
oracle

>  <origin>  (5) 
autodockgpu

>  <m_score__min__energy>  (5) 
-9

>  <m_primary>  (5) 
energy

>  <meeko>  (5) 
{"free_energy": -6.75, "intermolecular_energy": -9.43, "internal_energy": -3.95, "cluster_size": 4, "cluster_id": 4, "rank_in_cluster": 3}

>  <energy>  (5) 
-8.43

>  <cluster_rmsd>  (5) 
1.69

>  <rmsd>  (5) 
270.92

>  <cluster>  (5) 
1

$$$$

     RDKit          3D

 56 59  0  0  0  0  0  0  0  0999 V2000
  138.4060   75.6650  221.9710 O   0  0  0  0  0  0  0  0  0  0  0  0
  139.6130   76.0130  222.0400 C   0  0  0  0  0  0  0  0  0  0  0  0
  140.6680   75.1280  221.6690 N   0  0  0  0  0  0  0  0  0  0  0  0
  140.3980   73.7880  221.1960 C   0  0  0  0  0  0  0  0  0  0  0  0
  139.9550   72.8980  222.3000 C   0  0  0  0  0  0  0  0  0  0  0  0
  140.7350   72.6000  223.2680 O   0  0  0  0  0  0  0  0  0  0  0  0
  138.6290   72.3930  222.2300 N   0  0  0  0  0  0  0  0  0  0  0  0
  137.6260   72.5550  221.1970 C   0  0  0  0  0  0  0  0  0  0  0  0
  136.3800   72.7590  222.0670 C   0  0  2  0  0  0  0  0  0  0  0  0
  136.5700   73.9200  222.7850 O   0  0  0  0  0  0  0  0  0  0  0  0
  136.5240   71.5920  223.0210 C   0  0  0  0  0  0  0  0  0  0  0  0
  138.0180   71.5750  223.2590 C   0  0  1  0  0  0  0  0  0  0  0  0
  138.5280   70.1470  223.2320 C   0  0  0  0  0  0  0  0  0  0  0  0
  139.8100   70.0380  223.6920 O   0  0  0  0  0  0  0  0  0  0  0  0
  139.9250   69.3780  224.9040 C   0  0  0  0  0  0  0  0  0  0  0  0
  140.2440   70.2320  226.0450 C   0  0  0  0  0  0  0  0  0  0  0  0
  139.6990   69.9430  227.2800 C   0  0  0  0  0  0  0  0  0  0  0  0
  140.0150   70.7670  228.3480 C   0  0  0  0  0  0  0  0  0  0  0  0
  140.8610   71.8680  228.2010 C   0  0  0  0  0  0  0  0  0  0  0  0
  141.4090   72.1560  226.9540 C   0  0  0  0  0  0  0  0  0  0  0  0
  141.0790   71.3140  225.8870 C   0  0  0  0  0  0  0  0  0  0  0  0
  139.9720   77.3480  222.5080 C   0  0  0  0  0  0  0  0  0  0  0  0
  138.9560   78.2310  222.8850 C   0  0  0  0  0  0  0  0  0  0  0  0
  139.2690   79.5010  223.3310 C   0  0  0  0  0  0  0  0  0  0  0  0
  140.5990   79.8990  223.4040 C   0  0  0  0  0  0  0  0  0  0  0  0
  140.9670   81.1520  223.8410 C   0  0  0  0  0  0  0  0  0  0  0  0
  142.2850   81.5670  223.9210 C   0  0  0  0  0  0  0  0  0  0  0  0
  143.2650   80.6570  223.5360 C   0  0  0  0  0  0  0  0  0  0  0  0
  142.9120   79.4020  223.0970 C   0  0  0  0  0  0  0  0  0  0  0  0
  141.5940   78.9990  223.0220 C   0  0  0  0  0  0  0  0  0  0  0  0
  141.2450   77.7770  222.5950 N   0  0  0  0  0  0  0  0  0  0  0  0
  141.6620   75.4550  221.7410 H   0  0  0  0  0  0  0  0  0  0  0  0
  139.6069   73.8313  220.4329 H   0  0  0  0  0  0  0  0  0  0  0  0
  141.3276   73.3776  220.7748 H   0  0  0  0  0  0  0  0  0  0  0  0
  137.8298   73.4310  220.5637 H   0  0  0  0  0  0  0  0  0  0  0  0
  137.5600   71.7232  220.4802 H   0  0  0  0  0  0  0  0  0  0  0  0
  135.4208   72.8153  221.5316 H   0  0  0  0  0  0  0  0  0  0  0  0
  137.5170   74.0470  223.0760 H   0  0  0  0  0  0  0  0  0  0  0  0
  135.9708   71.7671  223.9555 H   0  0  0  0  0  0  0  0  0  0  0  0
  136.1223   70.6446  222.6324 H   0  0  0  0  0  0  0  0  0  0  0  0
  138.2746   71.9838  224.2474 H   0  0  0  0  0  0  0  0  0  0  0  0
  137.8736   69.5272  223.8626 H   0  0  0  0  0  0  0  0  0  0  0  0
  138.5201   69.8102  222.1849 H   0  0  0  0  0  0  0  0  0  0  0  0
  138.9685   68.8756  225.1109 H   0  0  0  0  0  0  0  0  0  0  0  0
  140.7700   68.6821  224.7957 H   0  0  0  0  0  0  0  0  0  0  0  0
  139.0303   69.0797  227.4128 H   0  0  0  0  0  0  0  0  0  0  0  0
  139.5881   70.5481  229.3379 H   0  0  0  0  0  0  0  0  0  0  0  0
  141.0936   72.5052  229.0669 H   0  0  0  0  0  0  0  0  0  0  0  0
  142.0790   73.0169  226.8126 H   0  0  0  0  0  0  0  0  0  0  0  0
  141.4994   71.5231  224.8922 H   0  0  0  0  0  0  0  0  0  0  0  0
  137.9043   77.9140  222.8265 H   0  0  0  0  0  0  0  0  0  0  0  0
  138.4684   80.1947  223.6273 H   0  0  0  0  0  0  0  0  0  0  0  0
  140.1766   81.8559  224.1405 H   0  0  0  0  0  0  0  0  0  0  0  0
  142.5472   82.5751  224.2745 H   0  0  0  0  0  0  0  0  0  0  0  0
  144.3263   80.9424  223.5829 H   0  0  0  0  0  0  0  0  0  0  0  0
  143.7032   78.6991  222.7970 H   0  0  0  0  0  0  0  0  0  0  0  0
  1  2  2  0
  2  3  1  0
  3  4  1  0
  4  5  1  0
  5  6  2  0
  5  7  1  0
  7  8  1  0
  8  9  1  0
  9 10  1  0
  9 11  1  0
 11 12  1  0
 12 13  1  0
 13 14  1  0
 14 15  1  0
 15 16  1  0
 16 17  2  0
 17 18  1  0
 18 19  2  0
 19 20  1  0
 20 21  2  0
  2 22  1  0
 22 23  2  0
 23 24  1  0
 24 25  2  0
 25 26  1  0
 26 27  2  0
 27 28  1  0
 28 29  2  0
 29 30  1  0
 30 31  2  0
 12  7  1  0
 21 16  1  0
 31 22  1  0
 30 25  1  0
  3 32  1  0
  4 33  1  0
  4 34  1  0
  8 35  1  0
  8 36  1  0
  9 37  1  6
 10 38  1  0
 11 39  1  0
 11 40  1  0
 12 41  1  1
 13 42  1  0
 13 43  1  0
 15 44  1  0
 15 45  1  0
 17 46  1  0
 18 47  1  0
 19 48  1  0
 20 49  1  0
 21 50  1  0
 23 51  1  0
 24 52  1  0
 26 53  1  0
 27 54  1  0
 28 55  1  0
 29 56  1  0
M  END
>  <smiles>  (6) 
O=C(NCC(=O)N1C[C@H](O)C[C@H]1COCc1ccccc1)c1ccc2ccccc2n1

>  <score_type>  (6) 
oracle

>  <origin>  (6) 
autodockgpu

>  <m_score__min__energy>  (6) 
-9

>  <m_primary>  (6) 
energy

>  <meeko>  (6) 
{"free_energy": -8.7, "intermolecular_energy": -11.38, "internal_energy": -2.71, "cluster_size": 6, "cluster_id": 2, "rank_in_cluster": 4}

>  <energy>  (6) 
-7.79

>  <cluster_rmsd>  (6) 
1.73

>  <rmsd>  (6) 
270.84

>  <cluster>  (6) 
1

$$$$

     RDKit          3D

 56 59  0  0  0  0  0  0  0  0999 V2000
  138.9030   75.2210  221.8860 O   0  0  0  0  0  0  0  0  0  0  0  0
  140.0530   75.7280  221.9480 C   0  0  0  0  0  0  0  0  0  0  0  0
  141.2150   74.9910  221.5740 N   0  0  0  0  0  0  0  0  0  0  0  0
  141.1250   73.6250  221.1070 C   0  0  0  0  0  0  0  0  0  0  0  0
  141.7970   73.4510  219.7940 C   0  0  0  0  0  0  0  0  0  0  0  0
  141.1370   73.1390  218.7450 O   0  0  0  0  0  0  0  0  0  0  0  0
  143.2040   73.6470  219.7570 N   0  0  0  0  0  0  0  0  0  0  0  0
  144.2360   72.8590  219.1150 C   0  0  0  0  0  0  0  0  0  0  0  0
  145.3160   72.9000  220.2010 C   0  0  2  0  0  0  0  0  0  0  0  0
  144.8020   72.2660  221.3120 O   0  0  0  0  0  0  0  0  0  0  0  0
  145.3520   74.3860  220.4880 C   0  0  0  0  0  0  0  0  0  0  0  0
  143.8860   74.7480  220.4080 C   0  0  1  0  0  0  0  0  0  0  0  0
  143.7170   76.0520  219.6500 C   0  0  0  0  0  0  0  0  0  0  0  0
  142.5060   76.6420  219.8810 O   0  0  0  0  0  0  0  0  0  0  0  0
  141.9700   77.2910  218.7810 C   0  0  0  0  0  0  0  0  0  0  0  0
  141.9220   78.7470  218.8870 C   0  0  0  0  0  0  0  0  0  0  0  0
  142.6500   79.5150  218.0000 C   0  0  0  0  0  0  0  0  0  0  0  0
  142.5890   80.8920  218.1180 C   0  0  0  0  0  0  0  0  0  0  0  0
  141.8170   81.5120  219.1030 C   0  0  0  0  0  0  0  0  0  0  0  0
  141.0840   80.7350  219.9960 C   0  0  0  0  0  0  0  0  0  0  0  0
  141.1570   79.3440  219.8610 C   0  0  0  0  0  0  0  0  0  0  0  0
  140.2310   77.1020  222.4080 C   0  0  0  0  0  0  0  0  0  0  0  0
  139.1020   77.8670  222.7120 C   0  0  0  0  0  0  0  0  0  0  0  0
  139.2440   79.1710  223.1510 C   0  0  0  0  0  0  0  0  0  0  0  0
  140.5140   79.7180  223.2870 C   0  0  0  0  0  0  0  0  0  0  0  0
  140.7120   81.0110  223.7200 C   0  0  0  0  0  0  0  0  0  0  0  0
  141.9680   81.5750  223.8630 C   0  0  0  0  0  0  0  0  0  0  0  0
  143.0650   80.7790  223.5490 C   0  0  0  0  0  0  0  0  0  0  0  0
  142.8810   79.4850  223.1160 C   0  0  0  0  0  0  0  0  0  0  0  0
  141.6240   78.9340  222.9770 C   0  0  0  0  0  0  0  0  0  0  0  0
  141.4400   77.6740  222.5560 N   0  0  0  0  0  0  0  0  0  0  0  0
  142.1560   75.4500  221.6400 H   0  0  0  0  0  0  0  0  0  0  0  0
  141.6042   72.9635  221.8438 H   0  0  0  0  0  0  0  0  0  0  0  0
  140.0614   73.3722  220.9854 H   0  0  0  0  0  0  0  0  0  0  0  0
  143.8989   71.8316  218.9131 H   0  0  0  0  0  0  0  0  0  0  0  0
  144.5556   73.2286  218.1295 H   0  0  0  0  0  0  0  0  0  0  0  0
  146.2828   72.4460  219.9380 H   0  0  0  0  0  0  0  0  0  0  0  0
  145.5100   71.9080  221.9190 H   0  0  0  0  0  0  0  0  0  0  0  0
  145.7621   74.5917  221.4878 H   0  0  0  0  0  0  0  0  0  0  0  0
  145.9920   74.9587  219.8006 H   0  0  0  0  0  0  0  0  0  0  0  0
  143.4535   74.9040  221.4073 H   0  0  0  0  0  0  0  0  0  0  0  0
  144.5118   76.7458  219.9613 H   0  0  0  0  0  0  0  0  0  0  0  0
  143.7759   75.8225  218.5758 H   0  0  0  0  0  0  0  0  0  0  0  0
  142.5788   77.0326  217.9020 H   0  0  0  0  0  0  0  0  0  0  0  0
  140.9259   76.9535  218.7032 H   0  0  0  0  0  0  0  0  0  0  0  0
  143.2637   79.0433  217.2184 H   0  0  0  0  0  0  0  0  0  0  0  0
  143.1639   81.5153  217.4173 H   0  0  0  0  0  0  0  0  0  0  0  0
  141.7882   82.6094  219.1729 H   0  0  0  0  0  0  0  0  0  0  0  0
  140.4685   81.1987  220.7809 H   0  0  0  0  0  0  0  0  0  0  0  0
  140.5855   78.7096  220.5545 H   0  0  0  0  0  0  0  0  0  0  0  0
  138.0980   77.4313  222.6020 H   0  0  0  0  0  0  0  0  0  0  0  0
  138.3550   79.7726  223.3915 H   0  0  0  0  0  0  0  0  0  0  0  0
  139.8312   81.6234  223.9633 H   0  0  0  0  0  0  0  0  0  0  0  0
  142.0937   82.6109  224.2109 H   0  0  0  0  0  0  0  0  0  0  0  0
  144.0827   81.1848  223.6470 H   0  0  0  0  0  0  0  0  0  0  0  0
  143.7621   78.8727  222.8738 H   0  0  0  0  0  0  0  0  0  0  0  0
  1  2  2  0
  2  3  1  0
  3  4  1  0
  4  5  1  0
  5  6  2  0
  5  7  1  0
  7  8  1  0
  8  9  1  0
  9 10  1  0
  9 11  1  0
 11 12  1  0
 12 13  1  0
 13 14  1  0
 14 15  1  0
 15 16  1  0
 16 17  2  0
 17 18  1  0
 18 19  2  0
 19 20  1  0
 20 21  2  0
  2 22  1  0
 22 23  2  0
 23 24  1  0
 24 25  2  0
 25 26  1  0
 26 27  2  0
 27 28  1  0
 28 29  2  0
 29 30  1  0
 30 31  2  0
 12  7  1  0
 21 16  1  0
 31 22  1  0
 30 25  1  0
  3 32  1  0
  4 33  1  0
  4 34  1  0
  8 35  1  0
  8 36  1  0
  9 37  1  6
 10 38  1  0
 11 39  1  0
 11 40  1  0
 12 41  1  1
 13 42  1  0
 13 43  1  0
 15 44  1  0
 15 45  1  0
 17 46  1  0
 18 47  1  0
 19 48  1  0
 20 49  1  0
 21 50  1  0
 23 51  1  0
 24 52  1  0
 26 53  1  0
 27 54  1  0
 28 55  1  0
 29 56  1  0
M  END
>  <smiles>  (7) 
O=C(NCC(=O)N1C[C@H](O)C[C@H]1COCc1ccccc1)c1ccc2ccccc2n1

>  <score_type>  (7) 
oracle

>  <origin>  (7) 
autodockgpu

>  <m_score__min__energy>  (7) 
-9

>  <m_primary>  (7) 
energy

>  <meeko>  (7) 
{"free_energy": -7.23, "intermolecular_energy": -9.92, "internal_energy": -3.66, "cluster_size": 4, "cluster_id": 4, "rank_in_cluster": 1}

>  <energy>  (7) 
-7.24

>  <cluster_rmsd>  (7) 
1.93

>  <rmsd>  (7) 
270.3

>  <cluster>  (7) 
1

$$$$

     RDKit          3D

 56 59  0  0  0  0  0  0  0  0999 V2000
  136.9440   70.9570  221.4760 O   0  0  0  0  0  0  0  0  0  0  0  0
  137.5970   71.5850  222.3500 C   0  0  0  0  0  0  0  0  0  0  0  0
  137.6930   73.0070  222.3310 N   0  0  0  0  0  0  0  0  0  0  0  0
  137.0440   73.7950  221.3070 C   0  0  0  0  0  0  0  0  0  0  0  0
  137.9370   74.0160  220.1400 C   0  0  0  0  0  0  0  0  0  0  0  0
  137.4720   74.0940  218.9520 O   0  0  0  0  0  0  0  0  0  0  0  0
  139.3270   74.1350  220.4050 N   0  0  0  0  0  0  0  0  0  0  0  0
  140.3750   73.1370  220.3400 C   0  0  0  0  0  0  0  0  0  0  0  0
  141.1750   73.5100  221.5940 C   0  0  2  0  0  0  0  0  0  0  0  0
  140.3460   73.3160  222.6790 O   0  0  0  0  0  0  0  0  0  0  0  0
  141.3240   75.0020  221.3830 C   0  0  0  0  0  0  0  0  0  0  0  0
  139.9710   75.3670  220.8150 C   0  0  1  0  0  0  0  0  0  0  0  0
  140.1410   76.3350  219.6600 C   0  0  0  0  0  0  0  0  0  0  0  0
  140.2970   77.6280  220.0740 O   0  0  0  0  0  0  0  0  0  0  0  0
  141.5930   77.9590  220.4320 C   0  0  0  0  0  0  0  0  0  0  0  0
  141.7100   78.7980  221.6210 C   0  0  0  0  0  0  0  0  0  0  0  0
  142.1000   80.1160  221.4850 C   0  0  0  0  0  0  0  0  0  0  0  0
  142.2040   80.8930  222.6250 C   0  0  0  0  0  0  0  0  0  0  0  0
  141.9270   80.3790  223.8930 C   0  0  0  0  0  0  0  0  0  0  0  0
  141.5330   79.0500  224.0280 C   0  0  0  0  0  0  0  0  0  0  0  0
  141.4340   78.2790  222.8640 C   0  0  0  0  0  0  0  0  0  0  0  0
  138.2820   70.8650  223.4190 C   0  0  0  0  0  0  0  0  0  0  0  0
  138.1690   69.4730  223.4800 C   0  0  0  0  0  0  0  0  0  0  0  0
  138.8100   68.7680  224.4830 C   0  0  0  0  0  0  0  0  0  0  0  0
  139.5650   69.4490  225.4310 C   0  0  0  0  0  0  0  0  0  0  0  0
  140.2240   68.7960  226.4500 C   0  0  0  0  0  0  0  0  0  0  0  0
  140.9810   69.4540  227.4030 C   0  0  0  0  0  0  0  0  0  0  0  0
  141.0670   70.8400  227.3050 C   0  0  0  0  0  0  0  0  0  0  0  0
  140.4150   71.5040  226.2910 C   0  0  0  0  0  0  0  0  0  0  0  0
  139.6620   70.8370  225.3470 C   0  0  0  0  0  0  0  0  0  0  0  0
  139.0250   71.4810  224.3570 N   0  0  0  0  0  0  0  0  0  0  0  0
  138.2480   73.4940  223.0780 H   0  0  0  0  0  0  0  0  0  0  0  0
  136.1396   73.2673  220.9698 H   0  0  0  0  0  0  0  0  0  0  0  0
  136.7893   74.7752  221.7363 H   0  0  0  0  0  0  0  0  0  0  0  0
  139.9709   72.1158  220.4022 H   0  0  0  0  0  0  0  0  0  0  0  0
  140.9541   73.1331  219.4048 H   0  0  0  0  0  0  0  0  0  0  0  0
  142.1140   72.9587  221.7502 H   0  0  0  0  0  0  0  0  0  0  0  0
  139.9430   72.4030  222.7030 H   0  0  0  0  0  0  0  0  0  0  0  0
  141.5147   75.5243  222.3321 H   0  0  0  0  0  0  0  0  0  0  0  0
  142.1697   75.2797  220.7367 H   0  0  0  0  0  0  0  0  0  0  0  0
  139.3424   75.8733  221.5624 H   0  0  0  0  0  0  0  0  0  0  0  0
  141.0296   76.0409  219.0823 H   0  0  0  0  0  0  0  0  0  0  0  0
  139.2262   76.2893  219.0509 H   0  0  0  0  0  0  0  0  0  0  0  0
  142.1446   77.0256  220.6175 H   0  0  0  0  0  0  0  0  0  0  0  0
  142.0008   78.5493  219.5982 H   0  0  0  0  0  0  0  0  0  0  0  0
  142.3226   80.5379  220.4938 H   0  0  0  0  0  0  0  0  0  0  0  0
  142.5133   81.9443  222.5296 H   0  0  0  0  0  0  0  0  0  0  0  0
  142.0195   81.0208  224.7816 H   0  0  0  0  0  0  0  0  0  0  0  0
  141.3074   78.6210  225.0154 H   0  0  0  0  0  0  0  0  0  0  0  0
  141.1261   77.2262  222.9461 H   0  0  0  0  0  0  0  0  0  0  0  0
  137.5695   68.9373  222.7293 H   0  0  0  0  0  0  0  0  0  0  0  0
  138.7225   67.6725  224.5302 H   0  0  0  0  0  0  0  0  0  0  0  0
  140.1445   67.7004  226.5084 H   0  0  0  0  0  0  0  0  0  0  0  0
  141.4942   68.9042  228.2057 H   0  0  0  0  0  0  0  0  0  0  0  0
  141.6578   71.4061  228.0401 H   0  0  0  0  0  0  0  0  0  0  0  0
  140.4968   72.5993  226.2315 H   0  0  0  0  0  0  0  0  0  0  0  0
  1  2  2  0
  2  3  1  0
  3  4  1  0
  4  5  1  0
  5  6  2  0
  5  7  1  0
  7  8  1  0
  8  9  1  0
  9 10  1  0
  9 11  1  0
 11 12  1  0
 12 13  1  0
 13 14  1  0
 14 15  1  0
 15 16  1  0
 16 17  2  0
 17 18  1  0
 18 19  2  0
 19 20  1  0
 20 21  2  0
  2 22  1  0
 22 23  2  0
 23 24  1  0
 24 25  2  0
 25 26  1  0
 26 27  2  0
 27 28  1  0
 28 29  2  0
 29 30  1  0
 30 31  2  0
 12  7  1  0
 21 16  1  0
 31 22  1  0
 30 25  1  0
  3 32  1  0
  4 33  1  0
  4 34  1  0
  8 35  1  0
  8 36  1  0
  9 37  1  1
 10 38  1  0
 11 39  1  0
 11 40  1  0
 12 41  1  1
 13 42  1  0
 13 43  1  0
 15 44  1  0
 15 45  1  0
 17 46  1  0
 18 47  1  0
 19 48  1  0
 20 49  1  0
 21 50  1  0
 23 51  1  0
 24 52  1  0
 26 53  1  0
 27 54  1  0
 28 55  1  0
 29 56  1  0
M  END
>  <smiles>  (8) 
O=C(NCC(=O)N1C[C@H](O)C[C@H]1COCc1ccccc1)c1ccc2ccccc2n1

>  <score_type>  (8) 
oracle

>  <origin>  (8) 
autodockgpu

>  <m_score__min__energy>  (8) 
-9

>  <m_primary>  (8) 
energy

>  <meeko>  (8) 
{"free_energy": -7.24, "intermolecular_energy": -9.93, "internal_energy": -3.3, "cluster_size": 8, "cluster_id": 1, "rank_in_cluster": 7}

>  <energy>  (8) 
-7.17

>  <cluster_rmsd>  (8) 
1.95

>  <rmsd>  (8) 
270.29

>  <cluster>  (8) 
1

$$$$

     RDKit          3D

 56 59  0  0  0  0  0  0  0  0999 V2000
  138.4370   75.6660  221.8440 O   0  0  0  0  0  0  0  0  0  0  0  0
  139.6430   75.9970  221.9860 C   0  0  0  0  0  0  0  0  0  0  0  0
  140.7050   75.0930  221.6890 N   0  0  0  0  0  0  0  0  0  0  0  0
  140.4460   73.7530  221.2090 C   0  0  0  0  0  0  0  0  0  0  0  0
  139.9620   72.8670  222.3000 C   0  0  0  0  0  0  0  0  0  0  0  0
  140.7220   72.5350  223.2730 O   0  0  0  0  0  0  0  0  0  0  0  0
  138.6210   72.4070  222.2120 N   0  0  0  0  0  0  0  0  0  0  0  0
  137.6300   72.6250  221.1770 C   0  0  0  0  0  0  0  0  0  0  0  0
  136.3860   72.8490  222.0440 C   0  0  2  0  0  0  0  0  0  0  0  0
  136.6090   73.9870  222.7910 O   0  0  0  0  0  0  0  0  0  0  0  0
  136.4870   71.6570  222.9720 C   0  0  0  0  0  0  0  0  0  0  0  0
  137.9780   71.5860  223.2180 C   0  0  1  0  0  0  0  0  0  0  0  0
  138.4430   70.1430  223.1590 C   0  0  0  0  0  0  0  0  0  0  0  0
  138.6730   69.6140  224.3980 O   0  0  0  0  0  0  0  0  0  0  0  0
  140.0010   69.6410  224.7900 C   0  0  0  0  0  0  0  0  0  0  0  0
  140.2690   70.4000  226.0090 C   0  0  0  0  0  0  0  0  0  0  0  0
  139.7030   69.9910  227.2000 C   0  0  0  0  0  0  0  0  0  0  0  0
  139.9710   70.7250  228.3420 C   0  0  0  0  0  0  0  0  0  0  0  0
  140.7900   71.8550  228.3140 C   0  0  0  0  0  0  0  0  0  0  0  0
  141.3600   72.2650  227.1120 C   0  0  0  0  0  0  0  0  0  0  0  0
  141.0780   71.5110  225.9670 C   0  0  0  0  0  0  0  0  0  0  0  0
  139.9920   77.3300  222.4660 C   0  0  0  0  0  0  0  0  0  0  0  0
  138.9690   78.2040  222.8450 C   0  0  0  0  0  0  0  0  0  0  0  0
  139.2730   79.4730  223.3030 C   0  0  0  0  0  0  0  0  0  0  0  0
  140.6010   79.8770  223.3840 C   0  0  0  0  0  0  0  0  0  0  0  0
  140.9590   81.1300  223.8320 C   0  0  0  0  0  0  0  0  0  0  0  0
  142.2740   81.5520  223.9200 C   0  0  0  0  0  0  0  0  0  0  0  0
  143.2610   80.6510  223.5320 C   0  0  0  0  0  0  0  0  0  0  0  0
  142.9170   79.3970  223.0820 C   0  0  0  0  0  0  0  0  0  0  0  0
  141.6020   78.9870  222.9980 C   0  0  0  0  0  0  0  0  0  0  0  0
  141.2620   77.7660  222.5610 N   0  0  0  0  0  0  0  0  0  0  0  0
  141.6980   75.4070  221.8210 H   0  0  0  0  0  0  0  0  0  0  0  0
  139.6815   73.7978  220.4194 H   0  0  0  0  0  0  0  0  0  0  0  0
  141.3875   73.3381  220.8198 H   0  0  0  0  0  0  0  0  0  0  0  0
  137.8659   73.5083  220.5653 H   0  0  0  0  0  0  0  0  0  0  0  0
  137.5419   71.8124  220.4408 H   0  0  0  0  0  0  0  0  0  0  0  0
  135.4327   72.9484  221.5043 H   0  0  0  0  0  0  0  0  0  0  0  0
  137.5690   74.1110  223.0340 H   0  0  0  0  0  0  0  0  0  0  0  0
  135.9339   71.8288  223.9072 H   0  0  0  0  0  0  0  0  0  0  0  0
  136.0577   70.7320  222.5595 H   0  0  0  0  0  0  0  0  0  0  0  0
  138.2406   71.9627  224.2176 H   0  0  0  0  0  0  0  0  0  0  0  0
  137.6686   69.5435  222.6581 H   0  0  0  0  0  0  0  0  0  0  0  0
  139.3935   70.1216  222.6058 H   0  0  0  0  0  0  0  0  0  0  0  0
  140.3296   68.6041  224.9543 H   0  0  0  0  0  0  0  0  0  0  0  0
  140.5495   70.1501  223.9838 H   0  0  0  0  0  0  0  0  0  0  0  0
  139.0548   69.1032  227.2401 H   0  0  0  0  0  0  0  0  0  0  0  0
  139.5267   70.4095  229.2975 H   0  0  0  0  0  0  0  0  0  0  0  0
  140.9842   72.4193  229.2381 H   0  0  0  0  0  0  0  0  0  0  0  0
  142.0098   73.1512  227.0637 H   0  0  0  0  0  0  0  0  0  0  0  0
  141.5164   71.8162  225.0054 H   0  0  0  0  0  0  0  0  0  0  0  0
  137.9194   77.8815  222.7788 H   0  0  0  0  0  0  0  0  0  0  0  0
  138.4675   80.1599  223.6020 H   0  0  0  0  0  0  0  0  0  0  0  0
  140.1630   81.8267  224.1335 H   0  0  0  0  0  0  0  0  0  0  0  0
  142.5288   82.5590  224.2820 H   0  0  0  0  0  0  0  0  0  0  0  0
  144.3204   80.9424  223.5852 H   0  0  0  0  0  0  0  0  0  0  0  0
  143.7136   78.7009  222.7804 H   0  0  0  0  0  0  0  0  0  0  0  0
  1  2  2  0
  2  3  1  0
  3  4  1  0
  4  5  1  0
  5  6  2  0
  5  7  1  0
  7  8  1  0
  8  9  1  0
  9 10  1  0
  9 11  1  0
 11 12  1  0
 12 13  1  0
 13 14  1  0
 14 15  1  0
 15 16  1  0
 16 17  2  0
 17 18  1  0
 18 19  2  0
 19 20  1  0
 20 21  2  0
  2 22  1  0
 22 23  2  0
 23 24  1  0
 24 25  2  0
 25 26  1  0
 26 27  2  0
 27 28  1  0
 28 29  2  0
 29 30  1  0
 30 31  2  0
 12  7  1  0
 21 16  1  0
 31 22  1  0
 30 25  1  0
  3 32  1  0
  4 33  1  0
  4 34  1  0
  8 35  1  0
  8 36  1  0
  9 37  1  6
 10 38  1  0
 11 39  1  0
 11 40  1  0
 12 41  1  1
 13 42  1  0
 13 43  1  0
 15 44  1  0
 15 45  1  0
 17 46  1  0
 18 47  1  0
 19 48  1  0
 20 49  1  0
 21 50  1  0
 23 51  1  0
 24 52  1  0
 26 53  1  0
 27 54  1  0
 28 55  1  0
 29 56  1  0
M  END
>  <smiles>  (9) 
O=C(NCC(=O)N1C[C@H](O)C[C@H]1COCc1ccccc1)c1ccc2ccccc2n1

>  <score_type>  (9) 
oracle

>  <origin>  (9) 
autodockgpu

>  <m_score__min__energy>  (9) 
-9

>  <m_primary>  (9) 
energy

>  <meeko>  (9) 
{"free_energy": -8.78, "intermolecular_energy": -11.46, "internal_energy": -2.72, "cluster_size": 6, "cluster_id": 2, "rank_in_cluster": 3}

>  <energy>  (9) 
-8.84

>  <cluster_rmsd>  (9) 
0.0

>  <rmsd>  (9) 
271.09

>  <cluster>  (9) 
2

$$$$

     RDKit          3D

 56 59  0  0  0  0  0  0  0  0999 V2000
  139.8020   71.7020  221.5490 O   0  0  0  0  0  0  0  0  0  0  0  0
  139.1740   71.8430  222.6300 C   0  0  0  0  0  0  0  0  0  0  0  0
  137.9890   72.6330  222.7070 N   0  0  0  0  0  0  0  0  0  0  0  0
  137.4550   73.3090  221.5460 C   0  0  0  0  0  0  0  0  0  0  0  0
  137.5540   74.7860  221.6800 C   0  0  0  0  0  0  0  0  0  0  0  0
  136.5400   75.4940  222.0020 O   0  0  0  0  0  0  0  0  0  0  0  0
  138.8240   75.3720  221.4330 N   0  0  0  0  0  0  0  0  0  0  0  0
  139.7580   75.1450  220.3480 C   0  0  0  0  0  0  0  0  0  0  0  0
  141.0770   75.1550  221.1280 C   0  0  2  0  0  0  0  0  0  0  0  0
  141.0390   74.0920  222.0060 O   0  0  0  0  0  0  0  0  0  0  0  0
  140.9060   76.4270  221.9310 C   0  0  0  0  0  0  0  0  0  0  0  0
  139.4380   76.3660  222.2900 C   0  0  1  0  0  0  0  0  0  0  0  0
  138.8080   77.7360  222.1190 C   0  0  0  0  0  0  0  0  0  0  0  0
  138.4150   78.2860  223.3070 O   0  0  0  0  0  0  0  0  0  0  0  0
  138.7700   79.6150  223.4630 C   0  0  0  0  0  0  0  0  0  0  0  0
  140.1750   79.9150  223.1970 C   0  0  0  0  0  0  0  0  0  0  0  0
  141.1560   79.1960  223.8500 C   0  0  0  0  0  0  0  0  0  0  0  0
  142.4810   79.4960  223.5820 C   0  0  0  0  0  0  0  0  0  0  0  0
  142.8390   80.4980  222.6780 C   0  0  0  0  0  0  0  0  0  0  0  0
  141.8470   81.2210  222.0210 C   0  0  0  0  0  0  0  0  0  0  0  0
  140.5140   80.9040  222.3040 C   0  0  0  0  0  0  0  0  0  0  0  0
  139.6470   71.1940  223.8490 C   0  0  0  0  0  0  0  0  0  0  0  0
  140.5690   71.8620  224.6590 C   0  0  0  0  0  0  0  0  0  0  0  0
  141.0310   71.2680  225.8190 C   0  0  0  0  0  0  0  0  0  0  0  0
  140.5770   70.0040  226.1770 C   0  0  0  0  0  0  0  0  0  0  0  0
  141.0050   69.3680  227.3210 C   0  0  0  0  0  0  0  0  0  0  0  0
  140.5650   68.1100  227.6950 C   0  0  0  0  0  0  0  0  0  0  0  0
  139.6470   67.4810  226.8590 C   0  0  0  0  0  0  0  0  0  0  0  0
  139.2100   68.1050  225.7130 C   0  0  0  0  0  0  0  0  0  0  0  0
  139.6570   69.3600  225.3510 C   0  0  0  0  0  0  0  0  0  0  0  0
  139.2340   69.9720  224.2350 N   0  0  0  0  0  0  0  0  0  0  0  0
  137.4940   72.7260  223.6280 H   0  0  0  0  0  0  0  0  0  0  0  0
  138.0202   72.9924  220.6570 H   0  0  0  0  0  0  0  0  0  0  0  0
  136.3921   73.0423  221.4508 H   0  0  0  0  0  0  0  0  0  0  0  0
  139.5829   74.1779  219.8539 H   0  0  0  0  0  0  0  0  0  0  0  0
  139.6998   75.8733  219.5257 H   0  0  0  0  0  0  0  0  0  0  0  0
  141.9950   75.0973  220.5247 H   0  0  0  0  0  0  0  0  0  0  0  0
  140.7310   73.2440  221.5770 H   0  0  0  0  0  0  0  0  0  0  0  0
  141.5395   76.4221  222.8302 H   0  0  0  0  0  0  0  0  0  0  0  0
  141.1965   77.3397  221.3901 H   0  0  0  0  0  0  0  0  0  0  0  0
  139.2909   76.0788  223.3416 H   0  0  0  0  0  0  0  0  0  0  0  0
  139.5425   78.4051  221.6469 H   0  0  0  0  0  0  0  0  0  0  0  0
  137.9102   77.6142  221.4952 H   0  0  0  0  0  0  0  0  0  0  0  0
  138.1569   80.2149  222.7744 H   0  0  0  0  0  0  0  0  0  0  0  0
  138.5999   79.8559  224.5227 H   0  0  0  0  0  0  0  0  0  0  0  0
  140.8915   78.4039  224.5660 H   0  0  0  0  0  0  0  0  0  0  0  0
  143.2725   78.9299  224.0949 H   0  0  0  0  0  0  0  0  0  0  0  0
  143.9001   80.7152  222.4857 H   0  0  0  0  0  0  0  0  0  0  0  0
  142.1027   82.0147  221.3036 H   0  0  0  0  0  0  0  0  0  0  0  0
  139.7134   81.4626  221.7970 H   0  0  0  0  0  0  0  0  0  0  0  0
  140.9278   72.8619  224.3734 H   0  0  0  0  0  0  0  0  0  0  0  0
  141.7561   71.7945  226.4570 H   0  0  0  0  0  0  0  0  0  0  0  0
  141.7303   69.8836  227.9676 H   0  0  0  0  0  0  0  0  0  0  0  0
  140.9260   67.6272  228.6151 H   0  0  0  0  0  0  0  0  0  0  0  0
  139.2690   66.4804  227.1156 H   0  0  0  0  0  0  0  0  0  0  0  0
  138.4841   67.5893  225.0672 H   0  0  0  0  0  0  0  0  0  0  0  0
  1  2  2  0
  2  3  1  0
  3  4  1  0
  4  5  1  0
  5  6  2  0
  5  7  1  0
  7  8  1  0
  8  9  1  0
  9 10  1  0
  9 11  1  0
 11 12  1  0
 12 13  1  0
 13 14  1  0
 14 15  1  0
 15 16  1  0
 16 17  2  0
 17 18  1  0
 18 19  2  0
 19 20  1  0
 20 21  2  0
  2 22  1  0
 22 23  2  0
 23 24  1  0
 24 25  2  0
 25 26  1  0
 26 27  2  0
 27 28  1  0
 28 29  2  0
 29 30  1  0
 30 31  2  0
 12  7  1  0
 21 16  1  0
 31 22  1  0
 30 25  1  0
  3 32  1  0
  4 33  1  0
  4 34  1  0
  8 35  1  0
  8 36  1  0
  9 37  1  6
 10 38  1  0
 11 39  1  0
 11 40  1  0
 12 41  1  1
 13 42  1  0
 13 43  1  0
 15 44  1  0
 15 45  1  0
 17 46  1  0
 18 47  1  0
 19 48  1  0
 20 49  1  0
 21 50  1  0
 23 51  1  0
 24 52  1  0
 26 53  1  0
 27 54  1  0
 28 55  1  0
 29 56  1  0
M  END
>  <smiles>  (10) 
O=C(NCC(=O)N1C[C@H](O)C[C@H]1COCc1ccccc1)c1ccc2ccccc2n1

>  <score_type>  (10) 
oracle

>  <origin>  (10) 
autodockgpu

>  <m_score__min__energy>  (10) 
-9

>  <m_primary>  (10) 
energy

>  <meeko>  (10) 
{"free_energy": -8.43, "intermolecular_energy": -11.11, "internal_energy": -2.51, "cluster_size": 8, "cluster_id": 1, "rank_in_cluster": 5}

>  <energy>  (10) 
-8.78

>  <cluster_rmsd>  (10) 
0.99

>  <rmsd>  (10) 
271.18

>  <cluster>  (10) 
2

$$$$

     RDKit          3D

 56 59  0  0  0  0  0  0  0  0999 V2000
  140.6250   71.3530  221.3040 O   0  0  0  0  0  0  0  0  0  0  0  0
  140.2300   71.9330  222.3490 C   0  0  0  0  0  0  0  0  0  0  0  0
  139.9120   73.3230  222.3560 N   0  0  0  0  0  0  0  0  0  0  0  0
  140.0280   74.1310  221.1620 C   0  0  0  0  0  0  0  0  0  0  0  0
  140.1920   75.5710  221.4910 C   0  0  0  0  0  0  0  0  0  0  0  0
  139.8650   76.0320  222.6370 O   0  0  0  0  0  0  0  0  0  0  0  0
  140.7280   76.4080  220.4760 N   0  0  0  0  0  0  0  0  0  0  0  0
  141.1680   76.0780  219.1350 C   0  0  0  0  0  0  0  0  0  0  0  0
  142.4280   76.9460  219.0500 C   0  0  2  0  0  0  0  0  0  0  0  0
  143.3070   76.4840  220.0070 O   0  0  0  0  0  0  0  0  0  0  0  0
  141.8750   78.2720  219.5260 C   0  0  0  0  0  0  0  0  0  0  0  0
  140.9380   77.8340  220.6290 C   0  0  1  0  0  0  0  0  0  0  0  0
  139.6400   78.6150  220.5440 C   0  0  0  0  0  0  0  0  0  0  0  0
  138.8310   78.4100  221.6260 O   0  0  0  0  0  0  0  0  0  0  0  0
  138.8270   79.4510  222.5390 C   0  0  0  0  0  0  0  0  0  0  0  0
  140.1490   79.8840  222.9870 C   0  0  0  0  0  0  0  0  0  0  0  0
  140.9550   78.9980  223.6740 C   0  0  0  0  0  0  0  0  0  0  0  0
  142.2030   79.4300  224.0880 C   0  0  0  0  0  0  0  0  0  0  0  0
  142.6560   80.7250  223.8300 C   0  0  0  0  0  0  0  0  0  0  0  0
  141.8410   81.6160  223.1370 C   0  0  0  0  0  0  0  0  0  0  0  0
  140.5830   81.1620  222.7260 C   0  0  0  0  0  0  0  0  0  0  0  0
  140.0860   71.1890  223.5960 C   0  0  0  0  0  0  0  0  0  0  0  0
  139.5170   69.9130  223.5630 C   0  0  0  0  0  0  0  0  0  0  0  0
  139.3700   69.1880  224.7320 C   0  0  0  0  0  0  0  0  0  0  0  0
  139.7880   69.7340  225.9400 C   0  0  0  0  0  0  0  0  0  0  0  0
  139.6640   69.0550  227.1330 C   0  0  0  0  0  0  0  0  0  0  0  0
  140.0740   69.5800  228.3460 C   0  0  0  0  0  0  0  0  0  0  0  0
  140.6350   70.8540  228.3330 C   0  0  0  0  0  0  0  0  0  0  0  0
  140.7640   71.5430  227.1490 C   0  0  0  0  0  0  0  0  0  0  0  0
  140.3510   71.0090  225.9450 C   0  0  0  0  0  0  0  0  0  0  0  0
  140.4760   71.6770  224.7890 N   0  0  0  0  0  0  0  0  0  0  0  0
  139.5860   73.7690  223.2480 H   0  0  0  0  0  0  0  0  0  0  0  0
  140.9028   73.7942  220.5864 H   0  0  0  0  0  0  0  0  0  0  0  0
  139.1044   74.0145  220.5761 H   0  0  0  0  0  0  0  0  0  0  0  0
  141.4014   75.0079  219.0332 H   0  0  0  0  0  0  0  0  0  0  0  0
  140.4248   76.2598  218.3446 H   0  0  0  0  0  0  0  0  0  0  0  0
  142.9332   76.9692  218.0732 H   0  0  0  0  0  0  0  0  0  0  0  0
  143.7630   77.2200  220.5040 H   0  0  0  0  0  0  0  0  0  0  0  0
  142.6725   78.9238  219.9123 H   0  0  0  0  0  0  0  0  0  0  0  0
  141.3895   78.8633  218.7357 H   0  0  0  0  0  0  0  0  0  0  0  0
  141.3630   78.0342  221.6236 H   0  0  0  0  0  0  0  0  0  0  0  0
  139.8776   79.6871  220.4800 H   0  0  0  0  0  0  0  0  0  0  0  0
  139.0987   78.2652  219.6526 H   0  0  0  0  0  0  0  0  0  0  0  0
  138.3256   80.3120  222.0728 H   0  0  0  0  0  0  0  0  0  0  0  0
  138.3074   79.0746  223.4325 H   0  0  0  0  0  0  0  0  0  0  0  0
  140.6137   77.9742  223.8870 H   0  0  0  0  0  0  0  0  0  0  0  0
  142.8557   78.7340  224.6352 H   0  0  0  0  0  0  0  0  0  0  0  0
  143.6526   81.0401  224.1728 H   0  0  0  0  0  0  0  0  0  0  0  0
  142.1746   82.6415  222.9201 H   0  0  0  0  0  0  0  0  0  0  0  0
  139.9212   81.8484  222.1775 H   0  0  0  0  0  0  0  0  0  0  0  0
  139.1854   69.4843  222.6058 H   0  0  0  0  0  0  0  0  0  0  0  0
  138.9238   68.1829  224.7056 H   0  0  0  0  0  0  0  0  0  0  0  0
  139.2186   68.0493  227.1204 H   0  0  0  0  0  0  0  0  0  0  0  0
  139.9612   69.0137  229.2823 H   0  0  0  0  0  0  0  0  0  0  0  0
  140.9765   71.3117  229.2731 H   0  0  0  0  0  0  0  0  0  0  0  0
  141.2093   72.5488  227.1623 H   0  0  0  0  0  0  0  0  0  0  0  0
  1  2  2  0
  2  3  1  0
  3  4  1  0
  4  5  1  0
  5  6  2  0
  5  7  1  0
  7  8  1  0
  8  9  1  0
  9 10  1  0
  9 11  1  0
 11 12  1  0
 12 13  1  0
 13 14  1  0
 14 15  1  0
 15 16  1  0
 16 17  2  0
 17 18  1  0
 18 19  2  0
 19 20  1  0
 20 21  2  0
  2 22  1  0
 22 23  2  0
 23 24  1  0
 24 25  2  0
 25 26  1  0
 26 27  2  0
 27 28  1  0
 28 29  2  0
 29 30  1  0
 30 31  2  0
 12  7  1  0
 21 16  1  0
 31 22  1  0
 30 25  1  0
  3 32  1  0
  4 33  1  0
  4 34  1  0
  8 35  1  0
  8 36  1  0
  9 37  1  6
 10 38  1  0
 11 39  1  0
 11 40  1  0
 12 41  1  1
 13 42  1  0
 13 43  1  0
 15 44  1  0
 15 45  1  0
 17 46  1  0
 18 47  1  0
 19 48  1  0
 20 49  1  0
 21 50  1  0
 23 51  1  0
 24 52  1  0
 26 53  1  0
 27 54  1  0
 28 55  1  0
 29 56  1  0
M  END
>  <smiles>  (11) 
O=C(NCC(=O)N1C[C@H](O)C[C@H]1COCc1ccccc1)c1ccc2ccccc2n1

>  <score_type>  (11) 
oracle

>  <origin>  (11) 
autodockgpu

>  <m_score__min__energy>  (11) 
-9

>  <m_primary>  (11) 
energy

>  <meeko>  (11) 
{"free_energy": -8.95, "intermolecular_energy": -11.64, "internal_energy": -2.15, "cluster_size": 8, "cluster_id": 1, "rank_in_cluster": 4}

>  <energy>  (11) 
-8.78

>  <cluster_rmsd>  (11) 
0.99

>  <rmsd>  (11) 
271.21

>  <cluster>  (11) 
2

$$$$

     RDKit          3D

 56 59  0  0  0  0  0  0  0  0999 V2000
  138.8880   75.0510  221.9420 O   0  0  0  0  0  0  0  0  0  0  0  0
  140.0340   75.5580  222.0540 C   0  0  0  0  0  0  0  0  0  0  0  0
  141.2150   74.7920  221.8270 N   0  0  0  0  0  0  0  0  0  0  0  0
  141.1500   73.3950  221.4590 C   0  0  0  0  0  0  0  0  0  0  0  0
  142.4030   72.9450  220.8000 C   0  0  0  0  0  0  0  0  0  0  0  0
  142.8180   71.7410  220.9120 O   0  0  0  0  0  0  0  0  0  0  0  0
  143.1170   73.9110  220.0420 N   0  0  0  0  0  0  0  0  0  0  0  0
  144.1530   74.8370  220.4560 C   0  0  0  0  0  0  0  0  0  0  0  0
  143.7210   76.0840  219.6760 C   0  0  2  0  0  0  0  0  0  0  0  0
  142.4810   76.4530  220.1510 O   0  0  0  0  0  0  0  0  0  0  0  0
  143.5320   75.4860  218.2980 C   0  0  0  0  0  0  0  0  0  0  0  0
  142.9090   74.1480  218.6280 C   0  0  1  0  0  0  0  0  0  0  0  0
  143.5320   73.0630  217.7700 C   0  0  0  0  0  0  0  0  0  0  0  0
  144.7090   72.5970  218.2840 O   0  0  0  0  0  0  0  0  0  0  0  0
  145.2140   71.4840  217.6320 C   0  0  0  0  0  0  0  0  0  0  0  0
  145.1640   70.2430  218.4010 C   0  0  0  0  0  0  0  0  0  0  0  0
  143.9550   69.8050  218.9020 C   0  0  0  0  0  0  0  0  0  0  0  0
  143.9310   68.6260  219.6270 C   0  0  0  0  0  0  0  0  0  0  0  0
  145.0900   67.8830  219.8600 C   0  0  0  0  0  0  0  0  0  0  0  0
  146.3080   68.3280  219.3530 C   0  0  0  0  0  0  0  0  0  0  0  0
  146.3130   69.5210  218.6220 C   0  0  0  0  0  0  0  0  0  0  0  0
  140.1880   76.9620  222.4220 C   0  0  0  0  0  0  0  0  0  0  0  0
  139.0450   77.7440  222.6070 C   0  0  0  0  0  0  0  0  0  0  0  0
  139.1640   79.0770  222.9560 C   0  0  0  0  0  0  0  0  0  0  0  0
  140.4250   79.6370  223.1220 C   0  0  0  0  0  0  0  0  0  0  0  0
  140.6010   80.9590  223.4700 C   0  0  0  0  0  0  0  0  0  0  0  0
  141.8470   81.5350  223.6410 C   0  0  0  0  0  0  0  0  0  0  0  0
  142.9590   80.7210  223.4470 C   0  0  0  0  0  0  0  0  0  0  0  0
  142.7980   79.3990  223.1000 C   0  0  0  0  0  0  0  0  0  0  0  0
  141.5490   78.8350  222.9320 C   0  0  0  0  0  0  0  0  0  0  0  0
  141.3880   77.5470  222.5940 N   0  0  0  0  0  0  0  0  0  0  0  0
  142.1530   75.2520  221.9300 H   0  0  0  0  0  0  0  0  0  0  0  0
  140.9877   72.7940  222.3659 H   0  0  0  0  0  0  0  0  0  0  0  0
  140.3209   73.2644  220.7480 H   0  0  0  0  0  0  0  0  0  0  0  0
  144.1369   75.0089  221.5424 H   0  0  0  0  0  0  0  0  0  0  0  0
  145.1816   74.5003  220.2594 H   0  0  0  0  0  0  0  0  0  0  0  0
  144.4019   76.9464  219.7280 H   0  0  0  0  0  0  0  0  0  0  0  0
  142.5080   76.7790  221.0950 H   0  0  0  0  0  0  0  0  0  0  0  0
  142.8588   76.1011  217.6827 H   0  0  0  0  0  0  0  0  0  0  0  0
  144.4595   75.4144  217.7110 H   0  0  0  0  0  0  0  0  0  0  0  0
  141.8302   74.1414  218.4133 H   0  0  0  0  0  0  0  0  0  0  0  0
  142.8243   72.2243  217.6940 H   0  0  0  0  0  0  0  0  0  0  0  0
  143.7494   73.5014  216.7848 H   0  0  0  0  0  0  0  0  0  0  0  0
  144.6343   71.3370  216.7087 H   0  0  0  0  0  0  0  0  0  0  0  0
  146.2791   71.6907  217.4505 H   0  0  0  0  0  0  0  0  0  0  0  0
  143.0326   70.3789  218.7294 H   0  0  0  0  0  0  0  0  0  0  0  0
  142.9734   68.2649  220.0303 H   0  0  0  0  0  0  0  0  0  0  0  0
  145.0410   66.9505  220.4414 H   0  0  0  0  0  0  0  0  0  0  0  0
  147.2352   67.7607  219.5215 H   0  0  0  0  0  0  0  0  0  0  0  0
  147.2640   69.8921  218.2121 H   0  0  0  0  0  0  0  0  0  0  0  0
  138.0480   77.2984  222.4747 H   0  0  0  0  0  0  0  0  0  0  0  0
  138.2636   79.6918  223.1017 H   0  0  0  0  0  0  0  0  0  0  0  0
  139.7090   81.5853  223.6187 H   0  0  0  0  0  0  0  0  0  0  0  0
  141.9545   82.5938  223.9191 H   0  0  0  0  0  0  0  0  0  0  0  0
  143.9702   81.1357  223.5715 H   0  0  0  0  0  0  0  0  0  0  0  0
  143.6906   78.7733  222.9522 H   0  0  0  0  0  0  0  0  0  0  0  0
  1  2  2  0
  2  3  1  0
  3  4  1  0
  4  5  1  0
  5  6  2  0
  5  7  1  0
  7  8  1  0
  8  9  1  0
  9 10  1  0
  9 11  1  0
 11 12  1  0
 12 13  1  0
 13 14  1  0
 14 15  1  0
 15 16  1  0
 16 17  2  0
 17 18  1  0
 18 19  2  0
 19 20  1  0
 20 21  2  0
  2 22  1  0
 22 23  2  0
 23 24  1  0
 24 25  2  0
 25 26  1  0
 26 27  2  0
 27 28  1  0
 28 29  2  0
 29 30  1  0
 30 31  2  0
 12  7  1  0
 21 16  1  0
 31 22  1  0
 30 25  1  0
  3 32  1  0
  4 33  1  0
  4 34  1  0
  8 35  1  0
  8 36  1  0
  9 37  1  6
 10 38  1  0
 11 39  1  0
 11 40  1  0
 12 41  1  1
 13 42  1  0
 13 43  1  0
 15 44  1  0
 15 45  1  0
 17 46  1  0
 18 47  1  0
 19 48  1  0
 20 49  1  0
 21 50  1  0
 23 51  1  0
 24 52  1  0
 26 53  1  0
 27 54  1  0
 28 55  1  0
 29 56  1  0
M  END
>  <smiles>  (12) 
O=C(NCC(=O)N1C[C@H](O)C[C@H]1COCc1ccccc1)c1ccc2ccccc2n1

>  <score_type>  (12) 
oracle

>  <origin>  (12) 
autodockgpu

>  <m_score__min__energy>  (12) 
-9

>  <m_primary>  (12) 
energy

>  <meeko>  (12) 
{"free_energy": -6.91, "intermolecular_energy": -9.59, "internal_energy": -3.53, "cluster_size": 1, "cluster_id": 5, "rank_in_cluster": 1}

>  <energy>  (12) 
-8.7

>  <cluster_rmsd>  (12) 
1.02

>  <rmsd>  (12) 
271.21

>  <cluster>  (12) 
2

$$$$

     RDKit          3D

 56 59  0  0  0  0  0  0  0  0999 V2000
  140.8350   71.4520  221.3110 O   0  0  0  0  0  0  0  0  0  0  0  0
  140.3590   72.0280  222.3240 C   0  0  0  0  0  0  0  0  0  0  0  0
  139.9930   73.4060  222.2960 N   0  0  0  0  0  0  0  0  0  0  0  0
  140.1520   74.2060  221.1020 C   0  0  0  0  0  0  0  0  0  0  0  0
  140.3300   75.6440  221.4280 C   0  0  0  0  0  0  0  0  0  0  0  0
  140.0670   76.1000  222.5930 O   0  0  0  0  0  0  0  0  0  0  0  0
  140.8040   76.4880  220.3880 N   0  0  0  0  0  0  0  0  0  0  0  0
  141.2520   76.1540  219.0510 C   0  0  0  0  0  0  0  0  0  0  0  0
  142.4560   77.0950  218.9320 C   0  0  2  0  0  0  0  0  0  0  0  0
  143.3690   76.7130  219.8920 O   0  0  0  0  0  0  0  0  0  0  0  0
  141.8250   78.3960  219.3820 C   0  0  0  0  0  0  0  0  0  0  0  0
  140.9260   77.9270  220.5040 C   0  0  1  0  0  0  0  0  0  0  0  0
  139.5820   78.6240  220.4130 C   0  0  0  0  0  0  0  0  0  0  0  0
  138.8120   78.4300  221.5260 O   0  0  0  0  0  0  0  0  0  0  0  0
  138.8170   79.4920  222.4140 C   0  0  0  0  0  0  0  0  0  0  0  0
  140.1410   79.9060  222.8720 C   0  0  0  0  0  0  0  0  0  0  0  0
  140.9470   78.9960  223.5260 C   0  0  0  0  0  0  0  0  0  0  0  0
  142.1980   79.4110  223.9510 C   0  0  0  0  0  0  0  0  0  0  0  0
  142.6530   80.7130  223.7350 C   0  0  0  0  0  0  0  0  0  0  0  0
  141.8380   81.6280  223.0750 C   0  0  0  0  0  0  0  0  0  0  0  0
  140.5770   81.1920  222.6520 C   0  0  0  0  0  0  0  0  0  0  0  0
  140.1670   71.2920  223.5700 C   0  0  0  0  0  0  0  0  0  0  0  0
  139.5170   70.0550  223.5340 C   0  0  0  0  0  0  0  0  0  0  0  0
  139.3230   69.3390  224.7010 C   0  0  0  0  0  0  0  0  0  0  0  0
  139.7760   69.8530  225.9100 C   0  0  0  0  0  0  0  0  0  0  0  0
  139.6090   69.1810  227.1010 C   0  0  0  0  0  0  0  0  0  0  0  0
  140.0520   69.6750  228.3160 C   0  0  0  0  0  0  0  0  0  0  0  0
  140.6940   70.9100  228.3060 C   0  0  0  0  0  0  0  0  0  0  0  0
  140.8680   71.5920  227.1230 C   0  0  0  0  0  0  0  0  0  0  0  0
  140.4210   71.0890  225.9180 C   0  0  0  0  0  0  0  0  0  0  0  0
  140.5890   71.7500  224.7630 N   0  0  0  0  0  0  0  0  0  0  0  0
  139.6000   73.8490  223.1620 H   0  0  0  0  0  0  0  0  0  0  0  0
  141.0358   73.8528  220.5505 H   0  0  0  0  0  0  0  0  0  0  0  0
  139.2418   74.1010  220.4934 H   0  0  0  0  0  0  0  0  0  0  0  0
  141.5496   75.0980  218.9719 H   0  0  0  0  0  0  0  0  0  0  0  0
  140.4921   76.2716  218.2644 H   0  0  0  0  0  0  0  0  0  0  0  0
  142.9511   77.1242  217.9501 H   0  0  0  0  0  0  0  0  0  0  0  0
  143.7380   77.4840  220.4080 H   0  0  0  0  0  0  0  0  0  0  0  0
  142.5833   79.1052  219.7453 H   0  0  0  0  0  0  0  0  0  0  0  0
  141.2973   78.9370  218.5827 H   0  0  0  0  0  0  0  0  0  0  0  0
  141.3460   78.1768  221.4895 H   0  0  0  0  0  0  0  0  0  0  0  0
  139.7528   79.7033  220.2867 H   0  0  0  0  0  0  0  0  0  0  0  0
  139.0421   78.1953  219.5558 H   0  0  0  0  0  0  0  0  0  0  0  0
  138.3421   80.3524  221.9200 H   0  0  0  0  0  0  0  0  0  0  0  0
  138.2754   79.1487  223.3077 H   0  0  0  0  0  0  0  0  0  0  0  0
  140.6040   77.9663  223.7052 H   0  0  0  0  0  0  0  0  0  0  0  0
  142.8506   78.6956  224.4728 H   0  0  0  0  0  0  0  0  0  0  0  0
  143.6513   81.0144  224.0849 H   0  0  0  0  0  0  0  0  0  0  0  0
  142.1737   82.6594  222.8919 H   0  0  0  0  0  0  0  0  0  0  0  0
  139.9156   81.8981  222.1285 H   0  0  0  0  0  0  0  0  0  0  0  0
  139.1592   69.6504  222.5757 H   0  0  0  0  0  0  0  0  0  0  0  0
  138.8116   68.3655  224.6724 H   0  0  0  0  0  0  0  0  0  0  0  0
  139.0997   68.2061  227.0858 H   0  0  0  0  0  0  0  0  0  0  0  0
  139.9028   69.1147  229.2507 H   0  0  0  0  0  0  0  0  0  0  0  0
  141.0638   71.3428  229.2473 H   0  0  0  0  0  0  0  0  0  0  0  0
  141.3782   72.5664  227.1385 H   0  0  0  0  0  0  0  0  0  0  0  0
  1  2  2  0
  2  3  1  0
  3  4  1  0
  4  5  1  0
  5  6  2  0
  5  7  1  0
  7  8  1  0
  8  9  1  0
  9 10  1  0
  9 11  1  0
 11 12  1  0
 12 13  1  0
 13 14  1  0
 14 15  1  0
 15 16  1  0
 16 17  2  0
 17 18  1  0
 18 19  2  0
 19 20  1  0
 20 21  2  0
  2 22  1  0
 22 23  2  0
 23 24  1  0
 24 25  2  0
 25 26  1  0
 26 27  2  0
 27 28  1  0
 28 29  2  0
 29 30  1  0
 30 31  2  0
 12  7  1  0
 21 16  1  0
 31 22  1  0
 30 25  1  0
  3 32  1  0
  4 33  1  0
  4 34  1  0
  8 35  1  0
  8 36  1  0
  9 37  1  6
 10 38  1  0
 11 39  1  0
 11 40  1  0
 12 41  1  1
 13 42  1  0
 13 43  1  0
 15 44  1  0
 15 45  1  0
 17 46  1  0
 18 47  1  0
 19 48  1  0
 20 49  1  0
 21 50  1  0
 23 51  1  0
 24 52  1  0
 26 53  1  0
 27 54  1  0
 28 55  1  0
 29 56  1  0
M  END
>  <smiles>  (13) 
O=C(NCC(=O)N1C[C@H](O)C[C@H]1COCc1ccccc1)c1ccc2ccccc2n1

>  <score_type>  (13) 
oracle

>  <origin>  (13) 
autodockgpu

>  <m_score__min__energy>  (13) 
-9

>  <m_primary>  (13) 
energy

>  <meeko>  (13) 
{"free_energy": -8.98, "intermolecular_energy": -11.66, "internal_energy": -2.12, "cluster_size": 8, "cluster_id": 1, "rank_in_cluster": 3}

>  <energy>  (13) 
-7.26

>  <cluster_rmsd>  (13) 
1.92

>  <rmsd>  (13) 
270.15

>  <cluster>  (13) 
2

$$$$

     RDKit          3D

 56 59  0  0  0  0  0  0  0  0999 V2000
  140.7340   71.4010  221.2660 O   0  0  0  0  0  0  0  0  0  0  0  0
  140.3120   72.0150  222.2810 C   0  0  0  0  0  0  0  0  0  0  0  0
  139.9510   73.3930  222.2240 N   0  0  0  0  0  0  0  0  0  0  0  0
  140.0530   74.1500  220.9960 C   0  0  0  0  0  0  0  0  0  0  0  0
  140.7320   75.4540  221.2130 C   0  0  0  0  0  0  0  0  0  0  0  0
  140.7160   76.0300  222.3540 O   0  0  0  0  0  0  0  0  0  0  0  0
  141.3980   76.0290  220.0970 N   0  0  0  0  0  0  0  0  0  0  0  0
  142.1140   75.3900  219.0110 C   0  0  0  0  0  0  0  0  0  0  0  0
  143.3050   76.3470  218.8810 C   0  0  2  0  0  0  0  0  0  0  0  0
  144.0080   76.2870  220.0650 O   0  0  0  0  0  0  0  0  0  0  0  0
  142.5790   77.6740  218.8360 C   0  0  0  0  0  0  0  0  0  0  0  0
  141.4760   77.4540  219.8460 C   0  0  1  0  0  0  0  0  0  0  0  0
  140.1700   78.0120  219.3140 C   0  0  0  0  0  0  0  0  0  0  0  0
  139.8340   79.2050  219.8900 O   0  0  0  0  0  0  0  0  0  0  0  0
  139.5470   79.1240  221.2420 C   0  0  0  0  0  0  0  0  0  0  0  0
  140.6490   79.4880  222.1300 C   0  0  0  0  0  0  0  0  0  0  0  0
  141.5190   80.4910  221.7530 C   0  0  0  0  0  0  0  0  0  0  0  0
  142.5550   80.8200  222.6100 C   0  0  0  0  0  0  0  0  0  0  0  0
  142.7360   80.1660  223.8300 C   0  0  0  0  0  0  0  0  0  0  0  0
  141.8560   79.1550  224.2070 C   0  0  0  0  0  0  0  0  0  0  0  0
  140.8150   78.8360  223.3290 C   0  0  0  0  0  0  0  0  0  0  0  0
  140.1790   71.3240  223.5600 C   0  0  0  0  0  0  0  0  0  0  0  0
  139.5450   70.0790  223.5950 C   0  0  0  0  0  0  0  0  0  0  0  0
  139.4070   69.4040  224.7950 C   0  0  0  0  0  0  0  0  0  0  0  0
  139.9010   69.9680  225.9650 C   0  0  0  0  0  0  0  0  0  0  0  0
  139.7900   69.3390  227.1860 C   0  0  0  0  0  0  0  0  0  0  0  0
  140.2750   69.8830  228.3620 C   0  0  0  0  0  0  0  0  0  0  0  0
  140.8990   71.1240  228.2820 C   0  0  0  0  0  0  0  0  0  0  0  0
  141.0170   71.7640  227.0690 C   0  0  0  0  0  0  0  0  0  0  0  0
  140.5290   71.2110  225.9020 C   0  0  0  0  0  0  0  0  0  0  0  0
  140.6420   71.8310  224.7180 N   0  0  0  0  0  0  0  0  0  0  0  0
  139.6030   73.8690  223.0920 H   0  0  0  0  0  0  0  0  0  0  0  0
  140.6282   73.5655  220.2629 H   0  0  0  0  0  0  0  0  0  0  0  0
  139.0355   74.3485  220.6282 H   0  0  0  0  0  0  0  0  0  0  0  0
  142.4350   74.3719  219.2764 H   0  0  0  0  0  0  0  0  0  0  0  0
  141.5298   75.2482  218.0898 H   0  0  0  0  0  0  0  0  0  0  0  0
  143.9900   76.1549  218.0421 H   0  0  0  0  0  0  0  0  0  0  0  0
  144.0290   77.1600  220.5500 H   0  0  0  0  0  0  0  0  0  0  0  0
  143.2381   78.5021  219.1359 H   0  0  0  0  0  0  0  0  0  0  0  0
  142.2187   77.9522  217.8346 H   0  0  0  0  0  0  0  0  0  0  0  0
  141.6829   77.9788  220.7903 H   0  0  0  0  0  0  0  0  0  0  0  0
  140.2665   78.1600  218.2283 H   0  0  0  0  0  0  0  0  0  0  0  0
  139.3763   77.2901  219.5565 H   0  0  0  0  0  0  0  0  0  0  0  0
  138.7026   79.7968  221.4525 H   0  0  0  0  0  0  0  0  0  0  0  0
  139.3241   78.0664  221.4462 H   0  0  0  0  0  0  0  0  0  0  0  0
  141.3921   81.0161  220.7948 H   0  0  0  0  0  0  0  0  0  0  0  0
  143.2546   81.6184  222.3219 H   0  0  0  0  0  0  0  0  0  0  0  0
  143.5695   80.4480  224.4901 H   0  0  0  0  0  0  0  0  0  0  0  0
  141.9755   78.6249  225.1634 H   0  0  0  0  0  0  0  0  0  0  0  0
  140.1082   78.0399  223.6060 H   0  0  0  0  0  0  0  0  0  0  0  0
  139.1551   69.6350  222.6672 H   0  0  0  0  0  0  0  0  0  0  0  0
  138.9079   68.4241  224.8227 H   0  0  0  0  0  0  0  0  0  0  0  0
  139.2926   68.3587  227.2276 H   0  0  0  0  0  0  0  0  0  0  0  0
  140.1714   69.3556  229.3217 H   0  0  0  0  0  0  0  0  0  0  0  0
  141.2996   71.5955  229.1915 H   0  0  0  0  0  0  0  0  0  0  0  0
  141.5144   72.7443  227.0284 H   0  0  0  0  0  0  0  0  0  0  0  0
  1  2  2  0
  2  3  1  0
  3  4  1  0
  4  5  1  0
  5  6  2  0
  5  7  1  0
  7  8  1  0
  8  9  1  0
  9 10  1  0
  9 11  1  0
 11 12  1  0
 12 13  1  0
 13 14  1  0
 14 15  1  0
 15 16  1  0
 16 17  2  0
 17 18  1  0
 18 19  2  0
 19 20  1  0
 20 21  2  0
  2 22  1  0
 22 23  2  0
 23 24  1  0
 24 25  2  0
 25 26  1  0
 26 27  2  0
 27 28  1  0
 28 29  2  0
 29 30  1  0
 30 31  2  0
 12  7  1  0
 21 16  1  0
 31 22  1  0
 30 25  1  0
  3 32  1  0
  4 33  1  0
  4 34  1  0
  8 35  1  0
  8 36  1  0
  9 37  1  6
 10 38  1  0
 11 39  1  0
 11 40  1  0
 12 41  1  1
 13 42  1  0
 13 43  1  0
 15 44  1  0
 15 45  1  0
 17 46  1  0
 18 47  1  0
 19 48  1  0
 20 49  1  0
 21 50  1  0
 23 51  1  0
 24 52  1  0
 26 53  1  0
 27 54  1  0
 28 55  1  0
 29 56  1  0
M  END
>  <smiles>  (14) 
O=C(NCC(=O)N1C[C@H](O)C[C@H]1COCc1ccccc1)c1ccc2ccccc2n1

>  <score_type>  (14) 
oracle

>  <origin>  (14) 
autodockgpu

>  <m_score__min__energy>  (14) 
-9

>  <m_primary>  (14) 
energy

>  <meeko>  (14) 
{"free_energy": -8.99, "intermolecular_energy": -11.68, "internal_energy": -2.01, "cluster_size": 8, "cluster_id": 1, "rank_in_cluster": 2}

>  <energy>  (14) 
-7.1

>  <cluster_rmsd>  (14) 
1.91

>  <rmsd>  (14) 
270.07

>  <cluster>  (14) 
2

$$$$

     RDKit          3D

 56 59  0  0  0  0  0  0  0  0999 V2000
  138.9070   75.3150  221.8190 O   0  0  0  0  0  0  0  0  0  0  0  0
  140.0630   75.7970  221.9480 C   0  0  0  0  0  0  0  0  0  0  0  0
  141.2290   75.0280  221.6570 N   0  0  0  0  0  0  0  0  0  0  0  0
  141.1370   73.6590  221.2010 C   0  0  0  0  0  0  0  0  0  0  0  0
  141.7700   73.4840  219.8680 C   0  0  0  0  0  0  0  0  0  0  0  0
  141.0760   73.1860  218.8360 O   0  0  0  0  0  0  0  0  0  0  0  0
  143.1770   73.6630  219.7930 N   0  0  0  0  0  0  0  0  0  0  0  0
  144.1800   72.8680  219.1130 C   0  0  0  0  0  0  0  0  0  0  0  0
  145.2910   72.8840  220.1680 C   0  0  2  0  0  0  0  0  0  0  0  0
  144.8010   72.2450  221.2870 O   0  0  0  0  0  0  0  0  0  0  0  0
  145.3550   74.3660  220.4690 C   0  0  0  0  0  0  0  0  0  0  0  0
  143.8920   74.7480  220.4350 C   0  0  1  0  0  0  0  0  0  0  0  0
  143.7180   76.0610  219.6950 C   0  0  0  0  0  0  0  0  0  0  0  0
  142.6170   76.7570  220.1100 O   0  0  0  0  0  0  0  0  0  0  0  0
  141.8720   77.3090  219.0810 C   0  0  0  0  0  0  0  0  0  0  0  0
  141.8660   78.7680  219.0370 C   0  0  0  0  0  0  0  0  0  0  0  0
  142.6930   79.4230  218.1460 C   0  0  0  0  0  0  0  0  0  0  0  0
  142.6700   80.8070  218.1210 C   0  0  0  0  0  0  0  0  0  0  0  0
  141.8410   81.5430  218.9690 C   0  0  0  0  0  0  0  0  0  0  0  0
  141.0080   80.8810  219.8660 C   0  0  0  0  0  0  0  0  0  0  0  0
  141.0440   79.4820  219.8770 C   0  0  0  0  0  0  0  0  0  0  0  0
  140.2430   77.1710  222.4040 C   0  0  0  0  0  0  0  0  0  0  0  0
  139.1160   77.9390  222.7080 C   0  0  0  0  0  0  0  0  0  0  0  0
  139.2600   79.2440  223.1420 C   0  0  0  0  0  0  0  0  0  0  0  0
  140.5310   79.7900  223.2750 C   0  0  0  0  0  0  0  0  0  0  0  0
  140.7320   81.0840  223.7030 C   0  0  0  0  0  0  0  0  0  0  0  0
  141.9880   81.6470  223.8420 C   0  0  0  0  0  0  0  0  0  0  0  0
  143.0840   80.8480  223.5290 C   0  0  0  0  0  0  0  0  0  0  0  0
  142.8980   79.5540  223.1000 C   0  0  0  0  0  0  0  0  0  0  0  0
  141.6390   79.0030  222.9650 C   0  0  0  0  0  0  0  0  0  0  0  0
  141.4540   77.7420  222.5480 N   0  0  0  0  0  0  0  0  0  0  0  0
  142.1740   75.4670  221.7780 H   0  0  0  0  0  0  0  0  0  0  0  0
  141.6449   73.0061  221.9261 H   0  0  0  0  0  0  0  0  0  0  0  0
  140.0726   73.3955  221.1143 H   0  0  0  0  0  0  0  0  0  0  0  0
  143.8237   71.8472  218.9106 H   0  0  0  0  0  0  0  0  0  0  0  0
  144.4759   73.2435  218.1223 H   0  0  0  0  0  0  0  0  0  0  0  0
  146.2438   72.4204  219.8725 H   0  0  0  0  0  0  0  0  0  0  0  0
  145.5140   72.0060  221.9430 H   0  0  0  0  0  0  0  0  0  0  0  0
  145.7963   74.5557  221.4586 H   0  0  0  0  0  0  0  0  0  0  0  0
  145.9826   74.9375  219.7694 H   0  0  0  0  0  0  0  0  0  0  0  0
  143.4912   74.8994  221.4481 H   0  0  0  0  0  0  0  0  0  0  0  0
  144.6108   76.6811  219.8633 H   0  0  0  0  0  0  0  0  0  0  0  0
  143.5815   75.8268  218.6289 H   0  0  0  0  0  0  0  0  0  0  0  0
  142.2805   76.9407  218.1284 H   0  0  0  0  0  0  0  0  0  0  0  0
  140.8303   77.0027  219.2573 H   0  0  0  0  0  0  0  0  0  0  0  0
  143.3543   78.8585  217.4721 H   0  0  0  0  0  0  0  0  0  0  0  0
  143.3223   81.3407  217.4141 H   0  0  0  0  0  0  0  0  0  0  0  0
  141.8461   82.6422  218.9285 H   0  0  0  0  0  0  0  0  0  0  0  0
  140.3440   81.4383  220.5432 H   0  0  0  0  0  0  0  0  0  0  0  0
  140.3953   78.9372  220.5787 H   0  0  0  0  0  0  0  0  0  0  0  0
  138.1112   77.5042  222.6017 H   0  0  0  0  0  0  0  0  0  0  0  0
  138.3720   79.8476  223.3810 H   0  0  0  0  0  0  0  0  0  0  0  0
  139.8524   81.6984  223.9456 H   0  0  0  0  0  0  0  0  0  0  0  0
  142.1154   82.6841  224.1859 H   0  0  0  0  0  0  0  0  0  0  0  0
  144.1024   81.2525  223.6250 H   0  0  0  0  0  0  0  0  0  0  0  0
  143.7781   78.9403  222.8574 H   0  0  0  0  0  0  0  0  0  0  0  0
  1  2  2  0
  2  3  1  0
  3  4  1  0
  4  5  1  0
  5  6  2  0
  5  7  1  0
  7  8  1  0
  8  9  1  0
  9 10  1  0
  9 11  1  0
 11 12  1  0
 12 13  1  0
 13 14  1  0
 14 15  1  0
 15 16  1  0
 16 17  2  0
 17 18  1  0
 18 19  2  0
 19 20  1  0
 20 21  2  0
  2 22  1  0
 22 23  2  0
 23 24  1  0
 24 25  2  0
 25 26  1  0
 26 27  2  0
 27 28  1  0
 28 29  2  0
 29 30  1  0
 30 31  2  0
 12  7  1  0
 21 16  1  0
 31 22  1  0
 30 25  1  0
  3 32  1  0
  4 33  1  0
  4 34  1  0
  8 35  1  0
  8 36  1  0
  9 37  1  6
 10 38  1  0
 11 39  1  0
 11 40  1  0
 12 41  1  1
 13 42  1  0
 13 43  1  0
 15 44  1  0
 15 45  1  0
 17 46  1  0
 18 47  1  0
 19 48  1  0
 20 49  1  0
 21 50  1  0
 23 51  1  0
 24 52  1  0
 26 53  1  0
 27 54  1  0
 28 55  1  0
 29 56  1  0
M  END
>  <smiles>  (15) 
O=C(NCC(=O)N1C[C@H](O)C[C@H]1COCc1ccccc1)c1ccc2ccccc2n1

>  <score_type>  (15) 
oracle

>  <origin>  (15) 
autodockgpu

>  <m_score__min__energy>  (15) 
-9

>  <m_primary>  (15) 
energy

>  <meeko>  (15) 
{"free_energy": -7.15, "intermolecular_energy": -9.84, "internal_energy": -3.73, "cluster_size": 4, "cluster_id": 4, "rank_in_cluster": 2}

>  <energy>  (15) 
-8.29

>  <cluster_rmsd>  (15) 
0.0

>  <rmsd>  (15) 
270.76

>  <cluster>  (15) 
3

$$$$

     RDKit          3D

 56 59  0  0  0  0  0  0  0  0999 V2000
  138.7850   75.5070  221.7840 O   0  0  0  0  0  0  0  0  0  0  0  0
  139.9590   75.9540  221.8450 C   0  0  0  0  0  0  0  0  0  0  0  0
  141.0770   75.1810  221.4140 N   0  0  0  0  0  0  0  0  0  0  0  0
  140.9120   73.8440  220.8860 C   0  0  0  0  0  0  0  0  0  0  0  0
  141.6220   73.6770  219.5920 C   0  0  0  0  0  0  0  0  0  0  0  0
  140.9830   73.4560  218.5070 O   0  0  0  0  0  0  0  0  0  0  0  0
  143.0390   73.7720  219.6150 N   0  0  0  0  0  0  0  0  0  0  0  0
  144.0390   72.9150  219.0110 C   0  0  0  0  0  0  0  0  0  0  0  0
  145.0730   72.8760  220.1420 C   0  0  2  0  0  0  0  0  0  0  0  0
  144.4680   72.2750  221.2260 O   0  0  0  0  0  0  0  0  0  0  0  0
  145.2010   74.3550  220.4400 C   0  0  0  0  0  0  0  0  0  0  0  0
  143.7690   74.8200  220.3010 C   0  0  1  0  0  0  0  0  0  0  0  0
  143.7250   76.1350  219.5450 C   0  0  0  0  0  0  0  0  0  0  0  0
  142.6310   76.8890  219.8660 O   0  0  0  0  0  0  0  0  0  0  0  0
  142.2410   77.7740  218.8750 C   0  0  0  0  0  0  0  0  0  0  0  0
  141.5070   78.9450  219.3470 C   0  0  0  0  0  0  0  0  0  0  0  0
  142.2000   80.0970  219.6610 C   0  0  0  0  0  0  0  0  0  0  0  0
  141.4830   81.1950  220.1070 C   0  0  0  0  0  0  0  0  0  0  0  0
  140.0950   81.1610  220.2440 C   0  0  0  0  0  0  0  0  0  0  0  0
  139.3990   79.9970  219.9260 C   0  0  0  0  0  0  0  0  0  0  0  0
  140.1380   78.8980  219.4770 C   0  0  0  0  0  0  0  0  0  0  0  0
  140.2120   77.2940  222.3650 C   0  0  0  0  0  0  0  0  0  0  0  0
  139.1310   78.0780  222.7770 C   0  0  0  0  0  0  0  0  0  0  0  0
  139.3450   79.3510  223.2740 C   0  0  0  0  0  0  0  0  0  0  0  0
  140.6390   79.8490  223.3610 C   0  0  0  0  0  0  0  0  0  0  0  0
  140.9090   81.1100  223.8480 C   0  0  0  0  0  0  0  0  0  0  0  0
  142.1900   81.6240  223.9440 C   0  0  0  0  0  0  0  0  0  0  0  0
  143.2370   80.8110  223.5230 C   0  0  0  0  0  0  0  0  0  0  0  0
  142.9830   79.5490  223.0350 C   0  0  0  0  0  0  0  0  0  0  0  0
  141.7010   79.0470  222.9440 C   0  0  0  0  0  0  0  0  0  0  0  0
  141.4480   77.8180  222.4690 N   0  0  0  0  0  0  0  0  0  0  0  0
  142.0410   75.5900  221.4810 H   0  0  0  0  0  0  0  0  0  0  0  0
  141.3155   73.1215  221.6107 H   0  0  0  0  0  0  0  0  0  0  0  0
  139.8392   73.6709  220.7153 H   0  0  0  0  0  0  0  0  0  0  0  0
  143.6391   71.9147  218.7886 H   0  0  0  0  0  0  0  0  0  0  0  0
  144.4248   73.2643  218.0419 H   0  0  0  0  0  0  0  0  0  0  0  0
  146.0162   72.3565  219.9174 H   0  0  0  0  0  0  0  0  0  0  0  0
  145.0190   71.5420  221.6220 H   0  0  0  0  0  0  0  0  0  0  0  0
  145.5818   74.5277  221.4574 H   0  0  0  0  0  0  0  0  0  0  0  0
  145.9081   74.8835  219.7837 H   0  0  0  0  0  0  0  0  0  0  0  0
  143.3065   75.0028  221.2822 H   0  0  0  0  0  0  0  0  0  0  0  0
  144.6318   76.7098  219.7847 H   0  0  0  0  0  0  0  0  0  0  0  0
  143.6653   75.9008  218.4719 H   0  0  0  0  0  0  0  0  0  0  0  0
  143.1450   78.1245  218.3555 H   0  0  0  0  0  0  0  0  0  0  0  0
  141.5496   77.2201  218.2230 H   0  0  0  0  0  0  0  0  0  0  0  0
  143.2944   80.1418  219.5595 H   0  0  0  0  0  0  0  0  0  0  0  0
  142.0229   82.1193  220.3602 H   0  0  0  0  0  0  0  0  0  0  0  0
  139.5529   82.0490  220.6014 H   0  0  0  0  0  0  0  0  0  0  0  0
  138.3047   79.9441  220.0248 H   0  0  0  0  0  0  0  0  0  0  0  0
  139.6092   77.9683  219.2201 H   0  0  0  0  0  0  0  0  0  0  0  0
  138.1073   77.6818  222.7059 H   0  0  0  0  0  0  0  0  0  0  0  0
  138.4936   79.9669  223.5992 H   0  0  0  0  0  0  0  0  0  0  0  0
  140.0666   81.7369  224.1756 H   0  0  0  0  0  0  0  0  0  0  0  0
  142.3730   82.6348  224.3374 H   0  0  0  0  0  0  0  0  0  0  0  0
  144.2724   81.1779  223.5802 H   0  0  0  0  0  0  0  0  0  0  0  0
  143.8263   78.9229  222.7083 H   0  0  0  0  0  0  0  0  0  0  0  0
  1  2  2  0
  2  3  1  0
  3  4  1  0
  4  5  1  0
  5  6  2  0
  5  7  1  0
  7  8  1  0
  8  9  1  0
  9 10  1  0
  9 11  1  0
 11 12  1  0
 12 13  1  0
 13 14  1  0
 14 15  1  0
 15 16  1  0
 16 17  2  0
 17 18  1  0
 18 19  2  0
 19 20  1  0
 20 21  2  0
  2 22  1  0
 22 23  2  0
 23 24  1  0
 24 25  2  0
 25 26  1  0
 26 27  2  0
 27 28  1  0
 28 29  2  0
 29 30  1  0
 30 31  2  0
 12  7  1  0
 21 16  1  0
 31 22  1  0
 30 25  1  0
  3 32  1  0
  4 33  1  0
  4 34  1  0
  8 35  1  0
  8 36  1  0
  9 37  1  6
 10 38  1  0
 11 39  1  0
 11 40  1  0
 12 41  1  1
 13 42  1  0
 13 43  1  0
 15 44  1  0
 15 45  1  0
 17 46  1  0
 18 47  1  0
 19 48  1  0
 20 49  1  0
 21 50  1  0
 23 51  1  0
 24 52  1  0
 26 53  1  0
 27 54  1  0
 28 55  1  0
 29 56  1  0
M  END
>  <smiles>  (16) 
O=C(NCC(=O)N1C[C@H](O)C[C@H]1COCc1ccccc1)c1ccc2ccccc2n1

>  <score_type>  (16) 
oracle

>  <origin>  (16) 
autodockgpu

>  <m_score__min__energy>  (16) 
-9

>  <m_primary>  (16) 
energy

>  <meeko>  (16) 
{"free_energy": -6.58, "intermolecular_energy": -9.27, "internal_energy": -4.16, "cluster_size": 4, "cluster_id": 4, "rank_in_cluster": 4}

>  <energy>  (16) 
-7.23

>  <cluster_rmsd>  (16) 
0.0

>  <rmsd>  (16) 
270.9

>  <cluster>  (16) 
4

$$$$

     RDKit          3D

 56 59  0  0  0  0  0  0  0  0999 V2000
  140.9420   71.4800  221.3520 O   0  0  0  0  0  0  0  0  0  0  0  0
  140.4310   72.0520  222.3500 C   0  0  0  0  0  0  0  0  0  0  0  0
  140.0210   73.4170  222.3000 N   0  0  0  0  0  0  0  0  0  0  0  0
  140.1740   74.2080  221.0990 C   0  0  0  0  0  0  0  0  0  0  0  0
  140.3290   75.6520  221.4130 C   0  0  0  0  0  0  0  0  0  0  0  0
  140.0490   76.1150  222.5710 O   0  0  0  0  0  0  0  0  0  0  0  0
  140.8000   76.4920  220.3690 N   0  0  0  0  0  0  0  0  0  0  0  0
  141.2400   76.1540  219.0300 C   0  0  0  0  0  0  0  0  0  0  0  0
  142.4460   77.0910  218.9030 C   0  0  2  0  0  0  0  0  0  0  0  0
  143.3630   76.7060  219.8580 O   0  0  0  0  0  0  0  0  0  0  0  0
  141.8230   78.3940  219.3540 C   0  0  0  0  0  0  0  0  0  0  0  0
  140.9290   77.9310  220.4820 C   0  0  1  0  0  0  0  0  0  0  0  0
  139.5870   78.6330  220.3980 C   0  0  0  0  0  0  0  0  0  0  0  0
  138.8280   78.4560  221.5210 O   0  0  0  0  0  0  0  0  0  0  0  0
  138.8420   79.5310  222.3930 C   0  0  0  0  0  0  0  0  0  0  0  0
  140.1640   79.9110  222.8840 C   0  0  0  0  0  0  0  0  0  0  0  0
  140.9400   78.9720  223.5340 C   0  0  0  0  0  0  0  0  0  0  0  0
  142.1900   79.3530  223.9910 C   0  0  0  0  0  0  0  0  0  0  0  0
  142.6740   80.6500  223.8110 C   0  0  0  0  0  0  0  0  0  0  0  0
  141.8900   81.5950  223.1550 C   0  0  0  0  0  0  0  0  0  0  0  0
  140.6300   81.1920  222.7000 C   0  0  0  0  0  0  0  0  0  0  0  0
  140.2420   71.3240  223.6010 C   0  0  0  0  0  0  0  0  0  0  0  0
  139.5960   70.0850  223.5750 C   0  0  0  0  0  0  0  0  0  0  0  0
  139.4050   69.3760  224.7470 C   0  0  0  0  0  0  0  0  0  0  0  0
  139.8570   69.9010  225.9520 C   0  0  0  0  0  0  0  0  0  0  0  0
  139.6920   69.2370  227.1480 C   0  0  0  0  0  0  0  0  0  0  0  0
  140.1340   69.7410  228.3590 C   0  0  0  0  0  0  0  0  0  0  0  0
  140.7710   70.9780  228.3400 C   0  0  0  0  0  0  0  0  0  0  0  0
  140.9420   71.6520  227.1520 C   0  0  0  0  0  0  0  0  0  0  0  0
  140.4970   71.1390  225.9510 C   0  0  0  0  0  0  0  0  0  0  0  0
  140.6620   71.7920  224.7910 N   0  0  0  0  0  0  0  0  0  0  0  0
  139.5990   73.8570  223.1540 H   0  0  0  0  0  0  0  0  0  0  0  0
  141.0657   73.8629  220.5551 H   0  0  0  0  0  0  0  0  0  0  0  0
  139.2687   74.0836  220.4866 H   0  0  0  0  0  0  0  0  0  0  0  0
  141.5340   75.0969  218.9513 H   0  0  0  0  0  0  0  0  0  0  0  0
  140.4763   76.2724  218.2472 H   0  0  0  0  0  0  0  0  0  0  0  0
  142.9355   77.1180  217.9183 H   0  0  0  0  0  0  0  0  0  0  0  0
  143.9520   77.4550  220.1570 H   0  0  0  0  0  0  0  0  0  0  0  0
  142.5862   79.1010  219.7114 H   0  0  0  0  0  0  0  0  0  0  0  0
  141.2925   78.9352  218.5567 H   0  0  0  0  0  0  0  0  0  0  0  0
  141.3562   78.1811  221.4643 H   0  0  0  0  0  0  0  0  0  0  0  0
  139.7614   79.7099  220.2572 H   0  0  0  0  0  0  0  0  0  0  0  0
  139.0359   78.1962  219.5521 H   0  0  0  0  0  0  0  0  0  0  0  0
  138.4092   80.3981  221.8726 H   0  0  0  0  0  0  0  0  0  0  0  0
  138.2648   79.2181  223.2756 H   0  0  0  0  0  0  0  0  0  0  0  0
  140.5738   77.9458  223.6851 H   0  0  0  0  0  0  0  0  0  0  0  0
  142.8185   78.6142  224.5097 H   0  0  0  0  0  0  0  0  0  0  0  0
  143.6710   80.9242  224.1861 H   0  0  0  0  0  0  0  0  0  0  0  0
  142.2489   82.6232  222.9998 H   0  0  0  0  0  0  0  0  0  0  0  0
  139.9926   81.9217  222.1793 H   0  0  0  0  0  0  0  0  0  0  0  0
  139.2385   69.6726  222.6199 H   0  0  0  0  0  0  0  0  0  0  0  0
  138.8973   68.4004  224.7256 H   0  0  0  0  0  0  0  0  0  0  0  0
  139.1853   68.2607  227.1400 H   0  0  0  0  0  0  0  0  0  0  0  0
  139.9877   69.1865  229.2977 H   0  0  0  0  0  0  0  0  0  0  0  0
  141.1393   71.4190  229.2780 H   0  0  0  0  0  0  0  0  0  0  0  0
  141.4484   72.6285  227.1604 H   0  0  0  0  0  0  0  0  0  0  0  0
  1  2  2  0
  2  3  1  0
  3  4  1  0
  4  5  1  0
  5  6  2  0
  5  7  1  0
  7  8  1  0
  8  9  1  0
  9 10  1  0
  9 11  1  0
 11 12  1  0
 12 13  1  0
 13 14  1  0
 14 15  1  0
 15 16  1  0
 16 17  2  0
 17 18  1  0
 18 19  2  0
 19 20  1  0
 20 21  2  0
  2 22  1  0
 22 23  2  0
 23 24  1  0
 24 25  2  0
 25 26  1  0
 26 27  2  0
 27 28  1  0
 28 29  2  0
 29 30  1  0
 30 31  2  0
 12  7  1  0
 21 16  1  0
 31 22  1  0
 30 25  1  0
  3 32  1  0
  4 33  1  0
  4 34  1  0
  8 35  1  0
  8 36  1  0
  9 37  1  6
 10 38  1  0
 11 39  1  0
 11 40  1  0
 12 41  1  1
 13 42  1  0
 13 43  1  0
 15 44  1  0
 15 45  1  0
 17 46  1  0
 18 47  1  0
 19 48  1  0
 20 49  1  0
 21 50  1  0
 23 51  1  0
 24 52  1  0
 26 53  1  0
 27 54  1  0
 28 55  1  0
 29 56  1  0
M  END
>  <smiles>  (17) 
O=C(NCC(=O)N1C[C@H](O)C[C@H]1COCc1ccccc1)c1ccc2ccccc2n1

>  <score_type>  (17) 
oracle

>  <origin>  (17) 
autodockgpu

>  <m_score__min__energy>  (17) 
-9

>  <m_primary>  (17) 
energy

>  <meeko>  (17) 
{"free_energy": -9.0, "intermolecular_energy": -11.68, "internal_energy": -2.11, "cluster_size": 8, "cluster_id": 1, "rank_in_cluster": 1}

>  <energy>  (17) 
-7.15

>  <cluster_rmsd>  (17) 
0.12

>  <rmsd>  (17) 
270.93

>  <cluster>  (17) 
4

$$$$

     RDKit          3D

 56 59  0  0  0  0  0  0  0  0999 V2000
  137.0020   69.9260  222.5040 O   0  0  0  0  0  0  0  0  0  0  0  0
  137.7350   70.7710  223.0800 C   0  0  0  0  0  0  0  0  0  0  0  0
  137.8500   72.1100  222.6010 N   0  0  0  0  0  0  0  0  0  0  0  0
  137.1270   72.5580  221.4310 C   0  0  0  0  0  0  0  0  0  0  0  0
  136.9790   74.0370  221.4140 C   0  0  0  0  0  0  0  0  0  0  0  0
  135.8270   74.5890  221.3890 O   0  0  0  0  0  0  0  0  0  0  0  0
  138.1740   74.8050  221.4250 N   0  0  0  0  0  0  0  0  0  0  0  0
  139.3050   74.7780  220.5190 C   0  0  0  0  0  0  0  0  0  0  0  0
  140.4530   74.9160  221.5260 C   0  0  2  0  0  0  0  0  0  0  0  0
  140.4180   73.8030  222.3390 O   0  0  0  0  0  0  0  0  0  0  0  0
  139.9620   76.0980  222.3330 C   0  0  0  0  0  0  0  0  0  0  0  0
  138.4790   75.8150  222.4180 C   0  0  1  0  0  0  0  0  0  0  0  0
  137.6960   77.0950  222.1900 C   0  0  0  0  0  0  0  0  0  0  0  0
  138.0140   78.0740  223.0890 O   0  0  0  0  0  0  0  0  0  0  0  0
  138.4850   79.2430  222.5140 C   0  0  0  0  0  0  0  0  0  0  0  0
  139.9320   79.4280  222.5890 C   0  0  0  0  0  0  0  0  0  0  0  0
  140.5560   79.3960  223.8200 C   0  0  0  0  0  0  0  0  0  0  0  0
  141.9280   79.5730  223.8670 C   0  0  0  0  0  0  0  0  0  0  0  0
  142.6820   79.7830  222.7110 C   0  0  0  0  0  0  0  0  0  0  0  0
  142.0500   79.8140  221.4710 C   0  0  0  0  0  0  0  0  0  0  0  0
  140.6630   79.6320  221.4420 C   0  0  0  0  0  0  0  0  0  0  0  0
  138.4980   70.4000  224.2670 C   0  0  0  0  0  0  0  0  0  0  0  0
  138.4610   69.0750  224.7110 C   0  0  0  0  0  0  0  0  0  0  0  0
  139.1750   68.6990  225.8330 C   0  0  0  0  0  0  0  0  0  0  0  0
  139.9300   69.6420  226.5200 C   0  0  0  0  0  0  0  0  0  0  0  0
  140.6600   69.3210  227.6440 C   0  0  0  0  0  0  0  0  0  0  0  0
  141.4180   70.2450  228.3420 C   0  0  0  0  0  0  0  0  0  0  0  0
  141.4260   71.5530  227.8660 C   0  0  0  0  0  0  0  0  0  0  0  0
  140.7020   71.8870  226.7450 C   0  0  0  0  0  0  0  0  0  0  0  0
  139.9500   70.9570  226.0570 C   0  0  0  0  0  0  0  0  0  0  0  0
  139.2430   71.2790  224.9640 N   0  0  0  0  0  0  0  0  0  0  0  0
  138.4720   72.7850  223.1090 H   0  0  0  0  0  0  0  0  0  0  0  0
  137.6747   72.2434  220.5304 H   0  0  0  0  0  0  0  0  0  0  0  0
  136.1221   72.1113  221.4548 H   0  0  0  0  0  0  0  0  0  0  0  0
  139.3607   73.8304  219.9631 H   0  0  0  0  0  0  0  0  0  0  0  0
  139.2856   75.5435  219.7293 H   0  0  0  0  0  0  0  0  0  0  0  0
  141.4608   75.0225  221.0983 H   0  0  0  0  0  0  0  0  0  0  0  0
  139.6820   73.8360  223.0120 H   0  0  0  0  0  0  0  0  0  0  0  0
  140.4237   76.1219  223.3311 H   0  0  0  0  0  0  0  0  0  0  0  0
  140.2060   77.0745  221.8892 H   0  0  0  0  0  0  0  0  0  0  0  0
  138.1952   75.4428  223.4135 H   0  0  0  0  0  0  0  0  0  0  0  0
  137.9119   77.4640  221.1765 H   0  0  0  0  0  0  0  0  0  0  0  0
  136.6291   76.8596  222.3180 H   0  0  0  0  0  0  0  0  0  0  0  0
  138.1956   79.2421  221.4528 H   0  0  0  0  0  0  0  0  0  0  0  0
  138.0392   80.0691  223.0874 H   0  0  0  0  0  0  0  0  0  0  0  0
  139.9770   79.2338  224.7411 H   0  0  0  0  0  0  0  0  0  0  0  0
  142.4379   79.5475  224.8414 H   0  0  0  0  0  0  0  0  0  0  0  0
  143.7709   79.9234  222.7797 H   0  0  0  0  0  0  0  0  0  0  0  0
  142.6217   79.9761  220.5453 H   0  0  0  0  0  0  0  0  0  0  0  0
  140.1420   79.6527  220.4735 H   0  0  0  0  0  0  0  0  0  0  0  0
  137.8624   68.3301  224.1662 H   0  0  0  0  0  0  0  0  0  0  0  0
  139.1458   67.6560  226.1813 H   0  0  0  0  0  0  0  0  0  0  0  0
  140.6393   68.2815  228.0033 H   0  0  0  0  0  0  0  0  0  0  0  0
  141.9906   69.9575  229.2362 H   0  0  0  0  0  0  0  0  0  0  0  0
  142.0135   72.3225  228.3882 H   0  0  0  0  0  0  0  0  0  0  0  0
  140.7232   72.9267  226.3864 H   0  0  0  0  0  0  0  0  0  0  0  0
  1  2  2  0
  2  3  1  0
  3  4  1  0
  4  5  1  0
  5  6  2  0
  5  7  1  0
  7  8  1  0
  8  9  1  0
  9 10  1  0
  9 11  1  0
 11 12  1  0
 12 13  1  0
 13 14  1  0
 14 15  1  0
 15 16  1  0
 16 17  2  0
 17 18  1  0
 18 19  2  0
 19 20  1  0
 20 21  2  0
  2 22  1  0
 22 23  2  0
 23 24  1  0
 24 25  2  0
 25 26  1  0
 26 27  2  0
 27 28  1  0
 28 29  2  0
 29 30  1  0
 30 31  2  0
 12  7  1  0
 21 16  1  0
 31 22  1  0
 30 25  1  0
  3 32  1  0
  4 33  1  0
  4 34  1  0
  8 35  1  0
  8 36  1  0
  9 37  1  6
 10 38  1  0
 11 39  1  0
 11 40  1  0
 12 41  1  1
 13 42  1  0
 13 43  1  0
 15 44  1  0
 15 45  1  0
 17 46  1  0
 18 47  1  0
 19 48  1  0
 20 49  1  0
 21 50  1  0
 23 51  1  0
 24 52  1  0
 26 53  1  0
 27 54  1  0
 28 55  1  0
 29 56  1  0
M  END
>  <smiles>  (18) 
O=C(NCC(=O)N1C[C@H](O)C[C@H]1COCc1ccccc1)c1ccc2ccccc2n1

>  <score_type>  (18) 
oracle

>  <origin>  (18) 
autodockgpu

>  <m_score__min__energy>  (18) 
-9

>  <m_primary>  (18) 
energy

>  <meeko>  (18) 
{"free_energy": -8.29, "intermolecular_energy": -10.97, "internal_energy": -2.43, "cluster_size": 1, "cluster_id": 3, "rank_in_cluster": 1}

>  <energy>  (18) 
-6.75

>  <cluster_rmsd>  (18) 
1.45

>  <rmsd>  (18) 
270.49

>  <cluster>  (18) 
4

$$$$

     RDKit          3D

 56 59  0  0  0  0  0  0  0  0999 V2000
  142.1130   71.5110  221.2040 O   0  0  0  0  0  0  0  0  0  0  0  0
  140.9800   72.0590  221.2330 C   0  0  0  0  0  0  0  0  0  0  0  0
  139.7790   71.2970  221.1290 N   0  0  0  0  0  0  0  0  0  0  0  0
  139.8080   69.8580  220.9840 C   0  0  0  0  0  0  0  0  0  0  0  0
  139.0550   69.1840  222.0740 C   0  0  0  0  0  0  0  0  0  0  0  0
  139.3280   67.9870  222.4290 O   0  0  0  0  0  0  0  0  0  0  0  0
  138.0210   69.9290  222.7010 N   0  0  0  0  0  0  0  0  0  0  0  0
  136.7500   70.3820  222.1720 C   0  0  0  0  0  0  0  0  0  0  0  0
  136.6930   71.7860  222.7830 C   0  0  2  0  0  0  0  0  0  0  0  0
  137.7510   72.5010  222.2610 O   0  0  0  0  0  0  0  0  0  0  0  0
  137.0160   71.4650  224.2260 C   0  0  0  0  0  0  0  0  0  0  0  0
  138.0740   70.3950  224.0720 C   0  0  1  0  0  0  0  0  0  0  0  0
  137.8240   69.2760  225.0650 C   0  0  0  0  0  0  0  0  0  0  0  0
  138.8370   68.3580  225.0880 O   0  0  0  0  0  0  0  0  0  0  0  0
  139.5830   68.3630  226.2550 C   0  0  0  0  0  0  0  0  0  0  0  0
  140.1500   69.6580  226.6190 C   0  0  0  0  0  0  0  0  0  0  0  0
  140.9040   70.3520  225.6940 C   0  0  0  0  0  0  0  0  0  0  0  0
  141.4310   71.5780  226.0610 C   0  0  0  0  0  0  0  0  0  0  0  0
  141.2200   72.1190  227.3300 C   0  0  0  0  0  0  0  0  0  0  0  0
  140.4590   71.4170  228.2610 C   0  0  0  0  0  0  0  0  0  0  0  0
  139.9330   70.1800  227.8730 C   0  0  0  0  0  0  0  0  0  0  0  0
  140.8630   73.5060  221.3770 C   0  0  0  0  0  0  0  0  0  0  0  0
  141.8840   74.3220  220.8820 C   0  0  0  0  0  0  0  0  0  0  0  0
  141.7970   75.6970  221.0060 C   0  0  0  0  0  0  0  0  0  0  0  0
  140.6890   76.2650  221.6250 C   0  0  0  0  0  0  0  0  0  0  0  0
  140.5520   77.6280  221.7740 C   0  0  0  0  0  0  0  0  0  0  0  0
  139.4580   78.2130  222.3870 C   0  0  0  0  0  0  0  0  0  0  0  0
  138.4640   77.3650  222.8650 C   0  0  0  0  0  0  0  0  0  0  0  0
  138.5890   76.0020  222.7220 C   0  0  0  0  0  0  0  0  0  0  0  0
  139.6850   75.4290  222.1100 C   0  0  0  0  0  0  0  0  0  0  0  0
  139.8100   74.1010  221.9680 N   0  0  0  0  0  0  0  0  0  0  0  0
  138.8540   71.7910  221.1580 H   0  0  0  0  0  0  0  0  0  0  0  0
  139.3570   69.5872  220.0179 H   0  0  0  0  0  0  0  0  0  0  0  0
  140.8561   69.5277  221.0340 H   0  0  0  0  0  0  0  0  0  0  0  0
  136.7539   70.4151  221.0725 H   0  0  0  0  0  0  0  0  0  0  0  0
  135.8918   69.7370  222.4119 H   0  0  0  0  0  0  0  0  0  0  0  0
  135.7598   72.3455  222.6212 H   0  0  0  0  0  0  0  0  0  0  0  0
  138.0880   73.2060  222.8820 H   0  0  0  0  0  0  0  0  0  0  0  0
  137.4101   72.3457  224.7543 H   0  0  0  0  0  0  0  0  0  0  0  0
  136.1450   71.1500  224.8194 H   0  0  0  0  0  0  0  0  0  0  0  0
  139.0794   70.7878  224.2837 H   0  0  0  0  0  0  0  0  0  0  0  0
  137.7212   69.7126  226.0694 H   0  0  0  0  0  0  0  0  0  0  0  0
  136.9074   68.7532  224.7544 H   0  0  0  0  0  0  0  0  0  0  0  0
  138.9320   68.0321  227.0776 H   0  0  0  0  0  0  0  0  0  0  0  0
  140.4367   67.6926  226.0771 H   0  0  0  0  0  0  0  0  0  0  0  0
  141.0817   69.9405  224.6895 H   0  0  0  0  0  0  0  0  0  0  0  0
  142.0326   72.1414  225.3325 H   0  0  0  0  0  0  0  0  0  0  0  0
  141.6528   73.0953  227.5935 H   0  0  0  0  0  0  0  0  0  0  0  0
  140.2775   71.8214  229.2677 H   0  0  0  0  0  0  0  0  0  0  0  0
  139.3281   69.6080  228.5919 H   0  0  0  0  0  0  0  0  0  0  0  0
  142.7591   73.8697  220.3925 H   0  0  0  0  0  0  0  0  0  0  0  0
  142.6012   76.3385  220.6164 H   0  0  0  0  0  0  0  0  0  0  0  0
  141.3487   78.2809  221.3880 H   0  0  0  0  0  0  0  0  0  0  0  0
  139.3774   79.3050  222.4921 H   0  0  0  0  0  0  0  0  0  0  0  0
  137.5754   77.7853  223.3588 H   0  0  0  0  0  0  0  0  0  0  0  0
  137.7913   75.3498  223.1071 H   0  0  0  0  0  0  0  0  0  0  0  0
  1  2  2  0
  2  3  1  0
  3  4  1  0
  4  5  1  0
  5  6  2  0
  5  7  1  0
  7  8  1  0
  8  9  1  0
  9 10  1  0
  9 11  1  0
 11 12  1  0
 12 13  1  0
 13 14  1  0
 14 15  1  0
 15 16  1  0
 16 17  2  0
 17 18  1  0
 18 19  2  0
 19 20  1  0
 20 21  2  0
  2 22  1  0
 22 23  2  0
 23 24  1  0
 24 25  2  0
 25 26  1  0
 26 27  2  0
 27 28  1  0
 28 29  2  0
 29 30  1  0
 30 31  2  0
 12  7  1  0
 21 16  1  0
 31 22  1  0
 30 25  1  0
  3 32  1  0
  4 33  1  0
  4 34  1  0
  8 35  1  0
  8 36  1  0
  9 37  1  1
 10 38  1  0
 11 39  1  0
 11 40  1  0
 12 41  1  1
 13 42  1  0
 13 43  1  0
 15 44  1  0
 15 45  1  0
 17 46  1  0
 18 47  1  0
 19 48  1  0
 20 49  1  0
 21 50  1  0
 23 51  1  0
 24 52  1  0
 26 53  1  0
 27 54  1  0
 28 55  1  0
 29 56  1  0
M  END
>  <smiles>  (19) 
O=C(NCC(=O)N1C[C@H](O)C[C@H]1COCc1ccccc1)c1ccc2ccccc2n1

>  <score_type>  (19) 
oracle

>  <origin>  (19) 
autodockgpu

>  <m_score__min__energy>  (19) 
-9

>  <m_primary>  (19) 
energy

>  <meeko>  (19) 
{"free_energy": -7.26, "intermolecular_energy": -9.94, "internal_energy": -3.72, "cluster_size": 6, "cluster_id": 2, "rank_in_cluster": 5}

>  <energy>  (19) 
-6.58

>  <cluster_rmsd>  (19) 
0.57

>  <rmsd>  (19) 
270.88

>  <cluster>  (19) 
4

$$$$

     RDKit          3D

 56 59  0  0  0  0  0  0  0  0999 V2000
  142.2980   71.8000  221.1950 O   0  0  0  0  0  0  0  0  0  0  0  0
  141.1320   72.2390  221.3770 C   0  0  0  0  0  0  0  0  0  0  0  0
  140.0140   71.3620  221.4980 N   0  0  0  0  0  0  0  0  0  0  0  0
  140.1680   69.9270  221.4170 C   0  0  0  0  0  0  0  0  0  0  0  0
  138.8940   69.2230  221.7160 C   0  0  0  0  0  0  0  0  0  0  0  0
  138.6800   68.0320  221.3060 O   0  0  0  0  0  0  0  0  0  0  0  0
  137.9260   69.9350  222.4740 N   0  0  0  0  0  0  0  0  0  0  0  0
  136.6620   70.5130  222.0610 C   0  0  0  0  0  0  0  0  0  0  0  0
  136.7060   71.8310  222.8420 C   0  0  2  0  0  0  0  0  0  0  0  0
  137.7810   72.5510  222.3660 O   0  0  0  0  0  0  0  0  0  0  0  0
  137.0640   71.3150  224.2190 C   0  0  0  0  0  0  0  0  0  0  0  0
  138.0560   70.2220  223.8880 C   0  0  1  0  0  0  0  0  0  0  0  0
  137.7830   69.0010  224.7460 C   0  0  0  0  0  0  0  0  0  0  0  0
  138.8670   68.1750  224.8460 O   0  0  0  0  0  0  0  0  0  0  0  0
  139.5000   68.2130  226.0770 C   0  0  0  0  0  0  0  0  0  0  0  0
  140.0920   69.5020  226.4270 C   0  0  0  0  0  0  0  0  0  0  0  0
  140.8220   70.1910  225.4790 C   0  0  0  0  0  0  0  0  0  0  0  0
  141.3740   71.4100  225.8330 C   0  0  0  0  0  0  0  0  0  0  0  0
  141.2110   71.9480  227.1100 C   0  0  0  0  0  0  0  0  0  0  0  0
  140.4750   71.2510  228.0640 C   0  0  0  0  0  0  0  0  0  0  0  0
  139.9240   70.0210  227.6900 C   0  0  0  0  0  0  0  0  0  0  0  0
  140.8910   73.6760  221.4690 C   0  0  0  0  0  0  0  0  0  0  0  0
  141.8400   74.5590  220.9480 C   0  0  0  0  0  0  0  0  0  0  0  0
  141.6340   75.9240  221.0230 C   0  0  0  0  0  0  0  0  0  0  0  0
  140.4790   76.4160  221.6200 C   0  0  0  0  0  0  0  0  0  0  0  0
  140.2240   77.7660  221.7220 C   0  0  0  0  0  0  0  0  0  0  0  0
  139.0810   78.2760  222.3120 C   0  0  0  0  0  0  0  0  0  0  0  0
  138.1620   77.3620  222.8190 C   0  0  0  0  0  0  0  0  0  0  0  0
  138.4040   76.0110  222.7240 C   0  0  0  0  0  0  0  0  0  0  0  0
  139.5480   75.5140  222.1330 C   0  0  0  0  0  0  0  0  0  0  0  0
  139.7880   74.1980  222.0380 N   0  0  0  0  0  0  0  0  0  0  0  0
  139.0580   71.7680  221.6480 H   0  0  0  0  0  0  0  0  0  0  0  0
  140.4938   69.6596  220.4010 H   0  0  0  0  0  0  0  0  0  0  0  0
  140.9153   69.6183  222.1628 H   0  0  0  0  0  0  0  0  0  0  0  0
  136.6260   70.6828  220.9748 H   0  0  0  0  0  0  0  0  0  0  0  0
  135.7793   69.8867  222.2574 H   0  0  0  0  0  0  0  0  0  0  0  0
  135.8004   72.4533  222.7916 H   0  0  0  0  0  0  0  0  0  0  0  0
  138.0670   73.2790  222.9870 H   0  0  0  0  0  0  0  0  0  0  0  0
  137.5245   72.1016  224.8348 H   0  0  0  0  0  0  0  0  0  0  0  0
  136.1995   70.9710  224.8058 H   0  0  0  0  0  0  0  0  0  0  0  0
  139.0886   70.5349  224.1019 H   0  0  0  0  0  0  0  0  0  0  0  0
  137.5010   69.3357  225.7552 H   0  0  0  0  0  0  0  0  0  0  0  0
  136.9736   68.4313  224.2661 H   0  0  0  0  0  0  0  0  0  0  0  0
  138.7600   67.9563  226.8493 H   0  0  0  0  0  0  0  0  0  0  0  0
  140.3337   67.4980  226.0163 H   0  0  0  0  0  0  0  0  0  0  0  0
  140.9615   69.7814  224.4677 H   0  0  0  0  0  0  0  0  0  0  0  0
  141.9571   71.9699  225.0871 H   0  0  0  0  0  0  0  0  0  0  0  0
  141.6623   72.9190  227.3619 H   0  0  0  0  0  0  0  0  0  0  0  0
  140.3316   71.6538  229.0775 H   0  0  0  0  0  0  0  0  0  0  0  0
  139.3391   69.4518  228.4275 H   0  0  0  0  0  0  0  0  0  0  0  0
  142.7535   74.1671  220.4769 H   0  0  0  0  0  0  0  0  0  0  0  0
  142.3815   76.6184  220.6117 H   0  0  0  0  0  0  0  0  0  0  0  0
  140.9636   78.4715  221.3154 H   0  0  0  0  0  0  0  0  0  0  0  0
  138.9058   79.3600  222.3776 H   0  0  0  0  0  0  0  0  0  0  0  0
  137.2389   77.7211  223.2974 H   0  0  0  0  0  0  0  0  0  0  0  0
  137.6640   75.3062  223.1310 H   0  0  0  0  0  0  0  0  0  0  0  0
  1  2  2  0
  2  3  1  0
  3  4  1  0
  4  5  1  0
  5  6  2  0
  5  7  1  0
  7  8  1  0
  8  9  1  0
  9 10  1  0
  9 11  1  0
 11 12  1  0
 12 13  1  0
 13 14  1  0
 14 15  1  0
 15 16  1  0
 16 17  2  0
 17 18  1  0
 18 19  2  0
 19 20  1  0
 20 21  2  0
  2 22  1  0
 22 23  2  0
 23 24  1  0
 24 25  2  0
 25 26  1  0
 26 27  2  0
 27 28  1  0
 28 29  2  0
 29 30  1  0
 30 31  2  0
 12  7  1  0
 21 16  1  0
 31 22  1  0
 30 25  1  0
  3 32  1  0
  4 33  1  0
  4 34  1  0
  8 35  1  0
  8 36  1  0
  9 37  1  1
 10 38  1  0
 11 39  1  0
 11 40  1  0
 12 41  1  6
 13 42  1  0
 13 43  1  0
 15 44  1  0
 15 45  1  0
 17 46  1  0
 18 47  1  0
 19 48  1  0
 20 49  1  0
 21 50  1  0
 23 51  1  0
 24 52  1  0
 26 53  1  0
 27 54  1  0
 28 55  1  0
 29 56  1  0
M  END
>  <smiles>  (20) 
O=C(NCC(=O)N1C[C@H](O)C[C@H]1COCc1ccccc1)c1ccc2ccccc2n1

>  <score_type>  (20) 
oracle

>  <origin>  (20) 
autodockgpu

>  <m_score__min__energy>  (20) 
-9

>  <m_primary>  (20) 
energy

>  <meeko>  (20) 
{"free_energy": -7.1, "intermolecular_energy": -9.79, "internal_energy": -3.84, "cluster_size": 6, "cluster_id": 2, "rank_in_cluster": 6}

>  <energy>  (20) 
-6.91

>  <cluster_rmsd>  (20) 
0.0

>  <rmsd>  (20) 
270.43

>  <cluster>  (20) 
5

$$$$
