
     RDKit          3D

 52 54  0  0  0  0  0  0  0  0999 V2000
  146.1570   73.3800  221.5840 C   0  0  0  0  0  0  0  0  0  0  0  0
  145.1950   73.4340  220.4260 C   0  0  0  0  0  0  0  0  0  0  0  0
  144.3000   72.2180  220.4690 C   0  0  0  0  0  0  0  0  0  0  0  0
  145.9740   73.2500  219.2570 O   0  0  0  0  0  0  0  0  0  0  0  0
  144.4780   74.7100  220.2380 C   0  0  0  0  0  0  0  0  0  0  0  0
  143.0940   74.7140  219.7540 C   0  0  2  0  0  0  0  0  0  0  0  0
  143.0910   75.3680  218.3590 C   0  0  0  0  0  0  0  0  0  0  0  0
  143.2580   76.8190  218.7120 C   0  0  1  0  0  0  0  0  0  0  0  0
  142.7070   77.6610  217.7450 O   0  0  0  0  0  0  0  0  0  0  0  0
  142.5690   76.9310  220.0340 C   0  0  0  0  0  0  0  0  0  0  0  0
  142.1580   75.5920  220.4210 N   0  0  0  0  0  0  0  0  0  0  0  0
  141.0590   75.2810  221.2720 C   0  0  0  0  0  0  0  0  0  0  0  0
  140.9270   76.0000  222.2990 O   0  0  0  0  0  0  0  0  0  0  0  0
  140.1040   74.2000  221.0210 C   0  0  0  0  0  0  0  0  0  0  0  0
  139.9330   73.4150  222.2110 N   0  0  0  0  0  0  0  0  0  0  0  0
  140.2680   72.0350  222.1910 C   0  0  0  0  0  0  0  0  0  0  0  0
  140.7210   71.4690  221.1380 O   0  0  0  0  0  0  0  0  0  0  0  0
  140.0860   71.2530  223.4120 C   0  0  0  0  0  0  0  0  0  0  0  0
  139.4460   70.0120  223.3350 C   0  0  0  0  0  0  0  0  0  0  0  0
  139.2500   69.2350  224.4580 C   0  0  0  0  0  0  0  0  0  0  0  0
  139.7050   69.7150  225.6690 C   0  0  0  0  0  0  0  0  0  0  0  0
  139.5650   69.0290  226.8580 C   0  0  0  0  0  0  0  0  0  0  0  0
  140.0310   69.5390  228.0450 C   0  0  0  0  0  0  0  0  0  0  0  0
  139.8980   68.8720  229.2140 F   0  0  0  0  0  0  0  0  0  0  0  0
  140.6650   70.7780  228.0940 C   0  0  0  0  0  0  0  0  0  0  0  0
  140.8000   71.4620  226.8920 C   0  0  0  0  0  0  0  0  0  0  0  0
  140.3350   70.9540  225.6980 C   0  0  0  0  0  0  0  0  0  0  0  0
  140.5220   71.7030  224.6010 N   0  0  0  0  0  0  0  0  0  0  0  0
  145.5952   73.4115  222.5292 H   0  0  0  0  0  0  0  0  0  0  0  0
  146.7388   72.4478  221.5342 H   0  0  0  0  0  0  0  0  0  0  0  0
  146.8395   74.2412  221.5342 H   0  0  0  0  0  0  0  0  0  0  0  0
  144.1002   71.9466  221.5161 H   0  0  0  0  0  0  0  0  0  0  0  0
  143.3507   72.4433  219.9611 H   0  0  0  0  0  0  0  0  0  0  0  0
  144.7973   71.3785  219.9611 H   0  0  0  0  0  0  0  0  0  0  0  0
  146.0910   74.1400  218.8170 H   0  0  0  0  0  0  0  0  0  0  0  0
  144.4735   75.2174  221.2140 H   0  0  0  0  0  0  0  0  0  0  0  0
  145.0317   75.1902  219.4178 H   0  0  0  0  0  0  0  0  0  0  0  0
  142.7927   73.6625  219.8707 H   0  0  0  0  0  0  0  0  0  0  0  0
  143.9267   75.0050  217.7426 H   0  0  0  0  0  0  0  0  0  0  0  0
  142.1929   75.1507  217.7622 H   0  0  0  0  0  0  0  0  0  0  0  0
  144.3114   77.1321  218.7594 H   0  0  0  0  0  0  0  0  0  0  0  0
  143.4930   78.1740  217.3910 H   0  0  0  0  0  0  0  0  0  0  0  0
  143.2588   77.3448  220.7843 H   0  0  0  0  0  0  0  0  0  0  0  0
  141.6993   77.6009  219.9647 H   0  0  0  0  0  0  0  0  0  0  0  0
  139.1357   74.6298  220.7249 H   0  0  0  0  0  0  0  0  0  0  0  0
  140.4870   73.5575  220.2144 H   0  0  0  0  0  0  0  0  0  0  0  0
  139.5680   73.8340  223.0920 H   0  0  0  0  0  0  0  0  0  0  0  0
  139.0917   69.6480  222.3593 H   0  0  0  0  0  0  0  0  0  0  0  0
  138.7451   68.2601  224.3899 H   0  0  0  0  0  0  0  0  0  0  0  0
  139.0672   68.0481  226.8551 H   0  0  0  0  0  0  0  0  0  0  0  0
  141.0411   71.1955  229.0396 H   0  0  0  0  0  0  0  0  0  0  0  0
  141.2957   72.4440  226.8934 H   0  0  0  0  0  0  0  0  0  0  0  0
  1  2  1  0
  2  3  1  0
  2  4  1  0
  2  5  1  0
  5  6  1  0
  6  7  1  0
  7  8  1  0
  8  9  1  0
  8 10  1  0
 10 11  1  0
 11 12  1  0
 12 13  2  0
 12 14  1  0
 14 15  1  0
 15 16  1  0
 16 17  2  0
 16 18  1  0
 18 19  2  0
 19 20  1  0
 20 21  2  0
 21 22  1  0
 22 23  2  0
 23 24  1  0
 23 25  1  0
 25 26  2  0
 26 27  1  0
 27 28  2  0
 11  6  1  0
 28 18  1  0
 27 21  1  0
  1 29  1  0
  1 30  1  0
  1 31  1  0
  3 32  1  0
  3 33  1  0
  3 34  1  0
  4 35  1  0
  5 36  1  0
  5 37  1  0
  6 38  1  6
  7 39  1  0
  7 40  1  0
  8 41  1  1
  9 42  1  0
 10 43  1  0
 10 44  1  0
 14 45  1  0
 14 46  1  0
 15 47  1  0
 19 48  1  0
 20 49  1  0
 22 50  1  0
 25 51  1  0
 26 52  1  0
M  END
>  <smiles>  (1) 
CC(C)(O)C[C@@H]1C[C@@H](O)CN1C(=O)CNC(=O)c1ccc2cc(F)ccc2n1

>  <score_type>  (1) 
oracle

>  <origin>  (1) 
autodockgpu

>  <m_score__min__energy>  (1) 
-8.8800000000000008

>  <m_primary>  (1) 
energy

>  <meeko>  (1) 
{"free_energy": -8.7, "intermolecular_energy": -11.09, "internal_energy": -1.49, "cluster_size": 7, "cluster_id": 1, "rank_in_cluster": 4}

>  <energy>  (1) 
-8.88

>  <cluster_rmsd>  (1) 
0.0

>  <rmsd>  (1) 
271.44

>  <cluster>  (1) 
1

$$$$

     RDKit          3D

 52 54  0  0  0  0  0  0  0  0999 V2000
  142.9080   80.3630  223.2080 C   0  0  0  0  0  0  0  0  0  0  0  0
  141.7380   79.5170  222.7760 C   0  0  0  0  0  0  0  0  0  0  0  0
  140.4650   80.1130  223.3290 C   0  0  0  0  0  0  0  0  0  0  0  0
  141.8690   78.2830  223.4600 O   0  0  0  0  0  0  0  0  0  0  0  0
  141.6780   79.1800  221.3410 C   0  0  0  0  0  0  0  0  0  0  0  0
  141.7940   77.7850  220.9060 C   0  0  2  0  0  0  0  0  0  0  0  0
  142.2090   77.7930  219.4220 C   0  0  0  0  0  0  0  0  0  0  0  0
  140.9180   78.1760  218.7560 C   0  0  1  0  0  0  0  0  0  0  0  0
  140.8380   77.6920  217.4500 O   0  0  0  0  0  0  0  0  0  0  0  0
  139.8810   77.5850  219.6550 C   0  0  0  0  0  0  0  0  0  0  0  0
  140.5730   77.0170  220.7990 N   0  0  0  0  0  0  0  0  0  0  0  0
  140.0990   75.9350  221.5950 C   0  0  0  0  0  0  0  0  0  0  0  0
  139.6310   76.2370  222.7260 O   0  0  0  0  0  0  0  0  0  0  0  0
  140.1280   74.5320  221.1780 C   0  0  0  0  0  0  0  0  0  0  0  0
  139.9580   73.6800  222.3220 N   0  0  0  0  0  0  0  0  0  0  0  0
  140.3760   72.3240  222.2510 C   0  0  0  0  0  0  0  0  0  0  0  0
  140.9020   71.8390  221.1910 O   0  0  0  0  0  0  0  0  0  0  0  0
  140.1940   71.4730  223.4240 C   0  0  0  0  0  0  0  0  0  0  0  0
  139.5780   70.2270  223.2720 C   0  0  0  0  0  0  0  0  0  0  0  0
  139.3820   69.3870  224.3480 C   0  0  0  0  0  0  0  0  0  0  0  0
  139.8140   69.8080  225.5890 C   0  0  0  0  0  0  0  0  0  0  0  0
  139.6730   69.0550  226.7370 C   0  0  0  0  0  0  0  0  0  0  0  0
  140.1150   69.5070  227.9560 C   0  0  0  0  0  0  0  0  0  0  0  0
  139.9800   68.7750  229.0850 F   0  0  0  0  0  0  0  0  0  0  0  0
  140.7250   70.7530  228.0810 C   0  0  0  0  0  0  0  0  0  0  0  0
  140.8620   71.5040  226.9190 C   0  0  0  0  0  0  0  0  0  0  0  0
  140.4210   71.0540  225.6940 C   0  0  0  0  0  0  0  0  0  0  0  0
  140.6070   71.8650  224.6420 N   0  0  0  0  0  0  0  0  0  0  0  0
  142.9518   80.3946  224.3067 H   0  0  0  0  0  0  0  0  0  0  0  0
  143.8394   79.9281  222.8163 H   0  0  0  0  0  0  0  0  0  0  0  0
  142.7869   81.3837  222.8163 H   0  0  0  0  0  0  0  0  0  0  0  0
  140.4998   80.0967  224.4283 H   0  0  0  0  0  0  0  0  0  0  0  0
  140.3649   81.1516  222.9807 H   0  0  0  0  0  0  0  0  0  0  0  0
  139.6032   79.5248  222.9807 H   0  0  0  0  0  0  0  0  0  0  0  0
  141.2510   77.6240  223.0350 H   0  0  0  0  0  0  0  0  0  0  0  0
  140.7103   79.5481  220.9695 H   0  0  0  0  0  0  0  0  0  0  0  0
  142.5885   79.6456  220.9358 H   0  0  0  0  0  0  0  0  0  0  0  0
  142.4628   77.3495  221.6630 H   0  0  0  0  0  0  0  0  0  0  0  0
  142.9974   78.5353  219.2286 H   0  0  0  0  0  0  0  0  0  0  0  0
  142.6329   76.8416  219.0682 H   0  0  0  0  0  0  0  0  0  0  0  0
  140.8003   79.2632  218.6374 H   0  0  0  0  0  0  0  0  0  0  0  0
  141.6650   78.0480  217.0050 H   0  0  0  0  0  0  0  0  0  0  0  0
  139.1821   78.3664  219.9879 H   0  0  0  0  0  0  0  0  0  0  0  0
  139.3028   76.8124  219.1270 H   0  0  0  0  0  0  0  0  0  0  0  0
  139.3143   74.3473  220.4612 H   0  0  0  0  0  0  0  0  0  0  0  0
  141.0965   74.3142  220.7041 H   0  0  0  0  0  0  0  0  0  0  0  0
  139.5350   74.0330  223.2060 H   0  0  0  0  0  0  0  0  0  0  0  0
  139.2428   69.9102  222.2734 H   0  0  0  0  0  0  0  0  0  0  0  0
  138.8950   68.4089  224.2206 H   0  0  0  0  0  0  0  0  0  0  0  0
  139.1940   68.0668  226.6738 H   0  0  0  0  0  0  0  0  0  0  0  0
  141.0814   71.1251  229.0529 H   0  0  0  0  0  0  0  0  0  0  0  0
  141.3397   72.4930  226.9800 H   0  0  0  0  0  0  0  0  0  0  0  0
  1  2  1  0
  2  3  1  0
  2  4  1  0
  2  5  1  0
  5  6  1  0
  6  7  1  0
  7  8  1  0
  8  9  1  0
  8 10  1  0
 10 11  1  0
 11 12  1  0
 12 13  2  0
 12 14  1  0
 14 15  1  0
 15 16  1  0
 16 17  2  0
 16 18  1  0
 18 19  2  0
 19 20  1  0
 20 21  2  0
 21 22  1  0
 22 23  2  0
 23 24  1  0
 23 25  1  0
 25 26  2  0
 26 27  1  0
 27 28  2  0
 11  6  1  0
 28 18  1  0
 27 21  1  0
  1 29  1  0
  1 30  1  0
  1 31  1  0
  3 32  1  0
  3 33  1  0
  3 34  1  0
  4 35  1  0
  5 36  1  0
  5 37  1  0
  6 38  1  1
  7 39  1  0
  7 40  1  0
  8 41  1  6
  9 42  1  0
 10 43  1  0
 10 44  1  0
 14 45  1  0
 14 46  1  0
 15 47  1  0
 19 48  1  0
 20 49  1  0
 22 50  1  0
 25 51  1  0
 26 52  1  0
M  END
>  <smiles>  (2) 
CC(C)(O)C[C@@H]1C[C@@H](O)CN1C(=O)CNC(=O)c1ccc2cc(F)ccc2n1

>  <score_type>  (2) 
oracle

>  <origin>  (2) 
autodockgpu

>  <m_score__min__energy>  (2) 
-8.8800000000000008

>  <m_primary>  (2) 
energy

>  <meeko>  (2) 
{"free_energy": -7.07, "intermolecular_energy": -9.45, "internal_energy": -2.3, "cluster_size": 5, "cluster_id": 2, "rank_in_cluster": 4}

>  <energy>  (2) 
-8.88

>  <cluster_rmsd>  (2) 
0.04

>  <rmsd>  (2) 
271.45

>  <cluster>  (2) 
1

$$$$

     RDKit          3D

 52 54  0  0  0  0  0  0  0  0999 V2000
  146.2000   73.3970  221.5970 C   0  0  0  0  0  0  0  0  0  0  0  0
  145.2900   73.3460  220.3960 C   0  0  0  0  0  0  0  0  0  0  0  0
  144.5110   72.0510  220.4210 C   0  0  0  0  0  0  0  0  0  0  0  0
  146.1360   73.2200  219.2660 O   0  0  0  0  0  0  0  0  0  0  0  0
  144.4670   74.5460  220.1550 C   0  0  0  0  0  0  0  0  0  0  0  0
  143.1070   74.4130  219.6240 C   0  0  2  0  0  0  0  0  0  0  0  0
  142.9640   75.4060  218.4550 C   0  0  0  0  0  0  0  0  0  0  0  0
  142.8410   76.7100  219.1880 C   0  0  1  0  0  0  0  0  0  0  0  0
  142.1270   77.6590  218.4550 O   0  0  0  0  0  0  0  0  0  0  0  0
  142.1530   76.3260  220.4580 C   0  0  0  0  0  0  0  0  0  0  0  0
  142.0190   74.8790  220.4560 N   0  0  0  0  0  0  0  0  0  0  0  0
  141.0100   74.1430  221.1400 C   0  0  0  0  0  0  0  0  0  0  0  0
  140.4750   74.7150  222.1290 O   0  0  0  0  0  0  0  0  0  0  0  0
  140.5750   72.7970  220.7640 C   0  0  0  0  0  0  0  0  0  0  0  0
  140.6660   71.9200  221.8990 N   0  0  0  0  0  0  0  0  0  0  0  0
  139.5220   71.7120  222.7130 C   0  0  0  0  0  0  0  0  0  0  0  0
  138.4070   72.2850  222.4640 O   0  0  0  0  0  0  0  0  0  0  0  0
  139.6350   70.8180  223.8630 C   0  0  0  0  0  0  0  0  0  0  0  0
  139.1190   69.5220  223.7720 C   0  0  0  0  0  0  0  0  0  0  0  0
  139.2000   68.6400  224.8290 C   0  0  0  0  0  0  0  0  0  0  0  0
  139.8110   69.0710  225.9900 C   0  0  0  0  0  0  0  0  0  0  0  0
  139.9510   68.2800  227.1120 C   0  0  0  0  0  0  0  0  0  0  0  0
  140.5640   68.7420  228.2500 C   0  0  0  0  0  0  0  0  0  0  0  0
  140.7050   67.9730  229.3530 F   0  0  0  0  0  0  0  0  0  0  0  0
  141.0710   70.0380  228.3150 C   0  0  0  0  0  0  0  0  0  0  0  0
  140.9240   70.8280  227.1810 C   0  0  0  0  0  0  0  0  0  0  0  0
  140.3100   70.3670  226.0370 C   0  0  0  0  0  0  0  0  0  0  0  0
  140.2270   71.2190  225.0030 N   0  0  0  0  0  0  0  0  0  0  0  0
  145.5965   73.3632  222.5160 H   0  0  0  0  0  0  0  0  0  0  0  0
  146.8840   72.5358  221.5756 H   0  0  0  0  0  0  0  0  0  0  0  0
  146.7835   74.3293  221.5756 H   0  0  0  0  0  0  0  0  0  0  0  0
  144.3309   71.7516  221.4640 H   0  0  0  0  0  0  0  0  0  0  0  0
  143.5480   72.1925  219.9086 H   0  0  0  0  0  0  0  0  0  0  0  0
  145.0872   71.2665  219.9086 H   0  0  0  0  0  0  0  0  0  0  0  0
  146.3030   74.1340  218.9000 H   0  0  0  0  0  0  0  0  0  0  0  0
  144.3808   75.0695  221.1186 H   0  0  0  0  0  0  0  0  0  0  0  0
  145.0038   75.0593  219.3436 H   0  0  0  0  0  0  0  0  0  0  0  0
  143.0223   73.3316  219.4415 H   0  0  0  0  0  0  0  0  0  0  0  0
  143.8509   75.3921  217.8045 H   0  0  0  0  0  0  0  0  0  0  0  0
  142.1231   75.1883  217.7801 H   0  0  0  0  0  0  0  0  0  0  0  0
  143.8115   77.1960  219.3667 H   0  0  0  0  0  0  0  0  0  0  0  0
  142.6880   78.4890  218.5150 H   0  0  0  0  0  0  0  0  0  0  0  0
  142.7520   76.6474  221.3228 H   0  0  0  0  0  0  0  0  0  0  0  0
  141.1670   76.8085  220.5282 H   0  0  0  0  0  0  0  0  0  0  0  0
  139.5327   72.8346  220.4145 H   0  0  0  0  0  0  0  0  0  0  0  0
  141.2227   72.4179  219.9598 H   0  0  0  0  0  0  0  0  0  0  0  0
  141.5540   71.4320  222.1390 H   0  0  0  0  0  0  0  0  0  0  0  0
  138.6380   69.1987  222.8371 H   0  0  0  0  0  0  0  0  0  0  0  0
  138.7897   67.6225  224.7496 H   0  0  0  0  0  0  0  0  0  0  0  0
  139.5609   67.2516  227.0940 H   0  0  0  0  0  0  0  0  0  0  0  0
  141.5646   70.4183  229.2215 H   0  0  0  0  0  0  0  0  0  0  0  0
  141.3114   71.8574  227.1974 H   0  0  0  0  0  0  0  0  0  0  0  0
  1  2  1  0
  2  3  1  0
  2  4  1  0
  2  5  1  0
  5  6  1  0
  6  7  1  0
  7  8  1  0
  8  9  1  0
  8 10  1  0
 10 11  1  0
 11 12  1  0
 12 13  2  0
 12 14  1  0
 14 15  1  0
 15 16  1  0
 16 17  2  0
 16 18  1  0
 18 19  2  0
 19 20  1  0
 20 21  2  0
 21 22  1  0
 22 23  2  0
 23 24  1  0
 23 25  1  0
 25 26  2  0
 26 27  1  0
 27 28  2  0
 11  6  1  0
 28 18  1  0
 27 21  1  0
  1 29  1  0
  1 30  1  0
  1 31  1  0
  3 32  1  0
  3 33  1  0
  3 34  1  0
  4 35  1  0
  5 36  1  0
  5 37  1  0
  6 38  1  6
  7 39  1  0
  7 40  1  0
  8 41  1  1
  9 42  1  0
 10 43  1  0
 10 44  1  0
 14 45  1  0
 14 46  1  0
 15 47  1  0
 19 48  1  0
 20 49  1  0
 22 50  1  0
 25 51  1  0
 26 52  1  0
M  END
>  <smiles>  (3) 
CC(C)(O)C[C@@H]1C[C@@H](O)CN1C(=O)CNC(=O)c1ccc2cc(F)ccc2n1

>  <score_type>  (3) 
oracle

>  <origin>  (3) 
autodockgpu

>  <m_score__min__energy>  (3) 
-8.8800000000000008

>  <m_primary>  (3) 
energy

>  <meeko>  (3) 
{"free_energy": -8.33, "intermolecular_energy": -10.72, "internal_energy": -1.15, "cluster_size": 7, "cluster_id": 1, "rank_in_cluster": 5}

>  <energy>  (3) 
-8.87

>  <cluster_rmsd>  (3) 
0.05

>  <rmsd>  (3) 
271.42

>  <cluster>  (3) 
1

$$$$

     RDKit          3D

 52 54  0  0  0  0  0  0  0  0999 V2000
  143.0480   77.5910  218.4970 C   0  0  0  0  0  0  0  0  0  0  0  0
  142.7140   76.2420  219.0780 C   0  0  0  0  0  0  0  0  0  0  0  0
  141.8240   75.4940  218.1140 C   0  0  0  0  0  0  0  0  0  0  0  0
  141.8810   76.4910  220.1980 O   0  0  0  0  0  0  0  0  0  0  0  0
  143.8540   75.4570  219.5880 C   0  0  0  0  0  0  0  0  0  0  0  0
  143.6240   74.3240  220.4900 C   0  0  2  0  0  0  0  0  0  0  0  0
  144.9940   73.6920  220.8020 C   0  0  0  0  0  0  0  0  0  0  0  0
  145.2820   72.9620  219.5220 C   0  0  1  0  0  0  0  0  0  0  0  0
  146.1170   71.8620  219.7220 O   0  0  0  0  0  0  0  0  0  0  0  0
  143.9230   72.5740  219.0370 C   0  0  0  0  0  0  0  0  0  0  0  0
  142.9550   73.1640  219.9460 N   0  0  0  0  0  0  0  0  0  0  0  0
  141.6500   72.6550  220.2030 C   0  0  0  0  0  0  0  0  0  0  0  0
  141.1730   71.8750  219.3340 O   0  0  0  0  0  0  0  0  0  0  0  0
  140.8580   72.9820  221.3900 C   0  0  0  0  0  0  0  0  0  0  0  0
  140.9810   74.3830  221.6870 N   0  0  0  0  0  0  0  0  0  0  0  0
  139.8220   75.1270  222.0330 C   0  0  0  0  0  0  0  0  0  0  0  0
  138.6660   74.5830  222.0880 O   0  0  0  0  0  0  0  0  0  0  0  0
  139.9680   76.5500  222.3310 C   0  0  0  0  0  0  0  0  0  0  0  0
  138.8240   77.3530  222.3900 C   0  0  0  0  0  0  0  0  0  0  0  0
  138.9080   78.7010  222.6670 C   0  0  0  0  0  0  0  0  0  0  0  0
  140.1580   79.2440  222.8870 C   0  0  0  0  0  0  0  0  0  0  0  0
  140.3660   80.5780  223.1730 C   0  0  0  0  0  0  0  0  0  0  0  0
  141.6250   81.0830  223.3860 C   0  0  0  0  0  0  0  0  0  0  0  0
  141.8370   82.3890  223.6660 F   0  0  0  0  0  0  0  0  0  0  0  0
  142.7480   80.2610  223.3210 C   0  0  0  0  0  0  0  0  0  0  0  0
  142.5280   78.9200  223.0330 C   0  0  0  0  0  0  0  0  0  0  0  0
  141.2670   78.4090  222.8190 C   0  0  0  0  0  0  0  0  0  0  0  0
  141.1760   77.0970  222.5490 N   0  0  0  0  0  0  0  0  0  0  0  0
  143.2254   78.3077  219.3124 H   0  0  0  0  0  0  0  0  0  0  0  0
  143.9531   77.5094  217.8771 H   0  0  0  0  0  0  0  0  0  0  0  0
  142.2094   77.9411  217.8771 H   0  0  0  0  0  0  0  0  0  0  0  0
  141.1012   74.8865  218.6783 H   0  0  0  0  0  0  0  0  0  0  0  0
  141.2835   76.2129  217.4808 H   0  0  0  0  0  0  0  0  0  0  0  0
  142.4392   74.8378  217.4808 H   0  0  0  0  0  0  0  0  0  0  0  0
  142.4660   76.7040  220.9790 H   0  0  0  0  0  0  0  0  0  0  0  0
  144.3834   75.0599  218.7094 H   0  0  0  0  0  0  0  0  0  0  0  0
  144.3912   76.1776  220.2222 H   0  0  0  0  0  0  0  0  0  0  0  0
  143.0274   74.7742  221.2971 H   0  0  0  0  0  0  0  0  0  0  0  0
  145.7542   74.4602  221.0068 H   0  0  0  0  0  0  0  0  0  0  0  0
  145.0005   73.0514  221.6962 H   0  0  0  0  0  0  0  0  0  0  0  0
  145.8300   73.5741  218.7906 H   0  0  0  0  0  0  0  0  0  0  0  0
  145.9480   71.5960  220.6750 H   0  0  0  0  0  0  0  0  0  0  0  0
  143.7638   72.9560  218.0178 H   0  0  0  0  0  0  0  0  0  0  0  0
  143.8165   71.4795  219.0115 H   0  0  0  0  0  0  0  0  0  0  0  0
  139.8015   72.7400  221.2021 H   0  0  0  0  0  0  0  0  0  0  0  0
  141.2263   72.3959  222.2449 H   0  0  0  0  0  0  0  0  0  0  0  0
  141.9020   74.8670  221.6550 H   0  0  0  0  0  0  0  0  0  0  0  0
  137.8377   76.8998  222.2118 H   0  0  0  0  0  0  0  0  0  0  0  0
  138.0042   79.3264  222.7115 H   0  0  0  0  0  0  0  0  0  0  0  0
  139.5006   81.2544  223.2319 H   0  0  0  0  0  0  0  0  0  0  0  0
  143.7610   80.6553  223.4898 H   0  0  0  0  0  0  0  0  0  0  0  0
  143.3920   78.2418  222.9737 H   0  0  0  0  0  0  0  0  0  0  0  0
  1  2  1  0
  2  3  1  0
  2  4  1  0
  2  5  1  0
  5  6  1  0
  6  7  1  0
  7  8  1  0
  8  9  1  0
  8 10  1  0
 10 11  1  0
 11 12  1  0
 12 13  2  0
 12 14  1  0
 14 15  1  0
 15 16  1  0
 16 17  2  0
 16 18  1  0
 18 19  2  0
 19 20  1  0
 20 21  2  0
 21 22  1  0
 22 23  2  0
 23 24  1  0
 23 25  1  0
 25 26  2  0
 26 27  1  0
 27 28  2  0
 11  6  1  0
 28 18  1  0
 27 21  1  0
  1 29  1  0
  1 30  1  0
  1 31  1  0
  3 32  1  0
  3 33  1  0
  3 34  1  0
  4 35  1  0
  5 36  1  0
  5 37  1  0
  6 38  1  1
  7 39  1  0
  7 40  1  0
  8 41  1  6
  9 42  1  0
 10 43  1  0
 10 44  1  0
 14 45  1  0
 14 46  1  0
 15 47  1  0
 19 48  1  0
 20 49  1  0
 22 50  1  0
 25 51  1  0
 26 52  1  0
M  END
>  <smiles>  (4) 
CC(C)(O)C[C@@H]1C[C@@H](O)CN1C(=O)CNC(=O)c1ccc2cc(F)ccc2n1

>  <score_type>  (4) 
oracle

>  <origin>  (4) 
autodockgpu

>  <m_score__min__energy>  (4) 
-8.8800000000000008

>  <m_primary>  (4) 
energy

>  <meeko>  (4) 
{"free_energy": -6.26, "intermolecular_energy": -8.65, "internal_energy": -3.18, "cluster_size": 7, "cluster_id": 3, "rank_in_cluster": 6}

>  <energy>  (4) 
-8.7

>  <cluster_rmsd>  (4) 
0.25

>  <rmsd>  (4) 
271.43

>  <cluster>  (4) 
1

$$$$

     RDKit          3D

 52 54  0  0  0  0  0  0  0  0999 V2000
  142.9870   77.5480  218.4370 C   0  0  0  0  0  0  0  0  0  0  0  0
  142.5440   76.2160  218.9860 C   0  0  0  0  0  0  0  0  0  0  0  0
  141.3310   75.7440  218.2180 C   0  0  0  0  0  0  0  0  0  0  0  0
  142.0510   76.4710  220.2900 O   0  0  0  0  0  0  0  0  0  0  0  0
  143.5980   75.1970  219.1440 C   0  0  0  0  0  0  0  0  0  0  0  0
  143.6990   74.4250  220.3870 C   0  0  2  0  0  0  0  0  0  0  0  0
  145.1710   74.0050  220.5560 C   0  0  0  0  0  0  0  0  0  0  0  0
  145.2810   72.9010  219.5440 C   0  0  1  0  0  0  0  0  0  0  0  0
  146.2690   71.9750  219.8830 O   0  0  0  0  0  0  0  0  0  0  0  0
  143.9110   72.3050  219.5360 C   0  0  0  0  0  0  0  0  0  0  0  0
  143.0810   73.1180  220.4100 N   0  0  0  0  0  0  0  0  0  0  0  0
  141.9290   72.6610  221.1110 C   0  0  0  0  0  0  0  0  0  0  0  0
  142.0290   71.5400  221.6800 O   0  0  0  0  0  0  0  0  0  0  0  0
  140.6720   73.4060  221.2010 C   0  0  0  0  0  0  0  0  0  0  0  0
  140.9240   74.7300  221.6970 N   0  0  0  0  0  0  0  0  0  0  0  0
  139.8330   75.6130  221.9160 C   0  0  0  0  0  0  0  0  0  0  0  0
  138.6260   75.2600  221.6820 O   0  0  0  0  0  0  0  0  0  0  0  0
  140.1090   76.9560  222.4190 C   0  0  0  0  0  0  0  0  0  0  0  0
  139.0440   77.7550  222.8480 C   0  0  0  0  0  0  0  0  0  0  0  0
  139.2530   79.0290  223.3310 C   0  0  0  0  0  0  0  0  0  0  0  0
  140.5480   79.5020  223.3850 C   0  0  0  0  0  0  0  0  0  0  0  0
  140.8800   80.7580  223.8480 C   0  0  0  0  0  0  0  0  0  0  0  0
  142.1810   81.1950  223.8870 C   0  0  0  0  0  0  0  0  0  0  0  0
  142.5130   82.4240  224.3400 F   0  0  0  0  0  0  0  0  0  0  0  0
  143.2240   80.3790  223.4540 C   0  0  0  0  0  0  0  0  0  0  0  0
  142.8800   79.1150  222.9880 C   0  0  0  0  0  0  0  0  0  0  0  0
  141.5760   78.6730  222.9490 C   0  0  0  0  0  0  0  0  0  0  0  0
  141.3650   77.4340  222.4790 N   0  0  0  0  0  0  0  0  0  0  0  0
  143.2140   78.2305  219.2693 H   0  0  0  0  0  0  0  0  0  0  0  0
  143.8874   77.4094  217.8205 H   0  0  0  0  0  0  0  0  0  0  0  0
  142.1829   77.9762  217.8205 H   0  0  0  0  0  0  0  0  0  0  0  0
  140.5456   75.4384  218.9249 H   0  0  0  0  0  0  0  0  0  0  0  0
  140.9566   76.5621  217.5851 H   0  0  0  0  0  0  0  0  0  0  0  0
  141.6080   74.8880  217.5851 H   0  0  0  0  0  0  0  0  0  0  0  0
  142.7230   77.0320  220.7720 H   0  0  0  0  0  0  0  0  0  0  0  0
  143.4595   74.4698  218.3303 H   0  0  0  0  0  0  0  0  0  0  0  0
  144.5232   75.7920  219.1432 H   0  0  0  0  0  0  0  0  0  0  0  0
  143.2287   75.0906  221.1258 H   0  0  0  0  0  0  0  0  0  0  0  0
  145.8554   74.8341  220.3232 H   0  0  0  0  0  0  0  0  0  0  0  0
  145.4389   73.7053  221.5799 H   0  0  0  0  0  0  0  0  0  0  0  0
  145.5890   73.2577  218.5501 H   0  0  0  0  0  0  0  0  0  0  0  0
  146.0380   71.7030  220.8220 H   0  0  0  0  0  0  0  0  0  0  0  0
  143.5029   72.3132  218.5145 H   0  0  0  0  0  0  0  0  0  0  0  0
  143.9380   71.2618  219.8840 H   0  0  0  0  0  0  0  0  0  0  0  0
  140.2142   73.4712  220.2029 H   0  0  0  0  0  0  0  0  0  0  0  0
  139.9901   72.8848  221.8890 H   0  0  0  0  0  0  0  0  0  0  0  0
  141.8900   75.0600  221.9020 H   0  0  0  0  0  0  0  0  0  0  0  0
  138.0191   77.3587  222.7989 H   0  0  0  0  0  0  0  0  0  0  0  0
  138.4099   79.6519  223.6644 H   0  0  0  0  0  0  0  0  0  0  0  0
  140.0802   81.4283  224.1958 H   0  0  0  0  0  0  0  0  0  0  0  0
  144.2699   80.7186  223.4796 H   0  0  0  0  0  0  0  0  0  0  0  0
  143.6780   78.4437  222.6379 H   0  0  0  0  0  0  0  0  0  0  0  0
  1  2  1  0
  2  3  1  0
  2  4  1  0
  2  5  1  0
  5  6  1  0
  6  7  1  0
  7  8  1  0
  8  9  1  0
  8 10  1  0
 10 11  1  0
 11 12  1  0
 12 13  2  0
 12 14  1  0
 14 15  1  0
 15 16  1  0
 16 17  2  0
 16 18  1  0
 18 19  2  0
 19 20  1  0
 20 21  2  0
 21 22  1  0
 22 23  2  0
 23 24  1  0
 23 25  1  0
 25 26  2  0
 26 27  1  0
 27 28  2  0
 11  6  1  0
 28 18  1  0
 27 21  1  0
  1 29  1  0
  1 30  1  0
  1 31  1  0
  3 32  1  0
  3 33  1  0
  3 34  1  0
  4 35  1  0
  5 36  1  0
  5 37  1  0
  6 38  1  1
  7 39  1  0
  7 40  1  0
  8 41  1  6
  9 42  1  0
 10 43  1  0
 10 44  1  0
 14 45  1  0
 14 46  1  0
 15 47  1  0
 19 48  1  0
 20 49  1  0
 22 50  1  0
 25 51  1  0
 26 52  1  0
M  END
>  <smiles>  (5) 
CC(C)(O)C[C@@H]1C[C@@H](O)CN1C(=O)CNC(=O)c1ccc2cc(F)ccc2n1

>  <score_type>  (5) 
oracle

>  <origin>  (5) 
autodockgpu

>  <m_score__min__energy>  (5) 
-8.8800000000000008

>  <m_primary>  (5) 
energy

>  <meeko>  (5) 
{"free_energy": -6.82, "intermolecular_energy": -9.21, "internal_energy": -3.01, "cluster_size": 7, "cluster_id": 3, "rank_in_cluster": 4}

>  <energy>  (5) 
-8.33

>  <cluster_rmsd>  (5) 
1.24

>  <rmsd>  (5) 
271.44

>  <cluster>  (5) 
1

$$$$

     RDKit          3D

 52 54  0  0  0  0  0  0  0  0999 V2000
  146.2090   73.3560  221.4900 C   0  0  0  0  0  0  0  0  0  0  0  0
  145.2200   73.3990  220.3550 C   0  0  0  0  0  0  0  0  0  0  0  0
  144.3440   72.1700  220.4160 C   0  0  0  0  0  0  0  0  0  0  0  0
  145.9750   73.2280  219.1680 O   0  0  0  0  0  0  0  0  0  0  0  0
  144.4810   74.6640  220.1870 C   0  0  0  0  0  0  0  0  0  0  0  0
  143.0960   74.6520  219.7060 C   0  0  2  0  0  0  0  0  0  0  0  0
  143.0930   75.2320  218.2790 C   0  0  0  0  0  0  0  0  0  0  0  0
  143.2690   76.6970  218.5550 C   0  0  1  0  0  0  0  0  0  0  0  0
  142.7200   77.4910  217.5460 O   0  0  0  0  0  0  0  0  0  0  0  0
  142.5840   76.8820  219.8710 C   0  0  0  0  0  0  0  0  0  0  0  0
  142.1670   75.5680  220.3290 N   0  0  0  0  0  0  0  0  0  0  0  0
  141.0680   75.3090  221.1970 C   0  0  0  0  0  0  0  0  0  0  0  0
  141.0380   75.9660  222.2720 O   0  0  0  0  0  0  0  0  0  0  0  0
  140.0030   74.3450  220.9120 C   0  0  0  0  0  0  0  0  0  0  0  0
  139.7670   73.5240  222.0670 N   0  0  0  0  0  0  0  0  0  0  0  0
  140.5220   72.3340  222.2440 C   0  0  0  0  0  0  0  0  0  0  0  0
  141.4110   71.9710  221.3990 O   0  0  0  0  0  0  0  0  0  0  0  0
  140.2660   71.5120  223.4240 C   0  0  0  0  0  0  0  0  0  0  0  0
  139.5420   70.3240  223.2820 C   0  0  0  0  0  0  0  0  0  0  0  0
  139.2740   69.5130  224.3640 C   0  0  0  0  0  0  0  0  0  0  0  0
  139.7430   69.9040  225.6030 C   0  0  0  0  0  0  0  0  0  0  0  0
  139.5370   69.1760  226.7560 C   0  0  0  0  0  0  0  0  0  0  0  0
  140.0180   69.5970  227.9720 C   0  0  0  0  0  0  0  0  0  0  0  0
  139.8210   68.8890  229.1060 F   0  0  0  0  0  0  0  0  0  0  0  0
  140.7370   70.7850  228.0860 C   0  0  0  0  0  0  0  0  0  0  0  0
  140.9380   71.5120  226.9190 C   0  0  0  0  0  0  0  0  0  0  0  0
  140.4580   71.0930  225.6970 C   0  0  0  0  0  0  0  0  0  0  0  0
  140.7140   71.8760  224.6380 N   0  0  0  0  0  0  0  0  0  0  0  0
  145.6689   73.3795  222.4480 H   0  0  0  0  0  0  0  0  0  0  0  0
  146.8012   72.4313  221.4255 H   0  0  0  0  0  0  0  0  0  0  0  0
  146.8792   74.2259  221.4255 H   0  0  0  0  0  0  0  0  0  0  0  0
  144.1557   71.9058  221.4671 H   0  0  0  0  0  0  0  0  0  0  0  0
  143.3878   72.3759  219.9127 H   0  0  0  0  0  0  0  0  0  0  0  0
  144.8506   71.3333  219.9127 H   0  0  0  0  0  0  0  0  0  0  0  0
  146.3640   74.1140  218.9170 H   0  0  0  0  0  0  0  0  0  0  0  0
  144.4702   75.1570  221.1703 H   0  0  0  0  0  0  0  0  0  0  0  0
  145.0244   75.1648  219.3722 H   0  0  0  0  0  0  0  0  0  0  0  0
  142.7888   73.6098  219.8774 H   0  0  0  0  0  0  0  0  0  0  0  0
  143.9249   74.8325  217.6805 H   0  0  0  0  0  0  0  0  0  0  0  0
  142.1921   74.9890  217.6965 H   0  0  0  0  0  0  0  0  0  0  0  0
  144.3243   77.0060  218.5836 H   0  0  0  0  0  0  0  0  0  0  0  0
  143.4750   78.0910  217.2690 H   0  0  0  0  0  0  0  0  0  0  0  0
  143.2780   77.3310  220.5968 H   0  0  0  0  0  0  0  0  0  0  0  0
  141.7176   77.5519  219.7685 H   0  0  0  0  0  0  0  0  0  0  0  0
  139.0806   74.8858  220.6539 H   0  0  0  0  0  0  0  0  0  0  0  0
  140.3071   73.7069  220.0692 H   0  0  0  0  0  0  0  0  0  0  0  0
  139.0540   73.7810  222.7800 H   0  0  0  0  0  0  0  0  0  0  0  0
  139.1788   70.0305  222.2860 H   0  0  0  0  0  0  0  0  0  0  0  0
  138.7027   68.5807  224.2441 H   0  0  0  0  0  0  0  0  0  0  0  0
  138.9727   68.2334  226.7005 H   0  0  0  0  0  0  0  0  0  0  0  0
  141.1272   71.1312  229.0544 H   0  0  0  0  0  0  0  0  0  0  0  0
  141.5004   72.4558  226.9725 H   0  0  0  0  0  0  0  0  0  0  0  0
  1  2  1  0
  2  3  1  0
  2  4  1  0
  2  5  1  0
  5  6  1  0
  6  7  1  0
  7  8  1  0
  8  9  1  0
  8 10  1  0
 10 11  1  0
 11 12  1  0
 12 13  2  0
 12 14  1  0
 14 15  1  0
 15 16  1  0
 16 17  2  0
 16 18  1  0
 18 19  2  0
 19 20  1  0
 20 21  2  0
 21 22  1  0
 22 23  2  0
 23 24  1  0
 23 25  1  0
 25 26  2  0
 26 27  1  0
 27 28  2  0
 11  6  1  0
 28 18  1  0
 27 21  1  0
  1 29  1  0
  1 30  1  0
  1 31  1  0
  3 32  1  0
  3 33  1  0
  3 34  1  0
  4 35  1  0
  5 36  1  0
  5 37  1  0
  6 38  1  6
  7 39  1  0
  7 40  1  0
  8 41  1  1
  9 42  1  0
 10 43  1  0
 10 44  1  0
 14 45  1  0
 14 46  1  0
 15 47  1  0
 19 48  1  0
 20 49  1  0
 22 50  1  0
 25 51  1  0
 26 52  1  0
M  END
>  <smiles>  (6) 
CC(C)(O)C[C@@H]1C[C@@H](O)CN1C(=O)CNC(=O)c1ccc2cc(F)ccc2n1

>  <score_type>  (6) 
oracle

>  <origin>  (6) 
autodockgpu

>  <m_score__min__energy>  (6) 
-8.8800000000000008

>  <m_primary>  (6) 
energy

>  <meeko>  (6) 
{"free_energy": -8.87, "intermolecular_energy": -11.26, "internal_energy": -1.42, "cluster_size": 7, "cluster_id": 1, "rank_in_cluster": 3}

>  <energy>  (6) 
-7.51

>  <cluster_rmsd>  (6) 
1.72

>  <rmsd>  (6) 
271.0

>  <cluster>  (6) 
1

$$$$

     RDKit          3D

 52 54  0  0  0  0  0  0  0  0999 V2000
  144.8850   72.6530  220.4640 C   0  0  0  0  0  0  0  0  0  0  0  0
  144.9470   72.9100  218.9810 C   0  0  0  0  0  0  0  0  0  0  0  0
  144.5390   71.6550  218.2450 C   0  0  0  0  0  0  0  0  0  0  0  0
  146.3200   73.0660  218.6650 O   0  0  0  0  0  0  0  0  0  0  0  0
  144.2810   74.1370  218.5070 C   0  0  0  0  0  0  0  0  0  0  0  0
  142.8180   74.1990  218.4320 C   0  0  2  0  0  0  0  0  0  0  0  0
  142.4040   75.6710  218.6190 C   0  0  0  0  0  0  0  0  0  0  0  0
  142.6060   75.8500  220.0960 C   0  0  1  0  0  0  0  0  0  0  0  0
  141.7770   76.8420  220.6220 O   0  0  0  0  0  0  0  0  0  0  0  0
  142.3060   74.4950  220.6490 C   0  0  0  0  0  0  0  0  0  0  0  0
  142.0690   73.6100  219.5200 N   0  0  0  0  0  0  0  0  0  0  0  0
  141.2610   72.4390  219.5470 C   0  0  0  0  0  0  0  0  0  0  0  0
  141.7760   71.3930  219.0670 O   0  0  0  0  0  0  0  0  0  0  0  0
  139.9000   72.3900  220.0850 C   0  0  0  0  0  0  0  0  0  0  0  0
  139.8600   71.5220  221.2290 N   0  0  0  0  0  0  0  0  0  0  0  0
  139.9610   72.0780  222.5320 C   0  0  0  0  0  0  0  0  0  0  0  0
  140.0880   73.3370  222.7160 O   0  0  0  0  0  0  0  0  0  0  0  0
  139.9190   71.1790  223.6820 C   0  0  0  0  0  0  0  0  0  0  0  0
  139.2410   69.9610  223.5700 C   0  0  0  0  0  0  0  0  0  0  0  0
  139.1730   69.0780  224.6270 C   0  0  0  0  0  0  0  0  0  0  0  0
  139.7950   69.4260  225.8080 C   0  0  0  0  0  0  0  0  0  0  0  0
  139.7950   68.6260  226.9320 C   0  0  0  0  0  0  0  0  0  0  0  0
  140.4260   69.0060  228.0910 C   0  0  0  0  0  0  0  0  0  0  0  0
  140.4290   68.2260  229.1950 F   0  0  0  0  0  0  0  0  0  0  0  0
  141.0940   70.2250  228.1760 C   0  0  0  0  0  0  0  0  0  0  0  0
  141.0890   71.0250  227.0400 C   0  0  0  0  0  0  0  0  0  0  0  0
  140.4580   70.6470  225.8750 C   0  0  0  0  0  0  0  0  0  0  0  0
  140.5200   71.5010  224.8420 N   0  0  0  0  0  0  0  0  0  0  0  0
  145.1094   73.5830  221.0070 H   0  0  0  0  0  0  0  0  0  0  0  0
  143.8771   72.3049  220.7340 H   0  0  0  0  0  0  0  0  0  0  0  0
  145.6232   71.8835  220.7340 H   0  0  0  0  0  0  0  0  0  0  0  0
  144.2838   70.8701  218.9721 H   0  0  0  0  0  0  0  0  0  0  0  0
  143.6639   71.8683  217.6135 H   0  0  0  0  0  0  0  0  0  0  0  0
  145.3722   71.3130  217.6135 H   0  0  0  0  0  0  0  0  0  0  0  0
  146.5220   74.0440  218.6280 H   0  0  0  0  0  0  0  0  0  0  0  0
  144.5985   74.9491  219.1776 H   0  0  0  0  0  0  0  0  0  0  0  0
  144.5893   74.1989  217.4529 H   0  0  0  0  0  0  0  0  0  0  0  0
  142.6019   73.6813  217.4858 H   0  0  0  0  0  0  0  0  0  0  0  0
  143.0498   76.3473  218.0397 H   0  0  0  0  0  0  0  0  0  0  0  0
  141.3848   75.8989  218.2736 H   0  0  0  0  0  0  0  0  0  0  0  0
  143.6186   76.1937  220.3539 H   0  0  0  0  0  0  0  0  0  0  0  0
  142.2410   77.1260  221.4660 H   0  0  0  0  0  0  0  0  0  0  0  0
  143.1602   74.1317  221.2392 H   0  0  0  0  0  0  0  0  0  0  0  0
  141.4261   74.5295  221.3082 H   0  0  0  0  0  0  0  0  0  0  0  0
  139.5886   73.4019  220.3833 H   0  0  0  0  0  0  0  0  0  0  0  0
  139.2178   72.0049  219.3128 H   0  0  0  0  0  0  0  0  0  0  0  0
  139.7570   70.4900  221.1270 H   0  0  0  0  0  0  0  0  0  0  0  0
  138.7520   69.7020  222.6193 H   0  0  0  0  0  0  0  0  0  0  0  0
  138.6373   68.1221  224.5310 H   0  0  0  0  0  0  0  0  0  0  0  0
  139.2753   67.6571  226.8989 H   0  0  0  0  0  0  0  0  0  0  0  0
  141.6019   70.5398  229.0995 H   0  0  0  0  0  0  0  0  0  0  0  0
  141.6073   71.9947  227.0719 H   0  0  0  0  0  0  0  0  0  0  0  0
  1  2  1  0
  2  3  1  0
  2  4  1  0
  2  5  1  0
  5  6  1  0
  6  7  1  0
  7  8  1  0
  8  9  1  0
  8 10  1  0
 10 11  1  0
 11 12  1  0
 12 13  2  0
 12 14  1  0
 14 15  1  0
 15 16  1  0
 16 17  2  0
 16 18  1  0
 18 19  2  0
 19 20  1  0
 20 21  2  0
 21 22  1  0
 22 23  2  0
 23 24  1  0
 23 25  1  0
 25 26  2  0
 26 27  1  0
 27 28  2  0
 11  6  1  0
 28 18  1  0
 27 21  1  0
  1 29  1  0
  1 30  1  0
  1 31  1  0
  3 32  1  0
  3 33  1  0
  3 34  1  0
  4 35  1  0
  5 36  1  0
  5 37  1  0
  6 38  1  6
  7 39  1  0
  7 40  1  0
  8 41  1  6
  9 42  1  0
 10 43  1  0
 10 44  1  0
 14 45  1  0
 14 46  1  0
 15 47  1  0
 19 48  1  0
 20 49  1  0
 22 50  1  0
 25 51  1  0
 26 52  1  0
M  END
>  <smiles>  (7) 
CC(C)(O)C[C@@H]1C[C@@H](O)CN1C(=O)CNC(=O)c1ccc2cc(F)ccc2n1

>  <score_type>  (7) 
oracle

>  <origin>  (7) 
autodockgpu

>  <m_score__min__energy>  (7) 
-8.8800000000000008

>  <m_primary>  (7) 
energy

>  <meeko>  (7) 
{"free_energy": -7.51, "intermolecular_energy": -9.89, "internal_energy": -1.27, "cluster_size": 7, "cluster_id": 1, "rank_in_cluster": 6}

>  <energy>  (7) 
-6.98

>  <cluster_rmsd>  (7) 
1.78

>  <rmsd>  (7) 
270.93

>  <cluster>  (7) 
1

$$$$

     RDKit          3D

 52 54  0  0  0  0  0  0  0  0999 V2000
  142.6270   80.4690  223.3530 C   0  0  0  0  0  0  0  0  0  0  0  0
  141.6200   79.4880  222.8090 C   0  0  0  0  0  0  0  0  0  0  0  0
  140.2380   79.8950  223.2640 C   0  0  0  0  0  0  0  0  0  0  0  0
  141.8610   78.2640  223.4820 O   0  0  0  0  0  0  0  0  0  0  0  0
  141.7220   79.1870  221.3690 C   0  0  0  0  0  0  0  0  0  0  0  0
  141.8130   77.7970  220.9110 C   0  0  2  0  0  0  0  0  0  0  0  0
  142.2030   77.8220  219.4210 C   0  0  0  0  0  0  0  0  0  0  0  0
  140.9060   78.2310  218.7830 C   0  0  1  0  0  0  0  0  0  0  0  0
  140.7980   77.7680  217.4710 O   0  0  0  0  0  0  0  0  0  0  0  0
  139.8770   77.6390  219.6910 C   0  0  0  0  0  0  0  0  0  0  0  0
  140.5810   77.0450  220.8140 N   0  0  0  0  0  0  0  0  0  0  0  0
  140.1080   75.9580  221.6020 C   0  0  0  0  0  0  0  0  0  0  0  0
  139.6150   76.2530  222.7250 O   0  0  0  0  0  0  0  0  0  0  0  0
  140.1630   74.5550  221.1860 C   0  0  0  0  0  0  0  0  0  0  0  0
  139.9670   73.7010  222.3250 N   0  0  0  0  0  0  0  0  0  0  0  0
  140.4400   72.3630  222.2830 C   0  0  0  0  0  0  0  0  0  0  0  0
  141.0380   71.8930  221.2550 O   0  0  0  0  0  0  0  0  0  0  0  0
  140.2300   71.5090  223.4500 C   0  0  0  0  0  0  0  0  0  0  0  0
  139.5750   70.2840  223.2890 C   0  0  0  0  0  0  0  0  0  0  0  0
  139.3520   69.4430  224.3590 C   0  0  0  0  0  0  0  0  0  0  0  0
  139.7960   69.8410  225.6040 C   0  0  0  0  0  0  0  0  0  0  0  0
  139.6310   69.0860  226.7460 C   0  0  0  0  0  0  0  0  0  0  0  0
  140.0860   69.5140  227.9680 C   0  0  0  0  0  0  0  0  0  0  0  0
  139.9280   68.7790  229.0920 F   0  0  0  0  0  0  0  0  0  0  0  0
  140.7350   70.7400  228.1020 C   0  0  0  0  0  0  0  0  0  0  0  0
  140.8970   71.4940  226.9460 C   0  0  0  0  0  0  0  0  0  0  0  0
  140.4420   71.0670  225.7170 C   0  0  0  0  0  0  0  0  0  0  0  0
  140.6550   71.8800  224.6710 N   0  0  0  0  0  0  0  0  0  0  0  0
  142.6039   80.4465  224.4525 H   0  0  0  0  0  0  0  0  0  0  0  0
  143.6327   80.1949  223.0017 H   0  0  0  0  0  0  0  0  0  0  0  0
  142.3793   81.4815  223.0017 H   0  0  0  0  0  0  0  0  0  0  0  0
  140.2022   79.9055  224.3634 H   0  0  0  0  0  0  0  0  0  0  0  0
  140.0065   80.8995  222.8800 H   0  0  0  0  0  0  0  0  0  0  0  0
  139.4991   79.1763  222.8800 H   0  0  0  0  0  0  0  0  0  0  0  0
  141.3010   77.5570  223.0500 H   0  0  0  0  0  0  0  0  0  0  0  0
  140.8310   79.6202  220.8911 H   0  0  0  0  0  0  0  0  0  0  0  0
  142.7010   79.6063  221.0939 H   0  0  0  0  0  0  0  0  0  0  0  0
  142.4891   77.3422  221.6500 H   0  0  0  0  0  0  0  0  0  0  0  0
  142.9974   78.5572  219.2251 H   0  0  0  0  0  0  0  0  0  0  0  0
  142.6088   76.8709  219.0460 H   0  0  0  0  0  0  0  0  0  0  0  0
  140.7997   79.3212  218.6826 H   0  0  0  0  0  0  0  0  0  0  0  0
  141.4270   78.3530  216.9520 H   0  0  0  0  0  0  0  0  0  0  0  0
  139.1938   78.4238  220.0478 H   0  0  0  0  0  0  0  0  0  0  0  0
  139.2803   76.8818  219.1614 H   0  0  0  0  0  0  0  0  0  0  0  0
  139.3729   74.3626  220.4452 H   0  0  0  0  0  0  0  0  0  0  0  0
  141.1472   74.3466  220.7412 H   0  0  0  0  0  0  0  0  0  0  0  0
  139.4860   74.0410  223.1840 H   0  0  0  0  0  0  0  0  0  0  0  0
  139.2305   69.9850  222.2881 H   0  0  0  0  0  0  0  0  0  0  0  0
  138.8347   68.4817  224.2241 H   0  0  0  0  0  0  0  0  0  0  0  0
  139.1207   68.1141  226.6756 H   0  0  0  0  0  0  0  0  0  0  0  0
  141.1017   71.0941  229.0768 H   0  0  0  0  0  0  0  0  0  0  0  0
  141.4066   72.4664  227.0142 H   0  0  0  0  0  0  0  0  0  0  0  0
  1  2  1  0
  2  3  1  0
  2  4  1  0
  2  5  1  0
  5  6  1  0
  6  7  1  0
  7  8  1  0
  8  9  1  0
  8 10  1  0
 10 11  1  0
 11 12  1  0
 12 13  2  0
 12 14  1  0
 14 15  1  0
 15 16  1  0
 16 17  2  0
 16 18  1  0
 18 19  2  0
 19 20  1  0
 20 21  2  0
 21 22  1  0
 22 23  2  0
 23 24  1  0
 23 25  1  0
 25 26  2  0
 26 27  1  0
 27 28  2  0
 11  6  1  0
 28 18  1  0
 27 21  1  0
  1 29  1  0
  1 30  1  0
  1 31  1  0
  3 32  1  0
  3 33  1  0
  3 34  1  0
  4 35  1  0
  5 36  1  0
  5 37  1  0
  6 38  1  1
  7 39  1  0
  7 40  1  0
  8 41  1  6
  9 42  1  0
 10 43  1  0
 10 44  1  0
 14 45  1  0
 14 46  1  0
 15 47  1  0
 19 48  1  0
 20 49  1  0
 22 50  1  0
 25 51  1  0
 26 52  1  0
M  END
>  <smiles>  (8) 
CC(C)(O)C[C@@H]1C[C@@H](O)CN1C(=O)CNC(=O)c1ccc2cc(F)ccc2n1

>  <score_type>  (8) 
oracle

>  <origin>  (8) 
autodockgpu

>  <m_score__min__energy>  (8) 
-8.8800000000000008

>  <m_primary>  (8) 
energy

>  <meeko>  (8) 
{"free_energy": -7.11, "intermolecular_energy": -9.5, "internal_energy": -2.29, "cluster_size": 5, "cluster_id": 2, "rank_in_cluster": 2}

>  <energy>  (8) 
-7.15

>  <cluster_rmsd>  (8) 
0.0

>  <rmsd>  (8) 
271.53

>  <cluster>  (8) 
2

$$$$

     RDKit          3D

 52 54  0  0  0  0  0  0  0  0999 V2000
  142.9520   77.6970  218.4180 C   0  0  0  0  0  0  0  0  0  0  0  0
  142.5200   76.3650  218.9750 C   0  0  0  0  0  0  0  0  0  0  0  0
  141.3220   75.8700  218.1990 C   0  0  0  0  0  0  0  0  0  0  0  0
  142.0100   76.6270  220.2710 O   0  0  0  0  0  0  0  0  0  0  0  0
  143.5860   75.3610  219.1540 C   0  0  0  0  0  0  0  0  0  0  0  0
  143.6660   74.5840  220.3950 C   0  0  2  0  0  0  0  0  0  0  0  0
  145.1440   74.2100  220.6150 C   0  0  0  0  0  0  0  0  0  0  0  0
  145.3260   73.1170  219.6010 C   0  0  1  0  0  0  0  0  0  0  0  0
  146.3300   72.2210  219.9700 O   0  0  0  0  0  0  0  0  0  0  0  0
  143.9770   72.4780  219.5400 C   0  0  0  0  0  0  0  0  0  0  0  0
  143.0910   73.2570  220.3880 N   0  0  0  0  0  0  0  0  0  0  0  0
  141.9290   72.7590  221.0440 C   0  0  0  0  0  0  0  0  0  0  0  0
  142.0200   71.6040  221.5410 O   0  0  0  0  0  0  0  0  0  0  0  0
  140.6720   73.4990  221.1660 C   0  0  0  0  0  0  0  0  0  0  0  0
  140.9330   74.8290  221.6420 N   0  0  0  0  0  0  0  0  0  0  0  0
  139.8430   75.6820  221.9610 C   0  0  0  0  0  0  0  0  0  0  0  0
  138.6300   75.2980  221.8360 O   0  0  0  0  0  0  0  0  0  0  0  0
  140.1290   77.0320  222.4420 C   0  0  0  0  0  0  0  0  0  0  0  0
  139.0670   77.8580  222.8220 C   0  0  0  0  0  0  0  0  0  0  0  0
  139.2840   79.1400  223.2830 C   0  0  0  0  0  0  0  0  0  0  0  0
  140.5850   79.5920  223.3620 C   0  0  0  0  0  0  0  0  0  0  0  0
  140.9260   80.8530  223.8070 C   0  0  0  0  0  0  0  0  0  0  0  0
  142.2320   81.2680  223.8720 C   0  0  0  0  0  0  0  0  0  0  0  0
  142.5730   82.5020  224.3060 F   0  0  0  0  0  0  0  0  0  0  0  0
  143.2730   80.4250  223.4870 C   0  0  0  0  0  0  0  0  0  0  0  0
  142.9200   79.1570  223.0400 C   0  0  0  0  0  0  0  0  0  0  0  0
  141.6100   78.7360  222.9740 C   0  0  0  0  0  0  0  0  0  0  0  0
  141.3900   77.4900  222.5270 N   0  0  0  0  0  0  0  0  0  0  0  0
  143.1754   78.3857  219.2461 H   0  0  0  0  0  0  0  0  0  0  0  0
  143.8523   77.5617  217.8006 H   0  0  0  0  0  0  0  0  0  0  0  0
  142.1436   78.1159  217.8006 H   0  0  0  0  0  0  0  0  0  0  0  0
  140.5389   75.5464  218.9005 H   0  0  0  0  0  0  0  0  0  0  0  0
  140.9344   76.6817  217.5658 H   0  0  0  0  0  0  0  0  0  0  0  0
  141.6204   75.0215  217.5658 H   0  0  0  0  0  0  0  0  0  0  0  0
  142.7450   77.0200  220.8210 H   0  0  0  0  0  0  0  0  0  0  0  0
  143.4798   74.6366  218.3331 H   0  0  0  0  0  0  0  0  0  0  0  0
  144.5020   75.9695  219.1795 H   0  0  0  0  0  0  0  0  0  0  0  0
  143.1471   75.2288  221.1195 H   0  0  0  0  0  0  0  0  0  0  0  0
  145.8093   75.0621  220.4121 H   0  0  0  0  0  0  0  0  0  0  0  0
  145.3842   73.9119  221.6462 H   0  0  0  0  0  0  0  0  0  0  0  0
  145.6582   73.4901  218.6210 H   0  0  0  0  0  0  0  0  0  0  0  0
  146.0210   71.8560  220.8520 H   0  0  0  0  0  0  0  0  0  0  0  0
  143.6057   72.4808  218.5046 H   0  0  0  0  0  0  0  0  0  0  0  0
  144.0250   71.4337  219.8823 H   0  0  0  0  0  0  0  0  0  0  0  0
  140.1833   73.5529  220.1820 H   0  0  0  0  0  0  0  0  0  0  0  0
  140.0141   72.9811  221.8794 H   0  0  0  0  0  0  0  0  0  0  0  0
  141.9050   75.1840  221.7590 H   0  0  0  0  0  0  0  0  0  0  0  0
  138.0372   77.4779  222.7520 H   0  0  0  0  0  0  0  0  0  0  0  0
  138.4429   79.7840  223.5794 H   0  0  0  0  0  0  0  0  0  0  0  0
  140.1289   81.5442  224.1181 H   0  0  0  0  0  0  0  0  0  0  0  0
  144.3235   80.7476  223.5346 H   0  0  0  0  0  0  0  0  0  0  0  0
  143.7156   78.4646  222.7276 H   0  0  0  0  0  0  0  0  0  0  0  0
  1  2  1  0
  2  3  1  0
  2  4  1  0
  2  5  1  0
  5  6  1  0
  6  7  1  0
  7  8  1  0
  8  9  1  0
  8 10  1  0
 10 11  1  0
 11 12  1  0
 12 13  2  0
 12 14  1  0
 14 15  1  0
 15 16  1  0
 16 17  2  0
 16 18  1  0
 18 19  2  0
 19 20  1  0
 20 21  2  0
 21 22  1  0
 22 23  2  0
 23 24  1  0
 23 25  1  0
 25 26  2  0
 26 27  1  0
 27 28  2  0
 11  6  1  0
 28 18  1  0
 27 21  1  0
  1 29  1  0
  1 30  1  0
  1 31  1  0
  3 32  1  0
  3 33  1  0
  3 34  1  0
  4 35  1  0
  5 36  1  0
  5 37  1  0
  6 38  1  1
  7 39  1  0
  7 40  1  0
  8 41  1  6
  9 42  1  0
 10 43  1  0
 10 44  1  0
 14 45  1  0
 14 46  1  0
 15 47  1  0
 19 48  1  0
 20 49  1  0
 22 50  1  0
 25 51  1  0
 26 52  1  0
M  END
>  <smiles>  (9) 
CC(C)(O)C[C@@H]1C[C@@H](O)CN1C(=O)CNC(=O)c1ccc2cc(F)ccc2n1

>  <score_type>  (9) 
oracle

>  <origin>  (9) 
autodockgpu

>  <m_score__min__energy>  (9) 
-8.8800000000000008

>  <m_primary>  (9) 
energy

>  <meeko>  (9) 
{"free_energy": -6.98, "intermolecular_energy": -9.36, "internal_energy": -3.0, "cluster_size": 7, "cluster_id": 3, "rank_in_cluster": 2}

>  <energy>  (9) 
-7.11

>  <cluster_rmsd>  (9) 
0.6

>  <rmsd>  (9) 
271.75

>  <cluster>  (9) 
2

$$$$

     RDKit          3D

 52 54  0  0  0  0  0  0  0  0999 V2000
  146.1420   73.3770  221.5500 C   0  0  0  0  0  0  0  0  0  0  0  0
  145.1920   73.4240  220.3810 C   0  0  0  0  0  0  0  0  0  0  0  0
  144.3020   72.2030  220.4190 C   0  0  0  0  0  0  0  0  0  0  0  0
  145.9850   73.2390  219.2210 O   0  0  0  0  0  0  0  0  0  0  0  0
  144.4720   74.6950  220.1810 C   0  0  0  0  0  0  0  0  0  0  0  0
  143.0820   74.6910  219.7140 C   0  0  2  0  0  0  0  0  0  0  0  0
  143.0670   75.2840  218.2930 C   0  0  0  0  0  0  0  0  0  0  0  0
  143.2490   76.7470  218.5810 C   0  0  1  0  0  0  0  0  0  0  0  0
  142.6930   77.5510  217.5860 O   0  0  0  0  0  0  0  0  0  0  0  0
  142.5780   76.9210  219.9050 C   0  0  0  0  0  0  0  0  0  0  0  0
  142.1620   75.6040  220.3550 N   0  0  0  0  0  0  0  0  0  0  0  0
  141.0710   75.3390  221.2310 C   0  0  0  0  0  0  0  0  0  0  0  0
  141.0500   75.9920  222.3100 O   0  0  0  0  0  0  0  0  0  0  0  0
  140.0050   74.3750  220.9510 C   0  0  0  0  0  0  0  0  0  0  0  0
  139.7760   73.5530  222.1070 N   0  0  0  0  0  0  0  0  0  0  0  0
  140.5080   72.3460  222.2610 C   0  0  0  0  0  0  0  0  0  0  0  0
  141.3700   71.9680  221.3950 O   0  0  0  0  0  0  0  0  0  0  0  0
  140.2590   71.5220  223.4420 C   0  0  0  0  0  0  0  0  0  0  0  0
  139.5490   70.3260  223.3000 C   0  0  0  0  0  0  0  0  0  0  0  0
  139.2880   69.5140  224.3840 C   0  0  0  0  0  0  0  0  0  0  0  0
  139.7510   69.9120  225.6220 C   0  0  0  0  0  0  0  0  0  0  0  0
  139.5520   69.1840  226.7770 C   0  0  0  0  0  0  0  0  0  0  0  0
  140.0260   69.6110  227.9920 C   0  0  0  0  0  0  0  0  0  0  0  0
  139.8350   68.9030  229.1270 F   0  0  0  0  0  0  0  0  0  0  0  0
  140.7320   70.8070  228.1060 C   0  0  0  0  0  0  0  0  0  0  0  0
  140.9270   71.5340  226.9370 C   0  0  0  0  0  0  0  0  0  0  0  0
  140.4530   71.1080  225.7160 C   0  0  0  0  0  0  0  0  0  0  0  0
  140.7020   71.8930  224.6560 N   0  0  0  0  0  0  0  0  0  0  0  0
  145.5697   73.4053  222.4890 H   0  0  0  0  0  0  0  0  0  0  0  0
  146.7305   72.4486  221.5072 H   0  0  0  0  0  0  0  0  0  0  0  0
  146.8192   74.2427  221.5072 H   0  0  0  0  0  0  0  0  0  0  0  0
  144.1015   71.9279  221.4650 H   0  0  0  0  0  0  0  0  0  0  0  0
  143.3526   72.4253  219.9098 H   0  0  0  0  0  0  0  0  0  0  0  0
  144.8042   71.3672  219.9098 H   0  0  0  0  0  0  0  0  0  0  0  0
  146.2160   74.1400  218.8550 H   0  0  0  0  0  0  0  0  0  0  0  0
  144.4792   75.2183  221.1485 H   0  0  0  0  0  0  0  0  0  0  0  0
  145.0151   75.1614  219.3458 H   0  0  0  0  0  0  0  0  0  0  0  0
  142.7731   73.6482  219.8788 H   0  0  0  0  0  0  0  0  0  0  0  0
  143.8924   74.8882  217.6830 H   0  0  0  0  0  0  0  0  0  0  0  0
  142.1602   75.0483  217.7167 H   0  0  0  0  0  0  0  0  0  0  0  0
  144.3052   77.0535  218.6019 H   0  0  0  0  0  0  0  0  0  0  0  0
  143.4510   78.1410  217.2950 H   0  0  0  0  0  0  0  0  0  0  0  0
  143.2804   77.3613  220.6280 H   0  0  0  0  0  0  0  0  0  0  0  0
  141.7123   77.5940  219.8173 H   0  0  0  0  0  0  0  0  0  0  0  0
  139.0809   74.9156  220.6985 H   0  0  0  0  0  0  0  0  0  0  0  0
  140.3044   73.7378  220.1059 H   0  0  0  0  0  0  0  0  0  0  0  0
  139.0840   73.8210  222.8370 H   0  0  0  0  0  0  0  0  0  0  0  0
  139.1913   70.0266  222.3038 H   0  0  0  0  0  0  0  0  0  0  0  0
  138.7266   68.5755  224.2653 H   0  0  0  0  0  0  0  0  0  0  0  0
  138.9981   68.2352  226.7224 H   0  0  0  0  0  0  0  0  0  0  0  0
  141.1166   71.1591  229.0746 H   0  0  0  0  0  0  0  0  0  0  0  0
  141.4798   72.4836  226.9892 H   0  0  0  0  0  0  0  0  0  0  0  0
  1  2  1  0
  2  3  1  0
  2  4  1  0
  2  5  1  0
  5  6  1  0
  6  7  1  0
  7  8  1  0
  8  9  1  0
  8 10  1  0
 10 11  1  0
 11 12  1  0
 12 13  2  0
 12 14  1  0
 14 15  1  0
 15 16  1  0
 16 17  2  0
 16 18  1  0
 18 19  2  0
 19 20  1  0
 20 21  2  0
 21 22  1  0
 22 23  2  0
 23 24  1  0
 23 25  1  0
 25 26  2  0
 26 27  1  0
 27 28  2  0
 11  6  1  0
 28 18  1  0
 27 21  1  0
  1 29  1  0
  1 30  1  0
  1 31  1  0
  3 32  1  0
  3 33  1  0
  3 34  1  0
  4 35  1  0
  5 36  1  0
  5 37  1  0
  6 38  1  6
  7 39  1  0
  7 40  1  0
  8 41  1  1
  9 42  1  0
 10 43  1  0
 10 44  1  0
 14 45  1  0
 14 46  1  0
 15 47  1  0
 19 48  1  0
 20 49  1  0
 22 50  1  0
 25 51  1  0
 26 52  1  0
M  END
>  <smiles>  (10) 
CC(C)(O)C[C@@H]1C[C@@H](O)CN1C(=O)CNC(=O)c1ccc2cc(F)ccc2n1

>  <score_type>  (10) 
oracle

>  <origin>  (10) 
autodockgpu

>  <m_score__min__energy>  (10) 
-8.8800000000000008

>  <m_primary>  (10) 
energy

>  <meeko>  (10) 
{"free_energy": -8.88, "intermolecular_energy": -11.27, "internal_energy": -1.42, "cluster_size": 7, "cluster_id": 1, "rank_in_cluster": 1}

>  <energy>  (10) 
-7.08

>  <cluster_rmsd>  (10) 
0.59

>  <rmsd>  (10) 
271.7

>  <cluster>  (10) 
2

$$$$

     RDKit          3D

 52 54  0  0  0  0  0  0  0  0999 V2000
  146.1760   73.3930  221.5670 C   0  0  0  0  0  0  0  0  0  0  0  0
  145.2160   73.4340  220.4060 C   0  0  0  0  0  0  0  0  0  0  0  0
  144.3300   72.2100  220.4530 C   0  0  0  0  0  0  0  0  0  0  0  0
  146.0000   73.2500  219.2400 O   0  0  0  0  0  0  0  0  0  0  0  0
  144.4900   74.7020  220.2100 C   0  0  0  0  0  0  0  0  0  0  0  0
  143.1040   74.6930  219.7310 C   0  0  2  0  0  0  0  0  0  0  0  0
  143.0970   75.2940  218.3130 C   0  0  0  0  0  0  0  0  0  0  0  0
  143.2700   76.7560  218.6110 C   0  0  1  0  0  0  0  0  0  0  0  0
  142.7170   77.5630  217.6150 O   0  0  0  0  0  0  0  0  0  0  0  0
  142.5860   76.9200  219.9300 C   0  0  0  0  0  0  0  0  0  0  0  0
  142.1730   75.5980  220.3690 N   0  0  0  0  0  0  0  0  0  0  0  0
  141.0760   75.3230  221.2340 C   0  0  0  0  0  0  0  0  0  0  0  0
  141.0390   75.9730  222.3140 O   0  0  0  0  0  0  0  0  0  0  0  0
  140.0210   74.3500  220.9430 C   0  0  0  0  0  0  0  0  0  0  0  0
  139.7810   73.5300  222.0980 N   0  0  0  0  0  0  0  0  0  0  0  0
  140.5220   72.3300  222.2670 C   0  0  0  0  0  0  0  0  0  0  0  0
  141.4000   71.9570  221.4160 O   0  0  0  0  0  0  0  0  0  0  0  0
  140.2620   71.5090  223.4470 C   0  0  0  0  0  0  0  0  0  0  0  0
  139.5450   70.3170  223.3030 C   0  0  0  0  0  0  0  0  0  0  0  0
  139.2750   69.5060  224.3860 C   0  0  0  0  0  0  0  0  0  0  0  0
  139.7330   69.9020  225.6260 C   0  0  0  0  0  0  0  0  0  0  0  0
  139.5240   69.1750  226.7800 C   0  0  0  0  0  0  0  0  0  0  0  0
  139.9950   69.6010  227.9970 C   0  0  0  0  0  0  0  0  0  0  0  0
  139.7940   68.8940  229.1320 F   0  0  0  0  0  0  0  0  0  0  0  0
  140.7070   70.7930  228.1140 C   0  0  0  0  0  0  0  0  0  0  0  0
  140.9120   71.5180  226.9460 C   0  0  0  0  0  0  0  0  0  0  0  0
  140.4420   71.0940  225.7230 C   0  0  0  0  0  0  0  0  0  0  0  0
  140.7010   71.8770  224.6640 N   0  0  0  0  0  0  0  0  0  0  0  0
  145.6113   73.4171  222.5107 H   0  0  0  0  0  0  0  0  0  0  0  0
  146.7704   72.4686  221.5189 H   0  0  0  0  0  0  0  0  0  0  0  0
  146.8470   74.2633  221.5189 H   0  0  0  0  0  0  0  0  0  0  0  0
  144.1340   71.9392  221.5010 H   0  0  0  0  0  0  0  0  0  0  0  0
  143.3781   72.4267  219.9461 H   0  0  0  0  0  0  0  0  0  0  0  0
  144.8332   71.3734  219.9461 H   0  0  0  0  0  0  0  0  0  0  0  0
  146.3000   74.1480  218.9220 H   0  0  0  0  0  0  0  0  0  0  0  0
  144.4856   75.2175  221.1817 H   0  0  0  0  0  0  0  0  0  0  0  0
  145.0374   75.1785  219.3834 H   0  0  0  0  0  0  0  0  0  0  0  0
  142.8001   73.6475  219.8876 H   0  0  0  0  0  0  0  0  0  0  0  0
  143.9288   74.9055  217.7071 H   0  0  0  0  0  0  0  0  0  0  0  0
  142.1958   75.0574  217.7283 H   0  0  0  0  0  0  0  0  0  0  0  0
  144.3247   77.0669  218.6430 H   0  0  0  0  0  0  0  0  0  0  0  0
  143.4790   78.1480  217.3230 H   0  0  0  0  0  0  0  0  0  0  0  0
  143.2795   77.3602  220.6617 H   0  0  0  0  0  0  0  0  0  0  0  0
  141.7178   77.5891  219.8383 H   0  0  0  0  0  0  0  0  0  0  0  0
  139.0967   74.8830  220.6755 H   0  0  0  0  0  0  0  0  0  0  0  0
  140.3376   73.7118  220.1048 H   0  0  0  0  0  0  0  0  0  0  0  0
  139.0760   73.7950  222.8170 H   0  0  0  0  0  0  0  0  0  0  0  0
  139.1889   70.0198  222.3056 H   0  0  0  0  0  0  0  0  0  0  0  0
  138.7104   68.5698  224.2644 H   0  0  0  0  0  0  0  0  0  0  0  0
  138.9653   68.2292  226.7233 H   0  0  0  0  0  0  0  0  0  0  0  0
  141.0886   71.1435  229.0843 H   0  0  0  0  0  0  0  0  0  0  0  0
  141.4698   72.4645  227.0005 H   0  0  0  0  0  0  0  0  0  0  0  0
  1  2  1  0
  2  3  1  0
  2  4  1  0
  2  5  1  0
  5  6  1  0
  6  7  1  0
  7  8  1  0
  8  9  1  0
  8 10  1  0
 10 11  1  0
 11 12  1  0
 12 13  2  0
 12 14  1  0
 14 15  1  0
 15 16  1  0
 16 17  2  0
 16 18  1  0
 18 19  2  0
 19 20  1  0
 20 21  2  0
 21 22  1  0
 22 23  2  0
 23 24  1  0
 23 25  1  0
 25 26  2  0
 26 27  1  0
 27 28  2  0
 11  6  1  0
 28 18  1  0
 27 21  1  0
  1 29  1  0
  1 30  1  0
  1 31  1  0
  3 32  1  0
  3 33  1  0
  3 34  1  0
  4 35  1  0
  5 36  1  0
  5 37  1  0
  6 38  1  6
  7 39  1  0
  7 40  1  0
  8 41  1  1
  9 42  1  0
 10 43  1  0
 10 44  1  0
 14 45  1  0
 14 46  1  0
 15 47  1  0
 19 48  1  0
 20 49  1  0
 22 50  1  0
 25 51  1  0
 26 52  1  0
M  END
>  <smiles>  (11) 
CC(C)(O)C[C@@H]1C[C@@H](O)CN1C(=O)CNC(=O)c1ccc2cc(F)ccc2n1

>  <score_type>  (11) 
oracle

>  <origin>  (11) 
autodockgpu

>  <m_score__min__energy>  (11) 
-8.8800000000000008

>  <m_primary>  (11) 
energy

>  <meeko>  (11) 
{"free_energy": -8.88, "intermolecular_energy": -11.27, "internal_energy": -1.42, "cluster_size": 7, "cluster_id": 1, "rank_in_cluster": 2}

>  <energy>  (11) 
-7.07

>  <cluster_rmsd>  (11) 
0.55

>  <rmsd>  (11) 
271.74

>  <cluster>  (11) 
2

$$$$

     RDKit          3D

 52 54  0  0  0  0  0  0  0  0999 V2000
  142.9730   79.9310  222.8880 C   0  0  0  0  0  0  0  0  0  0  0  0
  141.6490   79.4560  222.3440 C   0  0  0  0  0  0  0  0  0  0  0  0
  140.5860   80.4780  222.6720 C   0  0  0  0  0  0  0  0  0  0  0  0
  141.2910   78.3220  223.1150 O   0  0  0  0  0  0  0  0  0  0  0  0
  141.6490   79.0080  220.9390 C   0  0  0  0  0  0  0  0  0  0  0  0
  141.8230   77.5880  220.6180 C   0  0  2  0  0  0  0  0  0  0  0  0
  142.1980   77.4910  219.1270 C   0  0  0  0  0  0  0  0  0  0  0  0
  140.8730   77.7550  218.4710 C   0  0  1  0  0  0  0  0  0  0  0  0
  140.7820   77.1590  217.2120 O   0  0  0  0  0  0  0  0  0  0  0  0
  139.8900   77.1930  219.4470 C   0  0  0  0  0  0  0  0  0  0  0  0
  140.6400   76.7570  220.6130 N   0  0  0  0  0  0  0  0  0  0  0  0
  140.2420   75.7250  221.5100 C   0  0  0  0  0  0  0  0  0  0  0  0
  140.1150   76.0550  222.7200 O   0  0  0  0  0  0  0  0  0  0  0  0
  139.9830   74.3410  221.1090 C   0  0  0  0  0  0  0  0  0  0  0  0
  139.8670   73.5090  222.2750 N   0  0  0  0  0  0  0  0  0  0  0  0
  140.1900   72.1290  222.1820 C   0  0  0  0  0  0  0  0  0  0  0  0
  140.5820   71.6030  221.0850 O   0  0  0  0  0  0  0  0  0  0  0  0
  140.0640   71.3000  223.3780 C   0  0  0  0  0  0  0  0  0  0  0  0
  139.4920   70.0290  223.2680 C   0  0  0  0  0  0  0  0  0  0  0  0
  139.3510   69.2070  224.3670 C   0  0  0  0  0  0  0  0  0  0  0  0
  139.7930   69.6730  225.5890 C   0  0  0  0  0  0  0  0  0  0  0  0
  139.7050   68.9430  226.7560 C   0  0  0  0  0  0  0  0  0  0  0  0
  140.1550   69.4390  227.9540 C   0  0  0  0  0  0  0  0  0  0  0  0
  140.0730   68.7290  229.1020 F   0  0  0  0  0  0  0  0  0  0  0  0
  140.7220   70.7090  228.0370 C   0  0  0  0  0  0  0  0  0  0  0  0
  140.8060   71.4370  226.8560 C   0  0  0  0  0  0  0  0  0  0  0  0
  140.3560   70.9430  225.6520 C   0  0  0  0  0  0  0  0  0  0  0  0
  140.4890   71.7350  224.5780 N   0  0  0  0  0  0  0  0  0  0  0  0
  142.9428   79.9202  223.9875 H   0  0  0  0  0  0  0  0  0  0  0  0
  143.7742   79.2643  222.5366 H   0  0  0  0  0  0  0  0  0  0  0  0
  143.1677   80.9550  222.5366 H   0  0  0  0  0  0  0  0  0  0  0  0
  140.4903   80.5700  223.7640 H   0  0  0  0  0  0  0  0  0  0  0  0
  140.8693   81.4515  222.2454 H   0  0  0  0  0  0  0  0  0  0  0  0
  139.6243   80.1566  222.2454 H   0  0  0  0  0  0  0  0  0  0  0  0
  141.7500   77.5240  222.7260 H   0  0  0  0  0  0  0  0  0  0  0  0
  140.6838   79.3139  220.5091 H   0  0  0  0  0  0  0  0  0  0  0  0
  142.5581   79.4713  220.5280 H   0  0  0  0  0  0  0  0  0  0  0  0
  142.5324   77.2497  221.3876 H   0  0  0  0  0  0  0  0  0  0  0  0
  142.9431   78.2510  218.8492 H   0  0  0  0  0  0  0  0  0  0  0  0
  142.6593   76.5344  218.8404 H   0  0  0  0  0  0  0  0  0  0  0  0
  140.6992   78.8217  218.2663 H   0  0  0  0  0  0  0  0  0  0  0  0
  140.0690   76.4610  217.3220 H   0  0  0  0  0  0  0  0  0  0  0  0
  139.1618   77.9655  219.7350 H   0  0  0  0  0  0  0  0  0  0  0  0
  139.3372   76.3522  219.0027 H   0  0  0  0  0  0  0  0  0  0  0  0
  139.0461   74.2967  220.5343 H   0  0  0  0  0  0  0  0  0  0  0  0
  140.8166   73.9812  220.4880 H   0  0  0  0  0  0  0  0  0  0  0  0
  139.5520   73.8950  223.1890 H   0  0  0  0  0  0  0  0  0  0  0  0
  139.1472   69.6770  222.2845 H   0  0  0  0  0  0  0  0  0  0  0  0
  138.8992   68.2086  224.2722 H   0  0  0  0  0  0  0  0  0  0  0  0
  139.2624   67.9364  226.7257 H   0  0  0  0  0  0  0  0  0  0  0  0
  141.0859   71.1162  228.9919 H   0  0  0  0  0  0  0  0  0  0  0  0
  141.2478   72.4440  226.8841 H   0  0  0  0  0  0  0  0  0  0  0  0
  1  2  1  0
  2  3  1  0
  2  4  1  0
  2  5  1  0
  5  6  1  0
  6  7  1  0
  7  8  1  0
  8  9  1  0
  8 10  1  0
 10 11  1  0
 11 12  1  0
 12 13  2  0
 12 14  1  0
 14 15  1  0
 15 16  1  0
 16 17  2  0
 16 18  1  0
 18 19  2  0
 19 20  1  0
 20 21  2  0
 21 22  1  0
 22 23  2  0
 23 24  1  0
 23 25  1  0
 25 26  2  0
 26 27  1  0
 27 28  2  0
 11  6  1  0
 28 18  1  0
 27 21  1  0
  1 29  1  0
  1 30  1  0
  1 31  1  0
  3 32  1  0
  3 33  1  0
  3 34  1  0
  4 35  1  0
  5 36  1  0
  5 37  1  0
  6 38  1  1
  7 39  1  0
  7 40  1  0
  8 41  1  6
  9 42  1  0
 10 43  1  0
 10 44  1  0
 14 45  1  0
 14 46  1  0
 15 47  1  0
 19 48  1  0
 20 49  1  0
 22 50  1  0
 25 51  1  0
 26 52  1  0
M  END
>  <smiles>  (12) 
CC(C)(O)C[C@@H]1C[C@@H](O)CN1C(=O)CNC(=O)c1ccc2cc(F)ccc2n1

>  <score_type>  (12) 
oracle

>  <origin>  (12) 
autodockgpu

>  <m_score__min__energy>  (12) 
-8.8800000000000008

>  <m_primary>  (12) 
energy

>  <meeko>  (12) 
{"free_energy": -7.15, "intermolecular_energy": -9.54, "internal_energy": -2.15, "cluster_size": 5, "cluster_id": 2, "rank_in_cluster": 1}

>  <energy>  (12) 
-7.06

>  <cluster_rmsd>  (12) 
0.59

>  <rmsd>  (12) 
271.73

>  <cluster>  (12) 
2

$$$$

     RDKit          3D

 52 54  0  0  0  0  0  0  0  0999 V2000
  144.4620   74.7330  220.0480 C   0  0  0  0  0  0  0  0  0  0  0  0
  144.9950   73.3240  220.0140 C   0  0  0  0  0  0  0  0  0  0  0  0
  145.7810   73.0620  221.2770 C   0  0  0  0  0  0  0  0  0  0  0  0
  145.9710   73.2970  218.9860 O   0  0  0  0  0  0  0  0  0  0  0  0
  144.0200   72.2710  219.6740 C   0  0  0  0  0  0  0  0  0  0  0  0
  142.8250   72.0780  220.5010 C   0  0  2  0  0  0  0  0  0  0  0  0
  142.2660   70.6760  220.1920 C   0  0  0  0  0  0  0  0  0  0  0  0
  141.6310   70.9010  218.8500 C   0  0  1  0  0  0  0  0  0  0  0  0
  140.5770   70.0170  218.6130 O   0  0  0  0  0  0  0  0  0  0  0  0
  141.1850   72.3250  218.9160 C   0  0  0  0  0  0  0  0  0  0  0  0
  141.6570   72.8670  220.1790 N   0  0  0  0  0  0  0  0  0  0  0  0
  141.0510   73.9400  220.8930 C   0  0  0  0  0  0  0  0  0  0  0  0
  141.7180   75.0070  220.9710 O   0  0  0  0  0  0  0  0  0  0  0  0
  139.7320   73.8670  221.5250 C   0  0  0  0  0  0  0  0  0  0  0  0
  139.7880   73.0040  222.6720 N   0  0  0  0  0  0  0  0  0  0  0  0
  139.6820   71.5990  222.4950 C   0  0  0  0  0  0  0  0  0  0  0  0
  139.5370   71.0770  221.3370 O   0  0  0  0  0  0  0  0  0  0  0  0
  139.7390   70.7390  223.6750 C   0  0  0  0  0  0  0  0  0  0  0  0
  139.2010   69.4500  223.6040 C   0  0  0  0  0  0  0  0  0  0  0  0
  139.2300   68.6000  224.6890 C   0  0  0  0  0  0  0  0  0  0  0  0
  139.8100   69.0540  225.8570 C   0  0  0  0  0  0  0  0  0  0  0  0
  139.8980   68.2950  227.0060 C   0  0  0  0  0  0  0  0  0  0  0  0
  140.4820   68.7800  228.1500 C   0  0  0  0  0  0  0  0  0  0  0  0
  140.5710   68.0420  229.2790 F   0  0  0  0  0  0  0  0  0  0  0  0
  141.0110   70.0680  228.1940 C   0  0  0  0  0  0  0  0  0  0  0  0
  140.9170   70.8250  227.0320 C   0  0  0  0  0  0  0  0  0  0  0  0
  140.3330   70.3420  225.8820 C   0  0  0  0  0  0  0  0  0  0  0  0
  140.3000   71.1630  224.8210 N   0  0  0  0  0  0  0  0  0  0  0  0
  144.3406   75.0540  221.0931 H   0  0  0  0  0  0  0  0  0  0  0  0
  145.1682   75.4046  219.5379 H   0  0  0  0  0  0  0  0  0  0  0  0
  143.4881   74.7690  219.5379 H   0  0  0  0  0  0  0  0  0  0  0  0
  145.1491   73.2726  222.1524 H   0  0  0  0  0  0  0  0  0  0  0  0
  146.0991   72.0092  221.2991 H   0  0  0  0  0  0  0  0  0  0  0  0
  146.6672   73.7133  221.2991 H   0  0  0  0  0  0  0  0  0  0  0  0
  145.9150   74.1580  218.4820 H   0  0  0  0  0  0  0  0  0  0  0  0
  143.6681   72.4829  218.6536 H   0  0  0  0  0  0  0  0  0  0  0  0
  144.5879   71.3425  219.8333 H   0  0  0  0  0  0  0  0  0  0  0  0
  143.1888   72.3161  221.5114 H   0  0  0  0  0  0  0  0  0  0  0  0
  143.0686   69.9258  220.1369 H   0  0  0  0  0  0  0  0  0  0  0  0
  141.5772   70.2873  220.9566 H   0  0  0  0  0  0  0  0  0  0  0  0
  142.3191   70.7153  218.0121 H   0  0  0  0  0  0  0  0  0  0  0  0
  139.9750   70.1350  219.4080 H   0  0  0  0  0  0  0  0  0  0  0  0
  141.6150   72.8934  218.0781 H   0  0  0  0  0  0  0  0  0  0  0  0
  140.0893   72.3937  218.8477 H   0  0  0  0  0  0  0  0  0  0  0  0
  139.4223   74.8742  221.8408 H   0  0  0  0  0  0  0  0  0  0  0  0
  139.0058   73.4646  220.8034 H   0  0  0  0  0  0  0  0  0  0  0  0
  139.9050   73.3850  223.6340 H   0  0  0  0  0  0  0  0  0  0  0  0
  138.7454   69.1074  222.6632 H   0  0  0  0  0  0  0  0  0  0  0  0
  138.8030   67.5882  224.6260 H   0  0  0  0  0  0  0  0  0  0  0  0
  139.4892   67.2738  227.0054 H   0  0  0  0  0  0  0  0  0  0  0  0
  141.4808   70.4670  229.1051 H   0  0  0  0  0  0  0  0  0  0  0  0
  141.3239   71.8470  227.0309 H   0  0  0  0  0  0  0  0  0  0  0  0
  1  2  1  0
  2  3  1  0
  2  4  1  0
  2  5  1  0
  5  6  1  0
  6  7  1  0
  7  8  1  0
  8  9  1  0
  8 10  1  0
 10 11  1  0
 11 12  1  0
 12 13  2  0
 12 14  1  0
 14 15  1  0
 15 16  1  0
 16 17  2  0
 16 18  1  0
 18 19  2  0
 19 20  1  0
 20 21  2  0
 21 22  1  0
 22 23  2  0
 23 24  1  0
 23 25  1  0
 25 26  2  0
 26 27  1  0
 27 28  2  0
 11  6  1  0
 28 18  1  0
 27 21  1  0
  1 29  1  0
  1 30  1  0
  1 31  1  0
  3 32  1  0
  3 33  1  0
  3 34  1  0
  4 35  1  0
  5 36  1  0
  5 37  1  0
  6 38  1  1
  7 39  1  0
  7 40  1  0
  8 41  1  6
  9 42  1  0
 10 43  1  0
 10 44  1  0
 14 45  1  0
 14 46  1  0
 15 47  1  0
 19 48  1  0
 20 49  1  0
 22 50  1  0
 25 51  1  0
 26 52  1  0
M  END
>  <smiles>  (13) 
CC(C)(O)C[C@@H]1C[C@@H](O)CN1C(=O)CNC(=O)c1ccc2cc(F)ccc2n1

>  <score_type>  (13) 
oracle

>  <origin>  (13) 
autodockgpu

>  <m_score__min__energy>  (13) 
-8.8800000000000008

>  <m_primary>  (13) 
energy

>  <meeko>  (13) 
{"free_energy": -6.98, "intermolecular_energy": -9.37, "internal_energy": -2.46, "cluster_size": 7, "cluster_id": 1, "rank_in_cluster": 7}

>  <energy>  (13) 
-7.01

>  <cluster_rmsd>  (13) 
0.0

>  <rmsd>  (13) 
271.74

>  <cluster>  (13) 
3

$$$$

     RDKit          3D

 52 54  0  0  0  0  0  0  0  0999 V2000
  142.5600   80.4950  223.3370 C   0  0  0  0  0  0  0  0  0  0  0  0
  141.6120   79.4710  222.7670 C   0  0  0  0  0  0  0  0  0  0  0  0
  140.2010   79.8210  223.1800 C   0  0  0  0  0  0  0  0  0  0  0  0
  141.8830   78.2600  223.4510 O   0  0  0  0  0  0  0  0  0  0  0  0
  141.7700   79.1710  221.3320 C   0  0  0  0  0  0  0  0  0  0  0  0
  141.8360   77.7800  220.8730 C   0  0  2  0  0  0  0  0  0  0  0  0
  142.2070   77.8010  219.3780 C   0  0  0  0  0  0  0  0  0  0  0  0
  140.9080   78.2280  218.7560 C   0  0  1  0  0  0  0  0  0  0  0  0
  140.7770   77.7670  217.4460 O   0  0  0  0  0  0  0  0  0  0  0  0
  139.8820   77.6500  219.6760 C   0  0  0  0  0  0  0  0  0  0  0  0
  140.5930   77.0460  220.7910 N   0  0  0  0  0  0  0  0  0  0  0  0
  140.1140   75.9640  221.5840 C   0  0  0  0  0  0  0  0  0  0  0  0
  139.6270   76.2670  222.7070 O   0  0  0  0  0  0  0  0  0  0  0  0
  140.1590   74.5600  221.1740 C   0  0  0  0  0  0  0  0  0  0  0  0
  139.9840   73.7110  222.3200 N   0  0  0  0  0  0  0  0  0  0  0  0
  140.3910   72.3520  222.2510 C   0  0  0  0  0  0  0  0  0  0  0  0
  140.9120   71.8600  221.1920 O   0  0  0  0  0  0  0  0  0  0  0  0
  140.2020   71.5050  223.4260 C   0  0  0  0  0  0  0  0  0  0  0  0
  139.5800   70.2620  223.2760 C   0  0  0  0  0  0  0  0  0  0  0  0
  139.3790   69.4250  224.3540 C   0  0  0  0  0  0  0  0  0  0  0  0
  139.8110   69.8470  225.5950 C   0  0  0  0  0  0  0  0  0  0  0  0
  139.6650   69.0980  226.7450 C   0  0  0  0  0  0  0  0  0  0  0  0
  140.1080   69.5500  227.9630 C   0  0  0  0  0  0  0  0  0  0  0  0
  139.9680   68.8220  229.0930 F   0  0  0  0  0  0  0  0  0  0  0  0
  140.7250   70.7930  228.0850 C   0  0  0  0  0  0  0  0  0  0  0  0
  140.8670   71.5410  226.9220 C   0  0  0  0  0  0  0  0  0  0  0  0
  140.4250   71.0900  225.6980 C   0  0  0  0  0  0  0  0  0  0  0  0
  140.6170   71.8980  224.6440 N   0  0  0  0  0  0  0  0  0  0  0  0
  142.5242   80.4563  224.4357 H   0  0  0  0  0  0  0  0  0  0  0  0
  143.5829   80.2778  222.9956 H   0  0  0  0  0  0  0  0  0  0  0  0
  142.2647   81.4981  222.9956 H   0  0  0  0  0  0  0  0  0  0  0  0
  140.1337   79.8377  224.2778 H   0  0  0  0  0  0  0  0  0  0  0  0
  139.9374   80.8118  222.7814 H   0  0  0  0  0  0  0  0  0  0  0  0
  139.5049   79.0683  222.7814 H   0  0  0  0  0  0  0  0  0  0  0  0
  141.3430   77.5350  223.0250 H   0  0  0  0  0  0  0  0  0  0  0  0
  140.9166   79.6348  220.8156 H   0  0  0  0  0  0  0  0  0  0  0  0
  142.7738   79.5586  221.1035 H   0  0  0  0  0  0  0  0  0  0  0  0
  142.5148   77.3151  221.6032 H   0  0  0  0  0  0  0  0  0  0  0  0
  143.0088   78.5256  219.1726 H   0  0  0  0  0  0  0  0  0  0  0  0
  142.5947   76.8445  218.9975 H   0  0  0  0  0  0  0  0  0  0  0  0
  140.8162   79.3197  218.6573 H   0  0  0  0  0  0  0  0  0  0  0  0
  141.3110   78.4200  216.9010 H   0  0  0  0  0  0  0  0  0  0  0  0
  139.2139   78.4439  220.0412 H   0  0  0  0  0  0  0  0  0  0  0  0
  139.2681   76.9013  219.1539 H   0  0  0  0  0  0  0  0  0  0  0  0
  139.3545   74.3655  220.4495 H   0  0  0  0  0  0  0  0  0  0  0  0
  141.1344   74.3484  220.7116 H   0  0  0  0  0  0  0  0  0  0  0  0
  139.5640   74.0690  223.2030 H   0  0  0  0  0  0  0  0  0  0  0  0
  139.2439   69.9448  222.2778 H   0  0  0  0  0  0  0  0  0  0  0  0
  138.8882   68.4487  224.2280 H   0  0  0  0  0  0  0  0  0  0  0  0
  139.1806   68.1123  226.6838 H   0  0  0  0  0  0  0  0  0  0  0  0
  141.0831   71.1652  229.0562 H   0  0  0  0  0  0  0  0  0  0  0  0
  141.3493   72.5278  226.9813 H   0  0  0  0  0  0  0  0  0  0  0  0
  1  2  1  0
  2  3  1  0
  2  4  1  0
  2  5  1  0
  5  6  1  0
  6  7  1  0
  7  8  1  0
  8  9  1  0
  8 10  1  0
 10 11  1  0
 11 12  1  0
 12 13  2  0
 12 14  1  0
 14 15  1  0
 15 16  1  0
 16 17  2  0
 16 18  1  0
 18 19  2  0
 19 20  1  0
 20 21  2  0
 21 22  1  0
 22 23  2  0
 23 24  1  0
 23 25  1  0
 25 26  2  0
 26 27  1  0
 27 28  2  0
 11  6  1  0
 28 18  1  0
 27 21  1  0
  1 29  1  0
  1 30  1  0
  1 31  1  0
  3 32  1  0
  3 33  1  0
  3 34  1  0
  4 35  1  0
  5 36  1  0
  5 37  1  0
  6 38  1  1
  7 39  1  0
  7 40  1  0
  8 41  1  6
  9 42  1  0
 10 43  1  0
 10 44  1  0
 14 45  1  0
 14 46  1  0
 15 47  1  0
 19 48  1  0
 20 49  1  0
 22 50  1  0
 25 51  1  0
 26 52  1  0
M  END
>  <smiles>  (14) 
CC(C)(O)C[C@@H]1C[C@@H](O)CN1C(=O)CNC(=O)c1ccc2cc(F)ccc2n1

>  <score_type>  (14) 
oracle

>  <origin>  (14) 
autodockgpu

>  <m_score__min__energy>  (14) 
-8.8800000000000008

>  <m_primary>  (14) 
energy

>  <meeko>  (14) 
{"free_energy": -7.06, "intermolecular_energy": -9.45, "internal_energy": -2.32, "cluster_size": 5, "cluster_id": 2, "rank_in_cluster": 5}

>  <energy>  (14) 
-6.98

>  <cluster_rmsd>  (14) 
0.04

>  <rmsd>  (14) 
271.72

>  <cluster>  (14) 
3

$$$$

     RDKit          3D

 52 54  0  0  0  0  0  0  0  0999 V2000
  142.4470   80.4070  223.4140 C   0  0  0  0  0  0  0  0  0  0  0  0
  141.5660   79.3680  222.7690 C   0  0  0  0  0  0  0  0  0  0  0  0
  140.1230   79.6720  223.0940 C   0  0  0  0  0  0  0  0  0  0  0  0
  141.8270   78.1530  223.4510 O   0  0  0  0  0  0  0  0  0  0  0  0
  141.8240   79.0950  221.3430 C   0  0  0  0  0  0  0  0  0  0  0  0
  141.8280   77.7160  220.8450 C   0  0  2  0  0  0  0  0  0  0  0  0
  142.1340   77.7670  219.3360 C   0  0  0  0  0  0  0  0  0  0  0  0
  140.8240   78.2480  218.7840 C   0  0  1  0  0  0  0  0  0  0  0  0
  140.6210   77.8270  217.4690 O   0  0  0  0  0  0  0  0  0  0  0  0
  139.8210   77.6750  219.7330 C   0  0  0  0  0  0  0  0  0  0  0  0
  140.5610   77.0210  220.7990 N   0  0  0  0  0  0  0  0  0  0  0  0
  140.0850   75.9320  221.5840 C   0  0  0  0  0  0  0  0  0  0  0  0
  139.5700   76.2280  222.6970 O   0  0  0  0  0  0  0  0  0  0  0  0
  140.1620   74.5280  221.1770 C   0  0  0  0  0  0  0  0  0  0  0  0
  139.9710   73.6780  222.3200 N   0  0  0  0  0  0  0  0  0  0  0  0
  140.4160   72.3300  222.2690 C   0  0  0  0  0  0  0  0  0  0  0  0
  140.9840   71.8490  221.2290 O   0  0  0  0  0  0  0  0  0  0  0  0
  140.2110   71.4810  223.4400 C   0  0  0  0  0  0  0  0  0  0  0  0
  139.5560   70.2560  223.2860 C   0  0  0  0  0  0  0  0  0  0  0  0
  139.3380   69.4180  224.3600 C   0  0  0  0  0  0  0  0  0  0  0  0
  139.7880   69.8210  225.6010 C   0  0  0  0  0  0  0  0  0  0  0  0
  139.6280   69.0690  226.7470 C   0  0  0  0  0  0  0  0  0  0  0  0
  140.0890   69.5030  227.9660 C   0  0  0  0  0  0  0  0  0  0  0  0
  139.9360   68.7720  229.0930 F   0  0  0  0  0  0  0  0  0  0  0  0
  140.7390   70.7280  228.0920 C   0  0  0  0  0  0  0  0  0  0  0  0
  140.8950   71.4790  226.9330 C   0  0  0  0  0  0  0  0  0  0  0  0
  140.4350   71.0470  225.7080 C   0  0  0  0  0  0  0  0  0  0  0  0
  140.6420   71.8560  224.6570 N   0  0  0  0  0  0  0  0  0  0  0  0
  142.3743   80.3213  224.5082 H   0  0  0  0  0  0  0  0  0  0  0  0
  143.4899   80.2481  223.1022 H   0  0  0  0  0  0  0  0  0  0  0  0
  142.1198   81.4099  223.1022 H   0  0  0  0  0  0  0  0  0  0  0  0
  139.9910   79.6998  224.1857 H   0  0  0  0  0  0  0  0  0  0  0  0
  139.8486   80.6477  222.6665 H   0  0  0  0  0  0  0  0  0  0  0  0
  139.4783   78.8900  222.6665 H   0  0  0  0  0  0  0  0  0  0  0  0
  141.3450   77.4190  222.9740 H   0  0  0  0  0  0  0  0  0  0  0  0
  141.0539   79.6352  220.7729 H   0  0  0  0  0  0  0  0  0  0  0  0
  142.8693   79.4117  221.2123 H   0  0  0  0  0  0  0  0  0  0  0  0
  142.5238   77.2119  221.5319 H   0  0  0  0  0  0  0  0  0  0  0  0
  142.9477   78.4732  219.1142 H   0  0  0  0  0  0  0  0  0  0  0  0
  142.4756   76.8103  218.9140 H   0  0  0  0  0  0  0  0  0  0  0  0
  140.7624   79.3443  218.7182 H   0  0  0  0  0  0  0  0  0  0  0  0
  140.4840   78.6800  216.9570 H   0  0  0  0  0  0  0  0  0  0  0  0
  139.1934   78.4776  220.1476 H   0  0  0  0  0  0  0  0  0  0  0  0
  139.1626   76.9591  219.2192 H   0  0  0  0  0  0  0  0  0  0  0  0
  139.3792   74.3202  220.4327 H   0  0  0  0  0  0  0  0  0  0  0  0
  141.1517   74.3307  220.7394 H   0  0  0  0  0  0  0  0  0  0  0  0
  139.5130   74.0270  223.1870 H   0  0  0  0  0  0  0  0  0  0  0  0
  139.2070   69.9537  222.2876 H   0  0  0  0  0  0  0  0  0  0  0  0
  138.8203   68.4561  224.2310 H   0  0  0  0  0  0  0  0  0  0  0  0
  139.1179   68.0965  226.6826 H   0  0  0  0  0  0  0  0  0  0  0  0
  141.1116   71.0847  229.0636 H   0  0  0  0  0  0  0  0  0  0  0  0
  141.4035   72.4524  226.9958 H   0  0  0  0  0  0  0  0  0  0  0  0
  1  2  1  0
  2  3  1  0
  2  4  1  0
  2  5  1  0
  5  6  1  0
  6  7  1  0
  7  8  1  0
  8  9  1  0
  8 10  1  0
 10 11  1  0
 11 12  1  0
 12 13  2  0
 12 14  1  0
 14 15  1  0
 15 16  1  0
 16 17  2  0
 16 18  1  0
 18 19  2  0
 19 20  1  0
 20 21  2  0
 21 22  1  0
 22 23  2  0
 23 24  1  0
 23 25  1  0
 25 26  2  0
 26 27  1  0
 27 28  2  0
 11  6  1  0
 28 18  1  0
 27 21  1  0
  1 29  1  0
  1 30  1  0
  1 31  1  0
  3 32  1  0
  3 33  1  0
  3 34  1  0
  4 35  1  0
  5 36  1  0
  5 37  1  0
  6 38  1  1
  7 39  1  0
  7 40  1  0
  8 41  1  6
  9 42  1  0
 10 43  1  0
 10 44  1  0
 14 45  1  0
 14 46  1  0
 15 47  1  0
 19 48  1  0
 20 49  1  0
 22 50  1  0
 25 51  1  0
 26 52  1  0
M  END
>  <smiles>  (15) 
CC(C)(O)C[C@@H]1C[C@@H](O)CN1C(=O)CNC(=O)c1ccc2cc(F)ccc2n1

>  <score_type>  (15) 
oracle

>  <origin>  (15) 
autodockgpu

>  <m_score__min__energy>  (15) 
-8.8800000000000008

>  <m_primary>  (15) 
energy

>  <meeko>  (15) 
{"free_energy": -7.08, "intermolecular_energy": -9.47, "internal_energy": -2.29, "cluster_size": 5, "cluster_id": 2, "rank_in_cluster": 3}

>  <energy>  (15) 
-6.95

>  <cluster_rmsd>  (15) 
0.06

>  <rmsd>  (15) 
271.73

>  <cluster>  (15) 
3

$$$$

     RDKit          3D

 52 54  0  0  0  0  0  0  0  0999 V2000
  142.9640   77.6820  218.4550 C   0  0  0  0  0  0  0  0  0  0  0  0
  142.5230   76.3460  218.9960 C   0  0  0  0  0  0  0  0  0  0  0  0
  141.3200   75.8700  218.2160 C   0  0  0  0  0  0  0  0  0  0  0  0
  142.0180   76.5950  220.2960 O   0  0  0  0  0  0  0  0  0  0  0  0
  143.5820   75.3320  219.1590 C   0  0  0  0  0  0  0  0  0  0  0  0
  143.6720   74.5540  220.3990 C   0  0  2  0  0  0  0  0  0  0  0  0
  145.1490   74.1660  220.5980 C   0  0  0  0  0  0  0  0  0  0  0  0
  145.3080   73.0730  219.5820 C   0  0  1  0  0  0  0  0  0  0  0  0
  146.3100   72.1680  219.9370 O   0  0  0  0  0  0  0  0  0  0  0  0
  143.9530   72.4450  219.5390 C   0  0  0  0  0  0  0  0  0  0  0  0
  143.0850   73.2320  220.3990 N   0  0  0  0  0  0  0  0  0  0  0  0
  141.9280   72.7440  221.0710 C   0  0  0  0  0  0  0  0  0  0  0  0
  142.0220   71.5960  221.5830 O   0  0  0  0  0  0  0  0  0  0  0  0
  140.6720   73.4870  221.1930 C   0  0  0  0  0  0  0  0  0  0  0  0
  140.9350   74.8140  221.6750 N   0  0  0  0  0  0  0  0  0  0  0  0
  139.8470   75.6780  221.9700 C   0  0  0  0  0  0  0  0  0  0  0  0
  138.6340   75.3060  221.8160 O   0  0  0  0  0  0  0  0  0  0  0  0
  140.1350   77.0240  222.4580 C   0  0  0  0  0  0  0  0  0  0  0  0
  139.0740   77.8490  222.8450 C   0  0  0  0  0  0  0  0  0  0  0  0
  139.2930   79.1280  223.3130 C   0  0  0  0  0  0  0  0  0  0  0  0
  140.5950   79.5780  223.3930 C   0  0  0  0  0  0  0  0  0  0  0  0
  140.9370   80.8360  223.8440 C   0  0  0  0  0  0  0  0  0  0  0  0
  142.2450   81.2500  223.9090 C   0  0  0  0  0  0  0  0  0  0  0  0
  142.5870   82.4810  224.3510 F   0  0  0  0  0  0  0  0  0  0  0  0
  143.2830   80.4080  223.5180 C   0  0  0  0  0  0  0  0  0  0  0  0
  142.9290   79.1430  223.0640 C   0  0  0  0  0  0  0  0  0  0  0  0
  141.6190   78.7240  222.9980 C   0  0  0  0  0  0  0  0  0  0  0  0
  141.3970   77.4810  222.5430 N   0  0  0  0  0  0  0  0  0  0  0  0
  143.1880   78.3604  219.2914 H   0  0  0  0  0  0  0  0  0  0  0  0
  143.8658   77.5487  217.8394 H   0  0  0  0  0  0  0  0  0  0  0  0
  142.1601   78.1118  217.8394 H   0  0  0  0  0  0  0  0  0  0  0  0
  140.5301   75.5575  218.9148 H   0  0  0  0  0  0  0  0  0  0  0  0
  140.9465   76.6881  217.5826 H   0  0  0  0  0  0  0  0  0  0  0  0
  141.6074   75.0178  217.5826 H   0  0  0  0  0  0  0  0  0  0  0  0
  142.7320   77.0530  220.8250 H   0  0  0  0  0  0  0  0  0  0  0  0
  143.4571   74.6089  218.3396 H   0  0  0  0  0  0  0  0  0  0  0  0
  144.5042   75.9315  219.1709 H   0  0  0  0  0  0  0  0  0  0  0  0
  143.1693   75.2033  221.1309 H   0  0  0  0  0  0  0  0  0  0  0  0
  145.8192   75.0123  220.3867 H   0  0  0  0  0  0  0  0  0  0  0  0
  145.4000   73.8644  221.6257 H   0  0  0  0  0  0  0  0  0  0  0  0
  145.6299   73.4441  218.5978 H   0  0  0  0  0  0  0  0  0  0  0  0
  146.0240   71.8270  220.8370 H   0  0  0  0  0  0  0  0  0  0  0  0
  143.5679   72.4508  218.5087 H   0  0  0  0  0  0  0  0  0  0  0  0
  143.9967   71.4003  219.8806 H   0  0  0  0  0  0  0  0  0  0  0  0
  140.1859   73.5462  220.2080 H   0  0  0  0  0  0  0  0  0  0  0  0
  140.0111   72.9678  221.9027 H   0  0  0  0  0  0  0  0  0  0  0  0
  141.9080   75.1590  221.8160 H   0  0  0  0  0  0  0  0  0  0  0  0
  138.0437   77.4701  222.7747 H   0  0  0  0  0  0  0  0  0  0  0  0
  138.4531   79.7713  223.6141 H   0  0  0  0  0  0  0  0  0  0  0  0
  140.1408   81.5261  224.1600 H   0  0  0  0  0  0  0  0  0  0  0  0
  144.3340   80.7291  223.5662 H   0  0  0  0  0  0  0  0  0  0  0  0
  143.7236   78.4519  222.7461 H   0  0  0  0  0  0  0  0  0  0  0  0
  1  2  1  0
  2  3  1  0
  2  4  1  0
  2  5  1  0
  5  6  1  0
  6  7  1  0
  7  8  1  0
  8  9  1  0
  8 10  1  0
 10 11  1  0
 11 12  1  0
 12 13  2  0
 12 14  1  0
 14 15  1  0
 15 16  1  0
 16 17  2  0
 16 18  1  0
 18 19  2  0
 19 20  1  0
 20 21  2  0
 21 22  1  0
 22 23  2  0
 23 24  1  0
 23 25  1  0
 25 26  2  0
 26 27  1  0
 27 28  2  0
 11  6  1  0
 28 18  1  0
 27 21  1  0
  1 29  1  0
  1 30  1  0
  1 31  1  0
  3 32  1  0
  3 33  1  0
  3 34  1  0
  4 35  1  0
  5 36  1  0
  5 37  1  0
  6 38  1  1
  7 39  1  0
  7 40  1  0
  8 41  1  6
  9 42  1  0
 10 43  1  0
 10 44  1  0
 14 45  1  0
 14 46  1  0
 15 47  1  0
 19 48  1  0
 20 49  1  0
 22 50  1  0
 25 51  1  0
 26 52  1  0
M  END
>  <smiles>  (16) 
CC(C)(O)C[C@@H]1C[C@@H](O)CN1C(=O)CNC(=O)c1ccc2cc(F)ccc2n1

>  <score_type>  (16) 
oracle

>  <origin>  (16) 
autodockgpu

>  <m_score__min__energy>  (16) 
-8.8800000000000008

>  <m_primary>  (16) 
energy

>  <meeko>  (16) 
{"free_energy": -6.95, "intermolecular_energy": -9.34, "internal_energy": -3.0, "cluster_size": 7, "cluster_id": 3, "rank_in_cluster": 3}

>  <energy>  (16) 
-6.82

>  <cluster_rmsd>  (16) 
0.16

>  <rmsd>  (16) 
271.68

>  <cluster>  (16) 
3

$$$$

     RDKit          3D

 52 54  0  0  0  0  0  0  0  0999 V2000
  140.9620   75.0180  219.1550 C   0  0  0  0  0  0  0  0  0  0  0  0
  141.7500   74.6460  220.3850 C   0  0  0  0  0  0  0  0  0  0  0  0
  140.9500   75.0090  221.6140 C   0  0  0  0  0  0  0  0  0  0  0  0
  142.8610   75.5240  220.4220 O   0  0  0  0  0  0  0  0  0  0  0  0
  142.3110   73.2820  220.4060 C   0  0  0  0  0  0  0  0  0  0  0  0
  142.8930   72.7050  219.1900 C   0  0  2  0  0  0  0  0  0  0  0  0
  143.9480   71.6700  219.6240 C   0  0  0  0  0  0  0  0  0  0  0  0
  145.0730   72.5620  220.0640 C   0  0  1  0  0  0  0  0  0  0  0  0
  146.3160   71.9390  219.9390 O   0  0  0  0  0  0  0  0  0  0  0  0
  144.9330   73.7540  219.1740 C   0  0  0  0  0  0  0  0  0  0  0  0
  143.7310   73.5620  218.3810 N   0  0  0  0  0  0  0  0  0  0  0  0
  143.4960   74.1210  217.0930 C   0  0  0  0  0  0  0  0  0  0  0  0
  142.9230   73.3720  216.2550 O   0  0  0  0  0  0  0  0  0  0  0  0
  143.8770   75.4800  216.7030 C   0  0  0  0  0  0  0  0  0  0  0  0
  143.5690   76.3960  217.7660 N   0  0  0  0  0  0  0  0  0  0  0  0
  142.7040   77.4930  217.5130 C   0  0  0  0  0  0  0  0  0  0  0  0
  142.1870   77.6890  216.3600 O   0  0  0  0  0  0  0  0  0  0  0  0
  142.4040   78.4150  218.6060 C   0  0  0  0  0  0  0  0  0  0  0  0
  142.4130   79.7910  218.3580 C   0  0  0  0  0  0  0  0  0  0  0  0
  142.1370   80.7020  219.3560 C   0  0  0  0  0  0  0  0  0  0  0  0
  141.8480   80.2190  220.6160 C   0  0  0  0  0  0  0  0  0  0  0  0
  141.5570   81.0330  221.6920 C   0  0  0  0  0  0  0  0  0  0  0  0
  141.2750   80.5170  222.9330 C   0  0  0  0  0  0  0  0  0  0  0  0
  140.9890   81.3070  223.9910 F   0  0  0  0  0  0  0  0  0  0  0  0
  141.2730   79.1410  223.1530 C   0  0  0  0  0  0  0  0  0  0  0  0
  141.5680   78.3300  222.0640 C   0  0  0  0  0  0  0  0  0  0  0  0
  141.8510   78.8440  220.8180 C   0  0  0  0  0  0  0  0  0  0  0  0
  142.1200   77.9640  219.8410 N   0  0  0  0  0  0  0  0  0  0  0  0
  140.0051   75.4697  219.4553 H   0  0  0  0  0  0  0  0  0  0  0  0
  141.5364   75.7400  218.5560 H   0  0  0  0  0  0  0  0  0  0  0  0
  140.7695   74.1157  218.5560 H   0  0  0  0  0  0  0  0  0  0  0  0
  141.5241   74.7485  222.5154 H   0  0  0  0  0  0  0  0  0  0  0  0
  140.7428   76.0893  221.6107 H   0  0  0  0  0  0  0  0  0  0  0  0
  140.0006   74.4535  221.6107 H   0  0  0  0  0  0  0  0  0  0  0  0
  142.6480   76.2690  221.0530 H   0  0  0  0  0  0  0  0  0  0  0  0
  143.1032   73.2772  221.1692 H   0  0  0  0  0  0  0  0  0  0  0  0
  141.4283   72.6506  220.5854 H   0  0  0  0  0  0  0  0  0  0  0  0
  142.0053   72.3835  218.6256 H   0  0  0  0  0  0  0  0  0  0  0  0
  143.5821   71.0453  220.4522 H   0  0  0  0  0  0  0  0  0  0  0  0
  144.2241   70.9519  218.8378 H   0  0  0  0  0  0  0  0  0  0  0  0
  145.0212   72.8264  221.1305 H   0  0  0  0  0  0  0  0  0  0  0  0
  146.4920   71.5580  220.8510 H   0  0  0  0  0  0  0  0  0  0  0  0
  144.8424   74.6676  219.7799 H   0  0  0  0  0  0  0  0  0  0  0  0
  145.8147   73.8613  218.5251 H   0  0  0  0  0  0  0  0  0  0  0  0
  144.9568   75.5112  216.4955 H   0  0  0  0  0  0  0  0  0  0  0  0
  143.3177   75.7692  215.8010 H   0  0  0  0  0  0  0  0  0  0  0  0
  143.9670   76.2750  218.7210 H   0  0  0  0  0  0  0  0  0  0  0  0
  142.6450   80.1544  217.3460 H   0  0  0  0  0  0  0  0  0  0  0  0
  142.1469   81.7831  219.1534 H   0  0  0  0  0  0  0  0  0  0  0  0
  141.5508   82.1240  221.5518 H   0  0  0  0  0  0  0  0  0  0  0  0
  141.0483   78.7166  224.1427 H   0  0  0  0  0  0  0  0  0  0  0  0
  141.5758   77.2387  222.2019 H   0  0  0  0  0  0  0  0  0  0  0  0
  1  2  1  0
  2  3  1  0
  2  4  1  0
  2  5  1  0
  5  6  1  0
  6  7  1  0
  7  8  1  0
  8  9  1  0
  8 10  1  0
 10 11  1  0
 11 12  1  0
 12 13  2  0
 12 14  1  0
 14 15  1  0
 15 16  1  0
 16 17  2  0
 16 18  1  0
 18 19  2  0
 19 20  1  0
 20 21  2  0
 21 22  1  0
 22 23  2  0
 23 24  1  0
 23 25  1  0
 25 26  2  0
 26 27  1  0
 27 28  2  0
 11  6  1  0
 28 18  1  0
 27 21  1  0
  1 29  1  0
  1 30  1  0
  1 31  1  0
  3 32  1  0
  3 33  1  0
  3 34  1  0
  4 35  1  0
  5 36  1  0
  5 37  1  0
  6 38  1  6
  7 39  1  0
  7 40  1  0
  8 41  1  1
  9 42  1  0
 10 43  1  0
 10 44  1  0
 14 45  1  0
 14 46  1  0
 15 47  1  0
 19 48  1  0
 20 49  1  0
 22 50  1  0
 25 51  1  0
 26 52  1  0
M  END
>  <smiles>  (17) 
CC(C)(O)C[C@@H]1C[C@@H](O)CN1C(=O)CNC(=O)c1ccc2cc(F)ccc2n1

>  <score_type>  (17) 
oracle

>  <origin>  (17) 
autodockgpu

>  <m_score__min__energy>  (17) 
-8.8800000000000008

>  <m_primary>  (17) 
energy

>  <meeko>  (17) 
{"free_energy": -5.36, "intermolecular_energy": -7.75, "internal_energy": -3.35, "cluster_size": 1, "cluster_id": 4, "rank_in_cluster": 1}

>  <energy>  (17) 
-6.28

>  <cluster_rmsd>  (17) 
0.36

>  <rmsd>  (17) 
271.58

>  <cluster>  (17) 
3

$$$$

     RDKit          3D

 52 54  0  0  0  0  0  0  0  0999 V2000
  142.9490   77.4270  218.2740 C   0  0  0  0  0  0  0  0  0  0  0  0
  142.6740   76.1090  218.9530 C   0  0  0  0  0  0  0  0  0  0  0  0
  141.7430   75.2920  218.0880 C   0  0  0  0  0  0  0  0  0  0  0  0
  141.9040   76.4110  220.1030 O   0  0  0  0  0  0  0  0  0  0  0  0
  143.8560   75.3720  219.4390 C   0  0  0  0  0  0  0  0  0  0  0  0
  143.7090   74.3420  220.4710 C   0  0  2  0  0  0  0  0  0  0  0  0
  145.1040   73.7410  220.7310 C   0  0  0  0  0  0  0  0  0  0  0  0
  145.2860   72.8800  219.5140 C   0  0  1  0  0  0  0  0  0  0  0  0
  146.1410   71.8030  219.7570 O   0  0  0  0  0  0  0  0  0  0  0  0
  143.8930   72.4480  219.1890 C   0  0  0  0  0  0  0  0  0  0  0  0
  143.0020   73.1330  220.1090 N   0  0  0  0  0  0  0  0  0  0  0  0
  141.7260   72.6590  220.5280 C   0  0  0  0  0  0  0  0  0  0  0  0
  141.1740   71.8060  219.7810 O   0  0  0  0  0  0  0  0  0  0  0  0
  141.0430   73.1000  221.7450 C   0  0  0  0  0  0  0  0  0  0  0  0
  141.1180   74.5310  221.8550 N   0  0  0  0  0  0  0  0  0  0  0  0
  139.9310   75.2760  222.0870 C   0  0  0  0  0  0  0  0  0  0  0  0
  138.7920   74.7060  222.2000 O   0  0  0  0  0  0  0  0  0  0  0  0
  140.0280   76.7300  222.1940 C   0  0  0  0  0  0  0  0  0  0  0  0
  138.8560   77.4930  222.1700 C   0  0  0  0  0  0  0  0  0  0  0  0
  138.8940   78.8680  222.2680 C   0  0  0  0  0  0  0  0  0  0  0  0
  140.1250   79.4790  222.3930 C   0  0  0  0  0  0  0  0  0  0  0  0
  140.2880   80.8450  222.4990 C   0  0  0  0  0  0  0  0  0  0  0  0
  141.5300   81.4170  222.6220 C   0  0  0  0  0  0  0  0  0  0  0  0
  141.6970   82.7540  222.7260 F   0  0  0  0  0  0  0  0  0  0  0  0
  142.6820   80.6340  222.6440 C   0  0  0  0  0  0  0  0  0  0  0  0
  142.5080   79.2590  222.5360 C   0  0  0  0  0  0  0  0  0  0  0  0
  141.2640   78.6800  222.4130 C   0  0  0  0  0  0  0  0  0  0  0  0
  141.2180   77.3430  222.3170 N   0  0  0  0  0  0  0  0  0  0  0  0
  143.1113   78.2046  219.0349 H   0  0  0  0  0  0  0  0  0  0  0  0
  143.8474   77.3355  217.6459 H   0  0  0  0  0  0  0  0  0  0  0  0
  142.0890   77.7024  217.6459 H   0  0  0  0  0  0  0  0  0  0  0  0
  141.0707   74.7021  218.7283 H   0  0  0  0  0  0  0  0  0  0  0  0
  141.1478   75.9646  217.4529 H   0  0  0  0  0  0  0  0  0  0  0  0
  142.3326   74.6145  217.4529 H   0  0  0  0  0  0  0  0  0  0  0  0
  142.5310   76.6530  220.8430 H   0  0  0  0  0  0  0  0  0  0  0  0
  144.3052   74.8809  218.5632 H   0  0  0  0  0  0  0  0  0  0  0  0
  144.4469   76.1504  219.9439 H   0  0  0  0  0  0  0  0  0  0  0  0
  143.1807   74.8765  221.2742 H   0  0  0  0  0  0  0  0  0  0  0  0
  145.8749   74.5235  220.7894 H   0  0  0  0  0  0  0  0  0  0  0  0
  145.1896   73.1977  221.6836 H   0  0  0  0  0  0  0  0  0  0  0  0
  145.7665   73.4105  218.6788 H   0  0  0  0  0  0  0  0  0  0  0  0
  145.9980   71.5920  220.7280 H   0  0  0  0  0  0  0  0  0  0  0  0
  143.6464   72.7214  218.1525 H   0  0  0  0  0  0  0  0  0  0  0  0
  143.7908   71.3572  219.2877 H   0  0  0  0  0  0  0  0  0  0  0  0
  139.9878   72.7919  221.7034 H   0  0  0  0  0  0  0  0  0  0  0  0
  141.5289   72.6429  222.6196 H   0  0  0  0  0  0  0  0  0  0  0  0
  142.0240   75.0360  221.7700 H   0  0  0  0  0  0  0  0  0  0  0  0
  137.8847   76.9862  222.0710 H   0  0  0  0  0  0  0  0  0  0  0  0
  137.9682   79.4616  222.2471 H   0  0  0  0  0  0  0  0  0  0  0  0
  139.3992   81.4930  222.4846 H   0  0  0  0  0  0  0  0  0  0  0  0
  143.6817   81.0824  222.7422 H   0  0  0  0  0  0  0  0  0  0  0  0
  143.3958   78.6097  222.5492 H   0  0  0  0  0  0  0  0  0  0  0  0
  1  2  1  0
  2  3  1  0
  2  4  1  0
  2  5  1  0
  5  6  1  0
  6  7  1  0
  7  8  1  0
  8  9  1  0
  8 10  1  0
 10 11  1  0
 11 12  1  0
 12 13  2  0
 12 14  1  0
 14 15  1  0
 15 16  1  0
 16 17  2  0
 16 18  1  0
 18 19  2  0
 19 20  1  0
 20 21  2  0
 21 22  1  0
 22 23  2  0
 23 24  1  0
 23 25  1  0
 25 26  2  0
 26 27  1  0
 27 28  2  0
 11  6  1  0
 28 18  1  0
 27 21  1  0
  1 29  1  0
  1 30  1  0
  1 31  1  0
  3 32  1  0
  3 33  1  0
  3 34  1  0
  4 35  1  0
  5 36  1  0
  5 37  1  0
  6 38  1  1
  7 39  1  0
  7 40  1  0
  8 41  1  6
  9 42  1  0
 10 43  1  0
 10 44  1  0
 14 45  1  0
 14 46  1  0
 15 47  1  0
 19 48  1  0
 20 49  1  0
 22 50  1  0
 25 51  1  0
 26 52  1  0
M  END
>  <smiles>  (18) 
CC(C)(O)C[C@@H]1C[C@@H](O)CN1C(=O)CNC(=O)c1ccc2cc(F)ccc2n1

>  <score_type>  (18) 
oracle

>  <origin>  (18) 
autodockgpu

>  <m_score__min__energy>  (18) 
-8.8800000000000008

>  <m_primary>  (18) 
energy

>  <meeko>  (18) 
{"free_energy": -6.21, "intermolecular_energy": -8.59, "internal_energy": -3.2, "cluster_size": 7, "cluster_id": 3, "rank_in_cluster": 7}

>  <energy>  (18) 
-6.26

>  <cluster_rmsd>  (18) 
0.72

>  <rmsd>  (18) 
271.38

>  <cluster>  (18) 
3

$$$$

     RDKit          3D

 52 54  0  0  0  0  0  0  0  0999 V2000
  142.9520   77.5000  218.1350 C   0  0  0  0  0  0  0  0  0  0  0  0
  142.5850   76.3310  219.0120 C   0  0  0  0  0  0  0  0  0  0  0  0
  141.1910   75.8660  218.6600 C   0  0  0  0  0  0  0  0  0  0  0  0
  142.4550   76.8500  220.3250 O   0  0  0  0  0  0  0  0  0  0  0  0
  143.5830   75.2490  219.1010 C   0  0  0  0  0  0  0  0  0  0  0  0
  143.6770   74.4300  220.3130 C   0  0  2  0  0  0  0  0  0  0  0  0
  145.1490   74.0060  220.4740 C   0  0  0  0  0  0  0  0  0  0  0  0
  145.2680   72.9420  219.4210 C   0  0  1  0  0  0  0  0  0  0  0  0
  146.2560   72.0050  219.7300 O   0  0  0  0  0  0  0  0  0  0  0  0
  143.8980   72.3440  219.3830 C   0  0  0  0  0  0  0  0  0  0  0  0
  143.0630   73.1210  220.2830 N   0  0  0  0  0  0  0  0  0  0  0  0
  141.9080   72.6360  220.9590 C   0  0  0  0  0  0  0  0  0  0  0  0
  142.0170   71.5090  221.5140 O   0  0  0  0  0  0  0  0  0  0  0  0
  140.6370   73.3590  221.0400 C   0  0  0  0  0  0  0  0  0  0  0  0
  140.8670   74.7020  221.4940 N   0  0  0  0  0  0  0  0  0  0  0  0
  139.7750   75.4770  221.9660 C   0  0  0  0  0  0  0  0  0  0  0  0
  138.5850   75.0100  221.9980 O   0  0  0  0  0  0  0  0  0  0  0  0
  140.0290   76.8410  222.4230 C   0  0  0  0  0  0  0  0  0  0  0  0
  138.9460   77.6640  222.7450 C   0  0  0  0  0  0  0  0  0  0  0  0
  139.1330   78.9590  223.1810 C   0  0  0  0  0  0  0  0  0  0  0  0
  140.4260   79.4280  223.2930 C   0  0  0  0  0  0  0  0  0  0  0  0
  140.7380   80.7030  223.7170 C   0  0  0  0  0  0  0  0  0  0  0  0
  142.0370   81.1350  223.8170 C   0  0  0  0  0  0  0  0  0  0  0  0
  142.3490   82.3830  224.2320 F   0  0  0  0  0  0  0  0  0  0  0  0
  143.0990   80.2940  223.4900 C   0  0  0  0  0  0  0  0  0  0  0  0
  142.7760   79.0120  223.0630 C   0  0  0  0  0  0  0  0  0  0  0  0
  141.4730   78.5740  222.9620 C   0  0  0  0  0  0  0  0  0  0  0  0
  141.2820   77.3150  222.5390 N   0  0  0  0  0  0  0  0  0  0  0  0
  143.2221   78.3604  218.7649 H   0  0  0  0  0  0  0  0  0  0  0  0
  143.8078   77.2275  217.4999 H   0  0  0  0  0  0  0  0  0  0  0  0
  142.0940   77.7655  217.4999 H   0  0  0  0  0  0  0  0  0  0  0  0
  140.6236   75.6767  219.5832 H   0  0  0  0  0  0  0  0  0  0  0  0
  140.6831   76.6434  218.0703 H   0  0  0  0  0  0  0  0  0  0  0  0
  141.2515   74.9394  218.0703 H   0  0  0  0  0  0  0  0  0  0  0  0
  141.5900   77.3460  220.3790 H   0  0  0  0  0  0  0  0  0  0  0  0
  143.3778   74.5599  218.2685 H   0  0  0  0  0  0  0  0  0  0  0  0
  144.5407   75.7900  219.0894 H   0  0  0  0  0  0  0  0  0  0  0  0
  143.1994   75.0658  221.0730 H   0  0  0  0  0  0  0  0  0  0  0  0
  145.8330   74.8447  220.2775 H   0  0  0  0  0  0  0  0  0  0  0  0
  145.4110   73.6671  221.4872 H   0  0  0  0  0  0  0  0  0  0  0  0
  145.5817   73.3370  218.4435 H   0  0  0  0  0  0  0  0  0  0  0  0
  145.9950   71.6650  220.6380 H   0  0  0  0  0  0  0  0  0  0  0  0
  143.4949   72.3910  218.3606 H   0  0  0  0  0  0  0  0  0  0  0  0
  143.9250   71.2882  219.6904 H   0  0  0  0  0  0  0  0  0  0  0  0
  140.1683   73.3855  220.0452 H   0  0  0  0  0  0  0  0  0  0  0  0
  139.9726   72.8452  221.7503 H   0  0  0  0  0  0  0  0  0  0  0  0
  141.8200   75.1230  221.4870 H   0  0  0  0  0  0  0  0  0  0  0  0
  137.9233   77.2706  222.6486 H   0  0  0  0  0  0  0  0  0  0  0  0
  138.2753   79.6002  223.4325 H   0  0  0  0  0  0  0  0  0  0  0  0
  139.9232   81.3927  223.9823 H   0  0  0  0  0  0  0  0  0  0  0  0
  144.1438   80.6294  223.5664 H   0  0  0  0  0  0  0  0  0  0  0  0
  143.5896   78.3215  222.7959 H   0  0  0  0  0  0  0  0  0  0  0  0
  1  2  1  0
  2  3  1  0
  2  4  1  0
  2  5  1  0
  5  6  1  0
  6  7  1  0
  7  8  1  0
  8  9  1  0
  8 10  1  0
 10 11  1  0
 11 12  1  0
 12 13  2  0
 12 14  1  0
 14 15  1  0
 15 16  1  0
 16 17  2  0
 16 18  1  0
 18 19  2  0
 19 20  1  0
 20 21  2  0
 21 22  1  0
 22 23  2  0
 23 24  1  0
 23 25  1  0
 25 26  2  0
 26 27  1  0
 27 28  2  0
 11  6  1  0
 28 18  1  0
 27 21  1  0
  1 29  1  0
  1 30  1  0
  1 31  1  0
  3 32  1  0
  3 33  1  0
  3 34  1  0
  4 35  1  0
  5 36  1  0
  5 37  1  0
  6 38  1  1
  7 39  1  0
  7 40  1  0
  8 41  1  6
  9 42  1  0
 10 43  1  0
 10 44  1  0
 14 45  1  0
 14 46  1  0
 15 47  1  0
 19 48  1  0
 20 49  1  0
 22 50  1  0
 25 51  1  0
 26 52  1  0
M  END
>  <smiles>  (19) 
CC(C)(O)C[C@@H]1C[C@@H](O)CN1C(=O)CNC(=O)c1ccc2cc(F)ccc2n1

>  <score_type>  (19) 
oracle

>  <origin>  (19) 
autodockgpu

>  <m_score__min__energy>  (19) 
-8.8800000000000008

>  <m_primary>  (19) 
energy

>  <meeko>  (19) 
{"free_energy": -6.28, "intermolecular_energy": -8.67, "internal_energy": -3.27, "cluster_size": 7, "cluster_id": 3, "rank_in_cluster": 5}

>  <energy>  (19) 
-6.21

>  <cluster_rmsd>  (19) 
0.82

>  <rmsd>  (19) 
271.3

>  <cluster>  (19) 
3

$$$$

     RDKit          3D

 52 54  0  0  0  0  0  0  0  0999 V2000
  142.9460   77.6860  218.3960 C   0  0  0  0  0  0  0  0  0  0  0  0
  142.5460   76.3630  218.9950 C   0  0  0  0  0  0  0  0  0  0  0  0
  141.3600   75.8150  218.2380 C   0  0  0  0  0  0  0  0  0  0  0  0
  142.0310   76.6530  220.2830 O   0  0  0  0  0  0  0  0  0  0  0  0
  143.6360   75.3910  219.2050 C   0  0  0  0  0  0  0  0  0  0  0  0
  143.6890   74.5960  220.4360 C   0  0  2  0  0  0  0  0  0  0  0  0
  145.1590   74.2000  220.6710 C   0  0  0  0  0  0  0  0  0  0  0  0
  145.3420   73.1200  219.6450 C   0  0  1  0  0  0  0  0  0  0  0  0
  146.3300   72.2060  220.0150 O   0  0  0  0  0  0  0  0  0  0  0  0
  143.9860   72.4980  219.5560 C   0  0  0  0  0  0  0  0  0  0  0  0
  143.0980   73.2770  220.4020 N   0  0  0  0  0  0  0  0  0  0  0  0
  141.9210   72.7850  221.0360 C   0  0  0  0  0  0  0  0  0  0  0  0
  141.9940   71.6260  221.5280 O   0  0  0  0  0  0  0  0  0  0  0  0
  140.6670   73.5330  221.1390 C   0  0  0  0  0  0  0  0  0  0  0  0
  140.9300   74.8600  221.6220 N   0  0  0  0  0  0  0  0  0  0  0  0
  139.8420   75.7080  221.9590 C   0  0  0  0  0  0  0  0  0  0  0  0
  138.6280   75.3220  221.8450 O   0  0  0  0  0  0  0  0  0  0  0  0
  140.1290   77.0550  222.4480 C   0  0  0  0  0  0  0  0  0  0  0  0
  139.0690   77.8750  222.8480 C   0  0  0  0  0  0  0  0  0  0  0  0
  139.2880   79.1530  223.3160 C   0  0  0  0  0  0  0  0  0  0  0  0
  140.5890   79.6090  223.3830 C   0  0  0  0  0  0  0  0  0  0  0  0
  140.9310   80.8670  223.8330 C   0  0  0  0  0  0  0  0  0  0  0  0
  142.2370   81.2860  223.8850 C   0  0  0  0  0  0  0  0  0  0  0  0
  142.5800   82.5170  224.3260 F   0  0  0  0  0  0  0  0  0  0  0  0
  143.2750   80.4500  223.4810 C   0  0  0  0  0  0  0  0  0  0  0  0
  142.9220   79.1840  223.0280 C   0  0  0  0  0  0  0  0  0  0  0  0
  141.6120   78.7590  222.9750 C   0  0  0  0  0  0  0  0  0  0  0  0
  141.3900   77.5160  222.5200 N   0  0  0  0  0  0  0  0  0  0  0  0
  143.1627   78.4028  219.2018 H   0  0  0  0  0  0  0  0  0  0  0  0
  143.8434   77.5507  217.7744 H   0  0  0  0  0  0  0  0  0  0  0  0
  142.1240   78.0706  217.7744 H   0  0  0  0  0  0  0  0  0  0  0  0
  140.6000   75.4639  218.9515 H   0  0  0  0  0  0  0  0  0  0  0  0
  140.9313   76.6063  217.6055 H   0  0  0  0  0  0  0  0  0  0  0  0
  141.6847   74.9757  217.6055 H   0  0  0  0  0  0  0  0  0  0  0  0
  142.7760   77.0180  220.8410 H   0  0  0  0  0  0  0  0  0  0  0  0
  143.5891   74.6774  218.3692 H   0  0  0  0  0  0  0  0  0  0  0  0
  144.5291   76.0287  219.2801 H   0  0  0  0  0  0  0  0  0  0  0  0
  143.1682   75.2373  221.1624 H   0  0  0  0  0  0  0  0  0  0  0  0
  145.8377   75.0465  220.4897 H   0  0  0  0  0  0  0  0  0  0  0  0
  145.3806   73.8841  221.7011 H   0  0  0  0  0  0  0  0  0  0  0  0
  145.6926   73.5032  218.6753 H   0  0  0  0  0  0  0  0  0  0  0  0
  146.0010   71.8290  220.8860 H   0  0  0  0  0  0  0  0  0  0  0  0
  143.6295   72.5191  218.5156 H   0  0  0  0  0  0  0  0  0  0  0  0
  144.0161   71.4486  219.8844 H   0  0  0  0  0  0  0  0  0  0  0  0
  140.1947   73.5923  220.1473 H   0  0  0  0  0  0  0  0  0  0  0  0
  139.9937   73.0182  221.8402 H   0  0  0  0  0  0  0  0  0  0  0  0
  141.9020   75.2170  221.7320 H   0  0  0  0  0  0  0  0  0  0  0  0
  138.0395   77.4923  222.7880 H   0  0  0  0  0  0  0  0  0  0  0  0
  138.4486   79.7921  223.6276 H   0  0  0  0  0  0  0  0  0  0  0  0
  140.1355   81.5532  224.1591 H   0  0  0  0  0  0  0  0  0  0  0  0
  144.3249   80.7761  223.5186 H   0  0  0  0  0  0  0  0  0  0  0  0
  143.7163   78.4972  222.7003 H   0  0  0  0  0  0  0  0  0  0  0  0
  1  2  1  0
  2  3  1  0
  2  4  1  0
  2  5  1  0
  5  6  1  0
  6  7  1  0
  7  8  1  0
  8  9  1  0
  8 10  1  0
 10 11  1  0
 11 12  1  0
 12 13  2  0
 12 14  1  0
 14 15  1  0
 15 16  1  0
 16 17  2  0
 16 18  1  0
 18 19  2  0
 19 20  1  0
 20 21  2  0
 21 22  1  0
 22 23  2  0
 23 24  1  0
 23 25  1  0
 25 26  2  0
 26 27  1  0
 27 28  2  0
 11  6  1  0
 28 18  1  0
 27 21  1  0
  1 29  1  0
  1 30  1  0
  1 31  1  0
  3 32  1  0
  3 33  1  0
  3 34  1  0
  4 35  1  0
  5 36  1  0
  5 37  1  0
  6 38  1  1
  7 39  1  0
  7 40  1  0
  8 41  1  6
  9 42  1  0
 10 43  1  0
 10 44  1  0
 14 45  1  0
 14 46  1  0
 15 47  1  0
 19 48  1  0
 20 49  1  0
 22 50  1  0
 25 51  1  0
 26 52  1  0
M  END
>  <smiles>  (20) 
CC(C)(O)C[C@@H]1C[C@@H](O)CN1C(=O)CNC(=O)c1ccc2cc(F)ccc2n1

>  <score_type>  (20) 
oracle

>  <origin>  (20) 
autodockgpu

>  <m_score__min__energy>  (20) 
-8.8800000000000008

>  <m_primary>  (20) 
energy

>  <meeko>  (20) 
{"free_energy": -7.01, "intermolecular_energy": -9.4, "internal_energy": -2.98, "cluster_size": 7, "cluster_id": 3, "rank_in_cluster": 1}

>  <energy>  (20) 
-5.36

>  <cluster_rmsd>  (20) 
0.0

>  <rmsd>  (20) 
270.67

>  <cluster>  (20) 
4

$$$$
