XBCCWEKCHRHPJI-FWUMSPEWNA-N
     RDKit          3D

 41 43  0  0  0  0  0  0  0  0999 V2000
  140.0710   76.7250  221.0890 H   0  0  0  0  0  0  0  0  0  0  0  0
  139.7970   75.9220  221.6430 O   0  0  0  0  0  0  0  0  0  0  0  0
  140.5120   74.7260  221.6000 C   0  0  0  0  0  0  0  0  0  0  0  0
  141.7300   74.6560  220.9220 C   0  0  0  0  0  0  0  0  0  0  0  0
  142.1393   75.5419  220.4143 H   0  0  0  0  0  0  0  0  0  0  0  0
  142.4220   73.4390  220.8990 C   0  0  0  0  0  0  0  0  0  0  0  0
  143.7190   73.2850  220.1910 C   0  0  0  0  0  0  0  0  0  0  0  0
  144.9230   73.5250  220.8750 C   0  0  0  0  0  0  0  0  0  0  0  0
  144.9058   73.8224  221.9339 H   0  0  0  0  0  0  0  0  0  0  0  0
  146.1410   73.3850  220.2070 C   0  0  0  0  0  0  0  0  0  0  0  0
  147.0847   73.5648  220.7428 H   0  0  0  0  0  0  0  0  0  0  0  0
  146.1630   73.0270  218.8960 N   0  0  0  0  0  0  0  0  0  0  0  0
  145.0180   72.7980  218.2020 C   0  0  0  0  0  0  0  0  0  0  0  0
  145.0678   72.5125  217.1409 H   0  0  0  0  0  0  0  0  0  0  0  0
  143.7770   72.9240  218.8320 C   0  0  0  0  0  0  0  0  0  0  0  0
  142.8500   72.7419  218.2684 H   0  0  0  0  0  0  0  0  0  0  0  0
  141.8730   72.3630  221.5250 N   0  0  0  0  0  0  0  0  0  0  0  0
  140.6860   72.4330  222.1830 C   0  0  0  0  0  0  0  0  0  0  0  0
  140.2330   71.3470  222.7460 N   0  0  0  0  0  0  0  0  0  0  0  0
  139.0820   71.1150  223.6320 C   0  0  1  0  0  0  0  0  0  0  0  0
  138.9612   72.0354  224.2221 H   0  0  0  0  0  0  0  0  0  0  0  0
  137.7760   70.9280  222.8480 C   0  0  0  0  0  0  0  0  0  0  0  0
  136.9395   70.8082  223.5523 H   0  0  0  0  0  0  0  0  0  0  0  0
  137.5989   71.8099  222.2149 H   0  0  0  0  0  0  0  0  0  0  0  0
  137.8535   70.0318  222.2149 H   0  0  0  0  0  0  0  0  0  0  0  0
  139.3270   69.9990  224.6720 C   0  0  0  0  0  0  0  0  0  0  0  0
  138.3637   69.5357  224.9316 H   0  0  0  0  0  0  0  0  0  0  0  0
  140.0120   69.2612  224.2289 H   0  0  0  0  0  0  0  0  0  0  0  0
  139.9640   70.5380  225.9270 C   0  0  0  0  0  0  0  0  0  0  0  0
  140.7180   71.7230  225.8880 C   0  0  0  0  0  0  0  0  0  0  0  0
  140.8692   72.2452  224.9317 H   0  0  0  0  0  0  0  0  0  0  0  0
  141.2770   72.2410  227.0610 C   0  0  0  0  0  0  0  0  0  0  0  0
  141.8694   73.1671  227.0247 H   0  0  0  0  0  0  0  0  0  0  0  0
  141.0840   71.5840  228.2780 C   0  0  0  0  0  0  0  0  0  0  0  0
  141.5250   71.9925  229.1993 H   0  0  0  0  0  0  0  0  0  0  0  0
  140.3310   70.4080  228.3260 C   0  0  0  0  0  0  0  0  0  0  0  0
  140.1800   69.8912  229.2853 H   0  0  0  0  0  0  0  0  0  0  0  0
  139.7690   69.8870  227.1560 C   0  0  0  0  0  0  0  0  0  0  0  0
  139.1721   68.9640  227.1986 H   0  0  0  0  0  0  0  0  0  0  0  0
  140.0130   73.6230  222.2200 N   0  0  0  0  0  0  0  0  0  0  0  0
  139.1050   73.7280  222.7110 H   0  0  0  0  0  0  0  0  0  0  0  0
  1  2  1  0
  2  3  1  0
  3  4  2  0
  4  5  1  0
  4  6  1  0
  6  7  1  0
  7  8  2  0
  8  9  1  0
  8 10  1  0
 10 11  1  0
 10 12  2  0
 12 13  1  0
 13 14  1  0
 13 15  2  0
 15 16  1  0
  6 17  2  0
 17 18  1  0
 18 19  2  0
 19 20  1  0
 20 21  1  1
 20 22  1  0
 22 23  1  0
 22 24  1  0
 22 25  1  0
 20 26  1  0
 26 27  1  0
 26 28  1  0
 26 29  1  0
 29 30  2  0
 30 31  1  0
 30 32  1  0
 32 33  1  0
 32 34  2  0
 34 35  1  0
 34 36  1  0
 36 37  1  0
 36 38  2  0
 38 39  1  0
 18 40  1  0
 40 41  1  0
 40  3  1  0
 15  7  1  0
 38 29  1  0
M  END
>  <UniqueID>  (1) 
5

>  <SMILES>  (1) 
C[C@@H](Cc1ccccc1)/N=c1/nc(-c2ccncc2)cc(O)[nH]1

>  <Energy>  (1) 
50.24427360299338

>  <Genealogy>  (1) 
CC(Cc1ccccc1)N=c1nc(-c2ccncc2)cc(O)[nH]1 (tautomer)
C[C@@H](Cc1ccccc1)N=c1nc(-c2ccncc2)cc(O)[nH]1 (chirality)
C[C@@H](Cc1ccccc1)/N=c1/nc(-c2ccncc2)cc(O)[nH]1 (cis-trans isomerization)
C[C@@H](Cc1ccccc1)/N=c1/nc(-c2ccncc2)cc(O)[nH]1 (3D coordinates assigned)
C[C@@H](Cc1ccccc1)/N=c1/nc(-c2ccncc2)cc(O)[nH]1 (optimized conformer: 50.24427360299338 kcal/mol)

>  <smiles>  (1) 
CC(Cc1ccccc1)N=c1[nH]c(-c2ccncc2)cc(=O)[nH]1

>  <score_type>  (1) 
oracle

>  <origin>  (1) 
autodockgpu

>  <m_score__min__energy>  (1) 
-7.7300000000000004

>  <m_primary>  (1) 
energy

>  <meeko>  (1) 
{"free_energy": -7.43, "intermolecular_energy": -9.22, "internal_energy": -0.63, "cluster_size": 16, "cluster_id": 1, "rank_in_cluster": 13}

>  <energy>  (1) 
-7.73

>  <cluster_rmsd>  (1) 
0.0

>  <rmsd>  (1) 
271.46

>  <cluster>  (1) 
1

$$$$
XBCCWEKCHRHPJI-FWUMSPEWNA-N
     RDKit          3D

 41 43  0  0  0  0  0  0  0  0999 V2000
  144.1380   78.1670  215.8750 H   0  0  0  0  0  0  0  0  0  0  0  0
  143.5870   77.5210  216.4280 O   0  0  0  0  0  0  0  0  0  0  0  0
  142.9350   77.9270  217.5910 C   0  0  0  0  0  0  0  0  0  0  0  0
  142.3670   76.9820  218.4480 C   0  0  0  0  0  0  0  0  0  0  0  0
  142.4268   75.9085  218.2158 H   0  0  0  0  0  0  0  0  0  0  0  0
  141.7200   77.4250  219.6080 C   0  0  0  0  0  0  0  0  0  0  0  0
  141.0860   76.4810  220.5640 C   0  0  0  0  0  0  0  0  0  0  0  0
  141.5080   75.1410  220.6100 C   0  0  0  0  0  0  0  0  0  0  0  0
  142.3097   74.7921  219.9425 H   0  0  0  0  0  0  0  0  0  0  0  0
  140.9070   74.2540  221.5050 C   0  0  0  0  0  0  0  0  0  0  0  0
  141.2419   73.2071  221.5483 H   0  0  0  0  0  0  0  0  0  0  0  0
  139.9090   74.6810  222.3230 N   0  0  0  0  0  0  0  0  0  0  0  0
  139.4690   75.9660  222.2960 C   0  0  0  0  0  0  0  0  0  0  0  0
  138.6572   76.2816  222.9678 H   0  0  0  0  0  0  0  0  0  0  0  0
  140.0440   76.8880  221.4180 C   0  0  0  0  0  0  0  0  0  0  0  0
  139.6841   77.9272  221.3943 H   0  0  0  0  0  0  0  0  0  0  0  0
  141.6540   78.7620  219.8500 N   0  0  0  0  0  0  0  0  0  0  0  0
  142.2060   79.6800  219.0130 C   0  0  0  0  0  0  0  0  0  0  0  0
  142.0840   80.9420  219.3220 N   0  0  0  0  0  0  0  0  0  0  0  0
  140.9340   81.7200  219.8080 C   0  0  1  0  0  0  0  0  0  0  0  0
  140.9146   82.6429  219.2098 H   0  0  0  0  0  0  0  0  0  0  0  0
  139.6010   81.0070  219.5470 C   0  0  0  0  0  0  0  0  0  0  0  0
  139.1268   80.7534  220.5066 H   0  0  0  0  0  0  0  0  0  0  0  0
  138.9366   81.6702  218.9736 H   0  0  0  0  0  0  0  0  0  0  0  0
  139.7838   80.0862  218.9736 H   0  0  0  0  0  0  0  0  0  0  0  0
  141.0910   82.1910  221.2710 C   0  0  0  0  0  0  0  0  0  0  0  0
  141.9367   82.8918  221.3313 H   0  0  0  0  0  0  0  0  0  0  0  0
  140.1535   82.6781  221.5774 H   0  0  0  0  0  0  0  0  0  0  0  0
  141.3470   81.0350  222.2030 C   0  0  0  0  0  0  0  0  0  0  0  0
  140.2890   80.4560  222.9250 C   0  0  0  0  0  0  0  0  0  0  0  0
  139.2730   80.8671  222.8323 H   0  0  0  0  0  0  0  0  0  0  0  0
  140.5230   79.3590  223.7610 C   0  0  0  0  0  0  0  0  0  0  0  0
  139.6922   78.9119  224.3266 H   0  0  0  0  0  0  0  0  0  0  0  0
  141.8110   78.8310  223.8780 C   0  0  0  0  0  0  0  0  0  0  0  0
  141.9938   77.9690  224.5365 H   0  0  0  0  0  0  0  0  0  0  0  0
  142.8680   79.3970  223.1590 C   0  0  0  0  0  0  0  0  0  0  0  0
  143.8818   78.9806  223.2526 H   0  0  0  0  0  0  0  0  0  0  0  0
  142.6370   80.4920  222.3210 C   0  0  0  0  0  0  0  0  0  0  0  0
  143.4696   80.9304  221.7513 H   0  0  0  0  0  0  0  0  0  0  0  0
  142.8500   79.2520  217.8860 N   0  0  0  0  0  0  0  0  0  0  0  0
  143.2900   79.9130  217.2170 H   0  0  0  0  0  0  0  0  0  0  0  0
  1  2  1  0
  2  3  1  0
  3  4  2  0
  4  5  1  0
  4  6  1  0
  6  7  1  0
  7  8  2  0
  8  9  1  0
  8 10  1  0
 10 11  1  0
 10 12  2  0
 12 13  1  0
 13 14  1  0
 13 15  2  0
 15 16  1  0
  6 17  2  0
 17 18  1  0
 18 19  2  0
 19 20  1  0
 20 21  1  6
 20 22  1  0
 22 23  1  0
 22 24  1  0
 22 25  1  0
 20 26  1  0
 26 27  1  0
 26 28  1  0
 26 29  1  0
 29 30  2  0
 30 31  1  0
 30 32  1  0
 32 33  1  0
 32 34  2  0
 34 35  1  0
 34 36  1  0
 36 37  1  0
 36 38  2  0
 38 39  1  0
 18 40  1  0
 40 41  1  0
 40  3  1  0
 15  7  1  0
 38 29  1  0
M  END
>  <UniqueID>  (2) 
5

>  <SMILES>  (2) 
C[C@@H](Cc1ccccc1)/N=c1/nc(-c2ccncc2)cc(O)[nH]1

>  <Energy>  (2) 
50.24427360299338

>  <Genealogy>  (2) 
CC(Cc1ccccc1)N=c1nc(-c2ccncc2)cc(O)[nH]1 (tautomer)
C[C@@H](Cc1ccccc1)N=c1nc(-c2ccncc2)cc(O)[nH]1 (chirality)
C[C@@H](Cc1ccccc1)/N=c1/nc(-c2ccncc2)cc(O)[nH]1 (cis-trans isomerization)
C[C@@H](Cc1ccccc1)/N=c1/nc(-c2ccncc2)cc(O)[nH]1 (3D coordinates assigned)
C[C@@H](Cc1ccccc1)/N=c1/nc(-c2ccncc2)cc(O)[nH]1 (optimized conformer: 50.24427360299338 kcal/mol)

>  <smiles>  (2) 
CC(Cc1ccccc1)N=c1[nH]c(-c2ccncc2)cc(=O)[nH]1

>  <score_type>  (2) 
oracle

>  <origin>  (2) 
autodockgpu

>  <m_score__min__energy>  (2) 
-7.7300000000000004

>  <m_primary>  (2) 
energy

>  <meeko>  (2) 
{"free_energy": -6.41, "intermolecular_energy": -8.2, "internal_energy": -1.52, "cluster_size": 1, "cluster_id": 3, "rank_in_cluster": 1}

>  <energy>  (2) 
-7.73

>  <cluster_rmsd>  (2) 
0.05

>  <rmsd>  (2) 
271.45

>  <cluster>  (2) 
1

$$$$
XBCCWEKCHRHPJI-FWUMSPEWNA-N
     RDKit          3D

 41 43  0  0  0  0  0  0  0  0999 V2000
  138.8310   75.2820  223.0110 H   0  0  0  0  0  0  0  0  0  0  0  0
  139.4500   75.1460  222.2200 O   0  0  0  0  0  0  0  0  0  0  0  0
  140.1010   73.9330  222.0020 C   0  0  0  0  0  0  0  0  0  0  0  0
  141.3420   73.9030  221.3620 C   0  0  0  0  0  0  0  0  0  0  0  0
  141.8198   74.8342  221.0234 H   0  0  0  0  0  0  0  0  0  0  0  0
  141.9670   72.6670  221.1590 C   0  0  0  0  0  0  0  0  0  0  0  0
  143.2830   72.5540  220.4800 C   0  0  0  0  0  0  0  0  0  0  0  0
  143.5860   71.4070  219.7240 C   0  0  0  0  0  0  0  0  0  0  0  0
  142.8485   70.5960  219.6324 H   0  0  0  0  0  0  0  0  0  0  0  0
  144.8260   71.3010  219.0900 C   0  0  0  0  0  0  0  0  0  0  0  0
  145.0615   70.4092  218.4906 H   0  0  0  0  0  0  0  0  0  0  0  0
  145.7420   72.2970  219.2120 N   0  0  0  0  0  0  0  0  0  0  0  0
  145.4870   73.4130  219.9430 C   0  0  0  0  0  0  0  0  0  0  0  0
  146.2497   74.2014  220.0251 H   0  0  0  0  0  0  0  0  0  0  0  0
  144.2580   73.5620  220.5910 C   0  0  0  0  0  0  0  0  0  0  0  0
  144.0536   74.4644  221.1859 H   0  0  0  0  0  0  0  0  0  0  0  0
  141.3350   71.5370  221.5780 N   0  0  0  0  0  0  0  0  0  0  0  0
  140.1260   71.5690  222.1980 C   0  0  0  0  0  0  0  0  0  0  0  0
  139.5910   70.4340  222.5550 N   0  0  0  0  0  0  0  0  0  0  0  0
  138.9970   69.9930  223.8270 C   0  0  1  0  0  0  0  0  0  0  0  0
  138.6278   70.9028  224.3230 H   0  0  0  0  0  0  0  0  0  0  0  0
  137.7750   69.0890  223.6120 C   0  0  0  0  0  0  0  0  0  0  0  0
  137.3664   68.7867  224.5875 H   0  0  0  0  0  0  0  0  0  0  0  0
  137.0074   69.6383  223.0472 H   0  0  0  0  0  0  0  0  0  0  0  0
  138.0757   68.1942  223.0472 H   0  0  0  0  0  0  0  0  0  0  0  0
  140.0280   69.3920  224.8070 C   0  0  0  0  0  0  0  0  0  0  0  0
  139.6545   68.4219  225.1669 H   0  0  0  0  0  0  0  0  0  0  0  0
  140.9815   69.2729  224.2716 H   0  0  0  0  0  0  0  0  0  0  0  0
  140.2630   70.2950  225.9910 C   0  0  0  0  0  0  0  0  0  0  0  0
  139.6930   69.9910  227.2390 C   0  0  0  0  0  0  0  0  0  0  0  0
  139.0482   69.1063  227.3464 H   0  0  0  0  0  0  0  0  0  0  0  0
  139.9430   70.8100  228.3450 C   0  0  0  0  0  0  0  0  0  0  0  0
  139.4921   70.5700  229.3192 H   0  0  0  0  0  0  0  0  0  0  0  0
  140.7650   71.9330  228.2140 C   0  0  0  0  0  0  0  0  0  0  0  0
  140.9600   72.5765  229.0845 H   0  0  0  0  0  0  0  0  0  0  0  0
  141.3390   72.2380  226.9770 C   0  0  0  0  0  0  0  0  0  0  0  0
  141.9849   73.1225  226.8747 H   0  0  0  0  0  0  0  0  0  0  0  0
  141.0940   71.4210  225.8690 C   0  0  0  0  0  0  0  0  0  0  0  0
  141.5534   71.6608  224.8987 H   0  0  0  0  0  0  0  0  0  0  0  0
  139.5170   72.7750  222.4110 N   0  0  0  0  0  0  0  0  0  0  0  0
  138.5960   72.8520  222.8820 H   0  0  0  0  0  0  0  0  0  0  0  0
  1  2  1  0
  2  3  1  0
  3  4  2  0
  4  5  1  0
  4  6  1  0
  6  7  1  0
  7  8  2  0
  8  9  1  0
  8 10  1  0
 10 11  1  0
 10 12  2  0
 12 13  1  0
 13 14  1  0
 13 15  2  0
 15 16  1  0
  6 17  2  0
 17 18  1  0
 18 19  2  0
 19 20  1  0
 20 21  1  1
 20 22  1  0
 22 23  1  0
 22 24  1  0
 22 25  1  0
 20 26  1  0
 26 27  1  0
 26 28  1  0
 26 29  1  0
 29 30  2  0
 30 31  1  0
 30 32  1  0
 32 33  1  0
 32 34  2  0
 34 35  1  0
 34 36  1  0
 36 37  1  0
 36 38  2  0
 38 39  1  0
 18 40  1  0
 40 41  1  0
 40  3  1  0
 15  7  1  0
 38 29  1  0
M  END
>  <UniqueID>  (3) 
5

>  <SMILES>  (3) 
C[C@@H](Cc1ccccc1)/N=c1/nc(-c2ccncc2)cc(O)[nH]1

>  <Energy>  (3) 
50.24427360299338

>  <Genealogy>  (3) 
CC(Cc1ccccc1)N=c1nc(-c2ccncc2)cc(O)[nH]1 (tautomer)
C[C@@H](Cc1ccccc1)N=c1nc(-c2ccncc2)cc(O)[nH]1 (chirality)
C[C@@H](Cc1ccccc1)/N=c1/nc(-c2ccncc2)cc(O)[nH]1 (cis-trans isomerization)
C[C@@H](Cc1ccccc1)/N=c1/nc(-c2ccncc2)cc(O)[nH]1 (3D coordinates assigned)
C[C@@H](Cc1ccccc1)/N=c1/nc(-c2ccncc2)cc(O)[nH]1 (optimized conformer: 50.24427360299338 kcal/mol)

>  <smiles>  (3) 
CC(Cc1ccccc1)N=c1[nH]c(-c2ccncc2)cc(=O)[nH]1

>  <score_type>  (3) 
oracle

>  <origin>  (3) 
autodockgpu

>  <m_score__min__energy>  (3) 
-7.7300000000000004

>  <m_primary>  (3) 
energy

>  <meeko>  (3) 
{"free_energy": -7.59, "intermolecular_energy": -9.38, "internal_energy": -0.7, "cluster_size": 16, "cluster_id": 1, "rank_in_cluster": 4}

>  <energy>  (3) 
-7.66

>  <cluster_rmsd>  (3) 
0.18

>  <rmsd>  (3) 
271.43

>  <cluster>  (3) 
1

$$$$
XBCCWEKCHRHPJI-FWUMSPEWNA-N
     RDKit          3D

 41 43  0  0  0  0  0  0  0  0999 V2000
  139.2910   76.3380  221.3540 H   0  0  0  0  0  0  0  0  0  0  0  0
  139.8450   75.8900  222.0740 O   0  0  0  0  0  0  0  0  0  0  0  0
  140.3960   74.6230  221.8900 C   0  0  0  0  0  0  0  0  0  0  0  0
  141.6510   74.4790  221.2960 C   0  0  0  0  0  0  0  0  0  0  0  0
  142.2190   75.3615  220.9666 H   0  0  0  0  0  0  0  0  0  0  0  0
  142.1740   73.1910  221.1270 C   0  0  0  0  0  0  0  0  0  0  0  0
  143.4980   72.9560  220.4960 C   0  0  0  0  0  0  0  0  0  0  0  0
  144.5860   73.7850  220.8220 C   0  0  0  0  0  0  0  0  0  0  0  0
  144.4584   74.6031  221.5462 H   0  0  0  0  0  0  0  0  0  0  0  0
  145.8290   73.5670  220.2240 C   0  0  0  0  0  0  0  0  0  0  0  0
  146.6833   74.2096  220.4833 H   0  0  0  0  0  0  0  0  0  0  0  0
  145.9850   72.5620  219.3220 N   0  0  0  0  0  0  0  0  0  0  0  0
  144.9530   71.7490  218.9770 C   0  0  0  0  0  0  0  0  0  0  0  0
  145.1095   70.9454  218.2424 H   0  0  0  0  0  0  0  0  0  0  0  0
  143.6930   71.9310  219.5530 C   0  0  0  0  0  0  0  0  0  0  0  0
  142.8567   71.2750  219.2699 H   0  0  0  0  0  0  0  0  0  0  0  0
  141.4320   72.1250  221.5340 N   0  0  0  0  0  0  0  0  0  0  0  0
  140.2100   72.2680  222.1100 C   0  0  0  0  0  0  0  0  0  0  0  0
  139.5660   71.1880  222.4580 N   0  0  0  0  0  0  0  0  0  0  0  0
  139.0090   70.7590  223.7500 C   0  0  1  0  0  0  0  0  0  0  0  0
  138.8900   71.6732  224.3501 H   0  0  0  0  0  0  0  0  0  0  0  0
  137.6080   70.1510  223.6020 C   0  0  0  0  0  0  0  0  0  0  0  0
  137.1815   69.9659  224.5989 H   0  0  0  0  0  0  0  0  0  0  0  0
  136.9615   70.8495  223.0505 H   0  0  0  0  0  0  0  0  0  0  0  0
  137.6766   69.2017  223.0505 H   0  0  0  0  0  0  0  0  0  0  0  0
  139.9720   69.8660  224.5640 C   0  0  0  0  0  0  0  0  0  0  0  0
  139.4873   68.8964  224.7511 H   0  0  0  0  0  0  0  0  0  0  0  0
  140.8965   69.7377  223.9819 H   0  0  0  0  0  0  0  0  0  0  0  0
  140.3310   70.4960  225.8850 C   0  0  0  0  0  0  0  0  0  0  0  0
  139.9730   69.8700  227.0920 C   0  0  0  0  0  0  0  0  0  0  0  0
  139.4015   68.9303  227.0736 H   0  0  0  0  0  0  0  0  0  0  0  0
  140.3410   70.4380  228.3160 C   0  0  0  0  0  0  0  0  0  0  0  0
  140.0563   69.9455  229.2575 H   0  0  0  0  0  0  0  0  0  0  0  0
  141.0690   71.6290  228.3450 C   0  0  0  0  0  0  0  0  0  0  0  0
  141.3563   72.0742  229.3090 H   0  0  0  0  0  0  0  0  0  0  0  0
  141.4330   72.2560  227.1500 C   0  0  0  0  0  0  0  0  0  0  0  0
  142.0053   73.1951  227.1742 H   0  0  0  0  0  0  0  0  0  0  0  0
  141.0700   71.6900  225.9230 C   0  0  0  0  0  0  0  0  0  0  0  0
  141.3645   72.1820  224.9843 H   0  0  0  0  0  0  0  0  0  0  0  0
  139.7010   73.5240  222.2890 N   0  0  0  0  0  0  0  0  0  0  0  0
  138.7730   73.6860  222.7270 H   0  0  0  0  0  0  0  0  0  0  0  0
  1  2  1  0
  2  3  1  0
  3  4  2  0
  4  5  1  0
  4  6  1  0
  6  7  1  0
  7  8  2  0
  8  9  1  0
  8 10  1  0
 10 11  1  0
 10 12  2  0
 12 13  1  0
 13 14  1  0
 13 15  2  0
 15 16  1  0
  6 17  2  0
 17 18  1  0
 18 19  2  0
 19 20  1  0
 20 21  1  1
 20 22  1  0
 22 23  1  0
 22 24  1  0
 22 25  1  0
 20 26  1  0
 26 27  1  0
 26 28  1  0
 26 29  1  0
 29 30  2  0
 30 31  1  0
 30 32  1  0
 32 33  1  0
 32 34  2  0
 34 35  1  0
 34 36  1  0
 36 37  1  0
 36 38  2  0
 38 39  1  0
 18 40  1  0
 40 41  1  0
 40  3  1  0
 15  7  1  0
 38 29  1  0
M  END
>  <UniqueID>  (4) 
5

>  <SMILES>  (4) 
C[C@@H](Cc1ccccc1)/N=c1/nc(-c2ccncc2)cc(O)[nH]1

>  <Energy>  (4) 
50.24427360299338

>  <Genealogy>  (4) 
CC(Cc1ccccc1)N=c1nc(-c2ccncc2)cc(O)[nH]1 (tautomer)
C[C@@H](Cc1ccccc1)N=c1nc(-c2ccncc2)cc(O)[nH]1 (chirality)
C[C@@H](Cc1ccccc1)/N=c1/nc(-c2ccncc2)cc(O)[nH]1 (cis-trans isomerization)
C[C@@H](Cc1ccccc1)/N=c1/nc(-c2ccncc2)cc(O)[nH]1 (3D coordinates assigned)
C[C@@H](Cc1ccccc1)/N=c1/nc(-c2ccncc2)cc(O)[nH]1 (optimized conformer: 50.24427360299338 kcal/mol)

>  <smiles>  (4) 
CC(Cc1ccccc1)N=c1[nH]c(-c2ccncc2)cc(=O)[nH]1

>  <score_type>  (4) 
oracle

>  <origin>  (4) 
autodockgpu

>  <m_score__min__energy>  (4) 
-7.7300000000000004

>  <m_primary>  (4) 
energy

>  <meeko>  (4) 
{"free_energy": -7.48, "intermolecular_energy": -9.27, "internal_energy": -0.69, "cluster_size": 16, "cluster_id": 1, "rank_in_cluster": 9}

>  <energy>  (4) 
-7.59

>  <cluster_rmsd>  (4) 
0.26

>  <rmsd>  (4) 
271.38

>  <cluster>  (4) 
1

$$$$
XBCCWEKCHRHPJI-FWUMSPEWNA-N
     RDKit          3D

 41 43  0  0  0  0  0  0  0  0999 V2000
  139.3220   74.9080  223.1610 H   0  0  0  0  0  0  0  0  0  0  0  0
  139.5970   74.3810  222.3400 O   0  0  0  0  0  0  0  0  0  0  0  0
  140.5500   74.8660  221.4460 C   0  0  0  0  0  0  0  0  0  0  0  0
  141.7190   74.1440  221.2010 C   0  0  0  0  0  0  0  0  0  0  0  0
  141.9018   73.1857  221.7091 H   0  0  0  0  0  0  0  0  0  0  0  0
  142.6550   74.6610  220.2970 C   0  0  0  0  0  0  0  0  0  0  0  0
  143.9250   73.9540  219.9900 C   0  0  0  0  0  0  0  0  0  0  0  0
  145.0420   74.1250  220.8270 C   0  0  0  0  0  0  0  0  0  0  0  0
  144.9748   74.7775  221.7100 H   0  0  0  0  0  0  0  0  0  0  0  0
  146.2370   73.4640  220.5340 C   0  0  0  0  0  0  0  0  0  0  0  0
  147.1096   73.5904  221.1917 H   0  0  0  0  0  0  0  0  0  0  0  0
  146.3240   72.6650  219.4380 N   0  0  0  0  0  0  0  0  0  0  0  0
  145.2680   72.4860  218.6030 C   0  0  0  0  0  0  0  0  0  0  0  0
  145.3694   71.8345  217.7225 H   0  0  0  0  0  0  0  0  0  0  0  0
  144.0530   73.1270  218.8590 C   0  0  0  0  0  0  0  0  0  0  0  0
  143.2000   72.9856  218.1790 H   0  0  0  0  0  0  0  0  0  0  0  0
  142.3980   75.8570  219.7020 N   0  0  0  0  0  0  0  0  0  0  0  0
  141.2600   76.5590  219.9450 C   0  0  0  0  0  0  0  0  0  0  0  0
  141.1050   77.7030  219.3360 N   0  0  0  0  0  0  0  0  0  0  0  0
  142.0210   78.8380  219.1440 C   0  0  1  0  0  0  0  0  0  0  0  0
  142.9929   78.5184  219.5481 H   0  0  0  0  0  0  0  0  0  0  0  0
  142.2500   79.1510  217.6590 C   0  0  0  0  0  0  0  0  0  0  0  0
  142.8972   80.0356  217.5663 H   0  0  0  0  0  0  0  0  0  0  0  0
  142.7333   78.2905  217.1732 H   0  0  0  0  0  0  0  0  0  0  0  0
  141.2836   79.3512  217.1732 H   0  0  0  0  0  0  0  0  0  0  0  0
  141.6320   80.0830  219.9710 C   0  0  0  0  0  0  0  0  0  0  0  0
  142.3090   80.9100  219.7105 H   0  0  0  0  0  0  0  0  0  0  0  0
  140.5885   80.3393  219.7355 H   0  0  0  0  0  0  0  0  0  0  0  0
  141.7290   79.8200  221.4520 C   0  0  0  0  0  0  0  0  0  0  0  0
  142.6690   80.5110  222.2370 C   0  0  0  0  0  0  0  0  0  0  0  0
  143.3575   81.2266  221.7639 H   0  0  0  0  0  0  0  0  0  0  0  0
  142.7320   80.2920  223.6170 C   0  0  0  0  0  0  0  0  0  0  0  0
  143.4716   80.8325  224.2260 H   0  0  0  0  0  0  0  0  0  0  0  0
  141.8560   79.3870  224.2230 C   0  0  0  0  0  0  0  0  0  0  0  0
  141.9072   79.2153  225.3083 H   0  0  0  0  0  0  0  0  0  0  0  0
  140.9150   78.7000  223.4510 C   0  0  0  0  0  0  0  0  0  0  0  0
  140.2266   77.9875  223.9290 H   0  0  0  0  0  0  0  0  0  0  0  0
  140.8480   78.9180  222.0700 C   0  0  0  0  0  0  0  0  0  0  0  0
  140.1020   78.3804  221.4663 H   0  0  0  0  0  0  0  0  0  0  0  0
  140.3370   76.0530  220.8160 N   0  0  0  0  0  0  0  0  0  0  0  0
  139.4520   76.5490  221.0330 H   0  0  0  0  0  0  0  0  0  0  0  0
  1  2  1  0
  2  3  1  0
  3  4  2  0
  4  5  1  0
  4  6  1  0
  6  7  1  0
  7  8  2  0
  8  9  1  0
  8 10  1  0
 10 11  1  0
 10 12  2  0
 12 13  1  0
 13 14  1  0
 13 15  2  0
 15 16  1  0
  6 17  2  0
 17 18  1  0
 18 19  2  0
 19 20  1  0
 20 21  1  1
 20 22  1  0
 22 23  1  0
 22 24  1  0
 22 25  1  0
 20 26  1  0
 26 27  1  0
 26 28  1  0
 26 29  1  0
 29 30  2  0
 30 31  1  0
 30 32  1  0
 32 33  1  0
 32 34  2  0
 34 35  1  0
 34 36  1  0
 36 37  1  0
 36 38  2  0
 38 39  1  0
 18 40  1  0
 40 41  1  0
 40  3  1  0
 15  7  1  0
 38 29  1  0
M  END
>  <UniqueID>  (5) 
5

>  <SMILES>  (5) 
C[C@@H](Cc1ccccc1)/N=c1/nc(-c2ccncc2)cc(O)[nH]1

>  <Energy>  (5) 
50.24427360299338

>  <Genealogy>  (5) 
CC(Cc1ccccc1)N=c1nc(-c2ccncc2)cc(O)[nH]1 (tautomer)
C[C@@H](Cc1ccccc1)N=c1nc(-c2ccncc2)cc(O)[nH]1 (chirality)
C[C@@H](Cc1ccccc1)/N=c1/nc(-c2ccncc2)cc(O)[nH]1 (cis-trans isomerization)
C[C@@H](Cc1ccccc1)/N=c1/nc(-c2ccncc2)cc(O)[nH]1 (3D coordinates assigned)
C[C@@H](Cc1ccccc1)/N=c1/nc(-c2ccncc2)cc(O)[nH]1 (optimized conformer: 50.24427360299338 kcal/mol)

>  <smiles>  (5) 
CC(Cc1ccccc1)N=c1[nH]c(-c2ccncc2)cc(=O)[nH]1

>  <score_type>  (5) 
oracle

>  <origin>  (5) 
autodockgpu

>  <m_score__min__energy>  (5) 
-7.7300000000000004

>  <m_primary>  (5) 
energy

>  <meeko>  (5) 
{"free_energy": -6.99, "intermolecular_energy": -8.78, "internal_energy": -0.81, "cluster_size": 2, "cluster_id": 2, "rank_in_cluster": 1}

>  <energy>  (5) 
-7.52

>  <cluster_rmsd>  (5) 
0.83

>  <rmsd>  (5) 
271.53

>  <cluster>  (5) 
1

$$$$
XBCCWEKCHRHPJI-FWUMSPEWNA-N
     RDKit          3D

 41 43  0  0  0  0  0  0  0  0999 V2000
  140.5080   76.7420  222.0190 H   0  0  0  0  0  0  0  0  0  0  0  0
  139.9180   75.9180  222.0570 O   0  0  0  0  0  0  0  0  0  0  0  0
  140.4410   74.6370  221.8860 C   0  0  0  0  0  0  0  0  0  0  0  0
  141.6940   74.4590  221.2970 C   0  0  0  0  0  0  0  0  0  0  0  0
  142.2825   75.3255  220.9611 H   0  0  0  0  0  0  0  0  0  0  0  0
  142.1890   73.1580  221.1410 C   0  0  0  0  0  0  0  0  0  0  0  0
  143.5100   72.8890  220.5170 C   0  0  0  0  0  0  0  0  0  0  0  0
  143.6930   71.7360  219.7340 C   0  0  0  0  0  0  0  0  0  0  0  0
  142.8588   71.0357  219.5801 H   0  0  0  0  0  0  0  0  0  0  0  0
  144.9370   71.4820  219.1520 C   0  0  0  0  0  0  0  0  0  0  0  0
  145.0800   70.5847  218.5320 H   0  0  0  0  0  0  0  0  0  0  0  0
  145.9710   72.3410  219.3500 N   0  0  0  0  0  0  0  0  0  0  0  0
  145.8320   73.4590  220.1090 C   0  0  0  0  0  0  0  0  0  0  0  0
  146.6881   74.1346  220.2525 H   0  0  0  0  0  0  0  0  0  0  0  0
  144.6040   73.7530  220.7080 C   0  0  0  0  0  0  0  0  0  0  0  0
  144.4932   74.6561  221.3262 H   0  0  0  0  0  0  0  0  0  0  0  0
  141.4220   72.1130  221.5540 N   0  0  0  0  0  0  0  0  0  0  0  0
  140.2020   72.2890  222.1250 C   0  0  0  0  0  0  0  0  0  0  0  0
  139.5330   71.2270  222.4800 N   0  0  0  0  0  0  0  0  0  0  0  0
  139.1430   70.7170  223.8040 C   0  0  1  0  0  0  0  0  0  0  0  0
  138.8899   71.6001  224.4090 H   0  0  0  0  0  0  0  0  0  0  0  0
  137.8750   69.8560  223.7410 C   0  0  0  0  0  0  0  0  0  0  0  0
  137.5367   69.6263  224.7622 H   0  0  0  0  0  0  0  0  0  0  0  0
  137.0850   70.4052  223.2078 H   0  0  0  0  0  0  0  0  0  0  0  0
  138.0941   68.9191  223.2078 H   0  0  0  0  0  0  0  0  0  0  0  0
  140.3020   70.0310  224.5600 C   0  0  0  0  0  0  0  0  0  0  0  0
  140.0592   68.9667  224.6952 H   0  0  0  0  0  0  0  0  0  0  0  0
  141.2195   70.1530  223.9656 H   0  0  0  0  0  0  0  0  0  0  0  0
  140.5310   70.6560  225.9130 C   0  0  0  0  0  0  0  0  0  0  0  0
  141.2690   71.8460  226.0300 C   0  0  0  0  0  0  0  0  0  0  0  0
  141.7082   72.3089  225.1340 H   0  0  0  0  0  0  0  0  0  0  0  0
  141.4470   72.4440  227.2820 C   0  0  0  0  0  0  0  0  0  0  0  0
  142.0277   73.3742  227.3691 H   0  0  0  0  0  0  0  0  0  0  0  0
  140.8880   71.8610  228.4220 C   0  0  0  0  0  0  0  0  0  0  0  0
  141.0306   72.3314  229.4061 H   0  0  0  0  0  0  0  0  0  0  0  0
  140.1480   70.6810  228.3130 C   0  0  0  0  0  0  0  0  0  0  0  0
  139.7080   70.2234  229.2114 H   0  0  0  0  0  0  0  0  0  0  0  0
  139.9660   70.0810  227.0630 C   0  0  0  0  0  0  0  0  0  0  0  0
  139.3780   69.1550  226.9802 H   0  0  0  0  0  0  0  0  0  0  0  0
  139.7200   73.5570  222.2920 N   0  0  0  0  0  0  0  0  0  0  0  0
  138.7950   73.7440  222.7240 H   0  0  0  0  0  0  0  0  0  0  0  0
  1  2  1  0
  2  3  1  0
  3  4  2  0
  4  5  1  0
  4  6  1  0
  6  7  1  0
  7  8  2  0
  8  9  1  0
  8 10  1  0
 10 11  1  0
 10 12  2  0
 12 13  1  0
 13 14  1  0
 13 15  2  0
 15 16  1  0
  6 17  2  0
 17 18  1  0
 18 19  2  0
 19 20  1  0
 20 21  1  1
 20 22  1  0
 22 23  1  0
 22 24  1  0
 22 25  1  0
 20 26  1  0
 26 27  1  0
 26 28  1  0
 26 29  1  0
 29 30  2  0
 30 31  1  0
 30 32  1  0
 32 33  1  0
 32 34  2  0
 34 35  1  0
 34 36  1  0
 36 37  1  0
 36 38  2  0
 38 39  1  0
 18 40  1  0
 40 41  1  0
 40  3  1  0
 15  7  1  0
 38 29  1  0
M  END
>  <UniqueID>  (6) 
5

>  <SMILES>  (6) 
C[C@@H](Cc1ccccc1)/N=c1/nc(-c2ccncc2)cc(O)[nH]1

>  <Energy>  (6) 
50.24427360299338

>  <Genealogy>  (6) 
CC(Cc1ccccc1)N=c1nc(-c2ccncc2)cc(O)[nH]1 (tautomer)
C[C@@H](Cc1ccccc1)N=c1nc(-c2ccncc2)cc(O)[nH]1 (chirality)
C[C@@H](Cc1ccccc1)/N=c1/nc(-c2ccncc2)cc(O)[nH]1 (cis-trans isomerization)
C[C@@H](Cc1ccccc1)/N=c1/nc(-c2ccncc2)cc(O)[nH]1 (3D coordinates assigned)
C[C@@H](Cc1ccccc1)/N=c1/nc(-c2ccncc2)cc(O)[nH]1 (optimized conformer: 50.24427360299338 kcal/mol)

>  <smiles>  (6) 
CC(Cc1ccccc1)N=c1[nH]c(-c2ccncc2)cc(=O)[nH]1

>  <score_type>  (6) 
oracle

>  <origin>  (6) 
autodockgpu

>  <m_score__min__energy>  (6) 
-7.7300000000000004

>  <m_primary>  (6) 
energy

>  <meeko>  (6) 
{"free_energy": -7.37, "intermolecular_energy": -9.16, "internal_energy": -0.72, "cluster_size": 16, "cluster_id": 1, "rank_in_cluster": 15}

>  <energy>  (6) 
-7.52

>  <cluster_rmsd>  (6) 
1.22

>  <rmsd>  (6) 
271.57

>  <cluster>  (6) 
1

$$$$
XBCCWEKCHRHPJI-FWUMSPEWNA-N
     RDKit          3D

 41 43  0  0  0  0  0  0  0  0999 V2000
  138.9300   75.2060  223.0950 H   0  0  0  0  0  0  0  0  0  0  0  0
  139.4910   75.0710  222.2610 O   0  0  0  0  0  0  0  0  0  0  0  0
  140.2130   73.8980  222.0490 C   0  0  0  0  0  0  0  0  0  0  0  0
  141.4510   73.9380  221.4050 C   0  0  0  0  0  0  0  0  0  0  0  0
  141.8707   74.8939  221.0584 H   0  0  0  0  0  0  0  0  0  0  0  0
  142.1490   72.7410  221.2080 C   0  0  0  0  0  0  0  0  0  0  0  0
  143.4670   72.7030  220.5240 C   0  0  0  0  0  0  0  0  0  0  0  0
  143.7480   71.6800  219.6010 C   0  0  0  0  0  0  0  0  0  0  0  0
  142.9921   70.9114  219.3821 H   0  0  0  0  0  0  0  0  0  0  0  0
  144.9900   71.6430  218.9630 C   0  0  0  0  0  0  0  0  0  0  0  0
  145.2089   70.8485  218.2344 H   0  0  0  0  0  0  0  0  0  0  0  0
  145.9290   72.5860  219.2400 N   0  0  0  0  0  0  0  0  0  0  0  0
  145.6940   73.5820  220.1340 C   0  0  0  0  0  0  0  0  0  0  0  0
  146.4737   74.3304  220.3389 H   0  0  0  0  0  0  0  0  0  0  0  0
  144.4640   73.6580  220.7940 C   0  0  0  0  0  0  0  0  0  0  0  0
  144.2765   74.4614  221.5216 H   0  0  0  0  0  0  0  0  0  0  0  0
  141.5880   71.5780  221.6380 N   0  0  0  0  0  0  0  0  0  0  0  0
  140.3820   71.5420  222.2620 C   0  0  0  0  0  0  0  0  0  0  0  0
  139.9180   70.3790  222.6300 N   0  0  0  0  0  0  0  0  0  0  0  0
  139.0840   69.9790  223.7740 C   0  0  1  0  0  0  0  0  0  0  0  0
  138.7617   70.9128  224.2579 H   0  0  0  0  0  0  0  0  0  0  0  0
  137.8050   69.2540  223.3310 C   0  0  0  0  0  0  0  0  0  0  0  0
  137.2393   68.9333  224.2182 H   0  0  0  0  0  0  0  0  0  0  0  0
  137.1868   69.9360  222.7287 H   0  0  0  0  0  0  0  0  0  0  0  0
  138.0726   68.3733  222.7287 H   0  0  0  0  0  0  0  0  0  0  0  0
  139.8660   69.2130  224.8630 C   0  0  0  0  0  0  0  0  0  0  0  0
  139.2237   68.4188  225.2712 H   0  0  0  0  0  0  0  0  0  0  0  0
  140.7709   68.7900  224.4023 H   0  0  0  0  0  0  0  0  0  0  0  0
  140.2920   70.1230  225.9870 C   0  0  0  0  0  0  0  0  0  0  0  0
  141.0750   71.2590  225.7220 C   0  0  0  0  0  0  0  0  0  0  0  0
  141.4046   71.4701  224.6940 H   0  0  0  0  0  0  0  0  0  0  0  0
  141.4370   72.1230  226.7620 C   0  0  0  0  0  0  0  0  0  0  0  0
  142.0532   73.0094  226.5510 H   0  0  0  0  0  0  0  0  0  0  0  0
  141.0160   71.8600  228.0680 C   0  0  0  0  0  0  0  0  0  0  0  0
  141.3020   72.5392  228.8847 H   0  0  0  0  0  0  0  0  0  0  0  0
  140.2320   70.7350  228.3380 C   0  0  0  0  0  0  0  0  0  0  0  0
  139.9016   70.5295  229.3669 H   0  0  0  0  0  0  0  0  0  0  0  0
  139.8670   69.8700  227.3010 C   0  0  0  0  0  0  0  0  0  0  0  0
  139.2449   68.9886  227.5158 H   0  0  0  0  0  0  0  0  0  0  0  0
  139.7020   72.7090  222.4690 N   0  0  0  0  0  0  0  0  0  0  0  0
  138.7790   72.7340  222.9430 H   0  0  0  0  0  0  0  0  0  0  0  0
  1  2  1  0
  2  3  1  0
  3  4  2  0
  4  5  1  0
  4  6  1  0
  6  7  1  0
  7  8  2  0
  8  9  1  0
  8 10  1  0
 10 11  1  0
 10 12  2  0
 12 13  1  0
 13 14  1  0
 13 15  2  0
 15 16  1  0
  6 17  2  0
 17 18  1  0
 18 19  2  0
 19 20  1  0
 20 21  1  1
 20 22  1  0
 22 23  1  0
 22 24  1  0
 22 25  1  0
 20 26  1  0
 26 27  1  0
 26 28  1  0
 26 29  1  0
 29 30  2  0
 30 31  1  0
 30 32  1  0
 32 33  1  0
 32 34  2  0
 34 35  1  0
 34 36  1  0
 36 37  1  0
 36 38  2  0
 38 39  1  0
 18 40  1  0
 40 41  1  0
 40  3  1  0
 15  7  1  0
 38 29  1  0
M  END
>  <UniqueID>  (7) 
5

>  <SMILES>  (7) 
C[C@@H](Cc1ccccc1)/N=c1/nc(-c2ccncc2)cc(O)[nH]1

>  <Energy>  (7) 
50.24427360299338

>  <Genealogy>  (7) 
CC(Cc1ccccc1)N=c1nc(-c2ccncc2)cc(O)[nH]1 (tautomer)
C[C@@H](Cc1ccccc1)N=c1nc(-c2ccncc2)cc(O)[nH]1 (chirality)
C[C@@H](Cc1ccccc1)/N=c1/nc(-c2ccncc2)cc(O)[nH]1 (cis-trans isomerization)
C[C@@H](Cc1ccccc1)/N=c1/nc(-c2ccncc2)cc(O)[nH]1 (3D coordinates assigned)
C[C@@H](Cc1ccccc1)/N=c1/nc(-c2ccncc2)cc(O)[nH]1 (optimized conformer: 50.24427360299338 kcal/mol)

>  <smiles>  (7) 
CC(Cc1ccccc1)N=c1[nH]c(-c2ccncc2)cc(=O)[nH]1

>  <score_type>  (7) 
oracle

>  <origin>  (7) 
autodockgpu

>  <m_score__min__energy>  (7) 
-7.7300000000000004

>  <m_primary>  (7) 
energy

>  <meeko>  (7) 
{"free_energy": -7.73, "intermolecular_energy": -9.52, "internal_energy": -0.71, "cluster_size": 16, "cluster_id": 1, "rank_in_cluster": 1}

>  <energy>  (7) 
-7.49

>  <cluster_rmsd>  (7) 
0.59

>  <rmsd>  (7) 
271.48

>  <cluster>  (7) 
1

$$$$
XBCCWEKCHRHPJI-FWUMSPEWNA-N
     RDKit          3D

 41 43  0  0  0  0  0  0  0  0999 V2000
  140.3670   76.8060  221.7140 H   0  0  0  0  0  0  0  0  0  0  0  0
  139.9000   75.9700  222.0450 O   0  0  0  0  0  0  0  0  0  0  0  0
  140.4490   74.7020  221.8550 C   0  0  0  0  0  0  0  0  0  0  0  0
  141.6880   74.5570  221.2300 C   0  0  0  0  0  0  0  0  0  0  0  0
  142.2452   75.4388  220.8808 H   0  0  0  0  0  0  0  0  0  0  0  0
  142.2100   73.2690  221.0550 C   0  0  0  0  0  0  0  0  0  0  0  0
  143.5180   73.0330  220.3930 C   0  0  0  0  0  0  0  0  0  0  0  0
  144.6570   73.7360  220.8220 C   0  0  0  0  0  0  0  0  0  0  0  0
  144.5807   74.4564  221.6498 H   0  0  0  0  0  0  0  0  0  0  0  0
  145.8860   73.5180  220.1950 C   0  0  0  0  0  0  0  0  0  0  0  0
  146.7800   74.0614  220.5349 H   0  0  0  0  0  0  0  0  0  0  0  0
  145.9790   72.6350  219.1650 N   0  0  0  0  0  0  0  0  0  0  0  0
  144.8960   71.9470  218.7190 C   0  0  0  0  0  0  0  0  0  0  0  0
  145.0019   71.2408  217.8823 H   0  0  0  0  0  0  0  0  0  0  0  0
  143.6480   72.1330  219.3190 C   0  0  0  0  0  0  0  0  0  0  0  0
  142.7711   71.5785  218.9536 H   0  0  0  0  0  0  0  0  0  0  0  0
  141.4800   72.2040  221.4860 N   0  0  0  0  0  0  0  0  0  0  0  0
  140.2730   72.3490  222.0920 C   0  0  0  0  0  0  0  0  0  0  0  0
  139.6400   71.2690  222.4630 N   0  0  0  0  0  0  0  0  0  0  0  0
  139.0320   70.8870  223.7460 C   0  0  1  0  0  0  0  0  0  0  0  0
  138.9945   71.8047  224.3513 H   0  0  0  0  0  0  0  0  0  0  0  0
  137.5810   70.4170  223.5810 C   0  0  0  0  0  0  0  0  0  0  0  0
  137.1281   70.2703  224.5726 H   0  0  0  0  0  0  0  0  0  0  0  0
  137.0105   71.1763  223.0260 H   0  0  0  0  0  0  0  0  0  0  0  0
  137.5640   69.4674  223.0260 H   0  0  0  0  0  0  0  0  0  0  0  0
  139.8970   69.9030  224.5630 C   0  0  0  0  0  0  0  0  0  0  0  0
  139.3152   68.9888  224.7520 H   0  0  0  0  0  0  0  0  0  0  0  0
  140.8040   69.6793  223.9822 H   0  0  0  0  0  0  0  0  0  0  0  0
  140.3180   70.4960  225.8830 C   0  0  0  0  0  0  0  0  0  0  0  0
  141.0580   71.6900  225.9210 C   0  0  0  0  0  0  0  0  0  0  0  0
  141.3571   72.1794  224.9824 H   0  0  0  0  0  0  0  0  0  0  0  0
  141.4160   72.2590  227.1490 C   0  0  0  0  0  0  0  0  0  0  0  0
  141.9985   73.1918  227.1736 H   0  0  0  0  0  0  0  0  0  0  0  0
  141.0340   71.6430  228.3430 C   0  0  0  0  0  0  0  0  0  0  0  0
  141.3166   72.0908  229.3072 H   0  0  0  0  0  0  0  0  0  0  0  0
  140.2930   70.4580  228.3140 C   0  0  0  0  0  0  0  0  0  0  0  0
  139.9935   69.9741  229.2553 H   0  0  0  0  0  0  0  0  0  0  0  0
  139.9320   69.8870  227.0890 C   0  0  0  0  0  0  0  0  0  0  0  0
  139.3437   68.9577  227.0698 H   0  0  0  0  0  0  0  0  0  0  0  0
  139.7650   73.6050  222.2770 N   0  0  0  0  0  0  0  0  0  0  0  0
  138.8490   73.7680  222.7360 H   0  0  0  0  0  0  0  0  0  0  0  0
  1  2  1  0
  2  3  1  0
  3  4  2  0
  4  5  1  0
  4  6  1  0
  6  7  1  0
  7  8  2  0
  8  9  1  0
  8 10  1  0
 10 11  1  0
 10 12  2  0
 12 13  1  0
 13 14  1  0
 13 15  2  0
 15 16  1  0
  6 17  2  0
 17 18  1  0
 18 19  2  0
 19 20  1  0
 20 21  1  1
 20 22  1  0
 22 23  1  0
 22 24  1  0
 22 25  1  0
 20 26  1  0
 26 27  1  0
 26 28  1  0
 26 29  1  0
 29 30  2  0
 30 31  1  0
 30 32  1  0
 32 33  1  0
 32 34  2  0
 34 35  1  0
 34 36  1  0
 36 37  1  0
 36 38  2  0
 38 39  1  0
 18 40  1  0
 40 41  1  0
 40  3  1  0
 15  7  1  0
 38 29  1  0
M  END
>  <UniqueID>  (8) 
5

>  <SMILES>  (8) 
C[C@@H](Cc1ccccc1)/N=c1/nc(-c2ccncc2)cc(O)[nH]1

>  <Energy>  (8) 
50.24427360299338

>  <Genealogy>  (8) 
CC(Cc1ccccc1)N=c1nc(-c2ccncc2)cc(O)[nH]1 (tautomer)
C[C@@H](Cc1ccccc1)N=c1nc(-c2ccncc2)cc(O)[nH]1 (chirality)
C[C@@H](Cc1ccccc1)/N=c1/nc(-c2ccncc2)cc(O)[nH]1 (cis-trans isomerization)
C[C@@H](Cc1ccccc1)/N=c1/nc(-c2ccncc2)cc(O)[nH]1 (3D coordinates assigned)
C[C@@H](Cc1ccccc1)/N=c1/nc(-c2ccncc2)cc(O)[nH]1 (optimized conformer: 50.24427360299338 kcal/mol)

>  <smiles>  (8) 
CC(Cc1ccccc1)N=c1[nH]c(-c2ccncc2)cc(=O)[nH]1

>  <score_type>  (8) 
oracle

>  <origin>  (8) 
autodockgpu

>  <m_score__min__energy>  (8) 
-7.7300000000000004

>  <m_primary>  (8) 
energy

>  <meeko>  (8) 
{"free_energy": -7.52, "intermolecular_energy": -9.31, "internal_energy": -0.68, "cluster_size": 16, "cluster_id": 1, "rank_in_cluster": 5}

>  <energy>  (8) 
-7.49

>  <cluster_rmsd>  (8) 
0.63

>  <rmsd>  (8) 
271.46

>  <cluster>  (8) 
1

$$$$
XBCCWEKCHRHPJI-FWUMSPEWNA-N
     RDKit          3D

 41 43  0  0  0  0  0  0  0  0999 V2000
  139.6840   76.3570  221.3720 H   0  0  0  0  0  0  0  0  0  0  0  0
  139.7260   75.6700  222.1170 O   0  0  0  0  0  0  0  0  0  0  0  0
  140.3100   74.4190  221.9240 C   0  0  0  0  0  0  0  0  0  0  0  0
  141.5710   74.3110  221.3370 C   0  0  0  0  0  0  0  0  0  0  0  0
  142.1186   75.2105  221.0193 H   0  0  0  0  0  0  0  0  0  0  0  0
  142.1280   73.0390  221.1590 C   0  0  0  0  0  0  0  0  0  0  0  0
  143.4620   72.8440  220.5350 C   0  0  0  0  0  0  0  0  0  0  0  0
  143.6830   71.7480  219.6830 C   0  0  0  0  0  0  0  0  0  0  0  0
  142.8692   71.0376  219.4754 H   0  0  0  0  0  0  0  0  0  0  0  0
  144.9390   71.5640  219.1010 C   0  0  0  0  0  0  0  0  0  0  0  0
  145.1120   70.7119  218.4272 H   0  0  0  0  0  0  0  0  0  0  0  0
  145.9480   72.4350  219.3650 N   0  0  0  0  0  0  0  0  0  0  0  0
  145.7720   73.4980  220.1920 C   0  0  0  0  0  0  0  0  0  0  0  0
  146.6088   74.1842  220.3893 H   0  0  0  0  0  0  0  0  0  0  0  0
  144.5300   73.7220  220.7930 C   0  0  0  0  0  0  0  0  0  0  0  0
  144.3885   74.5814  221.4649 H   0  0  0  0  0  0  0  0  0  0  0  0
  141.4100   71.9510  221.5510 N   0  0  0  0  0  0  0  0  0  0  0  0
  140.1810   72.0580  222.1200 C   0  0  0  0  0  0  0  0  0  0  0  0
  139.5630   70.9590  222.4540 N   0  0  0  0  0  0  0  0  0  0  0  0
  139.0260   70.4940  223.7420 C   0  0  1  0  0  0  0  0  0  0  0  0
  138.7727   71.4001  224.3120 H   0  0  0  0  0  0  0  0  0  0  0  0
  137.7190   69.7080  223.5740 C   0  0  0  0  0  0  0  0  0  0  0  0
  137.3094   69.4617  224.5647 H   0  0  0  0  0  0  0  0  0  0  0  0
  136.9924   70.3191  223.0184 H   0  0  0  0  0  0  0  0  0  0  0  0
  137.9182   68.7797  223.0184 H   0  0  0  0  0  0  0  0  0  0  0  0
  140.0690   69.7540  224.6070 C   0  0  0  0  0  0  0  0  0  0  0  0
  139.6972   68.7423  224.8267 H   0  0  0  0  0  0  0  0  0  0  0  0
  141.0139   69.7125  224.0454 H   0  0  0  0  0  0  0  0  0  0  0  0
  140.3250   70.4740  225.9070 C   0  0  0  0  0  0  0  0  0  0  0  0
  139.8140   69.9650  227.1130 C   0  0  0  0  0  0  0  0  0  0  0  0
  139.1988   69.0531  227.1062 H   0  0  0  0  0  0  0  0  0  0  0  0
  140.0850   70.6140  228.3220 C   0  0  0  0  0  0  0  0  0  0  0  0
  139.6811   70.2128  229.2632 H   0  0  0  0  0  0  0  0  0  0  0  0
  140.8680   71.7710  228.3360 C   0  0  0  0  0  0  0  0  0  0  0  0
  141.0777   72.2816  229.2875 H   0  0  0  0  0  0  0  0  0  0  0  0
  141.3850   72.2800  227.1410 C   0  0  0  0  0  0  0  0  0  0  0  0
  142.0024   73.1903  227.1531 H   0  0  0  0  0  0  0  0  0  0  0  0
  141.1180   71.6330  225.9300 C   0  0  0  0  0  0  0  0  0  0  0  0
  141.5306   72.0334  224.9922 H   0  0  0  0  0  0  0  0  0  0  0  0
  139.6390   73.2990  222.3080 N   0  0  0  0  0  0  0  0  0  0  0  0
  138.7060   73.4340  222.7400 H   0  0  0  0  0  0  0  0  0  0  0  0
  1  2  1  0
  2  3  1  0
  3  4  2  0
  4  5  1  0
  4  6  1  0
  6  7  1  0
  7  8  2  0
  8  9  1  0
  8 10  1  0
 10 11  1  0
 10 12  2  0
 12 13  1  0
 13 14  1  0
 13 15  2  0
 15 16  1  0
  6 17  2  0
 17 18  1  0
 18 19  2  0
 19 20  1  0
 20 21  1  1
 20 22  1  0
 22 23  1  0
 22 24  1  0
 22 25  1  0
 20 26  1  0
 26 27  1  0
 26 28  1  0
 26 29  1  0
 29 30  2  0
 30 31  1  0
 30 32  1  0
 32 33  1  0
 32 34  2  0
 34 35  1  0
 34 36  1  0
 36 37  1  0
 36 38  2  0
 38 39  1  0
 18 40  1  0
 40 41  1  0
 40  3  1  0
 15  7  1  0
 38 29  1  0
M  END
>  <UniqueID>  (9) 
5

>  <SMILES>  (9) 
C[C@@H](Cc1ccccc1)/N=c1/nc(-c2ccncc2)cc(O)[nH]1

>  <Energy>  (9) 
50.24427360299338

>  <Genealogy>  (9) 
CC(Cc1ccccc1)N=c1nc(-c2ccncc2)cc(O)[nH]1 (tautomer)
C[C@@H](Cc1ccccc1)N=c1nc(-c2ccncc2)cc(O)[nH]1 (chirality)
C[C@@H](Cc1ccccc1)/N=c1/nc(-c2ccncc2)cc(O)[nH]1 (cis-trans isomerization)
C[C@@H](Cc1ccccc1)/N=c1/nc(-c2ccncc2)cc(O)[nH]1 (3D coordinates assigned)
C[C@@H](Cc1ccccc1)/N=c1/nc(-c2ccncc2)cc(O)[nH]1 (optimized conformer: 50.24427360299338 kcal/mol)

>  <smiles>  (9) 
CC(Cc1ccccc1)N=c1[nH]c(-c2ccncc2)cc(=O)[nH]1

>  <score_type>  (9) 
oracle

>  <origin>  (9) 
autodockgpu

>  <m_score__min__energy>  (9) 
-7.7300000000000004

>  <m_primary>  (9) 
energy

>  <meeko>  (9) 
{"free_energy": -7.42, "intermolecular_energy": -9.21, "internal_energy": -0.72, "cluster_size": 16, "cluster_id": 1, "rank_in_cluster": 14}

>  <energy>  (9) 
-7.48

>  <cluster_rmsd>  (9) 
0.72

>  <rmsd>  (9) 
271.51

>  <cluster>  (9) 
1

$$$$
XBCCWEKCHRHPJI-FWUMSPEWNA-N
     RDKit          3D

 41 43  0  0  0  0  0  0  0  0999 V2000
  140.0490   76.5120  221.5910 H   0  0  0  0  0  0  0  0  0  0  0  0
  139.7250   75.6980  222.1000 O   0  0  0  0  0  0  0  0  0  0  0  0
  140.3070   74.4440  221.9210 C   0  0  0  0  0  0  0  0  0  0  0  0
  141.5650   74.3290  221.3270 C   0  0  0  0  0  0  0  0  0  0  0  0
  142.1108   75.2243  220.9944 H   0  0  0  0  0  0  0  0  0  0  0  0
  142.1200   73.0540  221.1620 C   0  0  0  0  0  0  0  0  0  0  0  0
  143.4500   72.8510  220.5310 C   0  0  0  0  0  0  0  0  0  0  0  0
  144.4970   73.7500  220.8000 C   0  0  0  0  0  0  0  0  0  0  0  0
  144.3339   74.6000  221.4790 H   0  0  0  0  0  0  0  0  0  0  0  0
  145.7450   73.5600  220.2020 C   0  0  0  0  0  0  0  0  0  0  0  0
  146.5680   74.2575  220.4166 H   0  0  0  0  0  0  0  0  0  0  0  0
  145.9450   72.5160  219.3560 N   0  0  0  0  0  0  0  0  0  0  0  0
  144.9520   71.6340  219.0670 C   0  0  0  0  0  0  0  0  0  0  0  0
  145.1435   70.7991  218.3769 H   0  0  0  0  0  0  0  0  0  0  0  0
  143.6890   71.7850  219.6440 C   0  0  0  0  0  0  0  0  0  0  0  0
  142.8845   71.0736  219.4060 H   0  0  0  0  0  0  0  0  0  0  0  0
  141.4050   71.9710  221.5720 N   0  0  0  0  0  0  0  0  0  0  0  0
  140.1790   72.0870  222.1470 C   0  0  0  0  0  0  0  0  0  0  0  0
  139.5630   70.9920  222.4990 N   0  0  0  0  0  0  0  0  0  0  0  0
  138.9880   70.5660  223.7840 C   0  0  1  0  0  0  0  0  0  0  0  0
  138.8081   71.4873  224.3574 H   0  0  0  0  0  0  0  0  0  0  0  0
  137.6220   69.8890  223.6110 C   0  0  0  0  0  0  0  0  0  0  0  0
  137.1908   69.6753  224.6001 H   0  0  0  0  0  0  0  0  0  0  0  0
  136.9491   70.5579  223.0544 H   0  0  0  0  0  0  0  0  0  0  0  0
  137.7468   68.9484  223.0544 H   0  0  0  0  0  0  0  0  0  0  0  0
  139.9670   69.7390  224.6480 C   0  0  0  0  0  0  0  0  0  0  0  0
  139.5044   68.7687  224.8817 H   0  0  0  0  0  0  0  0  0  0  0  0
  140.8981   69.6037  224.0782 H   0  0  0  0  0  0  0  0  0  0  0  0
  140.3020   70.4440  225.9370 C   0  0  0  0  0  0  0  0  0  0  0  0
  141.0990   71.6020  225.9270 C   0  0  0  0  0  0  0  0  0  0  0  0
  141.5046   71.9803  224.9771 H   0  0  0  0  0  0  0  0  0  0  0  0
  141.3780   72.2750  227.1220 C   0  0  0  0  0  0  0  0  0  0  0  0
  142.0053   73.1785  227.1099 H   0  0  0  0  0  0  0  0  0  0  0  0
  140.8610   71.8010  228.3300 C   0  0  0  0  0  0  0  0  0  0  0  0
  141.0817   72.3311  229.2682 H   0  0  0  0  0  0  0  0  0  0  0  0
  140.0630   70.6530  228.3470 C   0  0  0  0  0  0  0  0  0  0  0  0
  139.6572   70.2802  229.2990 H   0  0  0  0  0  0  0  0  0  0  0  0
  139.7800   69.9780  227.1550 C   0  0  0  0  0  0  0  0  0  0  0  0
  139.1464   69.0790  227.1715 H   0  0  0  0  0  0  0  0  0  0  0  0
  139.6390   73.3300  222.3230 N   0  0  0  0  0  0  0  0  0  0  0  0
  138.7080   73.4700  222.7600 H   0  0  0  0  0  0  0  0  0  0  0  0
  1  2  1  0
  2  3  1  0
  3  4  2  0
  4  5  1  0
  4  6  1  0
  6  7  1  0
  7  8  2  0
  8  9  1  0
  8 10  1  0
 10 11  1  0
 10 12  2  0
 12 13  1  0
 13 14  1  0
 13 15  2  0
 15 16  1  0
  6 17  2  0
 17 18  1  0
 18 19  2  0
 19 20  1  0
 20 21  1  1
 20 22  1  0
 22 23  1  0
 22 24  1  0
 22 25  1  0
 20 26  1  0
 26 27  1  0
 26 28  1  0
 26 29  1  0
 29 30  2  0
 30 31  1  0
 30 32  1  0
 32 33  1  0
 32 34  2  0
 34 35  1  0
 34 36  1  0
 36 37  1  0
 36 38  2  0
 38 39  1  0
 18 40  1  0
 40 41  1  0
 40  3  1  0
 15  7  1  0
 38 29  1  0
M  END
>  <UniqueID>  (10) 
5

>  <SMILES>  (10) 
C[C@@H](Cc1ccccc1)/N=c1/nc(-c2ccncc2)cc(O)[nH]1

>  <Energy>  (10) 
50.24427360299338

>  <Genealogy>  (10) 
CC(Cc1ccccc1)N=c1nc(-c2ccncc2)cc(O)[nH]1 (tautomer)
C[C@@H](Cc1ccccc1)N=c1nc(-c2ccncc2)cc(O)[nH]1 (chirality)
C[C@@H](Cc1ccccc1)/N=c1/nc(-c2ccncc2)cc(O)[nH]1 (cis-trans isomerization)
C[C@@H](Cc1ccccc1)/N=c1/nc(-c2ccncc2)cc(O)[nH]1 (3D coordinates assigned)
C[C@@H](Cc1ccccc1)/N=c1/nc(-c2ccncc2)cc(O)[nH]1 (optimized conformer: 50.24427360299338 kcal/mol)

>  <smiles>  (10) 
CC(Cc1ccccc1)N=c1[nH]c(-c2ccncc2)cc(=O)[nH]1

>  <score_type>  (10) 
oracle

>  <origin>  (10) 
autodockgpu

>  <m_score__min__energy>  (10) 
-7.7300000000000004

>  <m_primary>  (10) 
energy

>  <meeko>  (10) 
{"free_energy": -7.47, "intermolecular_energy": -9.26, "internal_energy": -0.72, "cluster_size": 16, "cluster_id": 1, "rank_in_cluster": 11}

>  <energy>  (10) 
-7.47

>  <cluster_rmsd>  (10) 
0.99

>  <rmsd>  (10) 
271.53

>  <cluster>  (10) 
1

$$$$
XBCCWEKCHRHPJI-FWUMSPEWNA-N
     RDKit          3D

 41 43  0  0  0  0  0  0  0  0999 V2000
  138.9220   75.1910  223.0690 H   0  0  0  0  0  0  0  0  0  0  0  0
  139.4910   75.0520  222.2420 O   0  0  0  0  0  0  0  0  0  0  0  0
  140.2170   73.8790  222.0430 C   0  0  0  0  0  0  0  0  0  0  0  0
  141.4530   73.9150  221.3950 C   0  0  0  0  0  0  0  0  0  0  0  0
  141.8681   74.8675  221.0338 H   0  0  0  0  0  0  0  0  0  0  0  0
  142.1550   72.7170  221.2130 C   0  0  0  0  0  0  0  0  0  0  0  0
  143.4710   72.6740  220.5260 C   0  0  0  0  0  0  0  0  0  0  0  0
  143.7430   71.6560  219.5950 C   0  0  0  0  0  0  0  0  0  0  0  0
  142.9810   70.8946  219.3721 H   0  0  0  0  0  0  0  0  0  0  0  0
  144.9830   71.6140  218.9540 C   0  0  0  0  0  0  0  0  0  0  0  0
  145.1944   70.8227  218.2197 H   0  0  0  0  0  0  0  0  0  0  0  0
  145.9290   72.5480  219.2350 N   0  0  0  0  0  0  0  0  0  0  0  0
  145.7030   73.5400  220.1360 C   0  0  0  0  0  0  0  0  0  0  0  0
  146.4883   74.2817  220.3440 H   0  0  0  0  0  0  0  0  0  0  0  0
  144.4750   73.6200  220.7990 C   0  0  0  0  0  0  0  0  0  0  0  0
  144.2946   74.4203  221.5318 H   0  0  0  0  0  0  0  0  0  0  0  0
  141.5990   71.5580  221.6600 N   0  0  0  0  0  0  0  0  0  0  0  0
  140.3940   71.5260  222.2880 C   0  0  0  0  0  0  0  0  0  0  0  0
  139.9350   70.3670  222.6730 N   0  0  0  0  0  0  0  0  0  0  0  0
  139.0320   69.9920  223.7720 C   0  0  1  0  0  0  0  0  0  0  0  0
  138.7040   70.9353  224.2331 H   0  0  0  0  0  0  0  0  0  0  0  0
  137.7640   69.2920  223.2650 C   0  0  0  0  0  0  0  0  0  0  0  0
  137.1611   68.9591  224.1227 H   0  0  0  0  0  0  0  0  0  0  0  0
  137.1769   69.9938  222.6544 H   0  0  0  0  0  0  0  0  0  0  0  0
  138.0451   68.4213  222.6544 H   0  0  0  0  0  0  0  0  0  0  0  0
  139.7390   69.2140  224.9050 C   0  0  0  0  0  0  0  0  0  0  0  0
  139.0326   68.4883  225.3344 H   0  0  0  0  0  0  0  0  0  0  0  0
  140.6149   68.7041  224.4775 H   0  0  0  0  0  0  0  0  0  0  0  0
  140.2170   70.1360  225.9970 C   0  0  0  0  0  0  0  0  0  0  0  0
  141.0320   71.2400  225.6890 C   0  0  0  0  0  0  0  0  0  0  0  0
  141.3472   71.4159  224.6499 H   0  0  0  0  0  0  0  0  0  0  0  0
  141.4430   72.1150  226.7000 C   0  0  0  0  0  0  0  0  0  0  0  0
  142.0831   72.9754  226.4549 H   0  0  0  0  0  0  0  0  0  0  0  0
  141.0420   71.8980  228.0200 C   0  0  0  0  0  0  0  0  0  0  0  0
  141.3671   72.5871  228.8134 H   0  0  0  0  0  0  0  0  0  0  0  0
  140.2280   70.8060  228.3340 C   0  0  0  0  0  0  0  0  0  0  0  0
  139.9135   70.6360  229.3743 H   0  0  0  0  0  0  0  0  0  0  0  0
  139.8130   69.9290  227.3260 C   0  0  0  0  0  0  0  0  0  0  0  0
  139.1677   69.0738  227.5755 H   0  0  0  0  0  0  0  0  0  0  0  0
  139.7110   72.6950  222.4810 N   0  0  0  0  0  0  0  0  0  0  0  0
  138.7900   72.7230  222.9570 H   0  0  0  0  0  0  0  0  0  0  0  0
  1  2  1  0
  2  3  1  0
  3  4  2  0
  4  5  1  0
  4  6  1  0
  6  7  1  0
  7  8  2  0
  8  9  1  0
  8 10  1  0
 10 11  1  0
 10 12  2  0
 12 13  1  0
 13 14  1  0
 13 15  2  0
 15 16  1  0
  6 17  2  0
 17 18  1  0
 18 19  2  0
 19 20  1  0
 20 21  1  1
 20 22  1  0
 22 23  1  0
 22 24  1  0
 22 25  1  0
 20 26  1  0
 26 27  1  0
 26 28  1  0
 26 29  1  0
 29 30  2  0
 30 31  1  0
 30 32  1  0
 32 33  1  0
 32 34  2  0
 34 35  1  0
 34 36  1  0
 36 37  1  0
 36 38  2  0
 38 39  1  0
 18 40  1  0
 40 41  1  0
 40  3  1  0
 15  7  1  0
 38 29  1  0
M  END
>  <UniqueID>  (11) 
5

>  <SMILES>  (11) 
C[C@@H](Cc1ccccc1)/N=c1/nc(-c2ccncc2)cc(O)[nH]1

>  <Energy>  (11) 
50.24427360299338

>  <Genealogy>  (11) 
CC(Cc1ccccc1)N=c1nc(-c2ccncc2)cc(O)[nH]1 (tautomer)
C[C@@H](Cc1ccccc1)N=c1nc(-c2ccncc2)cc(O)[nH]1 (chirality)
C[C@@H](Cc1ccccc1)/N=c1/nc(-c2ccncc2)cc(O)[nH]1 (cis-trans isomerization)
C[C@@H](Cc1ccccc1)/N=c1/nc(-c2ccncc2)cc(O)[nH]1 (3D coordinates assigned)
C[C@@H](Cc1ccccc1)/N=c1/nc(-c2ccncc2)cc(O)[nH]1 (optimized conformer: 50.24427360299338 kcal/mol)

>  <smiles>  (11) 
CC(Cc1ccccc1)N=c1[nH]c(-c2ccncc2)cc(=O)[nH]1

>  <score_type>  (11) 
oracle

>  <origin>  (11) 
autodockgpu

>  <m_score__min__energy>  (11) 
-7.7300000000000004

>  <m_primary>  (11) 
energy

>  <meeko>  (11) 
{"free_energy": -7.73, "intermolecular_energy": -9.52, "internal_energy": -0.71, "cluster_size": 16, "cluster_id": 1, "rank_in_cluster": 2}

>  <energy>  (11) 
-7.47

>  <cluster_rmsd>  (11) 
0.64

>  <rmsd>  (11) 
271.5

>  <cluster>  (11) 
1

$$$$
XBCCWEKCHRHPJI-FWUMSPEWNA-N
     RDKit          3D

 41 43  0  0  0  0  0  0  0  0999 V2000
  139.6280   76.3280  221.3230 H   0  0  0  0  0  0  0  0  0  0  0  0
  139.7320   75.6590  222.0770 O   0  0  0  0  0  0  0  0  0  0  0  0
  140.3540   74.4270  221.8810 C   0  0  0  0  0  0  0  0  0  0  0  0
  141.6020   74.3580  221.2590 C   0  0  0  0  0  0  0  0  0  0  0  0
  142.1084   75.2727  220.9171 H   0  0  0  0  0  0  0  0  0  0  0  0
  142.1980   73.1030  221.0780 C   0  0  0  0  0  0  0  0  0  0  0  0
  143.5200   72.9490  220.4190 C   0  0  0  0  0  0  0  0  0  0  0  0
  144.5990   73.7600  220.8130 C   0  0  0  0  0  0  0  0  0  0  0  0
  144.4658   74.5054  221.6109 H   0  0  0  0  0  0  0  0  0  0  0  0
  145.8400   73.6170  220.1890 C   0  0  0  0  0  0  0  0  0  0  0  0
  146.6872   74.2451  220.5015 H   0  0  0  0  0  0  0  0  0  0  0  0
  146.0030   72.7030  219.1960 N   0  0  0  0  0  0  0  0  0  0  0  0
  144.9790   71.9110  218.7840 C   0  0  0  0  0  0  0  0  0  0  0  0
  145.1404   71.1823  217.9760 H   0  0  0  0  0  0  0  0  0  0  0  0
  143.7220   72.0190  219.3830 C   0  0  0  0  0  0  0  0  0  0  0  0
  142.8930   71.3793  219.0460 H   0  0  0  0  0  0  0  0  0  0  0  0
  141.5310   71.9950  221.5000 N   0  0  0  0  0  0  0  0  0  0  0  0
  140.3150   72.0660  222.1020 C   0  0  0  0  0  0  0  0  0  0  0  0
  139.7450   70.9490  222.4640 N   0  0  0  0  0  0  0  0  0  0  0  0
  139.0420   70.5670  223.6980 C   0  0  1  0  0  0  0  0  0  0  0  0
  138.8526   71.5034  224.2432 H   0  0  0  0  0  0  0  0  0  0  0  0
  137.6680   69.9460  223.4130 C   0  0  0  0  0  0  0  0  0  0  0  0
  137.1642   69.7183  224.3639 H   0  0  0  0  0  0  0  0  0  0  0  0
  137.0575   70.6557  222.8354 H   0  0  0  0  0  0  0  0  0  0  0  0
  137.7973   69.0188  222.8354 H   0  0  0  0  0  0  0  0  0  0  0  0
  139.9050   69.7130  224.6540 C   0  0  0  0  0  0  0  0  0  0  0  0
  139.3542   68.7953  224.9079 H   0  0  0  0  0  0  0  0  0  0  0  0
  140.8505   69.4764  224.1441 H   0  0  0  0  0  0  0  0  0  0  0  0
  140.2290   70.4560  225.9250 C   0  0  0  0  0  0  0  0  0  0  0  0
  139.7390   69.9970  227.1600 C   0  0  0  0  0  0  0  0  0  0  0  0
  139.0918   69.1083  227.1971 H   0  0  0  0  0  0  0  0  0  0  0  0
  140.0720   70.6670  228.3420 C   0  0  0  0  0  0  0  0  0  0  0  0
  139.6838   70.3061  229.3059 H   0  0  0  0  0  0  0  0  0  0  0  0
  140.8970   71.7940  228.3000 C   0  0  0  0  0  0  0  0  0  0  0  0
  141.1568   72.3200  229.2305 H   0  0  0  0  0  0  0  0  0  0  0  0
  141.3920   72.2530  227.0770 C   0  0  0  0  0  0  0  0  0  0  0  0
  142.0406   73.1409  227.0454 H   0  0  0  0  0  0  0  0  0  0  0  0
  141.0640   71.5850  225.8920 C   0  0  0  0  0  0  0  0  0  0  0  0
  141.4613   71.9452  224.9316 H   0  0  0  0  0  0  0  0  0  0  0  0
  139.7350   73.2890  222.2940 N   0  0  0  0  0  0  0  0  0  0  0  0
  138.8090   73.3950  222.7510 H   0  0  0  0  0  0  0  0  0  0  0  0
  1  2  1  0
  2  3  1  0
  3  4  2  0
  4  5  1  0
  4  6  1  0
  6  7  1  0
  7  8  2  0
  8  9  1  0
  8 10  1  0
 10 11  1  0
 10 12  2  0
 12 13  1  0
 13 14  1  0
 13 15  2  0
 15 16  1  0
  6 17  2  0
 17 18  1  0
 18 19  2  0
 19 20  1  0
 20 21  1  1
 20 22  1  0
 22 23  1  0
 22 24  1  0
 22 25  1  0
 20 26  1  0
 26 27  1  0
 26 28  1  0
 26 29  1  0
 29 30  2  0
 30 31  1  0
 30 32  1  0
 32 33  1  0
 32 34  2  0
 34 35  1  0
 34 36  1  0
 36 37  1  0
 36 38  2  0
 38 39  1  0
 18 40  1  0
 40 41  1  0
 40  3  1  0
 15  7  1  0
 38 29  1  0
M  END
>  <UniqueID>  (12) 
5

>  <SMILES>  (12) 
C[C@@H](Cc1ccccc1)/N=c1/nc(-c2ccncc2)cc(O)[nH]1

>  <Energy>  (12) 
50.24427360299338

>  <Genealogy>  (12) 
CC(Cc1ccccc1)N=c1nc(-c2ccncc2)cc(O)[nH]1 (tautomer)
C[C@@H](Cc1ccccc1)N=c1nc(-c2ccncc2)cc(O)[nH]1 (chirality)
C[C@@H](Cc1ccccc1)/N=c1/nc(-c2ccncc2)cc(O)[nH]1 (cis-trans isomerization)
C[C@@H](Cc1ccccc1)/N=c1/nc(-c2ccncc2)cc(O)[nH]1 (3D coordinates assigned)
C[C@@H](Cc1ccccc1)/N=c1/nc(-c2ccncc2)cc(O)[nH]1 (optimized conformer: 50.24427360299338 kcal/mol)

>  <smiles>  (12) 
CC(Cc1ccccc1)N=c1[nH]c(-c2ccncc2)cc(=O)[nH]1

>  <score_type>  (12) 
oracle

>  <origin>  (12) 
autodockgpu

>  <m_score__min__energy>  (12) 
-7.7300000000000004

>  <m_primary>  (12) 
energy

>  <meeko>  (12) 
{"free_energy": -7.49, "intermolecular_energy": -9.28, "internal_energy": -0.69, "cluster_size": 16, "cluster_id": 1, "rank_in_cluster": 8}

>  <energy>  (12) 
-7.43

>  <cluster_rmsd>  (12) 
0.67

>  <rmsd>  (12) 
271.49

>  <cluster>  (12) 
1

$$$$
XBCCWEKCHRHPJI-FWUMSPEWNA-N
     RDKit          3D

 41 43  0  0  0  0  0  0  0  0999 V2000
  140.1720   76.8220  221.3750 H   0  0  0  0  0  0  0  0  0  0  0  0
  139.6820   75.9700  221.6230 O   0  0  0  0  0  0  0  0  0  0  0  0
  140.3310   74.7370  221.6530 C   0  0  0  0  0  0  0  0  0  0  0  0
  141.5770   74.5800  221.0430 C   0  0  0  0  0  0  0  0  0  0  0  0
  142.0608   75.4259  220.5328 H   0  0  0  0  0  0  0  0  0  0  0  0
  142.2000   73.3270  221.0920 C   0  0  0  0  0  0  0  0  0  0  0  0
  143.5220   73.0810  220.4590 C   0  0  0  0  0  0  0  0  0  0  0  0
  143.6530   72.0850  219.4760 C   0  0  0  0  0  0  0  0  0  0  0  0
  142.7781   71.4915  219.1722 H   0  0  0  0  0  0  0  0  0  0  0  0
  144.8970   71.8510  218.8860 C   0  0  0  0  0  0  0  0  0  0  0  0
  145.0002   71.0773  218.1109 H   0  0  0  0  0  0  0  0  0  0  0  0
  145.9810   72.5780  219.2680 N   0  0  0  0  0  0  0  0  0  0  0  0
  145.8910   73.5410  220.2220 C   0  0  0  0  0  0  0  0  0  0  0  0
  146.7859   74.1113  220.5118 H   0  0  0  0  0  0  0  0  0  0  0  0
  144.6650   73.8090  220.8360 C   0  0  0  0  0  0  0  0  0  0  0  0
  144.5938   74.5862  221.6112 H   0  0  0  0  0  0  0  0  0  0  0  0
  141.5610   72.3030  221.7190 N   0  0  0  0  0  0  0  0  0  0  0  0
  140.3470   72.4580  222.3100 C   0  0  0  0  0  0  0  0  0  0  0  0
  139.8060   71.4160  222.8790 N   0  0  0  0  0  0  0  0  0  0  0  0
  139.4880   71.1280  224.2860 C   0  0  1  0  0  0  0  0  0  0  0  0
  138.8882   71.9780  224.6433 H   0  0  0  0  0  0  0  0  0  0  0  0
  138.6060   69.8800  224.4360 C   0  0  0  0  0  0  0  0  0  0  0  0
  138.4539   69.6647  225.5040 H   0  0  0  0  0  0  0  0  0  0  0  0
  137.6327   70.0590  223.9558 H   0  0  0  0  0  0  0  0  0  0  0  0
  139.0996   69.0223  223.9558 H   0  0  0  0  0  0  0  0  0  0  0  0
  140.7320   71.1020  225.2010 C   0  0  0  0  0  0  0  0  0  0  0  0
  141.6179   70.8683  224.5922 H   0  0  0  0  0  0  0  0  0  0  0  0
  140.8301   72.0895  225.6756 H   0  0  0  0  0  0  0  0  0  0  0  0
  140.6000   70.0670  226.2900 C   0  0  0  0  0  0  0  0  0  0  0  0
  141.1430   68.7820  226.1180 C   0  0  0  0  0  0  0  0  0  0  0  0
  141.6413   68.5195  225.1731 H   0  0  0  0  0  0  0  0  0  0  0  0
  141.0520   67.8360  227.1440 C   0  0  0  0  0  0  0  0  0  0  0  0
  141.4751   66.8304  227.0033 H   0  0  0  0  0  0  0  0  0  0  0  0
  140.4240   68.1670  228.3480 C   0  0  0  0  0  0  0  0  0  0  0  0
  140.3523   67.4218  229.1540 H   0  0  0  0  0  0  0  0  0  0  0  0
  139.8870   69.4450  228.5280 C   0  0  0  0  0  0  0  0  0  0  0  0
  139.3928   69.7045  229.4759 H   0  0  0  0  0  0  0  0  0  0  0  0
  139.9770   70.3940  227.5050 C   0  0  0  0  0  0  0  0  0  0  0  0
  139.5582   71.4004  227.6527 H   0  0  0  0  0  0  0  0  0  0  0  0
  139.7410   73.6820  222.2770 N   0  0  0  0  0  0  0  0  0  0  0  0
  138.8160   73.8520  222.7160 H   0  0  0  0  0  0  0  0  0  0  0  0
  1  2  1  0
  2  3  1  0
  3  4  2  0
  4  5  1  0
  4  6  1  0
  6  7  1  0
  7  8  2  0
  8  9  1  0
  8 10  1  0
 10 11  1  0
 10 12  2  0
 12 13  1  0
 13 14  1  0
 13 15  2  0
 15 16  1  0
  6 17  2  0
 17 18  1  0
 18 19  2  0
 19 20  1  0
 20 21  1  1
 20 22  1  0
 22 23  1  0
 22 24  1  0
 22 25  1  0
 20 26  1  0
 26 27  1  0
 26 28  1  0
 26 29  1  0
 29 30  2  0
 30 31  1  0
 30 32  1  0
 32 33  1  0
 32 34  2  0
 34 35  1  0
 34 36  1  0
 36 37  1  0
 36 38  2  0
 38 39  1  0
 18 40  1  0
 40 41  1  0
 40  3  1  0
 15  7  1  0
 38 29  1  0
M  END
>  <UniqueID>  (13) 
5

>  <SMILES>  (13) 
C[C@@H](Cc1ccccc1)/N=c1/nc(-c2ccncc2)cc(O)[nH]1

>  <Energy>  (13) 
50.24427360299338

>  <Genealogy>  (13) 
CC(Cc1ccccc1)N=c1nc(-c2ccncc2)cc(O)[nH]1 (tautomer)
C[C@@H](Cc1ccccc1)N=c1nc(-c2ccncc2)cc(O)[nH]1 (chirality)
C[C@@H](Cc1ccccc1)/N=c1/nc(-c2ccncc2)cc(O)[nH]1 (cis-trans isomerization)
C[C@@H](Cc1ccccc1)/N=c1/nc(-c2ccncc2)cc(O)[nH]1 (3D coordinates assigned)
C[C@@H](Cc1ccccc1)/N=c1/nc(-c2ccncc2)cc(O)[nH]1 (optimized conformer: 50.24427360299338 kcal/mol)

>  <smiles>  (13) 
CC(Cc1ccccc1)N=c1[nH]c(-c2ccncc2)cc(=O)[nH]1

>  <score_type>  (13) 
oracle

>  <origin>  (13) 
autodockgpu

>  <m_score__min__energy>  (13) 
-7.7300000000000004

>  <m_primary>  (13) 
energy

>  <meeko>  (13) 
{"free_energy": -7.52, "intermolecular_energy": -9.31, "internal_energy": -0.56, "cluster_size": 16, "cluster_id": 1, "rank_in_cluster": 6}

>  <energy>  (13) 
-7.43

>  <cluster_rmsd>  (13) 
1.05

>  <rmsd>  (13) 
271.48

>  <cluster>  (13) 
1

$$$$
XBCCWEKCHRHPJI-FWUMSPEWNA-N
     RDKit          3D

 41 43  0  0  0  0  0  0  0  0999 V2000
  139.4350   73.4640  223.1100 H   0  0  0  0  0  0  0  0  0  0  0  0
  139.9570   73.8770  222.3460 O   0  0  0  0  0  0  0  0  0  0  0  0
  139.8630   75.2350  222.0470 C   0  0  0  0  0  0  0  0  0  0  0  0
  140.6820   75.8000  221.0680 C   0  0  0  0  0  0  0  0  0  0  0  0
  141.4097   75.1817  220.5220 H   0  0  0  0  0  0  0  0  0  0  0  0
  140.5610   77.1680  220.7930 C   0  0  0  0  0  0  0  0  0  0  0  0
  141.4020   77.8430  219.7710 C   0  0  0  0  0  0  0  0  0  0  0  0
  141.4060   79.2450  219.6820 C   0  0  0  0  0  0  0  0  0  0  0  0
  140.7906   79.8433  220.3700 H   0  0  0  0  0  0  0  0  0  0  0  0
  142.1940   79.8770  218.7170 C   0  0  0  0  0  0  0  0  0  0  0  0
  142.2049   80.9750  218.6508 H   0  0  0  0  0  0  0  0  0  0  0  0
  142.9470   79.1390  217.8600 N   0  0  0  0  0  0  0  0  0  0  0  0
  142.9590   77.7810  217.9120 C   0  0  0  0  0  0  0  0  0  0  0  0
  143.5773   77.2101  217.2037 H   0  0  0  0  0  0  0  0  0  0  0  0
  142.1870   77.1080  218.8640 C   0  0  0  0  0  0  0  0  0  0  0  0
  142.1935   76.0087  218.9035 H   0  0  0  0  0  0  0  0  0  0  0  0
  139.6600   77.9010  221.5030 N   0  0  0  0  0  0  0  0  0  0  0  0
  138.8660   77.3480  222.4570 C   0  0  0  0  0  0  0  0  0  0  0  0
  138.0390   78.1310  223.0940 N   0  0  0  0  0  0  0  0  0  0  0  0
  137.8870   79.5940  223.0970 C   0  0  1  0  0  0  0  0  0  0  0  0
  138.2063   79.9363  222.1016 H   0  0  0  0  0  0  0  0  0  0  0  0
  136.4220   80.0230  223.2540 C   0  0  0  0  0  0  0  0  0  0  0  0
  136.1738   80.0957  224.3232 H   0  0  0  0  0  0  0  0  0  0  0  0
  136.2734   81.0024  222.7757 H   0  0  0  0  0  0  0  0  0  0  0  0
  135.7686   79.2785  222.7757 H   0  0  0  0  0  0  0  0  0  0  0  0
  138.8340   80.3040  224.0900 C   0  0  0  0  0  0  0  0  0  0  0  0
  138.5240   81.3547  224.1896 H   0  0  0  0  0  0  0  0  0  0  0  0
  138.7723   79.7825  225.0566 H   0  0  0  0  0  0  0  0  0  0  0  0
  140.2660   80.2590  223.6210 C   0  0  0  0  0  0  0  0  0  0  0  0
  141.0830   79.1600  223.9380 C   0  0  0  0  0  0  0  0  0  0  0  0
  140.6853   78.3418  224.5564 H   0  0  0  0  0  0  0  0  0  0  0  0
  142.4000   79.1030  223.4700 C   0  0  0  0  0  0  0  0  0  0  0  0
  143.0364   78.2423  223.7235 H   0  0  0  0  0  0  0  0  0  0  0  0
  142.9080   80.1380  222.6810 C   0  0  0  0  0  0  0  0  0  0  0  0
  143.9445   80.0926  222.3154 H   0  0  0  0  0  0  0  0  0  0  0  0
  142.1000   81.2310  222.3560 C   0  0  0  0  0  0  0  0  0  0  0  0
  142.5012   82.0451  221.7345 H   0  0  0  0  0  0  0  0  0  0  0  0
  140.7820   81.2910  222.8200 C   0  0  0  0  0  0  0  0  0  0  0  0
  140.1470   82.1497  222.5566 H   0  0  0  0  0  0  0  0  0  0  0  0
  138.9710   76.0110  222.7200 N   0  0  0  0  0  0  0  0  0  0  0  0
  138.3850   75.5420  223.4370 H   0  0  0  0  0  0  0  0  0  0  0  0
  1  2  1  0
  2  3  1  0
  3  4  2  0
  4  5  1  0
  4  6  1  0
  6  7  1  0
  7  8  2  0
  8  9  1  0
  8 10  1  0
 10 11  1  0
 10 12  2  0
 12 13  1  0
 13 14  1  0
 13 15  2  0
 15 16  1  0
  6 17  2  0
 17 18  1  0
 18 19  2  0
 19 20  1  0
 20 21  1  6
 20 22  1  0
 22 23  1  0
 22 24  1  0
 22 25  1  0
 20 26  1  0
 26 27  1  0
 26 28  1  0
 26 29  1  0
 29 30  2  0
 30 31  1  0
 30 32  1  0
 32 33  1  0
 32 34  2  0
 34 35  1  0
 34 36  1  0
 36 37  1  0
 36 38  2  0
 38 39  1  0
 18 40  1  0
 40 41  1  0
 40  3  1  0
 15  7  1  0
 38 29  1  0
M  END
>  <UniqueID>  (14) 
5

>  <SMILES>  (14) 
C[C@@H](Cc1ccccc1)/N=c1/nc(-c2ccncc2)cc(O)[nH]1

>  <Energy>  (14) 
50.24427360299338

>  <Genealogy>  (14) 
CC(Cc1ccccc1)N=c1nc(-c2ccncc2)cc(O)[nH]1 (tautomer)
C[C@@H](Cc1ccccc1)N=c1nc(-c2ccncc2)cc(O)[nH]1 (chirality)
C[C@@H](Cc1ccccc1)/N=c1/nc(-c2ccncc2)cc(O)[nH]1 (cis-trans isomerization)
C[C@@H](Cc1ccccc1)/N=c1/nc(-c2ccncc2)cc(O)[nH]1 (3D coordinates assigned)
C[C@@H](Cc1ccccc1)/N=c1/nc(-c2ccncc2)cc(O)[nH]1 (optimized conformer: 50.24427360299338 kcal/mol)

>  <smiles>  (14) 
CC(Cc1ccccc1)N=c1[nH]c(-c2ccncc2)cc(=O)[nH]1

>  <score_type>  (14) 
oracle

>  <origin>  (14) 
autodockgpu

>  <m_score__min__energy>  (14) 
-7.7300000000000004

>  <m_primary>  (14) 
energy

>  <meeko>  (14) 
{"free_energy": -6.39, "intermolecular_energy": -8.18, "internal_energy": -1.49, "cluster_size": 1, "cluster_id": 4, "rank_in_cluster": 1}

>  <energy>  (14) 
-7.42

>  <cluster_rmsd>  (14) 
0.62

>  <rmsd>  (14) 
271.48

>  <cluster>  (14) 
1

$$$$
XBCCWEKCHRHPJI-FWUMSPEWNA-N
     RDKit          3D

 41 43  0  0  0  0  0  0  0  0999 V2000
  140.3500   77.4240  221.3450 H   0  0  0  0  0  0  0  0  0  0  0  0
  140.0860   76.6630  221.9590 O   0  0  0  0  0  0  0  0  0  0  0  0
  140.5800   75.3720  221.7770 C   0  0  0  0  0  0  0  0  0  0  0  0
  141.7940   75.1670  221.1200 C   0  0  0  0  0  0  0  0  0  0  0  0
  142.3749   76.0199  220.7390 H   0  0  0  0  0  0  0  0  0  0  0  0
  142.2600   73.8570  220.9540 C   0  0  0  0  0  0  0  0  0  0  0  0
  143.5390   73.5590  220.2600 C   0  0  0  0  0  0  0  0  0  0  0  0
  144.7250   73.4240  221.0030 C   0  0  0  0  0  0  0  0  0  0  0  0
  144.7060   73.5347  222.0973 H   0  0  0  0  0  0  0  0  0  0  0  0
  145.9270   73.1490  220.3480 C   0  0  0  0  0  0  0  0  0  0  0  0
  146.8544   73.0348  220.9284 H   0  0  0  0  0  0  0  0  0  0  0  0
  145.9540   73.0220  218.9950 N   0  0  0  0  0  0  0  0  0  0  0  0
  144.8290   73.1570  218.2460 C   0  0  0  0  0  0  0  0  0  0  0  0
  144.8822   73.0512  217.1524 H   0  0  0  0  0  0  0  0  0  0  0  0
  143.6040   73.4300  218.8610 C   0  0  0  0  0  0  0  0  0  0  0  0
  142.6942   73.5435  218.2532 H   0  0  0  0  0  0  0  0  0  0  0  0
  141.5030   72.8290  221.4250 N   0  0  0  0  0  0  0  0  0  0  0  0
  140.3200   73.0310  222.0620 C   0  0  0  0  0  0  0  0  0  0  0  0
  139.6570   71.9840  222.4700 N   0  0  0  0  0  0  0  0  0  0  0  0
  139.5520   71.3510  223.7930 C   0  0  1  0  0  0  0  0  0  0  0  0
  139.0214   72.0707  224.4337 H   0  0  0  0  0  0  0  0  0  0  0  0
  138.6910   70.0810  223.7600 C   0  0  0  0  0  0  0  0  0  0  0  0
  138.4728   69.7591  224.7890 H   0  0  0  0  0  0  0  0  0  0  0  0
  137.7481   70.2908  223.2337 H   0  0  0  0  0  0  0  0  0  0  0  0
  139.2349   69.2828  223.2337 H   0  0  0  0  0  0  0  0  0  0  0  0
  140.9200   71.1350  224.4780 C   0  0  0  0  0  0  0  0  0  0  0  0
  141.5286   70.4629  223.8552 H   0  0  0  0  0  0  0  0  0  0  0  0
  141.4063   72.1152  224.5905 H   0  0  0  0  0  0  0  0  0  0  0  0
  140.7660   70.5260  225.8480 C   0  0  0  0  0  0  0  0  0  0  0  0
  140.7940   69.1310  226.0120 C   0  0  0  0  0  0  0  0  0  0  0  0
  140.8988   68.4776  225.1333 H   0  0  0  0  0  0  0  0  0  0  0  0
  140.6890   68.5700  227.2900 C   0  0  0  0  0  0  0  0  0  0  0  0
  140.7081   67.4771  227.4133 H   0  0  0  0  0  0  0  0  0  0  0  0
  140.5600   69.3960  228.4090 C   0  0  0  0  0  0  0  0  0  0  0  0
  140.4757   68.9533  229.4124 H   0  0  0  0  0  0  0  0  0  0  0  0
  140.5380   70.7850  228.2540 C   0  0  0  0  0  0  0  0  0  0  0  0
  140.4372   71.4346  229.1360 H   0  0  0  0  0  0  0  0  0  0  0  0
  140.6440   71.3500  226.9790 C   0  0  0  0  0  0  0  0  0  0  0  0
  140.6318   72.4436  226.8615 H   0  0  0  0  0  0  0  0  0  0  0  0
  139.8670   74.3090  222.2380 N   0  0  0  0  0  0  0  0  0  0  0  0
  138.9710   74.5160  222.7200 H   0  0  0  0  0  0  0  0  0  0  0  0
  1  2  1  0
  2  3  1  0
  3  4  2  0
  4  5  1  0
  4  6  1  0
  6  7  1  0
  7  8  2  0
  8  9  1  0
  8 10  1  0
 10 11  1  0
 10 12  2  0
 12 13  1  0
 13 14  1  0
 13 15  2  0
 15 16  1  0
  6 17  2  0
 17 18  1  0
 18 19  2  0
 19 20  1  0
 20 21  1  1
 20 22  1  0
 22 23  1  0
 22 24  1  0
 22 25  1  0
 20 26  1  0
 26 27  1  0
 26 28  1  0
 26 29  1  0
 29 30  2  0
 30 31  1  0
 30 32  1  0
 32 33  1  0
 32 34  2  0
 34 35  1  0
 34 36  1  0
 36 37  1  0
 36 38  2  0
 38 39  1  0
 18 40  1  0
 40 41  1  0
 40  3  1  0
 15  7  1  0
 38 29  1  0
M  END
>  <UniqueID>  (15) 
5

>  <SMILES>  (15) 
C[C@@H](Cc1ccccc1)/N=c1/nc(-c2ccncc2)cc(O)[nH]1

>  <Energy>  (15) 
50.24427360299338

>  <Genealogy>  (15) 
CC(Cc1ccccc1)N=c1nc(-c2ccncc2)cc(O)[nH]1 (tautomer)
C[C@@H](Cc1ccccc1)N=c1nc(-c2ccncc2)cc(O)[nH]1 (chirality)
C[C@@H](Cc1ccccc1)/N=c1/nc(-c2ccncc2)cc(O)[nH]1 (cis-trans isomerization)
C[C@@H](Cc1ccccc1)/N=c1/nc(-c2ccncc2)cc(O)[nH]1 (3D coordinates assigned)
C[C@@H](Cc1ccccc1)/N=c1/nc(-c2ccncc2)cc(O)[nH]1 (optimized conformer: 50.24427360299338 kcal/mol)

>  <smiles>  (15) 
CC(Cc1ccccc1)N=c1[nH]c(-c2ccncc2)cc(=O)[nH]1

>  <score_type>  (15) 
oracle

>  <origin>  (15) 
autodockgpu

>  <m_score__min__energy>  (15) 
-7.7300000000000004

>  <m_primary>  (15) 
energy

>  <meeko>  (15) 
{"free_energy": -7.32, "intermolecular_energy": -9.11, "internal_energy": -0.58, "cluster_size": 16, "cluster_id": 1, "rank_in_cluster": 16}

>  <energy>  (15) 
-7.37

>  <cluster_rmsd>  (15) 
0.79

>  <rmsd>  (15) 
271.6

>  <cluster>  (15) 
1

$$$$
XBCCWEKCHRHPJI-FWUMSPEWNA-N
     RDKit          3D

 41 43  0  0  0  0  0  0  0  0999 V2000
  140.2880   76.7640  221.4220 H   0  0  0  0  0  0  0  0  0  0  0  0
  139.9230   75.9090  221.8260 O   0  0  0  0  0  0  0  0  0  0  0  0
  140.5970   74.6950  221.6980 C   0  0  0  0  0  0  0  0  0  0  0  0
  141.8210   74.6350  221.0290 C   0  0  0  0  0  0  0  0  0  0  0  0
  142.2674   75.5421  220.5955 H   0  0  0  0  0  0  0  0  0  0  0  0
  142.4700   73.3990  220.9200 C   0  0  0  0  0  0  0  0  0  0  0  0
  143.7700   73.2540  220.2160 C   0  0  0  0  0  0  0  0  0  0  0  0
  144.9700   73.5170  220.8990 C   0  0  0  0  0  0  0  0  0  0  0  0
  144.9475   73.8260  221.9545 H   0  0  0  0  0  0  0  0  0  0  0  0
  146.1910   73.3850  220.2340 C   0  0  0  0  0  0  0  0  0  0  0  0
  147.1315   73.5826  220.7692 H   0  0  0  0  0  0  0  0  0  0  0  0
  146.2200   73.0130  218.9270 N   0  0  0  0  0  0  0  0  0  0  0  0
  145.0790   72.7600  218.2340 C   0  0  0  0  0  0  0  0  0  0  0  0
  145.1337   72.4617  217.1766 H   0  0  0  0  0  0  0  0  0  0  0  0
  143.8360   72.8780  218.8620 C   0  0  0  0  0  0  0  0  0  0  0  0
  142.9123   72.6775  218.2994 H   0  0  0  0  0  0  0  0  0  0  0  0
  141.8770   72.2980  221.4560 N   0  0  0  0  0  0  0  0  0  0  0  0
  140.6850   72.3600  222.1050 C   0  0  0  0  0  0  0  0  0  0  0  0
  140.1870   71.2510  222.5790 N   0  0  0  0  0  0  0  0  0  0  0  0
  139.1760   71.0000  223.6170 C   0  0  1  0  0  0  0  0  0  0  0  0
  139.1148   71.9231  224.2120 H   0  0  0  0  0  0  0  0  0  0  0  0
  137.7800   70.7730  223.0220 C   0  0  0  0  0  0  0  0  0  0  0  0
  137.0495   70.6542  223.8358 H   0  0  0  0  0  0  0  0  0  0  0  0
  137.5007   71.6375  222.4018 H   0  0  0  0  0  0  0  0  0  0  0  0
  137.7890   69.8645  222.4018 H   0  0  0  0  0  0  0  0  0  0  0  0
  139.5900   69.9010  224.6210 C   0  0  0  0  0  0  0  0  0  0  0  0
  138.7088   69.2889  224.8633 H   0  0  0  0  0  0  0  0  0  0  0  0
  140.3777   69.2900  224.1561 H   0  0  0  0  0  0  0  0  0  0  0  0
  140.1410   70.4900  225.8940 C   0  0  0  0  0  0  0  0  0  0  0  0
  140.9580   71.6330  225.8530 C   0  0  0  0  0  0  0  0  0  0  0  0
  141.2225   72.0834  224.8849 H   0  0  0  0  0  0  0  0  0  0  0  0
  141.4360   72.2000  227.0400 C   0  0  0  0  0  0  0  0  0  0  0  0
  142.0779   73.0925  227.0030 H   0  0  0  0  0  0  0  0  0  0  0  0
  141.0990   71.6340  228.2710 C   0  0  0  0  0  0  0  0  0  0  0  0
  141.4760   72.0809  229.2027 H   0  0  0  0  0  0  0  0  0  0  0  0
  140.2830   70.5000  228.3210 C   0  0  0  0  0  0  0  0  0  0  0  0
  140.0199   70.0542  229.2916 H   0  0  0  0  0  0  0  0  0  0  0  0
  139.8010   69.9320  227.1370 C   0  0  0  0  0  0  0  0  0  0  0  0
  139.1528   69.0443  227.1798 H   0  0  0  0  0  0  0  0  0  0  0  0
  140.0530   73.5660  222.2270 N   0  0  0  0  0  0  0  0  0  0  0  0
  139.1430   73.6660  222.7150 H   0  0  0  0  0  0  0  0  0  0  0  0
  1  2  1  0
  2  3  1  0
  3  4  2  0
  4  5  1  0
  4  6  1  0
  6  7  1  0
  7  8  2  0
  8  9  1  0
  8 10  1  0
 10 11  1  0
 10 12  2  0
 12 13  1  0
 13 14  1  0
 13 15  2  0
 15 16  1  0
  6 17  2  0
 17 18  1  0
 18 19  2  0
 19 20  1  0
 20 21  1  1
 20 22  1  0
 22 23  1  0
 22 24  1  0
 22 25  1  0
 20 26  1  0
 26 27  1  0
 26 28  1  0
 26 29  1  0
 29 30  2  0
 30 31  1  0
 30 32  1  0
 32 33  1  0
 32 34  2  0
 34 35  1  0
 34 36  1  0
 36 37  1  0
 36 38  2  0
 38 39  1  0
 18 40  1  0
 40 41  1  0
 40  3  1  0
 15  7  1  0
 38 29  1  0
M  END
>  <UniqueID>  (16) 
5

>  <SMILES>  (16) 
C[C@@H](Cc1ccccc1)/N=c1/nc(-c2ccncc2)cc(O)[nH]1

>  <Energy>  (16) 
50.24427360299338

>  <Genealogy>  (16) 
CC(Cc1ccccc1)N=c1nc(-c2ccncc2)cc(O)[nH]1 (tautomer)
C[C@@H](Cc1ccccc1)N=c1nc(-c2ccncc2)cc(O)[nH]1 (chirality)
C[C@@H](Cc1ccccc1)/N=c1/nc(-c2ccncc2)cc(O)[nH]1 (cis-trans isomerization)
C[C@@H](Cc1ccccc1)/N=c1/nc(-c2ccncc2)cc(O)[nH]1 (3D coordinates assigned)
C[C@@H](Cc1ccccc1)/N=c1/nc(-c2ccncc2)cc(O)[nH]1 (optimized conformer: 50.24427360299338 kcal/mol)

>  <smiles>  (16) 
CC(Cc1ccccc1)N=c1[nH]c(-c2ccncc2)cc(=O)[nH]1

>  <score_type>  (16) 
oracle

>  <origin>  (16) 
autodockgpu

>  <m_score__min__energy>  (16) 
-7.7300000000000004

>  <m_primary>  (16) 
energy

>  <meeko>  (16) 
{"free_energy": -7.47, "intermolecular_energy": -9.26, "internal_energy": -0.65, "cluster_size": 16, "cluster_id": 1, "rank_in_cluster": 10}

>  <energy>  (16) 
-7.32

>  <cluster_rmsd>  (16) 
1.39

>  <rmsd>  (16) 
271.6

>  <cluster>  (16) 
1

$$$$
XBCCWEKCHRHPJI-FWUMSPEWNA-N
     RDKit          3D

 41 43  0  0  0  0  0  0  0  0999 V2000
  139.8770   76.4840  221.4080 H   0  0  0  0  0  0  0  0  0  0  0  0
  139.7200   75.7100  222.0440 O   0  0  0  0  0  0  0  0  0  0  0  0
  140.3350   74.4740  221.8570 C   0  0  0  0  0  0  0  0  0  0  0  0
  141.5880   74.3950  221.2470 C   0  0  0  0  0  0  0  0  0  0  0  0
  142.1033   75.3055  220.9072 H   0  0  0  0  0  0  0  0  0  0  0  0
  142.1780   73.1360  221.0750 C   0  0  0  0  0  0  0  0  0  0  0  0
  143.5050   72.9710  220.4280 C   0  0  0  0  0  0  0  0  0  0  0  0
  143.6980   71.9550  219.4760 C   0  0  0  0  0  0  0  0  0  0  0  0
  142.8675   71.2856  219.2074 H   0  0  0  0  0  0  0  0  0  0  0  0
  144.9480   71.7980  218.8720 C   0  0  0  0  0  0  0  0  0  0  0  0
  145.0991   71.0091  218.1204 H   0  0  0  0  0  0  0  0  0  0  0  0
  145.9780   72.6180  219.2110 N   0  0  0  0  0  0  0  0  0  0  0  0
  145.8280   73.6030  220.1350 C   0  0  0  0  0  0  0  0  0  0  0  0
  146.6804   74.2494  220.3909 H   0  0  0  0  0  0  0  0  0  0  0  0
  144.5940   73.7970  220.7610 C   0  0  0  0  0  0  0  0  0  0  0  0
  144.4745   74.5925  221.5113 H   0  0  0  0  0  0  0  0  0  0  0  0
  141.4990   72.0330  221.4940 N   0  0  0  0  0  0  0  0  0  0  0  0
  140.2780   72.1130  222.0850 C   0  0  0  0  0  0  0  0  0  0  0  0
  139.6980   71.0010  222.4440 N   0  0  0  0  0  0  0  0  0  0  0  0
  139.1720   70.5510  223.7420 C   0  0  1  0  0  0  0  0  0  0  0  0
  138.9307   71.4634  224.3071 H   0  0  0  0  0  0  0  0  0  0  0  0
  137.8580   69.7710  223.5940 C   0  0  0  0  0  0  0  0  0  0  0  0
  137.4582   69.5337  224.5909 H   0  0  0  0  0  0  0  0  0  0  0  0
  137.1287   70.3826  223.0425 H   0  0  0  0  0  0  0  0  0  0  0  0
  138.0456   68.8379  223.0425 H   0  0  0  0  0  0  0  0  0  0  0  0
  140.2200   69.8110  224.6020 C   0  0  0  0  0  0  0  0  0  0  0  0
  139.8638   68.7888  224.7973 H   0  0  0  0  0  0  0  0  0  0  0  0
  141.1707   69.7972  224.0489 H   0  0  0  0  0  0  0  0  0  0  0  0
  140.4510   70.5080  225.9180 C   0  0  0  0  0  0  0  0  0  0  0  0
  141.2630   71.6540  225.9820 C   0  0  0  0  0  0  0  0  0  0  0  0
  141.7568   72.0274  225.0727 H   0  0  0  0  0  0  0  0  0  0  0  0
  141.4450   72.3210  227.1980 C   0  0  0  0  0  0  0  0  0  0  0  0
  142.0832   73.2158  227.2436 H   0  0  0  0  0  0  0  0  0  0  0  0
  140.8170   71.8520  228.3550 C   0  0  0  0  0  0  0  0  0  0  0  0
  140.9629   72.3768  229.3106 H   0  0  0  0  0  0  0  0  0  0  0  0
  140.0040   70.7170  228.2990 C   0  0  0  0  0  0  0  0  0  0  0  0
  139.5105   70.3490  229.2106 H   0  0  0  0  0  0  0  0  0  0  0  0
  139.8170   70.0480  227.0840 C   0  0  0  0  0  0  0  0  0  0  0  0
  139.1711   69.1586  227.0420 H   0  0  0  0  0  0  0  0  0  0  0  0
  139.7050   73.3400  222.2670 N   0  0  0  0  0  0  0  0  0  0  0  0
  138.7760   73.4540  222.7160 H   0  0  0  0  0  0  0  0  0  0  0  0
  1  2  1  0
  2  3  1  0
  3  4  2  0
  4  5  1  0
  4  6  1  0
  6  7  1  0
  7  8  2  0
  8  9  1  0
  8 10  1  0
 10 11  1  0
 10 12  2  0
 12 13  1  0
 13 14  1  0
 13 15  2  0
 15 16  1  0
  6 17  2  0
 17 18  1  0
 18 19  2  0
 19 20  1  0
 20 21  1  1
 20 22  1  0
 22 23  1  0
 22 24  1  0
 22 25  1  0
 20 26  1  0
 26 27  1  0
 26 28  1  0
 26 29  1  0
 29 30  2  0
 30 31  1  0
 30 32  1  0
 32 33  1  0
 32 34  2  0
 34 35  1  0
 34 36  1  0
 36 37  1  0
 36 38  2  0
 38 39  1  0
 18 40  1  0
 40 41  1  0
 40  3  1  0
 15  7  1  0
 38 29  1  0
M  END
>  <UniqueID>  (17) 
5

>  <SMILES>  (17) 
C[C@@H](Cc1ccccc1)/N=c1/nc(-c2ccncc2)cc(O)[nH]1

>  <Energy>  (17) 
50.24427360299338

>  <Genealogy>  (17) 
CC(Cc1ccccc1)N=c1nc(-c2ccncc2)cc(O)[nH]1 (tautomer)
C[C@@H](Cc1ccccc1)N=c1nc(-c2ccncc2)cc(O)[nH]1 (chirality)
C[C@@H](Cc1ccccc1)/N=c1/nc(-c2ccncc2)cc(O)[nH]1 (cis-trans isomerization)
C[C@@H](Cc1ccccc1)/N=c1/nc(-c2ccncc2)cc(O)[nH]1 (3D coordinates assigned)
C[C@@H](Cc1ccccc1)/N=c1/nc(-c2ccncc2)cc(O)[nH]1 (optimized conformer: 50.24427360299338 kcal/mol)

>  <smiles>  (17) 
CC(Cc1ccccc1)N=c1[nH]c(-c2ccncc2)cc(=O)[nH]1

>  <score_type>  (17) 
oracle

>  <origin>  (17) 
autodockgpu

>  <m_score__min__energy>  (17) 
-7.7300000000000004

>  <m_primary>  (17) 
energy

>  <meeko>  (17) 
{"free_energy": -7.43, "intermolecular_energy": -9.22, "internal_energy": -0.7, "cluster_size": 16, "cluster_id": 1, "rank_in_cluster": 12}

>  <energy>  (17) 
-6.99

>  <cluster_rmsd>  (17) 
0.0

>  <rmsd>  (17) 
271.38

>  <cluster>  (17) 
2

$$$$
XBCCWEKCHRHPJI-FWUMSPEWNA-N
     RDKit          3D

 41 43  0  0  0  0  0  0  0  0999 V2000
  139.5580   74.1540  222.6850 H   0  0  0  0  0  0  0  0  0  0  0  0
  139.6710   75.1250  222.4170 O   0  0  0  0  0  0  0  0  0  0  0  0
  140.5900   75.5120  221.4430 C   0  0  0  0  0  0  0  0  0  0  0  0
  141.7080   74.7210  221.1740 C   0  0  0  0  0  0  0  0  0  0  0  0
  141.8769   73.7847  221.7261 H   0  0  0  0  0  0  0  0  0  0  0  0
  142.6110   75.1400  220.1890 C   0  0  0  0  0  0  0  0  0  0  0  0
  143.8270   74.3550  219.8530 C   0  0  0  0  0  0  0  0  0  0  0  0
  144.8100   74.1320  220.8320 C   0  0  0  0  0  0  0  0  0  0  0  0
  144.6781   74.5336  221.8475 H   0  0  0  0  0  0  0  0  0  0  0  0
  145.9550   73.3990  220.5120 C   0  0  0  0  0  0  0  0  0  0  0  0
  146.7218   73.2165  221.2792 H   0  0  0  0  0  0  0  0  0  0  0  0
  146.1240   72.9110  219.2560 N   0  0  0  0  0  0  0  0  0  0  0  0
  145.1990   73.1160  218.2820 C   0  0  0  0  0  0  0  0  0  0  0  0
  145.3646   72.7092  217.2735 H   0  0  0  0  0  0  0  0  0  0  0  0
  144.0370   73.8430  218.5590 C   0  0  0  0  0  0  0  0  0  0  0  0
  143.2906   74.0139  217.7692 H   0  0  0  0  0  0  0  0  0  0  0  0
  142.3740   76.3120  219.5410 N   0  0  0  0  0  0  0  0  0  0  0  0
  141.2870   77.0820  219.8070 C   0  0  0  0  0  0  0  0  0  0  0  0
  141.1480   78.1960  219.1420 N   0  0  0  0  0  0  0  0  0  0  0  0
  141.9470   79.4310  219.1300 C   0  0  1  0  0  0  0  0  0  0  0  0
  142.9252   79.1657  219.5575 H   0  0  0  0  0  0  0  0  0  0  0  0
  142.2180   79.9310  217.7050 C   0  0  0  0  0  0  0  0  0  0  0  0
  142.7417   80.8973  217.7489 H   0  0  0  0  0  0  0  0  0  0  0  0
  142.8429   79.1991  217.1722 H   0  0  0  0  0  0  0  0  0  0  0  0
  141.2637   80.0550  217.1722 H   0  0  0  0  0  0  0  0  0  0  0  0
  141.3870   80.5300  220.0600 C   0  0  0  0  0  0  0  0  0  0  0  0
  141.9402   81.4640  219.8820 H   0  0  0  0  0  0  0  0  0  0  0  0
  140.3176   80.6574  219.8361 H   0  0  0  0  0  0  0  0  0  0  0  0
  141.5220   80.1510  221.5130 C   0  0  0  0  0  0  0  0  0  0  0  0
  140.5250   79.3850  222.1410 C   0  0  0  0  0  0  0  0  0  0  0  0
  139.6280   79.0857  221.5790 H   0  0  0  0  0  0  0  0  0  0  0  0
  140.6700   79.0020  223.4790 C   0  0  0  0  0  0  0  0  0  0  0  0
  139.8863   78.4046  223.9677 H   0  0  0  0  0  0  0  0  0  0  0  0
  141.8100   79.3780  224.1950 C   0  0  0  0  0  0  0  0  0  0  0  0
  141.9223   79.0768  225.2470 H   0  0  0  0  0  0  0  0  0  0  0  0
  142.8070   80.1360  223.5760 C   0  0  0  0  0  0  0  0  0  0  0  0
  143.7030   80.4319  224.1414 H   0  0  0  0  0  0  0  0  0  0  0  0
  142.6670   80.5190  222.2380 C   0  0  0  0  0  0  0  0  0  0  0  0
  143.4567   81.1106  221.7519 H   0  0  0  0  0  0  0  0  0  0  0  0
  140.3950   76.6710  220.7580 N   0  0  0  0  0  0  0  0  0  0  0  0
  139.5480   77.2210  220.9950 H   0  0  0  0  0  0  0  0  0  0  0  0
  1  2  1  0
  2  3  1  0
  3  4  2  0
  4  5  1  0
  4  6  1  0
  6  7  1  0
  7  8  2  0
  8  9  1  0
  8 10  1  0
 10 11  1  0
 10 12  2  0
 12 13  1  0
 13 14  1  0
 13 15  2  0
 15 16  1  0
  6 17  2  0
 17 18  1  0
 18 19  2  0
 19 20  1  0
 20 21  1  1
 20 22  1  0
 22 23  1  0
 22 24  1  0
 22 25  1  0
 20 26  1  0
 26 27  1  0
 26 28  1  0
 26 29  1  0
 29 30  2  0
 30 31  1  0
 30 32  1  0
 32 33  1  0
 32 34  2  0
 34 35  1  0
 34 36  1  0
 36 37  1  0
 36 38  2  0
 38 39  1  0
 18 40  1  0
 40 41  1  0
 40  3  1  0
 15  7  1  0
 38 29  1  0
M  END
>  <UniqueID>  (18) 
5

>  <SMILES>  (18) 
C[C@@H](Cc1ccccc1)/N=c1/nc(-c2ccncc2)cc(O)[nH]1

>  <Energy>  (18) 
50.24427360299338

>  <Genealogy>  (18) 
CC(Cc1ccccc1)N=c1nc(-c2ccncc2)cc(O)[nH]1 (tautomer)
C[C@@H](Cc1ccccc1)N=c1nc(-c2ccncc2)cc(O)[nH]1 (chirality)
C[C@@H](Cc1ccccc1)/N=c1/nc(-c2ccncc2)cc(O)[nH]1 (cis-trans isomerization)
C[C@@H](Cc1ccccc1)/N=c1/nc(-c2ccncc2)cc(O)[nH]1 (3D coordinates assigned)
C[C@@H](Cc1ccccc1)/N=c1/nc(-c2ccncc2)cc(O)[nH]1 (optimized conformer: 50.24427360299338 kcal/mol)

>  <smiles>  (18) 
CC(Cc1ccccc1)N=c1[nH]c(-c2ccncc2)cc(=O)[nH]1

>  <score_type>  (18) 
oracle

>  <origin>  (18) 
autodockgpu

>  <m_score__min__energy>  (18) 
-7.7300000000000004

>  <m_primary>  (18) 
energy

>  <meeko>  (18) 
{"free_energy": -6.67, "intermolecular_energy": -8.46, "internal_energy": -0.98, "cluster_size": 2, "cluster_id": 2, "rank_in_cluster": 2}

>  <energy>  (18) 
-6.67

>  <cluster_rmsd>  (18) 
0.55

>  <rmsd>  (18) 
271.39

>  <cluster>  (18) 
2

$$$$
XBCCWEKCHRHPJI-FWUMSPEWNA-N
     RDKit          3D

 41 43  0  0  0  0  0  0  0  0999 V2000
  138.9450   75.2780  223.0700 H   0  0  0  0  0  0  0  0  0  0  0  0
  139.5480   75.1360  222.2680 O   0  0  0  0  0  0  0  0  0  0  0  0
  140.1950   73.9210  222.0460 C   0  0  0  0  0  0  0  0  0  0  0  0
  141.4440   73.8900  221.4240 C   0  0  0  0  0  0  0  0  0  0  0  0
  141.9321   74.8217  221.1020 H   0  0  0  0  0  0  0  0  0  0  0  0
  142.0650   72.6520  221.2170 C   0  0  0  0  0  0  0  0  0  0  0  0
  143.3890   72.5380  220.5550 C   0  0  0  0  0  0  0  0  0  0  0  0
  143.6870   71.4080  219.7730 C   0  0  0  0  0  0  0  0  0  0  0  0
  142.9390   70.6112  219.6476 H   0  0  0  0  0  0  0  0  0  0  0  0
  144.9350   71.3000  219.1560 C   0  0  0  0  0  0  0  0  0  0  0  0
  145.1669   70.4201  218.5379 H   0  0  0  0  0  0  0  0  0  0  0  0
  145.8640   72.2790  219.3170 N   0  0  0  0  0  0  0  0  0  0  0  0
  145.6130   73.3790  220.0740 C   0  0  0  0  0  0  0  0  0  0  0  0
  146.3854   74.1538  220.1884 H   0  0  0  0  0  0  0  0  0  0  0  0
  144.3760   73.5290  220.7080 C   0  0  0  0  0  0  0  0  0  0  0  0
  144.1752   74.4181  221.3238 H   0  0  0  0  0  0  0  0  0  0  0  0
  141.4200   71.5220  221.6160 N   0  0  0  0  0  0  0  0  0  0  0  0
  140.2030   71.5550  222.2190 C   0  0  0  0  0  0  0  0  0  0  0  0
  139.6560   70.4200  222.5580 N   0  0  0  0  0  0  0  0  0  0  0  0
  139.0110   69.9820  223.8050 C   0  0  1  0  0  0  0  0  0  0  0  0
  138.6729   70.8980  224.3117 H   0  0  0  0  0  0  0  0  0  0  0  0
  137.7540   69.1410  223.5410 C   0  0  0  0  0  0  0  0  0  0  0  0
  137.3056   68.8410  224.4996 H   0  0  0  0  0  0  0  0  0  0  0  0
  137.0285   69.7362  222.9671 H   0  0  0  0  0  0  0  0  0  0  0  0
  138.0273   68.2432  222.9671 H   0  0  0  0  0  0  0  0  0  0  0  0
  139.9880   69.3120  224.7960 C   0  0  0  0  0  0  0  0  0  0  0  0
  139.5247   68.3950  225.1889 H   0  0  0  0  0  0  0  0  0  0  0  0
  140.9197   69.0824  224.2582 H   0  0  0  0  0  0  0  0  0  0  0  0
  140.3220   70.2240  225.9490 C   0  0  0  0  0  0  0  0  0  0  0  0
  139.9090   69.9010  227.2530 C   0  0  0  0  0  0  0  0  0  0  0  0
  139.3138   68.9930  227.4301 H   0  0  0  0  0  0  0  0  0  0  0  0
  140.2520   70.7300  228.3270 C   0  0  0  0  0  0  0  0  0  0  0  0
  139.9228   70.4750  229.3451 H   0  0  0  0  0  0  0  0  0  0  0  0
  141.0120   71.8810  228.1070 C   0  0  0  0  0  0  0  0  0  0  0  0
  141.2811   72.5316  228.9522 H   0  0  0  0  0  0  0  0  0  0  0  0
  141.4310   72.2070  226.8140 C   0  0  0  0  0  0  0  0  0  0  0  0
  142.0280   73.1149  226.6424 H   0  0  0  0  0  0  0  0  0  0  0  0
  141.0920   71.3800  225.7380 C   0  0  0  0  0  0  0  0  0  0  0  0
  141.4296   71.6357  224.7228 H   0  0  0  0  0  0  0  0  0  0  0  0
  139.5980   72.7620  222.4360 N   0  0  0  0  0  0  0  0  0  0  0  0
  138.6710   72.8400  222.8950 H   0  0  0  0  0  0  0  0  0  0  0  0
  1  2  1  0
  2  3  1  0
  3  4  2  0
  4  5  1  0
  4  6  1  0
  6  7  1  0
  7  8  2  0
  8  9  1  0
  8 10  1  0
 10 11  1  0
 10 12  2  0
 12 13  1  0
 13 14  1  0
 13 15  2  0
 15 16  1  0
  6 17  2  0
 17 18  1  0
 18 19  2  0
 19 20  1  0
 20 21  1  1
 20 22  1  0
 22 23  1  0
 22 24  1  0
 22 25  1  0
 20 26  1  0
 26 27  1  0
 26 28  1  0
 26 29  1  0
 29 30  2  0
 30 31  1  0
 30 32  1  0
 32 33  1  0
 32 34  2  0
 34 35  1  0
 34 36  1  0
 36 37  1  0
 36 38  2  0
 38 39  1  0
 18 40  1  0
 40 41  1  0
 40  3  1  0
 15  7  1  0
 38 29  1  0
M  END
>  <UniqueID>  (19) 
5

>  <SMILES>  (19) 
C[C@@H](Cc1ccccc1)/N=c1/nc(-c2ccncc2)cc(O)[nH]1

>  <Energy>  (19) 
50.24427360299338

>  <Genealogy>  (19) 
CC(Cc1ccccc1)N=c1nc(-c2ccncc2)cc(O)[nH]1 (tautomer)
C[C@@H](Cc1ccccc1)N=c1nc(-c2ccncc2)cc(O)[nH]1 (chirality)
C[C@@H](Cc1ccccc1)/N=c1/nc(-c2ccncc2)cc(O)[nH]1 (cis-trans isomerization)
C[C@@H](Cc1ccccc1)/N=c1/nc(-c2ccncc2)cc(O)[nH]1 (3D coordinates assigned)
C[C@@H](Cc1ccccc1)/N=c1/nc(-c2ccncc2)cc(O)[nH]1 (optimized conformer: 50.24427360299338 kcal/mol)

>  <smiles>  (19) 
CC(Cc1ccccc1)N=c1[nH]c(-c2ccncc2)cc(=O)[nH]1

>  <score_type>  (19) 
oracle

>  <origin>  (19) 
autodockgpu

>  <m_score__min__energy>  (19) 
-7.7300000000000004

>  <m_primary>  (19) 
energy

>  <meeko>  (19) 
{"free_energy": -7.66, "intermolecular_energy": -9.45, "internal_energy": -0.73, "cluster_size": 16, "cluster_id": 1, "rank_in_cluster": 3}

>  <energy>  (19) 
-6.41

>  <cluster_rmsd>  (19) 
0.0

>  <rmsd>  (19) 
271.24

>  <cluster>  (19) 
3

$$$$
XBCCWEKCHRHPJI-FWUMSPEWNA-N
     RDKit          3D

 41 43  0  0  0  0  0  0  0  0999 V2000
  139.0580   76.0740  221.4000 H   0  0  0  0  0  0  0  0  0  0  0  0
  139.6950   75.6930  222.0900 O   0  0  0  0  0  0  0  0  0  0  0  0
  140.3090   74.4540  221.9120 C   0  0  0  0  0  0  0  0  0  0  0  0
  141.5710   74.3700  221.3220 C   0  0  0  0  0  0  0  0  0  0  0  0
  142.0956   75.2786  220.9915 H   0  0  0  0  0  0  0  0  0  0  0  0
  142.1580   73.1090  221.1580 C   0  0  0  0  0  0  0  0  0  0  0  0
  143.4940   72.9390  220.5320 C   0  0  0  0  0  0  0  0  0  0  0  0
  143.7140   71.8880  219.6240 C   0  0  0  0  0  0  0  0  0  0  0  0
  142.8973   71.1950  219.3737 H   0  0  0  0  0  0  0  0  0  0  0  0
  144.9730   71.7270  219.0410 C   0  0  0  0  0  0  0  0  0  0  0  0
  145.1456   70.9099  218.3250 H   0  0  0  0  0  0  0  0  0  0  0  0
  145.9850   72.5770  219.3560 N   0  0  0  0  0  0  0  0  0  0  0  0
  145.8100   73.5970  220.2370 C   0  0  0  0  0  0  0  0  0  0  0  0
  146.6493   74.2673  220.4743 H   0  0  0  0  0  0  0  0  0  0  0  0
  144.5660   73.7960  220.8420 C   0  0  0  0  0  0  0  0  0  0  0  0
  144.4255   74.6194  221.5577 H   0  0  0  0  0  0  0  0  0  0  0  0
  141.4680   72.0090  221.5650 N   0  0  0  0  0  0  0  0  0  0  0  0
  140.2380   72.0940  222.1370 C   0  0  0  0  0  0  0  0  0  0  0  0
  139.6480   70.9840  222.4860 N   0  0  0  0  0  0  0  0  0  0  0  0
  139.0350   70.5620  223.7550 C   0  0  1  0  0  0  0  0  0  0  0  0
  138.8438   71.4844  224.3229 H   0  0  0  0  0  0  0  0  0  0  0  0
  137.6710   69.8920  223.5440 C   0  0  0  0  0  0  0  0  0  0  0  0
  137.2170   69.6690  224.5208 H   0  0  0  0  0  0  0  0  0  0  0  0
  137.0131   70.5695  222.9800 H   0  0  0  0  0  0  0  0  0  0  0  0
  137.8050   68.9572  222.9800 H   0  0  0  0  0  0  0  0  0  0  0  0
  139.9850   69.7310  224.6460 C   0  0  0  0  0  0  0  0  0  0  0  0
  139.5065   68.7677  224.8764 H   0  0  0  0  0  0  0  0  0  0  0  0
  140.9269   69.5813  224.0978 H   0  0  0  0  0  0  0  0  0  0  0  0
  140.3000   70.4420  225.9380 C   0  0  0  0  0  0  0  0  0  0  0  0
  141.0940   71.6010  225.9350 C   0  0  0  0  0  0  0  0  0  0  0  0
  141.5134   71.9759  224.9897 H   0  0  0  0  0  0  0  0  0  0  0  0
  141.3530   72.2800  227.1310 C   0  0  0  0  0  0  0  0  0  0  0  0
  141.9776   73.1854  227.1246 H   0  0  0  0  0  0  0  0  0  0  0  0
  140.8190   71.8090  228.3330 C   0  0  0  0  0  0  0  0  0  0  0  0
  141.0246   72.3432  229.2723 H   0  0  0  0  0  0  0  0  0  0  0  0
  140.0240   70.6600  228.3430 C   0  0  0  0  0  0  0  0  0  0  0  0
  139.6053   70.2899  229.2905 H   0  0  0  0  0  0  0  0  0  0  0  0
  139.7600   69.9800  227.1500 C   0  0  0  0  0  0  0  0  0  0  0  0
  139.1273   69.0802  227.1605 H   0  0  0  0  0  0  0  0  0  0  0  0
  139.6670   73.3230  222.3110 N   0  0  0  0  0  0  0  0  0  0  0  0
  138.7310   73.4400  222.7450 H   0  0  0  0  0  0  0  0  0  0  0  0
  1  2  1  0
  2  3  1  0
  3  4  2  0
  4  5  1  0
  4  6  1  0
  6  7  1  0
  7  8  2  0
  8  9  1  0
  8 10  1  0
 10 11  1  0
 10 12  2  0
 12 13  1  0
 13 14  1  0
 13 15  2  0
 15 16  1  0
  6 17  2  0
 17 18  1  0
 18 19  2  0
 19 20  1  0
 20 21  1  1
 20 22  1  0
 22 23  1  0
 22 24  1  0
 22 25  1  0
 20 26  1  0
 26 27  1  0
 26 28  1  0
 26 29  1  0
 29 30  2  0
 30 31  1  0
 30 32  1  0
 32 33  1  0
 32 34  2  0
 34 35  1  0
 34 36  1  0
 36 37  1  0
 36 38  2  0
 38 39  1  0
 18 40  1  0
 40 41  1  0
 40  3  1  0
 15  7  1  0
 38 29  1  0
M  END
>  <UniqueID>  (20) 
5

>  <SMILES>  (20) 
C[C@@H](Cc1ccccc1)/N=c1/nc(-c2ccncc2)cc(O)[nH]1

>  <Energy>  (20) 
50.24427360299338

>  <Genealogy>  (20) 
CC(Cc1ccccc1)N=c1nc(-c2ccncc2)cc(O)[nH]1 (tautomer)
C[C@@H](Cc1ccccc1)N=c1nc(-c2ccncc2)cc(O)[nH]1 (chirality)
C[C@@H](Cc1ccccc1)/N=c1/nc(-c2ccncc2)cc(O)[nH]1 (cis-trans isomerization)
C[C@@H](Cc1ccccc1)/N=c1/nc(-c2ccncc2)cc(O)[nH]1 (3D coordinates assigned)
C[C@@H](Cc1ccccc1)/N=c1/nc(-c2ccncc2)cc(O)[nH]1 (optimized conformer: 50.24427360299338 kcal/mol)

>  <smiles>  (20) 
CC(Cc1ccccc1)N=c1[nH]c(-c2ccncc2)cc(=O)[nH]1

>  <score_type>  (20) 
oracle

>  <origin>  (20) 
autodockgpu

>  <m_score__min__energy>  (20) 
-7.7300000000000004

>  <m_primary>  (20) 
energy

>  <meeko>  (20) 
{"free_energy": -7.49, "intermolecular_energy": -9.28, "internal_energy": -0.69, "cluster_size": 16, "cluster_id": 1, "rank_in_cluster": 7}

>  <energy>  (20) 
-6.39

>  <cluster_rmsd>  (20) 
0.0

>  <rmsd>  (20) 
271.64

>  <cluster>  (20) 
4

$$$$
XBCCWEKCHRHPJI-UGJWUZOENA-N
     RDKit          3D

 41 43  0  0  0  0  0  0  0  0999 V2000
  146.9743   73.2093  220.7169 H   0  0  0  0  0  0  0  0  0  0  0  0
  146.0160   73.2190  220.1770 C   0  0  0  0  0  0  0  0  0  0  0  0
  145.9960   73.0580  218.8280 N   0  0  0  0  0  0  0  0  0  0  0  0
  144.8330   73.0650  218.1260 C   0  0  0  0  0  0  0  0  0  0  0  0
  144.8499   72.9335  217.0340 H   0  0  0  0  0  0  0  0  0  0  0  0
  143.6150   73.2390  218.7890 C   0  0  0  0  0  0  0  0  0  0  0  0
  142.6727   73.2436  218.2216 H   0  0  0  0  0  0  0  0  0  0  0  0
  143.6000   73.4080  220.1840 C   0  0  0  0  0  0  0  0  0  0  0  0
  142.3140   73.5900  220.9060 C   0  0  0  0  0  0  0  0  0  0  0  0
  141.8290   74.8760  221.1720 C   0  0  0  0  0  0  0  0  0  0  0  0
  142.3959   75.7647  220.8577 H   0  0  0  0  0  0  0  0  0  0  0  0
  140.6170   75.0090  221.8410 C   0  0  0  0  0  0  0  0  0  0  0  0
  140.1590   76.1560  222.0910 O   0  0  0  0  0  0  0  0  0  0  0  0
  139.9250   73.9020  222.2210 N   0  0  0  0  0  0  0  0  0  0  0  0
  139.0130   74.0190  222.7210 H   0  0  0  0  0  0  0  0  0  0  0  0
  140.3950   72.6500  221.9610 C   0  0  0  0  0  0  0  0  0  0  0  0
  139.6780   71.6270  222.3480 N   0  0  0  0  0  0  0  0  0  0  0  0
  139.6320   70.9000  223.6250 C   0  0  2  0  0  0  0  0  0  0  0  0
  139.9296   69.8597  223.4269 H   0  0  0  0  0  0  0  0  0  0  0  0
  138.2030   70.8040  224.1880 C   0  0  0  0  0  0  0  0  0  0  0  0
  138.2411   70.8066  225.2873 H   0  0  0  0  0  0  0  0  0  0  0  0
  137.6130   71.6645  223.8396 H   0  0  0  0  0  0  0  0  0  0  0  0
  137.7334   69.8723  223.8396 H   0  0  0  0  0  0  0  0  0  0  0  0
  140.6730   71.4380  224.6310 C   0  0  0  0  0  0  0  0  0  0  0  0
  141.6726   71.3814  224.1753 H   0  0  0  0  0  0  0  0  0  0  0  0
  140.4112   72.4783  224.8745 H   0  0  0  0  0  0  0  0  0  0  0  0
  140.6720   70.6390  225.9100 C   0  0  0  0  0  0  0  0  0  0  0  0
  140.7150   71.2940  227.1530 C   0  0  0  0  0  0  0  0  0  0  0  0
  140.7266   72.3932  227.1934 H   0  0  0  0  0  0  0  0  0  0  0  0
  140.7430   70.5530  228.3380 C   0  0  0  0  0  0  0  0  0  0  0  0
  140.7706   71.0702  229.3084 H   0  0  0  0  0  0  0  0  0  0  0  0
  140.7360   69.1560  228.2920 C   0  0  0  0  0  0  0  0  0  0  0  0
  140.7572   68.5749  229.2257 H   0  0  0  0  0  0  0  0  0  0  0  0
  140.7020   68.4970  227.0590 C   0  0  0  0  0  0  0  0  0  0  0  0
  140.6981   67.3976  227.0231 H   0  0  0  0  0  0  0  0  0  0  0  0
  140.6730   69.2350  225.8720 C   0  0  0  0  0  0  0  0  0  0  0  0
  140.6509   68.7136  224.9037 H   0  0  0  0  0  0  0  0  0  0  0  0
  141.5890   72.5050  221.3090 N   0  0  0  0  0  0  0  0  0  0  0  0
  141.9870   71.5650  221.1280 H   0  0  0  0  0  0  0  0  0  0  0  0
  144.8210   73.3970  220.8800 C   0  0  0  0  0  0  0  0  0  0  0  0
  144.8361   73.5278  221.9721 H   0  0  0  0  0  0  0  0  0  0  0  0
  1  2  1  0
  2  3  2  0
  3  4  1  0
  4  5  1  0
  4  6  2  0
  6  7  1  0
  6  8  1  0
  8  9  1  0
  9 10  2  0
 10 11  1  0
 10 12  1  0
 12 13  2  0
 12 14  1  0
 14 15  1  0
 14 16  1  0
 16 17  2  0
 17 18  1  0
 18 19  1  6
 18 20  1  0
 20 21  1  0
 20 22  1  0
 20 23  1  0
 18 24  1  0
 24 25  1  0
 24 26  1  0
 24 27  1  0
 27 28  2  0
 28 29  1  0
 28 30  1  0
 30 31  1  0
 30 32  2  0
 32 33  1  0
 32 34  1  0
 34 35  1  0
 34 36  2  0
 36 37  1  0
 16 38  1  0
 38 39  1  0
  8 40  2  0
 40 41  1  0
 40  2  1  0
 38  9  1  0
 36 27  1  0
M  END
>  <UniqueID>  (21) 
6

>  <SMILES>  (21) 
C[C@H](Cc1ccccc1)/N=c1\[nH]c(-c2ccncc2)cc(=O)[nH]1

>  <Energy>  (21) 
52.65456979670249

>  <Genealogy>  (21) 
C[C@H](Cc1ccccc1)N=c1[nH]c(-c2ccncc2)cc(=O)[nH]1 (chirality)
C[C@H](Cc1ccccc1)/N=c1\[nH]c(-c2ccncc2)cc(=O)[nH]1 (cis-trans isomerization)
C[C@H](Cc1ccccc1)/N=c1\[nH]c(-c2ccncc2)cc(=O)[nH]1 (3D coordinates assigned)
C[C@H](Cc1ccccc1)/N=c1\[nH]c(-c2ccncc2)cc(=O)[nH]1 (optimized conformer: 52.65456979670249 kcal/mol)

>  <smiles>  (21) 
CC(Cc1ccccc1)N=c1[nH]c(-c2ccncc2)cc(=O)[nH]1

>  <score_type>  (21) 
oracle

>  <origin>  (21) 
autodockgpu

>  <m_score__min__energy>  (21) 
-7.8600000000000003

>  <m_primary>  (21) 
energy

>  <meeko>  (21) 
{"free_energy": -7.84, "intermolecular_energy": -9.33, "internal_energy": -0.69, "cluster_size": 14, "cluster_id": 1, "rank_in_cluster": 5}

>  <energy>  (21) 
-7.86

>  <cluster_rmsd>  (21) 
0.0

>  <rmsd>  (21) 
270.08

>  <cluster>  (21) 
1

$$$$
XBCCWEKCHRHPJI-UGJWUZOENA-N
     RDKit          3D

 41 43  0  0  0  0  0  0  0  0999 V2000
  144.9292   70.8942  218.2984 H   0  0  0  0  0  0  0  0  0  0  0  0
  144.8420   71.7190  219.0210 C   0  0  0  0  0  0  0  0  0  0  0  0
  145.9380   72.4500  219.3500 N   0  0  0  0  0  0  0  0  0  0  0  0
  145.8700   73.4760  220.2390 C   0  0  0  0  0  0  0  0  0  0  0  0
  146.7758   74.0490  220.4864 H   0  0  0  0  0  0  0  0  0  0  0  0
  144.6520   73.8040  220.8390 C   0  0  0  0  0  0  0  0  0  0  0  0
  144.5961   74.6353  221.5572 H   0  0  0  0  0  0  0  0  0  0  0  0
  143.4980   73.0670  220.5210 C   0  0  0  0  0  0  0  0  0  0  0  0
  142.1930   73.4050  221.1460 C   0  0  0  0  0  0  0  0  0  0  0  0
  141.7140   74.7190  221.1170 C   0  0  0  0  0  0  0  0  0  0  0  0
  142.2995   75.5180  220.6386 H   0  0  0  0  0  0  0  0  0  0  0  0
  140.4840   74.9970  221.7040 C   0  0  0  0  0  0  0  0  0  0  0  0
  140.0310   76.1720  221.6880 O   0  0  0  0  0  0  0  0  0  0  0  0
  139.7700   73.9990  222.2900 N   0  0  0  0  0  0  0  0  0  0  0  0
  138.8450   74.2240  222.7250 H   0  0  0  0  0  0  0  0  0  0  0  0
  140.2350   72.7190  222.3190 C   0  0  0  0  0  0  0  0  0  0  0  0
  139.4970   71.8050  222.8940 N   0  0  0  0  0  0  0  0  0  0  0  0
  139.7670   70.3950  223.2110 C   0  0  2  0  0  0  0  0  0  0  0  0
  140.8388   70.3039  223.4413 H   0  0  0  0  0  0  0  0  0  0  0  0
  139.5420   69.4740  221.9990 C   0  0  0  0  0  0  0  0  0  0  0  0
  139.2945   68.4610  222.3492 H   0  0  0  0  0  0  0  0  0  0  0  0
  138.7128   69.8644  221.3907 H   0  0  0  0  0  0  0  0  0  0  0  0
  140.4578   69.4382  221.3907 H   0  0  0  0  0  0  0  0  0  0  0  0
  139.0350   69.9440  224.4930 C   0  0  0  0  0  0  0  0  0  0  0  0
  138.0245   70.3785  224.4985 H   0  0  0  0  0  0  0  0  0  0  0  0
  138.9905   68.8449  224.4948 H   0  0  0  0  0  0  0  0  0  0  0  0
  139.7650   70.3880  225.7350 C   0  0  0  0  0  0  0  0  0  0  0  0
  139.5980   69.6890  226.9430 C   0  0  0  0  0  0  0  0  0  0  0  0
  138.9495   68.8011  226.9772 H   0  0  0  0  0  0  0  0  0  0  0  0
  140.2530   70.1180  228.1010 C   0  0  0  0  0  0  0  0  0  0  0  0
  140.1228   69.5646  229.0427 H   0  0  0  0  0  0  0  0  0  0  0  0
  141.0730   71.2490  228.0640 C   0  0  0  0  0  0  0  0  0  0  0  0
  141.5889   71.5841  228.9759 H   0  0  0  0  0  0  0  0  0  0  0  0
  141.2380   71.9550  226.8680 C   0  0  0  0  0  0  0  0  0  0  0  0
  141.8823   72.8461  226.8400 H   0  0  0  0  0  0  0  0  0  0  0  0
  140.5850   71.5290  225.7090 C   0  0  0  0  0  0  0  0  0  0  0  0
  140.7133   72.0895  224.7712 H   0  0  0  0  0  0  0  0  0  0  0  0
  141.4460   72.4340  221.7500 N   0  0  0  0  0  0  0  0  0  0  0  0
  141.8400   71.4750  221.7870 H   0  0  0  0  0  0  0  0  0  0  0  0
  143.6040   72.0120  219.5980 C   0  0  0  0  0  0  0  0  0  0  0  0
  142.7161   71.4199  219.3314 H   0  0  0  0  0  0  0  0  0  0  0  0
  1  2  1  0
  2  3  2  0
  3  4  1  0
  4  5  1  0
  4  6  2  0
  6  7  1  0
  6  8  1  0
  8  9  1  0
  9 10  2  0
 10 11  1  0
 10 12  1  0
 12 13  2  0
 12 14  1  0
 14 15  1  0
 14 16  1  0
 16 17  2  0
 17 18  1  0
 18 19  1  1
 18 20  1  0
 20 21  1  0
 20 22  1  0
 20 23  1  0
 18 24  1  0
 24 25  1  0
 24 26  1  0
 24 27  1  0
 27 28  2  0
 28 29  1  0
 28 30  1  0
 30 31  1  0
 30 32  2  0
 32 33  1  0
 32 34  1  0
 34 35  1  0
 34 36  2  0
 36 37  1  0
 16 38  1  0
 38 39  1  0
  8 40  2  0
 40 41  1  0
 40  2  1  0
 38  9  1  0
 36 27  1  0
M  END
>  <UniqueID>  (22) 
6

>  <SMILES>  (22) 
C[C@H](Cc1ccccc1)/N=c1\[nH]c(-c2ccncc2)cc(=O)[nH]1

>  <Energy>  (22) 
52.65456979670249

>  <Genealogy>  (22) 
C[C@H](Cc1ccccc1)N=c1[nH]c(-c2ccncc2)cc(=O)[nH]1 (chirality)
C[C@H](Cc1ccccc1)/N=c1\[nH]c(-c2ccncc2)cc(=O)[nH]1 (cis-trans isomerization)
C[C@H](Cc1ccccc1)/N=c1\[nH]c(-c2ccncc2)cc(=O)[nH]1 (3D coordinates assigned)
C[C@H](Cc1ccccc1)/N=c1\[nH]c(-c2ccncc2)cc(=O)[nH]1 (optimized conformer: 52.65456979670249 kcal/mol)

>  <smiles>  (22) 
CC(Cc1ccccc1)N=c1[nH]c(-c2ccncc2)cc(=O)[nH]1

>  <score_type>  (22) 
oracle

>  <origin>  (22) 
autodockgpu

>  <m_score__min__energy>  (22) 
-7.8600000000000003

>  <m_primary>  (22) 
energy

>  <meeko>  (22) 
{"free_energy": -7.5, "intermolecular_energy": -8.99, "internal_energy": -0.73, "cluster_size": 14, "cluster_id": 1, "rank_in_cluster": 13}

>  <energy>  (22) 
-7.86

>  <cluster_rmsd>  (22) 
0.08

>  <rmsd>  (22) 
270.09

>  <cluster>  (22) 
1

$$$$
XBCCWEKCHRHPJI-UGJWUZOENA-N
     RDKit          3D

 41 43  0  0  0  0  0  0  0  0999 V2000
  134.1736   76.2171  226.1349 H   0  0  0  0  0  0  0  0  0  0  0  0
  133.9360   75.1510  226.2650 C   0  0  0  0  0  0  0  0  0  0  0  0
  132.9440   74.7770  227.1130 N   0  0  0  0  0  0  0  0  0  0  0  0
  132.6210   73.4700  227.3000 C   0  0  0  0  0  0  0  0  0  0  0  0
  131.8121   73.1979  227.9940 H   0  0  0  0  0  0  0  0  0  0  0  0
  133.3150   72.4720  226.6120 C   0  0  0  0  0  0  0  0  0  0  0  0
  133.0541   71.4141  226.7629 H   0  0  0  0  0  0  0  0  0  0  0  0
  134.3470   72.8240  225.7270 C   0  0  0  0  0  0  0  0  0  0  0  0
  135.0920   71.7750  224.9830 C   0  0  0  0  0  0  0  0  0  0  0  0
  134.6310   70.4540  224.9720 C   0  0  0  0  0  0  0  0  0  0  0  0
  133.7179   70.1751  225.5183 H   0  0  0  0  0  0  0  0  0  0  0  0
  135.3480   69.5000  224.2580 C   0  0  0  0  0  0  0  0  0  0  0  0
  134.9510   68.3050  224.2310 O   0  0  0  0  0  0  0  0  0  0  0  0
  136.4740   69.8600  223.5860 N   0  0  0  0  0  0  0  0  0  0  0  0
  137.0010   69.1300  223.0500 H   0  0  0  0  0  0  0  0  0  0  0  0
  136.9240   71.1460  223.5940 C   0  0  0  0  0  0  0  0  0  0  0  0
  138.0100   71.4260  222.9220 N   0  0  0  0  0  0  0  0  0  0  0  0
  139.4310   71.2380  223.2490 C   0  0  2  0  0  0  0  0  0  0  0  0
  139.7522   72.1031  223.8477 H   0  0  0  0  0  0  0  0  0  0  0  0
  140.3250   71.2680  221.9970 C   0  0  0  0  0  0  0  0  0  0  0  0
  141.3814   71.3034  222.3015 H   0  0  0  0  0  0  0  0  0  0  0  0
  140.1465   70.3634  221.3972 H   0  0  0  0  0  0  0  0  0  0  0  0
  140.0862   72.1586  221.3972 H   0  0  0  0  0  0  0  0  0  0  0  0
  139.6540   70.0070  224.1550 C   0  0  0  0  0  0  0  0  0  0  0  0
  138.7267   69.4163  224.1894 H   0  0  0  0  0  0  0  0  0  0  0  0
  140.4809   69.4156  223.7348 H   0  0  0  0  0  0  0  0  0  0  0  0
  140.0290   70.4120  225.5590 C   0  0  0  0  0  0  0  0  0  0  0  0
  140.8220   71.5510  225.7790 C   0  0  0  0  0  0  0  0  0  0  0  0
  141.1520   72.1622  224.9261 H   0  0  0  0  0  0  0  0  0  0  0  0
  141.1930   71.9100  227.0780 C   0  0  0  0  0  0  0  0  0  0  0  0
  141.8095   72.8056  227.2452 H   0  0  0  0  0  0  0  0  0  0  0  0
  140.7820   71.1330  228.1650 C   0  0  0  0  0  0  0  0  0  0  0  0
  141.0741   71.4177  229.1866 H   0  0  0  0  0  0  0  0  0  0  0  0
  139.9990   69.9930  227.9530 C   0  0  0  0  0  0  0  0  0  0  0  0
  139.6768   69.3806  228.8080 H   0  0  0  0  0  0  0  0  0  0  0  0
  139.6260   69.6320  226.6550 C   0  0  0  0  0  0  0  0  0  0  0  0
  139.0140   68.7328  226.4914 H   0  0  0  0  0  0  0  0  0  0  0  0
  136.2300   72.0920  224.2980 N   0  0  0  0  0  0  0  0  0  0  0  0
  136.5690   73.0710  224.3510 H   0  0  0  0  0  0  0  0  0  0  0  0
  134.6560   74.1850  225.5570 C   0  0  0  0  0  0  0  0  0  0  0  0
  135.4602   74.4878  224.8704 H   0  0  0  0  0  0  0  0  0  0  0  0
  1  2  1  0
  2  3  2  0
  3  4  1  0
  4  5  1  0
  4  6  2  0
  6  7  1  0
  6  8  1  0
  8  9  1  0
  9 10  2  0
 10 11  1  0
 10 12  1  0
 12 13  2  0
 12 14  1  0
 14 15  1  0
 14 16  1  0
 16 17  2  0
 17 18  1  0
 18 19  1  1
 18 20  1  0
 20 21  1  0
 20 22  1  0
 20 23  1  0
 18 24  1  0
 24 25  1  0
 24 26  1  0
 24 27  1  0
 27 28  2  0
 28 29  1  0
 28 30  1  0
 30 31  1  0
 30 32  2  0
 32 33  1  0
 32 34  1  0
 34 35  1  0
 34 36  2  0
 36 37  1  0
 16 38  1  0
 38 39  1  0
  8 40  2  0
 40 41  1  0
 40  2  1  0
 38  9  1  0
 36 27  1  0
M  END
>  <UniqueID>  (23) 
6

>  <SMILES>  (23) 
C[C@H](Cc1ccccc1)/N=c1\[nH]c(-c2ccncc2)cc(=O)[nH]1

>  <Energy>  (23) 
52.65456979670249

>  <Genealogy>  (23) 
C[C@H](Cc1ccccc1)N=c1[nH]c(-c2ccncc2)cc(=O)[nH]1 (chirality)
C[C@H](Cc1ccccc1)/N=c1\[nH]c(-c2ccncc2)cc(=O)[nH]1 (cis-trans isomerization)
C[C@H](Cc1ccccc1)/N=c1\[nH]c(-c2ccncc2)cc(=O)[nH]1 (3D coordinates assigned)
C[C@H](Cc1ccccc1)/N=c1\[nH]c(-c2ccncc2)cc(=O)[nH]1 (optimized conformer: 52.65456979670249 kcal/mol)

>  <smiles>  (23) 
CC(Cc1ccccc1)N=c1[nH]c(-c2ccncc2)cc(=O)[nH]1

>  <score_type>  (23) 
oracle

>  <origin>  (23) 
autodockgpu

>  <m_score__min__energy>  (23) 
-7.8600000000000003

>  <m_primary>  (23) 
energy

>  <meeko>  (23) 
{"free_energy": -7.29, "intermolecular_energy": -8.79, "internal_energy": -0.87, "cluster_size": 6, "cluster_id": 2, "rank_in_cluster": 6}

>  <energy>  (23) 
-7.86

>  <cluster_rmsd>  (23) 
0.1

>  <rmsd>  (23) 
270.06

>  <cluster>  (23) 
1

$$$$
XBCCWEKCHRHPJI-UGJWUZOENA-N
     RDKit          3D

 41 43  0  0  0  0  0  0  0  0999 V2000
  146.7749   74.0193  220.4900 H   0  0  0  0  0  0  0  0  0  0  0  0
  145.8710   73.4410  220.2480 C   0  0  0  0  0  0  0  0  0  0  0  0
  145.9430   72.4060  219.3700 N   0  0  0  0  0  0  0  0  0  0  0  0
  144.8490   71.6700  219.0460 C   0  0  0  0  0  0  0  0  0  0  0  0
  144.9388   70.8389  218.3310 H   0  0  0  0  0  0  0  0  0  0  0  0
  143.6090   71.9660  219.6190 C   0  0  0  0  0  0  0  0  0  0  0  0
  142.7228   71.3689  219.3580 H   0  0  0  0  0  0  0  0  0  0  0  0
  143.5000   73.0300  220.5300 C   0  0  0  0  0  0  0  0  0  0  0  0
  142.1900   73.3560  221.1520 C   0  0  0  0  0  0  0  0  0  0  0  0
  141.6650   74.6500  221.0560 C   0  0  0  0  0  0  0  0  0  0  0  0
  142.2176   75.4407  220.5274 H   0  0  0  0  0  0  0  0  0  0  0  0
  140.4320   74.9180  221.6410 C   0  0  0  0  0  0  0  0  0  0  0  0
  139.9380   76.0740  221.5650 O   0  0  0  0  0  0  0  0  0  0  0  0
  139.7590   73.9300  222.2900 N   0  0  0  0  0  0  0  0  0  0  0  0
  138.8310   74.1470  222.7220 H   0  0  0  0  0  0  0  0  0  0  0  0
  140.2680   72.6700  222.3830 C   0  0  0  0  0  0  0  0  0  0  0  0
  139.5680   71.7650  223.0160 N   0  0  0  0  0  0  0  0  0  0  0  0
  139.8250   70.3400  223.2710 C   0  0  2  0  0  0  0  0  0  0  0  0
  140.9044   70.2231  223.4477 H   0  0  0  0  0  0  0  0  0  0  0  0
  139.5270   69.4660  222.0400 C   0  0  0  0  0  0  0  0  0  0  0  0
  139.1882   68.4725  222.3690 H   0  0  0  0  0  0  0  0  0  0  0  0
  138.7398   69.9402  221.4355 H   0  0  0  0  0  0  0  0  0  0  0  0
  140.4399   69.3605  221.4355 H   0  0  0  0  0  0  0  0  0  0  0  0
  139.1440   69.8560  224.5690 C   0  0  0  0  0  0  0  0  0  0  0  0
  138.0985   70.1980  224.5726 H   0  0  0  0  0  0  0  0  0  0  0  0
  139.1981   68.7577  224.5971 H   0  0  0  0  0  0  0  0  0  0  0  0
  139.8390   70.3940  225.7940 C   0  0  0  0  0  0  0  0  0  0  0  0
  139.5750   69.8390  227.0590 C   0  0  0  0  0  0  0  0  0  0  0  0
  138.8761   68.9947  227.1523 H   0  0  0  0  0  0  0  0  0  0  0  0
  140.1980   70.3570  228.1980 C   0  0  0  0  0  0  0  0  0  0  0  0
  139.9913   69.9169  229.1847 H   0  0  0  0  0  0  0  0  0  0  0  0
  141.0830   71.4330  228.0860 C   0  0  0  0  0  0  0  0  0  0  0  0
  141.5733   71.8378  228.9836 H   0  0  0  0  0  0  0  0  0  0  0  0
  141.3450   71.9950  226.8320 C   0  0  0  0  0  0  0  0  0  0  0  0
  142.0403   72.8428  226.7441 H   0  0  0  0  0  0  0  0  0  0  0  0
  140.7240   71.4800  225.6910 C   0  0  0  0  0  0  0  0  0  0  0  0
  140.9292   71.9273  224.7072 H   0  0  0  0  0  0  0  0  0  0  0  0
  141.4830   72.3950  221.8170 N   0  0  0  0  0  0  0  0  0  0  0  0
  141.9110   71.4540  221.9020 H   0  0  0  0  0  0  0  0  0  0  0  0
  144.6510   73.7720  220.8440 C   0  0  0  0  0  0  0  0  0  0  0  0
  144.5922   74.6091  221.5552 H   0  0  0  0  0  0  0  0  0  0  0  0
  1  2  1  0
  2  3  2  0
  3  4  1  0
  4  5  1  0
  4  6  2  0
  6  7  1  0
  6  8  1  0
  8  9  1  0
  9 10  2  0
 10 11  1  0
 10 12  1  0
 12 13  2  0
 12 14  1  0
 14 15  1  0
 14 16  1  0
 16 17  2  0
 17 18  1  0
 18 19  1  1
 18 20  1  0
 20 21  1  0
 20 22  1  0
 20 23  1  0
 18 24  1  0
 24 25  1  0
 24 26  1  0
 24 27  1  0
 27 28  2  0
 28 29  1  0
 28 30  1  0
 30 31  1  0
 30 32  2  0
 32 33  1  0
 32 34  1  0
 34 35  1  0
 34 36  2  0
 36 37  1  0
 16 38  1  0
 38 39  1  0
  8 40  2  0
 40 41  1  0
 40  2  1  0
 38  9  1  0
 36 27  1  0
M  END
>  <UniqueID>  (24) 
6

>  <SMILES>  (24) 
C[C@H](Cc1ccccc1)/N=c1\[nH]c(-c2ccncc2)cc(=O)[nH]1

>  <Energy>  (24) 
52.65456979670249

>  <Genealogy>  (24) 
C[C@H](Cc1ccccc1)N=c1[nH]c(-c2ccncc2)cc(=O)[nH]1 (chirality)
C[C@H](Cc1ccccc1)/N=c1\[nH]c(-c2ccncc2)cc(=O)[nH]1 (cis-trans isomerization)
C[C@H](Cc1ccccc1)/N=c1\[nH]c(-c2ccncc2)cc(=O)[nH]1 (3D coordinates assigned)
C[C@H](Cc1ccccc1)/N=c1\[nH]c(-c2ccncc2)cc(=O)[nH]1 (optimized conformer: 52.65456979670249 kcal/mol)

>  <smiles>  (24) 
CC(Cc1ccccc1)N=c1[nH]c(-c2ccncc2)cc(=O)[nH]1

>  <score_type>  (24) 
oracle

>  <origin>  (24) 
autodockgpu

>  <m_score__min__energy>  (24) 
-7.8600000000000003

>  <m_primary>  (24) 
energy

>  <meeko>  (24) 
{"free_energy": -7.52, "intermolecular_energy": -9.02, "internal_energy": -0.71, "cluster_size": 14, "cluster_id": 1, "rank_in_cluster": 12}

>  <energy>  (24) 
-7.84

>  <cluster_rmsd>  (24) 
0.11

>  <rmsd>  (24) 
270.06

>  <cluster>  (24) 
1

$$$$
XBCCWEKCHRHPJI-UGJWUZOENA-N
     RDKit          3D

 41 43  0  0  0  0  0  0  0  0999 V2000
  146.9421   73.6010  220.6601 H   0  0  0  0  0  0  0  0  0  0  0  0
  145.9800   73.4130  220.1610 C   0  0  0  0  0  0  0  0  0  0  0  0
  145.9570   72.9790  218.8740 N   0  0  0  0  0  0  0  0  0  0  0  0
  144.7890   72.7380  218.2240 C   0  0  0  0  0  0  0  0  0  0  0  0
  144.8036   72.3899  217.1806 H   0  0  0  0  0  0  0  0  0  0  0  0
  143.5690   72.9310  218.8770 C   0  0  0  0  0  0  0  0  0  0  0  0
  142.6231   72.7334  218.3514 H   0  0  0  0  0  0  0  0  0  0  0  0
  143.5570   73.3790  220.2090 C   0  0  0  0  0  0  0  0  0  0  0  0
  142.2690   73.5870  220.9210 C   0  0  0  0  0  0  0  0  0  0  0  0
  141.7970   74.8820  221.1640 C   0  0  0  0  0  0  0  0  0  0  0  0
  142.3755   75.7593  220.8390 H   0  0  0  0  0  0  0  0  0  0  0  0
  140.5830   75.0390  221.8240 C   0  0  0  0  0  0  0  0  0  0  0  0
  140.1360   76.1950  222.0520 O   0  0  0  0  0  0  0  0  0  0  0  0
  139.8770   73.9460  222.2190 N   0  0  0  0  0  0  0  0  0  0  0  0
  138.9640   74.0810  222.7120 H   0  0  0  0  0  0  0  0  0  0  0  0
  140.3350   72.6850  221.9820 C   0  0  0  0  0  0  0  0  0  0  0  0
  139.6050   71.6760  222.3820 N   0  0  0  0  0  0  0  0  0  0  0  0
  139.6540   70.8680  223.6090 C   0  0  2  0  0  0  0  0  0  0  0  0
  139.9969   69.8605  223.3310 H   0  0  0  0  0  0  0  0  0  0  0  0
  138.2580   70.6580  224.2220 C   0  0  0  0  0  0  0  0  0  0  0  0
  138.3339   70.6694  225.3193 H   0  0  0  0  0  0  0  0  0  0  0  0
  137.5876   71.4654  223.8924 H   0  0  0  0  0  0  0  0  0  0  0  0
  137.8548   69.6891  223.8924 H   0  0  0  0  0  0  0  0  0  0  0  0
  140.7090   71.3970  224.6050 C   0  0  0  0  0  0  0  0  0  0  0  0
  141.7093   71.2741  224.1642 H   0  0  0  0  0  0  0  0  0  0  0  0
  140.4944   72.4576  224.8025 H   0  0  0  0  0  0  0  0  0  0  0  0
  140.6570   70.6530  225.9160 C   0  0  0  0  0  0  0  0  0  0  0  0
  140.7480   69.2510  225.9380 C   0  0  0  0  0  0  0  0  0  0  0  0
  140.8804   68.6958  224.9977 H   0  0  0  0  0  0  0  0  0  0  0  0
  140.6710   68.5590  227.1500 C   0  0  0  0  0  0  0  0  0  0  0  0
  140.7482   67.4618  227.1621 H   0  0  0  0  0  0  0  0  0  0  0  0
  140.4960   69.2600  228.3470 C   0  0  0  0  0  0  0  0  0  0  0  0
  140.4362   68.7141  229.3001 H   0  0  0  0  0  0  0  0  0  0  0  0
  140.3970   70.6550  228.3330 C   0  0  0  0  0  0  0  0  0  0  0  0
  140.2593   71.2061  229.2750 H   0  0  0  0  0  0  0  0  0  0  0  0
  140.4730   71.3490  227.1220 C   0  0  0  0  0  0  0  0  0  0  0  0
  140.3883   72.4457  227.1135 H   0  0  0  0  0  0  0  0  0  0  0  0
  141.5310   72.5170  221.3380 N   0  0  0  0  0  0  0  0  0  0  0  0
  141.9200   71.5690  221.1750 H   0  0  0  0  0  0  0  0  0  0  0  0
  144.7830   73.6210  220.8520 C   0  0  0  0  0  0  0  0  0  0  0  0
  144.8005   73.9725  221.8942 H   0  0  0  0  0  0  0  0  0  0  0  0
  1  2  1  0
  2  3  2  0
  3  4  1  0
  4  5  1  0
  4  6  2  0
  6  7  1  0
  6  8  1  0
  8  9  1  0
  9 10  2  0
 10 11  1  0
 10 12  1  0
 12 13  2  0
 12 14  1  0
 14 15  1  0
 14 16  1  0
 16 17  2  0
 17 18  1  0
 18 19  1  6
 18 20  1  0
 20 21  1  0
 20 22  1  0
 20 23  1  0
 18 24  1  0
 24 25  1  0
 24 26  1  0
 24 27  1  0
 27 28  2  0
 28 29  1  0
 28 30  1  0
 30 31  1  0
 30 32  2  0
 32 33  1  0
 32 34  1  0
 34 35  1  0
 34 36  2  0
 36 37  1  0
 16 38  1  0
 38 39  1  0
  8 40  2  0
 40 41  1  0
 40  2  1  0
 38  9  1  0
 36 27  1  0
M  END
>  <UniqueID>  (25) 
6

>  <SMILES>  (25) 
C[C@H](Cc1ccccc1)/N=c1\[nH]c(-c2ccncc2)cc(=O)[nH]1

>  <Energy>  (25) 
52.65456979670249

>  <Genealogy>  (25) 
C[C@H](Cc1ccccc1)N=c1[nH]c(-c2ccncc2)cc(=O)[nH]1 (chirality)
C[C@H](Cc1ccccc1)/N=c1\[nH]c(-c2ccncc2)cc(=O)[nH]1 (cis-trans isomerization)
C[C@H](Cc1ccccc1)/N=c1\[nH]c(-c2ccncc2)cc(=O)[nH]1 (3D coordinates assigned)
C[C@H](Cc1ccccc1)/N=c1\[nH]c(-c2ccncc2)cc(=O)[nH]1 (optimized conformer: 52.65456979670249 kcal/mol)

>  <smiles>  (25) 
CC(Cc1ccccc1)N=c1[nH]c(-c2ccncc2)cc(=O)[nH]1

>  <score_type>  (25) 
oracle

>  <origin>  (25) 
autodockgpu

>  <m_score__min__energy>  (25) 
-7.8600000000000003

>  <m_primary>  (25) 
energy

>  <meeko>  (25) 
{"free_energy": -7.86, "intermolecular_energy": -9.35, "internal_energy": -0.69, "cluster_size": 14, "cluster_id": 1, "rank_in_cluster": 3}

>  <energy>  (25) 
-7.84

>  <cluster_rmsd>  (25) 
0.13

>  <rmsd>  (25) 
270.08

>  <cluster>  (25) 
1

$$$$
XBCCWEKCHRHPJI-UGJWUZOENA-N
     RDKit          3D

 41 43  0  0  0  0  0  0  0  0999 V2000
  132.0156   73.4338  227.9266 H   0  0  0  0  0  0  0  0  0  0  0  0
  132.8030   73.5970  227.1760 C   0  0  0  0  0  0  0  0  0  0  0  0
  133.1820   74.8620  226.8540 N   0  0  0  0  0  0  0  0  0  0  0  0
  134.1500   75.1030  225.9330 C   0  0  0  0  0  0  0  0  0  0  0  0
  134.4340   76.1383  225.6934 H   0  0  0  0  0  0  0  0  0  0  0  0
  134.7860   74.0390  225.2890 C   0  0  0  0  0  0  0  0  0  0  0  0
  135.5707   74.2342  224.5432 H   0  0  0  0  0  0  0  0  0  0  0  0
  134.4190   72.7180  225.5980 C   0  0  0  0  0  0  0  0  0  0  0  0
  135.0870   71.5740  224.9250 C   0  0  0  0  0  0  0  0  0  0  0  0
  134.4840   70.3110  224.9110 C   0  0  0  0  0  0  0  0  0  0  0  0
  133.5138   70.1483  225.4032 H   0  0  0  0  0  0  0  0  0  0  0  0
  135.1330   69.2660  224.2640 C   0  0  0  0  0  0  0  0  0  0  0  0
  134.6090   68.1210  224.2370 O   0  0  0  0  0  0  0  0  0  0  0  0
  136.3310   69.4810  223.6580 N   0  0  0  0  0  0  0  0  0  0  0  0
  136.8060   68.6850  223.1720 H   0  0  0  0  0  0  0  0  0  0  0  0
  136.9190   70.7100  223.6690 C   0  0  0  0  0  0  0  0  0  0  0  0
  138.0690   70.8520  223.0630 N   0  0  0  0  0  0  0  0  0  0  0  0
  139.2520   71.6570  223.3980 C   0  0  2  0  0  0  0  0  0  0  0  0
  138.9563   72.3726  224.1793 H   0  0  0  0  0  0  0  0  0  0  0  0
  139.7170   72.5280  222.2180 C   0  0  0  0  0  0  0  0  0  0  0  0
  140.2024   73.4372  222.6023 H   0  0  0  0  0  0  0  0  0  0  0  0
  140.4328   71.9618  221.6040 H   0  0  0  0  0  0  0  0  0  0  0  0
  138.8482   72.8077  221.6040 H   0  0  0  0  0  0  0  0  0  0  0  0
  140.3710   70.8000  224.0300 C   0  0  0  0  0  0  0  0  0  0  0  0
  140.2346   69.7524  223.7236 H   0  0  0  0  0  0  0  0  0  0  0  0
  141.3398   71.1878  223.6821 H   0  0  0  0  0  0  0  0  0  0  0  0
  140.3450   70.8770  225.5360 C   0  0  0  0  0  0  0  0  0  0  0  0
  141.0540   71.8900  226.2050 C   0  0  0  0  0  0  0  0  0  0  0  0
  141.6115   72.6420  225.6273 H   0  0  0  0  0  0  0  0  0  0  0  0
  141.0530   71.9450  227.6020 C   0  0  0  0  0  0  0  0  0  0  0  0
  141.6045   72.7431  228.1206 H   0  0  0  0  0  0  0  0  0  0  0  0
  140.3520   70.9870  228.3410 C   0  0  0  0  0  0  0  0  0  0  0  0
  140.3521   71.0320  229.4401 H   0  0  0  0  0  0  0  0  0  0  0  0
  139.6510   69.9720  227.6830 C   0  0  0  0  0  0  0  0  0  0  0  0
  139.0998   69.2185  228.2648 H   0  0  0  0  0  0  0  0  0  0  0  0
  139.6500   69.9140  226.2860 C   0  0  0  0  0  0  0  0  0  0  0  0
  139.1023   69.1104  225.7719 H   0  0  0  0  0  0  0  0  0  0  0  0
  136.2930   71.7460  224.3080 N   0  0  0  0  0  0  0  0  0  0  0  0
  136.7340   72.6830  224.3620 H   0  0  0  0  0  0  0  0  0  0  0  0
  133.4120   72.5040  226.5550 C   0  0  0  0  0  0  0  0  0  0  0  0
  133.1048   71.4800  226.8138 H   0  0  0  0  0  0  0  0  0  0  0  0
  1  2  1  0
  2  3  2  0
  3  4  1  0
  4  5  1  0
  4  6  2  0
  6  7  1  0
  6  8  1  0
  8  9  1  0
  9 10  2  0
 10 11  1  0
 10 12  1  0
 12 13  2  0
 12 14  1  0
 14 15  1  0
 14 16  1  0
 16 17  2  0
 17 18  1  0
 18 19  1  1
 18 20  1  0
 20 21  1  0
 20 22  1  0
 20 23  1  0
 18 24  1  0
 24 25  1  0
 24 26  1  0
 24 27  1  0
 27 28  2  0
 28 29  1  0
 28 30  1  0
 30 31  1  0
 30 32  2  0
 32 33  1  0
 32 34  1  0
 34 35  1  0
 34 36  2  0
 36 37  1  0
 16 38  1  0
 38 39  1  0
  8 40  2  0
 40 41  1  0
 40  2  1  0
 38  9  1  0
 36 27  1  0
M  END
>  <UniqueID>  (26) 
6

>  <SMILES>  (26) 
C[C@H](Cc1ccccc1)/N=c1\[nH]c(-c2ccncc2)cc(=O)[nH]1

>  <Energy>  (26) 
52.65456979670249

>  <Genealogy>  (26) 
C[C@H](Cc1ccccc1)N=c1[nH]c(-c2ccncc2)cc(=O)[nH]1 (chirality)
C[C@H](Cc1ccccc1)/N=c1\[nH]c(-c2ccncc2)cc(=O)[nH]1 (cis-trans isomerization)
C[C@H](Cc1ccccc1)/N=c1\[nH]c(-c2ccncc2)cc(=O)[nH]1 (3D coordinates assigned)
C[C@H](Cc1ccccc1)/N=c1\[nH]c(-c2ccncc2)cc(=O)[nH]1 (optimized conformer: 52.65456979670249 kcal/mol)

>  <smiles>  (26) 
CC(Cc1ccccc1)N=c1[nH]c(-c2ccncc2)cc(=O)[nH]1

>  <score_type>  (26) 
oracle

>  <origin>  (26) 
autodockgpu

>  <m_score__min__energy>  (26) 
-7.8600000000000003

>  <m_primary>  (26) 
energy

>  <meeko>  (26) 
{"free_energy": -7.33, "intermolecular_energy": -8.82, "internal_energy": -0.86, "cluster_size": 6, "cluster_id": 2, "rank_in_cluster": 5}

>  <energy>  (26) 
-7.83

>  <cluster_rmsd>  (26) 
0.16

>  <rmsd>  (26) 
270.08

>  <cluster>  (26) 
1

$$$$
XBCCWEKCHRHPJI-UGJWUZOENA-N
     RDKit          3D

 41 43  0  0  0  0  0  0  0  0999 V2000
  144.9583   72.3584  217.1989 H   0  0  0  0  0  0  0  0  0  0  0  0
  144.9100   72.6690  218.2530 C   0  0  0  0  0  0  0  0  0  0  0  0
  146.0470   73.0180  218.9100 N   0  0  0  0  0  0  0  0  0  0  0  0
  146.0270   73.4050  220.2120 C   0  0  0  0  0  0  0  0  0  0  0  0
  146.9646   73.6796  220.7174 H   0  0  0  0  0  0  0  0  0  0  0  0
  144.8190   73.4550  220.9100 C   0  0  0  0  0  0  0  0  0  0  0  0
  144.8027   73.7702  221.9637 H   0  0  0  0  0  0  0  0  0  0  0  0
  143.6240   73.1010  220.2610 C   0  0  0  0  0  0  0  0  0  0  0  0
  142.3290   73.1520  220.9870 C   0  0  0  0  0  0  0  0  0  0  0  0
  141.6670   74.3720  221.1680 C   0  0  0  0  0  0  0  0  0  0  0  0
  142.0999   75.3069  220.7826 H   0  0  0  0  0  0  0  0  0  0  0  0
  140.4520   74.3800  221.8440 C   0  0  0  0  0  0  0  0  0  0  0  0
  139.8360   75.4660  222.0180 O   0  0  0  0  0  0  0  0  0  0  0  0
  139.9270   73.2170  222.3140 N   0  0  0  0  0  0  0  0  0  0  0  0
  139.0100   73.2400  222.8180 H   0  0  0  0  0  0  0  0  0  0  0  0
  140.5690   72.0290  222.1370 C   0  0  0  0  0  0  0  0  0  0  0  0
  140.0080   70.9460  222.6080 N   0  0  0  0  0  0  0  0  0  0  0  0
  139.2910   70.6910  223.8660 C   0  0  2  0  0  0  0  0  0  0  0  0
  139.2520   69.6014  224.0117 H   0  0  0  0  0  0  0  0  0  0  0  0
  137.8200   71.1350  223.7970 C   0  0  0  0  0  0  0  0  0  0  0  0
  137.4248   71.2543  224.8166 H   0  0  0  0  0  0  0  0  0  0  0  0
  137.7511   72.0940  223.2625 H   0  0  0  0  0  0  0  0  0  0  0  0
  137.2321   70.3743  223.2625 H   0  0  0  0  0  0  0  0  0  0  0  0
  140.0600   71.2390  225.0880 C   0  0  0  0  0  0  0  0  0  0  0  0
  141.0150   71.6653  224.7469 H   0  0  0  0  0  0  0  0  0  0  0  0
  139.4369   72.0065  225.5705 H   0  0  0  0  0  0  0  0  0  0  0  0
  140.3410   70.1560  226.0990 C   0  0  0  0  0  0  0  0  0  0  0  0
  140.0930   68.8100  225.7810 C   0  0  0  0  0  0  0  0  0  0  0  0
  139.7144   68.5433  224.7833 H   0  0  0  0  0  0  0  0  0  0  0  0
  140.3260   67.8080  226.7290 C   0  0  0  0  0  0  0  0  0  0  0  0
  140.1351   66.7552  226.4738 H   0  0  0  0  0  0  0  0  0  0  0  0
  140.8010   68.1430  228.0000 C   0  0  0  0  0  0  0  0  0  0  0  0
  140.9845   67.3539  228.7441 H   0  0  0  0  0  0  0  0  0  0  0  0
  141.0430   69.4810  228.3260 C   0  0  0  0  0  0  0  0  0  0  0  0
  141.4162   69.7439  229.3268 H   0  0  0  0  0  0  0  0  0  0  0  0
  140.8110   70.4850  227.3810 C   0  0  0  0  0  0  0  0  0  0  0  0
  140.9974   71.5370  227.6427 H   0  0  0  0  0  0  0  0  0  0  0  0
  141.7680   72.0070  221.4790 N   0  0  0  0  0  0  0  0  0  0  0  0
  142.2960   71.1220  221.3600 H   0  0  0  0  0  0  0  0  0  0  0  0
  143.6800   72.7040  218.9140 C   0  0  0  0  0  0  0  0  0  0  0  0
  142.7591   72.4220  218.3825 H   0  0  0  0  0  0  0  0  0  0  0  0
  1  2  1  0
  2  3  2  0
  3  4  1  0
  4  5  1  0
  4  6  2  0
  6  7  1  0
  6  8  1  0
  8  9  1  0
  9 10  2  0
 10 11  1  0
 10 12  1  0
 12 13  2  0
 12 14  1  0
 14 15  1  0
 14 16  1  0
 16 17  2  0
 17 18  1  0
 18 19  1  1
 18 20  1  0
 20 21  1  0
 20 22  1  0
 20 23  1  0
 18 24  1  0
 24 25  1  0
 24 26  1  0
 24 27  1  0
 27 28  2  0
 28 29  1  0
 28 30  1  0
 30 31  1  0
 30 32  2  0
 32 33  1  0
 32 34  1  0
 34 35  1  0
 34 36  2  0
 36 37  1  0
 16 38  1  0
 38 39  1  0
  8 40  2  0
 40 41  1  0
 40  2  1  0
 38  9  1  0
 36 27  1  0
M  END
>  <UniqueID>  (27) 
6

>  <SMILES>  (27) 
C[C@H](Cc1ccccc1)/N=c1\[nH]c(-c2ccncc2)cc(=O)[nH]1

>  <Energy>  (27) 
52.65456979670249

>  <Genealogy>  (27) 
C[C@H](Cc1ccccc1)N=c1[nH]c(-c2ccncc2)cc(=O)[nH]1 (chirality)
C[C@H](Cc1ccccc1)/N=c1\[nH]c(-c2ccncc2)cc(=O)[nH]1 (cis-trans isomerization)
C[C@H](Cc1ccccc1)/N=c1\[nH]c(-c2ccncc2)cc(=O)[nH]1 (3D coordinates assigned)
C[C@H](Cc1ccccc1)/N=c1\[nH]c(-c2ccncc2)cc(=O)[nH]1 (optimized conformer: 52.65456979670249 kcal/mol)

>  <smiles>  (27) 
CC(Cc1ccccc1)N=c1[nH]c(-c2ccncc2)cc(=O)[nH]1

>  <score_type>  (27) 
oracle

>  <origin>  (27) 
autodockgpu

>  <m_score__min__energy>  (27) 
-7.8600000000000003

>  <m_primary>  (27) 
energy

>  <meeko>  (27) 
{"free_energy": -7.74, "intermolecular_energy": -9.23, "internal_energy": -0.65, "cluster_size": 14, "cluster_id": 1, "rank_in_cluster": 9}

>  <energy>  (27) 
-7.83

>  <cluster_rmsd>  (27) 
0.17

>  <rmsd>  (27) 
270.08

>  <cluster>  (27) 
1

$$$$
XBCCWEKCHRHPJI-UGJWUZOENA-N
     RDKit          3D

 41 43  0  0  0  0  0  0  0  0999 V2000
  146.9574   73.3290  220.7070 H   0  0  0  0  0  0  0  0  0  0  0  0
  145.9950   73.2750  220.1770 C   0  0  0  0  0  0  0  0  0  0  0  0
  145.9680   73.0060  218.8450 N   0  0  0  0  0  0  0  0  0  0  0  0
  144.8000   72.9320  218.1570 C   0  0  0  0  0  0  0  0  0  0  0  0
  144.8111   72.7140  217.0789 H   0  0  0  0  0  0  0  0  0  0  0  0
  143.5840   73.1320  218.8150 C   0  0  0  0  0  0  0  0  0  0  0  0
  142.6377   73.0706  218.2576 H   0  0  0  0  0  0  0  0  0  0  0  0
  143.5750   73.4120  220.1920 C   0  0  0  0  0  0  0  0  0  0  0  0
  142.2910   73.6230  220.9090 C   0  0  0  0  0  0  0  0  0  0  0  0
  141.8190   74.9200  221.1470 C   0  0  0  0  0  0  0  0  0  0  0  0
  142.3954   75.7958  220.8142 H   0  0  0  0  0  0  0  0  0  0  0  0
  140.6080   75.0800  221.8120 C   0  0  0  0  0  0  0  0  0  0  0  0
  140.1630   76.2370  222.0350 O   0  0  0  0  0  0  0  0  0  0  0  0
  139.9050   73.9890  222.2160 N   0  0  0  0  0  0  0  0  0  0  0  0
  138.9940   74.1270  222.7130 H   0  0  0  0  0  0  0  0  0  0  0  0
  140.3620   72.7270  221.9840 C   0  0  0  0  0  0  0  0  0  0  0  0
  139.6350   71.7200  222.3930 N   0  0  0  0  0  0  0  0  0  0  0  0
  139.6930   70.9150  223.6220 C   0  0  2  0  0  0  0  0  0  0  0  0
  140.0678   69.9174  223.3493 H   0  0  0  0  0  0  0  0  0  0  0  0
  138.2970   70.6650  224.2200 C   0  0  0  0  0  0  0  0  0  0  0  0
  138.3611   70.6765  225.3181 H   0  0  0  0  0  0  0  0  0  0  0  0
  137.6078   71.4540  223.8847 H   0  0  0  0  0  0  0  0  0  0  0  0
  137.9244   69.6858  223.8847 H   0  0  0  0  0  0  0  0  0  0  0  0
  140.7200   71.4770  224.6290 C   0  0  0  0  0  0  0  0  0  0  0  0
  141.7224   71.4347  224.1780 H   0  0  0  0  0  0  0  0  0  0  0  0
  140.4393   72.5141  224.8648 H   0  0  0  0  0  0  0  0  0  0  0  0
  140.7270   70.6860  225.9130 C   0  0  0  0  0  0  0  0  0  0  0  0
  140.7400   69.2810  225.8790 C   0  0  0  0  0  0  0  0  0  0  0  0
  140.7676   68.7562  224.9127 H   0  0  0  0  0  0  0  0  0  0  0  0
  140.7180   68.5480  227.0700 C   0  0  0  0  0  0  0  0  0  0  0  0
  140.7338   67.4486  227.0385 H   0  0  0  0  0  0  0  0  0  0  0  0
  140.6760   69.2100  228.3000 C   0  0  0  0  0  0  0  0  0  0  0  0
  140.6594   68.6315  229.2355 H   0  0  0  0  0  0  0  0  0  0  0  0
  140.6550   70.6070  228.3420 C   0  0  0  0  0  0  0  0  0  0  0  0
  140.6211   71.1271  229.3107 H   0  0  0  0  0  0  0  0  0  0  0  0
  140.6770   71.3440  227.1540 C   0  0  0  0  0  0  0  0  0  0  0  0
  140.6551   72.4432  227.1908 H   0  0  0  0  0  0  0  0  0  0  0  0
  141.5550   72.5550  221.3360 N   0  0  0  0  0  0  0  0  0  0  0  0
  141.9440   71.6070  221.1760 H   0  0  0  0  0  0  0  0  0  0  0  0
  144.8020   73.4830  220.8740 C   0  0  0  0  0  0  0  0  0  0  0  0
  144.8230   73.7014  221.9519 H   0  0  0  0  0  0  0  0  0  0  0  0
  1  2  1  0
  2  3  2  0
  3  4  1  0
  4  5  1  0
  4  6  2  0
  6  7  1  0
  6  8  1  0
  8  9  1  0
  9 10  2  0
 10 11  1  0
 10 12  1  0
 12 13  2  0
 12 14  1  0
 14 15  1  0
 14 16  1  0
 16 17  2  0
 17 18  1  0
 18 19  1  6
 18 20  1  0
 20 21  1  0
 20 22  1  0
 20 23  1  0
 18 24  1  0
 24 25  1  0
 24 26  1  0
 24 27  1  0
 27 28  2  0
 28 29  1  0
 28 30  1  0
 30 31  1  0
 30 32  2  0
 32 33  1  0
 32 34  1  0
 34 35  1  0
 34 36  2  0
 36 37  1  0
 16 38  1  0
 38 39  1  0
  8 40  2  0
 40 41  1  0
 40  2  1  0
 38  9  1  0
 36 27  1  0
M  END
>  <UniqueID>  (28) 
6

>  <SMILES>  (28) 
C[C@H](Cc1ccccc1)/N=c1\[nH]c(-c2ccncc2)cc(=O)[nH]1

>  <Energy>  (28) 
52.65456979670249

>  <Genealogy>  (28) 
C[C@H](Cc1ccccc1)N=c1[nH]c(-c2ccncc2)cc(=O)[nH]1 (chirality)
C[C@H](Cc1ccccc1)/N=c1\[nH]c(-c2ccncc2)cc(=O)[nH]1 (cis-trans isomerization)
C[C@H](Cc1ccccc1)/N=c1\[nH]c(-c2ccncc2)cc(=O)[nH]1 (3D coordinates assigned)
C[C@H](Cc1ccccc1)/N=c1\[nH]c(-c2ccncc2)cc(=O)[nH]1 (optimized conformer: 52.65456979670249 kcal/mol)

>  <smiles>  (28) 
CC(Cc1ccccc1)N=c1[nH]c(-c2ccncc2)cc(=O)[nH]1

>  <score_type>  (28) 
oracle

>  <origin>  (28) 
autodockgpu

>  <m_score__min__energy>  (28) 
-7.8600000000000003

>  <m_primary>  (28) 
energy

>  <meeko>  (28) 
{"free_energy": -7.86, "intermolecular_energy": -9.35, "internal_energy": -0.67, "cluster_size": 14, "cluster_id": 1, "rank_in_cluster": 2}

>  <energy>  (28) 
-7.78

>  <cluster_rmsd>  (28) 
0.53

>  <rmsd>  (28) 
270.02

>  <cluster>  (28) 
1

$$$$
XBCCWEKCHRHPJI-UGJWUZOENA-N
     RDKit          3D

 41 43  0  0  0  0  0  0  0  0999 V2000
  144.8326   72.3954  217.1795 H   0  0  0  0  0  0  0  0  0  0  0  0
  144.8140   72.7400  218.2240 C   0  0  0  0  0  0  0  0  0  0  0  0
  145.9790   72.9770  218.8800 N   0  0  0  0  0  0  0  0  0  0  0  0
  145.9970   73.4030  220.1690 C   0  0  0  0  0  0  0  0  0  0  0  0
  146.9573   73.5855  220.6735 H   0  0  0  0  0  0  0  0  0  0  0  0
  144.7980   73.6100  220.8560 C   0  0  0  0  0  0  0  0  0  0  0  0
  144.8123   73.9556  221.9002 H   0  0  0  0  0  0  0  0  0  0  0  0
  143.5750   73.3750  220.2080 C   0  0  0  0  0  0  0  0  0  0  0  0
  142.2900   73.5940  220.9220 C   0  0  0  0  0  0  0  0  0  0  0  0
  141.8260   74.8930  221.1600 C   0  0  0  0  0  0  0  0  0  0  0  0
  142.4087   75.7654  220.8294 H   0  0  0  0  0  0  0  0  0  0  0  0
  140.6150   75.0600  221.8220 C   0  0  0  0  0  0  0  0  0  0  0  0
  140.1760   76.2200  222.0470 O   0  0  0  0  0  0  0  0  0  0  0  0
  139.9030   73.9730  222.2230 N   0  0  0  0  0  0  0  0  0  0  0  0
  138.9920   74.1160  222.7180 H   0  0  0  0  0  0  0  0  0  0  0  0
  140.3530   72.7080  221.9900 C   0  0  0  0  0  0  0  0  0  0  0  0
  139.6180   71.7050  222.3970 N   0  0  0  0  0  0  0  0  0  0  0  0
  139.6650   70.9020  223.6260 C   0  0  2  0  0  0  0  0  0  0  0  0
  140.0220   69.8980  223.3531 H   0  0  0  0  0  0  0  0  0  0  0  0
  138.2660   70.6770  224.2280 C   0  0  0  0  0  0  0  0  0  0  0  0
  138.3332   70.6878  225.3259 H   0  0  0  0  0  0  0  0  0  0  0  0
  137.5900   71.4780  223.8941 H   0  0  0  0  0  0  0  0  0  0  0  0
  137.8752   69.7045  223.8941 H   0  0  0  0  0  0  0  0  0  0  0  0
  140.7040   71.4460  224.6300 C   0  0  0  0  0  0  0  0  0  0  0  0
  141.7022   71.4016  224.1700 H   0  0  0  0  0  0  0  0  0  0  0  0
  140.4319   72.4823  224.8791 H   0  0  0  0  0  0  0  0  0  0  0  0
  140.7170   70.6420  225.9060 C   0  0  0  0  0  0  0  0  0  0  0  0
  140.7120   69.2380  225.8580 C   0  0  0  0  0  0  0  0  0  0  0  0
  140.7207   68.7229  224.8861 H   0  0  0  0  0  0  0  0  0  0  0  0
  140.6960   68.4930  227.0410 C   0  0  0  0  0  0  0  0  0  0  0  0
  140.6984   67.3939  226.9977 H   0  0  0  0  0  0  0  0  0  0  0  0
  140.6770   69.1420  228.2780 C   0  0  0  0  0  0  0  0  0  0  0  0
  140.6644   68.5541  229.2076 H   0  0  0  0  0  0  0  0  0  0  0  0
  140.6740   70.5400  228.3340 C   0  0  0  0  0  0  0  0  0  0  0  0
  140.6590   71.0508  229.3081 H   0  0  0  0  0  0  0  0  0  0  0  0
  140.6900   71.2880  227.1540 C   0  0  0  0  0  0  0  0  0  0  0  0
  140.6814   72.3869  227.2019 H   0  0  0  0  0  0  0  0  0  0  0  0
  141.5460   72.5300  221.3450 N   0  0  0  0  0  0  0  0  0  0  0  0
  141.9290   71.5790  221.1850 H   0  0  0  0  0  0  0  0  0  0  0  0
  143.5910   72.9330  218.8730 C   0  0  0  0  0  0  0  0  0  0  0  0
  142.6468   72.7403  218.3427 H   0  0  0  0  0  0  0  0  0  0  0  0
  1  2  1  0
  2  3  2  0
  3  4  1  0
  4  5  1  0
  4  6  2  0
  6  7  1  0
  6  8  1  0
  8  9  1  0
  9 10  2  0
 10 11  1  0
 10 12  1  0
 12 13  2  0
 12 14  1  0
 14 15  1  0
 14 16  1  0
 16 17  2  0
 17 18  1  0
 18 19  1  6
 18 20  1  0
 20 21  1  0
 20 22  1  0
 20 23  1  0
 18 24  1  0
 24 25  1  0
 24 26  1  0
 24 27  1  0
 27 28  2  0
 28 29  1  0
 28 30  1  0
 30 31  1  0
 30 32  2  0
 32 33  1  0
 32 34  1  0
 34 35  1  0
 34 36  2  0
 36 37  1  0
 16 38  1  0
 38 39  1  0
  8 40  2  0
 40 41  1  0
 40  2  1  0
 38  9  1  0
 36 27  1  0
M  END
>  <UniqueID>  (29) 
6

>  <SMILES>  (29) 
C[C@H](Cc1ccccc1)/N=c1\[nH]c(-c2ccncc2)cc(=O)[nH]1

>  <Energy>  (29) 
52.65456979670249

>  <Genealogy>  (29) 
C[C@H](Cc1ccccc1)N=c1[nH]c(-c2ccncc2)cc(=O)[nH]1 (chirality)
C[C@H](Cc1ccccc1)/N=c1\[nH]c(-c2ccncc2)cc(=O)[nH]1 (cis-trans isomerization)
C[C@H](Cc1ccccc1)/N=c1\[nH]c(-c2ccncc2)cc(=O)[nH]1 (3D coordinates assigned)
C[C@H](Cc1ccccc1)/N=c1\[nH]c(-c2ccncc2)cc(=O)[nH]1 (optimized conformer: 52.65456979670249 kcal/mol)

>  <smiles>  (29) 
CC(Cc1ccccc1)N=c1[nH]c(-c2ccncc2)cc(=O)[nH]1

>  <score_type>  (29) 
oracle

>  <origin>  (29) 
autodockgpu

>  <m_score__min__energy>  (29) 
-7.8600000000000003

>  <m_primary>  (29) 
energy

>  <meeko>  (29) 
{"free_energy": -7.86, "intermolecular_energy": -9.35, "internal_energy": -0.67, "cluster_size": 14, "cluster_id": 1, "rank_in_cluster": 1}

>  <energy>  (29) 
-7.74

>  <cluster_rmsd>  (29) 
0.65

>  <rmsd>  (29) 
269.97

>  <cluster>  (29) 
1

$$$$
XBCCWEKCHRHPJI-UGJWUZOENA-N
     RDKit          3D

 41 43  0  0  0  0  0  0  0  0999 V2000
  134.0205   76.1745  225.9104 H   0  0  0  0  0  0  0  0  0  0  0  0
  133.8240   75.1060  226.0830 C   0  0  0  0  0  0  0  0  0  0  0  0
  132.8620   74.7280  226.9640 N   0  0  0  0  0  0  0  0  0  0  0  0
  132.5910   73.4180  227.2040 C   0  0  0  0  0  0  0  0  0  0  0  0
  131.8071   73.1426  227.9249 H   0  0  0  0  0  0  0  0  0  0  0  0
  133.3060   72.4210  226.5370 C   0  0  0  0  0  0  0  0  0  0  0  0
  133.0854   71.3607  226.7297 H   0  0  0  0  0  0  0  0  0  0  0  0
  134.3080   72.7770  225.6190 C   0  0  0  0  0  0  0  0  0  0  0  0
  135.0760   71.7290  224.8980 C   0  0  0  0  0  0  0  0  0  0  0  0
  134.6100   70.4100  224.8630 C   0  0  0  0  0  0  0  0  0  0  0  0
  133.6763   70.1318  225.3737 H   0  0  0  0  0  0  0  0  0  0  0  0
  135.3500   69.4570  224.1700 C   0  0  0  0  0  0  0  0  0  0  0  0
  134.9490   68.2630  224.1230 O   0  0  0  0  0  0  0  0  0  0  0  0
  136.5000   69.8150  223.5410 N   0  0  0  0  0  0  0  0  0  0  0  0
  137.0440   69.0870  223.0220 H   0  0  0  0  0  0  0  0  0  0  0  0
  136.9540   71.1000  223.5730 C   0  0  0  0  0  0  0  0  0  0  0  0
  138.0660   71.3790  222.9430 N   0  0  0  0  0  0  0  0  0  0  0  0
  139.4490   71.5040  223.4220 C   0  0  2  0  0  0  0  0  0  0  0  0
  139.4910   72.3742  224.0935 H   0  0  0  0  0  0  0  0  0  0  0  0
  140.4310   71.8320  222.2830 C   0  0  0  0  0  0  0  0  0  0  0  0
  141.3928   72.1533  222.7093 H   0  0  0  0  0  0  0  0  0  0  0  0
  140.5855   70.9367  221.6629 H   0  0  0  0  0  0  0  0  0  0  0  0
  140.0164   72.6405  221.6629 H   0  0  0  0  0  0  0  0  0  0  0  0
  139.8690   70.2980  224.2900 C   0  0  0  0  0  0  0  0  0  0  0  0
  139.0424   69.5728  224.3176 H   0  0  0  0  0  0  0  0  0  0  0  0
  140.7694   69.8500  223.8445 H   0  0  0  0  0  0  0  0  0  0  0  0
  140.1990   70.7180  225.7000 C   0  0  0  0  0  0  0  0  0  0  0  0
  139.6840   69.9980  226.7920 C   0  0  0  0  0  0  0  0  0  0  0  0
  139.0561   69.1119  226.6170 H   0  0  0  0  0  0  0  0  0  0  0  0
  139.9670   70.4040  228.1000 C   0  0  0  0  0  0  0  0  0  0  0  0
  139.5663   69.8338  228.9511 H   0  0  0  0  0  0  0  0  0  0  0  0
  140.7580   71.5330  228.3270 C   0  0  0  0  0  0  0  0  0  0  0  0
  140.9800   71.8505  229.3565 H   0  0  0  0  0  0  0  0  0  0  0  0
  141.2680   72.2600  227.2460 C   0  0  0  0  0  0  0  0  0  0  0  0
  141.8903   73.1490  227.4258 H   0  0  0  0  0  0  0  0  0  0  0  0
  140.9870   71.8570  225.9380 C   0  0  0  0  0  0  0  0  0  0  0  0
  141.3846   72.4342  225.0902 H   0  0  0  0  0  0  0  0  0  0  0  0
  136.2390   72.0450  224.2560 N   0  0  0  0  0  0  0  0  0  0  0  0
  136.5790   73.0230  224.3260 H   0  0  0  0  0  0  0  0  0  0  0  0
  134.5650   74.1410  225.3950 C   0  0  0  0  0  0  0  0  0  0  0  0
  135.3449   74.4470  224.6822 H   0  0  0  0  0  0  0  0  0  0  0  0
  1  2  1  0
  2  3  2  0
  3  4  1  0
  4  5  1  0
  4  6  2  0
  6  7  1  0
  6  8  1  0
  8  9  1  0
  9 10  2  0
 10 11  1  0
 10 12  1  0
 12 13  2  0
 12 14  1  0
 14 15  1  0
 14 16  1  0
 16 17  2  0
 17 18  1  0
 18 19  1  1
 18 20  1  0
 20 21  1  0
 20 22  1  0
 20 23  1  0
 18 24  1  0
 24 25  1  0
 24 26  1  0
 24 27  1  0
 27 28  2  0
 28 29  1  0
 28 30  1  0
 30 31  1  0
 30 32  2  0
 32 33  1  0
 32 34  1  0
 34 35  1  0
 34 36  2  0
 36 37  1  0
 16 38  1  0
 38 39  1  0
  8 40  2  0
 40 41  1  0
 40  2  1  0
 38  9  1  0
 36 27  1  0
M  END
>  <UniqueID>  (30) 
6

>  <SMILES>  (30) 
C[C@H](Cc1ccccc1)/N=c1\[nH]c(-c2ccncc2)cc(=O)[nH]1

>  <Energy>  (30) 
52.65456979670249

>  <Genealogy>  (30) 
C[C@H](Cc1ccccc1)N=c1[nH]c(-c2ccncc2)cc(=O)[nH]1 (chirality)
C[C@H](Cc1ccccc1)/N=c1\[nH]c(-c2ccncc2)cc(=O)[nH]1 (cis-trans isomerization)
C[C@H](Cc1ccccc1)/N=c1\[nH]c(-c2ccncc2)cc(=O)[nH]1 (3D coordinates assigned)
C[C@H](Cc1ccccc1)/N=c1\[nH]c(-c2ccncc2)cc(=O)[nH]1 (optimized conformer: 52.65456979670249 kcal/mol)

>  <smiles>  (30) 
CC(Cc1ccccc1)N=c1[nH]c(-c2ccncc2)cc(=O)[nH]1

>  <score_type>  (30) 
oracle

>  <origin>  (30) 
autodockgpu

>  <m_score__min__energy>  (30) 
-7.8600000000000003

>  <m_primary>  (30) 
energy

>  <meeko>  (30) 
{"free_energy": -7.53, "intermolecular_energy": -9.02, "internal_energy": -0.84, "cluster_size": 6, "cluster_id": 2, "rank_in_cluster": 3}

>  <energy>  (30) 
-7.72

>  <cluster_rmsd>  (30) 
0.5

>  <rmsd>  (30) 
270.02

>  <cluster>  (30) 
1

$$$$
XBCCWEKCHRHPJI-UGJWUZOENA-N
     RDKit          3D

 41 43  0  0  0  0  0  0  0  0999 V2000
  144.8624   72.8178  217.1194 H   0  0  0  0  0  0  0  0  0  0  0  0
  144.8290   72.9920  218.2050 C   0  0  0  0  0  0  0  0  0  0  0  0
  145.9820   73.0170  218.9230 N   0  0  0  0  0  0  0  0  0  0  0  0
  145.9800   73.2300  220.2650 C   0  0  0  0  0  0  0  0  0  0  0  0
  146.9298   73.2442  220.8196 H   0  0  0  0  0  0  0  0  0  0  0  0
  144.7750   73.4310  220.9420 C   0  0  0  0  0  0  0  0  0  0  0  0
  144.7738   73.6042  222.0283 H   0  0  0  0  0  0  0  0  0  0  0  0
  143.5640   73.4110  220.2290 C   0  0  0  0  0  0  0  0  0  0  0  0
  142.2730   73.6270  220.9320 C   0  0  0  0  0  0  0  0  0  0  0  0
  141.7970   74.9240  221.1530 C   0  0  0  0  0  0  0  0  0  0  0  0
  142.3748   75.7974  220.8164 H   0  0  0  0  0  0  0  0  0  0  0  0
  140.5800   75.0890  221.8060 C   0  0  0  0  0  0  0  0  0  0  0  0
  140.1290   76.2470  222.0140 O   0  0  0  0  0  0  0  0  0  0  0  0
  139.8750   74.0000  222.2140 N   0  0  0  0  0  0  0  0  0  0  0  0
  138.9590   74.1400  222.7020 H   0  0  0  0  0  0  0  0  0  0  0  0
  140.3370   72.7360  221.9990 C   0  0  0  0  0  0  0  0  0  0  0  0
  139.6080   71.7320  222.4120 N   0  0  0  0  0  0  0  0  0  0  0  0
  139.7280   70.8640  223.5920 C   0  0  2  0  0  0  0  0  0  0  0  0
  140.1738   69.9138  223.2628 H   0  0  0  0  0  0  0  0  0  0  0  0
  138.3570   70.4780  224.1720 C   0  0  0  0  0  0  0  0  0  0  0  0
  138.4066   70.4920  225.2708 H   0  0  0  0  0  0  0  0  0  0  0  0
  137.5985   71.1975  223.8300 H   0  0  0  0  0  0  0  0  0  0  0  0
  138.0853   69.4684  223.8300 H   0  0  0  0  0  0  0  0  0  0  0  0
  140.7140   71.4410  224.6310 C   0  0  0  0  0  0  0  0  0  0  0  0
  141.7350   71.3814  224.2259 H   0  0  0  0  0  0  0  0  0  0  0  0
  140.4314   72.4851  224.8311 H   0  0  0  0  0  0  0  0  0  0  0  0
  140.6580   70.6790  225.9320 C   0  0  0  0  0  0  0  0  0  0  0  0
  140.8230   69.2830  225.9420 C   0  0  0  0  0  0  0  0  0  0  0  0
  141.0165   68.7472  225.0010 H   0  0  0  0  0  0  0  0  0  0  0  0
  140.7420   68.5730  227.1440 C   0  0  0  0  0  0  0  0  0  0  0  0
  140.8760   67.4812  227.1473 H   0  0  0  0  0  0  0  0  0  0  0  0
  140.4910   69.2490  228.3410 C   0  0  0  0  0  0  0  0  0  0  0  0
  140.4294   68.6893  229.2860 H   0  0  0  0  0  0  0  0  0  0  0  0
  140.3180   70.6370  228.3380 C   0  0  0  0  0  0  0  0  0  0  0  0
  140.1188   71.1681  229.2805 H   0  0  0  0  0  0  0  0  0  0  0  0
  140.3980   71.3490  227.1390 C   0  0  0  0  0  0  0  0  0  0  0  0
  140.2567   72.4399  227.1399 H   0  0  0  0  0  0  0  0  0  0  0  0
  141.5360   72.5610  221.3630 N   0  0  0  0  0  0  0  0  0  0  0  0
  141.9280   71.6120  221.2160 H   0  0  0  0  0  0  0  0  0  0  0  0
  143.6010   73.1870  218.8420 C   0  0  0  0  0  0  0  0  0  0  0  0
  142.6674   73.1653  218.2607 H   0  0  0  0  0  0  0  0  0  0  0  0
  1  2  1  0
  2  3  2  0
  3  4  1  0
  4  5  1  0
  4  6  2  0
  6  7  1  0
  6  8  1  0
  8  9  1  0
  9 10  2  0
 10 11  1  0
 10 12  1  0
 12 13  2  0
 12 14  1  0
 14 15  1  0
 14 16  1  0
 16 17  2  0
 17 18  1  0
 18 19  1  6
 18 20  1  0
 20 21  1  0
 20 22  1  0
 20 23  1  0
 18 24  1  0
 24 25  1  0
 24 26  1  0
 24 27  1  0
 27 28  2  0
 28 29  1  0
 28 30  1  0
 30 31  1  0
 30 32  2  0
 32 33  1  0
 32 34  1  0
 34 35  1  0
 34 36  2  0
 36 37  1  0
 16 38  1  0
 38 39  1  0
  8 40  2  0
 40 41  1  0
 40  2  1  0
 38  9  1  0
 36 27  1  0
M  END
>  <UniqueID>  (31) 
6

>  <SMILES>  (31) 
C[C@H](Cc1ccccc1)/N=c1\[nH]c(-c2ccncc2)cc(=O)[nH]1

>  <Energy>  (31) 
52.65456979670249

>  <Genealogy>  (31) 
C[C@H](Cc1ccccc1)N=c1[nH]c(-c2ccncc2)cc(=O)[nH]1 (chirality)
C[C@H](Cc1ccccc1)/N=c1\[nH]c(-c2ccncc2)cc(=O)[nH]1 (cis-trans isomerization)
C[C@H](Cc1ccccc1)/N=c1\[nH]c(-c2ccncc2)cc(=O)[nH]1 (3D coordinates assigned)
C[C@H](Cc1ccccc1)/N=c1\[nH]c(-c2ccncc2)cc(=O)[nH]1 (optimized conformer: 52.65456979670249 kcal/mol)

>  <smiles>  (31) 
CC(Cc1ccccc1)N=c1[nH]c(-c2ccncc2)cc(=O)[nH]1

>  <score_type>  (31) 
oracle

>  <origin>  (31) 
autodockgpu

>  <m_score__min__energy>  (31) 
-7.8600000000000003

>  <m_primary>  (31) 
energy

>  <meeko>  (31) 
{"free_energy": -7.83, "intermolecular_energy": -9.32, "internal_energy": -0.67, "cluster_size": 14, "cluster_id": 1, "rank_in_cluster": 6}

>  <energy>  (31) 
-7.53

>  <cluster_rmsd>  (31) 
0.87

>  <rmsd>  (31) 
270.0

>  <cluster>  (31) 
1

$$$$
XBCCWEKCHRHPJI-UGJWUZOENA-N
     RDKit          3D

 41 43  0  0  0  0  0  0  0  0999 V2000
  131.8434   73.1433  227.9853 H   0  0  0  0  0  0  0  0  0  0  0  0
  132.6250   73.4080  227.2580 C   0  0  0  0  0  0  0  0  0  0  0  0
  132.9050   74.7140  227.0090 N   0  0  0  0  0  0  0  0  0  0  0  0
  133.8630   75.0800  226.1180 C   0  0  0  0  0  0  0  0  0  0  0  0
  134.0660   76.1459  225.9370 H   0  0  0  0  0  0  0  0  0  0  0  0
  134.5910   74.1050  225.4310 C   0  0  0  0  0  0  0  0  0  0  0  0
  135.3678   74.4007  224.7105 H   0  0  0  0  0  0  0  0  0  0  0  0
  134.3260   72.7450  225.6650 C   0  0  0  0  0  0  0  0  0  0  0  0
  135.0930   71.6950  224.9460 C   0  0  0  0  0  0  0  0  0  0  0  0
  134.6320   70.3740  224.9220 C   0  0  0  0  0  0  0  0  0  0  0  0
  133.7025   70.0959  225.4404 H   0  0  0  0  0  0  0  0  0  0  0  0
  135.3700   69.4190  224.2310 C   0  0  0  0  0  0  0  0  0  0  0  0
  134.9740   68.2230  224.1940 O   0  0  0  0  0  0  0  0  0  0  0  0
  136.5160   69.7770  223.5920 N   0  0  0  0  0  0  0  0  0  0  0  0
  137.0590   69.0470  223.0740 H   0  0  0  0  0  0  0  0  0  0  0  0
  136.9650   71.0630  223.6130 C   0  0  0  0  0  0  0  0  0  0  0  0
  138.0720   71.3420  222.9740 N   0  0  0  0  0  0  0  0  0  0  0  0
  139.4700   71.3910  223.4260 C   0  0  2  0  0  0  0  0  0  0  0  0
  139.5826   72.2796  224.0645 H   0  0  0  0  0  0  0  0  0  0  0  0
  140.4500   71.6130  222.2620 C   0  0  0  0  0  0  0  0  0  0  0  0
  141.4493   71.8394  222.6621 H   0  0  0  0  0  0  0  0  0  0  0  0
  140.4993   70.7033  221.6456 H   0  0  0  0  0  0  0  0  0  0  0  0
  140.1024   72.4552  221.6456 H   0  0  0  0  0  0  0  0  0  0  0  0
  139.8240   70.1900  224.3300 C   0  0  0  0  0  0  0  0  0  0  0  0
  138.9609   69.5094  224.3733 H   0  0  0  0  0  0  0  0  0  0  0  0
  140.7023   69.6846  223.9019 H   0  0  0  0  0  0  0  0  0  0  0  0
  140.1700   70.6310  225.7300 C   0  0  0  0  0  0  0  0  0  0  0  0
  139.6640   69.9310  226.8380 C   0  0  0  0  0  0  0  0  0  0  0  0
  139.0315   69.0443  226.6842 H   0  0  0  0  0  0  0  0  0  0  0  0
  139.9620   70.3580  228.1360 C   0  0  0  0  0  0  0  0  0  0  0  0
  139.5677   69.8036  229.0004 H   0  0  0  0  0  0  0  0  0  0  0  0
  140.7600   71.4880  228.3370 C   0  0  0  0  0  0  0  0  0  0  0  0
  140.9944   71.8215  229.3587 H   0  0  0  0  0  0  0  0  0  0  0  0
  141.2600   72.1940  227.2390 C   0  0  0  0  0  0  0  0  0  0  0  0
  141.8867   73.0840  227.3976 H   0  0  0  0  0  0  0  0  0  0  0  0
  140.9650   71.7710  225.9400 C   0  0  0  0  0  0  0  0  0  0  0  0
  141.3564   72.3323  225.0788 H   0  0  0  0  0  0  0  0  0  0  0  0
  136.2520   72.0100  224.2950 N   0  0  0  0  0  0  0  0  0  0  0  0
  136.5880   72.9900  224.3560 H   0  0  0  0  0  0  0  0  0  0  0  0
  133.3280   72.4000  226.5920 C   0  0  0  0  0  0  0  0  0  0  0  0
  133.1012   71.3425  226.7925 H   0  0  0  0  0  0  0  0  0  0  0  0
  1  2  1  0
  2  3  2  0
  3  4  1  0
  4  5  1  0
  4  6  2  0
  6  7  1  0
  6  8  1  0
  8  9  1  0
  9 10  2  0
 10 11  1  0
 10 12  1  0
 12 13  2  0
 12 14  1  0
 14 15  1  0
 14 16  1  0
 16 17  2  0
 17 18  1  0
 18 19  1  1
 18 20  1  0
 20 21  1  0
 20 22  1  0
 20 23  1  0
 18 24  1  0
 24 25  1  0
 24 26  1  0
 24 27  1  0
 27 28  2  0
 28 29  1  0
 28 30  1  0
 30 31  1  0
 30 32  2  0
 32 33  1  0
 32 34  1  0
 34 35  1  0
 34 36  2  0
 36 37  1  0
 16 38  1  0
 38 39  1  0
  8 40  2  0
 40 41  1  0
 40  2  1  0
 38  9  1  0
 36 27  1  0
M  END
>  <UniqueID>  (32) 
6

>  <SMILES>  (32) 
C[C@H](Cc1ccccc1)/N=c1\[nH]c(-c2ccncc2)cc(=O)[nH]1

>  <Energy>  (32) 
52.65456979670249

>  <Genealogy>  (32) 
C[C@H](Cc1ccccc1)N=c1[nH]c(-c2ccncc2)cc(=O)[nH]1 (chirality)
C[C@H](Cc1ccccc1)/N=c1\[nH]c(-c2ccncc2)cc(=O)[nH]1 (cis-trans isomerization)
C[C@H](Cc1ccccc1)/N=c1\[nH]c(-c2ccncc2)cc(=O)[nH]1 (3D coordinates assigned)
C[C@H](Cc1ccccc1)/N=c1\[nH]c(-c2ccncc2)cc(=O)[nH]1 (optimized conformer: 52.65456979670249 kcal/mol)

>  <smiles>  (32) 
CC(Cc1ccccc1)N=c1[nH]c(-c2ccncc2)cc(=O)[nH]1

>  <score_type>  (32) 
oracle

>  <origin>  (32) 
autodockgpu

>  <m_score__min__energy>  (32) 
-7.8600000000000003

>  <m_primary>  (32) 
energy

>  <meeko>  (32) 
{"free_energy": -7.5, "intermolecular_energy": -8.99, "internal_energy": -0.85, "cluster_size": 6, "cluster_id": 2, "rank_in_cluster": 4}

>  <energy>  (32) 
-7.52

>  <cluster_rmsd>  (32) 
0.89

>  <rmsd>  (32) 
270.02

>  <cluster>  (32) 
1

$$$$
XBCCWEKCHRHPJI-UGJWUZOENA-N
     RDKit          3D

 41 43  0  0  0  0  0  0  0  0999 V2000
  146.3887   74.4294  220.3936 H   0  0  0  0  0  0  0  0  0  0  0  0
  145.6480   73.6410  220.1940 C   0  0  0  0  0  0  0  0  0  0  0  0
  145.9610   72.6120  219.3650 N   0  0  0  0  0  0  0  0  0  0  0  0
  145.0720   71.6210  219.0940 C   0  0  0  0  0  0  0  0  0  0  0  0
  145.3538   70.8010  218.4171 H   0  0  0  0  0  0  0  0  0  0  0  0
  143.8010   71.6410  219.6730 C   0  0  0  0  0  0  0  0  0  0  0  0
  143.0818   70.8380  219.4542 H   0  0  0  0  0  0  0  0  0  0  0  0
  143.4450   72.6910  220.5360 C   0  0  0  0  0  0  0  0  0  0  0  0
  142.0990   72.7260  221.1630 C   0  0  0  0  0  0  0  0  0  0  0  0
  141.4660   73.9500  221.4110 C   0  0  0  0  0  0  0  0  0  0  0  0
  141.9598   74.8983  221.1524 H   0  0  0  0  0  0  0  0  0  0  0  0
  140.2020   73.9450  221.9900 C   0  0  0  0  0  0  0  0  0  0  0  0
  139.6110   75.0340  222.2210 O   0  0  0  0  0  0  0  0  0  0  0  0
  139.6030   72.7650  222.3040 N   0  0  0  0  0  0  0  0  0  0  0  0
  138.6500   72.7780  222.7370 H   0  0  0  0  0  0  0  0  0  0  0  0
  140.2170   71.5740  222.0620 C   0  0  0  0  0  0  0  0  0  0  0  0
  139.5840   70.4750  222.3830 N   0  0  0  0  0  0  0  0  0  0  0  0
  138.9550   70.0470  223.6400 C   0  0  2  0  0  0  0  0  0  0  0  0
  138.2330   69.2535  223.3970 H   0  0  0  0  0  0  0  0  0  0  0  0
  138.1150   71.1660  224.2810 C   0  0  0  0  0  0  0  0  0  0  0  0
  138.1742   71.0871  225.3766 H   0  0  0  0  0  0  0  0  0  0  0  0
  138.5035   72.1445  223.9623 H   0  0  0  0  0  0  0  0  0  0  0  0
  137.0669   71.0661  223.9623 H   0  0  0  0  0  0  0  0  0  0  0  0
  139.9740   69.3940  224.6000 C   0  0  0  0  0  0  0  0  0  0  0  0
  139.5759   68.4261  224.9387 H   0  0  0  0  0  0  0  0  0  0  0  0
  140.9215   69.2608  224.0574 H   0  0  0  0  0  0  0  0  0  0  0  0
  140.2380   70.2630  225.8040 C   0  0  0  0  0  0  0  0  0  0  0  0
  141.0520   71.4030  225.6890 C   0  0  0  0  0  0  0  0  0  0  0  0
  141.4789   71.6753  224.7125 H   0  0  0  0  0  0  0  0  0  0  0  0
  141.3210   72.1920  226.8110 C   0  0  0  0  0  0  0  0  0  0  0  0
  141.9562   73.0849  226.7150 H   0  0  0  0  0  0  0  0  0  0  0  0
  140.7840   71.8480  228.0550 C   0  0  0  0  0  0  0  0  0  0  0  0
  140.9946   72.4716  228.9364 H   0  0  0  0  0  0  0  0  0  0  0  0
  139.9790   70.7110  228.1790 C   0  0  0  0  0  0  0  0  0  0  0  0
  139.5581   70.4397  229.1584 H   0  0  0  0  0  0  0  0  0  0  0  0
  139.7090   69.9190  227.0590 C   0  0  0  0  0  0  0  0  0  0  0  0
  139.0796   69.0226  227.1610 H   0  0  0  0  0  0  0  0  0  0  0  0
  141.4630   71.5650  221.4980 N   0  0  0  0  0  0  0  0  0  0  0  0
  141.9690   70.6740  221.3350 H   0  0  0  0  0  0  0  0  0  0  0  0
  144.3880   73.7010  220.7940 C   0  0  0  0  0  0  0  0  0  0  0  0
  144.1349   74.5348  221.4653 H   0  0  0  0  0  0  0  0  0  0  0  0
  1  2  1  0
  2  3  2  0
  3  4  1  0
  4  5  1  0
  4  6  2  0
  6  7  1  0
  6  8  1  0
  8  9  1  0
  9 10  2  0
 10 11  1  0
 10 12  1  0
 12 13  2  0
 12 14  1  0
 14 15  1  0
 14 16  1  0
 16 17  2  0
 17 18  1  0
 18 19  1  6
 18 20  1  0
 20 21  1  0
 20 22  1  0
 20 23  1  0
 18 24  1  0
 24 25  1  0
 24 26  1  0
 24 27  1  0
 27 28  2  0
 28 29  1  0
 28 30  1  0
 30 31  1  0
 30 32  2  0
 32 33  1  0
 32 34  1  0
 34 35  1  0
 34 36  2  0
 36 37  1  0
 16 38  1  0
 38 39  1  0
  8 40  2  0
 40 41  1  0
 40  2  1  0
 38  9  1  0
 36 27  1  0
M  END
>  <UniqueID>  (33) 
6

>  <SMILES>  (33) 
C[C@H](Cc1ccccc1)/N=c1\[nH]c(-c2ccncc2)cc(=O)[nH]1

>  <Energy>  (33) 
52.65456979670249

>  <Genealogy>  (33) 
C[C@H](Cc1ccccc1)N=c1[nH]c(-c2ccncc2)cc(=O)[nH]1 (chirality)
C[C@H](Cc1ccccc1)/N=c1\[nH]c(-c2ccncc2)cc(=O)[nH]1 (cis-trans isomerization)
C[C@H](Cc1ccccc1)/N=c1\[nH]c(-c2ccncc2)cc(=O)[nH]1 (3D coordinates assigned)
C[C@H](Cc1ccccc1)/N=c1\[nH]c(-c2ccncc2)cc(=O)[nH]1 (optimized conformer: 52.65456979670249 kcal/mol)

>  <smiles>  (33) 
CC(Cc1ccccc1)N=c1[nH]c(-c2ccncc2)cc(=O)[nH]1

>  <score_type>  (33) 
oracle

>  <origin>  (33) 
autodockgpu

>  <m_score__min__energy>  (33) 
-7.8600000000000003

>  <m_primary>  (33) 
energy

>  <meeko>  (33) 
{"free_energy": -7.35, "intermolecular_energy": -8.84, "internal_energy": -0.82, "cluster_size": 14, "cluster_id": 1, "rank_in_cluster": 14}

>  <energy>  (33) 
-7.5

>  <cluster_rmsd>  (33) 
0.85

>  <rmsd>  (33) 
270.0

>  <cluster>  (33) 
1

$$$$
XBCCWEKCHRHPJI-UGJWUZOENA-N
     RDKit          3D

 41 43  0  0  0  0  0  0  0  0999 V2000
  131.9542   73.4106  227.9684 H   0  0  0  0  0  0  0  0  0  0  0  0
  132.7390   73.6140  227.2250 C   0  0  0  0  0  0  0  0  0  0  0  0
  133.0820   74.8960  226.9350 N   0  0  0  0  0  0  0  0  0  0  0  0
  134.0450   75.1870  226.0220 C   0  0  0  0  0  0  0  0  0  0  0  0
  134.2993   76.2355  225.8075 H   0  0  0  0  0  0  0  0  0  0  0  0
  134.7130   74.1570  225.3550 C   0  0  0  0  0  0  0  0  0  0  0  0
  135.4940   74.3922  224.6169 H   0  0  0  0  0  0  0  0  0  0  0  0
  134.3830   72.8200  225.6310 C   0  0  0  0  0  0  0  0  0  0  0  0
  135.0860   71.7120  224.9340 C   0  0  0  0  0  0  0  0  0  0  0  0
  134.5500   70.4180  224.9430 C   0  0  0  0  0  0  0  0  0  0  0  0
  133.6093   70.2049  225.4719 H   0  0  0  0  0  0  0  0  0  0  0  0
  135.2290   69.4080  224.2710 C   0  0  0  0  0  0  0  0  0  0  0  0
  134.7660   68.2360  224.2630 O   0  0  0  0  0  0  0  0  0  0  0  0
  136.3900   69.6850  223.6210 N   0  0  0  0  0  0  0  0  0  0  0  0
  136.8890   68.9140  223.1180 H   0  0  0  0  0  0  0  0  0  0  0  0
  136.9120   70.9440  223.6100 C   0  0  0  0  0  0  0  0  0  0  0  0
  138.0300   71.1450  222.9610 N   0  0  0  0  0  0  0  0  0  0  0  0
  139.3970   71.4010  223.4360 C   0  0  2  0  0  0  0  0  0  0  0  0
  139.3609   72.2823  224.0932 H   0  0  0  0  0  0  0  0  0  0  0  0
  140.3460   71.7970  222.2910 C   0  0  0  0  0  0  0  0  0  0  0  0
  141.2842   72.1885  222.7112 H   0  0  0  0  0  0  0  0  0  0  0  0
  140.5619   70.9139  221.6717 H   0  0  0  0  0  0  0  0  0  0  0  0
  139.8702   72.5716  221.6717 H   0  0  0  0  0  0  0  0  0  0  0  0
  139.9230   70.2510  224.3220 C   0  0  0  0  0  0  0  0  0  0  0  0
  139.1636   69.4563  224.3635 H   0  0  0  0  0  0  0  0  0  0  0  0
  140.8589   69.8773  223.8811 H   0  0  0  0  0  0  0  0  0  0  0  0
  140.2170   70.7210  225.7250 C   0  0  0  0  0  0  0  0  0  0  0  0
  141.0180   71.8560  225.9370 C   0  0  0  0  0  0  0  0  0  0  0  0
  141.4134   72.4165  225.0771 H   0  0  0  0  0  0  0  0  0  0  0  0
  141.3140   72.2750  227.2380 C   0  0  0  0  0  0  0  0  0  0  0  0
  141.9372   73.1669  227.3993 H   0  0  0  0  0  0  0  0  0  0  0  0
  140.8190   71.5620  228.3340 C   0  0  0  0  0  0  0  0  0  0  0  0
  141.0528   71.8934  229.3565 H   0  0  0  0  0  0  0  0  0  0  0  0
  140.0270   70.4280  228.1310 C   0  0  0  0  0  0  0  0  0  0  0  0
  139.6381   69.8675  228.9939 H   0  0  0  0  0  0  0  0  0  0  0  0
  139.7290   70.0060  226.8320 C   0  0  0  0  0  0  0  0  0  0  0  0
  139.1098   69.1103  226.6757 H   0  0  0  0  0  0  0  0  0  0  0  0
  136.2570   71.9460  224.2720 N   0  0  0  0  0  0  0  0  0  0  0  0
  136.6490   72.9050  224.3100 H   0  0  0  0  0  0  0  0  0  0  0  0
  133.3810   72.5530  226.5810 C   0  0  0  0  0  0  0  0  0  0  0  0
  133.1042   71.5146  226.8158 H   0  0  0  0  0  0  0  0  0  0  0  0
  1  2  1  0
  2  3  2  0
  3  4  1  0
  4  5  1  0
  4  6  2  0
  6  7  1  0
  6  8  1  0
  8  9  1  0
  9 10  2  0
 10 11  1  0
 10 12  1  0
 12 13  2  0
 12 14  1  0
 14 15  1  0
 14 16  1  0
 16 17  2  0
 17 18  1  0
 18 19  1  1
 18 20  1  0
 20 21  1  0
 20 22  1  0
 20 23  1  0
 18 24  1  0
 24 25  1  0
 24 26  1  0
 24 27  1  0
 27 28  2  0
 28 29  1  0
 28 30  1  0
 30 31  1  0
 30 32  2  0
 32 33  1  0
 32 34  1  0
 34 35  1  0
 34 36  2  0
 36 37  1  0
 16 38  1  0
 38 39  1  0
  8 40  2  0
 40 41  1  0
 40  2  1  0
 38  9  1  0
 36 27  1  0
M  END
>  <UniqueID>  (34) 
6

>  <SMILES>  (34) 
C[C@H](Cc1ccccc1)/N=c1\[nH]c(-c2ccncc2)cc(=O)[nH]1

>  <Energy>  (34) 
52.65456979670249

>  <Genealogy>  (34) 
C[C@H](Cc1ccccc1)N=c1[nH]c(-c2ccncc2)cc(=O)[nH]1 (chirality)
C[C@H](Cc1ccccc1)/N=c1\[nH]c(-c2ccncc2)cc(=O)[nH]1 (cis-trans isomerization)
C[C@H](Cc1ccccc1)/N=c1\[nH]c(-c2ccncc2)cc(=O)[nH]1 (3D coordinates assigned)
C[C@H](Cc1ccccc1)/N=c1\[nH]c(-c2ccncc2)cc(=O)[nH]1 (optimized conformer: 52.65456979670249 kcal/mol)

>  <smiles>  (34) 
CC(Cc1ccccc1)N=c1[nH]c(-c2ccncc2)cc(=O)[nH]1

>  <score_type>  (34) 
oracle

>  <origin>  (34) 
autodockgpu

>  <m_score__min__energy>  (34) 
-7.8600000000000003

>  <m_primary>  (34) 
energy

>  <meeko>  (34) 
{"free_energy": -7.57, "intermolecular_energy": -9.06, "internal_energy": -0.82, "cluster_size": 6, "cluster_id": 2, "rank_in_cluster": 1}

>  <energy>  (34) 
-7.35

>  <cluster_rmsd>  (34) 
1.11

>  <rmsd>  (34) 
269.95

>  <cluster>  (34) 
1

$$$$
XBCCWEKCHRHPJI-UGJWUZOENA-N
     RDKit          3D

 41 43  0  0  0  0  0  0  0  0999 V2000
  146.9079   73.7773  220.6548 H   0  0  0  0  0  0  0  0  0  0  0  0
  145.9530   73.5040  220.1820 C   0  0  0  0  0  0  0  0  0  0  0  0
  145.9440   72.9580  218.9380 N   0  0  0  0  0  0  0  0  0  0  0  0
  144.7860   72.6090  218.3210 C   0  0  0  0  0  0  0  0  0  0  0  0
  144.8118   72.1704  217.3125 H   0  0  0  0  0  0  0  0  0  0  0  0
  143.5610   72.8060  218.9650 C   0  0  0  0  0  0  0  0  0  0  0  0
  142.6226   72.5222  218.4662 H   0  0  0  0  0  0  0  0  0  0  0  0
  143.5340   73.3680  220.2520 C   0  0  0  0  0  0  0  0  0  0  0  0
  142.2410   73.5810  220.9530 C   0  0  0  0  0  0  0  0  0  0  0  0
  141.7730   74.8780  221.1940 C   0  0  0  0  0  0  0  0  0  0  0  0
  142.3584   75.7530  220.8752 H   0  0  0  0  0  0  0  0  0  0  0  0
  140.5540   75.0400  221.8440 C   0  0  0  0  0  0  0  0  0  0  0  0
  140.1110   76.1980  222.0700 O   0  0  0  0  0  0  0  0  0  0  0  0
  139.8400   73.9500  222.2300 N   0  0  0  0  0  0  0  0  0  0  0  0
  138.9230   74.0890  222.7150 H   0  0  0  0  0  0  0  0  0  0  0  0
  140.2930   72.6870  221.9950 C   0  0  0  0  0  0  0  0  0  0  0  0
  139.5550   71.6810  222.3870 N   0  0  0  0  0  0  0  0  0  0  0  0
  139.6190   70.8400  223.5910 C   0  0  2  0  0  0  0  0  0  0  0  0
  139.9489   69.8378  223.2800 H   0  0  0  0  0  0  0  0  0  0  0  0
  138.2330   70.6240  224.2230 C   0  0  0  0  0  0  0  0  0  0  0  0
  138.3236   70.6381  225.3192 H   0  0  0  0  0  0  0  0  0  0  0  0
  137.5539   71.4272  223.9009 H   0  0  0  0  0  0  0  0  0  0  0  0
  137.8305   69.6523  223.9009 H   0  0  0  0  0  0  0  0  0  0  0  0
  140.6950   71.3350  224.5820 C   0  0  0  0  0  0  0  0  0  0  0  0
  141.6888   71.1801  224.1367 H   0  0  0  0  0  0  0  0  0  0  0  0
  140.5156   72.4020  224.7803 H   0  0  0  0  0  0  0  0  0  0  0  0
  140.6250   70.5930  225.8930 C   0  0  0  0  0  0  0  0  0  0  0  0
  140.5130   71.3020  227.1020 C   0  0  0  0  0  0  0  0  0  0  0  0
  140.4535   72.4003  227.0902 H   0  0  0  0  0  0  0  0  0  0  0  0
  140.4770   70.6150  228.3190 C   0  0  0  0  0  0  0  0  0  0  0  0
  140.3847   71.1736  229.2621 H   0  0  0  0  0  0  0  0  0  0  0  0
  140.5580   69.2200  228.3400 C   0  0  0  0  0  0  0  0  0  0  0  0
  140.5282   68.6818  229.2989 H   0  0  0  0  0  0  0  0  0  0  0  0
  140.6770   68.5080  227.1420 C   0  0  0  0  0  0  0  0  0  0  0  0
  140.7423   67.4101  227.1591 H   0  0  0  0  0  0  0  0  0  0  0  0
  140.7130   69.1910  225.9230 C   0  0  0  0  0  0  0  0  0  0  0  0
  140.8107   68.6283  224.9829 H   0  0  0  0  0  0  0  0  0  0  0  0
  141.4940   72.5140  221.3620 N   0  0  0  0  0  0  0  0  0  0  0  0
  141.8800   71.5650  221.2010 H   0  0  0  0  0  0  0  0  0  0  0  0
  144.7510   73.7190  220.8620 C   0  0  0  0  0  0  0  0  0  0  0  0
  144.7572   74.1606  221.8694 H   0  0  0  0  0  0  0  0  0  0  0  0
  1  2  1  0
  2  3  2  0
  3  4  1  0
  4  5  1  0
  4  6  2  0
  6  7  1  0
  6  8  1  0
  8  9  1  0
  9 10  2  0
 10 11  1  0
 10 12  1  0
 12 13  2  0
 12 14  1  0
 14 15  1  0
 14 16  1  0
 16 17  2  0
 17 18  1  0
 18 19  1  6
 18 20  1  0
 20 21  1  0
 20 22  1  0
 20 23  1  0
 18 24  1  0
 24 25  1  0
 24 26  1  0
 24 27  1  0
 27 28  2  0
 28 29  1  0
 28 30  1  0
 30 31  1  0
 30 32  2  0
 32 33  1  0
 32 34  1  0
 34 35  1  0
 34 36  2  0
 36 37  1  0
 16 38  1  0
 38 39  1  0
  8 40  2  0
 40 41  1  0
 40  2  1  0
 38  9  1  0
 36 27  1  0
M  END
>  <UniqueID>  (35) 
6

>  <SMILES>  (35) 
C[C@H](Cc1ccccc1)/N=c1\[nH]c(-c2ccncc2)cc(=O)[nH]1

>  <Energy>  (35) 
52.65456979670249

>  <Genealogy>  (35) 
C[C@H](Cc1ccccc1)N=c1[nH]c(-c2ccncc2)cc(=O)[nH]1 (chirality)
C[C@H](Cc1ccccc1)/N=c1\[nH]c(-c2ccncc2)cc(=O)[nH]1 (cis-trans isomerization)
C[C@H](Cc1ccccc1)/N=c1\[nH]c(-c2ccncc2)cc(=O)[nH]1 (3D coordinates assigned)
C[C@H](Cc1ccccc1)/N=c1\[nH]c(-c2ccncc2)cc(=O)[nH]1 (optimized conformer: 52.65456979670249 kcal/mol)

>  <smiles>  (35) 
CC(Cc1ccccc1)N=c1[nH]c(-c2ccncc2)cc(=O)[nH]1

>  <score_type>  (35) 
oracle

>  <origin>  (35) 
autodockgpu

>  <m_score__min__energy>  (35) 
-7.8600000000000003

>  <m_primary>  (35) 
energy

>  <meeko>  (35) 
{"free_energy": -7.84, "intermolecular_energy": -9.33, "internal_energy": -0.68, "cluster_size": 14, "cluster_id": 1, "rank_in_cluster": 4}

>  <energy>  (35) 
-7.57

>  <cluster_rmsd>  (35) 
0.0

>  <rmsd>  (35) 
269.59

>  <cluster>  (35) 
2

$$$$
XBCCWEKCHRHPJI-UGJWUZOENA-N
     RDKit          3D

 41 43  0  0  0  0  0  0  0  0999 V2000
  134.0555   76.1512  226.0288 H   0  0  0  0  0  0  0  0  0  0  0  0
  133.8540   75.0810  226.1840 C   0  0  0  0  0  0  0  0  0  0  0  0
  132.8870   74.6920  227.0560 N   0  0  0  0  0  0  0  0  0  0  0  0
  132.6100   73.3800  227.2740 C   0  0  0  0  0  0  0  0  0  0  0  0
  131.8216   73.0967  227.9869 H   0  0  0  0  0  0  0  0  0  0  0  0
  133.3240   72.3900  226.5950 C   0  0  0  0  0  0  0  0  0  0  0  0
  133.0991   71.3277  226.7710 H   0  0  0  0  0  0  0  0  0  0  0  0
  134.3310   72.7570  225.6860 C   0  0  0  0  0  0  0  0  0  0  0  0
  135.0980   71.7180  224.9520 C   0  0  0  0  0  0  0  0  0  0  0  0
  134.6370   70.3970  224.9100 C   0  0  0  0  0  0  0  0  0  0  0  0
  133.7080   70.1114  225.4252 H   0  0  0  0  0  0  0  0  0  0  0  0
  135.3750   69.4520  224.2050 C   0  0  0  0  0  0  0  0  0  0  0  0
  134.9790   68.2570  224.1520 O   0  0  0  0  0  0  0  0  0  0  0  0
  136.5200   69.8190  223.5720 N   0  0  0  0  0  0  0  0  0  0  0  0
  137.0630   69.0970  223.0430 H   0  0  0  0  0  0  0  0  0  0  0  0
  136.9700   71.1050  223.6100 C   0  0  0  0  0  0  0  0  0  0  0  0
  138.0760   71.3930  222.9750 N   0  0  0  0  0  0  0  0  0  0  0  0
  139.4630   71.5160  223.4450 C   0  0  2  0  0  0  0  0  0  0  0  0
  139.5105   72.3870  224.1152 H   0  0  0  0  0  0  0  0  0  0  0  0
  140.4390   71.8420  222.3010 C   0  0  0  0  0  0  0  0  0  0  0  0
  141.4029   72.1640  222.7219 H   0  0  0  0  0  0  0  0  0  0  0  0
  140.5904   70.9457  221.6816 H   0  0  0  0  0  0  0  0  0  0  0  0
  140.0214   72.6494  221.6816 H   0  0  0  0  0  0  0  0  0  0  0  0
  139.8860   70.3090  224.3110 C   0  0  0  0  0  0  0  0  0  0  0  0
  139.0586   69.5849  224.3427 H   0  0  0  0  0  0  0  0  0  0  0  0
  140.7837   69.8602  223.8608 H   0  0  0  0  0  0  0  0  0  0  0  0
  140.2240   70.7280  225.7200 C   0  0  0  0  0  0  0  0  0  0  0  0
  139.7150   70.0080  226.8140 C   0  0  0  0  0  0  0  0  0  0  0  0
  139.0853   69.1226  226.6422 H   0  0  0  0  0  0  0  0  0  0  0  0
  140.0060   70.4130  228.1200 C   0  0  0  0  0  0  0  0  0  0  0  0
  139.6102   69.8421  228.9729 H   0  0  0  0  0  0  0  0  0  0  0  0
  140.7990   71.5420  228.3440 C   0  0  0  0  0  0  0  0  0  0  0  0
  141.0274   71.8587  229.3724 H   0  0  0  0  0  0  0  0  0  0  0  0
  141.3020   72.2690  227.2600 C   0  0  0  0  0  0  0  0  0  0  0  0
  141.9247   73.1585  227.4363 H   0  0  0  0  0  0  0  0  0  0  0  0
  141.0140   71.8660  225.9530 C   0  0  0  0  0  0  0  0  0  0  0  0
  141.4077   72.4426  225.1030 H   0  0  0  0  0  0  0  0  0  0  0  0
  136.2560   72.0420  224.3050 N   0  0  0  0  0  0  0  0  0  0  0  0
  136.5920   73.0210  224.3810 H   0  0  0  0  0  0  0  0  0  0  0  0
  134.5930   74.1230  225.4840 C   0  0  0  0  0  0  0  0  0  0  0  0
  135.3761   74.4368  224.7781 H   0  0  0  0  0  0  0  0  0  0  0  0
  1  2  1  0
  2  3  2  0
  3  4  1  0
  4  5  1  0
  4  6  2  0
  6  7  1  0
  6  8  1  0
  8  9  1  0
  9 10  2  0
 10 11  1  0
 10 12  1  0
 12 13  2  0
 12 14  1  0
 14 15  1  0
 14 16  1  0
 16 17  2  0
 17 18  1  0
 18 19  1  1
 18 20  1  0
 20 21  1  0
 20 22  1  0
 20 23  1  0
 18 24  1  0
 24 25  1  0
 24 26  1  0
 24 27  1  0
 27 28  2  0
 28 29  1  0
 28 30  1  0
 30 31  1  0
 30 32  2  0
 32 33  1  0
 32 34  1  0
 34 35  1  0
 34 36  2  0
 36 37  1  0
 16 38  1  0
 38 39  1  0
  8 40  2  0
 40 41  1  0
 40  2  1  0
 38  9  1  0
 36 27  1  0
M  END
>  <UniqueID>  (36) 
6

>  <SMILES>  (36) 
C[C@H](Cc1ccccc1)/N=c1\[nH]c(-c2ccncc2)cc(=O)[nH]1

>  <Energy>  (36) 
52.65456979670249

>  <Genealogy>  (36) 
C[C@H](Cc1ccccc1)N=c1[nH]c(-c2ccncc2)cc(=O)[nH]1 (chirality)
C[C@H](Cc1ccccc1)/N=c1\[nH]c(-c2ccncc2)cc(=O)[nH]1 (cis-trans isomerization)
C[C@H](Cc1ccccc1)/N=c1\[nH]c(-c2ccncc2)cc(=O)[nH]1 (3D coordinates assigned)
C[C@H](Cc1ccccc1)/N=c1\[nH]c(-c2ccncc2)cc(=O)[nH]1 (optimized conformer: 52.65456979670249 kcal/mol)

>  <smiles>  (36) 
CC(Cc1ccccc1)N=c1[nH]c(-c2ccncc2)cc(=O)[nH]1

>  <score_type>  (36) 
oracle

>  <origin>  (36) 
autodockgpu

>  <m_score__min__energy>  (36) 
-7.8600000000000003

>  <m_primary>  (36) 
energy

>  <meeko>  (36) 
{"free_energy": -7.53, "intermolecular_energy": -9.02, "internal_energy": -0.84, "cluster_size": 6, "cluster_id": 2, "rank_in_cluster": 2}

>  <energy>  (36) 
-7.53

>  <cluster_rmsd>  (36) 
0.16

>  <rmsd>  (36) 
269.61

>  <cluster>  (36) 
2

$$$$
XBCCWEKCHRHPJI-UGJWUZOENA-N
     RDKit          3D

 41 43  0  0  0  0  0  0  0  0999 V2000
  145.1299   72.0316  217.3783 H   0  0  0  0  0  0  0  0  0  0  0  0
  145.0440   72.5040  218.3680 C   0  0  0  0  0  0  0  0  0  0  0  0
  146.1450   73.0280  218.9670 N   0  0  0  0  0  0  0  0  0  0  0  0
  146.0780   73.6180  220.1890 C   0  0  0  0  0  0  0  0  0  0  0  0
  146.9875   74.0313  220.6494 H   0  0  0  0  0  0  0  0  0  0  0  0
  144.8570   73.7010  220.8620 C   0  0  0  0  0  0  0  0  0  0  0  0
  144.8024   74.1808  221.8503 H   0  0  0  0  0  0  0  0  0  0  0  0
  143.6990   73.1690  220.2710 C   0  0  0  0  0  0  0  0  0  0  0  0
  142.3910   73.2510  220.9710 C   0  0  0  0  0  0  0  0  0  0  0  0
  141.7750   74.4920  221.1750 C   0  0  0  0  0  0  0  0  0  0  0  0
  142.2541   75.4193  220.8277 H   0  0  0  0  0  0  0  0  0  0  0  0
  140.5460   74.5300  221.8250 C   0  0  0  0  0  0  0  0  0  0  0  0
  139.9710   75.6350  222.0170 O   0  0  0  0  0  0  0  0  0  0  0  0
  139.9640   73.3760  222.2480 N   0  0  0  0  0  0  0  0  0  0  0  0
  139.0380   73.4220  222.7340 H   0  0  0  0  0  0  0  0  0  0  0  0
  140.5620   72.1680  222.0500 C   0  0  0  0  0  0  0  0  0  0  0  0
  139.9470   71.0960  222.4760 N   0  0  0  0  0  0  0  0  0  0  0  0
  139.3460   70.7730  223.7780 C   0  0  2  0  0  0  0  0  0  0  0  0
  139.4182   69.6842  223.9170 H   0  0  0  0  0  0  0  0  0  0  0  0
  137.8380   71.0800  223.8140 C   0  0  0  0  0  0  0  0  0  0  0  0
  137.5026   71.1483  224.8594 H   0  0  0  0  0  0  0  0  0  0  0  0
  137.6461   72.0356  223.3042 H   0  0  0  0  0  0  0  0  0  0  0  0
  137.2877   70.2755  223.3042 H   0  0  0  0  0  0  0  0  0  0  0  0
  140.1440   71.3880  224.9490 C   0  0  0  0  0  0  0  0  0  0  0  0
  141.1288   71.7101  224.5798 H   0  0  0  0  0  0  0  0  0  0  0  0
  139.5739   72.2422  225.3431 H   0  0  0  0  0  0  0  0  0  0  0  0
  140.3410   70.3960  226.0670 C   0  0  0  0  0  0  0  0  0  0  0  0
  140.8560   70.8180  227.3050 C   0  0  0  0  0  0  0  0  0  0  0  0
  141.0948   71.8797  227.4656 H   0  0  0  0  0  0  0  0  0  0  0  0
  141.0660   69.8940  228.3330 C   0  0  0  0  0  0  0  0  0  0  0  0
  141.4650   70.2304  229.3013 H   0  0  0  0  0  0  0  0  0  0  0  0
  140.7690   68.5420  228.1310 C   0  0  0  0  0  0  0  0  0  0  0  0
  140.9336   67.8157  228.9406 H   0  0  0  0  0  0  0  0  0  0  0  0
  140.2630   68.1140  226.9000 C   0  0  0  0  0  0  0  0  0  0  0  0
  140.0300   67.0507  226.7416 H   0  0  0  0  0  0  0  0  0  0  0  0
  140.0530   69.0350  225.8710 C   0  0  0  0  0  0  0  0  0  0  0  0
  139.6601   68.6929  224.9022 H   0  0  0  0  0  0  0  0  0  0  0  0
  141.7740   72.1170  221.4170 N   0  0  0  0  0  0  0  0  0  0  0  0
  142.2680   71.2150  221.2830 H   0  0  0  0  0  0  0  0  0  0  0  0
  143.8020   72.5640  219.0070 C   0  0  0  0  0  0  0  0  0  0  0  0
  142.9101   72.1398  218.5228 H   0  0  0  0  0  0  0  0  0  0  0  0
  1  2  1  0
  2  3  2  0
  3  4  1  0
  4  5  1  0
  4  6  2  0
  6  7  1  0
  6  8  1  0
  8  9  1  0
  9 10  2  0
 10 11  1  0
 10 12  1  0
 12 13  2  0
 12 14  1  0
 14 15  1  0
 14 16  1  0
 16 17  2  0
 17 18  1  0
 18 19  1  1
 18 20  1  0
 20 21  1  0
 20 22  1  0
 20 23  1  0
 18 24  1  0
 24 25  1  0
 24 26  1  0
 24 27  1  0
 27 28  2  0
 28 29  1  0
 28 30  1  0
 30 31  1  0
 30 32  2  0
 32 33  1  0
 32 34  1  0
 34 35  1  0
 34 36  2  0
 36 37  1  0
 16 38  1  0
 38 39  1  0
  8 40  2  0
 40 41  1  0
 40  2  1  0
 38  9  1  0
 36 27  1  0
M  END
>  <UniqueID>  (37) 
6

>  <SMILES>  (37) 
C[C@H](Cc1ccccc1)/N=c1\[nH]c(-c2ccncc2)cc(=O)[nH]1

>  <Energy>  (37) 
52.65456979670249

>  <Genealogy>  (37) 
C[C@H](Cc1ccccc1)N=c1[nH]c(-c2ccncc2)cc(=O)[nH]1 (chirality)
C[C@H](Cc1ccccc1)/N=c1\[nH]c(-c2ccncc2)cc(=O)[nH]1 (cis-trans isomerization)
C[C@H](Cc1ccccc1)/N=c1\[nH]c(-c2ccncc2)cc(=O)[nH]1 (3D coordinates assigned)
C[C@H](Cc1ccccc1)/N=c1\[nH]c(-c2ccncc2)cc(=O)[nH]1 (optimized conformer: 52.65456979670249 kcal/mol)

>  <smiles>  (37) 
CC(Cc1ccccc1)N=c1[nH]c(-c2ccncc2)cc(=O)[nH]1

>  <score_type>  (37) 
oracle

>  <origin>  (37) 
autodockgpu

>  <m_score__min__energy>  (37) 
-7.8600000000000003

>  <m_primary>  (37) 
energy

>  <meeko>  (37) 
{"free_energy": -7.78, "intermolecular_energy": -9.27, "internal_energy": -0.66, "cluster_size": 14, "cluster_id": 1, "rank_in_cluster": 8}

>  <energy>  (37) 
-7.53

>  <cluster_rmsd>  (37) 
0.16

>  <rmsd>  (37) 
269.56

>  <cluster>  (37) 
2

$$$$
XBCCWEKCHRHPJI-UGJWUZOENA-N
     RDKit          3D

 41 43  0  0  0  0  0  0  0  0999 V2000
  147.0435   73.5835  220.7052 H   0  0  0  0  0  0  0  0  0  0  0  0
  146.0990   73.3590  220.1880 C   0  0  0  0  0  0  0  0  0  0  0  0
  146.1110   73.0120  218.8740 N   0  0  0  0  0  0  0  0  0  0  0  0
  144.9660   72.7290  218.2010 C   0  0  0  0  0  0  0  0  0  0  0  0
  145.0083   72.4529  217.1371 H   0  0  0  0  0  0  0  0  0  0  0  0
  143.7340   72.7880  218.8580 C   0  0  0  0  0  0  0  0  0  0  0  0
  142.8063   72.5575  218.3137 H   0  0  0  0  0  0  0  0  0  0  0  0
  143.6850   73.1430  220.2170 C   0  0  0  0  0  0  0  0  0  0  0  0
  142.3840   73.2070  220.9320 C   0  0  0  0  0  0  0  0  0  0  0  0
  141.7840   74.4430  221.1970 C   0  0  0  0  0  0  0  0  0  0  0  0
  142.2702   75.3800  220.8877 H   0  0  0  0  0  0  0  0  0  0  0  0
  140.5610   74.4640  221.8590 C   0  0  0  0  0  0  0  0  0  0  0  0
  140.0000   75.5650  222.1070 O   0  0  0  0  0  0  0  0  0  0  0  0
  139.9710   73.2990  222.2350 N   0  0  0  0  0  0  0  0  0  0  0  0
  139.0490   73.3320  222.7300 H   0  0  0  0  0  0  0  0  0  0  0  0
  140.5530   72.0950  221.9760 C   0  0  0  0  0  0  0  0  0  0  0  0
  139.9300   71.0100  222.3590 N   0  0  0  0  0  0  0  0  0  0  0  0
  139.4230   70.5940  223.6740 C   0  0  2  0  0  0  0  0  0  0  0  0
  139.8389   69.5992  223.8918 H   0  0  0  0  0  0  0  0  0  0  0  0
  137.8980   70.3950  223.6720 C   0  0  0  0  0  0  0  0  0  0  0  0
  137.5331   70.3474  224.7086 H   0  0  0  0  0  0  0  0  0  0  0  0
  137.4189   71.2382  223.1530 H   0  0  0  0  0  0  0  0  0  0  0  0
  137.6513   69.4570  223.1530 H   0  0  0  0  0  0  0  0  0  0  0  0
  139.9400   71.5090  224.8060 C   0  0  0  0  0  0  0  0  0  0  0  0
  140.8405   72.0354  224.4566 H   0  0  0  0  0  0  0  0  0  0  0  0
  139.1433   72.2225  225.0631 H   0  0  0  0  0  0  0  0  0  0  0  0
  140.2840   70.7190  226.0440 C   0  0  0  0  0  0  0  0  0  0  0  0
  140.7340   71.3780  227.2010 C   0  0  0  0  0  0  0  0  0  0  0  0
  140.8141   72.4750  227.2109 H   0  0  0  0  0  0  0  0  0  0  0  0
  141.0800   70.6440  228.3390 C   0  0  0  0  0  0  0  0  0  0  0  0
  141.4277   71.1647  229.2434 H   0  0  0  0  0  0  0  0  0  0  0  0
  140.9850   69.2490  228.3300 C   0  0  0  0  0  0  0  0  0  0  0  0
  141.2563   68.6733  229.2272 H   0  0  0  0  0  0  0  0  0  0  0  0
  140.5450   68.5860  227.1800 C   0  0  0  0  0  0  0  0  0  0  0  0
  140.4719   67.4885  227.1724 H   0  0  0  0  0  0  0  0  0  0  0  0
  140.1980   69.3170  226.0400 C   0  0  0  0  0  0  0  0  0  0  0  0
  139.8561   68.7919  225.1359 H   0  0  0  0  0  0  0  0  0  0  0  0
  141.7590   72.0600  221.3300 N   0  0  0  0  0  0  0  0  0  0  0  0
  142.2420   71.1600  221.1510 H   0  0  0  0  0  0  0  0  0  0  0  0
  144.8890   73.4310  220.8830 C   0  0  0  0  0  0  0  0  0  0  0  0
  144.8786   73.7118  221.9465 H   0  0  0  0  0  0  0  0  0  0  0  0
  1  2  1  0
  2  3  2  0
  3  4  1  0
  4  5  1  0
  4  6  2  0
  6  7  1  0
  6  8  1  0
  8  9  1  0
  9 10  2  0
 10 11  1  0
 10 12  1  0
 12 13  2  0
 12 14  1  0
 14 15  1  0
 14 16  1  0
 16 17  2  0
 17 18  1  0
 18 19  1  1
 18 20  1  0
 20 21  1  0
 20 22  1  0
 20 23  1  0
 18 24  1  0
 24 25  1  0
 24 26  1  0
 24 27  1  0
 27 28  2  0
 28 29  1  0
 28 30  1  0
 30 31  1  0
 30 32  2  0
 32 33  1  0
 32 34  1  0
 34 35  1  0
 34 36  2  0
 36 37  1  0
 16 38  1  0
 38 39  1  0
  8 40  2  0
 40 41  1  0
 40  2  1  0
 38  9  1  0
 36 27  1  0
M  END
>  <UniqueID>  (38) 
6

>  <SMILES>  (38) 
C[C@H](Cc1ccccc1)/N=c1\[nH]c(-c2ccncc2)cc(=O)[nH]1

>  <Energy>  (38) 
52.65456979670249

>  <Genealogy>  (38) 
C[C@H](Cc1ccccc1)N=c1[nH]c(-c2ccncc2)cc(=O)[nH]1 (chirality)
C[C@H](Cc1ccccc1)/N=c1\[nH]c(-c2ccncc2)cc(=O)[nH]1 (cis-trans isomerization)
C[C@H](Cc1ccccc1)/N=c1\[nH]c(-c2ccncc2)cc(=O)[nH]1 (3D coordinates assigned)
C[C@H](Cc1ccccc1)/N=c1\[nH]c(-c2ccncc2)cc(=O)[nH]1 (optimized conformer: 52.65456979670249 kcal/mol)

>  <smiles>  (38) 
CC(Cc1ccccc1)N=c1[nH]c(-c2ccncc2)cc(=O)[nH]1

>  <score_type>  (38) 
oracle

>  <origin>  (38) 
autodockgpu

>  <m_score__min__energy>  (38) 
-7.8600000000000003

>  <m_primary>  (38) 
energy

>  <meeko>  (38) 
{"free_energy": -7.72, "intermolecular_energy": -9.21, "internal_energy": -0.66, "cluster_size": 14, "cluster_id": 1, "rank_in_cluster": 10}

>  <energy>  (38) 
-7.5

>  <cluster_rmsd>  (38) 
0.15

>  <rmsd>  (38) 
269.58

>  <cluster>  (38) 
2

$$$$
XBCCWEKCHRHPJI-UGJWUZOENA-N
     RDKit          3D

 41 43  0  0  0  0  0  0  0  0999 V2000
  146.8957   73.2014  220.8377 H   0  0  0  0  0  0  0  0  0  0  0  0
  145.9440   73.2030  220.2860 C   0  0  0  0  0  0  0  0  0  0  0  0
  145.9390   73.0020  218.9430 N   0  0  0  0  0  0  0  0  0  0  0  0
  144.7840   72.9980  218.2270 C   0  0  0  0  0  0  0  0  0  0  0  0
  144.8125   72.8339  217.1397 H   0  0  0  0  0  0  0  0  0  0  0  0
  143.5600   73.2020  218.8700 C   0  0  0  0  0  0  0  0  0  0  0  0
  142.6246   73.1974  218.2911 H   0  0  0  0  0  0  0  0  0  0  0  0
  143.5290   73.4130  220.2590 C   0  0  0  0  0  0  0  0  0  0  0  0
  142.2360   73.6280  220.9590 C   0  0  0  0  0  0  0  0  0  0  0  0
  141.7580   74.9250  221.1770 C   0  0  0  0  0  0  0  0  0  0  0  0
  142.3355   75.7990  220.8414 H   0  0  0  0  0  0  0  0  0  0  0  0
  140.5390   75.0880  221.8260 C   0  0  0  0  0  0  0  0  0  0  0  0
  140.0870   76.2460  222.0320 O   0  0  0  0  0  0  0  0  0  0  0  0
  139.8350   73.9990  222.2350 N   0  0  0  0  0  0  0  0  0  0  0  0
  138.9180   74.1390  222.7200 H   0  0  0  0  0  0  0  0  0  0  0  0
  140.2990   72.7360  222.0220 C   0  0  0  0  0  0  0  0  0  0  0  0
  139.5700   71.7310  222.4340 N   0  0  0  0  0  0  0  0  0  0  0  0
  139.7040   70.8490  223.6020 C   0  0  2  0  0  0  0  0  0  0  0  0
  140.1371   69.8994  223.2547 H   0  0  0  0  0  0  0  0  0  0  0  0
  138.3390   70.4670  224.2010 C   0  0  0  0  0  0  0  0  0  0  0  0
  138.4025   70.4848  225.2990 H   0  0  0  0  0  0  0  0  0  0  0  0
  137.5773   71.1865  223.8661 H   0  0  0  0  0  0  0  0  0  0  0  0
  138.0614   69.4567  223.8661 H   0  0  0  0  0  0  0  0  0  0  0  0
  140.7130   71.4050  224.6300 C   0  0  0  0  0  0  0  0  0  0  0  0
  141.7289   71.3158  224.2177 H   0  0  0  0  0  0  0  0  0  0  0  0
  140.4605   72.4575  224.8263 H   0  0  0  0  0  0  0  0  0  0  0  0
  140.6460   70.6510  225.9360 C   0  0  0  0  0  0  0  0  0  0  0  0
  140.8060   69.2550  225.9560 C   0  0  0  0  0  0  0  0  0  0  0  0
  141.0034   68.7122  225.0198 H   0  0  0  0  0  0  0  0  0  0  0  0
  140.7150   68.5540  227.1620 C   0  0  0  0  0  0  0  0  0  0  0  0
  140.8442   67.4617  227.1733 H   0  0  0  0  0  0  0  0  0  0  0  0
  140.4600   69.2390  228.3540 C   0  0  0  0  0  0  0  0  0  0  0  0
  140.3908   68.6860  229.3024 H   0  0  0  0  0  0  0  0  0  0  0  0
  140.2930   70.6270  228.3400 C   0  0  0  0  0  0  0  0  0  0  0  0
  140.0913   71.1656  229.2777 H   0  0  0  0  0  0  0  0  0  0  0  0
  140.3820   71.3310  227.1360 C   0  0  0  0  0  0  0  0  0  0  0  0
  140.2447   72.4224  227.1283 H   0  0  0  0  0  0  0  0  0  0  0  0
  141.4990   72.5620  221.3890 N   0  0  0  0  0  0  0  0  0  0  0  0
  141.8930   71.6130  221.2440 H   0  0  0  0  0  0  0  0  0  0  0  0
  144.7420   73.4120  220.9690 C   0  0  0  0  0  0  0  0  0  0  0  0
  144.7457   73.5749  222.0569 H   0  0  0  0  0  0  0  0  0  0  0  0
  1  2  1  0
  2  3  2  0
  3  4  1  0
  4  5  1  0
  4  6  2  0
  6  7  1  0
  6  8  1  0
  8  9  1  0
  9 10  2  0
 10 11  1  0
 10 12  1  0
 12 13  2  0
 12 14  1  0
 14 15  1  0
 14 16  1  0
 16 17  2  0
 17 18  1  0
 18 19  1  6
 18 20  1  0
 20 21  1  0
 20 22  1  0
 20 23  1  0
 18 24  1  0
 24 25  1  0
 24 26  1  0
 24 27  1  0
 27 28  2  0
 28 29  1  0
 28 30  1  0
 30 31  1  0
 30 32  2  0
 32 33  1  0
 32 34  1  0
 34 35  1  0
 34 36  2  0
 36 37  1  0
 16 38  1  0
 38 39  1  0
  8 40  2  0
 40 41  1  0
 40  2  1  0
 38  9  1  0
 36 27  1  0
M  END
>  <UniqueID>  (39) 
6

>  <SMILES>  (39) 
C[C@H](Cc1ccccc1)/N=c1\[nH]c(-c2ccncc2)cc(=O)[nH]1

>  <Energy>  (39) 
52.65456979670249

>  <Genealogy>  (39) 
C[C@H](Cc1ccccc1)N=c1[nH]c(-c2ccncc2)cc(=O)[nH]1 (chirality)
C[C@H](Cc1ccccc1)/N=c1\[nH]c(-c2ccncc2)cc(=O)[nH]1 (cis-trans isomerization)
C[C@H](Cc1ccccc1)/N=c1\[nH]c(-c2ccncc2)cc(=O)[nH]1 (3D coordinates assigned)
C[C@H](Cc1ccccc1)/N=c1\[nH]c(-c2ccncc2)cc(=O)[nH]1 (optimized conformer: 52.65456979670249 kcal/mol)

>  <smiles>  (39) 
CC(Cc1ccccc1)N=c1[nH]c(-c2ccncc2)cc(=O)[nH]1

>  <score_type>  (39) 
oracle

>  <origin>  (39) 
autodockgpu

>  <m_score__min__energy>  (39) 
-7.8600000000000003

>  <m_primary>  (39) 
energy

>  <meeko>  (39) 
{"free_energy": -7.83, "intermolecular_energy": -9.32, "internal_energy": -0.67, "cluster_size": 14, "cluster_id": 1, "rank_in_cluster": 7}

>  <energy>  (39) 
-7.33

>  <cluster_rmsd>  (39) 
0.4

>  <rmsd>  (39) 
269.51

>  <cluster>  (39) 
2

$$$$
XBCCWEKCHRHPJI-UGJWUZOENA-N
     RDKit          3D

 41 43  0  0  0  0  0  0  0  0999 V2000
  144.9249   70.9794  218.2348 H   0  0  0  0  0  0  0  0  0  0  0  0
  144.8320   71.7860  218.9770 C   0  0  0  0  0  0  0  0  0  0  0  0
  145.9260   72.5090  219.3320 N   0  0  0  0  0  0  0  0  0  0  0  0
  145.8500   73.5130  220.2440 C   0  0  0  0  0  0  0  0  0  0  0  0
  146.7533   74.0811  220.5110 H   0  0  0  0  0  0  0  0  0  0  0  0
  144.6270   73.8260  220.8440 C   0  0  0  0  0  0  0  0  0  0  0  0
  144.5657   74.6389  221.5826 H   0  0  0  0  0  0  0  0  0  0  0  0
  143.4760   73.0970  220.4990 C   0  0  0  0  0  0  0  0  0  0  0  0
  142.1670   73.4180  221.1240 C   0  0  0  0  0  0  0  0  0  0  0  0
  141.6310   74.7070  221.0190 C   0  0  0  0  0  0  0  0  0  0  0  0
  142.1748   75.4978  220.4815 H   0  0  0  0  0  0  0  0  0  0  0  0
  140.3980   74.9690  221.6070 C   0  0  0  0  0  0  0  0  0  0  0  0
  139.8950   76.1210  221.5240 O   0  0  0  0  0  0  0  0  0  0  0  0
  139.7360   73.9820  222.2670 N   0  0  0  0  0  0  0  0  0  0  0  0
  138.8080   74.1950  222.7020 H   0  0  0  0  0  0  0  0  0  0  0  0
  140.2560   72.7270  222.3690 C   0  0  0  0  0  0  0  0  0  0  0  0
  139.5660   71.8210  223.0130 N   0  0  0  0  0  0  0  0  0  0  0  0
  139.8120   70.3890  223.2360 C   0  0  2  0  0  0  0  0  0  0  0  0
  140.8916   70.2577  223.4007 H   0  0  0  0  0  0  0  0  0  0  0  0
  139.4950   69.5440  221.9900 C   0  0  0  0  0  0  0  0  0  0  0  0
  139.1244   68.5562  222.3014 H   0  0  0  0  0  0  0  0  0  0  0  0
  138.7260   70.0513  221.3889 H   0  0  0  0  0  0  0  0  0  0  0  0
  140.4079   69.4203  221.3889 H   0  0  0  0  0  0  0  0  0  0  0  0
  139.1360   69.8850  224.5300 C   0  0  0  0  0  0  0  0  0  0  0  0
  138.0889   70.2220  224.5404 H   0  0  0  0  0  0  0  0  0  0  0  0
  139.1952   68.7867  224.5440 H   0  0  0  0  0  0  0  0  0  0  0  0
  139.8320   70.4110  225.7610 C   0  0  0  0  0  0  0  0  0  0  0  0
  139.5910   69.8250  227.0150 C   0  0  0  0  0  0  0  0  0  0  0  0
  138.9103   68.9648  227.0965 H   0  0  0  0  0  0  0  0  0  0  0  0
  140.2140   70.3320  228.1600 C   0  0  0  0  0  0  0  0  0  0  0  0
  140.0257   69.8669  229.1389 H   0  0  0  0  0  0  0  0  0  0  0  0
  141.0750   71.4280  228.0630 C   0  0  0  0  0  0  0  0  0  0  0  0
  141.5650   71.8239  228.9647 H   0  0  0  0  0  0  0  0  0  0  0  0
  141.3140   72.0220  226.8190 C   0  0  0  0  0  0  0  0  0  0  0  0
  141.9908   72.8858  226.7430 H   0  0  0  0  0  0  0  0  0  0  0  0
  140.6930   71.5180  225.6730 C   0  0  0  0  0  0  0  0  0  0  0  0
  140.8791   71.9903  224.6971 H   0  0  0  0  0  0  0  0  0  0  0  0
  141.4710   72.4570  221.8000 N   0  0  0  0  0  0  0  0  0  0  0  0
  141.9060   71.5200  221.8910 H   0  0  0  0  0  0  0  0  0  0  0  0
  143.5890   72.0640  219.5520 C   0  0  0  0  0  0  0  0  0  0  0  0
  142.7036   71.4777  219.2652 H   0  0  0  0  0  0  0  0  0  0  0  0
  1  2  1  0
  2  3  2  0
  3  4  1  0
  4  5  1  0
  4  6  2  0
  6  7  1  0
  6  8  1  0
  8  9  1  0
  9 10  2  0
 10 11  1  0
 10 12  1  0
 12 13  2  0
 12 14  1  0
 14 15  1  0
 14 16  1  0
 16 17  2  0
 17 18  1  0
 18 19  1  1
 18 20  1  0
 20 21  1  0
 20 22  1  0
 20 23  1  0
 18 24  1  0
 24 25  1  0
 24 26  1  0
 24 27  1  0
 27 28  2  0
 28 29  1  0
 28 30  1  0
 30 31  1  0
 30 32  2  0
 32 33  1  0
 32 34  1  0
 34 35  1  0
 34 36  2  0
 36 37  1  0
 16 38  1  0
 38 39  1  0
  8 40  2  0
 40 41  1  0
 40  2  1  0
 38  9  1  0
 36 27  1  0
M  END
>  <UniqueID>  (40) 
6

>  <SMILES>  (40) 
C[C@H](Cc1ccccc1)/N=c1\[nH]c(-c2ccncc2)cc(=O)[nH]1

>  <Energy>  (40) 
52.65456979670249

>  <Genealogy>  (40) 
C[C@H](Cc1ccccc1)N=c1[nH]c(-c2ccncc2)cc(=O)[nH]1 (chirality)
C[C@H](Cc1ccccc1)/N=c1\[nH]c(-c2ccncc2)cc(=O)[nH]1 (cis-trans isomerization)
C[C@H](Cc1ccccc1)/N=c1\[nH]c(-c2ccncc2)cc(=O)[nH]1 (3D coordinates assigned)
C[C@H](Cc1ccccc1)/N=c1\[nH]c(-c2ccncc2)cc(=O)[nH]1 (optimized conformer: 52.65456979670249 kcal/mol)

>  <smiles>  (40) 
CC(Cc1ccccc1)N=c1[nH]c(-c2ccncc2)cc(=O)[nH]1

>  <score_type>  (40) 
oracle

>  <origin>  (40) 
autodockgpu

>  <m_score__min__energy>  (40) 
-7.8600000000000003

>  <m_primary>  (40) 
energy

>  <meeko>  (40) 
{"free_energy": -7.53, "intermolecular_energy": -9.02, "internal_energy": -0.69, "cluster_size": 14, "cluster_id": 1, "rank_in_cluster": 11}

>  <energy>  (40) 
-7.29

>  <cluster_rmsd>  (40) 
0.3

>  <rmsd>  (40) 
269.52

>  <cluster>  (40) 
2

$$$$
XBCCWEKCHRHPJI-JANDEHFDNA-N
     RDKit          3D

 41 43  0  0  0  0  0  0  0  0999 V2000
  140.7690   77.0470  221.8730 H   0  0  0  0  0  0  0  0  0  0  0  0
  140.1920   76.2210  221.7590 O   0  0  0  0  0  0  0  0  0  0  0  0
  140.7700   74.9670  221.5920 C   0  0  0  0  0  0  0  0  0  0  0  0
  140.1310   73.8580  222.0410 N   0  0  0  0  0  0  0  0  0  0  0  0
  140.6720   72.6180  221.8890 C   0  0  0  0  0  0  0  0  0  0  0  0
  140.0540   71.5570  222.3270 N   0  0  0  0  0  0  0  0  0  0  0  0
  139.2570   71.4290  223.5550 C   0  0  1  0  0  0  0  0  0  0  0  0
  139.4391   72.3153  224.1806 H   0  0  0  0  0  0  0  0  0  0  0  0
  137.7540   71.4180  223.2410 C   0  0  0  0  0  0  0  0  0  0  0  0
  137.1830   71.4138  224.1812 H   0  0  0  0  0  0  0  0  0  0  0  0
  137.4945   72.3143  222.6584 H   0  0  0  0  0  0  0  0  0  0  0  0
  137.5077   70.5180  222.6584 H   0  0  0  0  0  0  0  0  0  0  0  0
  139.7050   70.2080  224.3850 C   0  0  0  0  0  0  0  0  0  0  0  0
  138.8466   69.5329  224.5168 H   0  0  0  0  0  0  0  0  0  0  0  0
  140.5220   69.7083  223.8439 H   0  0  0  0  0  0  0  0  0  0  0  0
  140.2210   70.6120  225.7430 C   0  0  0  0  0  0  0  0  0  0  0  0
  140.0440   69.7670  226.8520 C   0  0  0  0  0  0  0  0  0  0  0  0
  139.5445   68.7950  226.7264 H   0  0  0  0  0  0  0  0  0  0  0  0
  140.5010   70.1580  228.1150 C   0  0  0  0  0  0  0  0  0  0  0  0
  140.3639   69.4920  228.9796 H   0  0  0  0  0  0  0  0  0  0  0  0
  141.1320   71.3950  228.2790 C   0  0  0  0  0  0  0  0  0  0  0  0
  141.4932   71.7003  229.2721 H   0  0  0  0  0  0  0  0  0  0  0  0
  141.3040   72.2430  227.1830 C   0  0  0  0  0  0  0  0  0  0  0  0
  141.7990   73.2165  227.3145 H   0  0  0  0  0  0  0  0  0  0  0  0
  140.8480   71.8570  225.9180 C   0  0  0  0  0  0  0  0  0  0  0  0
  140.9807   72.5300  225.0581 H   0  0  0  0  0  0  0  0  0  0  0  0
  141.8790   72.4840  221.2720 N   0  0  0  0  0  0  0  0  0  0  0  0
  142.2940   71.5270  221.1780 H   0  0  0  0  0  0  0  0  0  0  0  0
  142.5620   73.5700  220.8010 C   0  0  0  0  0  0  0  0  0  0  0  0
  143.8730   73.3990  220.1260 C   0  0  0  0  0  0  0  0  0  0  0  0
  145.0690   73.5520  220.8460 C   0  0  0  0  0  0  0  0  0  0  0  0
  145.0414   73.7996  221.9174 H   0  0  0  0  0  0  0  0  0  0  0  0
  146.2950   73.3880  220.1940 C   0  0  0  0  0  0  0  0  0  0  0  0
  147.2341   73.5072  220.7542 H   0  0  0  0  0  0  0  0  0  0  0  0
  146.3300   73.0820  218.8710 N   0  0  0  0  0  0  0  0  0  0  0  0
  145.1900   72.9280  218.1460 C   0  0  0  0  0  0  0  0  0  0  0  0
  145.2495   72.6824  217.0754 H   0  0  0  0  0  0  0  0  0  0  0  0
  143.9430   73.0810  218.7580 C   0  0  0  0  0  0  0  0  0  0  0  0
  143.0206   72.9533  218.1724 H   0  0  0  0  0  0  0  0  0  0  0  0
  142.0050   74.8470  220.9600 C   0  0  0  0  0  0  0  0  0  0  0  0
  142.5343   75.7383  220.5920 H   0  0  0  0  0  0  0  0  0  0  0  0
  1  2  1  0
  2  3  1  0
  3  4  2  0
  4  5  1  0
  5  6  2  0
  6  7  1  0
  7  8  1  1
  7  9  1  0
  9 10  1  0
  9 11  1  0
  9 12  1  0
  7 13  1  0
 13 14  1  0
 13 15  1  0
 13 16  1  0
 16 17  2  0
 17 18  1  0
 17 19  1  0
 19 20  1  0
 19 21  2  0
 21 22  1  0
 21 23  1  0
 23 24  1  0
 23 25  2  0
 25 26  1  0
  5 27  1  0
 27 28  1  0
 27 29  1  0
 29 30  1  0
 30 31  2  0
 31 32  1  0
 31 33  1  0
 33 34  1  0
 33 35  2  0
 35 36  1  0
 36 37  1  0
 36 38  2  0
 38 39  1  0
 29 40  2  0
 40 41  1  0
 40  3  1  0
 25 16  1  0
 38 30  1  0
M  END
>  <UniqueID>  (41) 
7

>  <SMILES>  (41) 
C[C@@H](Cc1ccccc1)/N=c1\nc(O)cc(-c2ccncc2)[nH]1

>  <Energy>  (41) 
47.20727747248445

>  <Genealogy>  (41) 
CC(Cc1ccccc1)N=c1nc(O)cc(-c2ccncc2)[nH]1 (tautomer)
C[C@@H](Cc1ccccc1)N=c1nc(O)cc(-c2ccncc2)[nH]1 (chirality)
C[C@@H](Cc1ccccc1)/N=c1\nc(O)cc(-c2ccncc2)[nH]1 (cis-trans isomerization)
C[C@@H](Cc1ccccc1)/N=c1\nc(O)cc(-c2ccncc2)[nH]1 (3D coordinates assigned)
C[C@@H](Cc1ccccc1)/N=c1\nc(O)cc(-c2ccncc2)[nH]1 (optimized conformer: 47.20727747248445 kcal/mol)

>  <smiles>  (41) 
CC(Cc1ccccc1)N=c1[nH]c(-c2ccncc2)cc(=O)[nH]1

>  <score_type>  (41) 
oracle

>  <origin>  (41) 
autodockgpu

>  <m_score__min__energy>  (41) 
-7.6500000000000004

>  <m_primary>  (41) 
energy

>  <meeko>  (41) 
{"free_energy": -7.55, "intermolecular_energy": -9.34, "internal_energy": -0.67, "cluster_size": 14, "cluster_id": 1, "rank_in_cluster": 5}

>  <energy>  (41) 
-7.65

>  <cluster_rmsd>  (41) 
0.0

>  <rmsd>  (41) 
273.4

>  <cluster>  (41) 
1

$$$$
XBCCWEKCHRHPJI-JANDEHFDNA-N
     RDKit          3D

 41 43  0  0  0  0  0  0  0  0999 V2000
  141.7590   77.2390  221.9510 H   0  0  0  0  0  0  0  0  0  0  0  0
  140.9680   76.6380  221.7490 O   0  0  0  0  0  0  0  0  0  0  0  0
  141.1350   75.2650  221.5990 C   0  0  0  0  0  0  0  0  0  0  0  0
  140.1650   74.4120  222.0130 N   0  0  0  0  0  0  0  0  0  0  0  0
  140.3010   73.0650  221.8750 C   0  0  0  0  0  0  0  0  0  0  0  0
  139.3670   72.2510  222.2780 N   0  0  0  0  0  0  0  0  0  0  0  0
  139.3130   71.5080  223.5460 C   0  0  1  0  0  0  0  0  0  0  0  0
  138.8254   72.1433  224.3001 H   0  0  0  0  0  0  0  0  0  0  0  0
  138.4470   70.2470  223.4130 C   0  0  0  0  0  0  0  0  0  0  0  0
  138.1894   69.8718  224.4144 H   0  0  0  0  0  0  0  0  0  0  0  0
  137.5253   70.4914  222.8646 H   0  0  0  0  0  0  0  0  0  0  0  0
  139.0060   69.4745  222.8646 H   0  0  0  0  0  0  0  0  0  0  0  0
  140.7310   71.2080  224.0750 C   0  0  0  0  0  0  0  0  0  0  0  0
  141.1400   70.3456  223.5282 H   0  0  0  0  0  0  0  0  0  0  0  0
  141.3504   72.1038  223.9204 H   0  0  0  0  0  0  0  0  0  0  0  0
  140.7230   70.8920  225.5500 C   0  0  0  0  0  0  0  0  0  0  0  0
  140.4110   69.5980  226.0000 C   0  0  0  0  0  0  0  0  0  0  0  0
  140.1911   68.8030  225.2723 H   0  0  0  0  0  0  0  0  0  0  0  0
  140.3790   69.3170  227.3700 C   0  0  0  0  0  0  0  0  0  0  0  0
  140.1381   68.3015  227.7173 H   0  0  0  0  0  0  0  0  0  0  0  0
  140.6530   70.3260  228.2980 C   0  0  0  0  0  0  0  0  0  0  0  0
  140.6300   70.1031  229.3749 H   0  0  0  0  0  0  0  0  0  0  0  0
  140.9560   71.6170  227.8590 C   0  0  0  0  0  0  0  0  0  0  0  0
  141.1690   72.4100  228.5909 H   0  0  0  0  0  0  0  0  0  0  0  0
  140.9890   71.9030  226.4900 C   0  0  0  0  0  0  0  0  0  0  0  0
  141.2237   72.9218  226.1481 H   0  0  0  0  0  0  0  0  0  0  0  0
  141.4330   72.5590  221.3090 N   0  0  0  0  0  0  0  0  0  0  0  0
  141.5340   71.5200  221.2270 H   0  0  0  0  0  0  0  0  0  0  0  0
  142.4380   73.3770  220.8760 C   0  0  0  0  0  0  0  0  0  0  0  0
  143.6590   72.8030  220.2560 C   0  0  0  0  0  0  0  0  0  0  0  0
  144.8860   73.4830  220.3400 C   0  0  0  0  0  0  0  0  0  0  0  0
  144.9492   74.4460  220.8678 H   0  0  0  0  0  0  0  0  0  0  0  0
  146.0250   72.9300  219.7500 C   0  0  0  0  0  0  0  0  0  0  0  0
  146.9871   73.4596  219.8127 H   0  0  0  0  0  0  0  0  0  0  0  0
  145.9480   71.7400  219.0990 N   0  0  0  0  0  0  0  0  0  0  0  0
  144.7760   71.0570  219.0010 C   0  0  0  0  0  0  0  0  0  0  0  0
  144.7438   70.0957  218.4672 H   0  0  0  0  0  0  0  0  0  0  0  0
  143.6130   71.5740  219.5770 C   0  0  0  0  0  0  0  0  0  0  0  0
  142.6652   71.0211  219.4992 H   0  0  0  0  0  0  0  0  0  0  0  0
  142.2980   74.7650  221.0200 C   0  0  0  0  0  0  0  0  0  0  0  0
  143.0927   75.4461  220.6816 H   0  0  0  0  0  0  0  0  0  0  0  0
  1  2  1  0
  2  3  1  0
  3  4  2  0
  4  5  1  0
  5  6  2  0
  6  7  1  0
  7  8  1  1
  7  9  1  0
  9 10  1  0
  9 11  1  0
  9 12  1  0
  7 13  1  0
 13 14  1  0
 13 15  1  0
 13 16  1  0
 16 17  2  0
 17 18  1  0
 17 19  1  0
 19 20  1  0
 19 21  2  0
 21 22  1  0
 21 23  1  0
 23 24  1  0
 23 25  2  0
 25 26  1  0
  5 27  1  0
 27 28  1  0
 27 29  1  0
 29 30  1  0
 30 31  2  0
 31 32  1  0
 31 33  1  0
 33 34  1  0
 33 35  2  0
 35 36  1  0
 36 37  1  0
 36 38  2  0
 38 39  1  0
 29 40  2  0
 40 41  1  0
 40  3  1  0
 25 16  1  0
 38 30  1  0
M  END
>  <UniqueID>  (42) 
7

>  <SMILES>  (42) 
C[C@@H](Cc1ccccc1)/N=c1\nc(O)cc(-c2ccncc2)[nH]1

>  <Energy>  (42) 
47.20727747248445

>  <Genealogy>  (42) 
CC(Cc1ccccc1)N=c1nc(O)cc(-c2ccncc2)[nH]1 (tautomer)
C[C@@H](Cc1ccccc1)N=c1nc(O)cc(-c2ccncc2)[nH]1 (chirality)
C[C@@H](Cc1ccccc1)/N=c1\nc(O)cc(-c2ccncc2)[nH]1 (cis-trans isomerization)
C[C@@H](Cc1ccccc1)/N=c1\nc(O)cc(-c2ccncc2)[nH]1 (3D coordinates assigned)
C[C@@H](Cc1ccccc1)/N=c1\nc(O)cc(-c2ccncc2)[nH]1 (optimized conformer: 47.20727747248445 kcal/mol)

>  <smiles>  (42) 
CC(Cc1ccccc1)N=c1[nH]c(-c2ccncc2)cc(=O)[nH]1

>  <score_type>  (42) 
oracle

>  <origin>  (42) 
autodockgpu

>  <m_score__min__energy>  (42) 
-7.6500000000000004

>  <m_primary>  (42) 
energy

>  <meeko>  (42) 
{"free_energy": -7.53, "intermolecular_energy": -9.32, "internal_energy": -0.71, "cluster_size": 14, "cluster_id": 1, "rank_in_cluster": 7}

>  <energy>  (42) 
-7.59

>  <cluster_rmsd>  (42) 
0.26

>  <rmsd>  (42) 
273.36

>  <cluster>  (42) 
1

$$$$
XBCCWEKCHRHPJI-JANDEHFDNA-N
     RDKit          3D

 41 43  0  0  0  0  0  0  0  0999 V2000
  139.8310   76.6680  220.7710 H   0  0  0  0  0  0  0  0  0  0  0  0
  140.0190   76.1190  221.6020 O   0  0  0  0  0  0  0  0  0  0  0  0
  140.6740   74.8940  221.5150 C   0  0  0  0  0  0  0  0  0  0  0  0
  140.1100   73.7810  222.0460 N   0  0  0  0  0  0  0  0  0  0  0  0
  140.7270   72.5710  221.9730 C   0  0  0  0  0  0  0  0  0  0  0  0
  140.1810   71.5060  222.4890 N   0  0  0  0  0  0  0  0  0  0  0  0
  139.2330   71.4410  223.6100 C   0  0  1  0  0  0  0  0  0  0  0  0
  139.3657   72.3404  224.2292 H   0  0  0  0  0  0  0  0  0  0  0  0
  137.7810   71.4660  223.1100 C   0  0  0  0  0  0  0  0  0  0  0  0
  137.0968   71.4778  223.9712 H   0  0  0  0  0  0  0  0  0  0  0  0
  137.6186   72.3671  222.5003 H   0  0  0  0  0  0  0  0  0  0  0  0
  137.5877   70.5711  222.5003 H   0  0  0  0  0  0  0  0  0  0  0  0
  139.5320   70.2320  224.5220 C   0  0  0  0  0  0  0  0  0  0  0  0
  138.5944   69.6893  224.7127 H   0  0  0  0  0  0  0  0  0  0  0  0
  140.2633   69.5896  224.0096 H   0  0  0  0  0  0  0  0  0  0  0  0
  140.1260   70.6590  225.8410 C   0  0  0  0  0  0  0  0  0  0  0  0
  139.9120   69.8940  227.0000 C   0  0  0  0  0  0  0  0  0  0  0  0
  139.3241   68.9660  226.9427 H   0  0  0  0  0  0  0  0  0  0  0  0
  140.4430   70.3070  228.2260 C   0  0  0  0  0  0  0  0  0  0  0  0
  140.2762   69.7022  229.1295 H   0  0  0  0  0  0  0  0  0  0  0  0
  141.1860   71.4890  228.3030 C   0  0  0  0  0  0  0  0  0  0  0  0
  141.6042   71.8130  229.2674 H   0  0  0  0  0  0  0  0  0  0  0  0
  141.3980   72.2590  227.1570 C   0  0  0  0  0  0  0  0  0  0  0  0
  141.9829   73.1885  227.2199 H   0  0  0  0  0  0  0  0  0  0  0  0
  140.8670   71.8490  225.9290 C   0  0  0  0  0  0  0  0  0  0  0  0
  141.0304   72.4607  225.0295 H   0  0  0  0  0  0  0  0  0  0  0  0
  141.9360   72.4700  221.3520 N   0  0  0  0  0  0  0  0  0  0  0  0
  142.4100   71.5370  221.3190 H   0  0  0  0  0  0  0  0  0  0  0  0
  142.5450   73.5620  220.8000 C   0  0  0  0  0  0  0  0  0  0  0  0
  143.8590   73.4270  220.1220 C   0  0  0  0  0  0  0  0  0  0  0  0
  145.0520   73.5090  220.8610 C   0  0  0  0  0  0  0  0  0  0  0  0
  145.0189   73.6730  221.9482 H   0  0  0  0  0  0  0  0  0  0  0  0
  146.2800   73.3810  220.2070 C   0  0  0  0  0  0  0  0  0  0  0  0
  147.2161   73.4448  220.7812 H   0  0  0  0  0  0  0  0  0  0  0  0
  146.3220   73.1780  218.8640 N   0  0  0  0  0  0  0  0  0  0  0  0
  145.1860   73.0940  218.1220 C   0  0  0  0  0  0  0  0  0  0  0  0
  145.2509   72.9304  217.0362 H   0  0  0  0  0  0  0  0  0  0  0  0
  143.9360   73.2150  218.7350 C   0  0  0  0  0  0  0  0  0  0  0  0
  143.0169   73.1446  218.1347 H   0  0  0  0  0  0  0  0  0  0  0  0
  141.9090   74.8090  220.8780 C   0  0  0  0  0  0  0  0  0  0  0  0
  142.3775   75.7044  220.4436 H   0  0  0  0  0  0  0  0  0  0  0  0
  1  2  1  0
  2  3  1  0
  3  4  2  0
  4  5  1  0
  5  6  2  0
  6  7  1  0
  7  8  1  1
  7  9  1  0
  9 10  1  0
  9 11  1  0
  9 12  1  0
  7 13  1  0
 13 14  1  0
 13 15  1  0
 13 16  1  0
 16 17  2  0
 17 18  1  0
 17 19  1  0
 19 20  1  0
 19 21  2  0
 21 22  1  0
 21 23  1  0
 23 24  1  0
 23 25  2  0
 25 26  1  0
  5 27  1  0
 27 28  1  0
 27 29  1  0
 29 30  1  0
 30 31  2  0
 31 32  1  0
 31 33  1  0
 33 34  1  0
 33 35  2  0
 35 36  1  0
 36 37  1  0
 36 38  2  0
 38 39  1  0
 29 40  2  0
 40 41  1  0
 40  3  1  0
 25 16  1  0
 38 30  1  0
M  END
>  <UniqueID>  (43) 
7

>  <SMILES>  (43) 
C[C@@H](Cc1ccccc1)/N=c1\nc(O)cc(-c2ccncc2)[nH]1

>  <Energy>  (43) 
47.20727747248445

>  <Genealogy>  (43) 
CC(Cc1ccccc1)N=c1nc(O)cc(-c2ccncc2)[nH]1 (tautomer)
C[C@@H](Cc1ccccc1)N=c1nc(O)cc(-c2ccncc2)[nH]1 (chirality)
C[C@@H](Cc1ccccc1)/N=c1\nc(O)cc(-c2ccncc2)[nH]1 (cis-trans isomerization)
C[C@@H](Cc1ccccc1)/N=c1\nc(O)cc(-c2ccncc2)[nH]1 (3D coordinates assigned)
C[C@@H](Cc1ccccc1)/N=c1\nc(O)cc(-c2ccncc2)[nH]1 (optimized conformer: 47.20727747248445 kcal/mol)

>  <smiles>  (43) 
CC(Cc1ccccc1)N=c1[nH]c(-c2ccncc2)cc(=O)[nH]1

>  <score_type>  (43) 
oracle

>  <origin>  (43) 
autodockgpu

>  <m_score__min__energy>  (43) 
-7.6500000000000004

>  <m_primary>  (43) 
energy

>  <meeko>  (43) 
{"free_energy": -7.51, "intermolecular_energy": -9.3, "internal_energy": -0.68, "cluster_size": 14, "cluster_id": 1, "rank_in_cluster": 11}

>  <energy>  (43) 
-7.59

>  <cluster_rmsd>  (43) 
0.35

>  <rmsd>  (43) 
273.34

>  <cluster>  (43) 
1

$$$$
XBCCWEKCHRHPJI-JANDEHFDNA-N
     RDKit          3D

 41 43  0  0  0  0  0  0  0  0999 V2000
  138.5240   72.7320  223.0860 H   0  0  0  0  0  0  0  0  0  0  0  0
  139.1170   72.5220  222.2920 O   0  0  0  0  0  0  0  0  0  0  0  0
  140.1410   73.3870  221.9170 C   0  0  0  0  0  0  0  0  0  0  0  0
  139.9980   74.7250  222.0860 N   0  0  0  0  0  0  0  0  0  0  0  0
  140.9840   75.5930  221.7320 C   0  0  0  0  0  0  0  0  0  0  0  0
  140.8390   76.8780  221.8930 N   0  0  0  0  0  0  0  0  0  0  0  0
  140.3550   77.8540  220.9070 C   0  0  1  0  0  0  0  0  0  0  0  0
  140.1041   77.3151  219.9815 H   0  0  0  0  0  0  0  0  0  0  0  0
  139.0610   78.5290  221.3830 C   0  0  0  0  0  0  0  0  0  0  0  0
  139.0370   78.5415  222.4827 H   0  0  0  0  0  0  0  0  0  0  0  0
  139.0248   79.5609  221.0037 H   0  0  0  0  0  0  0  0  0  0  0  0
  138.1940   77.9683  221.0037 H   0  0  0  0  0  0  0  0  0  0  0  0
  141.4590   78.8690  220.5400 C   0  0  0  0  0  0  0  0  0  0  0  0
  142.3804   78.3201  220.2959 H   0  0  0  0  0  0  0  0  0  0  0  0
  141.1096   79.4578  219.6790 H   0  0  0  0  0  0  0  0  0  0  0  0
  141.7440   79.8210  221.6740 C   0  0  0  0  0  0  0  0  0  0  0  0
  142.4620   79.3910  222.8030 C   0  0  0  0  0  0  0  0  0  0  0  0
  142.8375   78.3583  222.8526 H   0  0  0  0  0  0  0  0  0  0  0  0
  142.7010   80.2700  223.8630 C   0  0  0  0  0  0  0  0  0  0  0  0
  143.2674   79.9292  224.7423 H   0  0  0  0  0  0  0  0  0  0  0  0
  142.2210   81.5820  223.8070 C   0  0  0  0  0  0  0  0  0  0  0  0
  142.4118   82.2731  224.6413 H   0  0  0  0  0  0  0  0  0  0  0  0
  141.4990   82.0160  222.6920 C   0  0  0  0  0  0  0  0  0  0  0  0
  141.1206   83.0480  222.6500 H   0  0  0  0  0  0  0  0  0  0  0  0
  141.2570   81.1390  221.6290 C   0  0  0  0  0  0  0  0  0  0  0  0
  140.6837   81.4820  220.7551 H   0  0  0  0  0  0  0  0  0  0  0  0
  142.1420   75.1120  221.1960 N   0  0  0  0  0  0  0  0  0  0  0  0
  142.8850   75.7910  220.9090 H   0  0  0  0  0  0  0  0  0  0  0  0
  142.3340   73.7720  221.0060 C   0  0  0  0  0  0  0  0  0  0  0  0
  143.6060   73.2710  220.4280 C   0  0  0  0  0  0  0  0  0  0  0  0
  144.8280   73.8790  220.7620 C   0  0  0  0  0  0  0  0  0  0  0  0
  144.8495   74.7323  221.4559 H   0  0  0  0  0  0  0  0  0  0  0  0
  146.0160   73.3940  220.2080 C   0  0  0  0  0  0  0  0  0  0  0  0
  146.9749   73.8663  220.4675 H   0  0  0  0  0  0  0  0  0  0  0  0
  145.9900   72.3410  219.3500 N   0  0  0  0  0  0  0  0  0  0  0  0
  144.8240   71.7310  219.0070 C   0  0  0  0  0  0  0  0  0  0  0  0
  144.8341   70.8807  218.3092 H   0  0  0  0  0  0  0  0  0  0  0  0
  143.6130   72.1820  219.5390 C   0  0  0  0  0  0  0  0  0  0  0  0
  142.6699   71.6873  219.2635 H   0  0  0  0  0  0  0  0  0  0  0  0
  141.3160   72.8780  221.3710 C   0  0  0  0  0  0  0  0  0  0  0  0
  141.4440   71.7948  221.2283 H   0  0  0  0  0  0  0  0  0  0  0  0
  1  2  1  0
  2  3  1  0
  3  4  2  0
  4  5  1  0
  5  6  2  0
  6  7  1  0
  7  8  1  6
  7  9  1  0
  9 10  1  0
  9 11  1  0
  9 12  1  0
  7 13  1  0
 13 14  1  0
 13 15  1  0
 13 16  1  0
 16 17  2  0
 17 18  1  0
 17 19  1  0
 19 20  1  0
 19 21  2  0
 21 22  1  0
 21 23  1  0
 23 24  1  0
 23 25  2  0
 25 26  1  0
  5 27  1  0
 27 28  1  0
 27 29  1  0
 29 30  1  0
 30 31  2  0
 31 32  1  0
 31 33  1  0
 33 34  1  0
 33 35  2  0
 35 36  1  0
 36 37  1  0
 36 38  2  0
 38 39  1  0
 29 40  2  0
 40 41  1  0
 40  3  1  0
 25 16  1  0
 38 30  1  0
M  END
>  <UniqueID>  (44) 
7

>  <SMILES>  (44) 
C[C@@H](Cc1ccccc1)/N=c1\nc(O)cc(-c2ccncc2)[nH]1

>  <Energy>  (44) 
47.20727747248445

>  <Genealogy>  (44) 
CC(Cc1ccccc1)N=c1nc(O)cc(-c2ccncc2)[nH]1 (tautomer)
C[C@@H](Cc1ccccc1)N=c1nc(O)cc(-c2ccncc2)[nH]1 (chirality)
C[C@@H](Cc1ccccc1)/N=c1\nc(O)cc(-c2ccncc2)[nH]1 (cis-trans isomerization)
C[C@@H](Cc1ccccc1)/N=c1\nc(O)cc(-c2ccncc2)[nH]1 (3D coordinates assigned)
C[C@@H](Cc1ccccc1)/N=c1\nc(O)cc(-c2ccncc2)[nH]1 (optimized conformer: 47.20727747248445 kcal/mol)

>  <smiles>  (44) 
CC(Cc1ccccc1)N=c1[nH]c(-c2ccncc2)cc(=O)[nH]1

>  <score_type>  (44) 
oracle

>  <origin>  (44) 
autodockgpu

>  <m_score__min__energy>  (44) 
-7.6500000000000004

>  <m_primary>  (44) 
energy

>  <meeko>  (44) 
{"free_energy": -7.35, "intermolecular_energy": -9.14, "internal_energy": -0.71, "cluster_size": 4, "cluster_id": 2, "rank_in_cluster": 2}

>  <energy>  (44) 
-7.57

>  <cluster_rmsd>  (44) 
0.82

>  <rmsd>  (44) 
273.33

>  <cluster>  (44) 
1

$$$$
XBCCWEKCHRHPJI-JANDEHFDNA-N
     RDKit          3D

 41 43  0  0  0  0  0  0  0  0999 V2000
  138.4980   72.7050  223.1040 H   0  0  0  0  0  0  0  0  0  0  0  0
  139.1570   72.4750  222.3700 O   0  0  0  0  0  0  0  0  0  0  0  0
  140.1240   73.3910  221.9670 C   0  0  0  0  0  0  0  0  0  0  0  0
  139.9100   74.7210  222.1260 N   0  0  0  0  0  0  0  0  0  0  0  0
  140.8400   75.6380  221.7420 C   0  0  0  0  0  0  0  0  0  0  0  0
  140.6260   76.9150  221.8950 N   0  0  0  0  0  0  0  0  0  0  0  0
  140.3190   77.9010  220.8490 C   0  0  1  0  0  0  0  0  0  0  0  0
  140.1133   77.3612  219.9129 H   0  0  0  0  0  0  0  0  0  0  0  0
  139.0450   78.6890  221.1880 C   0  0  0  0  0  0  0  0  0  0  0  0
  138.9355   78.7567  222.2804 H   0  0  0  0  0  0  0  0  0  0  0  0
  139.1160   79.7012  220.7632 H   0  0  0  0  0  0  0  0  0  0  0  0
  138.1711   78.1735  220.7632 H   0  0  0  0  0  0  0  0  0  0  0  0
  141.5320   78.8140  220.5710 C   0  0  0  0  0  0  0  0  0  0  0  0
  142.4225   78.1864  220.4190 H   0  0  0  0  0  0  0  0  0  0  0  0
  141.3114   79.4116  219.6742 H   0  0  0  0  0  0  0  0  0  0  0  0
  141.7930   79.7630  221.7140 C   0  0  0  0  0  0  0  0  0  0  0  0
  142.4060   79.3050  222.8930 C   0  0  0  0  0  0  0  0  0  0  0  0
  142.7170   78.2531  222.9761 H   0  0  0  0  0  0  0  0  0  0  0  0
  142.6220   80.1820  223.9610 C   0  0  0  0  0  0  0  0  0  0  0  0
  143.1061   79.8202  224.8801 H   0  0  0  0  0  0  0  0  0  0  0  0
  142.2230   81.5180  223.8610 C   0  0  0  0  0  0  0  0  0  0  0  0
  142.3952   82.2071  224.7009 H   0  0  0  0  0  0  0  0  0  0  0  0
  141.6060   81.9790  222.6960 C   0  0  0  0  0  0  0  0  0  0  0  0
  141.2917   83.0304  222.6200 H   0  0  0  0  0  0  0  0  0  0  0  0
  141.3870   81.1050  221.6250 C   0  0  0  0  0  0  0  0  0  0  0  0
  140.8956   81.4699  220.7110 H   0  0  0  0  0  0  0  0  0  0  0  0
  142.0110   75.2160  221.1880 N   0  0  0  0  0  0  0  0  0  0  0  0
  142.7090   75.9320  220.8800 H   0  0  0  0  0  0  0  0  0  0  0  0
  142.2740   73.8870  221.0070 C   0  0  0  0  0  0  0  0  0  0  0  0
  143.5590   73.4500  220.4080 C   0  0  0  0  0  0  0  0  0  0  0  0
  144.7740   74.0030  220.8490 C   0  0  0  0  0  0  0  0  0  0  0  0
  144.7789   74.7635  221.6437 H   0  0  0  0  0  0  0  0  0  0  0  0
  145.9750   73.5820  220.2730 C   0  0  0  0  0  0  0  0  0  0  0  0
  146.9277   74.0133  220.6143 H   0  0  0  0  0  0  0  0  0  0  0  0
  145.9700   72.6410  219.2920 N   0  0  0  0  0  0  0  0  0  0  0  0
  144.8120   72.0870  218.8440 C   0  0  0  0  0  0  0  0  0  0  0  0
  144.8388   71.3282  218.0480 H   0  0  0  0  0  0  0  0  0  0  0  0
  143.5880   72.4790  219.3920 C   0  0  0  0  0  0  0  0  0  0  0  0
  142.6514   72.0299  219.0301 H   0  0  0  0  0  0  0  0  0  0  0  0
  141.3150   72.9420  221.4010 C   0  0  0  0  0  0  0  0  0  0  0  0
  141.5001   71.8662  221.2655 H   0  0  0  0  0  0  0  0  0  0  0  0
  1  2  1  0
  2  3  1  0
  3  4  2  0
  4  5  1  0
  5  6  2  0
  6  7  1  0
  7  8  1  6
  7  9  1  0
  9 10  1  0
  9 11  1  0
  9 12  1  0
  7 13  1  0
 13 14  1  0
 13 15  1  0
 13 16  1  0
 16 17  2  0
 17 18  1  0
 17 19  1  0
 19 20  1  0
 19 21  2  0
 21 22  1  0
 21 23  1  0
 23 24  1  0
 23 25  2  0
 25 26  1  0
  5 27  1  0
 27 28  1  0
 27 29  1  0
 29 30  1  0
 30 31  2  0
 31 32  1  0
 31 33  1  0
 33 34  1  0
 33 35  2  0
 35 36  1  0
 36 37  1  0
 36 38  2  0
 38 39  1  0
 29 40  2  0
 40 41  1  0
 40  3  1  0
 25 16  1  0
 38 30  1  0
M  END
>  <UniqueID>  (45) 
7

>  <SMILES>  (45) 
C[C@@H](Cc1ccccc1)/N=c1\nc(O)cc(-c2ccncc2)[nH]1

>  <Energy>  (45) 
47.20727747248445

>  <Genealogy>  (45) 
CC(Cc1ccccc1)N=c1nc(O)cc(-c2ccncc2)[nH]1 (tautomer)
C[C@@H](Cc1ccccc1)N=c1nc(O)cc(-c2ccncc2)[nH]1 (chirality)
C[C@@H](Cc1ccccc1)/N=c1\nc(O)cc(-c2ccncc2)[nH]1 (cis-trans isomerization)
C[C@@H](Cc1ccccc1)/N=c1\nc(O)cc(-c2ccncc2)[nH]1 (3D coordinates assigned)
C[C@@H](Cc1ccccc1)/N=c1\nc(O)cc(-c2ccncc2)[nH]1 (optimized conformer: 47.20727747248445 kcal/mol)

>  <smiles>  (45) 
CC(Cc1ccccc1)N=c1[nH]c(-c2ccncc2)cc(=O)[nH]1

>  <score_type>  (45) 
oracle

>  <origin>  (45) 
autodockgpu

>  <m_score__min__energy>  (45) 
-7.6500000000000004

>  <m_primary>  (45) 
energy

>  <meeko>  (45) 
{"free_energy": -7.38, "intermolecular_energy": -9.17, "internal_energy": -0.73, "cluster_size": 4, "cluster_id": 2, "rank_in_cluster": 1}

>  <energy>  (45) 
-7.55

>  <cluster_rmsd>  (45) 
0.16

>  <rmsd>  (45) 
273.39

>  <cluster>  (45) 
1

$$$$
XBCCWEKCHRHPJI-JANDEHFDNA-N
     RDKit          3D

 41 43  0  0  0  0  0  0  0  0999 V2000
  141.6590   77.2660  221.9750 H   0  0  0  0  0  0  0  0  0  0  0  0
  140.8780   76.6390  221.8260 O   0  0  0  0  0  0  0  0  0  0  0  0
  141.0830   75.2750  221.6400 C   0  0  0  0  0  0  0  0  0  0  0  0
  140.1470   74.3840  222.0510 N   0  0  0  0  0  0  0  0  0  0  0  0
  140.3210   73.0450  221.8800 C   0  0  0  0  0  0  0  0  0  0  0  0
  139.4190   72.1930  222.2800 N   0  0  0  0  0  0  0  0  0  0  0  0
  139.3360   71.5270  223.5870 C   0  0  1  0  0  0  0  0  0  0  0  0
  138.9504   72.2509  224.3200 H   0  0  0  0  0  0  0  0  0  0  0  0
  138.3350   70.3630  223.5540 C   0  0  0  0  0  0  0  0  0  0  0  0
  138.0815   70.0682  224.5830 H   0  0  0  0  0  0  0  0  0  0  0  0
  137.4223   70.6791  223.0277 H   0  0  0  0  0  0  0  0  0  0  0  0
  138.7842   69.5079  223.0277 H   0  0  0  0  0  0  0  0  0  0  0  0
  140.7340   71.0990  224.0840 C   0  0  0  0  0  0  0  0  0  0  0  0
  141.0272   70.1730  223.5678 H   0  0  0  0  0  0  0  0  0  0  0  0
  141.4391   71.9144  223.8648 H   0  0  0  0  0  0  0  0  0  0  0  0
  140.7490   70.8540  225.5720 C   0  0  0  0  0  0  0  0  0  0  0  0
  140.4250   69.5880  226.0880 C   0  0  0  0  0  0  0  0  0  0  0  0
  140.1792   68.7632  225.4029 H   0  0  0  0  0  0  0  0  0  0  0  0
  140.4140   69.3730  227.4700 C   0  0  0  0  0  0  0  0  0  0  0  0
  140.1626   68.3794  227.8694 H   0  0  0  0  0  0  0  0  0  0  0  0
  140.7220   70.4190  228.3440 C   0  0  0  0  0  0  0  0  0  0  0  0
  140.7157   70.2472  229.4305 H   0  0  0  0  0  0  0  0  0  0  0  0
  141.0380   71.6830  227.8390 C   0  0  0  0  0  0  0  0  0  0  0  0
  141.2783   72.5058  228.5284 H   0  0  0  0  0  0  0  0  0  0  0  0
  141.0490   71.9030  226.4570 C   0  0  0  0  0  0  0  0  0  0  0  0
  141.2933   72.9003  226.0625 H   0  0  0  0  0  0  0  0  0  0  0  0
  141.4570   72.5860  221.2820 N   0  0  0  0  0  0  0  0  0  0  0  0
  141.5870   71.5530  221.1740 H   0  0  0  0  0  0  0  0  0  0  0  0
  142.4290   73.4440  220.8510 C   0  0  0  0  0  0  0  0  0  0  0  0
  143.6550   72.9220  220.1970 C   0  0  0  0  0  0  0  0  0  0  0  0
  143.5960   71.7730  219.3900 C   0  0  0  0  0  0  0  0  0  0  0  0
  142.6388   71.2527  219.2377 H   0  0  0  0  0  0  0  0  0  0  0  0
  144.7600   71.2950  218.7820 C   0  0  0  0  0  0  0  0  0  0  0  0
  144.7185   70.3962  218.1492 H   0  0  0  0  0  0  0  0  0  0  0  0
  145.9430   71.9370  218.9700 N   0  0  0  0  0  0  0  0  0  0  0  0
  146.0320   73.0500  219.7440 C   0  0  0  0  0  0  0  0  0  0  0  0
  147.0033   73.5486  219.8782 H   0  0  0  0  0  0  0  0  0  0  0  0
  144.8930   73.5630  220.3700 C   0  0  0  0  0  0  0  0  0  0  0  0
  144.9654   74.4649  220.9956 H   0  0  0  0  0  0  0  0  0  0  0  0
  142.2500   74.8240  221.0290 C   0  0  0  0  0  0  0  0  0  0  0  0
  143.0174   75.5365  220.6921 H   0  0  0  0  0  0  0  0  0  0  0  0
  1  2  1  0
  2  3  1  0
  3  4  2  0
  4  5  1  0
  5  6  2  0
  6  7  1  0
  7  8  1  1
  7  9  1  0
  9 10  1  0
  9 11  1  0
  9 12  1  0
  7 13  1  0
 13 14  1  0
 13 15  1  0
 13 16  1  0
 16 17  2  0
 17 18  1  0
 17 19  1  0
 19 20  1  0
 19 21  2  0
 21 22  1  0
 21 23  1  0
 23 24  1  0
 23 25  2  0
 25 26  1  0
  5 27  1  0
 27 28  1  0
 27 29  1  0
 29 30  1  0
 30 31  2  0
 31 32  1  0
 31 33  1  0
 33 34  1  0
 33 35  2  0
 35 36  1  0
 36 37  1  0
 36 38  2  0
 38 39  1  0
 29 40  2  0
 40 41  1  0
 40  3  1  0
 25 16  1  0
 38 30  1  0
M  END
>  <UniqueID>  (46) 
7

>  <SMILES>  (46) 
C[C@@H](Cc1ccccc1)/N=c1\nc(O)cc(-c2ccncc2)[nH]1

>  <Energy>  (46) 
47.20727747248445

>  <Genealogy>  (46) 
CC(Cc1ccccc1)N=c1nc(O)cc(-c2ccncc2)[nH]1 (tautomer)
C[C@@H](Cc1ccccc1)N=c1nc(O)cc(-c2ccncc2)[nH]1 (chirality)
C[C@@H](Cc1ccccc1)/N=c1\nc(O)cc(-c2ccncc2)[nH]1 (cis-trans isomerization)
C[C@@H](Cc1ccccc1)/N=c1\nc(O)cc(-c2ccncc2)[nH]1 (3D coordinates assigned)
C[C@@H](Cc1ccccc1)/N=c1\nc(O)cc(-c2ccncc2)[nH]1 (optimized conformer: 47.20727747248445 kcal/mol)

>  <smiles>  (46) 
CC(Cc1ccccc1)N=c1[nH]c(-c2ccncc2)cc(=O)[nH]1

>  <score_type>  (46) 
oracle

>  <origin>  (46) 
autodockgpu

>  <m_score__min__energy>  (46) 
-7.6500000000000004

>  <m_primary>  (46) 
energy

>  <meeko>  (46) 
{"free_energy": -7.53, "intermolecular_energy": -9.32, "internal_energy": -0.71, "cluster_size": 14, "cluster_id": 1, "rank_in_cluster": 8}

>  <energy>  (46) 
-7.54

>  <cluster_rmsd>  (46) 
0.78

>  <rmsd>  (46) 
273.35

>  <cluster>  (46) 
1

$$$$
XBCCWEKCHRHPJI-JANDEHFDNA-N
     RDKit          3D

 41 43  0  0  0  0  0  0  0  0999 V2000
  141.7790   77.3220  221.9630 H   0  0  0  0  0  0  0  0  0  0  0  0
  140.9910   76.7300  221.7280 O   0  0  0  0  0  0  0  0  0  0  0  0
  141.1450   75.3520  221.6130 C   0  0  0  0  0  0  0  0  0  0  0  0
  140.1570   74.5200  222.0290 N   0  0  0  0  0  0  0  0  0  0  0  0
  140.2800   73.1690  221.9260 C   0  0  0  0  0  0  0  0  0  0  0  0
  139.3290   72.3750  222.3310 N   0  0  0  0  0  0  0  0  0  0  0  0
  139.4080   71.3450  223.3770 C   0  0  1  0  0  0  0  0  0  0  0  0
  138.5863   71.5109  224.0892 H   0  0  0  0  0  0  0  0  0  0  0  0
  139.1990   69.9420  222.7910 C   0  0  0  0  0  0  0  0  0  0  0  0
  139.0907   69.2152  223.6095 H   0  0  0  0  0  0  0  0  0  0  0  0
  138.2899   69.9350  222.1717 H   0  0  0  0  0  0  0  0  0  0  0  0
  140.0666   69.6703  222.1717 H   0  0  0  0  0  0  0  0  0  0  0  0
  140.7180   71.4690  224.1820 C   0  0  0  0  0  0  0  0  0  0  0  0
  141.4722   70.8017  223.7395 H   0  0  0  0  0  0  0  0  0  0  0  0
  141.0457   72.5183  224.1418 H   0  0  0  0  0  0  0  0  0  0  0  0
  140.5240   71.0940  225.6300 C   0  0  0  0  0  0  0  0  0  0  0  0
  139.7790   69.9540  225.9770 C   0  0  0  0  0  0  0  0  0  0  0  0
  139.3517   69.3175  225.1881 H   0  0  0  0  0  0  0  0  0  0  0  0
  139.5790   69.6260  227.3210 C   0  0  0  0  0  0  0  0  0  0  0  0
  138.9981   68.7306  227.5872 H   0  0  0  0  0  0  0  0  0  0  0  0
  140.1160   70.4340  228.3270 C   0  0  0  0  0  0  0  0  0  0  0  0
  139.9597   70.1727  229.3840 H   0  0  0  0  0  0  0  0  0  0  0  0
  140.8510   71.5730  227.9910 C   0  0  0  0  0  0  0  0  0  0  0  0
  141.2718   72.2086  228.7840 H   0  0  0  0  0  0  0  0  0  0  0  0
  141.0530   71.9070  226.6470 C   0  0  0  0  0  0  0  0  0  0  0  0
  141.6273   72.8082  226.3860 H   0  0  0  0  0  0  0  0  0  0  0  0
  141.4150   72.6360  221.3930 N   0  0  0  0  0  0  0  0  0  0  0  0
  141.5060   71.5940  221.3380 H   0  0  0  0  0  0  0  0  0  0  0  0
  142.4380   73.4310  220.9600 C   0  0  0  0  0  0  0  0  0  0  0  0
  143.6630   72.8290  220.3760 C   0  0  0  0  0  0  0  0  0  0  0  0
  144.8760   73.5380  220.3820 C   0  0  0  0  0  0  0  0  0  0  0  0
  144.9253   74.5453  220.8213 H   0  0  0  0  0  0  0  0  0  0  0  0
  146.0200   72.9570  219.8270 C   0  0  0  0  0  0  0  0  0  0  0  0
  146.9713   73.5092  219.8283 H   0  0  0  0  0  0  0  0  0  0  0  0
  145.9600   71.7120  219.2860 N   0  0  0  0  0  0  0  0  0  0  0  0
  144.8020   71.0010  219.2660 C   0  0  0  0  0  0  0  0  0  0  0  0
  144.7838   69.9953  218.8207 H   0  0  0  0  0  0  0  0  0  0  0  0
  143.6350   71.5430  219.8090 C   0  0  0  0  0  0  0  0  0  0  0  0
  142.6984   70.9663  219.7931 H   0  0  0  0  0  0  0  0  0  0  0  0
  142.3120   74.8240  221.0680 C   0  0  0  0  0  0  0  0  0  0  0  0
  143.1210   75.4873  220.7280 H   0  0  0  0  0  0  0  0  0  0  0  0
  1  2  1  0
  2  3  1  0
  3  4  2  0
  4  5  1  0
  5  6  2  0
  6  7  1  0
  7  8  1  1
  7  9  1  0
  9 10  1  0
  9 11  1  0
  9 12  1  0
  7 13  1  0
 13 14  1  0
 13 15  1  0
 13 16  1  0
 16 17  2  0
 17 18  1  0
 17 19  1  0
 19 20  1  0
 19 21  2  0
 21 22  1  0
 21 23  1  0
 23 24  1  0
 23 25  2  0
 25 26  1  0
  5 27  1  0
 27 28  1  0
 27 29  1  0
 29 30  1  0
 30 31  2  0
 31 32  1  0
 31 33  1  0
 33 34  1  0
 33 35  2  0
 35 36  1  0
 36 37  1  0
 36 38  2  0
 38 39  1  0
 29 40  2  0
 40 41  1  0
 40  3  1  0
 25 16  1  0
 38 30  1  0
M  END
>  <UniqueID>  (47) 
7

>  <SMILES>  (47) 
C[C@@H](Cc1ccccc1)/N=c1\nc(O)cc(-c2ccncc2)[nH]1

>  <Energy>  (47) 
47.20727747248445

>  <Genealogy>  (47) 
CC(Cc1ccccc1)N=c1nc(O)cc(-c2ccncc2)[nH]1 (tautomer)
C[C@@H](Cc1ccccc1)N=c1nc(O)cc(-c2ccncc2)[nH]1 (chirality)
C[C@@H](Cc1ccccc1)/N=c1\nc(O)cc(-c2ccncc2)[nH]1 (cis-trans isomerization)
C[C@@H](Cc1ccccc1)/N=c1\nc(O)cc(-c2ccncc2)[nH]1 (3D coordinates assigned)
C[C@@H](Cc1ccccc1)/N=c1\nc(O)cc(-c2ccncc2)[nH]1 (optimized conformer: 47.20727747248445 kcal/mol)

>  <smiles>  (47) 
CC(Cc1ccccc1)N=c1[nH]c(-c2ccncc2)cc(=O)[nH]1

>  <score_type>  (47) 
oracle

>  <origin>  (47) 
autodockgpu

>  <m_score__min__energy>  (47) 
-7.6500000000000004

>  <m_primary>  (47) 
energy

>  <meeko>  (47) 
{"free_energy": -7.51, "intermolecular_energy": -9.3, "internal_energy": -0.7, "cluster_size": 14, "cluster_id": 1, "rank_in_cluster": 10}

>  <energy>  (47) 
-7.53

>  <cluster_rmsd>  (47) 
0.85

>  <rmsd>  (47) 
273.34

>  <cluster>  (47) 
1

$$$$
XBCCWEKCHRHPJI-JANDEHFDNA-N
     RDKit          3D

 41 43  0  0  0  0  0  0  0  0999 V2000
  143.3260   79.0070  216.2980 H   0  0  0  0  0  0  0  0  0  0  0  0
  142.8000   78.1530  216.4410 O   0  0  0  0  0  0  0  0  0  0  0  0
  142.8250   77.4970  217.6680 C   0  0  0  0  0  0  0  0  0  0  0  0
  142.0850   77.9650  218.7040 N   0  0  0  0  0  0  0  0  0  0  0  0
  142.0880   77.3420  219.9140 C   0  0  0  0  0  0  0  0  0  0  0  0
  141.3780   77.8000  220.9070 N   0  0  0  0  0  0  0  0  0  0  0  0
  140.1830   77.1900  221.5070 C   0  0  1  0  0  0  0  0  0  0  0  0
  139.3757   77.2015  220.7600 H   0  0  0  0  0  0  0  0  0  0  0  0
  140.4300   75.7160  221.8590 C   0  0  0  0  0  0  0  0  0  0  0  0
  140.4497   75.5985  222.9525 H   0  0  0  0  0  0  0  0  0  0  0  0
  139.6228   75.0983  221.4383 H   0  0  0  0  0  0  0  0  0  0  0  0
  141.3944   75.3952  221.4383 H   0  0  0  0  0  0  0  0  0  0  0  0
  139.6810   78.0170  222.7100 C   0  0  0  0  0  0  0  0  0  0  0  0
  138.6688   78.3872  222.4900 H   0  0  0  0  0  0  0  0  0  0  0  0
  139.6798   77.3653  223.5962 H   0  0  0  0  0  0  0  0  0  0  0  0
  140.5800   79.1940  222.9950 C   0  0  0  0  0  0  0  0  0  0  0  0
  141.7390   79.0320  223.7730 C   0  0  0  0  0  0  0  0  0  0  0  0
  142.0052   78.0370  224.1591 H   0  0  0  0  0  0  0  0  0  0  0  0
  142.5550   80.1310  224.0580 C   0  0  0  0  0  0  0  0  0  0  0  0
  143.4628   79.9988  224.6650 H   0  0  0  0  0  0  0  0  0  0  0  0
  142.2180   81.3980  223.5720 C   0  0  0  0  0  0  0  0  0  0  0  0
  142.8622   82.2614  223.7947 H   0  0  0  0  0  0  0  0  0  0  0  0
  141.0640   81.5680  222.8040 C   0  0  0  0  0  0  0  0  0  0  0  0
  140.8001   82.5657  222.4232 H   0  0  0  0  0  0  0  0  0  0  0  0
  140.2430   80.4720  222.5180 C   0  0  0  0  0  0  0  0  0  0  0  0
  139.3314   80.6110  221.9183 H   0  0  0  0  0  0  0  0  0  0  0  0
  142.8470   76.2250  220.0920 N   0  0  0  0  0  0  0  0  0  0  0  0
  142.8560   75.7660  221.0330 H   0  0  0  0  0  0  0  0  0  0  0  0
  143.6090   75.7140  219.0790 C   0  0  0  0  0  0  0  0  0  0  0  0
  144.4220   74.4910  219.2940 C   0  0  0  0  0  0  0  0  0  0  0  0
  144.4840   73.4950  218.3050 C   0  0  0  0  0  0  0  0  0  0  0  0
  143.9293   73.6164  217.3629 H   0  0  0  0  0  0  0  0  0  0  0  0
  145.2540   72.3490  218.5240 C   0  0  0  0  0  0  0  0  0  0  0  0
  145.3046   71.5665  217.7525 H   0  0  0  0  0  0  0  0  0  0  0  0
  145.9400   72.1990  219.6870 N   0  0  0  0  0  0  0  0  0  0  0  0
  145.9000   73.1440  220.6630 C   0  0  0  0  0  0  0  0  0  0  0  0
  146.4651   72.9944  221.5948 H   0  0  0  0  0  0  0  0  0  0  0  0
  145.1430   74.3050  220.4860 C   0  0  0  0  0  0  0  0  0  0  0  0
  145.1115   75.0699  221.2759 H   0  0  0  0  0  0  0  0  0  0  0  0
  143.6070   76.3570  217.8330 C   0  0  0  0  0  0  0  0  0  0  0  0
  144.2123   75.9678  217.0010 H   0  0  0  0  0  0  0  0  0  0  0  0
  1  2  1  0
  2  3  1  0
  3  4  2  0
  4  5  1  0
  5  6  2  0
  6  7  1  0
  7  8  1  6
  7  9  1  0
  9 10  1  0
  9 11  1  0
  9 12  1  0
  7 13  1  0
 13 14  1  0
 13 15  1  0
 13 16  1  0
 16 17  2  0
 17 18  1  0
 17 19  1  0
 19 20  1  0
 19 21  2  0
 21 22  1  0
 21 23  1  0
 23 24  1  0
 23 25  2  0
 25 26  1  0
  5 27  1  0
 27 28  1  0
 27 29  1  0
 29 30  1  0
 30 31  2  0
 31 32  1  0
 31 33  1  0
 33 34  1  0
 33 35  2  0
 35 36  1  0
 36 37  1  0
 36 38  2  0
 38 39  1  0
 29 40  2  0
 40 41  1  0
 40  3  1  0
 25 16  1  0
 38 30  1  0
M  END
>  <UniqueID>  (48) 
7

>  <SMILES>  (48) 
C[C@@H](Cc1ccccc1)/N=c1\nc(O)cc(-c2ccncc2)[nH]1

>  <Energy>  (48) 
47.20727747248445

>  <Genealogy>  (48) 
CC(Cc1ccccc1)N=c1nc(O)cc(-c2ccncc2)[nH]1 (tautomer)
C[C@@H](Cc1ccccc1)N=c1nc(O)cc(-c2ccncc2)[nH]1 (chirality)
C[C@@H](Cc1ccccc1)/N=c1\nc(O)cc(-c2ccncc2)[nH]1 (cis-trans isomerization)
C[C@@H](Cc1ccccc1)/N=c1\nc(O)cc(-c2ccncc2)[nH]1 (3D coordinates assigned)
C[C@@H](Cc1ccccc1)/N=c1\nc(O)cc(-c2ccncc2)[nH]1 (optimized conformer: 47.20727747248445 kcal/mol)

>  <smiles>  (48) 
CC(Cc1ccccc1)N=c1[nH]c(-c2ccncc2)cc(=O)[nH]1

>  <score_type>  (48) 
oracle

>  <origin>  (48) 
autodockgpu

>  <m_score__min__energy>  (48) 
-7.6500000000000004

>  <m_primary>  (48) 
energy

>  <meeko>  (48) 
{"free_energy": -6.99, "intermolecular_energy": -8.77, "internal_energy": -0.79, "cluster_size": 2, "cluster_id": 3, "rank_in_cluster": 1}

>  <energy>  (48) 
-7.53

>  <cluster_rmsd>  (48) 
0.76

>  <rmsd>  (48) 
273.35

>  <cluster>  (48) 
1

$$$$
XBCCWEKCHRHPJI-JANDEHFDNA-N
     RDKit          3D

 41 43  0  0  0  0  0  0  0  0999 V2000
  139.2160   74.7890  223.0860 H   0  0  0  0  0  0  0  0  0  0  0  0
  139.6650   74.2610  222.3470 O   0  0  0  0  0  0  0  0  0  0  0  0
  140.5700   74.8710  221.4840 C   0  0  0  0  0  0  0  0  0  0  0  0
  140.3010   76.0970  220.9700 N   0  0  0  0  0  0  0  0  0  0  0  0
  141.1690   76.7180  220.1260 C   0  0  0  0  0  0  0  0  0  0  0  0
  140.9020   77.8940  219.6330 N   0  0  0  0  0  0  0  0  0  0  0  0
  141.8520   78.9760  219.3350 C   0  0  1  0  0  0  0  0  0  0  0  0
  142.8250   78.7135  219.7760 H   0  0  0  0  0  0  0  0  0  0  0  0
  142.0810   79.1120  217.8230 C   0  0  0  0  0  0  0  0  0  0  0  0
  143.0138   79.6660  217.6418 H   0  0  0  0  0  0  0  0  0  0  0  0
  142.1552   78.1115  217.3719 H   0  0  0  0  0  0  0  0  0  0  0  0
  141.2380   79.6559  217.3719 H   0  0  0  0  0  0  0  0  0  0  0  0
  141.4140   80.3000  219.9960 C   0  0  0  0  0  0  0  0  0  0  0  0
  141.8846   81.1379  219.4608 H   0  0  0  0  0  0  0  0  0  0  0  0
  140.3171   80.3625  219.9421 H   0  0  0  0  0  0  0  0  0  0  0  0
  141.8160   80.3610  221.4480 C   0  0  0  0  0  0  0  0  0  0  0  0
  142.1880   79.1920  222.1340 C   0  0  0  0  0  0  0  0  0  0  0  0
  142.2064   78.2281  221.6043 H   0  0  0  0  0  0  0  0  0  0  0  0
  142.5350   79.2500  223.4880 C   0  0  0  0  0  0  0  0  0  0  0  0
  142.8294   78.3331  224.0196 H   0  0  0  0  0  0  0  0  0  0  0  0
  142.5080   80.4720  224.1660 C   0  0  0  0  0  0  0  0  0  0  0  0
  142.7830   80.5164  225.2302 H   0  0  0  0  0  0  0  0  0  0  0  0
  142.1320   81.6370  223.4930 C   0  0  0  0  0  0  0  0  0  0  0  0
  142.1103   82.5977  224.0284 H   0  0  0  0  0  0  0  0  0  0  0  0
  141.7830   81.5840  222.1390 C   0  0  0  0  0  0  0  0  0  0  0  0
  141.4819   82.5025  221.6140 H   0  0  0  0  0  0  0  0  0  0  0  0
  142.3360   76.0990  219.7890 N   0  0  0  0  0  0  0  0  0  0  0  0
  142.9860   76.5780  219.1240 H   0  0  0  0  0  0  0  0  0  0  0  0
  142.6530   74.8640  220.2800 C   0  0  0  0  0  0  0  0  0  0  0  0
  143.9320   74.2120  219.9040 C   0  0  0  0  0  0  0  0  0  0  0  0
  144.9740   74.0960  220.8410 C   0  0  0  0  0  0  0  0  0  0  0  0
  144.8467   74.4882  221.8608 H   0  0  0  0  0  0  0  0  0  0  0  0
  146.1720   73.4800  220.4700 C   0  0  0  0  0  0  0  0  0  0  0  0
  146.9896   73.3865  221.1999 H   0  0  0  0  0  0  0  0  0  0  0  0
  146.3300   72.9960  219.2100 N   0  0  0  0  0  0  0  0  0  0  0  0
  145.3420   73.0920  218.2820 C   0  0  0  0  0  0  0  0  0  0  0  0
  145.4992   72.6908  217.2699 H   0  0  0  0  0  0  0  0  0  0  0  0
  144.1270   73.6990  218.6100 C   0  0  0  0  0  0  0  0  0  0  0  0
  143.3268   73.7750  217.8591 H   0  0  0  0  0  0  0  0  0  0  0  0
  141.7560   74.2240  221.1480 C   0  0  0  0  0  0  0  0  0  0  0  0
  141.9856   73.2286  221.5559 H   0  0  0  0  0  0  0  0  0  0  0  0
  1  2  1  0
  2  3  1  0
  3  4  2  0
  4  5  1  0
  5  6  2  0
  6  7  1  0
  7  8  1  1
  7  9  1  0
  9 10  1  0
  9 11  1  0
  9 12  1  0
  7 13  1  0
 13 14  1  0
 13 15  1  0
 13 16  1  0
 16 17  2  0
 17 18  1  0
 17 19  1  0
 19 20  1  0
 19 21  2  0
 21 22  1  0
 21 23  1  0
 23 24  1  0
 23 25  2  0
 25 26  1  0
  5 27  1  0
 27 28  1  0
 27 29  1  0
 29 30  1  0
 30 31  2  0
 31 32  1  0
 31 33  1  0
 33 34  1  0
 33 35  2  0
 35 36  1  0
 36 37  1  0
 36 38  2  0
 38 39  1  0
 29 40  2  0
 40 41  1  0
 40  3  1  0
 25 16  1  0
 38 30  1  0
M  END
>  <UniqueID>  (49) 
7

>  <SMILES>  (49) 
C[C@@H](Cc1ccccc1)/N=c1\nc(O)cc(-c2ccncc2)[nH]1

>  <Energy>  (49) 
47.20727747248445

>  <Genealogy>  (49) 
CC(Cc1ccccc1)N=c1nc(O)cc(-c2ccncc2)[nH]1 (tautomer)
C[C@@H](Cc1ccccc1)N=c1nc(O)cc(-c2ccncc2)[nH]1 (chirality)
C[C@@H](Cc1ccccc1)/N=c1\nc(O)cc(-c2ccncc2)[nH]1 (cis-trans isomerization)
C[C@@H](Cc1ccccc1)/N=c1\nc(O)cc(-c2ccncc2)[nH]1 (3D coordinates assigned)
C[C@@H](Cc1ccccc1)/N=c1\nc(O)cc(-c2ccncc2)[nH]1 (optimized conformer: 47.20727747248445 kcal/mol)

>  <smiles>  (49) 
CC(Cc1ccccc1)N=c1[nH]c(-c2ccncc2)cc(=O)[nH]1

>  <score_type>  (49) 
oracle

>  <origin>  (49) 
autodockgpu

>  <m_score__min__energy>  (49) 
-7.6500000000000004

>  <m_primary>  (49) 
energy

>  <meeko>  (49) 
{"free_energy": -7.17, "intermolecular_energy": -8.96, "internal_energy": -0.82, "cluster_size": 4, "cluster_id": 2, "rank_in_cluster": 3}

>  <energy>  (49) 
-7.52

>  <cluster_rmsd>  (49) 
0.29

>  <rmsd>  (49) 
273.36

>  <cluster>  (49) 
1

$$$$
XBCCWEKCHRHPJI-JANDEHFDNA-N
     RDKit          3D

 41 43  0  0  0  0  0  0  0  0999 V2000
  138.9760   75.3810  223.0100 H   0  0  0  0  0  0  0  0  0  0  0  0
  139.6030   75.2710  222.2220 O   0  0  0  0  0  0  0  0  0  0  0  0
  140.2470   74.0600  221.9870 C   0  0  0  0  0  0  0  0  0  0  0  0
  139.6530   72.8930  222.3420 N   0  0  0  0  0  0  0  0  0  0  0  0
  140.2590   71.6950  222.1220 C   0  0  0  0  0  0  0  0  0  0  0  0
  139.6840   70.5770  222.4690 N   0  0  0  0  0  0  0  0  0  0  0  0
  139.1800   70.2060  223.7990 C   0  0  1  0  0  0  0  0  0  0  0  0
  138.8410   71.1199  224.3088 H   0  0  0  0  0  0  0  0  0  0  0  0
  137.9550   69.2870  223.6900 C   0  0  0  0  0  0  0  0  0  0  0  0
  137.6035   69.0233  224.6984 H   0  0  0  0  0  0  0  0  0  0  0  0
  137.1529   69.8081  223.1467 H   0  0  0  0  0  0  0  0  0  0  0  0
  138.2309   68.3712  223.1467 H   0  0  0  0  0  0  0  0  0  0  0  0
  140.3020   69.6080  224.6730 C   0  0  0  0  0  0  0  0  0  0  0  0
  140.0519   68.5629  224.9078 H   0  0  0  0  0  0  0  0  0  0  0  0
  141.2450   69.6716  224.1102 H   0  0  0  0  0  0  0  0  0  0  0  0
  140.4730   70.3710  225.9630 C   0  0  0  0  0  0  0  0  0  0  0  0
  139.8490   69.9260  227.1410 C   0  0  0  0  0  0  0  0  0  0  0  0
  139.2485   69.0045  227.1288 H   0  0  0  0  0  0  0  0  0  0  0  0
  139.9890   70.6510  228.3290 C   0  0  0  0  0  0  0  0  0  0  0  0
  139.5019   70.2967  229.2494 H   0  0  0  0  0  0  0  0  0  0  0  0
  140.7470   71.8250  228.3480 C   0  0  0  0  0  0  0  0  0  0  0  0
  140.8577   72.3926  229.2837 H   0  0  0  0  0  0  0  0  0  0  0  0
  141.3640   72.2780  227.1800 C   0  0  0  0  0  0  0  0  0  0  0  0
  141.9593   73.2029  227.1964 H   0  0  0  0  0  0  0  0  0  0  0  0
  141.2260   71.5570  225.9890 C   0  0  0  0  0  0  0  0  0  0  0  0
  141.7087   71.9199  225.0696 H   0  0  0  0  0  0  0  0  0  0  0  0
  141.4870   71.6610  221.5320 N   0  0  0  0  0  0  0  0  0  0  0  0
  141.9510   70.7340  221.3860 H   0  0  0  0  0  0  0  0  0  0  0  0
  142.1260   72.8090  221.1560 C   0  0  0  0  0  0  0  0  0  0  0  0
  143.4600   72.7480  220.5080 C   0  0  0  0  0  0  0  0  0  0  0  0
  144.4150   73.7500  220.7500 C   0  0  0  0  0  0  0  0  0  0  0  0
  144.1791   74.5871  221.4235 H   0  0  0  0  0  0  0  0  0  0  0  0
  145.6660   73.6780  220.1310 C   0  0  0  0  0  0  0  0  0  0  0  0
  146.4157   74.4611  220.3173 H   0  0  0  0  0  0  0  0  0  0  0  0
  145.9590   72.6440  219.3000 N   0  0  0  0  0  0  0  0  0  0  0  0
  145.0570   71.6590  219.0460 C   0  0  0  0  0  0  0  0  0  0  0  0
  145.3217   70.8345  218.3677 H   0  0  0  0  0  0  0  0  0  0  0  0
  143.7950   71.6910  219.6440 C   0  0  0  0  0  0  0  0  0  0  0  0
  143.0665   70.8925  219.4397 H   0  0  0  0  0  0  0  0  0  0  0  0
  141.5020   74.0440  221.3840 C   0  0  0  0  0  0  0  0  0  0  0  0
  141.9950   74.9829  221.0918 H   0  0  0  0  0  0  0  0  0  0  0  0
  1  2  1  0
  2  3  1  0
  3  4  2  0
  4  5  1  0
  5  6  2  0
  6  7  1  0
  7  8  1  1
  7  9  1  0
  9 10  1  0
  9 11  1  0
  9 12  1  0
  7 13  1  0
 13 14  1  0
 13 15  1  0
 13 16  1  0
 16 17  2  0
 17 18  1  0
 17 19  1  0
 19 20  1  0
 19 21  2  0
 21 22  1  0
 21 23  1  0
 23 24  1  0
 23 25  2  0
 25 26  1  0
  5 27  1  0
 27 28  1  0
 27 29  1  0
 29 30  1  0
 30 31  2  0
 31 32  1  0
 31 33  1  0
 33 34  1  0
 33 35  2  0
 35 36  1  0
 36 37  1  0
 36 38  2  0
 38 39  1  0
 29 40  2  0
 40 41  1  0
 40  3  1  0
 25 16  1  0
 38 30  1  0
M  END
>  <UniqueID>  (50) 
7

>  <SMILES>  (50) 
C[C@@H](Cc1ccccc1)/N=c1\nc(O)cc(-c2ccncc2)[nH]1

>  <Energy>  (50) 
47.20727747248445

>  <Genealogy>  (50) 
CC(Cc1ccccc1)N=c1nc(O)cc(-c2ccncc2)[nH]1 (tautomer)
C[C@@H](Cc1ccccc1)N=c1nc(O)cc(-c2ccncc2)[nH]1 (chirality)
C[C@@H](Cc1ccccc1)/N=c1\nc(O)cc(-c2ccncc2)[nH]1 (cis-trans isomerization)
C[C@@H](Cc1ccccc1)/N=c1\nc(O)cc(-c2ccncc2)[nH]1 (3D coordinates assigned)
C[C@@H](Cc1ccccc1)/N=c1\nc(O)cc(-c2ccncc2)[nH]1 (optimized conformer: 47.20727747248445 kcal/mol)

>  <smiles>  (50) 
CC(Cc1ccccc1)N=c1[nH]c(-c2ccncc2)cc(=O)[nH]1

>  <score_type>  (50) 
oracle

>  <origin>  (50) 
autodockgpu

>  <m_score__min__energy>  (50) 
-7.6500000000000004

>  <m_primary>  (50) 
energy

>  <meeko>  (50) 
{"free_energy": -7.41, "intermolecular_energy": -9.2, "internal_energy": -0.78, "cluster_size": 14, "cluster_id": 1, "rank_in_cluster": 14}

>  <energy>  (50) 
-7.51

>  <cluster_rmsd>  (50) 
0.92

>  <rmsd>  (50) 
273.36

>  <cluster>  (50) 
1

$$$$
XBCCWEKCHRHPJI-JANDEHFDNA-N
     RDKit          3D

 41 43  0  0  0  0  0  0  0  0999 V2000
  140.1280   77.0580  220.9940 H   0  0  0  0  0  0  0  0  0  0  0  0
  140.2360   76.4220  221.7750 O   0  0  0  0  0  0  0  0  0  0  0  0
  140.7510   75.1430  221.5870 C   0  0  0  0  0  0  0  0  0  0  0  0
  140.0370   74.0570  221.9740 N   0  0  0  0  0  0  0  0  0  0  0  0
  140.5160   72.7950  221.8000 C   0  0  0  0  0  0  0  0  0  0  0  0
  139.8250   71.7560  222.1770 N   0  0  0  0  0  0  0  0  0  0  0  0
  139.3010   71.4700  223.5200 C   0  0  1  0  0  0  0  0  0  0  0  0
  139.3992   72.3788  224.1319 H   0  0  0  0  0  0  0  0  0  0  0  0
  137.8030   71.1380  223.4710 C   0  0  0  0  0  0  0  0  0  0  0  0
  137.4129   71.0515  224.4958 H   0  0  0  0  0  0  0  0  0  0  0  0
  137.2670   71.9392  222.9410 H   0  0  0  0  0  0  0  0  0  0  0  0
  137.6557   70.1854  222.9410 H   0  0  0  0  0  0  0  0  0  0  0  0
  140.1350   70.3770  224.2210 C   0  0  0  0  0  0  0  0  0  0  0  0
  139.5719   69.4323  224.2021 H   0  0  0  0  0  0  0  0  0  0  0  0
  141.0901   70.2782  223.6843 H   0  0  0  0  0  0  0  0  0  0  0  0
  140.4370   70.7370  225.6540 C   0  0  0  0  0  0  0  0  0  0  0  0
  139.9600   69.9350  226.7060 C   0  0  0  0  0  0  0  0  0  0  0  0
  139.3801   69.0272  226.4833 H   0  0  0  0  0  0  0  0  0  0  0  0
  140.2200   70.2870  228.0340 C   0  0  0  0  0  0  0  0  0  0  0  0
  139.8469   69.6550  228.8534 H   0  0  0  0  0  0  0  0  0  0  0  0
  140.9540   71.4420  228.3210 C   0  0  0  0  0  0  0  0  0  0  0  0
  141.1607   71.7162  229.3660 H   0  0  0  0  0  0  0  0  0  0  0  0
  141.4250   72.2480  227.2820 C   0  0  0  0  0  0  0  0  0  0  0  0
  142.0003   73.1575  227.5098 H   0  0  0  0  0  0  0  0  0  0  0  0
  141.1660   71.9000  225.9520 C   0  0  0  0  0  0  0  0  0  0  0  0
  141.5347   72.5396  225.1365 H   0  0  0  0  0  0  0  0  0  0  0  0
  141.7380   72.6140  221.2240 N   0  0  0  0  0  0  0  0  0  0  0  0
  142.1030   71.6400  221.1140 H   0  0  0  0  0  0  0  0  0  0  0  0
  142.4960   73.6760  220.8180 C   0  0  0  0  0  0  0  0  0  0  0  0
  143.8210   73.4550  220.1870 C   0  0  0  0  0  0  0  0  0  0  0  0
  145.0020   73.6730  220.9170 C   0  0  0  0  0  0  0  0  0  0  0  0
  144.9506   74.0090  221.9632 H   0  0  0  0  0  0  0  0  0  0  0  0
  146.2420   73.4610  220.3080 C   0  0  0  0  0  0  0  0  0  0  0  0
  147.1685   73.6306  220.8763 H   0  0  0  0  0  0  0  0  0  0  0  0
  146.3060   73.0460  219.0160 N   0  0  0  0  0  0  0  0  0  0  0  0
  145.1820   72.8260  218.2830 C   0  0  0  0  0  0  0  0  0  0  0  0
  145.2650   72.4905  217.2387 H   0  0  0  0  0  0  0  0  0  0  0  0
  143.9220   73.0250  218.8530 C   0  0  0  0  0  0  0  0  0  0  0  0
  143.0130   72.8458  218.2601 H   0  0  0  0  0  0  0  0  0  0  0  0
  142.0020   74.9760  220.9990 C   0  0  0  0  0  0  0  0  0  0  0  0
  142.5924   75.8483  220.6820 H   0  0  0  0  0  0  0  0  0  0  0  0
  1  2  1  0
  2  3  1  0
  3  4  2  0
  4  5  1  0
  5  6  2  0
  6  7  1  0
  7  8  1  1
  7  9  1  0
  9 10  1  0
  9 11  1  0
  9 12  1  0
  7 13  1  0
 13 14  1  0
 13 15  1  0
 13 16  1  0
 16 17  2  0
 17 18  1  0
 17 19  1  0
 19 20  1  0
 19 21  2  0
 21 22  1  0
 21 23  1  0
 23 24  1  0
 23 25  2  0
 25 26  1  0
  5 27  1  0
 27 28  1  0
 27 29  1  0
 29 30  1  0
 30 31  2  0
 31 32  1  0
 31 33  1  0
 33 34  1  0
 33 35  2  0
 35 36  1  0
 36 37  1  0
 36 38  2  0
 38 39  1  0
 29 40  2  0
 40 41  1  0
 40  3  1  0
 25 16  1  0
 38 30  1  0
M  END
>  <UniqueID>  (51) 
7

>  <SMILES>  (51) 
C[C@@H](Cc1ccccc1)/N=c1\nc(O)cc(-c2ccncc2)[nH]1

>  <Energy>  (51) 
47.20727747248445

>  <Genealogy>  (51) 
CC(Cc1ccccc1)N=c1nc(O)cc(-c2ccncc2)[nH]1 (tautomer)
C[C@@H](Cc1ccccc1)N=c1nc(O)cc(-c2ccncc2)[nH]1 (chirality)
C[C@@H](Cc1ccccc1)/N=c1\nc(O)cc(-c2ccncc2)[nH]1 (cis-trans isomerization)
C[C@@H](Cc1ccccc1)/N=c1\nc(O)cc(-c2ccncc2)[nH]1 (3D coordinates assigned)
C[C@@H](Cc1ccccc1)/N=c1\nc(O)cc(-c2ccncc2)[nH]1 (optimized conformer: 47.20727747248445 kcal/mol)

>  <smiles>  (51) 
CC(Cc1ccccc1)N=c1[nH]c(-c2ccncc2)cc(=O)[nH]1

>  <score_type>  (51) 
oracle

>  <origin>  (51) 
autodockgpu

>  <m_score__min__energy>  (51) 
-7.6500000000000004

>  <m_primary>  (51) 
energy

>  <meeko>  (51) 
{"free_energy": -7.59, "intermolecular_energy": -9.38, "internal_energy": -0.69, "cluster_size": 14, "cluster_id": 1, "rank_in_cluster": 2}

>  <energy>  (51) 
-7.51

>  <cluster_rmsd>  (51) 
0.38

>  <rmsd>  (51) 
273.34

>  <cluster>  (51) 
1

$$$$
XBCCWEKCHRHPJI-JANDEHFDNA-N
     RDKit          3D

 41 43  0  0  0  0  0  0  0  0999 V2000
  141.7450   77.2450  222.0230 H   0  0  0  0  0  0  0  0  0  0  0  0
  140.9520   76.6320  221.8710 O   0  0  0  0  0  0  0  0  0  0  0  0
  141.1340   75.2670  221.6700 C   0  0  0  0  0  0  0  0  0  0  0  0
  140.1780   74.3880  222.0610 N   0  0  0  0  0  0  0  0  0  0  0  0
  140.3290   73.0480  221.8740 C   0  0  0  0  0  0  0  0  0  0  0  0
  139.4080   72.2090  222.2560 N   0  0  0  0  0  0  0  0  0  0  0  0
  139.3110   71.5150  223.5480 C   0  0  1  0  0  0  0  0  0  0  0  0
  138.8853   72.2126  224.2843 H   0  0  0  0  0  0  0  0  0  0  0  0
  138.3450   70.3240  223.4670 C   0  0  0  0  0  0  0  0  0  0  0  0
  138.0799   69.9971  224.4833 H   0  0  0  0  0  0  0  0  0  0  0  0
  137.4340   70.6266  222.9298 H   0  0  0  0  0  0  0  0  0  0  0  0
  138.8291   69.4951  222.9298 H   0  0  0  0  0  0  0  0  0  0  0  0
  140.7070   71.1200  224.0750 C   0  0  0  0  0  0  0  0  0  0  0  0
  141.0306   70.1983  223.5693 H   0  0  0  0  0  0  0  0  0  0  0  0
  141.3982   71.9498  223.8661 H   0  0  0  0  0  0  0  0  0  0  0  0
  140.6980   70.8820  225.5640 C   0  0  0  0  0  0  0  0  0  0  0  0
  140.2520   69.6550  226.0860 C   0  0  0  0  0  0  0  0  0  0  0  0
  139.9273   68.8548  225.4047 H   0  0  0  0  0  0  0  0  0  0  0  0
  140.2200   69.4490  227.4690 C   0  0  0  0  0  0  0  0  0  0  0  0
  139.8741   68.4862  227.8732 H   0  0  0  0  0  0  0  0  0  0  0  0
  140.6270   70.4650  228.3380 C   0  0  0  0  0  0  0  0  0  0  0  0
  140.6031   70.3005  229.4254 H   0  0  0  0  0  0  0  0  0  0  0  0
  141.0640   71.6890  227.8270 C   0  0  0  0  0  0  0  0  0  0  0  0
  141.3828   72.4878  228.5127 H   0  0  0  0  0  0  0  0  0  0  0  0
  141.0970   71.9010  226.4450 C   0  0  0  0  0  0  0  0  0  0  0  0
  141.4364   72.8685  226.0466 H   0  0  0  0  0  0  0  0  0  0  0  0
  141.4610   72.5770  221.2790 N   0  0  0  0  0  0  0  0  0  0  0  0
  141.5730   71.5430  221.1590 H   0  0  0  0  0  0  0  0  0  0  0  0
  142.4520   73.4220  220.8670 C   0  0  0  0  0  0  0  0  0  0  0  0
  143.6730   72.8860  220.2150 C   0  0  0  0  0  0  0  0  0  0  0  0
  143.6110   71.7150  219.4410 C   0  0  0  0  0  0  0  0  0  0  0  0
  142.6544   71.1873  219.3126 H   0  0  0  0  0  0  0  0  0  0  0  0
  144.7710   71.2240  218.8350 C   0  0  0  0  0  0  0  0  0  0  0  0
  144.7265   70.3082  218.2273 H   0  0  0  0  0  0  0  0  0  0  0  0
  145.9530   71.8740  218.9940 N   0  0  0  0  0  0  0  0  0  0  0  0
  146.0460   73.0090  219.7360 C   0  0  0  0  0  0  0  0  0  0  0  0
  147.0169   73.5142  219.8465 H   0  0  0  0  0  0  0  0  0  0  0  0
  144.9110   73.5360  220.3590 C   0  0  0  0  0  0  0  0  0  0  0  0
  144.9863   74.4549  220.9590 H   0  0  0  0  0  0  0  0  0  0  0  0
  142.2970   74.8020  221.0620 C   0  0  0  0  0  0  0  0  0  0  0  0
  143.0801   75.5044  220.7404 H   0  0  0  0  0  0  0  0  0  0  0  0
  1  2  1  0
  2  3  1  0
  3  4  2  0
  4  5  1  0
  5  6  2  0
  6  7  1  0
  7  8  1  1
  7  9  1  0
  9 10  1  0
  9 11  1  0
  9 12  1  0
  7 13  1  0
 13 14  1  0
 13 15  1  0
 13 16  1  0
 16 17  2  0
 17 18  1  0
 17 19  1  0
 19 20  1  0
 19 21  2  0
 21 22  1  0
 21 23  1  0
 23 24  1  0
 23 25  2  0
 25 26  1  0
  5 27  1  0
 27 28  1  0
 27 29  1  0
 29 30  1  0
 30 31  2  0
 31 32  1  0
 31 33  1  0
 33 34  1  0
 33 35  2  0
 35 36  1  0
 36 37  1  0
 36 38  2  0
 38 39  1  0
 29 40  2  0
 40 41  1  0
 40  3  1  0
 25 16  1  0
 38 30  1  0
M  END
>  <UniqueID>  (52) 
7

>  <SMILES>  (52) 
C[C@@H](Cc1ccccc1)/N=c1\nc(O)cc(-c2ccncc2)[nH]1

>  <Energy>  (52) 
47.20727747248445

>  <Genealogy>  (52) 
CC(Cc1ccccc1)N=c1nc(O)cc(-c2ccncc2)[nH]1 (tautomer)
C[C@@H](Cc1ccccc1)N=c1nc(O)cc(-c2ccncc2)[nH]1 (chirality)
C[C@@H](Cc1ccccc1)/N=c1\nc(O)cc(-c2ccncc2)[nH]1 (cis-trans isomerization)
C[C@@H](Cc1ccccc1)/N=c1\nc(O)cc(-c2ccncc2)[nH]1 (3D coordinates assigned)
C[C@@H](Cc1ccccc1)/N=c1\nc(O)cc(-c2ccncc2)[nH]1 (optimized conformer: 47.20727747248445 kcal/mol)

>  <smiles>  (52) 
CC(Cc1ccccc1)N=c1[nH]c(-c2ccncc2)cc(=O)[nH]1

>  <score_type>  (52) 
oracle

>  <origin>  (52) 
autodockgpu

>  <m_score__min__energy>  (52) 
-7.6500000000000004

>  <m_primary>  (52) 
energy

>  <meeko>  (52) 
{"free_energy": -7.54, "intermolecular_energy": -9.33, "internal_energy": -0.7, "cluster_size": 14, "cluster_id": 1, "rank_in_cluster": 6}

>  <energy>  (52) 
-7.49

>  <cluster_rmsd>  (52) 
0.92

>  <rmsd>  (52) 
273.36

>  <cluster>  (52) 
1

$$$$
XBCCWEKCHRHPJI-JANDEHFDNA-N
     RDKit          3D

 41 43  0  0  0  0  0  0  0  0999 V2000
  141.7850   77.2850  222.0090 H   0  0  0  0  0  0  0  0  0  0  0  0
  140.9820   76.6850  221.8640 O   0  0  0  0  0  0  0  0  0  0  0  0
  141.1400   75.3180  221.6570 C   0  0  0  0  0  0  0  0  0  0  0  0
  140.1670   74.4540  222.0410 N   0  0  0  0  0  0  0  0  0  0  0  0
  140.2950   73.1130  221.8490 C   0  0  0  0  0  0  0  0  0  0  0  0
  139.3570   72.2890  222.2230 N   0  0  0  0  0  0  0  0  0  0  0  0
  139.3020   71.5000  223.4620 C   0  0  1  0  0  0  0  0  0  0  0  0
  138.6832   72.0435  224.1912 H   0  0  0  0  0  0  0  0  0  0  0  0
  138.6140   70.1480  223.2280 C   0  0  0  0  0  0  0  0  0  0  0  0
  138.3779   69.6841  224.1971 H   0  0  0  0  0  0  0  0  0  0  0  0
  137.6850   70.3028  222.6596 H   0  0  0  0  0  0  0  0  0  0  0  0
  139.2860   69.4882  222.6596 H   0  0  0  0  0  0  0  0  0  0  0  0
  140.7020   71.3580  224.0950 C   0  0  0  0  0  0  0  0  0  0  0  0
  141.2371   70.5371  223.5952 H   0  0  0  0  0  0  0  0  0  0  0  0
  141.2335   72.3125  223.9668 H   0  0  0  0  0  0  0  0  0  0  0  0
  140.6220   71.0610  225.5710 C   0  0  0  0  0  0  0  0  0  0  0  0
  139.9790   69.8980  226.0290 C   0  0  0  0  0  0  0  0  0  0  0  0
  139.5489   69.1889  225.3063 H   0  0  0  0  0  0  0  0  0  0  0  0
  139.8840   69.6390  227.4000 C   0  0  0  0  0  0  0  0  0  0  0  0
  139.3836   68.7254  227.7535 H   0  0  0  0  0  0  0  0  0  0  0  0
  140.4250   70.5410  228.3220 C   0  0  0  0  0  0  0  0  0  0  0  0
  140.3516   70.3353  229.4001 H   0  0  0  0  0  0  0  0  0  0  0  0
  141.0580   71.7020  227.8750 C   0  0  0  0  0  0  0  0  0  0  0  0
  141.4814   72.4108  228.6018 H   0  0  0  0  0  0  0  0  0  0  0  0
  141.1550   71.9660  226.5050 C   0  0  0  0  0  0  0  0  0  0  0  0
  141.6500   72.8848  226.1574 H   0  0  0  0  0  0  0  0  0  0  0  0
  141.4210   72.6240  221.2580 N   0  0  0  0  0  0  0  0  0  0  0  0
  141.5160   71.5890  221.1340 H   0  0  0  0  0  0  0  0  0  0  0  0
  142.4300   73.4530  220.8540 C   0  0  0  0  0  0  0  0  0  0  0  0
  143.6450   72.8980  220.2070 C   0  0  0  0  0  0  0  0  0  0  0  0
  144.8800   73.5570  220.3290 C   0  0  0  0  0  0  0  0  0  0  0  0
  144.9541   74.4899  220.9071 H   0  0  0  0  0  0  0  0  0  0  0  0
  146.0140   73.0210  219.7120 C   0  0  0  0  0  0  0  0  0  0  0  0
  146.9829   73.5336  219.8049 H   0  0  0  0  0  0  0  0  0  0  0  0
  145.9230   71.8690  218.9980 N   0  0  0  0  0  0  0  0  0  0  0  0
  144.7440   71.2070  218.8620 C   0  0  0  0  0  0  0  0  0  0  0  0
  144.7018   70.2755  218.2784 H   0  0  0  0  0  0  0  0  0  0  0  0
  143.5850   71.7070  219.4620 C   0  0  0  0  0  0  0  0  0  0  0  0
  142.6305   71.1714  219.3520 H   0  0  0  0  0  0  0  0  0  0  0  0
  142.2980   74.8350  221.0540 C   0  0  0  0  0  0  0  0  0  0  0  0
  143.0952   75.5248  220.7400 H   0  0  0  0  0  0  0  0  0  0  0  0
  1  2  1  0
  2  3  1  0
  3  4  2  0
  4  5  1  0
  5  6  2  0
  6  7  1  0
  7  8  1  1
  7  9  1  0
  9 10  1  0
  9 11  1  0
  9 12  1  0
  7 13  1  0
 13 14  1  0
 13 15  1  0
 13 16  1  0
 16 17  2  0
 17 18  1  0
 17 19  1  0
 19 20  1  0
 19 21  2  0
 21 22  1  0
 21 23  1  0
 23 24  1  0
 23 25  2  0
 25 26  1  0
  5 27  1  0
 27 28  1  0
 27 29  1  0
 29 30  1  0
 30 31  2  0
 31 32  1  0
 31 33  1  0
 33 34  1  0
 33 35  2  0
 35 36  1  0
 36 37  1  0
 36 38  2  0
 38 39  1  0
 29 40  2  0
 40 41  1  0
 40  3  1  0
 25 16  1  0
 38 30  1  0
M  END
>  <UniqueID>  (53) 
7

>  <SMILES>  (53) 
C[C@@H](Cc1ccccc1)/N=c1\nc(O)cc(-c2ccncc2)[nH]1

>  <Energy>  (53) 
47.20727747248445

>  <Genealogy>  (53) 
CC(Cc1ccccc1)N=c1nc(O)cc(-c2ccncc2)[nH]1 (tautomer)
C[C@@H](Cc1ccccc1)N=c1nc(O)cc(-c2ccncc2)[nH]1 (chirality)
C[C@@H](Cc1ccccc1)/N=c1\nc(O)cc(-c2ccncc2)[nH]1 (cis-trans isomerization)
C[C@@H](Cc1ccccc1)/N=c1\nc(O)cc(-c2ccncc2)[nH]1 (3D coordinates assigned)
C[C@@H](Cc1ccccc1)/N=c1\nc(O)cc(-c2ccncc2)[nH]1 (optimized conformer: 47.20727747248445 kcal/mol)

>  <smiles>  (53) 
CC(Cc1ccccc1)N=c1[nH]c(-c2ccncc2)cc(=O)[nH]1

>  <score_type>  (53) 
oracle

>  <origin>  (53) 
autodockgpu

>  <m_score__min__energy>  (53) 
-7.6500000000000004

>  <m_primary>  (53) 
energy

>  <meeko>  (53) 
{"free_energy": -7.57, "intermolecular_energy": -9.36, "internal_energy": -0.66, "cluster_size": 14, "cluster_id": 1, "rank_in_cluster": 4}

>  <energy>  (53) 
-7.44

>  <cluster_rmsd>  (53) 
1.08

>  <rmsd>  (53) 
273.25

>  <cluster>  (53) 
1

$$$$
XBCCWEKCHRHPJI-JANDEHFDNA-N
     RDKit          3D

 41 43  0  0  0  0  0  0  0  0999 V2000
  139.3280   74.9880  223.1110 H   0  0  0  0  0  0  0  0  0  0  0  0
  139.6330   74.3960  222.3470 O   0  0  0  0  0  0  0  0  0  0  0  0
  140.5840   74.8440  221.4350 C   0  0  0  0  0  0  0  0  0  0  0  0
  140.3760   75.9910  220.7410 N   0  0  0  0  0  0  0  0  0  0  0  0
  141.2900   76.4530  219.8460 C   0  0  0  0  0  0  0  0  0  0  0  0
  141.0820   77.5530  219.1800 N   0  0  0  0  0  0  0  0  0  0  0  0
  141.8910   78.7800  219.2030 C   0  0  1  0  0  0  0  0  0  0  0  0
  142.8412   78.5588  219.7112 H   0  0  0  0  0  0  0  0  0  0  0  0
  142.2530   79.2330  217.7810 C   0  0  0  0  0  0  0  0  0  0  0  0
  142.9389   80.0914  217.8331 H   0  0  0  0  0  0  0  0  0  0  0  0
  142.7413   78.4054  217.2457 H   0  0  0  0  0  0  0  0  0  0  0  0
  141.3381   79.5267  217.2457 H   0  0  0  0  0  0  0  0  0  0  0  0
  141.2000   79.8870  220.0270 C   0  0  0  0  0  0  0  0  0  0  0  0
  141.4994   80.8673  219.6279 H   0  0  0  0  0  0  0  0  0  0  0  0
  140.1123   79.7433  219.9480 H   0  0  0  0  0  0  0  0  0  0  0  0
  141.5770   79.8180  221.4850 C   0  0  0  0  0  0  0  0  0  0  0  0
  141.2600   78.6820  222.2500 C   0  0  0  0  0  0  0  0  0  0  0  0
  140.7518   77.8282  221.7781 H   0  0  0  0  0  0  0  0  0  0  0  0
  141.5880   78.6330  223.6080 C   0  0  0  0  0  0  0  0  0  0  0  0
  141.3418   77.7399  224.2011 H   0  0  0  0  0  0  0  0  0  0  0  0
  142.2290   79.7190  224.2130 C   0  0  0  0  0  0  0  0  0  0  0  0
  142.4885   79.6785  225.2812 H   0  0  0  0  0  0  0  0  0  0  0  0
  142.5400   80.8550  223.4620 C   0  0  0  0  0  0  0  0  0  0  0  0
  143.0426   81.7089  223.9398 H   0  0  0  0  0  0  0  0  0  0  0  0
  142.2130   80.9080  222.1030 C   0  0  0  0  0  0  0  0  0  0  0  0
  142.4546   81.8063  221.5159 H   0  0  0  0  0  0  0  0  0  0  0  0
  142.4410   75.7530  219.6390 N   0  0  0  0  0  0  0  0  0  0  0  0
  143.1280   76.1080  218.9340 H   0  0  0  0  0  0  0  0  0  0  0  0
  142.6980   74.5920  220.3140 C   0  0  0  0  0  0  0  0  0  0  0  0
  143.9620   73.8500  220.0780 C   0  0  0  0  0  0  0  0  0  0  0  0
  144.0180   72.8290  219.1140 C   0  0  0  0  0  0  0  0  0  0  0  0
  143.1238   72.5738  218.5263 H   0  0  0  0  0  0  0  0  0  0  0  0
  145.2150   72.1400  218.9060 C   0  0  0  0  0  0  0  0  0  0  0  0
  145.2630   71.3397  218.1529 H   0  0  0  0  0  0  0  0  0  0  0  0
  146.3210   72.4550  219.6310 N   0  0  0  0  0  0  0  0  0  0  0  0
  146.2990   73.4370  220.5700 C   0  0  0  0  0  0  0  0  0  0  0  0
  147.2094   73.6696  221.1419 H   0  0  0  0  0  0  0  0  0  0  0  0
  145.1230   74.1520  220.8110 C   0  0  0  0  0  0  0  0  0  0  0  0
  145.1057   74.9474  221.5706 H   0  0  0  0  0  0  0  0  0  0  0  0
  141.7540   74.1160  221.2360 C   0  0  0  0  0  0  0  0  0  0  0  0
  141.9349   73.1842  221.7918 H   0  0  0  0  0  0  0  0  0  0  0  0
  1  2  1  0
  2  3  1  0
  3  4  2  0
  4  5  1  0
  5  6  2  0
  6  7  1  0
  7  8  1  1
  7  9  1  0
  9 10  1  0
  9 11  1  0
  9 12  1  0
  7 13  1  0
 13 14  1  0
 13 15  1  0
 13 16  1  0
 16 17  2  0
 17 18  1  0
 17 19  1  0
 19 20  1  0
 19 21  2  0
 21 22  1  0
 21 23  1  0
 23 24  1  0
 23 25  2  0
 25 26  1  0
  5 27  1  0
 27 28  1  0
 27 29  1  0
 29 30  1  0
 30 31  2  0
 31 32  1  0
 31 33  1  0
 33 34  1  0
 33 35  2  0
 35 36  1  0
 36 37  1  0
 36 38  2  0
 38 39  1  0
 29 40  2  0
 40 41  1  0
 40  3  1  0
 25 16  1  0
 38 30  1  0
M  END
>  <UniqueID>  (54) 
7

>  <SMILES>  (54) 
C[C@@H](Cc1ccccc1)/N=c1\nc(O)cc(-c2ccncc2)[nH]1

>  <Energy>  (54) 
47.20727747248445

>  <Genealogy>  (54) 
CC(Cc1ccccc1)N=c1nc(O)cc(-c2ccncc2)[nH]1 (tautomer)
C[C@@H](Cc1ccccc1)N=c1nc(O)cc(-c2ccncc2)[nH]1 (chirality)
C[C@@H](Cc1ccccc1)/N=c1\nc(O)cc(-c2ccncc2)[nH]1 (cis-trans isomerization)
C[C@@H](Cc1ccccc1)/N=c1\nc(O)cc(-c2ccncc2)[nH]1 (3D coordinates assigned)
C[C@@H](Cc1ccccc1)/N=c1\nc(O)cc(-c2ccncc2)[nH]1 (optimized conformer: 47.20727747248445 kcal/mol)

>  <smiles>  (54) 
CC(Cc1ccccc1)N=c1[nH]c(-c2ccncc2)cc(=O)[nH]1

>  <score_type>  (54) 
oracle

>  <origin>  (54) 
autodockgpu

>  <m_score__min__energy>  (54) 
-7.6500000000000004

>  <m_primary>  (54) 
energy

>  <meeko>  (54) 
{"free_energy": -6.98, "intermolecular_energy": -8.77, "internal_energy": -0.9, "cluster_size": 4, "cluster_id": 2, "rank_in_cluster": 4}

>  <energy>  (54) 
-7.41

>  <cluster_rmsd>  (54) 
1.07

>  <rmsd>  (54) 
273.31

>  <cluster>  (54) 
1

$$$$
XBCCWEKCHRHPJI-JANDEHFDNA-N
     RDKit          3D

 41 43  0  0  0  0  0  0  0  0999 V2000
  139.2960   76.6370  221.3620 H   0  0  0  0  0  0  0  0  0  0  0  0
  140.1780   76.3740  221.7860 O   0  0  0  0  0  0  0  0  0  0  0  0
  140.7040   75.0980  221.6060 C   0  0  0  0  0  0  0  0  0  0  0  0
  139.9950   74.0080  221.9920 N   0  0  0  0  0  0  0  0  0  0  0  0
  140.4840   72.7490  221.8250 C   0  0  0  0  0  0  0  0  0  0  0  0
  139.7990   71.7070  222.2010 N   0  0  0  0  0  0  0  0  0  0  0  0
  139.2210   71.4470  223.5270 C   0  0  1  0  0  0  0  0  0  0  0  0
  139.3257   72.3577  224.1350 H   0  0  0  0  0  0  0  0  0  0  0  0
  137.7160   71.1590  223.4290 C   0  0  0  0  0  0  0  0  0  0  0  0
  137.2916   71.0778  224.4406 H   0  0  0  0  0  0  0  0  0  0  0  0
  137.2203   71.9786  222.8881 H   0  0  0  0  0  0  0  0  0  0  0  0
  137.5579   70.2143  222.8881 H   0  0  0  0  0  0  0  0  0  0  0  0
  139.9970   70.3360  224.2650 C   0  0  0  0  0  0  0  0  0  0  0  0
  139.3833   69.4232  224.2803 H   0  0  0  0  0  0  0  0  0  0  0  0
  140.9435   70.1676  223.7304 H   0  0  0  0  0  0  0  0  0  0  0  0
  140.3240   70.7280  225.6840 C   0  0  0  0  0  0  0  0  0  0  0  0
  141.0680   71.8910  225.9470 C   0  0  0  0  0  0  0  0  0  0  0  0
  141.3965   72.5313  225.1151 H   0  0  0  0  0  0  0  0  0  0  0  0
  141.3920   72.2370  227.2620 C   0  0  0  0  0  0  0  0  0  0  0  0
  141.9718   73.1500  227.4630 H   0  0  0  0  0  0  0  0  0  0  0  0
  140.9800   71.4240  228.3220 C   0  0  0  0  0  0  0  0  0  0  0  0
  141.2330   71.6993  229.3565 H   0  0  0  0  0  0  0  0  0  0  0  0
  140.2470   70.2620  228.0680 C   0  0  0  0  0  0  0  0  0  0  0  0
  139.9250   69.6222  228.9028 H   0  0  0  0  0  0  0  0  0  0  0  0
  139.9220   69.9110  226.7530 C   0  0  0  0  0  0  0  0  0  0  0  0
  139.3499   68.9923  226.5561 H   0  0  0  0  0  0  0  0  0  0  0  0
  141.7110   72.5760  221.2580 N   0  0  0  0  0  0  0  0  0  0  0  0
  142.0850   71.6040  221.1530 H   0  0  0  0  0  0  0  0  0  0  0  0
  142.4640   73.6410  220.8520 C   0  0  0  0  0  0  0  0  0  0  0  0
  143.7950   73.4280  220.2310 C   0  0  0  0  0  0  0  0  0  0  0  0
  143.8970   72.9170  218.9260 C   0  0  0  0  0  0  0  0  0  0  0  0
  142.9887   72.6724  218.3557 H   0  0  0  0  0  0  0  0  0  0  0  0
  145.1580   72.7210  218.3560 C   0  0  0  0  0  0  0  0  0  0  0  0
  145.2420   72.3212  217.3347 H   0  0  0  0  0  0  0  0  0  0  0  0
  146.2810   73.0230  219.0600 N   0  0  0  0  0  0  0  0  0  0  0  0
  146.2150   73.5180  220.3240 C   0  0  0  0  0  0  0  0  0  0  0  0
  147.1407   73.7524  220.8701 H   0  0  0  0  0  0  0  0  0  0  0  0
  144.9750   73.7300  220.9320 C   0  0  0  0  0  0  0  0  0  0  0  0
  144.9226   74.1315  221.9548 H   0  0  0  0  0  0  0  0  0  0  0  0
  141.9600   74.9390  221.0260 C   0  0  0  0  0  0  0  0  0  0  0  0
  142.5461   75.8146  220.7101 H   0  0  0  0  0  0  0  0  0  0  0  0
  1  2  1  0
  2  3  1  0
  3  4  2  0
  4  5  1  0
  5  6  2  0
  6  7  1  0
  7  8  1  1
  7  9  1  0
  9 10  1  0
  9 11  1  0
  9 12  1  0
  7 13  1  0
 13 14  1  0
 13 15  1  0
 13 16  1  0
 16 17  2  0
 17 18  1  0
 17 19  1  0
 19 20  1  0
 19 21  2  0
 21 22  1  0
 21 23  1  0
 23 24  1  0
 23 25  2  0
 25 26  1  0
  5 27  1  0
 27 28  1  0
 27 29  1  0
 29 30  1  0
 30 31  2  0
 31 32  1  0
 31 33  1  0
 33 34  1  0
 33 35  2  0
 35 36  1  0
 36 37  1  0
 36 38  2  0
 38 39  1  0
 29 40  2  0
 40 41  1  0
 40  3  1  0
 25 16  1  0
 38 30  1  0
M  END
>  <UniqueID>  (55) 
7

>  <SMILES>  (55) 
C[C@@H](Cc1ccccc1)/N=c1\nc(O)cc(-c2ccncc2)[nH]1

>  <Energy>  (55) 
47.20727747248445

>  <Genealogy>  (55) 
CC(Cc1ccccc1)N=c1nc(O)cc(-c2ccncc2)[nH]1 (tautomer)
C[C@@H](Cc1ccccc1)N=c1nc(O)cc(-c2ccncc2)[nH]1 (chirality)
C[C@@H](Cc1ccccc1)/N=c1\nc(O)cc(-c2ccncc2)[nH]1 (cis-trans isomerization)
C[C@@H](Cc1ccccc1)/N=c1\nc(O)cc(-c2ccncc2)[nH]1 (3D coordinates assigned)
C[C@@H](Cc1ccccc1)/N=c1\nc(O)cc(-c2ccncc2)[nH]1 (optimized conformer: 47.20727747248445 kcal/mol)

>  <smiles>  (55) 
CC(Cc1ccccc1)N=c1[nH]c(-c2ccncc2)cc(=O)[nH]1

>  <score_type>  (55) 
oracle

>  <origin>  (55) 
autodockgpu

>  <m_score__min__energy>  (55) 
-7.6500000000000004

>  <m_primary>  (55) 
energy

>  <meeko>  (55) 
{"free_energy": -7.59, "intermolecular_energy": -9.38, "internal_energy": -0.69, "cluster_size": 14, "cluster_id": 1, "rank_in_cluster": 3}

>  <energy>  (55) 
-7.38

>  <cluster_rmsd>  (55) 
0.0

>  <rmsd>  (55) 
273.49

>  <cluster>  (55) 
2

$$$$
XBCCWEKCHRHPJI-JANDEHFDNA-N
     RDKit          3D

 41 43  0  0  0  0  0  0  0  0999 V2000
  140.5160   77.0520  221.1500 H   0  0  0  0  0  0  0  0  0  0  0  0
  140.2360   76.3120  221.7830 O   0  0  0  0  0  0  0  0  0  0  0  0
  140.7150   75.0160  221.6200 C   0  0  0  0  0  0  0  0  0  0  0  0
  139.9540   73.9570  221.9940 N   0  0  0  0  0  0  0  0  0  0  0  0
  140.3960   72.6790  221.8430 C   0  0  0  0  0  0  0  0  0  0  0  0
  139.6610   71.6660  222.2080 N   0  0  0  0  0  0  0  0  0  0  0  0
  139.1270   71.3850  223.5480 C   0  0  1  0  0  0  0  0  0  0  0  0
  139.1909   72.3057  224.1465 H   0  0  0  0  0  0  0  0  0  0  0  0
  137.6400   71.0090  223.4850 C   0  0  0  0  0  0  0  0  0  0  0  0
  137.2436   70.9088  224.5062 H   0  0  0  0  0  0  0  0  0  0  0  0
  137.0853   71.7951  222.9518 H   0  0  0  0  0  0  0  0  0  0  0  0
  137.5256   70.0537  222.9518 H   0  0  0  0  0  0  0  0  0  0  0  0
  139.9820   70.3270  224.2770 C   0  0  0  0  0  0  0  0  0  0  0  0
  139.4271   69.3776  224.3036 H   0  0  0  0  0  0  0  0  0  0  0  0
  140.9293   70.2161  223.7289 H   0  0  0  0  0  0  0  0  0  0  0  0
  140.3040   70.7440  225.6900 C   0  0  0  0  0  0  0  0  0  0  0  0
  141.0770   71.8920  225.9350 C   0  0  0  0  0  0  0  0  0  0  0  0
  141.4330   72.5031  225.0925 H   0  0  0  0  0  0  0  0  0  0  0  0
  141.3950   72.2600  227.2460 C   0  0  0  0  0  0  0  0  0  0  0  0
  141.9967   73.1617  227.4329 H   0  0  0  0  0  0  0  0  0  0  0  0
  140.9490   71.4830  228.3200 C   0  0  0  0  0  0  0  0  0  0  0  0
  141.1991   71.7744  229.3508 H   0  0  0  0  0  0  0  0  0  0  0  0
  140.1860   70.3370  228.0840 C   0  0  0  0  0  0  0  0  0  0  0  0
  139.8355   69.7269  228.9295 H   0  0  0  0  0  0  0  0  0  0  0  0
  139.8670   69.9640  226.7740 C   0  0  0  0  0  0  0  0  0  0  0  0
  139.2720   69.0569  226.5919 H   0  0  0  0  0  0  0  0  0  0  0  0
  141.6270   72.4530  221.3040 N   0  0  0  0  0  0  0  0  0  0  0  0
  141.9640   71.4670  221.2120 H   0  0  0  0  0  0  0  0  0  0  0  0
  142.4310   73.4860  220.9120 C   0  0  0  0  0  0  0  0  0  0  0  0
  143.7660   73.2170  220.3220 C   0  0  0  0  0  0  0  0  0  0  0  0
  144.9140   73.8370  220.8440 C   0  0  0  0  0  0  0  0  0  0  0  0
  144.8297   74.5273  221.6963 H   0  0  0  0  0  0  0  0  0  0  0  0
  146.1630   73.5730  220.2760 C   0  0  0  0  0  0  0  0  0  0  0  0
  147.0637   74.0563  220.6825 H   0  0  0  0  0  0  0  0  0  0  0  0
  146.2680   72.7210  219.2230 N   0  0  0  0  0  0  0  0  0  0  0  0
  145.1780   72.1050  218.6950 C   0  0  0  0  0  0  0  0  0  0  0  0
  145.2942   71.4199  217.8423 H   0  0  0  0  0  0  0  0  0  0  0  0
  143.9090   72.3400  219.2330 C   0  0  0  0  0  0  0  0  0  0  0  0
  143.0267   71.8408  218.8060 H   0  0  0  0  0  0  0  0  0  0  0  0
  141.9760   74.8030  221.0690 C   0  0  0  0  0  0  0  0  0  0  0  0
  142.6039   75.6526  220.7624 H   0  0  0  0  0  0  0  0  0  0  0  0
  1  2  1  0
  2  3  1  0
  3  4  2  0
  4  5  1  0
  5  6  2  0
  6  7  1  0
  7  8  1  1
  7  9  1  0
  9 10  1  0
  9 11  1  0
  9 12  1  0
  7 13  1  0
 13 14  1  0
 13 15  1  0
 13 16  1  0
 16 17  2  0
 17 18  1  0
 17 19  1  0
 19 20  1  0
 19 21  2  0
 21 22  1  0
 21 23  1  0
 23 24  1  0
 23 25  2  0
 25 26  1  0
  5 27  1  0
 27 28  1  0
 27 29  1  0
 29 30  1  0
 30 31  2  0
 31 32  1  0
 31 33  1  0
 33 34  1  0
 33 35  2  0
 35 36  1  0
 36 37  1  0
 36 38  2  0
 38 39  1  0
 29 40  2  0
 40 41  1  0
 40  3  1  0
 25 16  1  0
 38 30  1  0
M  END
>  <UniqueID>  (56) 
7

>  <SMILES>  (56) 
C[C@@H](Cc1ccccc1)/N=c1\nc(O)cc(-c2ccncc2)[nH]1

>  <Energy>  (56) 
47.20727747248445

>  <Genealogy>  (56) 
CC(Cc1ccccc1)N=c1nc(O)cc(-c2ccncc2)[nH]1 (tautomer)
C[C@@H](Cc1ccccc1)N=c1nc(O)cc(-c2ccncc2)[nH]1 (chirality)
C[C@@H](Cc1ccccc1)/N=c1\nc(O)cc(-c2ccncc2)[nH]1 (cis-trans isomerization)
C[C@@H](Cc1ccccc1)/N=c1\nc(O)cc(-c2ccncc2)[nH]1 (3D coordinates assigned)
C[C@@H](Cc1ccccc1)/N=c1\nc(O)cc(-c2ccncc2)[nH]1 (optimized conformer: 47.20727747248445 kcal/mol)

>  <smiles>  (56) 
CC(Cc1ccccc1)N=c1[nH]c(-c2ccncc2)cc(=O)[nH]1

>  <score_type>  (56) 
oracle

>  <origin>  (56) 
autodockgpu

>  <m_score__min__energy>  (56) 
-7.6500000000000004

>  <m_primary>  (56) 
energy

>  <meeko>  (56) 
{"free_energy": -7.52, "intermolecular_energy": -9.31, "internal_energy": -0.71, "cluster_size": 14, "cluster_id": 1, "rank_in_cluster": 9}

>  <energy>  (56) 
-7.35

>  <cluster_rmsd>  (56) 
0.18

>  <rmsd>  (56) 
273.49

>  <cluster>  (56) 
2

$$$$
XBCCWEKCHRHPJI-JANDEHFDNA-N
     RDKit          3D

 41 43  0  0  0  0  0  0  0  0999 V2000
  140.8240   77.0650  221.8020 H   0  0  0  0  0  0  0  0  0  0  0  0
  140.2330   76.2430  221.8250 O   0  0  0  0  0  0  0  0  0  0  0  0
  140.7690   74.9740  221.6320 C   0  0  0  0  0  0  0  0  0  0  0  0
  140.0830   73.8760  222.0370 N   0  0  0  0  0  0  0  0  0  0  0  0
  140.5820   72.6230  221.8590 C   0  0  0  0  0  0  0  0  0  0  0  0
  139.9190   71.5720  222.2530 N   0  0  0  0  0  0  0  0  0  0  0  0
  139.2680   71.3620  223.5540 C   0  0  1  0  0  0  0  0  0  0  0  0
  139.3932   72.2743  224.1557 H   0  0  0  0  0  0  0  0  0  0  0  0
  137.7560   71.1520  223.3890 C   0  0  0  0  0  0  0  0  0  0  0  0
  137.2845   71.0865  224.3807 H   0  0  0  0  0  0  0  0  0  0  0  0
  137.3266   71.9991  222.8341 H   0  0  0  0  0  0  0  0  0  0  0  0
  137.5737   70.2199  222.8341 H   0  0  0  0  0  0  0  0  0  0  0  0
  139.9490   70.2220  224.3400 C   0  0  0  0  0  0  0  0  0  0  0  0
  139.2482   69.3782  224.4224 H   0  0  0  0  0  0  0  0  0  0  0  0
  140.8592   69.9282  223.7967 H   0  0  0  0  0  0  0  0  0  0  0  0
  140.3510   70.6600  225.7260 C   0  0  0  0  0  0  0  0  0  0  0  0
  139.9740   69.9040  226.8490 C   0  0  0  0  0  0  0  0  0  0  0  0
  139.3992   68.9755  226.7168 H   0  0  0  0  0  0  0  0  0  0  0  0
  140.3270   70.3280  228.1340 C   0  0  0  0  0  0  0  0  0  0  0  0
  140.0334   69.7305  229.0097 H   0  0  0  0  0  0  0  0  0  0  0  0
  141.0530   71.5110  228.3070 C   0  0  0  0  0  0  0  0  0  0  0  0
  141.3312   71.8423  229.3184 H   0  0  0  0  0  0  0  0  0  0  0  0
  141.4250   72.2720  227.1960 C   0  0  0  0  0  0  0  0  0  0  0  0
  141.9953   73.2025  227.3335 H   0  0  0  0  0  0  0  0  0  0  0  0
  141.0730   71.8520  225.9090 C   0  0  0  0  0  0  0  0  0  0  0  0
  141.3623   72.4568  225.0369 H   0  0  0  0  0  0  0  0  0  0  0  0
  141.7960   72.4620  221.2600 N   0  0  0  0  0  0  0  0  0  0  0  0
  142.1780   71.4950  221.1460 H   0  0  0  0  0  0  0  0  0  0  0  0
  142.5260   73.5370  220.8340 C   0  0  0  0  0  0  0  0  0  0  0  0
  143.8430   73.3380  220.1790 C   0  0  0  0  0  0  0  0  0  0  0  0
  145.0320   73.6380  220.8650 C   0  0  0  0  0  0  0  0  0  0  0  0
  144.9937   74.0223  221.8950 H   0  0  0  0  0  0  0  0  0  0  0  0
  146.2630   73.4460  220.2330 C   0  0  0  0  0  0  0  0  0  0  0  0
  147.1960   73.6791  220.7670 H   0  0  0  0  0  0  0  0  0  0  0  0
  146.3110   72.9720  218.9600 N   0  0  0  0  0  0  0  0  0  0  0  0
  145.1790   72.6720  218.2700 C   0  0  0  0  0  0  0  0  0  0  0  0
  145.2490   72.2896  217.2410 H   0  0  0  0  0  0  0  0  0  0  0  0
  143.9270   72.8480  218.8640 C   0  0  0  0  0  0  0  0  0  0  0  0
  143.0112   72.6044  218.3055 H   0  0  0  0  0  0  0  0  0  0  0  0
  142.0110   74.8280  221.0200 C   0  0  0  0  0  0  0  0  0  0  0  0
  142.5784   75.7100  220.6882 H   0  0  0  0  0  0  0  0  0  0  0  0
  1  2  1  0
  2  3  1  0
  3  4  2  0
  4  5  1  0
  5  6  2  0
  6  7  1  0
  7  8  1  1
  7  9  1  0
  9 10  1  0
  9 11  1  0
  9 12  1  0
  7 13  1  0
 13 14  1  0
 13 15  1  0
 13 16  1  0
 16 17  2  0
 17 18  1  0
 17 19  1  0
 19 20  1  0
 19 21  2  0
 21 22  1  0
 21 23  1  0
 23 24  1  0
 23 25  2  0
 25 26  1  0
  5 27  1  0
 27 28  1  0
 27 29  1  0
 29 30  1  0
 30 31  2  0
 31 32  1  0
 31 33  1  0
 33 34  1  0
 33 35  2  0
 35 36  1  0
 36 37  1  0
 36 38  2  0
 38 39  1  0
 29 40  2  0
 40 41  1  0
 40  3  1  0
 25 16  1  0
 38 30  1  0
M  END
>  <UniqueID>  (57) 
7

>  <SMILES>  (57) 
C[C@@H](Cc1ccccc1)/N=c1\nc(O)cc(-c2ccncc2)[nH]1

>  <Energy>  (57) 
47.20727747248445

>  <Genealogy>  (57) 
CC(Cc1ccccc1)N=c1nc(O)cc(-c2ccncc2)[nH]1 (tautomer)
C[C@@H](Cc1ccccc1)N=c1nc(O)cc(-c2ccncc2)[nH]1 (chirality)
C[C@@H](Cc1ccccc1)/N=c1\nc(O)cc(-c2ccncc2)[nH]1 (cis-trans isomerization)
C[C@@H](Cc1ccccc1)/N=c1\nc(O)cc(-c2ccncc2)[nH]1 (3D coordinates assigned)
C[C@@H](Cc1ccccc1)/N=c1\nc(O)cc(-c2ccncc2)[nH]1 (optimized conformer: 47.20727747248445 kcal/mol)

>  <smiles>  (57) 
CC(Cc1ccccc1)N=c1[nH]c(-c2ccncc2)cc(=O)[nH]1

>  <score_type>  (57) 
oracle

>  <origin>  (57) 
autodockgpu

>  <m_score__min__energy>  (57) 
-7.6500000000000004

>  <m_primary>  (57) 
energy

>  <meeko>  (57) 
{"free_energy": -7.65, "intermolecular_energy": -9.44, "internal_energy": -0.69, "cluster_size": 14, "cluster_id": 1, "rank_in_cluster": 1}

>  <energy>  (57) 
-7.17

>  <cluster_rmsd>  (57) 
1.4

>  <rmsd>  (57) 
273.4

>  <cluster>  (57) 
2

$$$$
XBCCWEKCHRHPJI-JANDEHFDNA-N
     RDKit          3D

 41 43  0  0  0  0  0  0  0  0999 V2000
  138.9290   75.3460  223.0200 H   0  0  0  0  0  0  0  0  0  0  0  0
  139.5440   75.2370  222.2220 O   0  0  0  0  0  0  0  0  0  0  0  0
  140.1970   74.0320  221.9840 C   0  0  0  0  0  0  0  0  0  0  0  0
  139.6070   72.8590  222.3230 N   0  0  0  0  0  0  0  0  0  0  0  0
  140.2220   71.6660  222.0990 C   0  0  0  0  0  0  0  0  0  0  0  0
  139.6510   70.5430  222.4320 N   0  0  0  0  0  0  0  0  0  0  0  0
  139.0350   70.2000  223.7210 C   0  0  1  0  0  0  0  0  0  0  0  0
  138.7147   71.1318  224.2100 H   0  0  0  0  0  0  0  0  0  0  0  0
  137.7690   69.3530  223.5230 C   0  0  0  0  0  0  0  0  0  0  0  0
  137.3557   69.0765  224.5042 H   0  0  0  0  0  0  0  0  0  0  0  0
  137.0229   69.9345  222.9615 H   0  0  0  0  0  0  0  0  0  0  0  0
  138.0218   68.4415  222.9615 H   0  0  0  0  0  0  0  0  0  0  0  0
  140.0570   69.5360  224.6680 C   0  0  0  0  0  0  0  0  0  0  0  0
  139.6838   68.5415  224.9539 H   0  0  0  0  0  0  0  0  0  0  0  0
  141.0169   69.4601  224.1363 H   0  0  0  0  0  0  0  0  0  0  0  0
  140.2760   70.3530  225.9170 C   0  0  0  0  0  0  0  0  0  0  0  0
  141.0650   71.5150  225.8780 C   0  0  0  0  0  0  0  0  0  0  0  0
  141.5097   71.8439  224.9272 H   0  0  0  0  0  0  0  0  0  0  0  0
  141.2870   72.2550  227.0440 C   0  0  0  0  0  0  0  0  0  0  0  0
  141.9014   73.1667  227.0080 H   0  0  0  0  0  0  0  0  0  0  0  0
  140.7280   71.8360  228.2560 C   0  0  0  0  0  0  0  0  0  0  0  0
  140.9022   72.4193  229.1722 H   0  0  0  0  0  0  0  0  0  0  0  0
  139.9490   70.6780  228.3040 C   0  0  0  0  0  0  0  0  0  0  0  0
  139.5108   70.3501  229.2582 H   0  0  0  0  0  0  0  0  0  0  0  0
  139.7250   69.9340  227.1400 C   0  0  0  0  0  0  0  0  0  0  0  0
  139.1161   69.0189  227.1825 H   0  0  0  0  0  0  0  0  0  0  0  0
  141.4560   71.6440  221.5210 N   0  0  0  0  0  0  0  0  0  0  0  0
  141.9260   70.7220  221.3720 H   0  0  0  0  0  0  0  0  0  0  0  0
  142.0910   72.7990  221.1600 C   0  0  0  0  0  0  0  0  0  0  0  0
  143.4320   72.7510  220.5250 C   0  0  0  0  0  0  0  0  0  0  0  0
  143.7540   71.7260  219.6190 C   0  0  0  0  0  0  0  0  0  0  0  0
  143.0120   70.9519  219.3737 H   0  0  0  0  0  0  0  0  0  0  0  0
  145.0220   71.6950  219.0310 C   0  0  0  0  0  0  0  0  0  0  0  0
  145.2787   70.8939  218.3222 H   0  0  0  0  0  0  0  0  0  0  0  0
  145.9380   72.6520  219.3330 N   0  0  0  0  0  0  0  0  0  0  0  0
  145.6580   73.6560  220.2050 C   0  0  0  0  0  0  0  0  0  0  0  0
  146.4212   74.4153  220.4311 H   0  0  0  0  0  0  0  0  0  0  0  0
  144.4030   73.7260  220.8150 C   0  0  0  0  0  0  0  0  0  0  0  0
  144.1755   74.5401  221.5189 H   0  0  0  0  0  0  0  0  0  0  0  0
  141.4580   74.0290  221.3930 C   0  0  0  0  0  0  0  0  0  0  0  0
  141.9484   74.9733  221.1142 H   0  0  0  0  0  0  0  0  0  0  0  0
  1  2  1  0
  2  3  1  0
  3  4  2  0
  4  5  1  0
  5  6  2  0
  6  7  1  0
  7  8  1  1
  7  9  1  0
  9 10  1  0
  9 11  1  0
  9 12  1  0
  7 13  1  0
 13 14  1  0
 13 15  1  0
 13 16  1  0
 16 17  2  0
 17 18  1  0
 17 19  1  0
 19 20  1  0
 19 21  2  0
 21 22  1  0
 21 23  1  0
 23 24  1  0
 23 25  2  0
 25 26  1  0
  5 27  1  0
 27 28  1  0
 27 29  1  0
 29 30  1  0
 30 31  2  0
 31 32  1  0
 31 33  1  0
 33 34  1  0
 33 35  2  0
 35 36  1  0
 36 37  1  0
 36 38  2  0
 38 39  1  0
 29 40  2  0
 40 41  1  0
 40  3  1  0
 25 16  1  0
 38 30  1  0
M  END
>  <UniqueID>  (58) 
7

>  <SMILES>  (58) 
C[C@@H](Cc1ccccc1)/N=c1\nc(O)cc(-c2ccncc2)[nH]1

>  <Energy>  (58) 
47.20727747248445

>  <Genealogy>  (58) 
CC(Cc1ccccc1)N=c1nc(O)cc(-c2ccncc2)[nH]1 (tautomer)
C[C@@H](Cc1ccccc1)N=c1nc(O)cc(-c2ccncc2)[nH]1 (chirality)
C[C@@H](Cc1ccccc1)/N=c1\nc(O)cc(-c2ccncc2)[nH]1 (cis-trans isomerization)
C[C@@H](Cc1ccccc1)/N=c1\nc(O)cc(-c2ccncc2)[nH]1 (3D coordinates assigned)
C[C@@H](Cc1ccccc1)/N=c1\nc(O)cc(-c2ccncc2)[nH]1 (optimized conformer: 47.20727747248445 kcal/mol)

>  <smiles>  (58) 
CC(Cc1ccccc1)N=c1[nH]c(-c2ccncc2)cc(=O)[nH]1

>  <score_type>  (58) 
oracle

>  <origin>  (58) 
autodockgpu

>  <m_score__min__energy>  (58) 
-7.6500000000000004

>  <m_primary>  (58) 
energy

>  <meeko>  (58) 
{"free_energy": -7.44, "intermolecular_energy": -9.23, "internal_energy": -0.79, "cluster_size": 14, "cluster_id": 1, "rank_in_cluster": 13}

>  <energy>  (58) 
-6.98

>  <cluster_rmsd>  (58) 
1.45

>  <rmsd>  (58) 
273.3

>  <cluster>  (58) 
2

$$$$
XBCCWEKCHRHPJI-JANDEHFDNA-N
     RDKit          3D

 41 43  0  0  0  0  0  0  0  0999 V2000
  143.3940   79.1520  217.0370 H   0  0  0  0  0  0  0  0  0  0  0  0
  142.5580   78.6600  217.3290 O   0  0  0  0  0  0  0  0  0  0  0  0
  142.5950   77.7530  218.3830 C   0  0  0  0  0  0  0  0  0  0  0  0
  141.8180   77.9490  219.4770 N   0  0  0  0  0  0  0  0  0  0  0  0
  141.8320   77.0770  220.5220 C   0  0  0  0  0  0  0  0  0  0  0  0
  141.0860   77.2740  221.5720 N   0  0  0  0  0  0  0  0  0  0  0  0
  139.6280   77.4620  221.6110 C   0  0  1  0  0  0  0  0  0  0  0  0
  139.2933   77.7834  220.6137 H   0  0  0  0  0  0  0  0  0  0  0  0
  138.9060   76.1390  221.9080 C   0  0  0  0  0  0  0  0  0  0  0  0
  138.8297   75.9992  222.9964 H   0  0  0  0  0  0  0  0  0  0  0  0
  137.8973   76.1655  221.4701 H   0  0  0  0  0  0  0  0  0  0  0  0
  139.4740   75.3050  221.4701 H   0  0  0  0  0  0  0  0  0  0  0  0
  139.2380   78.5900  222.5890 C   0  0  0  0  0  0  0  0  0  0  0  0
  138.4246   79.1819  222.1439 H   0  0  0  0  0  0  0  0  0  0  0  0
  138.9184   78.1277  223.5346 H   0  0  0  0  0  0  0  0  0  0  0  0
  140.4020   79.5030  222.8830 C   0  0  0  0  0  0  0  0  0  0  0  0
  141.3630   79.1450  223.8430 C   0  0  0  0  0  0  0  0  0  0  0  0
  141.2792   78.1829  224.3696 H   0  0  0  0  0  0  0  0  0  0  0  0
  142.4260   80.0070  224.1320 C   0  0  0  0  0  0  0  0  0  0  0  0
  143.1780   79.7204  224.8819 H   0  0  0  0  0  0  0  0  0  0  0  0
  142.5330   81.2330  223.4680 C   0  0  0  0  0  0  0  0  0  0  0  0
  143.3708   81.9090  223.6940 H   0  0  0  0  0  0  0  0  0  0  0  0
  141.5770   81.6000  222.5180 C   0  0  0  0  0  0  0  0  0  0  0  0
  141.6617   82.5657  221.9981 H   0  0  0  0  0  0  0  0  0  0  0  0
  140.5120   80.7410  222.2270 C   0  0  0  0  0  0  0  0  0  0  0  0
  139.7580   81.0355  221.4822 H   0  0  0  0  0  0  0  0  0  0  0  0
  142.6420   75.9820  220.4720 N   0  0  0  0  0  0  0  0  0  0  0  0
  142.6590   75.3300  221.2900 H   0  0  0  0  0  0  0  0  0  0  0  0
  143.4430   75.7400  219.3910 C   0  0  0  0  0  0  0  0  0  0  0  0
  144.3130   74.5380  219.3550 C   0  0  0  0  0  0  0  0  0  0  0  0
  145.0980   74.1940  220.4690 C   0  0  0  0  0  0  0  0  0  0  0  0
  145.0719   74.8147  221.3768 H   0  0  0  0  0  0  0  0  0  0  0  0
  145.9120   73.0590  220.4170 C   0  0  0  0  0  0  0  0  0  0  0  0
  146.5294   72.7868  221.2857 H   0  0  0  0  0  0  0  0  0  0  0  0
  145.9430   72.2910  219.2970 N   0  0  0  0  0  0  0  0  0  0  0  0
  145.1960   72.5960  218.2040 C   0  0  0  0  0  0  0  0  0  0  0  0
  145.2429   71.9555  217.3109 H   0  0  0  0  0  0  0  0  0  0  0  0
  144.3680   73.7220  218.2120 C   0  0  0  0  0  0  0  0  0  0  0  0
  143.7621   73.9684  217.3276 H   0  0  0  0  0  0  0  0  0  0  0  0
  143.4290   76.6410  218.3160 C   0  0  0  0  0  0  0  0  0  0  0  0
  144.0661   76.4715  217.4354 H   0  0  0  0  0  0  0  0  0  0  0  0
  1  2  1  0
  2  3  1  0
  3  4  2  0
  4  5  1  0
  5  6  2  0
  6  7  1  0
  7  8  1  6
  7  9  1  0
  9 10  1  0
  9 11  1  0
  9 12  1  0
  7 13  1  0
 13 14  1  0
 13 15  1  0
 13 16  1  0
 16 17  2  0
 17 18  1  0
 17 19  1  0
 19 20  1  0
 19 21  2  0
 21 22  1  0
 21 23  1  0
 23 24  1  0
 23 25  2  0
 25 26  1  0
  5 27  1  0
 27 28  1  0
 27 29  1  0
 29 30  1  0
 30 31  2  0
 31 32  1  0
 31 33  1  0
 33 34  1  0
 33 35  2  0
 35 36  1  0
 36 37  1  0
 36 38  2  0
 38 39  1  0
 29 40  2  0
 40 41  1  0
 40  3  1  0
 25 16  1  0
 38 30  1  0
M  END
>  <UniqueID>  (59) 
7

>  <SMILES>  (59) 
C[C@@H](Cc1ccccc1)/N=c1\nc(O)cc(-c2ccncc2)[nH]1

>  <Energy>  (59) 
47.20727747248445

>  <Genealogy>  (59) 
CC(Cc1ccccc1)N=c1nc(O)cc(-c2ccncc2)[nH]1 (tautomer)
C[C@@H](Cc1ccccc1)N=c1nc(O)cc(-c2ccncc2)[nH]1 (chirality)
C[C@@H](Cc1ccccc1)/N=c1\nc(O)cc(-c2ccncc2)[nH]1 (cis-trans isomerization)
C[C@@H](Cc1ccccc1)/N=c1\nc(O)cc(-c2ccncc2)[nH]1 (3D coordinates assigned)
C[C@@H](Cc1ccccc1)/N=c1\nc(O)cc(-c2ccncc2)[nH]1 (optimized conformer: 47.20727747248445 kcal/mol)

>  <smiles>  (59) 
CC(Cc1ccccc1)N=c1[nH]c(-c2ccncc2)cc(=O)[nH]1

>  <score_type>  (59) 
oracle

>  <origin>  (59) 
autodockgpu

>  <m_score__min__energy>  (59) 
-7.6500000000000004

>  <m_primary>  (59) 
energy

>  <meeko>  (59) 
{"free_energy": -6.94, "intermolecular_energy": -8.73, "internal_energy": -0.81, "cluster_size": 2, "cluster_id": 3, "rank_in_cluster": 2}

>  <energy>  (59) 
-6.99

>  <cluster_rmsd>  (59) 
0.0

>  <rmsd>  (59) 
273.33

>  <cluster>  (59) 
3

$$$$
XBCCWEKCHRHPJI-JANDEHFDNA-N
     RDKit          3D

 41 43  0  0  0  0  0  0  0  0999 V2000
  141.7660   77.3480  221.9660 H   0  0  0  0  0  0  0  0  0  0  0  0
  140.9770   76.7540  221.7370 O   0  0  0  0  0  0  0  0  0  0  0  0
  141.1320   75.3770  221.6160 C   0  0  0  0  0  0  0  0  0  0  0  0
  140.1460   74.5420  222.0280 N   0  0  0  0  0  0  0  0  0  0  0  0
  140.2700   73.1910  221.9180 C   0  0  0  0  0  0  0  0  0  0  0  0
  139.3200   72.3940  222.3200 N   0  0  0  0  0  0  0  0  0  0  0  0
  139.4010   71.3590  223.3600 C   0  0  1  0  0  0  0  0  0  0  0  0
  138.5779   71.5184  224.0721 H   0  0  0  0  0  0  0  0  0  0  0  0
  139.1970   69.9580  222.7660 C   0  0  0  0  0  0  0  0  0  0  0  0
  139.0905   69.2264  223.5805 H   0  0  0  0  0  0  0  0  0  0  0  0
  138.2884   69.9513  222.1460 H   0  0  0  0  0  0  0  0  0  0  0  0
  140.0660   69.6925  222.1460 H   0  0  0  0  0  0  0  0  0  0  0  0
  140.7110   71.4830  224.1680 C   0  0  0  0  0  0  0  0  0  0  0  0
  141.4561   70.7922  223.7466 H   0  0  0  0  0  0  0  0  0  0  0  0
  141.0565   72.5252  224.1018 H   0  0  0  0  0  0  0  0  0  0  0  0
  140.5040   71.1490  225.6240 C   0  0  0  0  0  0  0  0  0  0  0  0
  141.0320   71.9800  226.6270 C   0  0  0  0  0  0  0  0  0  0  0  0
  141.5817   72.8917  226.3502 H   0  0  0  0  0  0  0  0  0  0  0  0
  140.8610   71.6520  227.9750 C   0  0  0  0  0  0  0  0  0  0  0  0
  141.2731   72.3076  228.7562 H   0  0  0  0  0  0  0  0  0  0  0  0
  140.1670   70.4920  228.3320 C   0  0  0  0  0  0  0  0  0  0  0  0
  140.0311   70.2374  229.3935 H   0  0  0  0  0  0  0  0  0  0  0  0
  139.6460   69.6560  227.3410 C   0  0  0  0  0  0  0  0  0  0  0  0
  139.1018   68.7425  227.6228 H   0  0  0  0  0  0  0  0  0  0  0  0
  139.8160   69.9800  225.9900 C   0  0  0  0  0  0  0  0  0  0  0  0
  139.4095   69.3170  225.2121 H   0  0  0  0  0  0  0  0  0  0  0  0
  141.4060   72.6630  221.3830 N   0  0  0  0  0  0  0  0  0  0  0  0
  141.4980   71.6220  221.3220 H   0  0  0  0  0  0  0  0  0  0  0  0
  142.4280   73.4620  220.9530 C   0  0  0  0  0  0  0  0  0  0  0  0
  143.6530   72.8640  220.3660 C   0  0  0  0  0  0  0  0  0  0  0  0
  143.6140   71.5840  219.7870 C   0  0  0  0  0  0  0  0  0  0  0  0
  142.6720   71.0164  219.7639 H   0  0  0  0  0  0  0  0  0  0  0  0
  144.7770   71.0360  219.2410 C   0  0  0  0  0  0  0  0  0  0  0  0
  144.7503   70.0342  218.7876 H   0  0  0  0  0  0  0  0  0  0  0  0
  145.9410   71.7360  219.2680 N   0  0  0  0  0  0  0  0  0  0  0  0
  146.0120   72.9760  219.8210 C   0  0  0  0  0  0  0  0  0  0  0  0
  146.9688   73.5186  219.8299 H   0  0  0  0  0  0  0  0  0  0  0  0
  144.8730   73.5630  220.3780 C   0  0  0  0  0  0  0  0  0  0  0  0
  144.9304   74.5670  220.8237 H   0  0  0  0  0  0  0  0  0  0  0  0
  142.3000   74.8540  221.0670 C   0  0  0  0  0  0  0  0  0  0  0  0
  143.1073   75.5203  220.7290 H   0  0  0  0  0  0  0  0  0  0  0  0
  1  2  1  0
  2  3  1  0
  3  4  2  0
  4  5  1  0
  5  6  2  0
  6  7  1  0
  7  8  1  1
  7  9  1  0
  9 10  1  0
  9 11  1  0
  9 12  1  0
  7 13  1  0
 13 14  1  0
 13 15  1  0
 13 16  1  0
 16 17  2  0
 17 18  1  0
 17 19  1  0
 19 20  1  0
 19 21  2  0
 21 22  1  0
 21 23  1  0
 23 24  1  0
 23 25  2  0
 25 26  1  0
  5 27  1  0
 27 28  1  0
 27 29  1  0
 29 30  1  0
 30 31  2  0
 31 32  1  0
 31 33  1  0
 33 34  1  0
 33 35  2  0
 35 36  1  0
 36 37  1  0
 36 38  2  0
 38 39  1  0
 29 40  2  0
 40 41  1  0
 40  3  1  0
 25 16  1  0
 38 30  1  0
M  END
>  <UniqueID>  (60) 
7

>  <SMILES>  (60) 
C[C@@H](Cc1ccccc1)/N=c1\nc(O)cc(-c2ccncc2)[nH]1

>  <Energy>  (60) 
47.20727747248445

>  <Genealogy>  (60) 
CC(Cc1ccccc1)N=c1nc(O)cc(-c2ccncc2)[nH]1 (tautomer)
C[C@@H](Cc1ccccc1)N=c1nc(O)cc(-c2ccncc2)[nH]1 (chirality)
C[C@@H](Cc1ccccc1)/N=c1\nc(O)cc(-c2ccncc2)[nH]1 (cis-trans isomerization)
C[C@@H](Cc1ccccc1)/N=c1\nc(O)cc(-c2ccncc2)[nH]1 (3D coordinates assigned)
C[C@@H](Cc1ccccc1)/N=c1\nc(O)cc(-c2ccncc2)[nH]1 (optimized conformer: 47.20727747248445 kcal/mol)

>  <smiles>  (60) 
CC(Cc1ccccc1)N=c1[nH]c(-c2ccncc2)cc(=O)[nH]1

>  <score_type>  (60) 
oracle

>  <origin>  (60) 
autodockgpu

>  <m_score__min__energy>  (60) 
-7.6500000000000004

>  <m_primary>  (60) 
energy

>  <meeko>  (60) 
{"free_energy": -7.49, "intermolecular_energy": -9.28, "internal_energy": -0.71, "cluster_size": 14, "cluster_id": 1, "rank_in_cluster": 12}

>  <energy>  (60) 
-6.94

>  <cluster_rmsd>  (60) 
0.64

>  <rmsd>  (60) 
273.4

>  <cluster>  (60) 
3

$$$$
XBCCWEKCHRHPJI-RDLGDYGFNA-N
     RDKit          3D

 41 43  0  0  0  0  0  0  0  0999 V2000
  138.6200   72.6600  223.1160 H   0  0  0  0  0  0  0  0  0  0  0  0
  139.2860   72.4350  222.3860 O   0  0  0  0  0  0  0  0  0  0  0  0
  140.2080   73.3800  221.9460 C   0  0  0  0  0  0  0  0  0  0  0  0
  139.9510   74.7040  222.0920 N   0  0  0  0  0  0  0  0  0  0  0  0
  140.8280   75.6510  221.6700 C   0  0  0  0  0  0  0  0  0  0  0  0
  140.5070   76.9040  221.8430 N   0  0  0  0  0  0  0  0  0  0  0  0
  140.1060   77.9450  220.8850 C   0  0  1  0  0  0  0  0  0  0  0  0
  139.8319   77.4438  219.9450 H   0  0  0  0  0  0  0  0  0  0  0  0
  138.8310   78.6840  221.3290 C   0  0  0  0  0  0  0  0  0  0  0  0
  138.7861   78.7100  222.4278 H   0  0  0  0  0  0  0  0  0  0  0  0
  138.8482   79.7121  220.9383 H   0  0  0  0  0  0  0  0  0  0  0  0
  137.9474   78.1580  220.9383 H   0  0  0  0  0  0  0  0  0  0  0  0
  141.2830   78.8790  220.5240 C   0  0  0  0  0  0  0  0  0  0  0  0
  142.1641   78.2662  220.2827 H   0  0  0  0  0  0  0  0  0  0  0  0
  140.9836   79.4927  219.6616 H   0  0  0  0  0  0  0  0  0  0  0  0
  141.6270   79.8030  221.6640 C   0  0  0  0  0  0  0  0  0  0  0  0
  142.3510   79.3280  222.7710 C   0  0  0  0  0  0  0  0  0  0  0  0
  142.6886   78.2814  222.7964 H   0  0  0  0  0  0  0  0  0  0  0  0
  142.6440   80.1800  223.8400 C   0  0  0  0  0  0  0  0  0  0  0  0
  143.2149   79.8039  224.7017 H   0  0  0  0  0  0  0  0  0  0  0  0
  142.2120   81.5100  223.8150 C   0  0  0  0  0  0  0  0  0  0  0  0
  142.4463   82.1803  224.6551 H   0  0  0  0  0  0  0  0  0  0  0  0
  141.4830   81.9870  222.7230 C   0  0  0  0  0  0  0  0  0  0  0  0
  141.1405   83.0322  222.7057 H   0  0  0  0  0  0  0  0  0  0  0  0
  141.1880   81.1380  221.6520 C   0  0  0  0  0  0  0  0  0  0  0  0
  140.6098   81.5166  220.7962 H   0  0  0  0  0  0  0  0  0  0  0  0
  142.0040   75.2620  221.0880 N   0  0  0  0  0  0  0  0  0  0  0  0
  142.7090   75.9620  220.7880 H   0  0  0  0  0  0  0  0  0  0  0  0
  142.3050   73.9410  220.9160 C   0  0  0  0  0  0  0  0  0  0  0  0
  143.5790   73.5390  220.2660 C   0  0  0  0  0  0  0  0  0  0  0  0
  143.5840   72.9710  218.9800 C   0  0  0  0  0  0  0  0  0  0  0  0
  142.6385   72.8212  218.4382 H   0  0  0  0  0  0  0  0  0  0  0  0
  144.7950   72.5980  218.3940 C   0  0  0  0  0  0  0  0  0  0  0  0
  144.8035   72.1524  217.3883 H   0  0  0  0  0  0  0  0  0  0  0  0
  145.9640   72.7840  219.0630 N   0  0  0  0  0  0  0  0  0  0  0  0
  145.9920   73.3290  220.3070 C   0  0  0  0  0  0  0  0  0  0  0  0
  146.9531   73.4659  220.8243 H   0  0  0  0  0  0  0  0  0  0  0  0
  144.8040   73.7160  220.9310 C   0  0  0  0  0  0  0  0  0  0  0  0
  144.8272   74.1573  221.9383 H   0  0  0  0  0  0  0  0  0  0  0  0
  141.3950   72.9670  221.3520 C   0  0  0  0  0  0  0  0  0  0  0  0
  141.6163   71.8968  221.2264 H   0  0  0  0  0  0  0  0  0  0  0  0
  1  2  1  0
  2  3  1  0
  3  4  2  0
  4  5  1  0
  5  6  2  0
  6  7  1  0
  7  8  1  6
  7  9  1  0
  9 10  1  0
  9 11  1  0
  9 12  1  0
  7 13  1  0
 13 14  1  0
 13 15  1  0
 13 16  1  0
 16 17  2  0
 17 18  1  0
 17 19  1  0
 19 20  1  0
 19 21  2  0
 21 22  1  0
 21 23  1  0
 23 24  1  0
 23 25  2  0
 25 26  1  0
  5 27  1  0
 27 28  1  0
 27 29  1  0
 29 30  1  0
 30 31  2  0
 31 32  1  0
 31 33  1  0
 33 34  1  0
 33 35  2  0
 35 36  1  0
 36 37  1  0
 36 38  2  0
 38 39  1  0
 29 40  2  0
 40 41  1  0
 40  3  1  0
 25 16  1  0
 38 30  1  0
M  END
>  <UniqueID>  (61) 
8

>  <SMILES>  (61) 
C[C@@H](Cc1ccccc1)/N=c1/nc(O)cc(-c2ccncc2)[nH]1

>  <Energy>  (61) 
51.79244657881056

>  <Genealogy>  (61) 
CC(Cc1ccccc1)N=c1nc(O)cc(-c2ccncc2)[nH]1 (tautomer)
C[C@@H](Cc1ccccc1)N=c1nc(O)cc(-c2ccncc2)[nH]1 (chirality)
C[C@@H](Cc1ccccc1)/N=c1/nc(O)cc(-c2ccncc2)[nH]1 (cis-trans isomerization)
C[C@@H](Cc1ccccc1)/N=c1/nc(O)cc(-c2ccncc2)[nH]1 (3D coordinates assigned)
C[C@@H](Cc1ccccc1)/N=c1/nc(O)cc(-c2ccncc2)[nH]1 (optimized conformer: 51.79244657881056 kcal/mol)

>  <smiles>  (61) 
CC(Cc1ccccc1)N=c1[nH]c(-c2ccncc2)cc(=O)[nH]1

>  <score_type>  (61) 
oracle

>  <origin>  (61) 
autodockgpu

>  <m_score__min__energy>  (61) 
-7.6399999999999997

>  <m_primary>  (61) 
energy

>  <meeko>  (61) 
{"free_energy": -7.34, "intermolecular_energy": -9.13, "internal_energy": -0.73, "cluster_size": 7, "cluster_id": 2, "rank_in_cluster": 3}

>  <energy>  (61) 
-7.64

>  <cluster_rmsd>  (61) 
0.0

>  <rmsd>  (61) 
270.16

>  <cluster>  (61) 
1

$$$$
XBCCWEKCHRHPJI-RDLGDYGFNA-N
     RDKit          3D

 41 43  0  0  0  0  0  0  0  0999 V2000
  141.8160   77.3590  221.9550 H   0  0  0  0  0  0  0  0  0  0  0  0
  141.0200   76.7650  221.7540 O   0  0  0  0  0  0  0  0  0  0  0  0
  141.1770   75.3920  221.5910 C   0  0  0  0  0  0  0  0  0  0  0  0
  140.2170   74.5400  222.0290 N   0  0  0  0  0  0  0  0  0  0  0  0
  140.3400   73.1940  221.8880 C   0  0  0  0  0  0  0  0  0  0  0  0
  139.3750   72.4400  222.3380 N   0  0  0  0  0  0  0  0  0  0  0  0
  139.3090   71.5350  223.4960 C   0  0  1  0  0  0  0  0  0  0  0  0
  138.7811   72.0647  224.3027 H   0  0  0  0  0  0  0  0  0  0  0  0
  138.4530   70.2880  223.2110 C   0  0  0  0  0  0  0  0  0  0  0  0
  138.1404   69.8326  224.1623 H   0  0  0  0  0  0  0  0  0  0  0  0
  137.5629   70.5784  222.6335 H   0  0  0  0  0  0  0  0  0  0  0  0
  139.0439   69.5618  222.6335 H   0  0  0  0  0  0  0  0  0  0  0  0
  140.7120   71.2210  224.0610 C   0  0  0  0  0  0  0  0  0  0  0  0
  141.1167   70.3396  223.5420 H   0  0  0  0  0  0  0  0  0  0  0  0
  141.3525   72.1006  223.8996 H   0  0  0  0  0  0  0  0  0  0  0  0
  140.6640   70.9380  225.5410 C   0  0  0  0  0  0  0  0  0  0  0  0
  140.1710   69.7100  226.0140 C   0  0  0  0  0  0  0  0  0  0  0  0
  139.8398   68.9411  225.3005 H   0  0  0  0  0  0  0  0  0  0  0  0
  140.1000   69.4620  227.3880 C   0  0  0  0  0  0  0  0  0  0  0  0
  139.7171   68.4975  227.7529 H   0  0  0  0  0  0  0  0  0  0  0  0
  140.5150   70.4380  228.2990 C   0  0  0  0  0  0  0  0  0  0  0  0
  140.4612   70.2399  229.3797 H   0  0  0  0  0  0  0  0  0  0  0  0
  140.9980   71.6650  227.8370 C   0  0  0  0  0  0  0  0  0  0  0  0
  141.3219   72.4334  228.5544 H   0  0  0  0  0  0  0  0  0  0  0  0
  141.0700   71.9170  226.4630 C   0  0  0  0  0  0  0  0  0  0  0  0
  141.4462   72.8859  226.1029 H   0  0  0  0  0  0  0  0  0  0  0  0
  141.4570   72.6840  221.2840 N   0  0  0  0  0  0  0  0  0  0  0  0
  141.5630   71.6630  221.1310 H   0  0  0  0  0  0  0  0  0  0  0  0
  142.4530   73.5030  220.8310 C   0  0  0  0  0  0  0  0  0  0  0  0
  143.6650   72.9300  220.1940 C   0  0  0  0  0  0  0  0  0  0  0  0
  143.5910   71.7490  219.4340 C   0  0  0  0  0  0  0  0  0  0  0  0
  142.6263   71.2378  219.3001 H   0  0  0  0  0  0  0  0  0  0  0  0
  144.7480   71.2280  218.8500 C   0  0  0  0  0  0  0  0  0  0  0  0
  144.6946   70.3036  218.2562 H   0  0  0  0  0  0  0  0  0  0  0  0
  145.9400   71.8610  219.0140 N   0  0  0  0  0  0  0  0  0  0  0  0
  146.0450   73.0030  219.7420 C   0  0  0  0  0  0  0  0  0  0  0  0
  147.0235   73.4922  219.8572 H   0  0  0  0  0  0  0  0  0  0  0  0
  144.9130   73.5580  220.3450 C   0  0  0  0  0  0  0  0  0  0  0  0
  144.9985   74.4823  220.9352 H   0  0  0  0  0  0  0  0  0  0  0  0
  142.3210   74.8910  220.9800 C   0  0  0  0  0  0  0  0  0  0  0  0
  143.1076   75.5706  220.6203 H   0  0  0  0  0  0  0  0  0  0  0  0
  1  2  1  0
  2  3  1  0
  3  4  2  0
  4  5  1  0
  5  6  2  0
  6  7  1  0
  7  8  1  1
  7  9  1  0
  9 10  1  0
  9 11  1  0
  9 12  1  0
  7 13  1  0
 13 14  1  0
 13 15  1  0
 13 16  1  0
 16 17  2  0
 17 18  1  0
 17 19  1  0
 19 20  1  0
 19 21  2  0
 21 22  1  0
 21 23  1  0
 23 24  1  0
 23 25  2  0
 25 26  1  0
  5 27  1  0
 27 28  1  0
 27 29  1  0
 29 30  1  0
 30 31  2  0
 31 32  1  0
 31 33  1  0
 33 34  1  0
 33 35  2  0
 35 36  1  0
 36 37  1  0
 36 38  2  0
 38 39  1  0
 29 40  2  0
 40 41  1  0
 40  3  1  0
 25 16  1  0
 38 30  1  0
M  END
>  <UniqueID>  (62) 
8

>  <SMILES>  (62) 
C[C@@H](Cc1ccccc1)/N=c1/nc(O)cc(-c2ccncc2)[nH]1

>  <Energy>  (62) 
51.79244657881056

>  <Genealogy>  (62) 
CC(Cc1ccccc1)N=c1nc(O)cc(-c2ccncc2)[nH]1 (tautomer)
C[C@@H](Cc1ccccc1)N=c1nc(O)cc(-c2ccncc2)[nH]1 (chirality)
C[C@@H](Cc1ccccc1)/N=c1/nc(O)cc(-c2ccncc2)[nH]1 (cis-trans isomerization)
C[C@@H](Cc1ccccc1)/N=c1/nc(O)cc(-c2ccncc2)[nH]1 (3D coordinates assigned)
C[C@@H](Cc1ccccc1)/N=c1/nc(O)cc(-c2ccncc2)[nH]1 (optimized conformer: 51.79244657881056 kcal/mol)

>  <smiles>  (62) 
CC(Cc1ccccc1)N=c1[nH]c(-c2ccncc2)cc(=O)[nH]1

>  <score_type>  (62) 
oracle

>  <origin>  (62) 
autodockgpu

>  <m_score__min__energy>  (62) 
-7.6399999999999997

>  <m_primary>  (62) 
energy

>  <meeko>  (62) 
{"free_energy": -7.61, "intermolecular_energy": -9.4, "internal_energy": -0.7, "cluster_size": 12, "cluster_id": 1, "rank_in_cluster": 4}

>  <energy>  (62) 
-7.63

>  <cluster_rmsd>  (62) 
0.21

>  <rmsd>  (62) 
270.16

>  <cluster>  (62) 
1

$$$$
XBCCWEKCHRHPJI-RDLGDYGFNA-N
     RDKit          3D

 41 43  0  0  0  0  0  0  0  0999 V2000
  141.8280   77.3150  222.0070 H   0  0  0  0  0  0  0  0  0  0  0  0
  141.0260   76.7250  221.8190 O   0  0  0  0  0  0  0  0  0  0  0  0
  141.1760   75.3530  221.6350 C   0  0  0  0  0  0  0  0  0  0  0  0
  140.2140   74.4990  222.0630 N   0  0  0  0  0  0  0  0  0  0  0  0
  140.3310   73.1550  221.9030 C   0  0  0  0  0  0  0  0  0  0  0  0
  139.3640   72.3980  222.3440 N   0  0  0  0  0  0  0  0  0  0  0  0
  139.3160   71.4280  223.4490 C   0  0  1  0  0  0  0  0  0  0  0  0
  138.6892   71.8585  224.2439 H   0  0  0  0  0  0  0  0  0  0  0  0
  138.6070   70.1240  223.0470 C   0  0  0  0  0  0  0  0  0  0  0  0
  138.3084   69.5749  223.9522 H   0  0  0  0  0  0  0  0  0  0  0  0
  137.7136   70.3612  222.4506 H   0  0  0  0  0  0  0  0  0  0  0  0
  139.2917   69.5031  222.4506 H   0  0  0  0  0  0  0  0  0  0  0  0
  140.7070   71.2190  224.0900 C   0  0  0  0  0  0  0  0  0  0  0  0
  141.1894   70.3489  223.6206 H   0  0  0  0  0  0  0  0  0  0  0  0
  141.3006   72.1311  223.9294 H   0  0  0  0  0  0  0  0  0  0  0  0
  140.6030   70.9790  225.5750 C   0  0  0  0  0  0  0  0  0  0  0  0
  141.1600   71.8940  226.4840 C   0  0  0  0  0  0  0  0  0  0  0  0
  141.6546   72.8035  226.1123 H   0  0  0  0  0  0  0  0  0  0  0  0
  141.0880   71.6530  227.8590 C   0  0  0  0  0  0  0  0  0  0  0  0
  141.5238   72.3740  228.5663 H   0  0  0  0  0  0  0  0  0  0  0  0
  140.4630   70.4970  228.3370 C   0  0  0  0  0  0  0  0  0  0  0  0
  140.4036   70.3112  229.4196 H   0  0  0  0  0  0  0  0  0  0  0  0
  139.9140   69.5780  227.4390 C   0  0  0  0  0  0  0  0  0  0  0  0
  139.4245   68.6676  227.8153 H   0  0  0  0  0  0  0  0  0  0  0  0
  139.9860   69.8140  226.0620 C   0  0  0  0  0  0  0  0  0  0  0  0
  139.5581   69.0851  225.3579 H   0  0  0  0  0  0  0  0  0  0  0  0
  141.4450   72.6490  221.2890 N   0  0  0  0  0  0  0  0  0  0  0  0
  141.5460   71.6300  221.1210 H   0  0  0  0  0  0  0  0  0  0  0  0
  142.4420   73.4700  220.8450 C   0  0  0  0  0  0  0  0  0  0  0  0
  143.6510   72.9010  220.1970 C   0  0  0  0  0  0  0  0  0  0  0  0
  143.5710   71.7310  219.4220 C   0  0  0  0  0  0  0  0  0  0  0  0
  142.6039   71.2253  219.2839 H   0  0  0  0  0  0  0  0  0  0  0  0
  144.7240   71.2130  218.8280 C   0  0  0  0  0  0  0  0  0  0  0  0
  144.6656   70.2960  218.2232 H   0  0  0  0  0  0  0  0  0  0  0  0
  145.9180   71.8400  218.9960 N   0  0  0  0  0  0  0  0  0  0  0  0
  146.0290   72.9720  219.7390 C   0  0  0  0  0  0  0  0  0  0  0  0
  147.0096   73.4561  219.8574 H   0  0  0  0  0  0  0  0  0  0  0  0
  144.9020   73.5230  220.3530 C   0  0  0  0  0  0  0  0  0  0  0  0
  144.9928   74.4389  220.9555 H   0  0  0  0  0  0  0  0  0  0  0  0
  142.3170   74.8560  221.0140 C   0  0  0  0  0  0  0  0  0  0  0  0
  143.1059   75.5372  220.6624 H   0  0  0  0  0  0  0  0  0  0  0  0
  1  2  1  0
  2  3  1  0
  3  4  2  0
  4  5  1  0
  5  6  2  0
  6  7  1  0
  7  8  1  1
  7  9  1  0
  9 10  1  0
  9 11  1  0
  9 12  1  0
  7 13  1  0
 13 14  1  0
 13 15  1  0
 13 16  1  0
 16 17  2  0
 17 18  1  0
 17 19  1  0
 19 20  1  0
 19 21  2  0
 21 22  1  0
 21 23  1  0
 23 24  1  0
 23 25  2  0
 25 26  1  0
  5 27  1  0
 27 28  1  0
 27 29  1  0
 29 30  1  0
 30 31  2  0
 31 32  1  0
 31 33  1  0
 33 34  1  0
 33 35  2  0
 35 36  1  0
 36 37  1  0
 36 38  2  0
 38 39  1  0
 29 40  2  0
 40 41  1  0
 40  3  1  0
 25 16  1  0
 38 30  1  0
M  END
>  <UniqueID>  (63) 
8

>  <SMILES>  (63) 
C[C@@H](Cc1ccccc1)/N=c1/nc(O)cc(-c2ccncc2)[nH]1

>  <Energy>  (63) 
51.79244657881056

>  <Genealogy>  (63) 
CC(Cc1ccccc1)N=c1nc(O)cc(-c2ccncc2)[nH]1 (tautomer)
C[C@@H](Cc1ccccc1)N=c1nc(O)cc(-c2ccncc2)[nH]1 (chirality)
C[C@@H](Cc1ccccc1)/N=c1/nc(O)cc(-c2ccncc2)[nH]1 (cis-trans isomerization)
C[C@@H](Cc1ccccc1)/N=c1/nc(O)cc(-c2ccncc2)[nH]1 (3D coordinates assigned)
C[C@@H](Cc1ccccc1)/N=c1/nc(O)cc(-c2ccncc2)[nH]1 (optimized conformer: 51.79244657881056 kcal/mol)

>  <smiles>  (63) 
CC(Cc1ccccc1)N=c1[nH]c(-c2ccncc2)cc(=O)[nH]1

>  <score_type>  (63) 
oracle

>  <origin>  (63) 
autodockgpu

>  <m_score__min__energy>  (63) 
-7.6399999999999997

>  <m_primary>  (63) 
energy

>  <meeko>  (63) 
{"free_energy": -7.6, "intermolecular_energy": -9.39, "internal_energy": -0.7, "cluster_size": 12, "cluster_id": 1, "rank_in_cluster": 7}

>  <energy>  (63) 
-7.62

>  <cluster_rmsd>  (63) 
1.19

>  <rmsd>  (63) 
270.34

>  <cluster>  (63) 
1

$$$$
XBCCWEKCHRHPJI-RDLGDYGFNA-N
     RDKit          3D

 41 43  0  0  0  0  0  0  0  0999 V2000
  138.9650   75.2700  223.0220 H   0  0  0  0  0  0  0  0  0  0  0  0
  139.5870   75.1890  222.2260 O   0  0  0  0  0  0  0  0  0  0  0  0
  140.2650   74.0010  221.9680 C   0  0  0  0  0  0  0  0  0  0  0  0
  139.7200   72.8130  222.3290 N   0  0  0  0  0  0  0  0  0  0  0  0
  140.3570   71.6360  222.0940 C   0  0  0  0  0  0  0  0  0  0  0  0
  139.7700   70.5350  222.4740 N   0  0  0  0  0  0  0  0  0  0  0  0
  139.0080   70.2090  223.6900 C   0  0  1  0  0  0  0  0  0  0  0  0
  138.7435   71.1566  224.1821 H   0  0  0  0  0  0  0  0  0  0  0  0
  137.6610   69.5380  223.3690 C   0  0  0  0  0  0  0  0  0  0  0  0
  137.1464   69.2816  224.3068 H   0  0  0  0  0  0  0  0  0  0  0  0
  137.0364   70.2303  222.7854 H   0  0  0  0  0  0  0  0  0  0  0  0
  137.8373   68.6224  222.7854 H   0  0  0  0  0  0  0  0  0  0  0  0
  139.8680   69.4390  224.7170 C   0  0  0  0  0  0  0  0  0  0  0  0
  139.2922   68.5801  225.0923 H   0  0  0  0  0  0  0  0  0  0  0  0
  140.7880   69.1058  224.2144 H   0  0  0  0  0  0  0  0  0  0  0  0
  140.2570   70.3130  225.8810 C   0  0  0  0  0  0  0  0  0  0  0  0
  141.0320   71.4670  225.6760 C   0  0  0  0  0  0  0  0  0  0  0  0
  141.3378   71.7477  224.6573 H   0  0  0  0  0  0  0  0  0  0  0  0
  141.4160   72.2600  226.7620 C   0  0  0  0  0  0  0  0  0  0  0  0
  142.0195   73.1644  226.5954 H   0  0  0  0  0  0  0  0  0  0  0  0
  141.0340   71.9050  228.0590 C   0  0  0  0  0  0  0  0  0  0  0  0
  141.3340   72.5317  228.9118 H   0  0  0  0  0  0  0  0  0  0  0  0
  140.2710   70.7540  228.2720 C   0  0  0  0  0  0  0  0  0  0  0  0
  139.9728   70.4738  229.2931 H   0  0  0  0  0  0  0  0  0  0  0  0
  139.8860   69.9580  227.1890 C   0  0  0  0  0  0  0  0  0  0  0  0
  139.2900   69.0497  227.3616 H   0  0  0  0  0  0  0  0  0  0  0  0
  141.5770   71.6480  221.4730 N   0  0  0  0  0  0  0  0  0  0  0  0
  142.0710   70.7630  221.2490 H   0  0  0  0  0  0  0  0  0  0  0  0
  142.1670   72.8210  221.0950 C   0  0  0  0  0  0  0  0  0  0  0  0
  143.4990   72.8140  220.4370 C   0  0  0  0  0  0  0  0  0  0  0  0
  144.4690   73.7770  220.7630 C   0  0  0  0  0  0  0  0  0  0  0  0
  144.2503   74.5481  221.5163 H   0  0  0  0  0  0  0  0  0  0  0  0
  145.7110   73.7510  220.1270 C   0  0  0  0  0  0  0  0  0  0  0  0
  146.4723   74.5040  220.3787 H   0  0  0  0  0  0  0  0  0  0  0  0
  145.9820   72.7970  219.1970 N   0  0  0  0  0  0  0  0  0  0  0  0
  145.0660   71.8520  218.8600 C   0  0  0  0  0  0  0  0  0  0  0  0
  145.3142   71.0926  218.1039 H   0  0  0  0  0  0  0  0  0  0  0  0
  143.8100   71.8420  219.4710 C   0  0  0  0  0  0  0  0  0  0  0  0
  143.0682   71.0772  219.1974 H   0  0  0  0  0  0  0  0  0  0  0  0
  141.5060   74.0320  221.3410 C   0  0  0  0  0  0  0  0  0  0  0  0
  141.9601   74.9888  221.0438 H   0  0  0  0  0  0  0  0  0  0  0  0
  1  2  1  0
  2  3  1  0
  3  4  2  0
  4  5  1  0
  5  6  2  0
  6  7  1  0
  7  8  1  1
  7  9  1  0
  9 10  1  0
  9 11  1  0
  9 12  1  0
  7 13  1  0
 13 14  1  0
 13 15  1  0
 13 16  1  0
 16 17  2  0
 17 18  1  0
 17 19  1  0
 19 20  1  0
 19 21  2  0
 21 22  1  0
 21 23  1  0
 23 24  1  0
 23 25  2  0
 25 26  1  0
  5 27  1  0
 27 28  1  0
 27 29  1  0
 29 30  1  0
 30 31  2  0
 31 32  1  0
 31 33  1  0
 33 34  1  0
 33 35  2  0
 35 36  1  0
 36 37  1  0
 36 38  2  0
 38 39  1  0
 29 40  2  0
 40 41  1  0
 40  3  1  0
 25 16  1  0
 38 30  1  0
M  END
>  <UniqueID>  (64) 
8

>  <SMILES>  (64) 
C[C@@H](Cc1ccccc1)/N=c1/nc(O)cc(-c2ccncc2)[nH]1

>  <Energy>  (64) 
51.79244657881056

>  <Genealogy>  (64) 
CC(Cc1ccccc1)N=c1nc(O)cc(-c2ccncc2)[nH]1 (tautomer)
C[C@@H](Cc1ccccc1)N=c1nc(O)cc(-c2ccncc2)[nH]1 (chirality)
C[C@@H](Cc1ccccc1)/N=c1/nc(O)cc(-c2ccncc2)[nH]1 (cis-trans isomerization)
C[C@@H](Cc1ccccc1)/N=c1/nc(O)cc(-c2ccncc2)[nH]1 (3D coordinates assigned)
C[C@@H](Cc1ccccc1)/N=c1/nc(O)cc(-c2ccncc2)[nH]1 (optimized conformer: 51.79244657881056 kcal/mol)

>  <smiles>  (64) 
CC(Cc1ccccc1)N=c1[nH]c(-c2ccncc2)cc(=O)[nH]1

>  <score_type>  (64) 
oracle

>  <origin>  (64) 
autodockgpu

>  <m_score__min__energy>  (64) 
-7.6399999999999997

>  <m_primary>  (64) 
energy

>  <meeko>  (64) 
{"free_energy": -7.54, "intermolecular_energy": -9.33, "internal_energy": -0.8, "cluster_size": 12, "cluster_id": 1, "rank_in_cluster": 9}

>  <energy>  (64) 
-7.61

>  <cluster_rmsd>  (64) 
1.26

>  <rmsd>  (64) 
270.22

>  <cluster>  (64) 
1

$$$$
XBCCWEKCHRHPJI-RDLGDYGFNA-N
     RDKit          3D

 41 43  0  0  0  0  0  0  0  0999 V2000
  138.6030   72.7460  223.1110 H   0  0  0  0  0  0  0  0  0  0  0  0
  139.2220   72.5340  222.3380 O   0  0  0  0  0  0  0  0  0  0  0  0
  140.1970   73.4410  221.9330 C   0  0  0  0  0  0  0  0  0  0  0  0
  140.0000   74.7730  222.1010 N   0  0  0  0  0  0  0  0  0  0  0  0
  140.9290   75.6850  221.7140 C   0  0  0  0  0  0  0  0  0  0  0  0
  140.6640   76.9480  221.9060 N   0  0  0  0  0  0  0  0  0  0  0  0
  139.4710   77.7500  221.5950 C   0  0  1  0  0  0  0  0  0  0  0  0
  138.9850   77.2978  220.7179 H   0  0  0  0  0  0  0  0  0  0  0  0
  138.4170   77.6810  222.7140 C   0  0  0  0  0  0  0  0  0  0  0  0
  138.9184   77.7138  223.6925 H   0  0  0  0  0  0  0  0  0  0  0  0
  137.7309   78.5362  222.6247 H   0  0  0  0  0  0  0  0  0  0  0  0
  137.8482   76.7437  222.6247 H   0  0  0  0  0  0  0  0  0  0  0  0
  139.8400   79.1860  221.1630 C   0  0  0  0  0  0  0  0  0  0  0  0
  140.2350   79.1596  220.1367 H   0  0  0  0  0  0  0  0  0  0  0  0
  138.9330   79.8059  221.2191 H   0  0  0  0  0  0  0  0  0  0  0  0
  140.8800   79.7890  222.0720 C   0  0  0  0  0  0  0  0  0  0  0  0
  142.2250   79.3950  221.9750 C   0  0  0  0  0  0  0  0  0  0  0  0
  142.5265   78.6591  221.2151 H   0  0  0  0  0  0  0  0  0  0  0  0
  143.1820   79.9340  222.8400 C   0  0  0  0  0  0  0  0  0  0  0  0
  144.2342   79.6242  222.7570 H   0  0  0  0  0  0  0  0  0  0  0  0
  142.8030   80.8660  223.8100 C   0  0  0  0  0  0  0  0  0  0  0  0
  143.5577   81.2921  224.4874 H   0  0  0  0  0  0  0  0  0  0  0  0
  141.4660   81.2570  223.9200 C   0  0  0  0  0  0  0  0  0  0  0  0
  141.1684   81.9884  224.6858 H   0  0  0  0  0  0  0  0  0  0  0  0
  140.5060   80.7190  223.0570 C   0  0  0  0  0  0  0  0  0  0  0  0
  139.4535   81.0251  223.1496 H   0  0  0  0  0  0  0  0  0  0  0  0
  142.0960   75.2520  221.1460 N   0  0  0  0  0  0  0  0  0  0  0  0
  142.8390   75.9230  220.8730 H   0  0  0  0  0  0  0  0  0  0  0  0
  142.3370   73.9200  220.9530 C   0  0  0  0  0  0  0  0  0  0  0  0
  143.6030   73.4710  220.3190 C   0  0  0  0  0  0  0  0  0  0  0  0
  143.5850   72.6250  219.1960 C   0  0  0  0  0  0  0  0  0  0  0  0
  142.6271   72.2900  218.7715 H   0  0  0  0  0  0  0  0  0  0  0  0
  144.7900   72.2120  218.6220 C   0  0  0  0  0  0  0  0  0  0  0  0
  144.7811   71.5480  217.7450 H   0  0  0  0  0  0  0  0  0  0  0  0
  145.9730   72.6290  219.1450 N   0  0  0  0  0  0  0  0  0  0  0  0
  146.0240   73.4460  220.2290 C   0  0  0  0  0  0  0  0  0  0  0  0
  146.9971   73.7659  220.6299 H   0  0  0  0  0  0  0  0  0  0  0  0
  144.8430   73.8810  220.8360 C   0  0  0  0  0  0  0  0  0  0  0  0
  144.8842   74.5415  221.7147 H   0  0  0  0  0  0  0  0  0  0  0  0
  141.3740   72.9830  221.3530 C   0  0  0  0  0  0  0  0  0  0  0  0
  141.5466   71.9060  221.2105 H   0  0  0  0  0  0  0  0  0  0  0  0
  1  2  1  0
  2  3  1  0
  3  4  2  0
  4  5  1  0
  5  6  2  0
  6  7  1  0
  7  8  1  6
  7  9  1  0
  9 10  1  0
  9 11  1  0
  9 12  1  0
  7 13  1  0
 13 14  1  0
 13 15  1  0
 13 16  1  0
 16 17  2  0
 17 18  1  0
 17 19  1  0
 19 20  1  0
 19 21  2  0
 21 22  1  0
 21 23  1  0
 23 24  1  0
 23 25  2  0
 25 26  1  0
  5 27  1  0
 27 28  1  0
 27 29  1  0
 29 30  1  0
 30 31  2  0
 31 32  1  0
 31 33  1  0
 33 34  1  0
 33 35  2  0
 35 36  1  0
 36 37  1  0
 36 38  2  0
 38 39  1  0
 29 40  2  0
 40 41  1  0
 40  3  1  0
 25 16  1  0
 38 30  1  0
M  END
>  <UniqueID>  (65) 
8

>  <SMILES>  (65) 
C[C@@H](Cc1ccccc1)/N=c1/nc(O)cc(-c2ccncc2)[nH]1

>  <Energy>  (65) 
51.79244657881056

>  <Genealogy>  (65) 
CC(Cc1ccccc1)N=c1nc(O)cc(-c2ccncc2)[nH]1 (tautomer)
C[C@@H](Cc1ccccc1)N=c1nc(O)cc(-c2ccncc2)[nH]1 (chirality)
C[C@@H](Cc1ccccc1)/N=c1/nc(O)cc(-c2ccncc2)[nH]1 (cis-trans isomerization)
C[C@@H](Cc1ccccc1)/N=c1/nc(O)cc(-c2ccncc2)[nH]1 (3D coordinates assigned)
C[C@@H](Cc1ccccc1)/N=c1/nc(O)cc(-c2ccncc2)[nH]1 (optimized conformer: 51.79244657881056 kcal/mol)

>  <smiles>  (65) 
CC(Cc1ccccc1)N=c1[nH]c(-c2ccncc2)cc(=O)[nH]1

>  <score_type>  (65) 
oracle

>  <origin>  (65) 
autodockgpu

>  <m_score__min__energy>  (65) 
-7.6399999999999997

>  <m_primary>  (65) 
energy

>  <meeko>  (65) 
{"free_energy": -7.38, "intermolecular_energy": -9.17, "internal_energy": -0.67, "cluster_size": 7, "cluster_id": 2, "rank_in_cluster": 1}

>  <energy>  (65) 
-7.61

>  <cluster_rmsd>  (65) 
1.27

>  <rmsd>  (65) 
270.24

>  <cluster>  (65) 
1

$$$$
XBCCWEKCHRHPJI-RDLGDYGFNA-N
     RDKit          3D

 41 43  0  0  0  0  0  0  0  0999 V2000
  141.8140   77.3330  221.9630 H   0  0  0  0  0  0  0  0  0  0  0  0
  141.0200   76.7390  221.7560 O   0  0  0  0  0  0  0  0  0  0  0  0
  141.1780   75.3640  221.6020 C   0  0  0  0  0  0  0  0  0  0  0  0
  140.2160   74.5140  222.0380 N   0  0  0  0  0  0  0  0  0  0  0  0
  140.3400   73.1680  221.9060 C   0  0  0  0  0  0  0  0  0  0  0  0
  139.3730   72.4160  222.3530 N   0  0  0  0  0  0  0  0  0  0  0  0
  139.3230   71.4570  223.4680 C   0  0  1  0  0  0  0  0  0  0  0  0
  138.7358   71.9158  224.2771 H   0  0  0  0  0  0  0  0  0  0  0  0
  138.5560   70.1760  223.0980 C   0  0  0  0  0  0  0  0  0  0  0  0
  138.2450   69.6566  224.0165 H   0  0  0  0  0  0  0  0  0  0  0  0
  137.6667   70.4390  222.5065 H   0  0  0  0  0  0  0  0  0  0  0  0
  139.2078   69.5163  222.5065 H   0  0  0  0  0  0  0  0  0  0  0  0
  140.7220   71.2040  224.0700 C   0  0  0  0  0  0  0  0  0  0  0  0
  141.1640   70.3201  223.5870 H   0  0  0  0  0  0  0  0  0  0  0  0
  141.3392   72.0974  223.8940 H   0  0  0  0  0  0  0  0  0  0  0  0
  140.6510   70.9650  225.5570 C   0  0  0  0  0  0  0  0  0  0  0  0
  140.0370   69.8070  226.0630 C   0  0  0  0  0  0  0  0  0  0  0  0
  139.6246   69.0585  225.3704 H   0  0  0  0  0  0  0  0  0  0  0  0
  139.9480   69.6020  227.4430 C   0  0  0  0  0  0  0  0  0  0  0  0
  139.4714   68.6906  227.8333 H   0  0  0  0  0  0  0  0  0  0  0  0
  140.4640   70.5540  228.3280 C   0  0  0  0  0  0  0  0  0  0  0  0
  140.3951   70.3903  229.4136 H   0  0  0  0  0  0  0  0  0  0  0  0
  141.0670   71.7130  227.8330 C   0  0  0  0  0  0  0  0  0  0  0  0
  141.4700   72.4629  228.5296 H   0  0  0  0  0  0  0  0  0  0  0  0
  141.1590   71.9210  226.4530 C   0  0  0  0  0  0  0  0  0  0  0  0
  141.6310   72.8367  226.0674 H   0  0  0  0  0  0  0  0  0  0  0  0
  141.4630   72.6550  221.3130 N   0  0  0  0  0  0  0  0  0  0  0  0
  141.5710   71.6330  221.1670 H   0  0  0  0  0  0  0  0  0  0  0  0
  142.4610   73.4720  220.8630 C   0  0  0  0  0  0  0  0  0  0  0  0
  143.6790   72.8960  220.2390 C   0  0  0  0  0  0  0  0  0  0  0  0
  144.9160   73.5580  220.3240 C   0  0  0  0  0  0  0  0  0  0  0  0
  144.9943   74.5146  220.8613 H   0  0  0  0  0  0  0  0  0  0  0  0
  146.0450   72.9970  219.7240 C   0  0  0  0  0  0  0  0  0  0  0  0
  147.0142   73.5133  219.7879 H   0  0  0  0  0  0  0  0  0  0  0  0
  145.9490   71.8140  219.0610 N   0  0  0  0  0  0  0  0  0  0  0  0
  144.7680   71.1490  218.9610 C   0  0  0  0  0  0  0  0  0  0  0  0
  144.7214   70.1933  218.4184 H   0  0  0  0  0  0  0  0  0  0  0  0
  143.6130   71.6750  219.5450 C   0  0  0  0  0  0  0  0  0  0  0  0
  142.6572   71.1369  219.4623 H   0  0  0  0  0  0  0  0  0  0  0  0
  142.3270   74.8610  221.0030 C   0  0  0  0  0  0  0  0  0  0  0  0
  143.1159   75.5392  220.6457 H   0  0  0  0  0  0  0  0  0  0  0  0
  1  2  1  0
  2  3  1  0
  3  4  2  0
  4  5  1  0
  5  6  2  0
  6  7  1  0
  7  8  1  1
  7  9  1  0
  9 10  1  0
  9 11  1  0
  9 12  1  0
  7 13  1  0
 13 14  1  0
 13 15  1  0
 13 16  1  0
 16 17  2  0
 17 18  1  0
 17 19  1  0
 19 20  1  0
 19 21  2  0
 21 22  1  0
 21 23  1  0
 23 24  1  0
 23 25  2  0
 25 26  1  0
  5 27  1  0
 27 28  1  0
 27 29  1  0
 29 30  1  0
 30 31  2  0
 31 32  1  0
 31 33  1  0
 33 34  1  0
 33 35  2  0
 35 36  1  0
 36 37  1  0
 36 38  2  0
 38 39  1  0
 29 40  2  0
 40 41  1  0
 40  3  1  0
 25 16  1  0
 38 30  1  0
M  END
>  <UniqueID>  (66) 
8

>  <SMILES>  (66) 
C[C@@H](Cc1ccccc1)/N=c1/nc(O)cc(-c2ccncc2)[nH]1

>  <Energy>  (66) 
51.79244657881056

>  <Genealogy>  (66) 
CC(Cc1ccccc1)N=c1nc(O)cc(-c2ccncc2)[nH]1 (tautomer)
C[C@@H](Cc1ccccc1)N=c1nc(O)cc(-c2ccncc2)[nH]1 (chirality)
C[C@@H](Cc1ccccc1)/N=c1/nc(O)cc(-c2ccncc2)[nH]1 (cis-trans isomerization)
C[C@@H](Cc1ccccc1)/N=c1/nc(O)cc(-c2ccncc2)[nH]1 (3D coordinates assigned)
C[C@@H](Cc1ccccc1)/N=c1/nc(O)cc(-c2ccncc2)[nH]1 (optimized conformer: 51.79244657881056 kcal/mol)

>  <smiles>  (66) 
CC(Cc1ccccc1)N=c1[nH]c(-c2ccncc2)cc(=O)[nH]1

>  <score_type>  (66) 
oracle

>  <origin>  (66) 
autodockgpu

>  <m_score__min__energy>  (66) 
-7.6399999999999997

>  <m_primary>  (66) 
energy

>  <meeko>  (66) 
{"free_energy": -7.6, "intermolecular_energy": -9.39, "internal_energy": -0.7, "cluster_size": 12, "cluster_id": 1, "rank_in_cluster": 6}

>  <energy>  (66) 
-7.6

>  <cluster_rmsd>  (66) 
1.26

>  <rmsd>  (66) 
270.23

>  <cluster>  (66) 
1

$$$$
XBCCWEKCHRHPJI-RDLGDYGFNA-N
     RDKit          3D

 41 43  0  0  0  0  0  0  0  0999 V2000
  139.0850   75.4080  223.0590 H   0  0  0  0  0  0  0  0  0  0  0  0
  139.7160   75.3790  222.2660 O   0  0  0  0  0  0  0  0  0  0  0  0
  140.4150   74.2180  221.9510 C   0  0  0  0  0  0  0  0  0  0  0  0
  139.9420   73.0090  222.3460 N   0  0  0  0  0  0  0  0  0  0  0  0
  140.6000   71.8570  222.0580 C   0  0  0  0  0  0  0  0  0  0  0  0
  140.0830   70.7340  222.4750 N   0  0  0  0  0  0  0  0  0  0  0  0
  139.2360   70.4270  223.6380 C   0  0  1  0  0  0  0  0  0  0  0  0
  138.9972   71.3778  224.1369 H   0  0  0  0  0  0  0  0  0  0  0  0
  137.8750   69.8410  223.2260 C   0  0  0  0  0  0  0  0  0  0  0  0
  137.2954   69.5914  224.1270 H   0  0  0  0  0  0  0  0  0  0  0  0
  137.3229   70.5812  222.6282 H   0  0  0  0  0  0  0  0  0  0  0  0
  138.0333   68.9313  222.6282 H   0  0  0  0  0  0  0  0  0  0  0  0
  139.9910   69.5890  224.6940 C   0  0  0  0  0  0  0  0  0  0  0  0
  139.3789   68.7147  224.9602 H   0  0  0  0  0  0  0  0  0  0  0  0
  140.9536   69.2776  224.2623 H   0  0  0  0  0  0  0  0  0  0  0  0
  140.2700   70.3890  225.9410 C   0  0  0  0  0  0  0  0  0  0  0  0
  141.1160   71.5100  225.8930 C   0  0  0  0  0  0  0  0  0  0  0  0
  141.5604   71.8205  224.9359 H   0  0  0  0  0  0  0  0  0  0  0  0
  141.3950   72.2320  227.0570 C   0  0  0  0  0  0  0  0  0  0  0  0
  142.0540   73.1117  227.0128 H   0  0  0  0  0  0  0  0  0  0  0  0
  140.8380   71.8380  228.2770 C   0  0  0  0  0  0  0  0  0  0  0  0
  141.0570   72.4088  229.1914 H   0  0  0  0  0  0  0  0  0  0  0  0
  140.0030   70.7190  228.3350 C   0  0  0  0  0  0  0  0  0  0  0  0
  139.5670   70.4081  229.2959 H   0  0  0  0  0  0  0  0  0  0  0  0
  139.7210   69.9940  227.1730 C   0  0  0  0  0  0  0  0  0  0  0  0
  139.0669   69.1111  227.2234 H   0  0  0  0  0  0  0  0  0  0  0  0
  141.7690   71.9140  221.3460 N   0  0  0  0  0  0  0  0  0  0  0  0
  142.2760   71.0490  221.0810 H   0  0  0  0  0  0  0  0  0  0  0  0
  142.2860   73.1090  220.9310 C   0  0  0  0  0  0  0  0  0  0  0  0
  143.5640   73.1510  220.1760 C   0  0  0  0  0  0  0  0  0  0  0  0
  144.7920   73.3020  220.8430 C   0  0  0  0  0  0  0  0  0  0  0  0
  144.8184   73.3859  221.9395 H   0  0  0  0  0  0  0  0  0  0  0  0
  145.9780   73.3450  220.1080 C   0  0  0  0  0  0  0  0  0  0  0  0
  146.9405   73.4651  220.6267 H   0  0  0  0  0  0  0  0  0  0  0  0
  145.9470   73.2390  218.7540 N   0  0  0  0  0  0  0  0  0  0  0  0
  144.7760   73.0920  218.0790 C   0  0  0  0  0  0  0  0  0  0  0  0
  144.7820   73.0083  216.9822 H   0  0  0  0  0  0  0  0  0  0  0  0
  143.5660   73.0470  218.7740 C   0  0  0  0  0  0  0  0  0  0  0  0
  142.6187   72.9307  218.2272 H   0  0  0  0  0  0  0  0  0  0  0  0
  141.6020   74.2950  221.2330 C   0  0  0  0  0  0  0  0  0  0  0  0
  141.9978   75.2684  220.9076 H   0  0  0  0  0  0  0  0  0  0  0  0
  1  2  1  0
  2  3  1  0
  3  4  2  0
  4  5  1  0
  5  6  2  0
  6  7  1  0
  7  8  1  1
  7  9  1  0
  9 10  1  0
  9 11  1  0
  9 12  1  0
  7 13  1  0
 13 14  1  0
 13 15  1  0
 13 16  1  0
 16 17  2  0
 17 18  1  0
 17 19  1  0
 19 20  1  0
 19 21  2  0
 21 22  1  0
 21 23  1  0
 23 24  1  0
 23 25  2  0
 25 26  1  0
  5 27  1  0
 27 28  1  0
 27 29  1  0
 29 30  1  0
 30 31  2  0
 31 32  1  0
 31 33  1  0
 33 34  1  0
 33 35  2  0
 35 36  1  0
 36 37  1  0
 36 38  2  0
 38 39  1  0
 29 40  2  0
 40 41  1  0
 40  3  1  0
 25 16  1  0
 38 30  1  0
M  END
>  <UniqueID>  (67) 
8

>  <SMILES>  (67) 
C[C@@H](Cc1ccccc1)/N=c1/nc(O)cc(-c2ccncc2)[nH]1

>  <Energy>  (67) 
51.79244657881056

>  <Genealogy>  (67) 
CC(Cc1ccccc1)N=c1nc(O)cc(-c2ccncc2)[nH]1 (tautomer)
C[C@@H](Cc1ccccc1)N=c1nc(O)cc(-c2ccncc2)[nH]1 (chirality)
C[C@@H](Cc1ccccc1)/N=c1/nc(O)cc(-c2ccncc2)[nH]1 (cis-trans isomerization)
C[C@@H](Cc1ccccc1)/N=c1/nc(O)cc(-c2ccncc2)[nH]1 (3D coordinates assigned)
C[C@@H](Cc1ccccc1)/N=c1/nc(O)cc(-c2ccncc2)[nH]1 (optimized conformer: 51.79244657881056 kcal/mol)

>  <smiles>  (67) 
CC(Cc1ccccc1)N=c1[nH]c(-c2ccncc2)cc(=O)[nH]1

>  <score_type>  (67) 
oracle

>  <origin>  (67) 
autodockgpu

>  <m_score__min__energy>  (67) 
-7.6399999999999997

>  <m_primary>  (67) 
energy

>  <meeko>  (67) 
{"free_energy": -7.63, "intermolecular_energy": -9.42, "internal_energy": -0.73, "cluster_size": 12, "cluster_id": 1, "rank_in_cluster": 2}

>  <energy>  (67) 
-7.6

>  <cluster_rmsd>  (67) 
1.25

>  <rmsd>  (67) 
270.22

>  <cluster>  (67) 
1

$$$$
XBCCWEKCHRHPJI-RDLGDYGFNA-N
     RDKit          3D

 41 43  0  0  0  0  0  0  0  0999 V2000
  139.0810   75.3050  223.0510 H   0  0  0  0  0  0  0  0  0  0  0  0
  139.6980   75.2530  222.2490 O   0  0  0  0  0  0  0  0  0  0  0  0
  140.3990   74.0850  221.9630 C   0  0  0  0  0  0  0  0  0  0  0  0
  139.9160   72.8840  222.3660 N   0  0  0  0  0  0  0  0  0  0  0  0
  140.5760   71.7260  222.1060 C   0  0  0  0  0  0  0  0  0  0  0  0
  140.0480   70.6100  222.5290 N   0  0  0  0  0  0  0  0  0  0  0  0
  139.1550   70.3270  223.6630 C   0  0  1  0  0  0  0  0  0  0  0  0
  138.9040   71.2873  224.1371 H   0  0  0  0  0  0  0  0  0  0  0  0
  137.8070   69.7430  223.2090 C   0  0  0  0  0  0  0  0  0  0  0  0
  137.2046   69.4820  224.0916 H   0  0  0  0  0  0  0  0  0  0  0  0
  137.2690   70.4887  222.6053 H   0  0  0  0  0  0  0  0  0  0  0  0
  137.9831   68.8405  222.6053 H   0  0  0  0  0  0  0  0  0  0  0  0
  139.8640   69.4990  224.7600 C   0  0  0  0  0  0  0  0  0  0  0  0
  139.1930   68.6912  225.0875 H   0  0  0  0  0  0  0  0  0  0  0  0
  140.7930   69.0898  224.3364 H   0  0  0  0  0  0  0  0  0  0  0  0
  140.2230   70.3500  225.9510 C   0  0  0  0  0  0  0  0  0  0  0  0
  141.0640   71.4660  225.8000 C   0  0  0  0  0  0  0  0  0  0  0  0
  141.4443   71.7347  224.8034 H   0  0  0  0  0  0  0  0  0  0  0  0
  141.4190   72.2360  226.9120 C   0  0  0  0  0  0  0  0  0  0  0  0
  142.0736   73.1112  226.7876 H   0  0  0  0  0  0  0  0  0  0  0  0
  140.9430   71.8950  228.1820 C   0  0  0  0  0  0  0  0  0  0  0  0
  141.2209   72.5032  229.0554 H   0  0  0  0  0  0  0  0  0  0  0  0
  140.1140   70.7810  228.3410 C   0  0  0  0  0  0  0  0  0  0  0  0
  139.7417   70.5119  229.3405 H   0  0  0  0  0  0  0  0  0  0  0  0
  139.7570   70.0080  227.2320 C   0  0  0  0  0  0  0  0  0  0  0  0
  139.1089   69.1288  227.3626 H   0  0  0  0  0  0  0  0  0  0  0  0
  141.7570   71.7700  221.4150 N   0  0  0  0  0  0  0  0  0  0  0  0
  142.2670   70.8990  221.1710 H   0  0  0  0  0  0  0  0  0  0  0  0
  142.2850   72.9570  220.9920 C   0  0  0  0  0  0  0  0  0  0  0  0
  143.5770   72.9860  220.2590 C   0  0  0  0  0  0  0  0  0  0  0  0
  143.6560   72.5590  218.9220 C   0  0  0  0  0  0  0  0  0  0  0  0
  142.7551   72.2014  218.4019 H   0  0  0  0  0  0  0  0  0  0  0  0
  144.8840   72.5910  218.2570 C   0  0  0  0  0  0  0  0  0  0  0  0
  144.9509   72.2564  217.2113 H   0  0  0  0  0  0  0  0  0  0  0  0
  145.9970   73.0350  218.9000 N   0  0  0  0  0  0  0  0  0  0  0  0
  145.9530   73.4540  220.1920 C   0  0  0  0  0  0  0  0  0  0  0  0
  146.8703   73.8075  220.6855 H   0  0  0  0  0  0  0  0  0  0  0  0
  144.7460   73.4370  220.8950 C   0  0  0  0  0  0  0  0  0  0  0  0
  144.7109   73.7750  221.9412 H   0  0  0  0  0  0  0  0  0  0  0  0
  141.6000   74.1490  221.2650 C   0  0  0  0  0  0  0  0  0  0  0  0
  142.0047   75.1166  220.9334 H   0  0  0  0  0  0  0  0  0  0  0  0
  1  2  1  0
  2  3  1  0
  3  4  2  0
  4  5  1  0
  5  6  2  0
  6  7  1  0
  7  8  1  1
  7  9  1  0
  9 10  1  0
  9 11  1  0
  9 12  1  0
  7 13  1  0
 13 14  1  0
 13 15  1  0
 13 16  1  0
 16 17  2  0
 17 18  1  0
 17 19  1  0
 19 20  1  0
 19 21  2  0
 21 22  1  0
 21 23  1  0
 23 24  1  0
 23 25  2  0
 25 26  1  0
  5 27  1  0
 27 28  1  0
 27 29  1  0
 29 30  1  0
 30 31  2  0
 31 32  1  0
 31 33  1  0
 33 34  1  0
 33 35  2  0
 35 36  1  0
 36 37  1  0
 36 38  2  0
 38 39  1  0
 29 40  2  0
 40 41  1  0
 40  3  1  0
 25 16  1  0
 38 30  1  0
M  END
>  <UniqueID>  (68) 
8

>  <SMILES>  (68) 
C[C@@H](Cc1ccccc1)/N=c1/nc(O)cc(-c2ccncc2)[nH]1

>  <Energy>  (68) 
51.79244657881056

>  <Genealogy>  (68) 
CC(Cc1ccccc1)N=c1nc(O)cc(-c2ccncc2)[nH]1 (tautomer)
C[C@@H](Cc1ccccc1)N=c1nc(O)cc(-c2ccncc2)[nH]1 (chirality)
C[C@@H](Cc1ccccc1)/N=c1/nc(O)cc(-c2ccncc2)[nH]1 (cis-trans isomerization)
C[C@@H](Cc1ccccc1)/N=c1/nc(O)cc(-c2ccncc2)[nH]1 (3D coordinates assigned)
C[C@@H](Cc1ccccc1)/N=c1/nc(O)cc(-c2ccncc2)[nH]1 (optimized conformer: 51.79244657881056 kcal/mol)

>  <smiles>  (68) 
CC(Cc1ccccc1)N=c1[nH]c(-c2ccncc2)cc(=O)[nH]1

>  <score_type>  (68) 
oracle

>  <origin>  (68) 
autodockgpu

>  <m_score__min__energy>  (68) 
-7.6399999999999997

>  <m_primary>  (68) 
energy

>  <meeko>  (68) 
{"free_energy": -7.64, "intermolecular_energy": -9.43, "internal_energy": -0.75, "cluster_size": 12, "cluster_id": 1, "rank_in_cluster": 1}

>  <energy>  (68) 
-7.59

>  <cluster_rmsd>  (68) 
1.27

>  <rmsd>  (68) 
270.23

>  <cluster>  (68) 
1

$$$$
XBCCWEKCHRHPJI-RDLGDYGFNA-N
     RDKit          3D

 41 43  0  0  0  0  0  0  0  0999 V2000
  141.8220   77.3340  221.9810 H   0  0  0  0  0  0  0  0  0  0  0  0
  141.0320   76.7470  221.7440 O   0  0  0  0  0  0  0  0  0  0  0  0
  141.1810   75.3700  221.6060 C   0  0  0  0  0  0  0  0  0  0  0  0
  140.2110   74.5310  222.0480 N   0  0  0  0  0  0  0  0  0  0  0  0
  140.3270   73.1830  221.9310 C   0  0  0  0  0  0  0  0  0  0  0  0
  139.3530   72.4420  222.3830 N   0  0  0  0  0  0  0  0  0  0  0  0
  139.3270   71.3940  223.4150 C   0  0  1  0  0  0  0  0  0  0  0  0
  138.6416   71.7253  224.2090 H   0  0  0  0  0  0  0  0  0  0  0  0
  138.7250   70.0780  222.8910 C   0  0  0  0  0  0  0  0  0  0  0  0
  138.4347   69.4434  223.7413 H   0  0  0  0  0  0  0  0  0  0  0  0
  137.8383   70.2986  222.2786 H   0  0  0  0  0  0  0  0  0  0  0  0
  139.4718   69.5514  222.2786 H   0  0  0  0  0  0  0  0  0  0  0  0
  140.7010   71.2290  224.1010 C   0  0  0  0  0  0  0  0  0  0  0  0
  141.2226   70.3699  223.6538 H   0  0  0  0  0  0  0  0  0  0  0  0
  141.2736   72.1564  223.9526 H   0  0  0  0  0  0  0  0  0  0  0  0
  140.5560   70.9960  225.5830 C   0  0  0  0  0  0  0  0  0  0  0  0
  141.0900   71.9140  226.5040 C   0  0  0  0  0  0  0  0  0  0  0  0
  141.5974   72.8204  226.1422 H   0  0  0  0  0  0  0  0  0  0  0  0
  140.9790   71.6800  227.8770 C   0  0  0  0  0  0  0  0  0  0  0  0
  141.3942   72.4048  228.5927 H   0  0  0  0  0  0  0  0  0  0  0  0
  140.3410   70.5260  228.3430 C   0  0  0  0  0  0  0  0  0  0  0  0
  140.2524   70.3448  229.4243 H   0  0  0  0  0  0  0  0  0  0  0  0
  139.8160   69.6030  227.4340 C   0  0  0  0  0  0  0  0  0  0  0  0
  139.3157   68.6946  227.8007 H   0  0  0  0  0  0  0  0  0  0  0  0
  139.9260   69.8330  226.0590 C   0  0  0  0  0  0  0  0  0  0  0  0
  139.5178   69.1007  225.3469 H   0  0  0  0  0  0  0  0  0  0  0  0
  141.4480   72.6560  221.3490 N   0  0  0  0  0  0  0  0  0  0  0  0
  141.5490   71.6320  221.2140 H   0  0  0  0  0  0  0  0  0  0  0  0
  142.4540   73.4610  220.8930 C   0  0  0  0  0  0  0  0  0  0  0  0
  143.6700   72.8690  220.2800 C   0  0  0  0  0  0  0  0  0  0  0  0
  143.6130   71.6330  219.6120 C   0  0  0  0  0  0  0  0  0  0  0  0
  142.6591   71.0910  219.5335 H   0  0  0  0  0  0  0  0  0  0  0  0
  144.7720   71.0970  219.0490 C   0  0  0  0  0  0  0  0  0  0  0  0
  144.7314   70.1297  218.5269 H   0  0  0  0  0  0  0  0  0  0  0  0
  145.9510   71.7670  219.1440 N   0  0  0  0  0  0  0  0  0  0  0  0
  146.0400   72.9630  219.7830 C   0  0  0  0  0  0  0  0  0  0  0  0
  147.0083   73.4813  219.8445 H   0  0  0  0  0  0  0  0  0  0  0  0
  144.9050   73.5360  220.3620 C   0  0  0  0  0  0  0  0  0  0  0  0
  144.9772   74.5040  220.8794 H   0  0  0  0  0  0  0  0  0  0  0  0
  142.3290   74.8520  221.0170 C   0  0  0  0  0  0  0  0  0  0  0  0
  143.1240   75.5207  220.6552 H   0  0  0  0  0  0  0  0  0  0  0  0
  1  2  1  0
  2  3  1  0
  3  4  2  0
  4  5  1  0
  5  6  2  0
  6  7  1  0
  7  8  1  1
  7  9  1  0
  9 10  1  0
  9 11  1  0
  9 12  1  0
  7 13  1  0
 13 14  1  0
 13 15  1  0
 13 16  1  0
 16 17  2  0
 17 18  1  0
 17 19  1  0
 19 20  1  0
 19 21  2  0
 21 22  1  0
 21 23  1  0
 23 24  1  0
 23 25  2  0
 25 26  1  0
  5 27  1  0
 27 28  1  0
 27 29  1  0
 29 30  1  0
 30 31  2  0
 31 32  1  0
 31 33  1  0
 33 34  1  0
 33 35  2  0
 35 36  1  0
 36 37  1  0
 36 38  2  0
 38 39  1  0
 29 40  2  0
 40 41  1  0
 40  3  1  0
 25 16  1  0
 38 30  1  0
M  END
>  <UniqueID>  (69) 
8

>  <SMILES>  (69) 
C[C@@H](Cc1ccccc1)/N=c1/nc(O)cc(-c2ccncc2)[nH]1

>  <Energy>  (69) 
51.79244657881056

>  <Genealogy>  (69) 
CC(Cc1ccccc1)N=c1nc(O)cc(-c2ccncc2)[nH]1 (tautomer)
C[C@@H](Cc1ccccc1)N=c1nc(O)cc(-c2ccncc2)[nH]1 (chirality)
C[C@@H](Cc1ccccc1)/N=c1/nc(O)cc(-c2ccncc2)[nH]1 (cis-trans isomerization)
C[C@@H](Cc1ccccc1)/N=c1/nc(O)cc(-c2ccncc2)[nH]1 (3D coordinates assigned)
C[C@@H](Cc1ccccc1)/N=c1/nc(O)cc(-c2ccncc2)[nH]1 (optimized conformer: 51.79244657881056 kcal/mol)

>  <smiles>  (69) 
CC(Cc1ccccc1)N=c1[nH]c(-c2ccncc2)cc(=O)[nH]1

>  <score_type>  (69) 
oracle

>  <origin>  (69) 
autodockgpu

>  <m_score__min__energy>  (69) 
-7.6399999999999997

>  <m_primary>  (69) 
energy

>  <meeko>  (69) 
{"free_energy": -7.59, "intermolecular_energy": -9.38, "internal_energy": -0.71, "cluster_size": 12, "cluster_id": 1, "rank_in_cluster": 8}

>  <energy>  (69) 
-7.54

>  <cluster_rmsd>  (69) 
0.35

>  <rmsd>  (69) 
270.13

>  <cluster>  (69) 
1

$$$$
XBCCWEKCHRHPJI-RDLGDYGFNA-N
     RDKit          3D

 41 43  0  0  0  0  0  0  0  0999 V2000
  141.8100   77.3440  221.9420 H   0  0  0  0  0  0  0  0  0  0  0  0
  141.0140   76.7430  221.7650 O   0  0  0  0  0  0  0  0  0  0  0  0
  141.1780   75.3710  221.5980 C   0  0  0  0  0  0  0  0  0  0  0  0
  140.2240   74.5120  222.0370 N   0  0  0  0  0  0  0  0  0  0  0  0
  140.3540   73.1680  221.8920 C   0  0  0  0  0  0  0  0  0  0  0  0
  139.3950   72.4070  222.3430 N   0  0  0  0  0  0  0  0  0  0  0  0
  139.3110   71.5590  223.5420 C   0  0  1  0  0  0  0  0  0  0  0  0
  138.8424   72.1551  224.3389 H   0  0  0  0  0  0  0  0  0  0  0  0
  138.3720   70.3570  223.3390 C   0  0  0  0  0  0  0  0  0  0  0  0
  138.0640   69.9628  224.3187 H   0  0  0  0  0  0  0  0  0  0  0  0
  137.4826   70.6774  222.7766 H   0  0  0  0  0  0  0  0  0  0  0  0
  138.8981   69.5716  222.7766 H   0  0  0  0  0  0  0  0  0  0  0  0
  140.7100   71.1830  224.0800 C   0  0  0  0  0  0  0  0  0  0  0  0
  141.0666   70.2865  223.5517 H   0  0  0  0  0  0  0  0  0  0  0  0
  141.3850   72.0345  223.9085 H   0  0  0  0  0  0  0  0  0  0  0  0
  140.6770   70.8980  225.5600 C   0  0  0  0  0  0  0  0  0  0  0  0
  141.0430   71.8930  226.4830 C   0  0  0  0  0  0  0  0  0  0  0  0
  141.3333   72.8922  226.1261 H   0  0  0  0  0  0  0  0  0  0  0  0
  141.0390   71.6160  227.8540 C   0  0  0  0  0  0  0  0  0  0  0  0
  141.3213   72.3991  228.5731 H   0  0  0  0  0  0  0  0  0  0  0  0
  140.6770   70.3460  228.3120 C   0  0  0  0  0  0  0  0  0  0  0  0
  140.6732   70.1308  229.3907 H   0  0  0  0  0  0  0  0  0  0  0  0
  140.3200   69.3500  227.4000 C   0  0  0  0  0  0  0  0  0  0  0  0
  140.0362   68.3505  227.7612 H   0  0  0  0  0  0  0  0  0  0  0  0
  140.3230   69.6220  226.0280 C   0  0  0  0  0  0  0  0  0  0  0  0
  140.0470   68.8333  225.3126 H   0  0  0  0  0  0  0  0  0  0  0  0
  141.4730   72.6660  221.2830 N   0  0  0  0  0  0  0  0  0  0  0  0
  141.5840   71.6460  221.1270 H   0  0  0  0  0  0  0  0  0  0  0  0
  142.4620   73.4920  220.8280 C   0  0  0  0  0  0  0  0  0  0  0  0
  143.6760   72.9270  220.1860 C   0  0  0  0  0  0  0  0  0  0  0  0
  143.6090   71.7400  219.4360 C   0  0  0  0  0  0  0  0  0  0  0  0
  142.6491   71.2170  219.3137 H   0  0  0  0  0  0  0  0  0  0  0  0
  144.7670   71.2280  218.8470 C   0  0  0  0  0  0  0  0  0  0  0  0
  144.7192   70.2984  218.2608 H   0  0  0  0  0  0  0  0  0  0  0  0
  145.9530   71.8750  218.9960 N   0  0  0  0  0  0  0  0  0  0  0  0
  146.0510   73.0240  219.7150 C   0  0  0  0  0  0  0  0  0  0  0  0
  147.0249   73.5248  219.8186 H   0  0  0  0  0  0  0  0  0  0  0  0
  144.9180   73.5710  220.3230 C   0  0  0  0  0  0  0  0  0  0  0  0
  144.9976   74.5006  220.9057 H   0  0  0  0  0  0  0  0  0  0  0  0
  142.3220   74.8790  220.9820 C   0  0  0  0  0  0  0  0  0  0  0  0
  143.1033   75.5644  220.6218 H   0  0  0  0  0  0  0  0  0  0  0  0
  1  2  1  0
  2  3  1  0
  3  4  2  0
  4  5  1  0
  5  6  2  0
  6  7  1  0
  7  8  1  1
  7  9  1  0
  9 10  1  0
  9 11  1  0
  9 12  1  0
  7 13  1  0
 13 14  1  0
 13 15  1  0
 13 16  1  0
 16 17  2  0
 17 18  1  0
 17 19  1  0
 19 20  1  0
 19 21  2  0
 21 22  1  0
 21 23  1  0
 23 24  1  0
 23 25  2  0
 25 26  1  0
  5 27  1  0
 27 28  1  0
 27 29  1  0
 29 30  1  0
 30 31  2  0
 31 32  1  0
 31 33  1  0
 33 34  1  0
 33 35  2  0
 35 36  1  0
 36 37  1  0
 36 38  2  0
 38 39  1  0
 29 40  2  0
 40 41  1  0
 40  3  1  0
 25 16  1  0
 38 30  1  0
M  END
>  <UniqueID>  (70) 
8

>  <SMILES>  (70) 
C[C@@H](Cc1ccccc1)/N=c1/nc(O)cc(-c2ccncc2)[nH]1

>  <Energy>  (70) 
51.79244657881056

>  <Genealogy>  (70) 
CC(Cc1ccccc1)N=c1nc(O)cc(-c2ccncc2)[nH]1 (tautomer)
C[C@@H](Cc1ccccc1)N=c1nc(O)cc(-c2ccncc2)[nH]1 (chirality)
C[C@@H](Cc1ccccc1)/N=c1/nc(O)cc(-c2ccncc2)[nH]1 (cis-trans isomerization)
C[C@@H](Cc1ccccc1)/N=c1/nc(O)cc(-c2ccncc2)[nH]1 (3D coordinates assigned)
C[C@@H](Cc1ccccc1)/N=c1/nc(O)cc(-c2ccncc2)[nH]1 (optimized conformer: 51.79244657881056 kcal/mol)

>  <smiles>  (70) 
CC(Cc1ccccc1)N=c1[nH]c(-c2ccncc2)cc(=O)[nH]1

>  <score_type>  (70) 
oracle

>  <origin>  (70) 
autodockgpu

>  <m_score__min__energy>  (70) 
-7.6399999999999997

>  <m_primary>  (70) 
energy

>  <meeko>  (70) 
{"free_energy": -7.61, "intermolecular_energy": -9.4, "internal_energy": -0.7, "cluster_size": 12, "cluster_id": 1, "rank_in_cluster": 5}

>  <energy>  (70) 
-7.52

>  <cluster_rmsd>  (70) 
1.06

>  <rmsd>  (70) 
270.32

>  <cluster>  (70) 
1

$$$$
XBCCWEKCHRHPJI-RDLGDYGFNA-N
     RDKit          3D

 41 43  0  0  0  0  0  0  0  0999 V2000
  143.3740   79.1660  217.0710 H   0  0  0  0  0  0  0  0  0  0  0  0
  142.5330   78.6860  217.3680 O   0  0  0  0  0  0  0  0  0  0  0  0
  142.5670   77.7650  218.4100 C   0  0  0  0  0  0  0  0  0  0  0  0
  141.7970   77.9510  219.5110 N   0  0  0  0  0  0  0  0  0  0  0  0
  141.8090   77.0730  220.5460 C   0  0  0  0  0  0  0  0  0  0  0  0
  141.0420   77.3230  221.5720 N   0  0  0  0  0  0  0  0  0  0  0  0
  139.5880   77.5280  221.6710 C   0  0  1  0  0  0  0  0  0  0  0  0
  139.2373   77.9067  220.6996 H   0  0  0  0  0  0  0  0  0  0  0  0
  138.8290   76.2070  221.8810 C   0  0  0  0  0  0  0  0  0  0  0  0
  138.7186   76.0148  222.9584 H   0  0  0  0  0  0  0  0  0  0  0  0
  137.8340   76.2781  221.4174 H   0  0  0  0  0  0  0  0  0  0  0  0
  139.3915   75.3832  221.4174 H   0  0  0  0  0  0  0  0  0  0  0  0
  139.2320   78.6300  222.6940 C   0  0  0  0  0  0  0  0  0  0  0  0
  138.4048   79.2347  222.2940 H   0  0  0  0  0  0  0  0  0  0  0  0
  138.9424   78.1436  223.6372 H   0  0  0  0  0  0  0  0  0  0  0  0
  140.4090   79.5320  222.9700 C   0  0  0  0  0  0  0  0  0  0  0  0
  141.4230   79.1260  223.8540 C   0  0  0  0  0  0  0  0  0  0  0  0
  141.3707   78.1359  224.3305 H   0  0  0  0  0  0  0  0  0  0  0  0
  142.4980   79.9760  224.1300 C   0  0  0  0  0  0  0  0  0  0  0  0
  143.2918   79.6514  224.8189 H   0  0  0  0  0  0  0  0  0  0  0  0
  142.5660   81.2380  223.5320 C   0  0  0  0  0  0  0  0  0  0  0  0
  143.4144   81.9041  223.7479 H   0  0  0  0  0  0  0  0  0  0  0  0
  141.5560   81.6530  222.6600 C   0  0  0  0  0  0  0  0  0  0  0  0
  141.6083   82.6473  222.1925 H   0  0  0  0  0  0  0  0  0  0  0  0
  140.4790   80.8060  222.3810 C   0  0  0  0  0  0  0  0  0  0  0  0
  139.6835   81.1382  221.6978 H   0  0  0  0  0  0  0  0  0  0  0  0
  142.6140   75.9680  220.4780 N   0  0  0  0  0  0  0  0  0  0  0  0
  142.6190   75.2610  221.2380 H   0  0  0  0  0  0  0  0  0  0  0  0
  143.4110   75.7400  219.3910 C   0  0  0  0  0  0  0  0  0  0  0  0
  144.2910   74.5450  219.3430 C   0  0  0  0  0  0  0  0  0  0  0  0
  145.0420   74.1570  220.4650 C   0  0  0  0  0  0  0  0  0  0  0  0
  144.9816   74.7371  221.3977 H   0  0  0  0  0  0  0  0  0  0  0  0
  145.8660   73.0310  220.3910 C   0  0  0  0  0  0  0  0  0  0  0  0
  146.4567   72.7244  221.2669 H   0  0  0  0  0  0  0  0  0  0  0  0
  145.9390   72.3140  219.2390 N   0  0  0  0  0  0  0  0  0  0  0  0
  145.2260   72.6630  218.1370 C   0  0  0  0  0  0  0  0  0  0  0  0
  145.3065   72.0625  217.2189 H   0  0  0  0  0  0  0  0  0  0  0  0
  144.3910   73.7820  218.1660 C   0  0  0  0  0  0  0  0  0  0  0  0
  143.8146   74.0651  217.2729 H   0  0  0  0  0  0  0  0  0  0  0  0
  143.3950   76.6510  218.3250 C   0  0  0  0  0  0  0  0  0  0  0  0
  144.0254   76.4875  217.4385 H   0  0  0  0  0  0  0  0  0  0  0  0
  1  2  1  0
  2  3  1  0
  3  4  2  0
  4  5  1  0
  5  6  2  0
  6  7  1  0
  7  8  1  6
  7  9  1  0
  9 10  1  0
  9 11  1  0
  9 12  1  0
  7 13  1  0
 13 14  1  0
 13 15  1  0
 13 16  1  0
 16 17  2  0
 17 18  1  0
 17 19  1  0
 19 20  1  0
 19 21  2  0
 21 22  1  0
 21 23  1  0
 23 24  1  0
 23 25  2  0
 25 26  1  0
  5 27  1  0
 27 28  1  0
 27 29  1  0
 29 30  1  0
 30 31  2  0
 31 32  1  0
 31 33  1  0
 33 34  1  0
 33 35  2  0
 35 36  1  0
 36 37  1  0
 36 38  2  0
 38 39  1  0
 29 40  2  0
 40 41  1  0
 40  3  1  0
 25 16  1  0
 38 30  1  0
M  END
>  <UniqueID>  (71) 
8

>  <SMILES>  (71) 
C[C@@H](Cc1ccccc1)/N=c1/nc(O)cc(-c2ccncc2)[nH]1

>  <Energy>  (71) 
51.79244657881056

>  <Genealogy>  (71) 
CC(Cc1ccccc1)N=c1nc(O)cc(-c2ccncc2)[nH]1 (tautomer)
C[C@@H](Cc1ccccc1)N=c1nc(O)cc(-c2ccncc2)[nH]1 (chirality)
C[C@@H](Cc1ccccc1)/N=c1/nc(O)cc(-c2ccncc2)[nH]1 (cis-trans isomerization)
C[C@@H](Cc1ccccc1)/N=c1/nc(O)cc(-c2ccncc2)[nH]1 (3D coordinates assigned)
C[C@@H](Cc1ccccc1)/N=c1/nc(O)cc(-c2ccncc2)[nH]1 (optimized conformer: 51.79244657881056 kcal/mol)

>  <smiles>  (71) 
CC(Cc1ccccc1)N=c1[nH]c(-c2ccncc2)cc(=O)[nH]1

>  <score_type>  (71) 
oracle

>  <origin>  (71) 
autodockgpu

>  <m_score__min__energy>  (71) 
-7.6399999999999997

>  <m_primary>  (71) 
energy

>  <meeko>  (71) 
{"free_energy": -6.95, "intermolecular_energy": -8.74, "internal_energy": -0.78, "cluster_size": 1, "cluster_id": 3, "rank_in_cluster": 1}

>  <energy>  (71) 
-7.5

>  <cluster_rmsd>  (71) 
0.41

>  <rmsd>  (71) 
270.15

>  <cluster>  (71) 
1

$$$$
XBCCWEKCHRHPJI-RDLGDYGFNA-N
     RDKit          3D

 41 43  0  0  0  0  0  0  0  0999 V2000
  138.8230   71.4980  221.3800 H   0  0  0  0  0  0  0  0  0  0  0  0
  139.6300   71.6760  221.9660 O   0  0  0  0  0  0  0  0  0  0  0  0
  140.4760   72.7510  221.7100 C   0  0  0  0  0  0  0  0  0  0  0  0
  140.1010   74.0100  222.0490 N   0  0  0  0  0  0  0  0  0  0  0  0
  140.9020   75.0810  221.8100 C   0  0  0  0  0  0  0  0  0  0  0  0
  140.4700   76.2600  222.1630 N   0  0  0  0  0  0  0  0  0  0  0  0
  140.1670   77.4610  221.3700 C   0  0  1  0  0  0  0  0  0  0  0  0
  139.7576   77.1276  220.4050 H   0  0  0  0  0  0  0  0  0  0  0  0
  139.0520   78.3100  222.0040 C   0  0  0  0  0  0  0  0  0  0  0  0
  139.1263   78.2534  223.1000 H   0  0  0  0  0  0  0  0  0  0  0  0
  139.1603   79.3564  221.6827 H   0  0  0  0  0  0  0  0  0  0  0  0
  138.0721   77.9273  221.6827 H   0  0  0  0  0  0  0  0  0  0  0  0
  141.4440   78.2570  221.0210 C   0  0  0  0  0  0  0  0  0  0  0  0
  142.3037   77.5707  221.0215 H   0  0  0  0  0  0  0  0  0  0  0  0
  141.3052   78.7124  220.0293 H   0  0  0  0  0  0  0  0  0  0  0  0
  141.6990   79.3610  222.0150 C   0  0  0  0  0  0  0  0  0  0  0  0
  141.4560   80.7010  221.6660 C   0  0  0  0  0  0  0  0  0  0  0  0
  141.0560   80.9442  220.6706 H   0  0  0  0  0  0  0  0  0  0  0  0
  141.7210   81.7260  222.5800 C   0  0  0  0  0  0  0  0  0  0  0  0
  141.5256   82.7726  222.3035 H   0  0  0  0  0  0  0  0  0  0  0  0
  142.2340   81.4220  223.8450 C   0  0  0  0  0  0  0  0  0  0  0  0
  142.4392   82.2290  224.5638 H   0  0  0  0  0  0  0  0  0  0  0  0
  142.4860   80.0930  224.1960 C   0  0  0  0  0  0  0  0  0  0  0  0
  142.8909   79.8549  225.1907 H   0  0  0  0  0  0  0  0  0  0  0  0
  142.2240   79.0650  223.2840 C   0  0  0  0  0  0  0  0  0  0  0  0
  142.4299   78.0207  223.5617 H   0  0  0  0  0  0  0  0  0  0  0  0
  142.1200   74.8860  221.2160 N   0  0  0  0  0  0  0  0  0  0  0  0
  142.7680   75.6800  221.0530 H   0  0  0  0  0  0  0  0  0  0  0  0
  142.5380   73.6370  220.8530 C   0  0  0  0  0  0  0  0  0  0  0  0
  143.8550   73.4490  220.1930 C   0  0  0  0  0  0  0  0  0  0  0  0
  143.9390   73.1250  218.8280 C   0  0  0  0  0  0  0  0  0  0  0  0
  143.0227   73.0113  218.2300 H   0  0  0  0  0  0  0  0  0  0  0  0
  145.1900   72.9480  218.2340 C   0  0  0  0  0  0  0  0  0  0  0  0
  145.2592   72.6930  217.1662 H   0  0  0  0  0  0  0  0  0  0  0  0
  146.3230   73.0900  218.9720 N   0  0  0  0  0  0  0  0  0  0  0  0
  146.2760   73.4020  220.2940 C   0  0  0  0  0  0  0  0  0  0  0  0
  147.2096   73.5100  220.8656 H   0  0  0  0  0  0  0  0  0  0  0  0
  145.0450   73.5860  220.9290 C   0  0  0  0  0  0  0  0  0  0  0  0
  145.0072   73.8368  221.9994 H   0  0  0  0  0  0  0  0  0  0  0  0
  141.7070   72.5360  221.1010 C   0  0  0  0  0  0  0  0  0  0  0  0
  142.0229   71.5208  220.8190 H   0  0  0  0  0  0  0  0  0  0  0  0
  1  2  1  0
  2  3  1  0
  3  4  2  0
  4  5  1  0
  5  6  2  0
  6  7  1  0
  7  8  1  6
  7  9  1  0
  9 10  1  0
  9 11  1  0
  9 12  1  0
  7 13  1  0
 13 14  1  0
 13 15  1  0
 13 16  1  0
 16 17  2  0
 17 18  1  0
 17 19  1  0
 19 20  1  0
 19 21  2  0
 21 22  1  0
 21 23  1  0
 23 24  1  0
 23 25  2  0
 25 26  1  0
  5 27  1  0
 27 28  1  0
 27 29  1  0
 29 30  1  0
 30 31  2  0
 31 32  1  0
 31 33  1  0
 33 34  1  0
 33 35  2  0
 35 36  1  0
 36 37  1  0
 36 38  2  0
 38 39  1  0
 29 40  2  0
 40 41  1  0
 40  3  1  0
 25 16  1  0
 38 30  1  0
M  END
>  <UniqueID>  (72) 
8

>  <SMILES>  (72) 
C[C@@H](Cc1ccccc1)/N=c1/nc(O)cc(-c2ccncc2)[nH]1

>  <Energy>  (72) 
51.79244657881056

>  <Genealogy>  (72) 
CC(Cc1ccccc1)N=c1nc(O)cc(-c2ccncc2)[nH]1 (tautomer)
C[C@@H](Cc1ccccc1)N=c1nc(O)cc(-c2ccncc2)[nH]1 (chirality)
C[C@@H](Cc1ccccc1)/N=c1/nc(O)cc(-c2ccncc2)[nH]1 (cis-trans isomerization)
C[C@@H](Cc1ccccc1)/N=c1/nc(O)cc(-c2ccncc2)[nH]1 (3D coordinates assigned)
C[C@@H](Cc1ccccc1)/N=c1/nc(O)cc(-c2ccncc2)[nH]1 (optimized conformer: 51.79244657881056 kcal/mol)

>  <smiles>  (72) 
CC(Cc1ccccc1)N=c1[nH]c(-c2ccncc2)cc(=O)[nH]1

>  <score_type>  (72) 
oracle

>  <origin>  (72) 
autodockgpu

>  <m_score__min__energy>  (72) 
-7.6399999999999997

>  <m_primary>  (72) 
energy

>  <meeko>  (72) 
{"free_energy": -7.2, "intermolecular_energy": -8.99, "internal_energy": -0.71, "cluster_size": 7, "cluster_id": 2, "rank_in_cluster": 6}

>  <energy>  (72) 
-7.5

>  <cluster_rmsd>  (72) 
0.76

>  <rmsd>  (72) 
270.23

>  <cluster>  (72) 
1

$$$$
XBCCWEKCHRHPJI-RDLGDYGFNA-N
     RDKit          3D

 41 43  0  0  0  0  0  0  0  0999 V2000
  139.5920   76.3810  221.0500 H   0  0  0  0  0  0  0  0  0  0  0  0
  140.0200   75.9080  221.8370 O   0  0  0  0  0  0  0  0  0  0  0  0
  140.6890   74.7000  221.6660 C   0  0  0  0  0  0  0  0  0  0  0  0
  140.1580   73.5510  222.1550 N   0  0  0  0  0  0  0  0  0  0  0  0
  140.7870   72.3560  222.0070 C   0  0  0  0  0  0  0  0  0  0  0  0
  140.2140   71.2960  222.5080 N   0  0  0  0  0  0  0  0  0  0  0  0
  139.2480   71.1410  223.6070 C   0  0  1  0  0  0  0  0  0  0  0  0
  139.2700   72.0650  224.2034 H   0  0  0  0  0  0  0  0  0  0  0  0
  137.8010   71.0310  223.0960 C   0  0  0  0  0  0  0  0  0  0  0  0
  137.1127   70.9787  223.9524 H   0  0  0  0  0  0  0  0  0  0  0  0
  137.5598   71.9134  222.4851 H   0  0  0  0  0  0  0  0  0  0  0  0
  137.6959   70.1223  222.4851 H   0  0  0  0  0  0  0  0  0  0  0  0
  139.6610   70.0160  224.5810 C   0  0  0  0  0  0  0  0  0  0  0  0
  138.7856   69.3824  224.7865 H   0  0  0  0  0  0  0  0  0  0  0  0
  140.4665   69.4325  224.1112 H   0  0  0  0  0  0  0  0  0  0  0  0
  140.1790   70.5720  225.8830 C   0  0  0  0  0  0  0  0  0  0  0  0
  139.8170   69.9770  227.1040 C   0  0  0  0  0  0  0  0  0  0  0  0
  139.1712   69.0866  227.1095 H   0  0  0  0  0  0  0  0  0  0  0  0
  140.2750   70.5130  228.3120 C   0  0  0  0  0  0  0  0  0  0  0  0
  139.9919   70.0415  229.2647 H   0  0  0  0  0  0  0  0  0  0  0  0
  141.0920   71.6470  228.3100 C   0  0  0  0  0  0  0  0  0  0  0  0
  141.4542   72.0651  229.2608 H   0  0  0  0  0  0  0  0  0  0  0  0
  141.4490   72.2500  227.1010 C   0  0  0  0  0  0  0  0  0  0  0  0
  142.0901   73.1439  227.1010 H   0  0  0  0  0  0  0  0  0  0  0  0
  140.9920   71.7180  225.8910 C   0  0  0  0  0  0  0  0  0  0  0  0
  141.2702   72.1988  224.9415 H   0  0  0  0  0  0  0  0  0  0  0  0
  141.9840   72.3070  221.3440 N   0  0  0  0  0  0  0  0  0  0  0  0
  142.4700   71.4040  221.1860 H   0  0  0  0  0  0  0  0  0  0  0  0
  142.5590   73.4380  220.8380 C   0  0  0  0  0  0  0  0  0  0  0  0
  143.8660   73.3660  220.1370 C   0  0  0  0  0  0  0  0  0  0  0  0
  143.9280   73.2290  218.7390 C   0  0  0  0  0  0  0  0  0  0  0  0
  143.0024   73.1772  218.1470 H   0  0  0  0  0  0  0  0  0  0  0  0
  145.1710   73.1590  218.1060 C   0  0  0  0  0  0  0  0  0  0  0  0
  145.2243   73.0501  217.0127 H   0  0  0  0  0  0  0  0  0  0  0  0
  146.3150   73.2250  218.8370 N   0  0  0  0  0  0  0  0  0  0  0  0
  146.2890   73.3570  220.1890 C   0  0  0  0  0  0  0  0  0  0  0  0
  147.2317   73.4073  220.7535 H   0  0  0  0  0  0  0  0  0  0  0  0
  145.0680   73.4290  220.8640 C   0  0  0  0  0  0  0  0  0  0  0  0
  145.0470   73.5345  221.9587 H   0  0  0  0  0  0  0  0  0  0  0  0
  141.9060   74.6690  220.9940 C   0  0  0  0  0  0  0  0  0  0  0  0
  142.3481   75.5927  220.5924 H   0  0  0  0  0  0  0  0  0  0  0  0
  1  2  1  0
  2  3  1  0
  3  4  2  0
  4  5  1  0
  5  6  2  0
  6  7  1  0
  7  8  1  1
  7  9  1  0
  9 10  1  0
  9 11  1  0
  9 12  1  0
  7 13  1  0
 13 14  1  0
 13 15  1  0
 13 16  1  0
 16 17  2  0
 17 18  1  0
 17 19  1  0
 19 20  1  0
 19 21  2  0
 21 22  1  0
 21 23  1  0
 23 24  1  0
 23 25  2  0
 25 26  1  0
  5 27  1  0
 27 28  1  0
 27 29  1  0
 29 30  1  0
 30 31  2  0
 31 32  1  0
 31 33  1  0
 33 34  1  0
 33 35  2  0
 35 36  1  0
 36 37  1  0
 36 38  2  0
 38 39  1  0
 29 40  2  0
 40 41  1  0
 40  3  1  0
 25 16  1  0
 38 30  1  0
M  END
>  <UniqueID>  (73) 
8

>  <SMILES>  (73) 
C[C@@H](Cc1ccccc1)/N=c1/nc(O)cc(-c2ccncc2)[nH]1

>  <Energy>  (73) 
51.79244657881056

>  <Genealogy>  (73) 
CC(Cc1ccccc1)N=c1nc(O)cc(-c2ccncc2)[nH]1 (tautomer)
C[C@@H](Cc1ccccc1)N=c1nc(O)cc(-c2ccncc2)[nH]1 (chirality)
C[C@@H](Cc1ccccc1)/N=c1/nc(O)cc(-c2ccncc2)[nH]1 (cis-trans isomerization)
C[C@@H](Cc1ccccc1)/N=c1/nc(O)cc(-c2ccncc2)[nH]1 (3D coordinates assigned)
C[C@@H](Cc1ccccc1)/N=c1/nc(O)cc(-c2ccncc2)[nH]1 (optimized conformer: 51.79244657881056 kcal/mol)

>  <smiles>  (73) 
CC(Cc1ccccc1)N=c1[nH]c(-c2ccncc2)cc(=O)[nH]1

>  <score_type>  (73) 
oracle

>  <origin>  (73) 
autodockgpu

>  <m_score__min__energy>  (73) 
-7.6399999999999997

>  <m_primary>  (73) 
energy

>  <meeko>  (73) 
{"free_energy": -7.5, "intermolecular_energy": -9.29, "internal_energy": -0.7, "cluster_size": 12, "cluster_id": 1, "rank_in_cluster": 12}

>  <energy>  (73) 
-7.38

>  <cluster_rmsd>  (73) 
0.0

>  <rmsd>  (73) 
270.34

>  <cluster>  (73) 
2

$$$$
XBCCWEKCHRHPJI-RDLGDYGFNA-N
     RDKit          3D

 41 43  0  0  0  0  0  0  0  0999 V2000
  138.9550   73.0200  223.1790 H   0  0  0  0  0  0  0  0  0  0  0  0
  139.6890   72.7300  222.5440 O   0  0  0  0  0  0  0  0  0  0  0  0
  140.5470   73.6640  221.9690 C   0  0  0  0  0  0  0  0  0  0  0  0
  140.2160   74.9800  221.9650 N   0  0  0  0  0  0  0  0  0  0  0  0
  141.0290   75.9170  221.4110 C   0  0  0  0  0  0  0  0  0  0  0  0
  140.6400   77.1620  221.4430 N   0  0  0  0  0  0  0  0  0  0  0  0
  140.5440   78.1780  220.3830 C   0  0  1  0  0  0  0  0  0  0  0  0
  140.5027   77.6502  219.4188 H   0  0  0  0  0  0  0  0  0  0  0  0
  139.2300   78.9730  220.4570 C   0  0  0  0  0  0  0  0  0  0  0  0
  138.9594   79.1367  221.5105 H   0  0  0  0  0  0  0  0  0  0  0  0
  139.3602   79.9440  219.9567 H   0  0  0  0  0  0  0  0  0  0  0  0
  138.4304   78.4071  219.9567 H   0  0  0  0  0  0  0  0  0  0  0  0
  141.8120   79.0590  220.3150 C   0  0  0  0  0  0  0  0  0  0  0  0
  142.6944   78.4086  220.2241 H   0  0  0  0  0  0  0  0  0  0  0  0
  141.7233   79.7239  219.4432 H   0  0  0  0  0  0  0  0  0  0  0  0
  141.9590   79.9140  221.5480 C   0  0  0  0  0  0  0  0  0  0  0  0
  142.5500   79.3900  222.7100 C   0  0  0  0  0  0  0  0  0  0  0  0
  142.9290   78.3574  222.7144 H   0  0  0  0  0  0  0  0  0  0  0  0
  142.6580   80.1770  223.8610 C   0  0  0  0  0  0  0  0  0  0  0  0
  143.1236   79.7632  224.7676 H   0  0  0  0  0  0  0  0  0  0  0  0
  142.1750   81.4890  223.8610 C   0  0  0  0  0  0  0  0  0  0  0  0
  142.2650   82.1081  224.7658 H   0  0  0  0  0  0  0  0  0  0  0  0
  141.5780   82.0140  222.7120 C   0  0  0  0  0  0  0  0  0  0  0  0
  141.1948   83.0451  222.7142 H   0  0  0  0  0  0  0  0  0  0  0  0
  141.4670   81.2300  221.5590 C   0  0  0  0  0  0  0  0  0  0  0  0
  140.9928   81.6453  220.6575 H   0  0  0  0  0  0  0  0  0  0  0  0
  142.2130   75.5260  220.8460 N   0  0  0  0  0  0  0  0  0  0  0  0
  142.8700   76.2230  220.4460 H   0  0  0  0  0  0  0  0  0  0  0  0
  142.5860   74.2120  220.8240 C   0  0  0  0  0  0  0  0  0  0  0  0
  143.8670   73.8050  220.1910 C   0  0  0  0  0  0  0  0  0  0  0  0
  145.0590   73.7680  220.9360 C   0  0  0  0  0  0  0  0  0  0  0  0
  145.0532   74.0378  222.0024 H   0  0  0  0  0  0  0  0  0  0  0  0
  146.2500   73.3870  220.3150 C   0  0  0  0  0  0  0  0  0  0  0  0
  147.1849   73.3571  220.8938 H   0  0  0  0  0  0  0  0  0  0  0  0
  146.2580   73.0530  218.9980 N   0  0  0  0  0  0  0  0  0  0  0  0
  145.1230   73.0790  218.2500 C   0  0  0  0  0  0  0  0  0  0  0  0
  145.1605   72.8027  217.1859 H   0  0  0  0  0  0  0  0  0  0  0  0
  143.9090   73.4560  218.8300 C   0  0  0  0  0  0  0  0  0  0  0  0
  142.9908   73.4796  218.2247 H   0  0  0  0  0  0  0  0  0  0  0  0
  141.7430   73.2490  221.3960 C   0  0  0  0  0  0  0  0  0  0  0  0
  142.0229   72.1852  221.3913 H   0  0  0  0  0  0  0  0  0  0  0  0
  1  2  1  0
  2  3  1  0
  3  4  2  0
  4  5  1  0
  5  6  2  0
  6  7  1  0
  7  8  1  6
  7  9  1  0
  9 10  1  0
  9 11  1  0
  9 12  1  0
  7 13  1  0
 13 14  1  0
 13 15  1  0
 13 16  1  0
 16 17  2  0
 17 18  1  0
 17 19  1  0
 19 20  1  0
 19 21  2  0
 21 22  1  0
 21 23  1  0
 23 24  1  0
 23 25  2  0
 25 26  1  0
  5 27  1  0
 27 28  1  0
 27 29  1  0
 29 30  1  0
 30 31  2  0
 31 32  1  0
 31 33  1  0
 33 34  1  0
 33 35  2  0
 35 36  1  0
 36 37  1  0
 36 38  2  0
 38 39  1  0
 29 40  2  0
 40 41  1  0
 40  3  1  0
 25 16  1  0
 38 30  1  0
M  END
>  <UniqueID>  (74) 
8

>  <SMILES>  (74) 
C[C@@H](Cc1ccccc1)/N=c1/nc(O)cc(-c2ccncc2)[nH]1

>  <Energy>  (74) 
51.79244657881056

>  <Genealogy>  (74) 
CC(Cc1ccccc1)N=c1nc(O)cc(-c2ccncc2)[nH]1 (tautomer)
C[C@@H](Cc1ccccc1)N=c1nc(O)cc(-c2ccncc2)[nH]1 (chirality)
C[C@@H](Cc1ccccc1)/N=c1/nc(O)cc(-c2ccncc2)[nH]1 (cis-trans isomerization)
C[C@@H](Cc1ccccc1)/N=c1/nc(O)cc(-c2ccncc2)[nH]1 (3D coordinates assigned)
C[C@@H](Cc1ccccc1)/N=c1/nc(O)cc(-c2ccncc2)[nH]1 (optimized conformer: 51.79244657881056 kcal/mol)

>  <smiles>  (74) 
CC(Cc1ccccc1)N=c1[nH]c(-c2ccncc2)cc(=O)[nH]1

>  <score_type>  (74) 
oracle

>  <origin>  (74) 
autodockgpu

>  <m_score__min__energy>  (74) 
-7.6399999999999997

>  <m_primary>  (74) 
energy

>  <meeko>  (74) 
{"free_energy": -7.33, "intermolecular_energy": -9.12, "internal_energy": -0.75, "cluster_size": 7, "cluster_id": 2, "rank_in_cluster": 4}

>  <energy>  (74) 
-7.34

>  <cluster_rmsd>  (74) 
0.72

>  <rmsd>  (74) 
270.33

>  <cluster>  (74) 
2

$$$$
XBCCWEKCHRHPJI-RDLGDYGFNA-N
     RDKit          3D

 41 43  0  0  0  0  0  0  0  0999 V2000
  138.9400   75.3720  223.0130 H   0  0  0  0  0  0  0  0  0  0  0  0
  139.5840   75.2750  222.2370 O   0  0  0  0  0  0  0  0  0  0  0  0
  140.2220   74.0640  221.9870 C   0  0  0  0  0  0  0  0  0  0  0  0
  139.6310   72.8960  222.3420 N   0  0  0  0  0  0  0  0  0  0  0  0
  140.2280   71.6970  222.1150 C   0  0  0  0  0  0  0  0  0  0  0  0
  139.5980   70.6170  222.4880 N   0  0  0  0  0  0  0  0  0  0  0  0
  138.9940   70.2400  223.7760 C   0  0  1  0  0  0  0  0  0  0  0  0
  138.7306   71.1676  224.3054 H   0  0  0  0  0  0  0  0  0  0  0  0
  137.6610   69.4940  223.5970 C   0  0  0  0  0  0  0  0  0  0  0  0
  137.2379   69.2572  224.5844 H   0  0  0  0  0  0  0  0  0  0  0  0
  136.9572   70.1294  223.0393 H   0  0  0  0  0  0  0  0  0  0  0  0
  137.8345   68.5619  223.0393 H   0  0  0  0  0  0  0  0  0  0  0  0
  140.0050   69.5160  224.6930 C   0  0  0  0  0  0  0  0  0  0  0  0
  139.5909   68.5378  224.9788 H   0  0  0  0  0  0  0  0  0  0  0  0
  140.9479   69.3966  224.1391 H   0  0  0  0  0  0  0  0  0  0  0  0
  140.2890   70.3110  225.9420 C   0  0  0  0  0  0  0  0  0  0  0  0
  139.7480   69.9130  227.1760 C   0  0  0  0  0  0  0  0  0  0  0  0
  139.1322   69.0035  227.2362 H   0  0  0  0  0  0  0  0  0  0  0  0
  139.9890   70.6680  228.3280 C   0  0  0  0  0  0  0  0  0  0  0  0
  139.5664   70.3494  229.2923 H   0  0  0  0  0  0  0  0  0  0  0  0
  140.7670   71.8280  228.2550 C   0  0  0  0  0  0  0  0  0  0  0  0
  140.9584   72.4199  229.1622 H   0  0  0  0  0  0  0  0  0  0  0  0
  141.3010   72.2350  227.0300 C   0  0  0  0  0  0  0  0  0  0  0  0
  141.9112   73.1485  226.9732 H   0  0  0  0  0  0  0  0  0  0  0  0
  141.0610   71.4830  225.8760 C   0  0  0  0  0  0  0  0  0  0  0  0
  141.4784   71.8103  224.9123 H   0  0  0  0  0  0  0  0  0  0  0  0
  141.4550   71.6640  221.5080 N   0  0  0  0  0  0  0  0  0  0  0  0
  141.9200   70.7630  221.2900 H   0  0  0  0  0  0  0  0  0  0  0  0
  142.0910   72.8150  221.1360 C   0  0  0  0  0  0  0  0  0  0  0  0
  143.4290   72.7610  220.4940 C   0  0  0  0  0  0  0  0  0  0  0  0
  143.7350   71.7670  219.5480 C   0  0  0  0  0  0  0  0  0  0  0  0
  142.9791   71.0180  219.2692 H   0  0  0  0  0  0  0  0  0  0  0  0
  145.0030   71.7350  218.9640 C   0  0  0  0  0  0  0  0  0  0  0  0
  145.2470   70.9581  218.2244 H   0  0  0  0  0  0  0  0  0  0  0  0
  145.9360   72.6610  219.3070 N   0  0  0  0  0  0  0  0  0  0  0  0
  145.6720   73.6340  220.2180 C   0  0  0  0  0  0  0  0  0  0  0  0
  146.4480   74.3700  220.4752 H   0  0  0  0  0  0  0  0  0  0  0  0
  144.4170   73.7020  220.8290 C   0  0  0  0  0  0  0  0  0  0  0  0
  144.2039   74.4881  221.5683 H   0  0  0  0  0  0  0  0  0  0  0  0
  141.4700   74.0500  221.3740 C   0  0  0  0  0  0  0  0  0  0  0  0
  141.9610   74.9898  221.0812 H   0  0  0  0  0  0  0  0  0  0  0  0
  1  2  1  0
  2  3  1  0
  3  4  2  0
  4  5  1  0
  5  6  2  0
  6  7  1  0
  7  8  1  1
  7  9  1  0
  9 10  1  0
  9 11  1  0
  9 12  1  0
  7 13  1  0
 13 14  1  0
 13 15  1  0
 13 16  1  0
 16 17  2  0
 17 18  1  0
 17 19  1  0
 19 20  1  0
 19 21  2  0
 21 22  1  0
 21 23  1  0
 23 24  1  0
 23 25  2  0
 25 26  1  0
  5 27  1  0
 27 28  1  0
 27 29  1  0
 29 30  1  0
 30 31  2  0
 31 32  1  0
 31 33  1  0
 33 34  1  0
 33 35  2  0
 35 36  1  0
 36 37  1  0
 36 38  2  0
 38 39  1  0
 29 40  2  0
 40 41  1  0
 40  3  1  0
 25 16  1  0
 38 30  1  0
M  END
>  <UniqueID>  (75) 
8

>  <SMILES>  (75) 
C[C@@H](Cc1ccccc1)/N=c1/nc(O)cc(-c2ccncc2)[nH]1

>  <Energy>  (75) 
51.79244657881056

>  <Genealogy>  (75) 
CC(Cc1ccccc1)N=c1nc(O)cc(-c2ccncc2)[nH]1 (tautomer)
C[C@@H](Cc1ccccc1)N=c1nc(O)cc(-c2ccncc2)[nH]1 (chirality)
C[C@@H](Cc1ccccc1)/N=c1/nc(O)cc(-c2ccncc2)[nH]1 (cis-trans isomerization)
C[C@@H](Cc1ccccc1)/N=c1/nc(O)cc(-c2ccncc2)[nH]1 (3D coordinates assigned)
C[C@@H](Cc1ccccc1)/N=c1/nc(O)cc(-c2ccncc2)[nH]1 (optimized conformer: 51.79244657881056 kcal/mol)

>  <smiles>  (75) 
CC(Cc1ccccc1)N=c1[nH]c(-c2ccncc2)cc(=O)[nH]1

>  <score_type>  (75) 
oracle

>  <origin>  (75) 
autodockgpu

>  <m_score__min__energy>  (75) 
-7.6399999999999997

>  <m_primary>  (75) 
energy

>  <meeko>  (75) 
{"free_energy": -7.5, "intermolecular_energy": -9.29, "internal_energy": -0.78, "cluster_size": 12, "cluster_id": 1, "rank_in_cluster": 11}

>  <energy>  (75) 
-7.34

>  <cluster_rmsd>  (75) 
0.69

>  <rmsd>  (75) 
270.28

>  <cluster>  (75) 
2

$$$$
XBCCWEKCHRHPJI-RDLGDYGFNA-N
     RDKit          3D

 41 43  0  0  0  0  0  0  0  0999 V2000
  140.8820   77.2340  221.8940 H   0  0  0  0  0  0  0  0  0  0  0  0
  140.2840   76.4390  221.7010 O   0  0  0  0  0  0  0  0  0  0  0  0
  140.8160   75.1590  221.5770 C   0  0  0  0  0  0  0  0  0  0  0  0
  140.1410   74.0900  222.0700 N   0  0  0  0  0  0  0  0  0  0  0  0
  140.6330   72.8280  221.9680 C   0  0  0  0  0  0  0  0  0  0  0  0
  139.9270   71.8520  222.4700 N   0  0  0  0  0  0  0  0  0  0  0  0
  139.6670   71.4580  223.8630 C   0  0  1  0  0  0  0  0  0  0  0  0
  139.2298   72.3257  224.3787 H   0  0  0  0  0  0  0  0  0  0  0  0
  138.6000   70.3540  223.9640 C   0  0  0  0  0  0  0  0  0  0  0  0
  138.3931   70.1399  225.0229 H   0  0  0  0  0  0  0  0  0  0  0  0
  137.6763   70.6906  223.4706 H   0  0  0  0  0  0  0  0  0  0  0  0
  138.9679   69.4423  223.4706 H   0  0  0  0  0  0  0  0  0  0  0  0
  140.9730   71.1440  224.6250 C   0  0  0  0  0  0  0  0  0  0  0  0
  141.5967   70.4819  224.0064 H   0  0  0  0  0  0  0  0  0  0  0  0
  141.4893   72.0938  224.8282 H   0  0  0  0  0  0  0  0  0  0  0  0
  140.6980   70.4660  225.9430 C   0  0  0  0  0  0  0  0  0  0  0  0
  140.3520   71.2240  227.0740 C   0  0  0  0  0  0  0  0  0  0  0  0
  140.2594   72.3172  226.9938 H   0  0  0  0  0  0  0  0  0  0  0  0
  140.1250   70.5940  228.3010 C   0  0  0  0  0  0  0  0  0  0  0  0
  139.8499   71.1918  229.1825 H   0  0  0  0  0  0  0  0  0  0  0  0
  140.2470   69.2050  228.4100 C   0  0  0  0  0  0  0  0  0  0  0  0
  140.0650   68.7110  229.3758 H   0  0  0  0  0  0  0  0  0  0  0  0
  140.6000   68.4450  227.2920 C   0  0  0  0  0  0  0  0  0  0  0  0
  140.6986   67.3529  227.3790 H   0  0  0  0  0  0  0  0  0  0  0  0
  140.8280   69.0710  226.0630 C   0  0  0  0  0  0  0  0  0  0  0  0
  141.1103   68.4698  225.1862 H   0  0  0  0  0  0  0  0  0  0  0  0
  141.8380   72.6280  221.3480 N   0  0  0  0  0  0  0  0  0  0  0  0
  142.2220   71.6720  221.2250 H   0  0  0  0  0  0  0  0  0  0  0  0
  142.5550   73.6740  220.8400 C   0  0  0  0  0  0  0  0  0  0  0  0
  143.8670   73.4380  220.1870 C   0  0  0  0  0  0  0  0  0  0  0  0
  145.0670   73.5900  220.9040 C   0  0  0  0  0  0  0  0  0  0  0  0
  145.0441   73.8832  221.9640 H   0  0  0  0  0  0  0  0  0  0  0  0
  146.2880   73.3670  220.2640 C   0  0  0  0  0  0  0  0  0  0  0  0
  147.2292   73.4862  220.8207 H   0  0  0  0  0  0  0  0  0  0  0  0
  146.3160   73.0030  218.9550 N   0  0  0  0  0  0  0  0  0  0  0  0
  145.1750   72.8470  218.2340 C   0  0  0  0  0  0  0  0  0  0  0  0
  145.2303   72.5509  217.1760 H   0  0  0  0  0  0  0  0  0  0  0  0
  143.9310   73.0620  218.8340 C   0  0  0  0  0  0  0  0  0  0  0  0
  143.0069   72.9376  218.2505 H   0  0  0  0  0  0  0  0  0  0  0  0
  142.0420   74.9740  220.9490 C   0  0  0  0  0  0  0  0  0  0  0  0
  142.5995   75.8319  220.5450 H   0  0  0  0  0  0  0  0  0  0  0  0
  1  2  1  0
  2  3  1  0
  3  4  2  0
  4  5  1  0
  5  6  2  0
  6  7  1  0
  7  8  1  1
  7  9  1  0
  9 10  1  0
  9 11  1  0
  9 12  1  0
  7 13  1  0
 13 14  1  0
 13 15  1  0
 13 16  1  0
 16 17  2  0
 17 18  1  0
 17 19  1  0
 19 20  1  0
 19 21  2  0
 21 22  1  0
 21 23  1  0
 23 24  1  0
 23 25  2  0
 25 26  1  0
  5 27  1  0
 27 28  1  0
 27 29  1  0
 29 30  1  0
 30 31  2  0
 31 32  1  0
 31 33  1  0
 33 34  1  0
 33 35  2  0
 35 36  1  0
 36 37  1  0
 36 38  2  0
 38 39  1  0
 29 40  2  0
 40 41  1  0
 40  3  1  0
 25 16  1  0
 38 30  1  0
M  END
>  <UniqueID>  (76) 
8

>  <SMILES>  (76) 
C[C@@H](Cc1ccccc1)/N=c1/nc(O)cc(-c2ccncc2)[nH]1

>  <Energy>  (76) 
51.79244657881056

>  <Genealogy>  (76) 
CC(Cc1ccccc1)N=c1nc(O)cc(-c2ccncc2)[nH]1 (tautomer)
C[C@@H](Cc1ccccc1)N=c1nc(O)cc(-c2ccncc2)[nH]1 (chirality)
C[C@@H](Cc1ccccc1)/N=c1/nc(O)cc(-c2ccncc2)[nH]1 (cis-trans isomerization)
C[C@@H](Cc1ccccc1)/N=c1/nc(O)cc(-c2ccncc2)[nH]1 (3D coordinates assigned)
C[C@@H](Cc1ccccc1)/N=c1/nc(O)cc(-c2ccncc2)[nH]1 (optimized conformer: 51.79244657881056 kcal/mol)

>  <smiles>  (76) 
CC(Cc1ccccc1)N=c1[nH]c(-c2ccncc2)cc(=O)[nH]1

>  <score_type>  (76) 
oracle

>  <origin>  (76) 
autodockgpu

>  <m_score__min__energy>  (76) 
-7.6399999999999997

>  <m_primary>  (76) 
energy

>  <meeko>  (76) 
{"free_energy": -7.62, "intermolecular_energy": -9.41, "internal_energy": -0.62, "cluster_size": 12, "cluster_id": 1, "rank_in_cluster": 3}

>  <energy>  (76) 
-7.33

>  <cluster_rmsd>  (76) 
0.88

>  <rmsd>  (76) 
270.36

>  <cluster>  (76) 
2

$$$$
XBCCWEKCHRHPJI-RDLGDYGFNA-N
     RDKit          3D

 41 43  0  0  0  0  0  0  0  0999 V2000
  139.2820   74.8910  223.0940 H   0  0  0  0  0  0  0  0  0  0  0  0
  139.6230   74.3220  222.3290 O   0  0  0  0  0  0  0  0  0  0  0  0
  140.5880   74.8080  221.4510 C   0  0  0  0  0  0  0  0  0  0  0  0
  140.3870   75.9800  220.7990 N   0  0  0  0  0  0  0  0  0  0  0  0
  141.3060   76.4820  219.9340 C   0  0  0  0  0  0  0  0  0  0  0  0
  141.0390   77.6130  219.3430 N   0  0  0  0  0  0  0  0  0  0  0  0
  141.8100   78.8610  219.2380 C   0  0  1  0  0  0  0  0  0  0  0  0
  142.7858   78.6902  219.7162 H   0  0  0  0  0  0  0  0  0  0  0  0
  142.1390   79.2200  217.7790 C   0  0  0  0  0  0  0  0  0  0  0  0
  142.8821   80.0308  217.7595 H   0  0  0  0  0  0  0  0  0  0  0  0
  142.5472   78.3361  217.2670 H   0  0  0  0  0  0  0  0  0  0  0  0
  141.2230   79.5498  217.2670 H   0  0  0  0  0  0  0  0  0  0  0  0
  141.1560   80.0100  220.0380 C   0  0  0  0  0  0  0  0  0  0  0  0
  141.5080   80.9711  219.6349 H   0  0  0  0  0  0  0  0  0  0  0  0
  140.0641   79.9193  219.9403 H   0  0  0  0  0  0  0  0  0  0  0  0
  141.5060   79.9360  221.5020 C   0  0  0  0  0  0  0  0  0  0  0  0
  142.1840   80.9970  222.1260 C   0  0  0  0  0  0  0  0  0  0  0  0
  142.4412   81.8974  221.5489 H   0  0  0  0  0  0  0  0  0  0  0  0
  142.5330   80.9130  223.4770 C   0  0  0  0  0  0  0  0  0  0  0  0
  143.0592   81.7487  223.9615 H   0  0  0  0  0  0  0  0  0  0  0  0
  142.2140   79.7680  224.2130 C   0  0  0  0  0  0  0  0  0  0  0  0
  142.4867   79.7046  225.2768 H   0  0  0  0  0  0  0  0  0  0  0  0
  141.5490   78.7040  223.5980 C   0  0  0  0  0  0  0  0  0  0  0  0
  141.3015   77.8021  224.1771 H   0  0  0  0  0  0  0  0  0  0  0  0
  141.1980   78.7850  222.2470 C   0  0  0  0  0  0  0  0  0  0  0  0
  140.6783   77.9438  221.7650 H   0  0  0  0  0  0  0  0  0  0  0  0
  142.4680   75.7910  219.7180 N   0  0  0  0  0  0  0  0  0  0  0  0
  143.2050   76.1660  219.0910 H   0  0  0  0  0  0  0  0  0  0  0  0
  142.7130   74.6040  220.3500 C   0  0  0  0  0  0  0  0  0  0  0  0
  143.9720   73.8610  220.0900 C   0  0  0  0  0  0  0  0  0  0  0  0
  144.0290   72.8630  219.1010 C   0  0  0  0  0  0  0  0  0  0  0  0
  143.1362   72.6245  218.5043 H   0  0  0  0  0  0  0  0  0  0  0  0
  145.2250   72.1760  218.8800 C   0  0  0  0  0  0  0  0  0  0  0  0
  145.2738   71.3940  218.1079 H   0  0  0  0  0  0  0  0  0  0  0  0
  146.3280   72.4710  219.6160 N   0  0  0  0  0  0  0  0  0  0  0  0
  146.3060   73.4290  220.5790 C   0  0  0  0  0  0  0  0  0  0  0  0
  147.2156   73.6454  221.1585 H   0  0  0  0  0  0  0  0  0  0  0  0
  145.1310   74.1400  220.8350 C   0  0  0  0  0  0  0  0  0  0  0  0
  145.1128   74.9145  221.6159 H   0  0  0  0  0  0  0  0  0  0  0  0
  141.7600   74.0910  221.2400 C   0  0  0  0  0  0  0  0  0  0  0  0
  141.9360   73.1388  221.7619 H   0  0  0  0  0  0  0  0  0  0  0  0
  1  2  1  0
  2  3  1  0
  3  4  2  0
  4  5  1  0
  5  6  2  0
  6  7  1  0
  7  8  1  1
  7  9  1  0
  9 10  1  0
  9 11  1  0
  9 12  1  0
  7 13  1  0
 13 14  1  0
 13 15  1  0
 13 16  1  0
 16 17  2  0
 17 18  1  0
 17 19  1  0
 19 20  1  0
 19 21  2  0
 21 22  1  0
 21 23  1  0
 23 24  1  0
 23 25  2  0
 25 26  1  0
  5 27  1  0
 27 28  1  0
 27 29  1  0
 29 30  1  0
 30 31  2  0
 31 32  1  0
 31 33  1  0
 33 34  1  0
 33 35  2  0
 35 36  1  0
 36 37  1  0
 36 38  2  0
 38 39  1  0
 29 40  2  0
 40 41  1  0
 40  3  1  0
 25 16  1  0
 38 30  1  0
M  END
>  <UniqueID>  (77) 
8

>  <SMILES>  (77) 
C[C@@H](Cc1ccccc1)/N=c1/nc(O)cc(-c2ccncc2)[nH]1

>  <Energy>  (77) 
51.79244657881056

>  <Genealogy>  (77) 
CC(Cc1ccccc1)N=c1nc(O)cc(-c2ccncc2)[nH]1 (tautomer)
C[C@@H](Cc1ccccc1)N=c1nc(O)cc(-c2ccncc2)[nH]1 (chirality)
C[C@@H](Cc1ccccc1)/N=c1/nc(O)cc(-c2ccncc2)[nH]1 (cis-trans isomerization)
C[C@@H](Cc1ccccc1)/N=c1/nc(O)cc(-c2ccncc2)[nH]1 (3D coordinates assigned)
C[C@@H](Cc1ccccc1)/N=c1/nc(O)cc(-c2ccncc2)[nH]1 (optimized conformer: 51.79244657881056 kcal/mol)

>  <smiles>  (77) 
CC(Cc1ccccc1)N=c1[nH]c(-c2ccncc2)cc(=O)[nH]1

>  <score_type>  (77) 
oracle

>  <origin>  (77) 
autodockgpu

>  <m_score__min__energy>  (77) 
-7.6399999999999997

>  <m_primary>  (77) 
energy

>  <meeko>  (77) 
{"free_energy": -7.04, "intermolecular_energy": -8.83, "internal_energy": -0.87, "cluster_size": 7, "cluster_id": 2, "rank_in_cluster": 7}

>  <energy>  (77) 
-7.26

>  <cluster_rmsd>  (77) 
0.36

>  <rmsd>  (77) 
270.37

>  <cluster>  (77) 
2

$$$$
XBCCWEKCHRHPJI-RDLGDYGFNA-N
     RDKit          3D

 41 43  0  0  0  0  0  0  0  0999 V2000
  138.5950   72.6500  223.1080 H   0  0  0  0  0  0  0  0  0  0  0  0
  139.2290   72.4470  222.3440 O   0  0  0  0  0  0  0  0  0  0  0  0
  140.2070   73.3620  221.9660 C   0  0  0  0  0  0  0  0  0  0  0  0
  140.0320   74.6850  222.2060 N   0  0  0  0  0  0  0  0  0  0  0  0
  140.9650   75.6050  221.8470 C   0  0  0  0  0  0  0  0  0  0  0  0
  140.7220   76.8590  222.1090 N   0  0  0  0  0  0  0  0  0  0  0  0
  139.8250   77.8310  221.4650 C   0  0  1  0  0  0  0  0  0  0  0  0
  139.3467   77.3282  220.6115 H   0  0  0  0  0  0  0  0  0  0  0  0
  138.6630   78.2470  222.3840 C   0  0  0  0  0  0  0  0  0  0  0  0
  138.9692   78.1374  223.4348 H   0  0  0  0  0  0  0  0  0  0  0  0
  138.3973   79.2961  222.1871 H   0  0  0  0  0  0  0  0  0  0  0  0
  137.7918   77.6049  222.1871 H   0  0  0  0  0  0  0  0  0  0  0  0
  140.6050   79.0180  220.8570 C   0  0  0  0  0  0  0  0  0  0  0  0
  141.3402   78.6304  220.1364 H   0  0  0  0  0  0  0  0  0  0  0  0
  139.8845   79.6859  220.3622 H   0  0  0  0  0  0  0  0  0  0  0  0
  141.3290   79.8080  221.9180 C   0  0  0  0  0  0  0  0  0  0  0  0
  142.6110   79.4200  222.3420 C   0  0  0  0  0  0  0  0  0  0  0  0
  143.0997   78.5482  221.8825 H   0  0  0  0  0  0  0  0  0  0  0  0
  143.2680   80.1380  223.3460 C   0  0  0  0  0  0  0  0  0  0  0  0
  144.2741   79.8336  223.6703 H   0  0  0  0  0  0  0  0  0  0  0  0
  142.6480   81.2420  223.9380 C   0  0  0  0  0  0  0  0  0  0  0  0
  143.1672   81.8066  224.7264 H   0  0  0  0  0  0  0  0  0  0  0  0
  141.3690   81.6290  223.5290 C   0  0  0  0  0  0  0  0  0  0  0  0
  140.8812   82.4969  223.9968 H   0  0  0  0  0  0  0  0  0  0  0  0
  140.7090   80.9130  222.5250 C   0  0  0  0  0  0  0  0  0  0  0  0
  139.6999   81.2164  222.2092 H   0  0  0  0  0  0  0  0  0  0  0  0
  142.1140   75.1870  221.2320 N   0  0  0  0  0  0  0  0  0  0  0  0
  142.8600   75.8610  220.9770 H   0  0  0  0  0  0  0  0  0  0  0  0
  142.3330   73.8640  220.9650 C   0  0  0  0  0  0  0  0  0  0  0  0
  143.5780   73.4320  220.2810 C   0  0  0  0  0  0  0  0  0  0  0  0
  143.5250   72.6720  219.1000 C   0  0  0  0  0  0  0  0  0  0  0  0
  142.5538   72.3919  218.6660 H   0  0  0  0  0  0  0  0  0  0  0  0
  144.7120   72.2740  218.4800 C   0  0  0  0  0  0  0  0  0  0  0  0
  144.6753   71.6775  217.5565 H   0  0  0  0  0  0  0  0  0  0  0  0
  145.9120   72.6220  219.0150 N   0  0  0  0  0  0  0  0  0  0  0  0
  145.9970   73.3560  220.1550 C   0  0  0  0  0  0  0  0  0  0  0  0
  146.9827   73.6225  220.5640 H   0  0  0  0  0  0  0  0  0  0  0  0
  144.8350   73.7730  220.8090 C   0  0  0  0  0  0  0  0  0  0  0  0
  144.9037   74.3656  221.7332 H   0  0  0  0  0  0  0  0  0  0  0  0
  141.3650   72.9200  221.3370 C   0  0  0  0  0  0  0  0  0  0  0  0
  141.5192   71.8498  221.1348 H   0  0  0  0  0  0  0  0  0  0  0  0
  1  2  1  0
  2  3  1  0
  3  4  2  0
  4  5  1  0
  5  6  2  0
  6  7  1  0
  7  8  1  6
  7  9  1  0
  9 10  1  0
  9 11  1  0
  9 12  1  0
  7 13  1  0
 13 14  1  0
 13 15  1  0
 13 16  1  0
 16 17  2  0
 17 18  1  0
 17 19  1  0
 19 20  1  0
 19 21  2  0
 21 22  1  0
 21 23  1  0
 23 24  1  0
 23 25  2  0
 25 26  1  0
  5 27  1  0
 27 28  1  0
 27 29  1  0
 29 30  1  0
 30 31  2  0
 31 32  1  0
 31 33  1  0
 33 34  1  0
 33 35  2  0
 35 36  1  0
 36 37  1  0
 36 38  2  0
 38 39  1  0
 29 40  2  0
 40 41  1  0
 40  3  1  0
 25 16  1  0
 38 30  1  0
M  END
>  <UniqueID>  (78) 
8

>  <SMILES>  (78) 
C[C@@H](Cc1ccccc1)/N=c1/nc(O)cc(-c2ccncc2)[nH]1

>  <Energy>  (78) 
51.79244657881056

>  <Genealogy>  (78) 
CC(Cc1ccccc1)N=c1nc(O)cc(-c2ccncc2)[nH]1 (tautomer)
C[C@@H](Cc1ccccc1)N=c1nc(O)cc(-c2ccncc2)[nH]1 (chirality)
C[C@@H](Cc1ccccc1)/N=c1/nc(O)cc(-c2ccncc2)[nH]1 (cis-trans isomerization)
C[C@@H](Cc1ccccc1)/N=c1/nc(O)cc(-c2ccncc2)[nH]1 (3D coordinates assigned)
C[C@@H](Cc1ccccc1)/N=c1/nc(O)cc(-c2ccncc2)[nH]1 (optimized conformer: 51.79244657881056 kcal/mol)

>  <smiles>  (78) 
CC(Cc1ccccc1)N=c1[nH]c(-c2ccncc2)cc(=O)[nH]1

>  <score_type>  (78) 
oracle

>  <origin>  (78) 
autodockgpu

>  <m_score__min__energy>  (78) 
-7.6399999999999997

>  <m_primary>  (78) 
energy

>  <meeko>  (78) 
{"free_energy": -7.26, "intermolecular_energy": -9.05, "internal_energy": -0.71, "cluster_size": 7, "cluster_id": 2, "rank_in_cluster": 5}

>  <energy>  (78) 
-7.2

>  <cluster_rmsd>  (78) 
0.94

>  <rmsd>  (78) 
270.29

>  <cluster>  (78) 
2

$$$$
XBCCWEKCHRHPJI-RDLGDYGFNA-N
     RDKit          3D

 41 43  0  0  0  0  0  0  0  0999 V2000
  138.6950   72.6090  223.1320 H   0  0  0  0  0  0  0  0  0  0  0  0
  139.3890   72.3960  222.4250 O   0  0  0  0  0  0  0  0  0  0  0  0
  140.2790   73.3700  221.9810 C   0  0  0  0  0  0  0  0  0  0  0  0
  139.9940   74.6850  222.1580 N   0  0  0  0  0  0  0  0  0  0  0  0
  140.8380   75.6600  221.7340 C   0  0  0  0  0  0  0  0  0  0  0  0
  140.4930   76.9020  221.9380 N   0  0  0  0  0  0  0  0  0  0  0  0
  140.0910   77.9650  221.0030 C   0  0  1  0  0  0  0  0  0  0  0  0
  139.7775   77.4837  220.0649 H   0  0  0  0  0  0  0  0  0  0  0  0
  138.8490   78.7290  221.4920 C   0  0  0  0  0  0  0  0  0  0  0  0
  138.8338   78.7384  222.5919 H   0  0  0  0  0  0  0  0  0  0  0  0
  138.8830   79.7625  221.1169 H   0  0  0  0  0  0  0  0  0  0  0  0
  137.9419   78.2325  221.1169 H   0  0  0  0  0  0  0  0  0  0  0  0
  141.2810   78.8730  220.6210 C   0  0  0  0  0  0  0  0  0  0  0  0
  142.1457   78.2412  220.3697 H   0  0  0  0  0  0  0  0  0  0  0  0
  140.9811   79.4891  219.7605 H   0  0  0  0  0  0  0  0  0  0  0  0
  141.6610   79.7950  221.7510 C   0  0  0  0  0  0  0  0  0  0  0  0
  142.2530   79.2820  222.9180 C   0  0  0  0  0  0  0  0  0  0  0  0
  142.4613   78.2049  222.9991 H   0  0  0  0  0  0  0  0  0  0  0  0
  142.5780   80.1360  223.9760 C   0  0  0  0  0  0  0  0  0  0  0  0
  143.0462   79.7303  224.8850 H   0  0  0  0  0  0  0  0  0  0  0  0
  142.3090   81.5050  223.8810 C   0  0  0  0  0  0  0  0  0  0  0  0
  142.5674   82.1755  224.7139 H   0  0  0  0  0  0  0  0  0  0  0  0
  141.7120   82.0210  222.7280 C   0  0  0  0  0  0  0  0  0  0  0  0
  141.4989   83.0977  222.6545 H   0  0  0  0  0  0  0  0  0  0  0  0
  141.3850   81.1700  221.6670 C   0  0  0  0  0  0  0  0  0  0  0  0
  140.9098   81.5791  220.7632 H   0  0  0  0  0  0  0  0  0  0  0  0
  142.0100   75.3100  221.1180 N   0  0  0  0  0  0  0  0  0  0  0  0
  142.6910   76.0320  220.8150 H   0  0  0  0  0  0  0  0  0  0  0  0
  142.3370   74.0000  220.9140 C   0  0  0  0  0  0  0  0  0  0  0  0
  143.6050   73.6400  220.2280 C   0  0  0  0  0  0  0  0  0  0  0  0
  143.5990   73.1670  218.9050 C   0  0  0  0  0  0  0  0  0  0  0  0
  142.6490   73.0610  218.3607 H   0  0  0  0  0  0  0  0  0  0  0  0
  144.8040   72.8320  218.2840 C   0  0  0  0  0  0  0  0  0  0  0  0
  144.8034   72.4614  217.2483 H   0  0  0  0  0  0  0  0  0  0  0  0
  145.9780   72.9630  218.9570 N   0  0  0  0  0  0  0  0  0  0  0  0
  146.0170   73.4170  220.2370 C   0  0  0  0  0  0  0  0  0  0  0  0
  146.9822   73.5124  220.7559 H   0  0  0  0  0  0  0  0  0  0  0  0
  144.8350   73.7630  220.8960 C   0  0  0  0  0  0  0  0  0  0  0  0
  144.8670   74.1299  221.9325 H   0  0  0  0  0  0  0  0  0  0  0  0
  141.4610   72.9970  221.3530 C   0  0  0  0  0  0  0  0  0  0  0  0
  141.7049   71.9349  221.2030 H   0  0  0  0  0  0  0  0  0  0  0  0
  1  2  1  0
  2  3  1  0
  3  4  2  0
  4  5  1  0
  5  6  2  0
  6  7  1  0
  7  8  1  6
  7  9  1  0
  9 10  1  0
  9 11  1  0
  9 12  1  0
  7 13  1  0
 13 14  1  0
 13 15  1  0
 13 16  1  0
 16 17  2  0
 17 18  1  0
 17 19  1  0
 19 20  1  0
 19 21  2  0
 21 22  1  0
 21 23  1  0
 23 24  1  0
 23 25  2  0
 25 26  1  0
  5 27  1  0
 27 28  1  0
 27 29  1  0
 29 30  1  0
 30 31  2  0
 31 32  1  0
 31 33  1  0
 33 34  1  0
 33 35  2  0
 35 36  1  0
 36 37  1  0
 36 38  2  0
 38 39  1  0
 29 40  2  0
 40 41  1  0
 40  3  1  0
 25 16  1  0
 38 30  1  0
M  END
>  <UniqueID>  (79) 
8

>  <SMILES>  (79) 
C[C@@H](Cc1ccccc1)/N=c1/nc(O)cc(-c2ccncc2)[nH]1

>  <Energy>  (79) 
51.79244657881056

>  <Genealogy>  (79) 
CC(Cc1ccccc1)N=c1nc(O)cc(-c2ccncc2)[nH]1 (tautomer)
C[C@@H](Cc1ccccc1)N=c1nc(O)cc(-c2ccncc2)[nH]1 (chirality)
C[C@@H](Cc1ccccc1)/N=c1/nc(O)cc(-c2ccncc2)[nH]1 (cis-trans isomerization)
C[C@@H](Cc1ccccc1)/N=c1/nc(O)cc(-c2ccncc2)[nH]1 (3D coordinates assigned)
C[C@@H](Cc1ccccc1)/N=c1/nc(O)cc(-c2ccncc2)[nH]1 (optimized conformer: 51.79244657881056 kcal/mol)

>  <smiles>  (79) 
CC(Cc1ccccc1)N=c1[nH]c(-c2ccncc2)cc(=O)[nH]1

>  <score_type>  (79) 
oracle

>  <origin>  (79) 
autodockgpu

>  <m_score__min__energy>  (79) 
-7.6399999999999997

>  <m_primary>  (79) 
energy

>  <meeko>  (79) 
{"free_energy": -7.34, "intermolecular_energy": -9.13, "internal_energy": -0.73, "cluster_size": 7, "cluster_id": 2, "rank_in_cluster": 2}

>  <energy>  (79) 
-7.04

>  <cluster_rmsd>  (79) 
1.67

>  <rmsd>  (79) 
270.16

>  <cluster>  (79) 
2

$$$$
XBCCWEKCHRHPJI-RDLGDYGFNA-N
     RDKit          3D

 41 43  0  0  0  0  0  0  0  0999 V2000
  141.1920   77.1370  221.9860 H   0  0  0  0  0  0  0  0  0  0  0  0
  140.5050   76.4160  221.8020 O   0  0  0  0  0  0  0  0  0  0  0  0
  140.8880   75.0870  221.6470 C   0  0  0  0  0  0  0  0  0  0  0  0
  140.0480   74.0880  222.0160 N   0  0  0  0  0  0  0  0  0  0  0  0
  140.3930   72.7810  221.8800 C   0  0  0  0  0  0  0  0  0  0  0  0
  139.5320   71.8770  222.2600 N   0  0  0  0  0  0  0  0  0  0  0  0
  139.0650   71.4820  223.5980 C   0  0  1  0  0  0  0  0  0  0  0  0
  139.1626   72.3572  224.2572 H   0  0  0  0  0  0  0  0  0  0  0  0
  137.5650   71.1390  223.6120 C   0  0  0  0  0  0  0  0  0  0  0  0
  137.2168   71.0594  224.6524 H   0  0  0  0  0  0  0  0  0  0  0  0
  137.0028   71.9318  223.0968 H   0  0  0  0  0  0  0  0  0  0  0  0
  137.4032   70.1807  223.0968 H   0  0  0  0  0  0  0  0  0  0  0  0
  139.9670   70.3950  224.2230 C   0  0  0  0  0  0  0  0  0  0  0  0
  139.4386   69.4307  224.1907 H   0  0  0  0  0  0  0  0  0  0  0  0
  140.9022   70.3501  223.6456 H   0  0  0  0  0  0  0  0  0  0  0  0
  140.3120   70.7160  225.6550 C   0  0  0  0  0  0  0  0  0  0  0  0
  141.0200   71.8880  225.9700 C   0  0  0  0  0  0  0  0  0  0  0  0
  141.3049   72.5874  225.1702 H   0  0  0  0  0  0  0  0  0  0  0  0
  141.3640   72.1690  227.2960 C   0  0  0  0  0  0  0  0  0  0  0  0
  141.9144   73.0903  227.5375 H   0  0  0  0  0  0  0  0  0  0  0  0
  141.0090   71.2800  228.3150 C   0  0  0  0  0  0  0  0  0  0  0  0
  141.2778   71.5034  229.3580 H   0  0  0  0  0  0  0  0  0  0  0  0
  140.3130   70.1080  228.0090 C   0  0  0  0  0  0  0  0  0  0  0  0
  140.0359   69.4084  228.8113 H   0  0  0  0  0  0  0  0  0  0  0  0
  139.9680   69.8230  226.6840 C   0  0  0  0  0  0  0  0  0  0  0  0
  139.4253   68.8962  226.4464 H   0  0  0  0  0  0  0  0  0  0  0  0
  141.6160   72.4620  221.3540 N   0  0  0  0  0  0  0  0  0  0  0  0
  141.8930   71.4730  221.2070 H   0  0  0  0  0  0  0  0  0  0  0  0
  142.4970   73.4350  220.9730 C   0  0  0  0  0  0  0  0  0  0  0  0
  143.8260   73.0690  220.4210 C   0  0  0  0  0  0  0  0  0  0  0  0
  144.9850   73.7600  220.8140 C   0  0  0  0  0  0  0  0  0  0  0  0
  144.9181   74.5810  221.5431 H   0  0  0  0  0  0  0  0  0  0  0  0
  146.2220   73.4000  220.2750 C   0  0  0  0  0  0  0  0  0  0  0  0
  147.1309   73.9405  220.5777 H   0  0  0  0  0  0  0  0  0  0  0  0
  146.3050   72.3830  219.3770 N   0  0  0  0  0  0  0  0  0  0  0  0
  145.2040   71.6960  218.9760 C   0  0  0  0  0  0  0  0  0  0  0  0
  145.3030   70.8791  218.2461 H   0  0  0  0  0  0  0  0  0  0  0  0
  143.9460   72.0240  219.4880 C   0  0  0  0  0  0  0  0  0  0  0  0
  143.0544   71.4677  219.1630 H   0  0  0  0  0  0  0  0  0  0  0  0
  142.1360   74.7820  221.1160 C   0  0  0  0  0  0  0  0  0  0  0  0
  142.8272   75.5825  220.8137 H   0  0  0  0  0  0  0  0  0  0  0  0
  1  2  1  0
  2  3  1  0
  3  4  2  0
  4  5  1  0
  5  6  2  0
  6  7  1  0
  7  8  1  1
  7  9  1  0
  9 10  1  0
  9 11  1  0
  9 12  1  0
  7 13  1  0
 13 14  1  0
 13 15  1  0
 13 16  1  0
 16 17  2  0
 17 18  1  0
 17 19  1  0
 19 20  1  0
 19 21  2  0
 21 22  1  0
 21 23  1  0
 23 24  1  0
 23 25  2  0
 25 26  1  0
  5 27  1  0
 27 28  1  0
 27 29  1  0
 29 30  1  0
 30 31  2  0
 31 32  1  0
 31 33  1  0
 33 34  1  0
 33 35  2  0
 35 36  1  0
 36 37  1  0
 36 38  2  0
 38 39  1  0
 29 40  2  0
 40 41  1  0
 40  3  1  0
 25 16  1  0
 38 30  1  0
M  END
>  <UniqueID>  (80) 
8

>  <SMILES>  (80) 
C[C@@H](Cc1ccccc1)/N=c1/nc(O)cc(-c2ccncc2)[nH]1

>  <Energy>  (80) 
51.79244657881056

>  <Genealogy>  (80) 
CC(Cc1ccccc1)N=c1nc(O)cc(-c2ccncc2)[nH]1 (tautomer)
C[C@@H](Cc1ccccc1)N=c1nc(O)cc(-c2ccncc2)[nH]1 (chirality)
C[C@@H](Cc1ccccc1)/N=c1/nc(O)cc(-c2ccncc2)[nH]1 (cis-trans isomerization)
C[C@@H](Cc1ccccc1)/N=c1/nc(O)cc(-c2ccncc2)[nH]1 (3D coordinates assigned)
C[C@@H](Cc1ccccc1)/N=c1/nc(O)cc(-c2ccncc2)[nH]1 (optimized conformer: 51.79244657881056 kcal/mol)

>  <smiles>  (80) 
CC(Cc1ccccc1)N=c1[nH]c(-c2ccncc2)cc(=O)[nH]1

>  <score_type>  (80) 
oracle

>  <origin>  (80) 
autodockgpu

>  <m_score__min__energy>  (80) 
-7.6399999999999997

>  <m_primary>  (80) 
energy

>  <meeko>  (80) 
{"free_energy": -7.52, "intermolecular_energy": -9.31, "internal_energy": -0.7, "cluster_size": 12, "cluster_id": 1, "rank_in_cluster": 10}

>  <energy>  (80) 
-6.95

>  <cluster_rmsd>  (80) 
0.0

>  <rmsd>  (80) 
270.22

>  <cluster>  (80) 
3

$$$$
