FPFWJFTVWFQHMH-IEMWKULYNA-P
     RDKit          3D

 68 72  0  0  0  0  0  0  0  0999 V2000
  142.1451   82.3361  223.8104 H   0  0  0  0  0  0  0  0  0  0  0  0
  141.8890   81.2870  223.6010 C   0  0  0  0  0  0  0  0  0  0  0  0
  142.8960   80.3730  223.2780 C   0  0  0  0  0  0  0  0  0  0  0  0
  143.9453   80.7011  223.2423 H   0  0  0  0  0  0  0  0  0  0  0  0
  142.5700   79.0410  223.0000 C   0  0  0  0  0  0  0  0  0  0  0  0
  143.3636   78.3272  222.7340 H   0  0  0  0  0  0  0  0  0  0  0  0
  141.2340   78.6110  223.0590 C   0  0  0  0  0  0  0  0  0  0  0  0
  140.8780   77.1910  222.6990 C   0  0  0  0  0  0  0  0  0  0  0  0
  141.7371   76.7250  222.1943 H   0  0  0  0  0  0  0  0  0  0  0  0
  140.6273   76.6544  223.6259 H   0  0  0  0  0  0  0  0  0  0  0  0
  139.6610   77.1310  221.7670 C   0  0  0  0  0  0  0  0  0  0  0  0
  138.8919   77.8273  222.1327 H   0  0  0  0  0  0  0  0  0  0  0  0
  139.9796   77.4114  220.7522 H   0  0  0  0  0  0  0  0  0  0  0  0
  139.1020   75.7740  221.7270 N   0  0  0  0  0  0  0  0  0  0  0  0
  138.0600   75.6990  221.7090 H   0  0  0  0  0  0  0  0  0  0  0  0
  139.8210   74.6880  221.6290 C   0  0  0  0  0  0  0  0  0  0  0  0
  139.6220   73.6450  222.4800 N   0  0  0  0  0  0  0  0  0  0  0  0
  140.3890   72.5280  222.4070 C   0  0  0  0  0  0  0  0  0  0  0  0
  140.1770   71.4230  223.3110 N   0  0  0  0  0  0  0  0  0  0  0  0
  140.7750   71.4930  224.6570 C   0  0  0  0  0  0  0  0  0  0  0  0
  140.4665   72.4392  225.1256 H   0  0  0  0  0  0  0  0  0  0  0  0
  141.8654   71.4249  224.5290 H   0  0  0  0  0  0  0  0  0  0  0  0
  140.3640   70.3560  225.5620 C   0  0  0  0  0  0  0  0  0  0  0  0
  140.9980   70.2140  226.8080 C   0  0  0  0  0  0  0  0  0  0  0  0
  141.8017   70.9084  227.0942 H   0  0  0  0  0  0  0  0  0  0  0  0
  140.6150   69.1980  227.6850 C   0  0  0  0  0  0  0  0  0  0  0  0
  141.1224   69.0888  228.6548 H   0  0  0  0  0  0  0  0  0  0  0  0
  139.5880   68.3200  227.3320 C   0  0  0  0  0  0  0  0  0  0  0  0
  139.2855   67.5216  228.0256 H   0  0  0  0  0  0  0  0  0  0  0  0
  138.9440   68.4540  226.0990 C   0  0  0  0  0  0  0  0  0  0  0  0
  138.1271   67.7682  225.8301 H   0  0  0  0  0  0  0  0  0  0  0  0
  139.3360   69.4610  225.2020 C   0  0  0  0  0  0  0  0  0  0  0  0
  138.6210   69.6210  223.8920 C   0  0  0  0  0  0  0  0  0  0  0  0
  137.7791   70.3172  224.0204 H   0  0  0  0  0  0  0  0  0  0  0  0
  138.2501   68.6388  223.5637 H   0  0  0  0  0  0  0  0  0  0  0  0
  139.5720   70.1710  222.8360 C   0  0  0  0  0  0  0  0  0  0  0  0
  139.0140   70.3647  221.9081 H   0  0  0  0  0  0  0  0  0  0  0  0
  140.3665   69.4345  222.6454 H   0  0  0  0  0  0  0  0  0  0  0  0
  141.3690   72.4620  221.4710 N   0  0  0  0  0  0  0  0  0  0  0  0
  141.5740   73.4810  220.5970 C   0  0  0  0  0  0  0  0  0  0  0  0
  142.6650   73.4280  219.6490 N   0  0  0  0  0  0  0  0  0  0  0  0
  142.8200   72.4290  219.3780 H   0  0  0  0  0  0  0  0  0  0  0  0
  142.3860   73.9520  218.7860 H   0  0  0  0  0  0  0  0  0  0  0  0
  143.9350   73.9460  220.1980 C   0  0  0  0  0  0  0  0  0  0  0  0
  143.9995   73.6734  221.2617 H   0  0  0  0  0  0  0  0  0  0  0  0
  144.7603   73.5014  219.6225 H   0  0  0  0  0  0  0  0  0  0  0  0
  144.0370   75.4790  220.0700 C   0  0  0  0  0  0  0  0  0  0  0  0
  144.0128   75.9253  221.0751 H   0  0  0  0  0  0  0  0  0  0  0  0
  144.9800   75.7237  219.5593 H   0  0  0  0  0  0  0  0  0  0  0  0
  142.9180   76.0250  219.2730 N   0  0  0  0  0  0  0  0  0  0  0  0
  142.4290   77.3000  219.8270 C   0  0  0  0  0  0  0  0  0  0  0  0
  141.4665   77.1407  220.3351 H   0  0  0  0  0  0  0  0  0  0  0  0
  143.1493   77.6990  220.5564 H   0  0  0  0  0  0  0  0  0  0  0  0
  142.2480   78.2810  218.6740 C   0  0  0  0  0  0  0  0  0  0  0  0
  141.2355   78.7107  218.6891 H   0  0  0  0  0  0  0  0  0  0  0  0
  142.9524   79.1234  218.7381 H   0  0  0  0  0  0  0  0  0  0  0  0
  142.4580   77.4660  217.4200 C   0  0  0  0  0  0  0  0  0  0  0  0
  141.4963   77.1214  217.0120 H   0  0  0  0  0  0  0  0  0  0  0  0
  142.9402   78.0420  216.6164 H   0  0  0  0  0  0  0  0  0  0  0  0
  143.2970   76.2950  217.8810 C   0  0  0  0  0  0  0  0  0  0  0  0
  143.0936   75.4135  217.2552 H   0  0  0  0  0  0  0  0  0  0  0  0
  144.3703   76.5220  217.8007 H   0  0  0  0  0  0  0  0  0  0  0  0
  140.8030   74.6000  220.6870 N   0  0  0  0  0  0  0  0  0  0  0  0
  140.9820   75.4020  220.0400 H   0  0  0  0  0  0  0  0  0  0  0  0
  140.2290   79.5340  223.3940 C   0  0  0  0  0  0  0  0  0  0  0  0
  139.1805   79.2060  223.4489 H   0  0  0  0  0  0  0  0  0  0  0  0
  140.5560   80.8680  223.6580 C   0  0  0  0  0  0  0  0  0  0  0  0
  139.7639   81.5883  223.9107 H   0  0  0  0  0  0  0  0  0  0  0  0
  1  2  1  0
  2  3  2  0
  3  4  1  0
  3  5  1  0
  5  6  1  0
  5  7  2  0
  7  8  1  0
  8  9  1  0
  8 10  1  0
  8 11  1  0
 11 12  1  0
 11 13  1  0
 11 14  1  0
 14 15  1  0
 14 16  2  0
 16 17  1  0
 17 18  2  0
 18 19  1  0
 19 20  1  0
 20 21  1  0
 20 22  1  0
 20 23  1  0
 23 24  2  0
 24 25  1  0
 24 26  1  0
 26 27  1  0
 26 28  2  0
 28 29  1  0
 28 30  1  0
 30 31  1  0
 30 32  2  0
 32 33  1  0
 33 34  1  0
 33 35  1  0
 33 36  1  0
 36 37  1  0
 36 38  1  0
 18 39  1  0
 39 40  2  0
 40 41  1  0
 41 42  1  0
 41 43  1  0
 41 44  1  0
 44 45  1  0
 44 46  1  0
 44 47  1  0
 47 48  1  0
 47 49  1  0
 47 50  1  0
 50 51  1  0
 51 52  1  0
 51 53  1  0
 51 54  1  0
 54 55  1  0
 54 56  1  0
 54 57  1  0
 57 58  1  0
 57 59  1  0
 57 60  1  0
 60 61  1  0
 60 62  1  0
 40 63  1  0
 63 64  1  0
  7 65  1  0
 65 66  1  0
 65 67  2  0
 67 68  1  0
 67  2  1  0
 63 16  1  0
 36 19  1  0
 60 50  1  0
 32 23  1  0
M  CHG  2  14   1  41   1
M  END
>  <UniqueID>  (1) 
668

>  <SMILES>  (1) 
c1ccc(CC/[NH+]=c2\nc(N3CCc4ccccc4C3)nc([NH2+]CCN3CCCC3)[nH]2)cc1

>  <Energy>  (1) 
71.50899235349316

>  <Genealogy>  (1) 
c1ccc(CC[NH2+]c2nc([NH2+]CCN3CCCC3)nc(N3CCc4ccccc4C3)n2)cc1 (protonated)
c1ccc(CC[NH+]=c2nc(N3CCc4ccccc4C3)nc([NH2+]CCN3CCCC3)[nH]2)cc1 (tautomer)
c1ccc(CC/[NH+]=c2\nc(N3CCc4ccccc4C3)nc([NH2+]CCN3CCCC3)[nH]2)cc1 (cis-trans isomerization)
c1ccc(CC/[NH+]=c2\nc(N3CCc4ccccc4C3)nc([NH2+]CCN3CCCC3)[nH]2)cc1 (3D coordinates assigned)
c1ccc(CC/[NH+]=c2\nc(N3CCc4ccccc4C3)nc([NH2+]CCN3CCCC3)[nH]2)cc1 (nonaromatic ring conformer: 71.50899235349316 kcal/mol)

>  <smiles>  (1) 
c1ccc(CCNc2nc(NCCN3CCCC3)nc(N3CCc4ccccc4C3)n2)cc1

>  <score_type>  (1) 
oracle

>  <origin>  (1) 
autodockgpu

>  <m_score__min__energy>  (1) 
-9.5

>  <m_primary>  (1) 
energy

>  <meeko>  (1) 
{"free_energy": -8.68, "intermolecular_energy": -11.36, "internal_energy": -1.92, "cluster_size": 12, "cluster_id": 1, "rank_in_cluster": 6}

>  <energy>  (1) 
-9.5

>  <cluster_rmsd>  (1) 
0.0

>  <rmsd>  (1) 
272.03

>  <cluster>  (1) 
1

$$$$
FPFWJFTVWFQHMH-IEMWKULYNA-P
     RDKit          3D

 68 72  0  0  0  0  0  0  0  0999 V2000
  146.4739   74.3516  221.7097 H   0  0  0  0  0  0  0  0  0  0  0  0
  145.7470   73.9710  220.9770 C   0  0  0  0  0  0  0  0  0  0  0  0
  145.8280   72.6480  220.5350 C   0  0  0  0  0  0  0  0  0  0  0  0
  146.6127   71.9847  220.9279 H   0  0  0  0  0  0  0  0  0  0  0  0
  144.9130   72.1660  219.5940 C   0  0  0  0  0  0  0  0  0  0  0  0
  144.9891   71.1277  219.2387 H   0  0  0  0  0  0  0  0  0  0  0  0
  143.8970   73.0010  219.1000 C   0  0  0  0  0  0  0  0  0  0  0  0
  142.9490   72.4990  218.0410 C   0  0  0  0  0  0  0  0  0  0  0  0
  142.3549   73.3448  217.6646 H   0  0  0  0  0  0  0  0  0  0  0  0
  143.5447   72.0456  217.2350 H   0  0  0  0  0  0  0  0  0  0  0  0
  141.9980   71.4300  218.5910 C   0  0  0  0  0  0  0  0  0  0  0  0
  141.8625   70.6437  217.8338 H   0  0  0  0  0  0  0  0  0  0  0  0
  142.4348   71.0072  219.5077 H   0  0  0  0  0  0  0  0  0  0  0  0
  140.6910   72.0140  218.9180 N   0  0  0  0  0  0  0  0  0  0  0  0
  139.9120   71.8190  218.2510 H   0  0  0  0  0  0  0  0  0  0  0  0
  140.4390   72.6750  220.0170 C   0  0  0  0  0  0  0  0  0  0  0  0
  140.6940   74.0090  220.0970 N   0  0  0  0  0  0  0  0  0  0  0  0
  140.4680   74.6950  221.2470 C   0  0  0  0  0  0  0  0  0  0  0  0
  140.7410   76.1100  221.3310 N   0  0  0  0  0  0  0  0  0  0  0  0
  140.8240   76.7310  222.6660 C   0  0  0  0  0  0  0  0  0  0  0  0
  141.5472   76.1627  223.2694 H   0  0  0  0  0  0  0  0  0  0  0  0
  139.8115   76.7088  223.0953 H   0  0  0  0  0  0  0  0  0  0  0  0
  141.2600   78.1770  222.6350 C   0  0  0  0  0  0  0  0  0  0  0  0
  141.2110   78.9270  223.8220 C   0  0  0  0  0  0  0  0  0  0  0  0
  140.8301   78.4655  224.7450 H   0  0  0  0  0  0  0  0  0  0  0  0
  141.6430   80.2550  223.8370 C   0  0  0  0  0  0  0  0  0  0  0  0
  141.5925   80.8390  224.7678 H   0  0  0  0  0  0  0  0  0  0  0  0
  142.1390   80.8420  222.6710 C   0  0  0  0  0  0  0  0  0  0  0  0
  142.4831   81.8867  222.6857 H   0  0  0  0  0  0  0  0  0  0  0  0
  142.1990   80.1040  221.4850 C   0  0  0  0  0  0  0  0  0  0  0  0
  142.6010   80.5664  220.5715 H   0  0  0  0  0  0  0  0  0  0  0  0
  141.7480   78.7750  221.4560 C   0  0  0  0  0  0  0  0  0  0  0  0
  141.8430   77.9770  220.1880 C   0  0  0  0  0  0  0  0  0  0  0  0
  142.8120   77.4572  220.1578 H   0  0  0  0  0  0  0  0  0  0  0  0
  141.7545   78.6577  219.3285 H   0  0  0  0  0  0  0  0  0  0  0  0
  140.7190   76.9500  220.1260 C   0  0  0  0  0  0  0  0  0  0  0  0
  140.8531   76.3160  219.2371 H   0  0  0  0  0  0  0  0  0  0  0  0
  139.7534   77.4736  220.0676 H   0  0  0  0  0  0  0  0  0  0  0  0
  139.9850   74.0300  222.3260 N   0  0  0  0  0  0  0  0  0  0  0  0
  139.7020   72.7030  222.2640 C   0  0  0  0  0  0  0  0  0  0  0  0
  139.2510   71.9920  223.4400 N   0  0  0  0  0  0  0  0  0  0  0  0
  139.7620   72.3700  224.2720 H   0  0  0  0  0  0  0  0  0  0  0  0
  138.2320   72.1850  223.5790 H   0  0  0  0  0  0  0  0  0  0  0  0
  139.5120   70.5400  223.3750 C   0  0  0  0  0  0  0  0  0  0  0  0
  138.5500   70.0075  223.3437 H   0  0  0  0  0  0  0  0  0  0  0  0
  140.1064   70.3421  222.4708 H   0  0  0  0  0  0  0  0  0  0  0  0
  140.3170   70.0420  224.5920 C   0  0  0  0  0  0  0  0  0  0  0  0
  140.0543   68.9926  224.7912 H   0  0  0  0  0  0  0  0  0  0  0  0
  141.3889   70.1362  224.3635 H   0  0  0  0  0  0  0  0  0  0  0  0
  140.0210   70.8500  225.7940 N   0  0  0  0  0  0  0  0  0  0  0  0
  139.7540   69.9980  226.9670 C   0  0  0  0  0  0  0  0  0  0  0  0
  138.6767   69.9974  227.1895 H   0  0  0  0  0  0  0  0  0  0  0  0
  140.0717   68.9642  226.7663 H   0  0  0  0  0  0  0  0  0  0  0  0
  140.5260   70.5660  228.1530 C   0  0  0  0  0  0  0  0  0  0  0  0
  139.8547   70.7227  229.0102 H   0  0  0  0  0  0  0  0  0  0  0  0
  141.3195   69.8831  228.4906 H   0  0  0  0  0  0  0  0  0  0  0  0
  141.0850   71.8840  227.6710 C   0  0  0  0  0  0  0  0  0  0  0  0
  140.4265   72.7167  227.9591 H   0  0  0  0  0  0  0  0  0  0  0  0
  142.0697   72.1105  228.1059 H   0  0  0  0  0  0  0  0  0  0  0  0
  141.1340   71.7330  226.1670 C   0  0  0  0  0  0  0  0  0  0  0  0
  141.0176   72.7142  225.6837 H   0  0  0  0  0  0  0  0  0  0  0  0
  142.0976   71.3128  225.8431 H   0  0  0  0  0  0  0  0  0  0  0  0
  139.9420   72.0250  221.1080 N   0  0  0  0  0  0  0  0  0  0  0  0
  139.7610   70.9960  221.0680 H   0  0  0  0  0  0  0  0  0  0  0  0
  143.8160   74.3290  219.5570 C   0  0  0  0  0  0  0  0  0  0  0  0
  143.0217   74.9906  219.1809 H   0  0  0  0  0  0  0  0  0  0  0  0
  144.7420   74.8110  220.4880 C   0  0  0  0  0  0  0  0  0  0  0  0
  144.6794   75.8526  220.8360 H   0  0  0  0  0  0  0  0  0  0  0  0
  1  2  1  0
  2  3  2  0
  3  4  1  0
  3  5  1  0
  5  6  1  0
  5  7  2  0
  7  8  1  0
  8  9  1  0
  8 10  1  0
  8 11  1  0
 11 12  1  0
 11 13  1  0
 11 14  1  0
 14 15  1  0
 14 16  2  0
 16 17  1  0
 17 18  2  0
 18 19  1  0
 19 20  1  0
 20 21  1  0
 20 22  1  0
 20 23  1  0
 23 24  2  0
 24 25  1  0
 24 26  1  0
 26 27  1  0
 26 28  2  0
 28 29  1  0
 28 30  1  0
 30 31  1  0
 30 32  2  0
 32 33  1  0
 33 34  1  0
 33 35  1  0
 33 36  1  0
 36 37  1  0
 36 38  1  0
 18 39  1  0
 39 40  2  0
 40 41  1  0
 41 42  1  0
 41 43  1  0
 41 44  1  0
 44 45  1  0
 44 46  1  0
 44 47  1  0
 47 48  1  0
 47 49  1  0
 47 50  1  0
 50 51  1  0
 51 52  1  0
 51 53  1  0
 51 54  1  0
 54 55  1  0
 54 56  1  0
 54 57  1  0
 57 58  1  0
 57 59  1  0
 57 60  1  0
 60 61  1  0
 60 62  1  0
 40 63  1  0
 63 64  1  0
  7 65  1  0
 65 66  1  0
 65 67  2  0
 67 68  1  0
 67  2  1  0
 63 16  1  0
 36 19  1  0
 60 50  1  0
 32 23  1  0
M  CHG  2  14   1  41   1
M  END
>  <UniqueID>  (2) 
668

>  <SMILES>  (2) 
c1ccc(CC/[NH+]=c2\nc(N3CCc4ccccc4C3)nc([NH2+]CCN3CCCC3)[nH]2)cc1

>  <Energy>  (2) 
71.50899235349316

>  <Genealogy>  (2) 
c1ccc(CC[NH2+]c2nc([NH2+]CCN3CCCC3)nc(N3CCc4ccccc4C3)n2)cc1 (protonated)
c1ccc(CC[NH+]=c2nc(N3CCc4ccccc4C3)nc([NH2+]CCN3CCCC3)[nH]2)cc1 (tautomer)
c1ccc(CC/[NH+]=c2\nc(N3CCc4ccccc4C3)nc([NH2+]CCN3CCCC3)[nH]2)cc1 (cis-trans isomerization)
c1ccc(CC/[NH+]=c2\nc(N3CCc4ccccc4C3)nc([NH2+]CCN3CCCC3)[nH]2)cc1 (3D coordinates assigned)
c1ccc(CC/[NH+]=c2\nc(N3CCc4ccccc4C3)nc([NH2+]CCN3CCCC3)[nH]2)cc1 (nonaromatic ring conformer: 71.50899235349316 kcal/mol)

>  <smiles>  (2) 
c1ccc(CCNc2nc(NCCN3CCCC3)nc(N3CCc4ccccc4C3)n2)cc1

>  <score_type>  (2) 
oracle

>  <origin>  (2) 
autodockgpu

>  <m_score__min__energy>  (2) 
-9.5

>  <m_primary>  (2) 
energy

>  <meeko>  (2) 
{"free_energy": -8.85, "intermolecular_energy": -11.54, "internal_energy": -1.23, "cluster_size": 3, "cluster_id": 2, "rank_in_cluster": 3}

>  <energy>  (2) 
-9.43

>  <cluster_rmsd>  (2) 
1.02

>  <rmsd>  (2) 
271.79

>  <cluster>  (2) 
1

$$$$
FPFWJFTVWFQHMH-IEMWKULYNA-P
     RDKit          3D

 68 72  0  0  0  0  0  0  0  0999 V2000
  146.5913   74.4693  221.6667 H   0  0  0  0  0  0  0  0  0  0  0  0
  145.8640   74.0690  220.9450 C   0  0  0  0  0  0  0  0  0  0  0  0
  145.9580   72.7400  220.5220 C   0  0  0  0  0  0  0  0  0  0  0  0
  146.7543   72.0927  220.9180 H   0  0  0  0  0  0  0  0  0  0  0  0
  145.0410   72.2320  219.5960 C   0  0  0  0  0  0  0  0  0  0  0  0
  145.1261   71.1892  219.2564 H   0  0  0  0  0  0  0  0  0  0  0  0
  144.0120   73.0480  219.0980 C   0  0  0  0  0  0  0  0  0  0  0  0
  143.0620   72.5190  218.0540 C   0  0  0  0  0  0  0  0  0  0  0  0
  142.4652   73.3544  217.6591 H   0  0  0  0  0  0  0  0  0  0  0  0
  143.6562   72.0476  217.2573 H   0  0  0  0  0  0  0  0  0  0  0  0
  142.1140   71.4610  218.6330 C   0  0  0  0  0  0  0  0  0  0  0  0
  142.0086   70.6374  217.9115 H   0  0  0  0  0  0  0  0  0  0  0  0
  142.5352   71.0894  219.5788 H   0  0  0  0  0  0  0  0  0  0  0  0
  140.7920   72.0380  218.9010 N   0  0  0  0  0  0  0  0  0  0  0  0
  140.0400   71.8280  218.2070 H   0  0  0  0  0  0  0  0  0  0  0  0
  140.4920   72.7100  219.9810 C   0  0  0  0  0  0  0  0  0  0  0  0
  140.7450   74.0460  220.0590 N   0  0  0  0  0  0  0  0  0  0  0  0
  140.4680   74.7430  221.1900 C   0  0  0  0  0  0  0  0  0  0  0  0
  140.7390   76.1590  221.2720 N   0  0  0  0  0  0  0  0  0  0  0  0
  140.8660   76.7740  222.6060 C   0  0  0  0  0  0  0  0  0  0  0  0
  141.6118   76.2057  223.1812 H   0  0  0  0  0  0  0  0  0  0  0  0
  139.8690   76.7459  223.0700 H   0  0  0  0  0  0  0  0  0  0  0  0
  141.2950   78.2210  222.5670 C   0  0  0  0  0  0  0  0  0  0  0  0
  141.2850   78.9660  223.7590 C   0  0  0  0  0  0  0  0  0  0  0  0
  140.9377   78.4989  224.6924 H   0  0  0  0  0  0  0  0  0  0  0  0
  141.7130   80.2950  223.7660 C   0  0  0  0  0  0  0  0  0  0  0  0
  141.6932   80.8741  224.7010 H   0  0  0  0  0  0  0  0  0  0  0  0
  142.1660   80.8890  222.5870 C   0  0  0  0  0  0  0  0  0  0  0  0
  142.5065   81.9349  222.5952 H   0  0  0  0  0  0  0  0  0  0  0  0
  142.1880   80.1580  221.3960 C   0  0  0  0  0  0  0  0  0  0  0  0
  142.5568   80.6269  220.4718 H   0  0  0  0  0  0  0  0  0  0  0  0
  141.7410   78.8270  221.3750 C   0  0  0  0  0  0  0  0  0  0  0  0
  141.7960   78.0360  220.1010 C   0  0  0  0  0  0  0  0  0  0  0  0
  142.7651   77.5196  220.0356 H   0  0  0  0  0  0  0  0  0  0  0  0
  141.6767   78.7205  219.2482 H   0  0  0  0  0  0  0  0  0  0  0  0
  140.6730   77.0050  220.0720 C   0  0  0  0  0  0  0  0  0  0  0  0
  140.7787   76.3758  219.1760 H   0  0  0  0  0  0  0  0  0  0  0  0
  139.7042   77.5255  220.0489 H   0  0  0  0  0  0  0  0  0  0  0  0
  139.9370   74.0900  222.2530 N   0  0  0  0  0  0  0  0  0  0  0  0
  139.6550   72.7630  222.1930 C   0  0  0  0  0  0  0  0  0  0  0  0
  139.1520   72.0650  223.3550 N   0  0  0  0  0  0  0  0  0  0  0  0
  139.6430   72.4340  224.2020 H   0  0  0  0  0  0  0  0  0  0  0  0
  138.1320   72.2790  223.4600 H   0  0  0  0  0  0  0  0  0  0  0  0
  139.3850   70.6070  223.3010 C   0  0  0  0  0  0  0  0  0  0  0  0
  138.4137   70.0911  223.3225 H   0  0  0  0  0  0  0  0  0  0  0  0
  139.9332   70.3846  222.3736 H   0  0  0  0  0  0  0  0  0  0  0  0
  140.2370   70.1140  224.4880 C   0  0  0  0  0  0  0  0  0  0  0  0
  140.0022   69.0574  224.6839 H   0  0  0  0  0  0  0  0  0  0  0  0
  141.2991   70.2334  224.2279 H   0  0  0  0  0  0  0  0  0  0  0  0
  139.9620   70.9030  225.7070 N   0  0  0  0  0  0  0  0  0  0  0  0
  139.7410   70.0330  226.8770 C   0  0  0  0  0  0  0  0  0  0  0  0
  138.6705   70.0120  227.1290 H   0  0  0  0  0  0  0  0  0  0  0  0
  140.0693   69.0067  226.6559 H   0  0  0  0  0  0  0  0  0  0  0  0
  140.5360   70.6010  228.0470 C   0  0  0  0  0  0  0  0  0  0  0  0
  139.8864   70.7365  228.9243 H   0  0  0  0  0  0  0  0  0  0  0  0
  141.3502   69.9280  228.3539 H   0  0  0  0  0  0  0  0  0  0  0  0
  141.0590   71.9330  227.5660 C   0  0  0  0  0  0  0  0  0  0  0  0
  140.3948   72.7510  227.8818 H   0  0  0  0  0  0  0  0  0  0  0  0
  142.0513   72.1714  227.9765 H   0  0  0  0  0  0  0  0  0  0  0  0
  141.0690   71.8000  226.0600 C   0  0  0  0  0  0  0  0  0  0  0  0
  140.9229   72.7846  225.5918 H   0  0  0  0  0  0  0  0  0  0  0  0
  142.0302   71.3999  225.7051 H   0  0  0  0  0  0  0  0  0  0  0  0
  139.9460   72.0730  221.0550 N   0  0  0  0  0  0  0  0  0  0  0  0
  139.7650   71.0440  221.0180 H   0  0  0  0  0  0  0  0  0  0  0  0
  143.9190   74.3820  219.5350 C   0  0  0  0  0  0  0  0  0  0  0  0
  143.1143   75.0285  219.1548 H   0  0  0  0  0  0  0  0  0  0  0  0
  144.8460   74.8890  220.4510 C   0  0  0  0  0  0  0  0  0  0  0  0
  144.7737   75.9351  220.7833 H   0  0  0  0  0  0  0  0  0  0  0  0
  1  2  1  0
  2  3  2  0
  3  4  1  0
  3  5  1  0
  5  6  1  0
  5  7  2  0
  7  8  1  0
  8  9  1  0
  8 10  1  0
  8 11  1  0
 11 12  1  0
 11 13  1  0
 11 14  1  0
 14 15  1  0
 14 16  2  0
 16 17  1  0
 17 18  2  0
 18 19  1  0
 19 20  1  0
 20 21  1  0
 20 22  1  0
 20 23  1  0
 23 24  2  0
 24 25  1  0
 24 26  1  0
 26 27  1  0
 26 28  2  0
 28 29  1  0
 28 30  1  0
 30 31  1  0
 30 32  2  0
 32 33  1  0
 33 34  1  0
 33 35  1  0
 33 36  1  0
 36 37  1  0
 36 38  1  0
 18 39  1  0
 39 40  2  0
 40 41  1  0
 41 42  1  0
 41 43  1  0
 41 44  1  0
 44 45  1  0
 44 46  1  0
 44 47  1  0
 47 48  1  0
 47 49  1  0
 47 50  1  0
 50 51  1  0
 51 52  1  0
 51 53  1  0
 51 54  1  0
 54 55  1  0
 54 56  1  0
 54 57  1  0
 57 58  1  0
 57 59  1  0
 57 60  1  0
 60 61  1  0
 60 62  1  0
 40 63  1  0
 63 64  1  0
  7 65  1  0
 65 66  1  0
 65 67  2  0
 67 68  1  0
 67  2  1  0
 63 16  1  0
 36 19  1  0
 60 50  1  0
 32 23  1  0
M  CHG  2  14   1  41   1
M  END
>  <UniqueID>  (3) 
668

>  <SMILES>  (3) 
c1ccc(CC/[NH+]=c2\nc(N3CCc4ccccc4C3)nc([NH2+]CCN3CCCC3)[nH]2)cc1

>  <Energy>  (3) 
71.50899235349316

>  <Genealogy>  (3) 
c1ccc(CC[NH2+]c2nc([NH2+]CCN3CCCC3)nc(N3CCc4ccccc4C3)n2)cc1 (protonated)
c1ccc(CC[NH+]=c2nc(N3CCc4ccccc4C3)nc([NH2+]CCN3CCCC3)[nH]2)cc1 (tautomer)
c1ccc(CC/[NH+]=c2\nc(N3CCc4ccccc4C3)nc([NH2+]CCN3CCCC3)[nH]2)cc1 (cis-trans isomerization)
c1ccc(CC/[NH+]=c2\nc(N3CCc4ccccc4C3)nc([NH2+]CCN3CCCC3)[nH]2)cc1 (3D coordinates assigned)
c1ccc(CC/[NH+]=c2\nc(N3CCc4ccccc4C3)nc([NH2+]CCN3CCCC3)[nH]2)cc1 (nonaromatic ring conformer: 71.50899235349316 kcal/mol)

>  <smiles>  (3) 
c1ccc(CCNc2nc(NCCN3CCCC3)nc(N3CCc4ccccc4C3)n2)cc1

>  <score_type>  (3) 
oracle

>  <origin>  (3) 
autodockgpu

>  <m_score__min__energy>  (3) 
-9.5

>  <m_primary>  (3) 
energy

>  <meeko>  (3) 
{"free_energy": -8.9, "intermolecular_energy": -11.59, "internal_energy": -1.19, "cluster_size": 3, "cluster_id": 2, "rank_in_cluster": 2}

>  <energy>  (3) 
-9.35

>  <cluster_rmsd>  (3) 
0.97

>  <rmsd>  (3) 
271.83

>  <cluster>  (3) 
1

$$$$
FPFWJFTVWFQHMH-IEMWKULYNA-P
     RDKit          3D

 68 72  0  0  0  0  0  0  0  0999 V2000
  142.5017   82.1425  222.9882 H   0  0  0  0  0  0  0  0  0  0  0  0
  142.1590   81.1010  222.9000 C   0  0  0  0  0  0  0  0  0  0  0  0
  142.3200   80.2190  223.9720 C   0  0  0  0  0  0  0  0  0  0  0  0
  142.7810   80.5698  224.9071 H   0  0  0  0  0  0  0  0  0  0  0  0
  141.8960   78.8910  223.8580 C   0  0  0  0  0  0  0  0  0  0  0  0
  142.0371   78.1969  224.6996 H   0  0  0  0  0  0  0  0  0  0  0  0
  141.2910   78.4400  222.6740 C   0  0  0  0  0  0  0  0  0  0  0  0
  140.8910   76.9930  222.5290 C   0  0  0  0  0  0  0  0  0  0  0  0
  141.4106   76.5648  221.6591 H   0  0  0  0  0  0  0  0  0  0  0  0
  141.1699   76.4655  223.4531 H   0  0  0  0  0  0  0  0  0  0  0  0
  139.3780   76.8410  222.3290 C   0  0  0  0  0  0  0  0  0  0  0  0
  138.8920   76.7454  223.3111 H   0  0  0  0  0  0  0  0  0  0  0  0
  139.0006   77.7289  221.8006 H   0  0  0  0  0  0  0  0  0  0  0  0
  139.0770   75.6510  221.5250 N   0  0  0  0  0  0  0  0  0  0  0  0
  138.2600   75.7190  220.8760 H   0  0  0  0  0  0  0  0  0  0  0  0
  139.8100   74.5690  221.5140 C   0  0  0  0  0  0  0  0  0  0  0  0
  139.6100   73.5870  222.4350 N   0  0  0  0  0  0  0  0  0  0  0  0
  140.3910   72.4770  222.4530 C   0  0  0  0  0  0  0  0  0  0  0  0
  140.1780   71.4380  223.4320 N   0  0  0  0  0  0  0  0  0  0  0  0
  140.7740   71.6010  224.7700 C   0  0  0  0  0  0  0  0  0  0  0  0
  140.4648   72.5774  225.1714 H   0  0  0  0  0  0  0  0  0  0  0  0
  141.8645   71.5238  224.6478 H   0  0  0  0  0  0  0  0  0  0  0  0
  140.3630   70.5300  225.7520 C   0  0  0  0  0  0  0  0  0  0  0  0
  140.9950   70.4760  227.0050 C   0  0  0  0  0  0  0  0  0  0  0  0
  141.7976   71.1896  227.2429 H   0  0  0  0  0  0  0  0  0  0  0  0
  140.6120   69.5230  227.9510 C   0  0  0  0  0  0  0  0  0  0  0  0
  141.1183   69.4820  228.9267 H   0  0  0  0  0  0  0  0  0  0  0  0
  139.5860   68.6220  227.6580 C   0  0  0  0  0  0  0  0  0  0  0  0
  139.2823   67.8743  228.4055 H   0  0  0  0  0  0  0  0  0  0  0  0
  138.9440   68.6680  226.4170 C   0  0  0  0  0  0  0  0  0  0  0  0
  138.1290   67.9634  226.1949 H   0  0  0  0  0  0  0  0  0  0  0  0
  139.3360   69.6100  225.4540 C   0  0  0  0  0  0  0  0  0  0  0  0
  138.6230   69.6780  224.1350 C   0  0  0  0  0  0  0  0  0  0  0  0
  137.7806   70.3810  224.2134 H   0  0  0  0  0  0  0  0  0  0  0  0
  138.2531   68.6751  223.8753 H   0  0  0  0  0  0  0  0  0  0  0  0
  139.5760   70.1540  223.0440 C   0  0  0  0  0  0  0  0  0  0  0  0
  139.0198   70.2811  222.1036 H   0  0  0  0  0  0  0  0  0  0  0  0
  140.3719   69.4072  222.9067 H   0  0  0  0  0  0  0  0  0  0  0  0
  141.3840   72.3560  221.5370 N   0  0  0  0  0  0  0  0  0  0  0  0
  141.5900   73.3120  220.5940 C   0  0  0  0  0  0  0  0  0  0  0  0
  142.6940   73.2040  219.6670 N   0  0  0  0  0  0  0  0  0  0  0  0
  142.8340   72.1930  219.4350 H   0  0  0  0  0  0  0  0  0  0  0  0
  142.4390   73.7010  218.7820 H   0  0  0  0  0  0  0  0  0  0  0  0
  143.9650   73.7170  220.2170 C   0  0  0  0  0  0  0  0  0  0  0  0
  144.0279   73.4434  221.2806 H   0  0  0  0  0  0  0  0  0  0  0  0
  144.7893   73.2700  219.6419 H   0  0  0  0  0  0  0  0  0  0  0  0
  144.0720   75.2510  220.0900 C   0  0  0  0  0  0  0  0  0  0  0  0
  144.0214   75.6986  221.0935 H   0  0  0  0  0  0  0  0  0  0  0  0
  145.0286   75.4947  219.6047 H   0  0  0  0  0  0  0  0  0  0  0  0
  142.9750   75.7960  219.2630 N   0  0  0  0  0  0  0  0  0  0  0  0
  142.5640   77.1350  219.7210 C   0  0  0  0  0  0  0  0  0  0  0  0
  141.6002   77.0691  220.2471 H   0  0  0  0  0  0  0  0  0  0  0  0
  143.3140   77.5473  220.4120 H   0  0  0  0  0  0  0  0  0  0  0  0
  142.4240   78.0340  218.4980 C   0  0  0  0  0  0  0  0  0  0  0  0
  141.4370   78.5195  218.4877 H   0  0  0  0  0  0  0  0  0  0  0  0
  143.1745   78.8382  218.4923 H   0  0  0  0  0  0  0  0  0  0  0  0
  142.5740   77.1160  217.3090 C   0  0  0  0  0  0  0  0  0  0  0  0
  141.5899   76.7961  216.9358 H   0  0  0  0  0  0  0  0  0  0  0  0
  143.0784   77.6020  216.4608 H   0  0  0  0  0  0  0  0  0  0  0  0
  143.3520   75.9380  217.8500 C   0  0  0  0  0  0  0  0  0  0  0  0
  143.0920   75.0248  217.2947 H   0  0  0  0  0  0  0  0  0  0  0  0
  144.4353   76.0968  217.7436 H   0  0  0  0  0  0  0  0  0  0  0  0
  140.8050   74.4250  220.5940 N   0  0  0  0  0  0  0  0  0  0  0  0
  140.9840   75.1800  219.8930 H   0  0  0  0  0  0  0  0  0  0  0  0
  141.1250   79.3350  221.6020 C   0  0  0  0  0  0  0  0  0  0  0  0
  140.6496   78.9925  220.6710 H   0  0  0  0  0  0  0  0  0  0  0  0
  141.5620   80.6590  221.7150 C   0  0  0  0  0  0  0  0  0  0  0  0
  141.4360   81.3532  220.8710 H   0  0  0  0  0  0  0  0  0  0  0  0
  1  2  1  0
  2  3  2  0
  3  4  1  0
  3  5  1  0
  5  6  1  0
  5  7  2  0
  7  8  1  0
  8  9  1  0
  8 10  1  0
  8 11  1  0
 11 12  1  0
 11 13  1  0
 11 14  1  0
 14 15  1  0
 14 16  2  0
 16 17  1  0
 17 18  2  0
 18 19  1  0
 19 20  1  0
 20 21  1  0
 20 22  1  0
 20 23  1  0
 23 24  2  0
 24 25  1  0
 24 26  1  0
 26 27  1  0
 26 28  2  0
 28 29  1  0
 28 30  1  0
 30 31  1  0
 30 32  2  0
 32 33  1  0
 33 34  1  0
 33 35  1  0
 33 36  1  0
 36 37  1  0
 36 38  1  0
 18 39  1  0
 39 40  2  0
 40 41  1  0
 41 42  1  0
 41 43  1  0
 41 44  1  0
 44 45  1  0
 44 46  1  0
 44 47  1  0
 47 48  1  0
 47 49  1  0
 47 50  1  0
 50 51  1  0
 51 52  1  0
 51 53  1  0
 51 54  1  0
 54 55  1  0
 54 56  1  0
 54 57  1  0
 57 58  1  0
 57 59  1  0
 57 60  1  0
 60 61  1  0
 60 62  1  0
 40 63  1  0
 63 64  1  0
  7 65  1  0
 65 66  1  0
 65 67  2  0
 67 68  1  0
 67  2  1  0
 63 16  1  0
 36 19  1  0
 60 50  1  0
 32 23  1  0
M  CHG  2  14   1  41   1
M  END
>  <UniqueID>  (4) 
668

>  <SMILES>  (4) 
c1ccc(CC/[NH+]=c2\nc(N3CCc4ccccc4C3)nc([NH2+]CCN3CCCC3)[nH]2)cc1

>  <Energy>  (4) 
71.50899235349316

>  <Genealogy>  (4) 
c1ccc(CC[NH2+]c2nc([NH2+]CCN3CCCC3)nc(N3CCc4ccccc4C3)n2)cc1 (protonated)
c1ccc(CC[NH+]=c2nc(N3CCc4ccccc4C3)nc([NH2+]CCN3CCCC3)[nH]2)cc1 (tautomer)
c1ccc(CC/[NH+]=c2\nc(N3CCc4ccccc4C3)nc([NH2+]CCN3CCCC3)[nH]2)cc1 (cis-trans isomerization)
c1ccc(CC/[NH+]=c2\nc(N3CCc4ccccc4C3)nc([NH2+]CCN3CCCC3)[nH]2)cc1 (3D coordinates assigned)
c1ccc(CC/[NH+]=c2\nc(N3CCc4ccccc4C3)nc([NH2+]CCN3CCCC3)[nH]2)cc1 (nonaromatic ring conformer: 71.50899235349316 kcal/mol)

>  <smiles>  (4) 
c1ccc(CCNc2nc(NCCN3CCCC3)nc(N3CCc4ccccc4C3)n2)cc1

>  <score_type>  (4) 
oracle

>  <origin>  (4) 
autodockgpu

>  <m_score__min__energy>  (4) 
-9.5

>  <m_primary>  (4) 
energy

>  <meeko>  (4) 
{"free_energy": -8.56, "intermolecular_energy": -11.25, "internal_energy": -1.93, "cluster_size": 12, "cluster_id": 1, "rank_in_cluster": 11}

>  <energy>  (4) 
-8.71

>  <cluster_rmsd>  (4) 
1.81

>  <rmsd>  (4) 
271.82

>  <cluster>  (4) 
1

$$$$
FPFWJFTVWFQHMH-IEMWKULYNA-P
     RDKit          3D

 68 72  0  0  0  0  0  0  0  0999 V2000
  146.6496   74.8675  221.1426 H   0  0  0  0  0  0  0  0  0  0  0  0
  145.9060   74.1550  220.7560 C   0  0  0  0  0  0  0  0  0  0  0  0
  144.6110   74.5890  220.4600 C   0  0  0  0  0  0  0  0  0  0  0  0
  144.3383   75.6446  220.6061 H   0  0  0  0  0  0  0  0  0  0  0  0
  143.6610   73.6820  219.9780 C   0  0  0  0  0  0  0  0  0  0  0  0
  142.6394   74.0248  219.7571 H   0  0  0  0  0  0  0  0  0  0  0  0
  144.0060   72.3360  219.7750 C   0  0  0  0  0  0  0  0  0  0  0  0
  142.9650   71.3460  219.3150 C   0  0  0  0  0  0  0  0  0  0  0  0
  143.4711   70.4805  218.8626 H   0  0  0  0  0  0  0  0  0  0  0  0
  142.3705   71.0417  220.1891 H   0  0  0  0  0  0  0  0  0  0  0  0
  142.0150   71.9630  218.2810 C   0  0  0  0  0  0  0  0  0  0  0  0
  142.4111   72.9392  217.9644 H   0  0  0  0  0  0  0  0  0  0  0  0
  141.9409   71.2828  217.4197 H   0  0  0  0  0  0  0  0  0  0  0  0
  140.6750   72.1490  218.8510 N   0  0  0  0  0  0  0  0  0  0  0  0
  139.8870   71.6690  218.3610 H   0  0  0  0  0  0  0  0  0  0  0  0
  140.4350   72.7970  219.9600 C   0  0  0  0  0  0  0  0  0  0  0  0
  140.6920   74.1300  220.0550 N   0  0  0  0  0  0  0  0  0  0  0  0
  140.4790   74.8010  221.2160 C   0  0  0  0  0  0  0  0  0  0  0  0
  140.7540   76.2150  221.3150 N   0  0  0  0  0  0  0  0  0  0  0  0
  140.9560   76.7990  222.6530 C   0  0  0  0  0  0  0  0  0  0  0  0
  141.7326   76.2181  223.1721 H   0  0  0  0  0  0  0  0  0  0  0  0
  139.9865   76.7596  223.1711 H   0  0  0  0  0  0  0  0  0  0  0  0
  141.3830   78.2470  222.6240 C   0  0  0  0  0  0  0  0  0  0  0  0
  141.4390   78.9640  223.8310 C   0  0  0  0  0  0  0  0  0  0  0  0
  141.1437   78.4751  224.7711 H   0  0  0  0  0  0  0  0  0  0  0  0
  141.8670   80.2930  223.8450 C   0  0  0  0  0  0  0  0  0  0  0  0
  141.8994   80.8502  224.7929 H   0  0  0  0  0  0  0  0  0  0  0  0
  142.2540   80.9150  222.6560 C   0  0  0  0  0  0  0  0  0  0  0  0
  142.5956   81.9605  222.6692 H   0  0  0  0  0  0  0  0  0  0  0  0
  142.2080   80.2110  221.4490 C   0  0  0  0  0  0  0  0  0  0  0  0
  142.5233   80.7014  220.5162 H   0  0  0  0  0  0  0  0  0  0  0  0
  141.7610   78.8810  221.4230 C   0  0  0  0  0  0  0  0  0  0  0  0
  141.7440   78.1190  220.1300 C   0  0  0  0  0  0  0  0  0  0  0  0
  142.7077   77.6052  219.9984 H   0  0  0  0  0  0  0  0  0  0  0  0
  141.5771   78.8225  219.3010 H   0  0  0  0  0  0  0  0  0  0  0  0
  140.6210   77.0880  220.1410 C   0  0  0  0  0  0  0  0  0  0  0  0
  140.6757   76.4796  219.2262 H   0  0  0  0  0  0  0  0  0  0  0  0
  139.6528   77.6082  220.1848 H   0  0  0  0  0  0  0  0  0  0  0  0
  140.0060   74.1230  222.2910 N   0  0  0  0  0  0  0  0  0  0  0  0
  139.7220   72.7970  222.2160 C   0  0  0  0  0  0  0  0  0  0  0  0
  139.2830   72.0720  223.3870 N   0  0  0  0  0  0  0  0  0  0  0  0
  139.8070   72.4350  224.2170 H   0  0  0  0  0  0  0  0  0  0  0  0
  138.2660   72.2680  223.5430 H   0  0  0  0  0  0  0  0  0  0  0  0
  139.5350   70.6200  223.2980 C   0  0  0  0  0  0  0  0  0  0  0  0
  138.5703   70.0958  223.2307 H   0  0  0  0  0  0  0  0  0  0  0  0
  140.1512   70.4366  222.4054 H   0  0  0  0  0  0  0  0  0  0  0  0
  140.3050   70.0900  224.5250 C   0  0  0  0  0  0  0  0  0  0  0  0
  140.0047   69.0490  224.7152 H   0  0  0  0  0  0  0  0  0  0  0  0
  141.3827   70.1494  224.3130 H   0  0  0  0  0  0  0  0  0  0  0  0
  140.0180   70.9020  225.7260 N   0  0  0  0  0  0  0  0  0  0  0  0
  139.7370   70.0550  226.8990 C   0  0  0  0  0  0  0  0  0  0  0  0
  138.6593   70.0694  227.1190 H   0  0  0  0  0  0  0  0  0  0  0  0
  140.0416   69.0170  226.6996 H   0  0  0  0  0  0  0  0  0  0  0  0
  140.5130   70.6120  228.0860 C   0  0  0  0  0  0  0  0  0  0  0  0
  139.8416   70.7785  228.9413 H   0  0  0  0  0  0  0  0  0  0  0  0
  141.2958   69.9181  228.4260 H   0  0  0  0  0  0  0  0  0  0  0  0
  141.0920   71.9220  227.6050 C   0  0  0  0  0  0  0  0  0  0  0  0
  140.4449   72.7641  227.8915 H   0  0  0  0  0  0  0  0  0  0  0  0
  142.0789   72.1344  228.0420 H   0  0  0  0  0  0  0  0  0  0  0  0
  141.1420   71.7700  226.1010 C   0  0  0  0  0  0  0  0  0  0  0  0
  141.0398   72.7526  225.6172 H   0  0  0  0  0  0  0  0  0  0  0  0
  142.1005   71.3368  225.7791 H   0  0  0  0  0  0  0  0  0  0  0  0
  139.9490   72.1340  221.0480 N   0  0  0  0  0  0  0  0  0  0  0  0
  139.7660   71.1060  220.9970 H   0  0  0  0  0  0  0  0  0  0  0  0
  145.3140   71.9090  220.0670 C   0  0  0  0  0  0  0  0  0  0  0  0
  145.5962   70.8580  219.9063 H   0  0  0  0  0  0  0  0  0  0  0  0
  146.2570   72.8160  220.5610 C   0  0  0  0  0  0  0  0  0  0  0  0
  147.2761   72.4753  220.7964 H   0  0  0  0  0  0  0  0  0  0  0  0
  1  2  1  0
  2  3  2  0
  3  4  1  0
  3  5  1  0
  5  6  1  0
  5  7  2  0
  7  8  1  0
  8  9  1  0
  8 10  1  0
  8 11  1  0
 11 12  1  0
 11 13  1  0
 11 14  1  0
 14 15  1  0
 14 16  2  0
 16 17  1  0
 17 18  2  0
 18 19  1  0
 19 20  1  0
 20 21  1  0
 20 22  1  0
 20 23  1  0
 23 24  2  0
 24 25  1  0
 24 26  1  0
 26 27  1  0
 26 28  2  0
 28 29  1  0
 28 30  1  0
 30 31  1  0
 30 32  2  0
 32 33  1  0
 33 34  1  0
 33 35  1  0
 33 36  1  0
 36 37  1  0
 36 38  1  0
 18 39  1  0
 39 40  2  0
 40 41  1  0
 41 42  1  0
 41 43  1  0
 41 44  1  0
 44 45  1  0
 44 46  1  0
 44 47  1  0
 47 48  1  0
 47 49  1  0
 47 50  1  0
 50 51  1  0
 51 52  1  0
 51 53  1  0
 51 54  1  0
 54 55  1  0
 54 56  1  0
 54 57  1  0
 57 58  1  0
 57 59  1  0
 57 60  1  0
 60 61  1  0
 60 62  1  0
 40 63  1  0
 63 64  1  0
  7 65  1  0
 65 66  1  0
 65 67  2  0
 67 68  1  0
 67  2  1  0
 63 16  1  0
 36 19  1  0
 60 50  1  0
 32 23  1  0
M  CHG  2  14   1  41   1
M  END
>  <UniqueID>  (5) 
668

>  <SMILES>  (5) 
c1ccc(CC/[NH+]=c2\nc(N3CCc4ccccc4C3)nc([NH2+]CCN3CCCC3)[nH]2)cc1

>  <Energy>  (5) 
71.50899235349316

>  <Genealogy>  (5) 
c1ccc(CC[NH2+]c2nc([NH2+]CCN3CCCC3)nc(N3CCc4ccccc4C3)n2)cc1 (protonated)
c1ccc(CC[NH+]=c2nc(N3CCc4ccccc4C3)nc([NH2+]CCN3CCCC3)[nH]2)cc1 (tautomer)
c1ccc(CC/[NH+]=c2\nc(N3CCc4ccccc4C3)nc([NH2+]CCN3CCCC3)[nH]2)cc1 (cis-trans isomerization)
c1ccc(CC/[NH+]=c2\nc(N3CCc4ccccc4C3)nc([NH2+]CCN3CCCC3)[nH]2)cc1 (3D coordinates assigned)
c1ccc(CC/[NH+]=c2\nc(N3CCc4ccccc4C3)nc([NH2+]CCN3CCCC3)[nH]2)cc1 (nonaromatic ring conformer: 71.50899235349316 kcal/mol)

>  <smiles>  (5) 
c1ccc(CCNc2nc(NCCN3CCCC3)nc(N3CCc4ccccc4C3)n2)cc1

>  <score_type>  (5) 
oracle

>  <origin>  (5) 
autodockgpu

>  <m_score__min__energy>  (5) 
-9.5

>  <m_primary>  (5) 
energy

>  <meeko>  (5) 
{"free_energy": -9.04, "intermolecular_energy": -11.73, "internal_energy": -1.13, "cluster_size": 3, "cluster_id": 2, "rank_in_cluster": 1}

>  <energy>  (5) 
-8.69

>  <cluster_rmsd>  (5) 
1.81

>  <rmsd>  (5) 
271.83

>  <cluster>  (5) 
1

$$$$
FPFWJFTVWFQHMH-IEMWKULYNA-P
     RDKit          3D

 68 72  0  0  0  0  0  0  0  0999 V2000
  142.1115   82.2804  223.7555 H   0  0  0  0  0  0  0  0  0  0  0  0
  141.8460   81.2460  223.4920 C   0  0  0  0  0  0  0  0  0  0  0  0
  140.5060   80.8480  223.4870 C   0  0  0  0  0  0  0  0  0  0  0  0
  139.7170   81.5724  223.7374 H   0  0  0  0  0  0  0  0  0  0  0  0
  140.1670   79.5300  223.1640 C   0  0  0  0  0  0  0  0  0  0  0  0
  139.1123   79.2177  223.1738 H   0  0  0  0  0  0  0  0  0  0  0  0
  141.1680   78.6030  222.8270 C   0  0  0  0  0  0  0  0  0  0  0  0
  140.8070   77.1680  222.5390 C   0  0  0  0  0  0  0  0  0  0  0  0
  141.3391   76.8416  221.6333 H   0  0  0  0  0  0  0  0  0  0  0  0
  141.0984   76.5603  223.4083 H   0  0  0  0  0  0  0  0  0  0  0  0
  139.2990   76.9950  222.3190 C   0  0  0  0  0  0  0  0  0  0  0  0
  138.8063   76.8542  223.2924 H   0  0  0  0  0  0  0  0  0  0  0  0
  138.9099   77.8946  221.8196 H   0  0  0  0  0  0  0  0  0  0  0  0
  139.0270   75.8300  221.4690 N   0  0  0  0  0  0  0  0  0  0  0  0
  138.2280   75.9150  220.8010 H   0  0  0  0  0  0  0  0  0  0  0  0
  139.7660   74.7530  221.4440 C   0  0  0  0  0  0  0  0  0  0  0  0
  139.5830   73.7650  222.3620 N   0  0  0  0  0  0  0  0  0  0  0  0
  140.3700   72.6590  222.3650 C   0  0  0  0  0  0  0  0  0  0  0  0
  140.1760   71.6140  223.3400 N   0  0  0  0  0  0  0  0  0  0  0  0
  140.7130   71.8110  224.6990 C   0  0  0  0  0  0  0  0  0  0  0  0
  140.3396   72.7713  225.0842 H   0  0  0  0  0  0  0  0  0  0  0  0
  141.8098   71.7895  224.6176 H   0  0  0  0  0  0  0  0  0  0  0  0
  140.3210   70.7230  225.6700 C   0  0  0  0  0  0  0  0  0  0  0  0
  140.9090   70.7060  226.9450 C   0  0  0  0  0  0  0  0  0  0  0  0
  141.6646   71.4607  227.2087 H   0  0  0  0  0  0  0  0  0  0  0  0
  140.5400   69.7360  227.8810 C   0  0  0  0  0  0  0  0  0  0  0  0
  141.0119   69.7234  228.8746 H   0  0  0  0  0  0  0  0  0  0  0  0
  139.5730   68.7830  227.5560 C   0  0  0  0  0  0  0  0  0  0  0  0
  139.2809   68.0229  228.2955 H   0  0  0  0  0  0  0  0  0  0  0  0
  138.9750   68.7930  226.2920 C   0  0  0  0  0  0  0  0  0  0  0  0
  138.2054   68.0474  226.0436 H   0  0  0  0  0  0  0  0  0  0  0  0
  139.3540   69.7520  225.3390 C   0  0  0  0  0  0  0  0  0  0  0  0
  138.6870   69.7790  223.9940 C   0  0  0  0  0  0  0  0  0  0  0  0
  137.8073   70.4379  224.0379 H   0  0  0  0  0  0  0  0  0  0  0  0
  138.3785   68.7578  223.7259 H   0  0  0  0  0  0  0  0  0  0  0  0
  139.6540   70.3000  222.9370 C   0  0  0  0  0  0  0  0  0  0  0  0
  139.1270   70.3960  221.9763 H   0  0  0  0  0  0  0  0  0  0  0  0
  140.4913   69.5942  222.8331 H   0  0  0  0  0  0  0  0  0  0  0  0
  141.3540   72.5500  221.4370 N   0  0  0  0  0  0  0  0  0  0  0  0
  141.5430   73.5120  220.4970 C   0  0  0  0  0  0  0  0  0  0  0  0
  142.6370   73.4160  219.5570 N   0  0  0  0  0  0  0  0  0  0  0  0
  142.7770   72.4080  219.3120 H   0  0  0  0  0  0  0  0  0  0  0  0
  142.3720   73.9220  218.6790 H   0  0  0  0  0  0  0  0  0  0  0  0
  143.9130   73.9260  220.0980 C   0  0  0  0  0  0  0  0  0  0  0  0
  143.9903   73.6374  221.1567 H   0  0  0  0  0  0  0  0  0  0  0  0
  144.7311   73.4903  219.5056 H   0  0  0  0  0  0  0  0  0  0  0  0
  144.0140   75.4610  219.9920 C   0  0  0  0  0  0  0  0  0  0  0  0
  143.9655   75.8946  221.0018 H   0  0  0  0  0  0  0  0  0  0  0  0
  144.9680   75.7153  219.5070 H   0  0  0  0  0  0  0  0  0  0  0  0
  142.9110   76.0130  219.1760 N   0  0  0  0  0  0  0  0  0  0  0  0
  142.4060   77.2800  219.7340 C   0  0  0  0  0  0  0  0  0  0  0  0
  141.4328   77.1120  220.2185 H   0  0  0  0  0  0  0  0  0  0  0  0
  143.1088   77.6720  220.4839 H   0  0  0  0  0  0  0  0  0  0  0  0
  142.2480   78.2740  218.5900 C   0  0  0  0  0  0  0  0  0  0  0  0
  141.2340   78.7003  218.5875 H   0  0  0  0  0  0  0  0  0  0  0  0
  142.9482   79.1175  218.6806 H   0  0  0  0  0  0  0  0  0  0  0  0
  142.4890   77.4760  217.3310 C   0  0  0  0  0  0  0  0  0  0  0  0
  141.5380   77.1338  216.8969 H   0  0  0  0  0  0  0  0  0  0  0  0
  142.9873   78.0637  216.5460 H   0  0  0  0  0  0  0  0  0  0  0  0
  143.3210   76.3020  217.7960 C   0  0  0  0  0  0  0  0  0  0  0  0
  143.1349   75.4280  217.1545 H   0  0  0  0  0  0  0  0  0  0  0  0
  144.3951   76.5333  217.7431 H   0  0  0  0  0  0  0  0  0  0  0  0
  140.7520   74.6200  220.5120 N   0  0  0  0  0  0  0  0  0  0  0  0
  140.9180   75.3800  219.8130 H   0  0  0  0  0  0  0  0  0  0  0  0
  142.5130   79.0140  222.8250 C   0  0  0  0  0  0  0  0  0  0  0  0
  143.3040   78.2981  222.5572 H   0  0  0  0  0  0  0  0  0  0  0  0
  142.8490   80.3290  223.1620 C   0  0  0  0  0  0  0  0  0  0  0  0
  143.9034   80.6424  223.1675 H   0  0  0  0  0  0  0  0  0  0  0  0
  1  2  1  0
  2  3  2  0
  3  4  1  0
  3  5  1  0
  5  6  1  0
  5  7  2  0
  7  8  1  0
  8  9  1  0
  8 10  1  0
  8 11  1  0
 11 12  1  0
 11 13  1  0
 11 14  1  0
 14 15  1  0
 14 16  2  0
 16 17  1  0
 17 18  2  0
 18 19  1  0
 19 20  1  0
 20 21  1  0
 20 22  1  0
 20 23  1  0
 23 24  2  0
 24 25  1  0
 24 26  1  0
 26 27  1  0
 26 28  2  0
 28 29  1  0
 28 30  1  0
 30 31  1  0
 30 32  2  0
 32 33  1  0
 33 34  1  0
 33 35  1  0
 33 36  1  0
 36 37  1  0
 36 38  1  0
 18 39  1  0
 39 40  2  0
 40 41  1  0
 41 42  1  0
 41 43  1  0
 41 44  1  0
 44 45  1  0
 44 46  1  0
 44 47  1  0
 47 48  1  0
 47 49  1  0
 47 50  1  0
 50 51  1  0
 51 52  1  0
 51 53  1  0
 51 54  1  0
 54 55  1  0
 54 56  1  0
 54 57  1  0
 57 58  1  0
 57 59  1  0
 57 60  1  0
 60 61  1  0
 60 62  1  0
 40 63  1  0
 63 64  1  0
  7 65  1  0
 65 66  1  0
 65 67  2  0
 67 68  1  0
 67  2  1  0
 63 16  1  0
 36 19  1  0
 60 50  1  0
 32 23  1  0
M  CHG  2  14   1  41   1
M  END
>  <UniqueID>  (6) 
668

>  <SMILES>  (6) 
c1ccc(CC/[NH+]=c2\nc(N3CCc4ccccc4C3)nc([NH2+]CCN3CCCC3)[nH]2)cc1

>  <Energy>  (6) 
71.50899235349316

>  <Genealogy>  (6) 
c1ccc(CC[NH2+]c2nc([NH2+]CCN3CCCC3)nc(N3CCc4ccccc4C3)n2)cc1 (protonated)
c1ccc(CC[NH+]=c2nc(N3CCc4ccccc4C3)nc([NH2+]CCN3CCCC3)[nH]2)cc1 (tautomer)
c1ccc(CC/[NH+]=c2\nc(N3CCc4ccccc4C3)nc([NH2+]CCN3CCCC3)[nH]2)cc1 (cis-trans isomerization)
c1ccc(CC/[NH+]=c2\nc(N3CCc4ccccc4C3)nc([NH2+]CCN3CCCC3)[nH]2)cc1 (3D coordinates assigned)
c1ccc(CC/[NH+]=c2\nc(N3CCc4ccccc4C3)nc([NH2+]CCN3CCCC3)[nH]2)cc1 (nonaromatic ring conformer: 71.50899235349316 kcal/mol)

>  <smiles>  (6) 
c1ccc(CCNc2nc(NCCN3CCCC3)nc(N3CCc4ccccc4C3)n2)cc1

>  <score_type>  (6) 
oracle

>  <origin>  (6) 
autodockgpu

>  <m_score__min__energy>  (6) 
-9.5

>  <m_primary>  (6) 
energy

>  <meeko>  (6) 
{"free_energy": -8.67, "intermolecular_energy": -11.36, "internal_energy": -1.89, "cluster_size": 12, "cluster_id": 1, "rank_in_cluster": 7}

>  <energy>  (6) 
-8.68

>  <cluster_rmsd>  (6) 
1.8

>  <rmsd>  (6) 
271.86

>  <cluster>  (6) 
1

$$$$
FPFWJFTVWFQHMH-IEMWKULYNA-P
     RDKit          3D

 68 72  0  0  0  0  0  0  0  0999 V2000
  139.9797   70.4152  229.4307 H   0  0  0  0  0  0  0  0  0  0  0  0
  140.1400   70.5510  228.3510 C   0  0  0  0  0  0  0  0  0  0  0  0
  140.8250   71.6760  227.8820 C   0  0  0  0  0  0  0  0  0  0  0  0
  141.2108   72.4208  228.5936 H   0  0  0  0  0  0  0  0  0  0  0  0
  141.0200   71.8550  226.5090 C   0  0  0  0  0  0  0  0  0  0  0  0
  141.5485   72.7475  226.1428 H   0  0  0  0  0  0  0  0  0  0  0  0
  140.5440   70.9000  225.5950 C   0  0  0  0  0  0  0  0  0  0  0  0
  140.7000   71.1250  224.1120 C   0  0  0  0  0  0  0  0  0  0  0  0
  141.1286   72.1244  223.9461 H   0  0  0  0  0  0  0  0  0  0  0  0
  141.3616   70.3416  223.7138 H   0  0  0  0  0  0  0  0  0  0  0  0
  139.3550   71.0330  223.3800 C   0  0  0  0  0  0  0  0  0  0  0  0
  139.4234   70.2656  222.5949 H   0  0  0  0  0  0  0  0  0  0  0  0
  138.5746   70.7671  224.1082 H   0  0  0  0  0  0  0  0  0  0  0  0
  139.0070   72.3200  222.7660 N   0  0  0  0  0  0  0  0  0  0  0  0
  138.1250   72.7730  223.0960 H   0  0  0  0  0  0  0  0  0  0  0  0
  139.7680   72.9540  221.9130 C   0  0  0  0  0  0  0  0  0  0  0  0
  139.9560   74.2980  222.0170 N   0  0  0  0  0  0  0  0  0  0  0  0
  140.7150   74.9690  221.1140 C   0  0  0  0  0  0  0  0  0  0  0  0
  140.9120   76.3940  221.2250 N   0  0  0  0  0  0  0  0  0  0  0  0
  141.0400   76.9830  222.5710 C   0  0  0  0  0  0  0  0  0  0  0  0
  141.8295   76.4421  223.1133 H   0  0  0  0  0  0  0  0  0  0  0  0
  140.0579   76.8901  223.0577 H   0  0  0  0  0  0  0  0  0  0  0  0
  141.3900   78.4520  222.5590 C   0  0  0  0  0  0  0  0  0  0  0  0
  141.3710   79.1660  223.7690 C   0  0  0  0  0  0  0  0  0  0  0  0
  141.0736   78.6581  224.6983 H   0  0  0  0  0  0  0  0  0  0  0  0
  141.7270   80.5160  223.8000 C   0  0  0  0  0  0  0  0  0  0  0  0
  141.7002   81.0704  224.7497 H   0  0  0  0  0  0  0  0  0  0  0  0
  142.1170   81.1620  222.6250 C   0  0  0  0  0  0  0  0  0  0  0  0
  142.4012   82.2243  222.6512 H   0  0  0  0  0  0  0  0  0  0  0  0
  142.1470   80.4620  221.4160 C   0  0  0  0  0  0  0  0  0  0  0  0
  142.4657   80.9724  220.4952 H   0  0  0  0  0  0  0  0  0  0  0  0
  141.7720   79.1100  221.3720 C   0  0  0  0  0  0  0  0  0  0  0  0
  141.8360   78.3530  220.0780 C   0  0  0  0  0  0  0  0  0  0  0  0
  142.8289   77.8906  219.9765 H   0  0  0  0  0  0  0  0  0  0  0  0
  141.6589   79.0502  219.2458 H   0  0  0  0  0  0  0  0  0  0  0  0
  140.7690   77.2650  220.0500 C   0  0  0  0  0  0  0  0  0  0  0  0
  140.8837   76.6651  219.1351 H   0  0  0  0  0  0  0  0  0  0  0  0
  139.7738   77.7332  220.0652 H   0  0  0  0  0  0  0  0  0  0  0  0
  141.2870   74.2810  220.0950 N   0  0  0  0  0  0  0  0  0  0  0  0
  141.1320   72.9360  219.9810 C   0  0  0  0  0  0  0  0  0  0  0  0
  141.6900   72.2250  218.8530 N   0  0  0  0  0  0  0  0  0  0  0  0
  140.9470   72.1250  218.1230 H   0  0  0  0  0  0  0  0  0  0  0  0
  142.4640   72.7990  218.4430 H   0  0  0  0  0  0  0  0  0  0  0  0
  142.1630   70.8690  219.1990 C   0  0  0  0  0  0  0  0  0  0  0  0
  141.5543   70.4819  220.0295 H   0  0  0  0  0  0  0  0  0  0  0  0
  142.0645   70.2367  218.3043 H   0  0  0  0  0  0  0  0  0  0  0  0
  143.6450   70.8640  219.6240 C   0  0  0  0  0  0  0  0  0  0  0  0
  143.7239   70.4667  220.6467 H   0  0  0  0  0  0  0  0  0  0  0  0
  144.2078   70.2341  218.9194 H   0  0  0  0  0  0  0  0  0  0  0  0
  144.2140   72.2280  219.5910 N   0  0  0  0  0  0  0  0  0  0  0  0
  144.3550   72.7890  220.9470 C   0  0  0  0  0  0  0  0  0  0  0  0
  143.5769   73.5472  221.1193 H   0  0  0  0  0  0  0  0  0  0  0  0
  144.2446   71.9952  221.7004 H   0  0  0  0  0  0  0  0  0  0  0  0
  145.7330   73.4300  221.0550 C   0  0  0  0  0  0  0  0  0  0  0  0
  145.6481   74.4679  221.4094 H   0  0  0  0  0  0  0  0  0  0  0  0
  146.3762   72.8993  221.7725 H   0  0  0  0  0  0  0  0  0  0  0  0
  146.3020   73.3940  219.6570 C   0  0  0  0  0  0  0  0  0  0  0  0
  146.1231   74.3469  219.1374 H   0  0  0  0  0  0  0  0  0  0  0  0
  147.3914   73.2422  219.6472 H   0  0  0  0  0  0  0  0  0  0  0  0
  145.5510   72.2660  218.9850 C   0  0  0  0  0  0  0  0  0  0  0  0
  145.4719   72.4544  217.9042 H   0  0  0  0  0  0  0  0  0  0  0  0
  146.0736   71.3075  219.1201 H   0  0  0  0  0  0  0  0  0  0  0  0
  140.3600   72.2770  220.8890 N   0  0  0  0  0  0  0  0  0  0  0  0
  140.2080   71.2480  220.7840 H   0  0  0  0  0  0  0  0  0  0  0  0
  139.8640   69.7680  226.0750 C   0  0  0  0  0  0  0  0  0  0  0  0
  139.4915   69.0119  225.3682 H   0  0  0  0  0  0  0  0  0  0  0  0
  139.6590   69.5990  227.4480 C   0  0  0  0  0  0  0  0  0  0  0  0
  139.1183   68.7153  227.8178 H   0  0  0  0  0  0  0  0  0  0  0  0
  1  2  1  0
  2  3  2  0
  3  4  1  0
  3  5  1  0
  5  6  1  0
  5  7  2  0
  7  8  1  0
  8  9  1  0
  8 10  1  0
  8 11  1  0
 11 12  1  0
 11 13  1  0
 11 14  1  0
 14 15  1  0
 14 16  2  0
 16 17  1  0
 17 18  2  0
 18 19  1  0
 19 20  1  0
 20 21  1  0
 20 22  1  0
 20 23  1  0
 23 24  2  0
 24 25  1  0
 24 26  1  0
 26 27  1  0
 26 28  2  0
 28 29  1  0
 28 30  1  0
 30 31  1  0
 30 32  2  0
 32 33  1  0
 33 34  1  0
 33 35  1  0
 33 36  1  0
 36 37  1  0
 36 38  1  0
 18 39  1  0
 39 40  2  0
 40 41  1  0
 41 42  1  0
 41 43  1  0
 41 44  1  0
 44 45  1  0
 44 46  1  0
 44 47  1  0
 47 48  1  0
 47 49  1  0
 47 50  1  0
 50 51  1  0
 51 52  1  0
 51 53  1  0
 51 54  1  0
 54 55  1  0
 54 56  1  0
 54 57  1  0
 57 58  1  0
 57 59  1  0
 57 60  1  0
 60 61  1  0
 60 62  1  0
 40 63  1  0
 63 64  1  0
  7 65  1  0
 65 66  1  0
 65 67  2  0
 67 68  1  0
 67  2  1  0
 63 16  1  0
 36 19  1  0
 60 50  1  0
 32 23  1  0
M  CHG  2  14   1  41   1
M  END
>  <UniqueID>  (7) 
668

>  <SMILES>  (7) 
c1ccc(CC/[NH+]=c2\nc(N3CCc4ccccc4C3)nc([NH2+]CCN3CCCC3)[nH]2)cc1

>  <Energy>  (7) 
71.50899235349316

>  <Genealogy>  (7) 
c1ccc(CC[NH2+]c2nc([NH2+]CCN3CCCC3)nc(N3CCc4ccccc4C3)n2)cc1 (protonated)
c1ccc(CC[NH+]=c2nc(N3CCc4ccccc4C3)nc([NH2+]CCN3CCCC3)[nH]2)cc1 (tautomer)
c1ccc(CC/[NH+]=c2\nc(N3CCc4ccccc4C3)nc([NH2+]CCN3CCCC3)[nH]2)cc1 (cis-trans isomerization)
c1ccc(CC/[NH+]=c2\nc(N3CCc4ccccc4C3)nc([NH2+]CCN3CCCC3)[nH]2)cc1 (3D coordinates assigned)
c1ccc(CC/[NH+]=c2\nc(N3CCc4ccccc4C3)nc([NH2+]CCN3CCCC3)[nH]2)cc1 (nonaromatic ring conformer: 71.50899235349316 kcal/mol)

>  <smiles>  (7) 
c1ccc(CCNc2nc(NCCN3CCCC3)nc(N3CCc4ccccc4C3)n2)cc1

>  <score_type>  (7) 
oracle

>  <origin>  (7) 
autodockgpu

>  <m_score__min__energy>  (7) 
-9.5

>  <m_primary>  (7) 
energy

>  <meeko>  (7) 
{"free_energy": -9.43, "intermolecular_energy": -12.11, "internal_energy": -0.96, "cluster_size": 12, "cluster_id": 1, "rank_in_cluster": 2}

>  <energy>  (7) 
-8.67

>  <cluster_rmsd>  (7) 
1.83

>  <rmsd>  (7) 
271.82

>  <cluster>  (7) 
1

$$$$
FPFWJFTVWFQHMH-IEMWKULYNA-P
     RDKit          3D

 68 72  0  0  0  0  0  0  0  0999 V2000
  142.1344   82.2741  223.7959 H   0  0  0  0  0  0  0  0  0  0  0  0
  141.8520   81.2370  223.5620 C   0  0  0  0  0  0  0  0  0  0  0  0
  142.8140   80.3410  223.0890 C   0  0  0  0  0  0  0  0  0  0  0  0
  143.8553   80.6710  222.9594 H   0  0  0  0  0  0  0  0  0  0  0  0
  142.4550   79.0250  222.7800 C   0  0  0  0  0  0  0  0  0  0  0  0
  143.2126   78.3263  222.3954 H   0  0  0  0  0  0  0  0  0  0  0  0
  141.1300   78.5920  222.9590 C   0  0  0  0  0  0  0  0  0  0  0  0
  140.7300   77.1920  222.5680 C   0  0  0  0  0  0  0  0  0  0  0  0
  141.5688   76.7161  222.0388 H   0  0  0  0  0  0  0  0  0  0  0  0
  140.4777   76.6386  223.4845 H   0  0  0  0  0  0  0  0  0  0  0  0
  139.4990   77.1890  221.6530 C   0  0  0  0  0  0  0  0  0  0  0  0
  138.7070   77.7991  222.1119 H   0  0  0  0  0  0  0  0  0  0  0  0
  139.7849   77.6051  220.6757 H   0  0  0  0  0  0  0  0  0  0  0  0
  139.0000   75.8220  221.4550 N   0  0  0  0  0  0  0  0  0  0  0  0
  137.9840   75.7230  221.2340 H   0  0  0  0  0  0  0  0  0  0  0  0
  139.7590   74.7590  221.4570 C   0  0  0  0  0  0  0  0  0  0  0  0
  139.5750   73.7770  222.3810 N   0  0  0  0  0  0  0  0  0  0  0  0
  140.3820   72.6850  222.4110 C   0  0  0  0  0  0  0  0  0  0  0  0
  140.1860   71.6460  223.3930 N   0  0  0  0  0  0  0  0  0  0  0  0
  140.7170   71.8550  224.7520 C   0  0  0  0  0  0  0  0  0  0  0  0
  140.3393   72.8171  225.1285 H   0  0  0  0  0  0  0  0  0  0  0  0
  141.8142   71.8366  224.6753 H   0  0  0  0  0  0  0  0  0  0  0  0
  140.3240   70.7730  225.7290 C   0  0  0  0  0  0  0  0  0  0  0  0
  140.9080   70.7660  227.0070 C   0  0  0  0  0  0  0  0  0  0  0  0
  141.6614   71.5239  227.2678 H   0  0  0  0  0  0  0  0  0  0  0  0
  140.5380   69.8030  227.9480 C   0  0  0  0  0  0  0  0  0  0  0  0
  141.0060   69.7989  228.9435 H   0  0  0  0  0  0  0  0  0  0  0  0
  139.5740   68.8450  227.6260 C   0  0  0  0  0  0  0  0  0  0  0  0
  139.2802   68.0900  228.3701 H   0  0  0  0  0  0  0  0  0  0  0  0
  138.9820   68.8440  226.3600 C   0  0  0  0  0  0  0  0  0  0  0  0
  138.2159   68.0941  226.1135 H   0  0  0  0  0  0  0  0  0  0  0  0
  139.3620   69.7970  225.4020 C   0  0  0  0  0  0  0  0  0  0  0  0
  138.7000   69.8120  224.0540 C   0  0  0  0  0  0  0  0  0  0  0  0
  137.8177   70.4679  224.0899 H   0  0  0  0  0  0  0  0  0  0  0  0
  138.3963   68.7877  223.7920 H   0  0  0  0  0  0  0  0  0  0  0  0
  139.6690   70.3290  222.9970 C   0  0  0  0  0  0  0  0  0  0  0  0
  139.1448   70.4176  222.0340 H   0  0  0  0  0  0  0  0  0  0  0  0
  140.5085   69.6248  222.9004 H   0  0  0  0  0  0  0  0  0  0  0  0
  141.3860   72.5840  221.5040 N   0  0  0  0  0  0  0  0  0  0  0  0
  141.5770   73.5400  220.5580 C   0  0  0  0  0  0  0  0  0  0  0  0
  142.6910   73.4550  219.6410 N   0  0  0  0  0  0  0  0  0  0  0  0
  142.8560   72.4470  219.4140 H   0  0  0  0  0  0  0  0  0  0  0  0
  142.4330   73.9430  218.7520 H   0  0  0  0  0  0  0  0  0  0  0  0
  143.9450   73.9990  220.2010 C   0  0  0  0  0  0  0  0  0  0  0  0
  143.9897   73.7568  221.2731 H   0  0  0  0  0  0  0  0  0  0  0  0
  144.7857   73.5457  219.6553 H   0  0  0  0  0  0  0  0  0  0  0  0
  144.0370   75.5290  220.0320 C   0  0  0  0  0  0  0  0  0  0  0  0
  144.0000   76.0027  221.0241 H   0  0  0  0  0  0  0  0  0  0  0  0
  144.9831   75.7676  219.5240 H   0  0  0  0  0  0  0  0  0  0  0  0
  142.9210   76.0430  219.2100 N   0  0  0  0  0  0  0  0  0  0  0  0
  142.3970   77.3140  219.7410 C   0  0  0  0  0  0  0  0  0  0  0  0
  141.4293   77.1406  220.2345 H   0  0  0  0  0  0  0  0  0  0  0  0
  143.0969   77.7353  220.4776 H   0  0  0  0  0  0  0  0  0  0  0  0
  142.2160   78.2790  218.5750 C   0  0  0  0  0  0  0  0  0  0  0  0
  141.1947   78.6874  218.5679 H   0  0  0  0  0  0  0  0  0  0  0  0
  142.9014   79.1367  218.6425 H   0  0  0  0  0  0  0  0  0  0  0  0
  142.4650   77.4560  217.3340 C   0  0  0  0  0  0  0  0  0  0  0  0
  141.5179   77.0879  216.9127 H   0  0  0  0  0  0  0  0  0  0  0  0
  142.9501   78.0339  216.5335 H   0  0  0  0  0  0  0  0  0  0  0  0
  143.3190   76.3070  217.8210 C   0  0  0  0  0  0  0  0  0  0  0  0
  143.1442   75.4155  217.2008 H   0  0  0  0  0  0  0  0  0  0  0  0
  144.3888   76.5548  217.7567 H   0  0  0  0  0  0  0  0  0  0  0  0
  140.7660   74.6340  220.5460 N   0  0  0  0  0  0  0  0  0  0  0  0
  140.9330   75.3900  219.8430 H   0  0  0  0  0  0  0  0  0  0  0  0
  140.1700   79.4970  223.4440 C   0  0  0  0  0  0  0  0  0  0  0  0
  139.1313   79.1668  223.5928 H   0  0  0  0  0  0  0  0  0  0  0  0
  140.5310   80.8160  223.7380 C   0  0  0  0  0  0  0  0  0  0  0  0
  139.7740   81.5230  224.1083 H   0  0  0  0  0  0  0  0  0  0  0  0
  1  2  1  0
  2  3  2  0
  3  4  1  0
  3  5  1  0
  5  6  1  0
  5  7  2  0
  7  8  1  0
  8  9  1  0
  8 10  1  0
  8 11  1  0
 11 12  1  0
 11 13  1  0
 11 14  1  0
 14 15  1  0
 14 16  2  0
 16 17  1  0
 17 18  2  0
 18 19  1  0
 19 20  1  0
 20 21  1  0
 20 22  1  0
 20 23  1  0
 23 24  2  0
 24 25  1  0
 24 26  1  0
 26 27  1  0
 26 28  2  0
 28 29  1  0
 28 30  1  0
 30 31  1  0
 30 32  2  0
 32 33  1  0
 33 34  1  0
 33 35  1  0
 33 36  1  0
 36 37  1  0
 36 38  1  0
 18 39  1  0
 39 40  2  0
 40 41  1  0
 41 42  1  0
 41 43  1  0
 41 44  1  0
 44 45  1  0
 44 46  1  0
 44 47  1  0
 47 48  1  0
 47 49  1  0
 47 50  1  0
 50 51  1  0
 51 52  1  0
 51 53  1  0
 51 54  1  0
 54 55  1  0
 54 56  1  0
 54 57  1  0
 57 58  1  0
 57 59  1  0
 57 60  1  0
 60 61  1  0
 60 62  1  0
 40 63  1  0
 63 64  1  0
  7 65  1  0
 65 66  1  0
 65 67  2  0
 67 68  1  0
 67  2  1  0
 63 16  1  0
 36 19  1  0
 60 50  1  0
 32 23  1  0
M  CHG  2  14   1  41   1
M  END
>  <UniqueID>  (8) 
668

>  <SMILES>  (8) 
c1ccc(CC/[NH+]=c2\nc(N3CCc4ccccc4C3)nc([NH2+]CCN3CCCC3)[nH]2)cc1

>  <Energy>  (8) 
71.50899235349316

>  <Genealogy>  (8) 
c1ccc(CC[NH2+]c2nc([NH2+]CCN3CCCC3)nc(N3CCc4ccccc4C3)n2)cc1 (protonated)
c1ccc(CC[NH+]=c2nc(N3CCc4ccccc4C3)nc([NH2+]CCN3CCCC3)[nH]2)cc1 (tautomer)
c1ccc(CC/[NH+]=c2\nc(N3CCc4ccccc4C3)nc([NH2+]CCN3CCCC3)[nH]2)cc1 (cis-trans isomerization)
c1ccc(CC/[NH+]=c2\nc(N3CCc4ccccc4C3)nc([NH2+]CCN3CCCC3)[nH]2)cc1 (3D coordinates assigned)
c1ccc(CC/[NH+]=c2\nc(N3CCc4ccccc4C3)nc([NH2+]CCN3CCCC3)[nH]2)cc1 (nonaromatic ring conformer: 71.50899235349316 kcal/mol)

>  <smiles>  (8) 
c1ccc(CCNc2nc(NCCN3CCCC3)nc(N3CCc4ccccc4C3)n2)cc1

>  <score_type>  (8) 
oracle

>  <origin>  (8) 
autodockgpu

>  <m_score__min__energy>  (8) 
-9.5

>  <m_primary>  (8) 
energy

>  <meeko>  (8) 
{"free_energy": -8.62, "intermolecular_energy": -11.31, "internal_energy": -1.93, "cluster_size": 12, "cluster_id": 1, "rank_in_cluster": 10}

>  <energy>  (8) 
-8.66

>  <cluster_rmsd>  (8) 
1.84

>  <rmsd>  (8) 
271.82

>  <cluster>  (8) 
1

$$$$
FPFWJFTVWFQHMH-IEMWKULYNA-P
     RDKit          3D

 68 72  0  0  0  0  0  0  0  0999 V2000
  143.3873   80.9541  222.6967 H   0  0  0  0  0  0  0  0  0  0  0  0
  142.4340   80.4080  222.7510 C   0  0  0  0  0  0  0  0  0  0  0  0
  141.2270   81.0880  222.5640 C   0  0  0  0  0  0  0  0  0  0  0  0
  141.2321   82.1678  222.3543 H   0  0  0  0  0  0  0  0  0  0  0  0
  140.0130   80.3980  222.6430 C   0  0  0  0  0  0  0  0  0  0  0  0
  139.0651   80.9393  222.5074 H   0  0  0  0  0  0  0  0  0  0  0  0
  140.0000   79.0160  222.8950 C   0  0  0  0  0  0  0  0  0  0  0  0
  138.6900   78.2840  223.0420 C   0  0  0  0  0  0  0  0  0  0  0  0
  138.8293   77.4391  223.7325 H   0  0  0  0  0  0  0  0  0  0  0  0
  137.9434   78.9921  223.4309 H   0  0  0  0  0  0  0  0  0  0  0  0
  138.1850   77.7480  221.6960 C   0  0  0  0  0  0  0  0  0  0  0  0
  137.2106   78.2048  221.4684 H   0  0  0  0  0  0  0  0  0  0  0  0
  138.9182   78.0032  220.9168 H   0  0  0  0  0  0  0  0  0  0  0  0
  138.0340   76.2890  221.7410 N   0  0  0  0  0  0  0  0  0  0  0  0
  137.0580   75.9180  221.6930 H   0  0  0  0  0  0  0  0  0  0  0  0
  139.0350   75.4490  221.7500 C   0  0  0  0  0  0  0  0  0  0  0  0
  138.9050   74.2220  222.3260 N   0  0  0  0  0  0  0  0  0  0  0  0
  139.9510   73.3580  222.3710 C   0  0  0  0  0  0  0  0  0  0  0  0
  139.8130   72.0590  222.9840 N   0  0  0  0  0  0  0  0  0  0  0  0
  140.5450   71.7910  224.2360 C   0  0  0  0  0  0  0  0  0  0  0  0
  140.3016   72.5847  224.9576 H   0  0  0  0  0  0  0  0  0  0  0  0
  141.6156   71.7675  223.9845 H   0  0  0  0  0  0  0  0  0  0  0  0
  140.2080   70.4580  224.8610 C   0  0  0  0  0  0  0  0  0  0  0  0
  140.9620   70.0120  225.9590 C   0  0  0  0  0  0  0  0  0  0  0  0
  141.8022   70.6189  226.3275 H   0  0  0  0  0  0  0  0  0  0  0  0
  140.6520   68.8030  226.5860 C   0  0  0  0  0  0  0  0  0  0  0  0
  141.2534   68.4559  227.4392 H   0  0  0  0  0  0  0  0  0  0  0  0
  139.5790   68.0350  226.1300 C   0  0  0  0  0  0  0  0  0  0  0  0
  139.3331   67.0854  226.6277 H   0  0  0  0  0  0  0  0  0  0  0  0
  138.8170   68.4700  225.0430 C   0  0  0  0  0  0  0  0  0  0  0  0
  137.9662   67.8666  224.6937 H   0  0  0  0  0  0  0  0  0  0  0  0
  139.1330   69.6740  224.3950 C   0  0  0  0  0  0  0  0  0  0  0  0
  138.2920   70.1540  223.2480 C   0  0  0  0  0  0  0  0  0  0  0  0
  137.4797   70.7876  223.6335 H   0  0  0  0  0  0  0  0  0  0  0  0
  137.8728   69.2836  222.7221 H   0  0  0  0  0  0  0  0  0  0  0  0
  139.1410   70.9620  222.2730 C   0  0  0  0  0  0  0  0  0  0  0  0
  138.4953   71.3790  221.4862 H   0  0  0  0  0  0  0  0  0  0  0  0
  139.8992   70.3046  221.8226 H   0  0  0  0  0  0  0  0  0  0  0  0
  141.1390   73.7340  221.8350 N   0  0  0  0  0  0  0  0  0  0  0  0
  141.2880   74.9440  221.2360 C   0  0  0  0  0  0  0  0  0  0  0  0
  142.5760   75.3600  220.7290 N   0  0  0  0  0  0  0  0  0  0  0  0
  142.6560   76.3980  220.8360 H   0  0  0  0  0  0  0  0  0  0  0  0
  143.3260   74.9210  221.3150 H   0  0  0  0  0  0  0  0  0  0  0  0
  142.7660   75.0410  219.2990 C   0  0  0  0  0  0  0  0  0  0  0  0
  143.8431   75.0389  219.0756 H   0  0  0  0  0  0  0  0  0  0  0  0
  142.3183   74.0545  219.1084 H   0  0  0  0  0  0  0  0  0  0  0  0
  142.0690   76.0660  218.3810 C   0  0  0  0  0  0  0  0  0  0  0  0
  142.7692   76.3745  217.5907 H   0  0  0  0  0  0  0  0  0  0  0  0
  141.1765   75.5934  217.9450 H   0  0  0  0  0  0  0  0  0  0  0  0
  141.6430   77.2600  219.1410 N   0  0  0  0  0  0  0  0  0  0  0  0
  142.5640   78.3920  218.9360 C   0  0  0  0  0  0  0  0  0  0  0  0
  143.1852   78.5337  219.8327 H   0  0  0  0  0  0  0  0  0  0  0  0
  143.2241   78.1942  218.0786 H   0  0  0  0  0  0  0  0  0  0  0  0
  141.7320   79.6430  218.6820 C   0  0  0  0  0  0  0  0  0  0  0  0
  142.0325   80.4508  219.3655 H   0  0  0  0  0  0  0  0  0  0  0  0
  141.8671   80.0244  217.6592 H   0  0  0  0  0  0  0  0  0  0  0  0
  140.3030   79.2320  218.9450 C   0  0  0  0  0  0  0  0  0  0  0  0
  140.0053   79.4885  219.9724 H   0  0  0  0  0  0  0  0  0  0  0  0
  139.5874   79.7431  218.2842 H   0  0  0  0  0  0  0  0  0  0  0  0
  140.3100   77.7330  218.7460 C   0  0  0  0  0  0  0  0  0  0  0  0
  139.5395   77.2636  219.3753 H   0  0  0  0  0  0  0  0  0  0  0  0
  140.0921   77.4722  217.6998 H   0  0  0  0  0  0  0  0  0  0  0  0
  140.2330   75.8050  221.2060 N   0  0  0  0  0  0  0  0  0  0  0  0
  140.3540   76.7510  220.7780 H   0  0  0  0  0  0  0  0  0  0  0  0
  141.2180   78.3370  223.0730 C   0  0  0  0  0  0  0  0  0  0  0  0
  141.2188   77.2539  223.2648 H   0  0  0  0  0  0  0  0  0  0  0  0
  142.4290   79.0340  223.0070 C   0  0  0  0  0  0  0  0  0  0  0  0
  143.3789   78.4999  223.1568 H   0  0  0  0  0  0  0  0  0  0  0  0
  1  2  1  0
  2  3  2  0
  3  4  1  0
  3  5  1  0
  5  6  1  0
  5  7  2  0
  7  8  1  0
  8  9  1  0
  8 10  1  0
  8 11  1  0
 11 12  1  0
 11 13  1  0
 11 14  1  0
 14 15  1  0
 14 16  2  0
 16 17  1  0
 17 18  2  0
 18 19  1  0
 19 20  1  0
 20 21  1  0
 20 22  1  0
 20 23  1  0
 23 24  2  0
 24 25  1  0
 24 26  1  0
 26 27  1  0
 26 28  2  0
 28 29  1  0
 28 30  1  0
 30 31  1  0
 30 32  2  0
 32 33  1  0
 33 34  1  0
 33 35  1  0
 33 36  1  0
 36 37  1  0
 36 38  1  0
 18 39  1  0
 39 40  2  0
 40 41  1  0
 41 42  1  0
 41 43  1  0
 41 44  1  0
 44 45  1  0
 44 46  1  0
 44 47  1  0
 47 48  1  0
 47 49  1  0
 47 50  1  0
 50 51  1  0
 51 52  1  0
 51 53  1  0
 51 54  1  0
 54 55  1  0
 54 56  1  0
 54 57  1  0
 57 58  1  0
 57 59  1  0
 57 60  1  0
 60 61  1  0
 60 62  1  0
 40 63  1  0
 63 64  1  0
  7 65  1  0
 65 66  1  0
 65 67  2  0
 67 68  1  0
 67  2  1  0
 63 16  1  0
 36 19  1  0
 60 50  1  0
 32 23  1  0
M  CHG  2  14   1  41   1
M  END
>  <UniqueID>  (9) 
668

>  <SMILES>  (9) 
c1ccc(CC/[NH+]=c2\nc(N3CCc4ccccc4C3)nc([NH2+]CCN3CCCC3)[nH]2)cc1

>  <Energy>  (9) 
71.50899235349316

>  <Genealogy>  (9) 
c1ccc(CC[NH2+]c2nc([NH2+]CCN3CCCC3)nc(N3CCc4ccccc4C3)n2)cc1 (protonated)
c1ccc(CC[NH+]=c2nc(N3CCc4ccccc4C3)nc([NH2+]CCN3CCCC3)[nH]2)cc1 (tautomer)
c1ccc(CC/[NH+]=c2\nc(N3CCc4ccccc4C3)nc([NH2+]CCN3CCCC3)[nH]2)cc1 (cis-trans isomerization)
c1ccc(CC/[NH+]=c2\nc(N3CCc4ccccc4C3)nc([NH2+]CCN3CCCC3)[nH]2)cc1 (3D coordinates assigned)
c1ccc(CC/[NH+]=c2\nc(N3CCc4ccccc4C3)nc([NH2+]CCN3CCCC3)[nH]2)cc1 (nonaromatic ring conformer: 71.50899235349316 kcal/mol)

>  <smiles>  (9) 
c1ccc(CCNc2nc(NCCN3CCCC3)nc(N3CCc4ccccc4C3)n2)cc1

>  <score_type>  (9) 
oracle

>  <origin>  (9) 
autodockgpu

>  <m_score__min__energy>  (9) 
-9.5

>  <m_primary>  (9) 
energy

>  <meeko>  (9) 
{"free_energy": -7.88, "intermolecular_energy": -10.56, "internal_energy": -2.47, "cluster_size": 4, "cluster_id": 4, "rank_in_cluster": 2}

>  <energy>  (9) 
-8.62

>  <cluster_rmsd>  (9) 
1.83

>  <rmsd>  (9) 
271.85

>  <cluster>  (9) 
1

$$$$
FPFWJFTVWFQHMH-IEMWKULYNA-P
     RDKit          3D

 68 72  0  0  0  0  0  0  0  0999 V2000
  142.3384   82.2815  222.8448 H   0  0  0  0  0  0  0  0  0  0  0  0
  142.0550   81.2200  222.7910 C   0  0  0  0  0  0  0  0  0  0  0  0
  141.3760   80.7340  221.6700 C   0  0  0  0  0  0  0  0  0  0  0  0
  141.1332   81.4116  220.8382 H   0  0  0  0  0  0  0  0  0  0  0  0
  141.0050   79.3870  221.6050 C   0  0  0  0  0  0  0  0  0  0  0  0
  140.4594   79.0111  220.7269 H   0  0  0  0  0  0  0  0  0  0  0  0
  141.3260   78.5120  222.6560 C   0  0  0  0  0  0  0  0  0  0  0  0
  140.8710   77.0750  222.6130 C   0  0  0  0  0  0  0  0  0  0  0  0
  141.4280   76.5481  221.8242 H   0  0  0  0  0  0  0  0  0  0  0  0
  141.0624   76.6250  223.5983 H   0  0  0  0  0  0  0  0  0  0  0  0
  139.3690   76.9640  222.3200 C   0  0  0  0  0  0  0  0  0  0  0  0
  138.8276   76.8093  223.2650 H   0  0  0  0  0  0  0  0  0  0  0  0
  139.0346   77.8930  221.8350 H   0  0  0  0  0  0  0  0  0  0  0  0
  139.0960   75.8380  221.4190 N   0  0  0  0  0  0  0  0  0  0  0  0
  138.3410   75.9780  220.7110 H   0  0  0  0  0  0  0  0  0  0  0  0
  139.7890   74.7300  221.4010 C   0  0  0  0  0  0  0  0  0  0  0  0
  139.5990   73.7770  222.3540 N   0  0  0  0  0  0  0  0  0  0  0  0
  140.3400   72.6400  222.3620 C   0  0  0  0  0  0  0  0  0  0  0  0
  140.1380   71.6320  223.3740 N   0  0  0  0  0  0  0  0  0  0  0  0
  140.6870   71.8700  224.7220 C   0  0  0  0  0  0  0  0  0  0  0  0
  140.3280   72.8478  225.0757 H   0  0  0  0  0  0  0  0  0  0  0  0
  141.7829   71.8324  224.6345 H   0  0  0  0  0  0  0  0  0  0  0  0
  140.2880   70.8210  225.7330 C   0  0  0  0  0  0  0  0  0  0  0  0
  140.8840   70.8410  227.0040 C   0  0  0  0  0  0  0  0  0  0  0  0
  141.6511   71.5945  227.2361 H   0  0  0  0  0  0  0  0  0  0  0  0
  140.5090   69.9100  227.9760 C   0  0  0  0  0  0  0  0  0  0  0  0
  140.9876   69.9262  228.9663 H   0  0  0  0  0  0  0  0  0  0  0  0
  139.5270   68.9590  227.6910 C   0  0  0  0  0  0  0  0  0  0  0  0
  139.2297   68.2294  228.4586 H   0  0  0  0  0  0  0  0  0  0  0  0
  138.9210   68.9330  226.4310 C   0  0  0  0  0  0  0  0  0  0  0  0
  138.1399   68.1896  226.2137 H   0  0  0  0  0  0  0  0  0  0  0  0
  139.3060   69.8520  225.4430 C   0  0  0  0  0  0  0  0  0  0  0  0
  138.6300   69.8420  224.1030 C   0  0  0  0  0  0  0  0  0  0  0  0
  137.7600   70.5146  224.1301 H   0  0  0  0  0  0  0  0  0  0  0  0
  138.3056   68.8164  223.8729 H   0  0  0  0  0  0  0  0  0  0  0  0
  139.5960   70.3120  223.0210 C   0  0  0  0  0  0  0  0  0  0  0  0
  139.0631   70.3812  222.0612 H   0  0  0  0  0  0  0  0  0  0  0  0
  140.4230   69.5917  222.9358 H   0  0  0  0  0  0  0  0  0  0  0  0
  141.2830   72.4620  221.4030 N   0  0  0  0  0  0  0  0  0  0  0  0
  141.4780   73.3890  220.4290 C   0  0  0  0  0  0  0  0  0  0  0  0
  142.5310   73.2190  219.4540 N   0  0  0  0  0  0  0  0  0  0  0  0
  142.5960   72.2040  219.2090 H   0  0  0  0  0  0  0  0  0  0  0  0
  142.2710   73.7400  218.5840 H   0  0  0  0  0  0  0  0  0  0  0  0
  143.8550   73.6460  219.9520 C   0  0  0  0  0  0  0  0  0  0  0  0
  143.9672   73.3114  220.9939 H   0  0  0  0  0  0  0  0  0  0  0  0
  144.6223   73.1965  219.3045 H   0  0  0  0  0  0  0  0  0  0  0  0
  144.0260   75.1770  219.9000 C   0  0  0  0  0  0  0  0  0  0  0  0
  144.0187   75.5739  220.9259 H   0  0  0  0  0  0  0  0  0  0  0  0
  144.9807   75.4041  219.4030 H   0  0  0  0  0  0  0  0  0  0  0  0
  142.9350   75.8110  219.1300 N   0  0  0  0  0  0  0  0  0  0  0  0
  142.5490   77.1110  219.7060 C   0  0  0  0  0  0  0  0  0  0  0  0
  141.5869   77.0149  220.2305 H   0  0  0  0  0  0  0  0  0  0  0  0
  143.3095   77.4487  220.4254 H   0  0  0  0  0  0  0  0  0  0  0  0
  142.4180   78.1160  218.5680 C   0  0  0  0  0  0  0  0  0  0  0  0
  141.4389   78.6158  218.6064 H   0  0  0  0  0  0  0  0  0  0  0  0
  143.1814   78.9056  218.6288 H   0  0  0  0  0  0  0  0  0  0  0  0
  142.5480   77.3040  217.3010 C   0  0  0  0  0  0  0  0  0  0  0  0
  141.5574   77.0346  216.9058 H   0  0  0  0  0  0  0  0  0  0  0  0
  143.0570   77.8541  216.4958 H   0  0  0  0  0  0  0  0  0  0  0  0
  143.3080   76.0700  217.7340 C   0  0  0  0  0  0  0  0  0  0  0  0
  143.0304   75.2132  217.1025 H   0  0  0  0  0  0  0  0  0  0  0  0
  144.3933   76.2201  217.6365 H   0  0  0  0  0  0  0  0  0  0  0  0
  140.7340   74.5290  220.4380 N   0  0  0  0  0  0  0  0  0  0  0  0
  140.9050   75.2610  219.7120 H   0  0  0  0  0  0  0  0  0  0  0  0
  142.0170   79.0060  223.7760 C   0  0  0  0  0  0  0  0  0  0  0  0
  142.2780   78.3279  224.6019 H   0  0  0  0  0  0  0  0  0  0  0  0
  142.3740   80.3570  223.8440 C   0  0  0  0  0  0  0  0  0  0  0  0
  142.9062   80.7408  224.7268 H   0  0  0  0  0  0  0  0  0  0  0  0
  1  2  1  0
  2  3  2  0
  3  4  1  0
  3  5  1  0
  5  6  1  0
  5  7  2  0
  7  8  1  0
  8  9  1  0
  8 10  1  0
  8 11  1  0
 11 12  1  0
 11 13  1  0
 11 14  1  0
 14 15  1  0
 14 16  2  0
 16 17  1  0
 17 18  2  0
 18 19  1  0
 19 20  1  0
 20 21  1  0
 20 22  1  0
 20 23  1  0
 23 24  2  0
 24 25  1  0
 24 26  1  0
 26 27  1  0
 26 28  2  0
 28 29  1  0
 28 30  1  0
 30 31  1  0
 30 32  2  0
 32 33  1  0
 33 34  1  0
 33 35  1  0
 33 36  1  0
 36 37  1  0
 36 38  1  0
 18 39  1  0
 39 40  2  0
 40 41  1  0
 41 42  1  0
 41 43  1  0
 41 44  1  0
 44 45  1  0
 44 46  1  0
 44 47  1  0
 47 48  1  0
 47 49  1  0
 47 50  1  0
 50 51  1  0
 51 52  1  0
 51 53  1  0
 51 54  1  0
 54 55  1  0
 54 56  1  0
 54 57  1  0
 57 58  1  0
 57 59  1  0
 57 60  1  0
 60 61  1  0
 60 62  1  0
 40 63  1  0
 63 64  1  0
  7 65  1  0
 65 66  1  0
 65 67  2  0
 67 68  1  0
 67  2  1  0
 63 16  1  0
 36 19  1  0
 60 50  1  0
 32 23  1  0
M  CHG  2  14   1  41   1
M  END
>  <UniqueID>  (10) 
668

>  <SMILES>  (10) 
c1ccc(CC/[NH+]=c2\nc(N3CCc4ccccc4C3)nc([NH2+]CCN3CCCC3)[nH]2)cc1

>  <Energy>  (10) 
71.50899235349316

>  <Genealogy>  (10) 
c1ccc(CC[NH2+]c2nc([NH2+]CCN3CCCC3)nc(N3CCc4ccccc4C3)n2)cc1 (protonated)
c1ccc(CC[NH+]=c2nc(N3CCc4ccccc4C3)nc([NH2+]CCN3CCCC3)[nH]2)cc1 (tautomer)
c1ccc(CC/[NH+]=c2\nc(N3CCc4ccccc4C3)nc([NH2+]CCN3CCCC3)[nH]2)cc1 (cis-trans isomerization)
c1ccc(CC/[NH+]=c2\nc(N3CCc4ccccc4C3)nc([NH2+]CCN3CCCC3)[nH]2)cc1 (3D coordinates assigned)
c1ccc(CC/[NH+]=c2\nc(N3CCc4ccccc4C3)nc([NH2+]CCN3CCCC3)[nH]2)cc1 (nonaromatic ring conformer: 71.50899235349316 kcal/mol)

>  <smiles>  (10) 
c1ccc(CCNc2nc(NCCN3CCCC3)nc(N3CCc4ccccc4C3)n2)cc1

>  <score_type>  (10) 
oracle

>  <origin>  (10) 
autodockgpu

>  <m_score__min__energy>  (10) 
-9.5

>  <m_primary>  (10) 
energy

>  <meeko>  (10) 
{"free_energy": -8.53, "intermolecular_energy": -11.22, "internal_energy": -1.94, "cluster_size": 12, "cluster_id": 1, "rank_in_cluster": 12}

>  <energy>  (10) 
-8.62

>  <cluster_rmsd>  (10) 
1.81

>  <rmsd>  (10) 
271.86

>  <cluster>  (10) 
1

$$$$
FPFWJFTVWFQHMH-IEMWKULYNA-P
     RDKit          3D

 68 72  0  0  0  0  0  0  0  0999 V2000
  142.0998   82.2792  223.7621 H   0  0  0  0  0  0  0  0  0  0  0  0
  141.8440   81.2420  223.5000 C   0  0  0  0  0  0  0  0  0  0  0  0
  140.5110   80.8220  223.5300 C   0  0  0  0  0  0  0  0  0  0  0  0
  139.7176   81.5314  223.8080 H   0  0  0  0  0  0  0  0  0  0  0  0
  140.1850   79.5010  223.2070 C   0  0  0  0  0  0  0  0  0  0  0  0
  139.1361   79.1715  223.2437 H   0  0  0  0  0  0  0  0  0  0  0  0
  141.1900   78.5930  222.8360 C   0  0  0  0  0  0  0  0  0  0  0  0
  140.8450   77.1540  222.5490 C   0  0  0  0  0  0  0  0  0  0  0  0
  141.3714   76.8363  221.6369 H   0  0  0  0  0  0  0  0  0  0  0  0
  141.1539   76.5483  223.4137 H   0  0  0  0  0  0  0  0  0  0  0  0
  139.3370   76.9620  222.3450 C   0  0  0  0  0  0  0  0  0  0  0  0
  138.8605   76.7866  223.3208 H   0  0  0  0  0  0  0  0  0  0  0  0
  138.9263   77.8682  221.8759 H   0  0  0  0  0  0  0  0  0  0  0  0
  139.0720   75.8160  221.4670 N   0  0  0  0  0  0  0  0  0  0  0  0
  138.2980   75.9280  220.7740 H   0  0  0  0  0  0  0  0  0  0  0  0
  139.7900   74.7250  221.4500 C   0  0  0  0  0  0  0  0  0  0  0  0
  139.6060   73.7580  222.3890 N   0  0  0  0  0  0  0  0  0  0  0  0
  140.3730   72.6380  222.3980 C   0  0  0  0  0  0  0  0  0  0  0  0
  140.1770   71.6140  223.3960 N   0  0  0  0  0  0  0  0  0  0  0  0
  140.7260   71.8360  224.7470 C   0  0  0  0  0  0  0  0  0  0  0  0
  140.3624   72.8069  225.1147 H   0  0  0  0  0  0  0  0  0  0  0  0
  141.8220   71.8054  224.6583 H   0  0  0  0  0  0  0  0  0  0  0  0
  140.3330   70.7710  225.7430 C   0  0  0  0  0  0  0  0  0  0  0  0
  140.9300   70.7750  227.0140 C   0  0  0  0  0  0  0  0  0  0  0  0
  141.6935   71.5289  227.2564 H   0  0  0  0  0  0  0  0  0  0  0  0
  140.5610   69.8280  227.9730 C   0  0  0  0  0  0  0  0  0  0  0  0
  141.0406   69.8316  228.9629 H   0  0  0  0  0  0  0  0  0  0  0  0
  139.5830   68.8770  227.6740 C   0  0  0  0  0  0  0  0  0  0  0  0
  139.2897   68.1348  228.4311 H   0  0  0  0  0  0  0  0  0  0  0  0
  138.9760   68.8660  226.4150 C   0  0  0  0  0  0  0  0  0  0  0  0
  138.1985   68.1217  226.1878 H   0  0  0  0  0  0  0  0  0  0  0  0
  139.3550   69.8010  225.4400 C   0  0  0  0  0  0  0  0  0  0  0  0
  138.6780   69.8070  224.1000 C   0  0  0  0  0  0  0  0  0  0  0  0
  137.8044   70.4744  224.1374 H   0  0  0  0  0  0  0  0  0  0  0  0
  138.3587   68.7833  223.8550 H   0  0  0  0  0  0  0  0  0  0  0  0
  139.6410   70.2980  223.0250 C   0  0  0  0  0  0  0  0  0  0  0  0
  139.1071   70.3788  222.0666 H   0  0  0  0  0  0  0  0  0  0  0  0
  140.4715   69.5830  222.9294 H   0  0  0  0  0  0  0  0  0  0  0  0
  141.3370   72.4930  221.4550 N   0  0  0  0  0  0  0  0  0  0  0  0
  141.5270   73.4340  220.4940 C   0  0  0  0  0  0  0  0  0  0  0  0
  142.6010   73.3000  219.5370 N   0  0  0  0  0  0  0  0  0  0  0  0
  142.7040   72.2870  219.2930 H   0  0  0  0  0  0  0  0  0  0  0  0
  142.3380   73.8120  218.6620 H   0  0  0  0  0  0  0  0  0  0  0  0
  143.9020   73.7700  220.0550 C   0  0  0  0  0  0  0  0  0  0  0  0
  143.9980   73.4614  221.1065 H   0  0  0  0  0  0  0  0  0  0  0  0
  144.6949   73.3252  219.4357 H   0  0  0  0  0  0  0  0  0  0  0  0
  144.0370   75.3040  219.9720 C   0  0  0  0  0  0  0  0  0  0  0  0
  144.0140   75.7219  220.9893 H   0  0  0  0  0  0  0  0  0  0  0  0
  144.9890   75.5438  219.4759 H   0  0  0  0  0  0  0  0  0  0  0  0
  142.9360   75.8950  219.1830 N   0  0  0  0  0  0  0  0  0  0  0  0
  142.4900   77.1800  219.7510 C   0  0  0  0  0  0  0  0  0  0  0  0
  141.5231   77.0474  220.2584 H   0  0  0  0  0  0  0  0  0  0  0  0
  143.2238   77.5469  220.4837 H   0  0  0  0  0  0  0  0  0  0  0  0
  142.3410   78.1790  218.6090 C   0  0  0  0  0  0  0  0  0  0  0  0
  141.3434   78.6419  218.6298 H   0  0  0  0  0  0  0  0  0  0  0  0
  143.0731   78.9968  218.6816 H   0  0  0  0  0  0  0  0  0  0  0  0
  142.5230   77.3710  217.3460 C   0  0  0  0  0  0  0  0  0  0  0  0
  141.5501   77.0634  216.9351 H   0  0  0  0  0  0  0  0  0  0  0  0
  143.0240   77.9393  216.5485 H   0  0  0  0  0  0  0  0  0  0  0  0
  143.3220   76.1680  217.7930 C   0  0  0  0  0  0  0  0  0  0  0  0
  143.0883   75.3009  217.1578 H   0  0  0  0  0  0  0  0  0  0  0  0
  144.4022   76.3600  217.7138 H   0  0  0  0  0  0  0  0  0  0  0  0
  140.7560   74.5570  220.5020 N   0  0  0  0  0  0  0  0  0  0  0  0
  140.9240   75.3000  219.7860 H   0  0  0  0  0  0  0  0  0  0  0  0
  142.5280   79.0250  222.8010 C   0  0  0  0  0  0  0  0  0  0  0  0
  143.3228   78.3232  222.5083 H   0  0  0  0  0  0  0  0  0  0  0  0
  142.8520   80.3440  223.1370 C   0  0  0  0  0  0  0  0  0  0  0  0
  143.9009   80.6747  223.1155 H   0  0  0  0  0  0  0  0  0  0  0  0
  1  2  1  0
  2  3  2  0
  3  4  1  0
  3  5  1  0
  5  6  1  0
  5  7  2  0
  7  8  1  0
  8  9  1  0
  8 10  1  0
  8 11  1  0
 11 12  1  0
 11 13  1  0
 11 14  1  0
 14 15  1  0
 14 16  2  0
 16 17  1  0
 17 18  2  0
 18 19  1  0
 19 20  1  0
 20 21  1  0
 20 22  1  0
 20 23  1  0
 23 24  2  0
 24 25  1  0
 24 26  1  0
 26 27  1  0
 26 28  2  0
 28 29  1  0
 28 30  1  0
 30 31  1  0
 30 32  2  0
 32 33  1  0
 33 34  1  0
 33 35  1  0
 33 36  1  0
 36 37  1  0
 36 38  1  0
 18 39  1  0
 39 40  2  0
 40 41  1  0
 41 42  1  0
 41 43  1  0
 41 44  1  0
 44 45  1  0
 44 46  1  0
 44 47  1  0
 47 48  1  0
 47 49  1  0
 47 50  1  0
 50 51  1  0
 51 52  1  0
 51 53  1  0
 51 54  1  0
 54 55  1  0
 54 56  1  0
 54 57  1  0
 57 58  1  0
 57 59  1  0
 57 60  1  0
 60 61  1  0
 60 62  1  0
 40 63  1  0
 63 64  1  0
  7 65  1  0
 65 66  1  0
 65 67  2  0
 67 68  1  0
 67  2  1  0
 63 16  1  0
 36 19  1  0
 60 50  1  0
 32 23  1  0
M  CHG  2  14   1  41   1
M  END
>  <UniqueID>  (11) 
668

>  <SMILES>  (11) 
c1ccc(CC/[NH+]=c2\nc(N3CCc4ccccc4C3)nc([NH2+]CCN3CCCC3)[nH]2)cc1

>  <Energy>  (11) 
71.50899235349316

>  <Genealogy>  (11) 
c1ccc(CC[NH2+]c2nc([NH2+]CCN3CCCC3)nc(N3CCc4ccccc4C3)n2)cc1 (protonated)
c1ccc(CC[NH+]=c2nc(N3CCc4ccccc4C3)nc([NH2+]CCN3CCCC3)[nH]2)cc1 (tautomer)
c1ccc(CC/[NH+]=c2\nc(N3CCc4ccccc4C3)nc([NH2+]CCN3CCCC3)[nH]2)cc1 (cis-trans isomerization)
c1ccc(CC/[NH+]=c2\nc(N3CCc4ccccc4C3)nc([NH2+]CCN3CCCC3)[nH]2)cc1 (3D coordinates assigned)
c1ccc(CC/[NH+]=c2\nc(N3CCc4ccccc4C3)nc([NH2+]CCN3CCCC3)[nH]2)cc1 (nonaromatic ring conformer: 71.50899235349316 kcal/mol)

>  <smiles>  (11) 
c1ccc(CCNc2nc(NCCN3CCCC3)nc(N3CCc4ccccc4C3)n2)cc1

>  <score_type>  (11) 
oracle

>  <origin>  (11) 
autodockgpu

>  <m_score__min__energy>  (11) 
-9.5

>  <m_primary>  (11) 
energy

>  <meeko>  (11) 
{"free_energy": -8.69, "intermolecular_energy": -11.38, "internal_energy": -1.88, "cluster_size": 12, "cluster_id": 1, "rank_in_cluster": 5}

>  <energy>  (11) 
-8.56

>  <cluster_rmsd>  (11) 
1.75

>  <rmsd>  (11) 
271.8

>  <cluster>  (11) 
1

$$$$
FPFWJFTVWFQHMH-IEMWKULYNA-P
     RDKit          3D

 68 72  0  0  0  0  0  0  0  0999 V2000
  142.8903   80.3867  224.0458 H   0  0  0  0  0  0  0  0  0  0  0  0
  141.9430   79.9850  223.6570 C   0  0  0  0  0  0  0  0  0  0  0  0
  141.8250   78.6210  223.3770 C   0  0  0  0  0  0  0  0  0  0  0  0
  142.6771   77.9483  223.5540 H   0  0  0  0  0  0  0  0  0  0  0  0
  140.6250   78.1100  222.8720 C   0  0  0  0  0  0  0  0  0  0  0  0
  140.5405   77.0378  222.6413 H   0  0  0  0  0  0  0  0  0  0  0  0
  139.5270   78.9600  222.6580 C   0  0  0  0  0  0  0  0  0  0  0  0
  138.2550   78.4200  222.0550 C   0  0  0  0  0  0  0  0  0  0  0  0
  137.4445   79.1440  222.2247 H   0  0  0  0  0  0  0  0  0  0  0  0
  138.4245   78.2635  220.9795 H   0  0  0  0  0  0  0  0  0  0  0  0
  137.8590   77.0750  222.6780 C   0  0  0  0  0  0  0  0  0  0  0  0
  138.4659   76.9022  223.5790 H   0  0  0  0  0  0  0  0  0  0  0  0
  136.7903   77.1072  222.9367 H   0  0  0  0  0  0  0  0  0  0  0  0
  138.0810   75.9760  221.7300 N   0  0  0  0  0  0  0  0  0  0  0  0
  137.3870   75.8800  220.9550 H   0  0  0  0  0  0  0  0  0  0  0  0
  139.1220   75.1870  221.7540 C   0  0  0  0  0  0  0  0  0  0  0  0
  139.0510   73.9640  222.3470 N   0  0  0  0  0  0  0  0  0  0  0  0
  140.1380   73.1530  222.4070 C   0  0  0  0  0  0  0  0  0  0  0  0
  140.0610   71.8570  223.0380 N   0  0  0  0  0  0  0  0  0  0  0  0
  140.6620   71.6890  224.3740 C   0  0  0  0  0  0  0  0  0  0  0  0
  140.2553   72.4658  225.0382 H   0  0  0  0  0  0  0  0  0  0  0  0
  141.7518   71.7726  224.2498 H   0  0  0  0  0  0  0  0  0  0  0  0
  140.3900   70.3400  224.9950 C   0  0  0  0  0  0  0  0  0  0  0  0
  141.0500   69.9940  226.1860 C   0  0  0  0  0  0  0  0  0  0  0  0
  141.7741   70.6918  226.6318 H   0  0  0  0  0  0  0  0  0  0  0  0
  140.7930   68.7700  226.8080 C   0  0  0  0  0  0  0  0  0  0  0  0
  141.3201   68.5032  227.7359 H   0  0  0  0  0  0  0  0  0  0  0  0
  139.8670   67.8850  226.2520 C   0  0  0  0  0  0  0  0  0  0  0  0
  139.6627   66.9231  226.7449 H   0  0  0  0  0  0  0  0  0  0  0  0
  139.1990   68.2190  225.0700 C   0  0  0  0  0  0  0  0  0  0  0  0
  138.4619   67.5239  224.6416 H   0  0  0  0  0  0  0  0  0  0  0  0
  139.4660   69.4390  224.4280 C   0  0  0  0  0  0  0  0  0  0  0  0
  138.7240   69.8080  223.1770 C   0  0  0  0  0  0  0  0  0  0  0  0
  137.8107   70.3590  223.4457 H   0  0  0  0  0  0  0  0  0  0  0  0
  138.4624   68.8894  222.6314 H   0  0  0  0  0  0  0  0  0  0  0  0
  139.5960   70.6840  222.2850 C   0  0  0  0  0  0  0  0  0  0  0  0
  139.0099   71.0172  221.4158 H   0  0  0  0  0  0  0  0  0  0  0  0
  140.4661   70.1029  221.9456 H   0  0  0  0  0  0  0  0  0  0  0  0
  141.3080   73.5800  221.8700 N   0  0  0  0  0  0  0  0  0  0  0  0
  141.3990   74.7870  221.2540 C   0  0  0  0  0  0  0  0  0  0  0  0
  142.6680   75.2590  220.7460 N   0  0  0  0  0  0  0  0  0  0  0  0
  142.6980   76.3000  220.8450 H   0  0  0  0  0  0  0  0  0  0  0  0
  143.4360   74.8610  221.3360 H   0  0  0  0  0  0  0  0  0  0  0  0
  142.8750   74.9380  219.3190 C   0  0  0  0  0  0  0  0  0  0  0  0
  143.9541   74.9480  219.1058 H   0  0  0  0  0  0  0  0  0  0  0  0
  142.4404   73.9457  219.1277 H   0  0  0  0  0  0  0  0  0  0  0  0
  142.1750   75.9510  218.3910 C   0  0  0  0  0  0  0  0  0  0  0  0
  142.8906   76.2937  217.6291 H   0  0  0  0  0  0  0  0  0  0  0  0
  141.3144   75.4544  217.9191 H   0  0  0  0  0  0  0  0  0  0  0  0
  141.6830   77.1190  219.1500 N   0  0  0  0  0  0  0  0  0  0  0  0
  142.5590   78.2910  218.9710 C   0  0  0  0  0  0  0  0  0  0  0  0
  143.1560   78.4521  219.8808 H   0  0  0  0  0  0  0  0  0  0  0  0
  143.2435   78.1281  218.1255 H   0  0  0  0  0  0  0  0  0  0  0  0
  141.6790   79.5080  218.7090 C   0  0  0  0  0  0  0  0  0  0  0  0
  141.9312   80.3226  219.4038 H   0  0  0  0  0  0  0  0  0  0  0  0
  141.8176   79.9029  217.6917 H   0  0  0  0  0  0  0  0  0  0  0  0
  140.2640   79.0340  218.9410 C   0  0  0  0  0  0  0  0  0  0  0  0
  139.9357   79.2697  219.9641 H   0  0  0  0  0  0  0  0  0  0  0  0
  139.5402   79.5190  218.2696 H   0  0  0  0  0  0  0  0  0  0  0  0
  140.3390   77.5380  218.7320 C   0  0  0  0  0  0  0  0  0  0  0  0
  139.5772   77.0315  219.3428 H   0  0  0  0  0  0  0  0  0  0  0  0
  140.1529   77.2762  217.6799 H   0  0  0  0  0  0  0  0  0  0  0  0
  140.3030   75.5940  221.2090 N   0  0  0  0  0  0  0  0  0  0  0  0
  140.3790   76.5400  220.7680 H   0  0  0  0  0  0  0  0  0  0  0  0
  139.6510   80.3300  222.9500 C   0  0  0  0  0  0  0  0  0  0  0  0
  138.7964   81.0039  222.7901 H   0  0  0  0  0  0  0  0  0  0  0  0
  140.8570   80.8390  223.4430 C   0  0  0  0  0  0  0  0  0  0  0  0
  140.9510   81.9127  223.6626 H   0  0  0  0  0  0  0  0  0  0  0  0
  1  2  1  0
  2  3  2  0
  3  4  1  0
  3  5  1  0
  5  6  1  0
  5  7  2  0
  7  8  1  0
  8  9  1  0
  8 10  1  0
  8 11  1  0
 11 12  1  0
 11 13  1  0
 11 14  1  0
 14 15  1  0
 14 16  2  0
 16 17  1  0
 17 18  2  0
 18 19  1  0
 19 20  1  0
 20 21  1  0
 20 22  1  0
 20 23  1  0
 23 24  2  0
 24 25  1  0
 24 26  1  0
 26 27  1  0
 26 28  2  0
 28 29  1  0
 28 30  1  0
 30 31  1  0
 30 32  2  0
 32 33  1  0
 33 34  1  0
 33 35  1  0
 33 36  1  0
 36 37  1  0
 36 38  1  0
 18 39  1  0
 39 40  2  0
 40 41  1  0
 41 42  1  0
 41 43  1  0
 41 44  1  0
 44 45  1  0
 44 46  1  0
 44 47  1  0
 47 48  1  0
 47 49  1  0
 47 50  1  0
 50 51  1  0
 51 52  1  0
 51 53  1  0
 51 54  1  0
 54 55  1  0
 54 56  1  0
 54 57  1  0
 57 58  1  0
 57 59  1  0
 57 60  1  0
 60 61  1  0
 60 62  1  0
 40 63  1  0
 63 64  1  0
  7 65  1  0
 65 66  1  0
 65 67  2  0
 67 68  1  0
 67  2  1  0
 63 16  1  0
 36 19  1  0
 60 50  1  0
 32 23  1  0
M  CHG  2  14   1  41   1
M  END
>  <UniqueID>  (12) 
668

>  <SMILES>  (12) 
c1ccc(CC/[NH+]=c2\nc(N3CCc4ccccc4C3)nc([NH2+]CCN3CCCC3)[nH]2)cc1

>  <Energy>  (12) 
71.50899235349316

>  <Genealogy>  (12) 
c1ccc(CC[NH2+]c2nc([NH2+]CCN3CCCC3)nc(N3CCc4ccccc4C3)n2)cc1 (protonated)
c1ccc(CC[NH+]=c2nc(N3CCc4ccccc4C3)nc([NH2+]CCN3CCCC3)[nH]2)cc1 (tautomer)
c1ccc(CC/[NH+]=c2\nc(N3CCc4ccccc4C3)nc([NH2+]CCN3CCCC3)[nH]2)cc1 (cis-trans isomerization)
c1ccc(CC/[NH+]=c2\nc(N3CCc4ccccc4C3)nc([NH2+]CCN3CCCC3)[nH]2)cc1 (3D coordinates assigned)
c1ccc(CC/[NH+]=c2\nc(N3CCc4ccccc4C3)nc([NH2+]CCN3CCCC3)[nH]2)cc1 (nonaromatic ring conformer: 71.50899235349316 kcal/mol)

>  <smiles>  (12) 
c1ccc(CCNc2nc(NCCN3CCCC3)nc(N3CCc4ccccc4C3)n2)cc1

>  <score_type>  (12) 
oracle

>  <origin>  (12) 
autodockgpu

>  <m_score__min__energy>  (12) 
-9.5

>  <m_primary>  (12) 
energy

>  <meeko>  (12) 
{"free_energy": -7.94, "intermolecular_energy": -10.63, "internal_energy": -2.31, "cluster_size": 4, "cluster_id": 4, "rank_in_cluster": 1}

>  <energy>  (12) 
-8.53

>  <cluster_rmsd>  (12) 
1.78

>  <rmsd>  (12) 
271.75

>  <cluster>  (12) 
1

$$$$
FPFWJFTVWFQHMH-IEMWKULYNA-P
     RDKit          3D

 68 72  0  0  0  0  0  0  0  0999 V2000
  143.0326   80.9821  222.5598 H   0  0  0  0  0  0  0  0  0  0  0  0
  142.1180   80.3830  222.6810 C   0  0  0  0  0  0  0  0  0  0  0  0
  142.2090   79.0100  222.9250 C   0  0  0  0  0  0  0  0  0  0  0  0
  143.1959   78.5304  223.0031 H   0  0  0  0  0  0  0  0  0  0  0  0
  141.0480   78.2450  223.0700 C   0  0  0  0  0  0  0  0  0  0  0  0
  141.1246   77.1627  223.2507 H   0  0  0  0  0  0  0  0  0  0  0  0
  139.7840   78.8520  222.9860 C   0  0  0  0  0  0  0  0  0  0  0  0
  138.5330   78.0160  223.0800 C   0  0  0  0  0  0  0  0  0  0  0  0
  138.7629   77.0906  223.6284 H   0  0  0  0  0  0  0  0  0  0  0  0
  137.7657   78.6043  223.6045 H   0  0  0  0  0  0  0  0  0  0  0  0
  137.9900   77.6500  221.6920 C   0  0  0  0  0  0  0  0  0  0  0  0
  136.9835   78.0778  221.5740 H   0  0  0  0  0  0  0  0  0  0  0  0
  138.6700   78.0560  220.9286 H   0  0  0  0  0  0  0  0  0  0  0  0
  137.9160   76.1940  221.5300 N   0  0  0  0  0  0  0  0  0  0  0  0
  136.9910   75.8020  221.2400 H   0  0  0  0  0  0  0  0  0  0  0  0
  138.9400   75.3910  221.6410 C   0  0  0  0  0  0  0  0  0  0  0  0
  138.8150   74.1890  222.2690 N   0  0  0  0  0  0  0  0  0  0  0  0
  139.8840   73.3660  222.4200 C   0  0  0  0  0  0  0  0  0  0  0  0
  139.7500   72.0930  223.0870 N   0  0  0  0  0  0  0  0  0  0  0  0
  140.5760   71.8350  224.2800 C   0  0  0  0  0  0  0  0  0  0  0  0
  140.4264   72.6606  224.9914 H   0  0  0  0  0  0  0  0  0  0  0  0
  141.6191   71.7592  223.9391 H   0  0  0  0  0  0  0  0  0  0  0  0
  140.2440   70.5380  224.9780 C   0  0  0  0  0  0  0  0  0  0  0  0
  141.0720   70.0960  226.0230 C   0  0  0  0  0  0  0  0  0  0  0  0
  141.9627   70.6798  226.2984 H   0  0  0  0  0  0  0  0  0  0  0  0
  140.7720   68.9200  226.7150 C   0  0  0  0  0  0  0  0  0  0  0  0
  141.4311   68.5755  227.5255 H   0  0  0  0  0  0  0  0  0  0  0  0
  139.6360   68.1820  226.3780 C   0  0  0  0  0  0  0  0  0  0  0  0
  139.3989   67.2585  226.9265 H   0  0  0  0  0  0  0  0  0  0  0  0
  138.7990   68.6140  225.3450 C   0  0  0  0  0  0  0  0  0  0  0  0
  137.8986   68.0355  225.0907 H   0  0  0  0  0  0  0  0  0  0  0  0
  139.1040   69.7840  224.6310 C   0  0  0  0  0  0  0  0  0  0  0  0
  138.1860   70.2610  223.5440 C   0  0  0  0  0  0  0  0  0  0  0  0
  137.4343   70.9389  223.9746 H   0  0  0  0  0  0  0  0  0  0  0  0
  137.6899   69.3925  223.0862 H   0  0  0  0  0  0  0  0  0  0  0  0
  138.9790   71.0030  222.4730 C   0  0  0  0  0  0  0  0  0  0  0  0
  138.2848   71.4212  221.7293 H   0  0  0  0  0  0  0  0  0  0  0  0
  139.6704   70.3016  221.9831 H   0  0  0  0  0  0  0  0  0  0  0  0
  141.0900   73.7580  221.9390 N   0  0  0  0  0  0  0  0  0  0  0  0
  141.2360   74.9430  221.2900 C   0  0  0  0  0  0  0  0  0  0  0  0
  142.5400   75.3790  220.8420 N   0  0  0  0  0  0  0  0  0  0  0  0
  142.6180   76.4100  221.0040 H   0  0  0  0  0  0  0  0  0  0  0  0
  143.2710   74.9090  221.4270 H   0  0  0  0  0  0  0  0  0  0  0  0
  142.7710   75.1330  219.4040 C   0  0  0  0  0  0  0  0  0  0  0  0
  143.8220   74.8429  219.2579 H   0  0  0  0  0  0  0  0  0  0  0  0
  142.0884   74.3325  219.0828 H   0  0  0  0  0  0  0  0  0  0  0  0
  142.4760   76.3810  218.5490 C   0  0  0  0  0  0  0  0  0  0  0  0
  143.4231   76.8919  218.3210 H   0  0  0  0  0  0  0  0  0  0  0  0
  141.9766   76.0591  217.6233 H   0  0  0  0  0  0  0  0  0  0  0  0
  141.5820   77.3180  219.2620 N   0  0  0  0  0  0  0  0  0  0  0  0
  142.1960   78.6500  219.4060 C   0  0  0  0  0  0  0  0  0  0  0  0
  142.5255   78.7979  220.4450 H   0  0  0  0  0  0  0  0  0  0  0  0
  143.0700   78.7393  218.7441 H   0  0  0  0  0  0  0  0  0  0  0  0
  141.1500   79.6980  219.0420 C   0  0  0  0  0  0  0  0  0  0  0  0
  141.0557   80.4435  219.8454 H   0  0  0  0  0  0  0  0  0  0  0  0
  141.4206   80.2473  218.1282 H   0  0  0  0  0  0  0  0  0  0  0  0
  139.8590   78.9320  218.8770 C   0  0  0  0  0  0  0  0  0  0  0  0
  139.2681   78.9578  219.8044 H   0  0  0  0  0  0  0  0  0  0  0  0
  139.2138   79.3549  218.0929 H   0  0  0  0  0  0  0  0  0  0  0  0
  140.3060   77.5220  218.5640 C   0  0  0  0  0  0  0  0  0  0  0  0
  139.5583   76.7991  218.9223 H   0  0  0  0  0  0  0  0  0  0  0  0
  140.4206   77.3752  217.4799 H   0  0  0  0  0  0  0  0  0  0  0  0
  140.1580   75.7630  221.1540 N   0  0  0  0  0  0  0  0  0  0  0  0
  140.2740   76.6920  220.6880 H   0  0  0  0  0  0  0  0  0  0  0  0
  139.7000   80.2350  222.7490 C   0  0  0  0  0  0  0  0  0  0  0  0
  138.7154   80.7216  222.6875 H   0  0  0  0  0  0  0  0  0  0  0  0
  140.8640   80.9950  222.5910 C   0  0  0  0  0  0  0  0  0  0  0  0
  140.7926   82.0752  222.3958 H   0  0  0  0  0  0  0  0  0  0  0  0
  1  2  1  0
  2  3  2  0
  3  4  1  0
  3  5  1  0
  5  6  1  0
  5  7  2  0
  7  8  1  0
  8  9  1  0
  8 10  1  0
  8 11  1  0
 11 12  1  0
 11 13  1  0
 11 14  1  0
 14 15  1  0
 14 16  2  0
 16 17  1  0
 17 18  2  0
 18 19  1  0
 19 20  1  0
 20 21  1  0
 20 22  1  0
 20 23  1  0
 23 24  2  0
 24 25  1  0
 24 26  1  0
 26 27  1  0
 26 28  2  0
 28 29  1  0
 28 30  1  0
 30 31  1  0
 30 32  2  0
 32 33  1  0
 33 34  1  0
 33 35  1  0
 33 36  1  0
 36 37  1  0
 36 38  1  0
 18 39  1  0
 39 40  2  0
 40 41  1  0
 41 42  1  0
 41 43  1  0
 41 44  1  0
 44 45  1  0
 44 46  1  0
 44 47  1  0
 47 48  1  0
 47 49  1  0
 47 50  1  0
 50 51  1  0
 51 52  1  0
 51 53  1  0
 51 54  1  0
 54 55  1  0
 54 56  1  0
 54 57  1  0
 57 58  1  0
 57 59  1  0
 57 60  1  0
 60 61  1  0
 60 62  1  0
 40 63  1  0
 63 64  1  0
  7 65  1  0
 65 66  1  0
 65 67  2  0
 67 68  1  0
 67  2  1  0
 63 16  1  0
 36 19  1  0
 60 50  1  0
 32 23  1  0
M  CHG  2  14   1  41   1
M  END
>  <UniqueID>  (13) 
668

>  <SMILES>  (13) 
c1ccc(CC/[NH+]=c2\nc(N3CCc4ccccc4C3)nc([NH2+]CCN3CCCC3)[nH]2)cc1

>  <Energy>  (13) 
71.50899235349316

>  <Genealogy>  (13) 
c1ccc(CC[NH2+]c2nc([NH2+]CCN3CCCC3)nc(N3CCc4ccccc4C3)n2)cc1 (protonated)
c1ccc(CC[NH+]=c2nc(N3CCc4ccccc4C3)nc([NH2+]CCN3CCCC3)[nH]2)cc1 (tautomer)
c1ccc(CC/[NH+]=c2\nc(N3CCc4ccccc4C3)nc([NH2+]CCN3CCCC3)[nH]2)cc1 (cis-trans isomerization)
c1ccc(CC/[NH+]=c2\nc(N3CCc4ccccc4C3)nc([NH2+]CCN3CCCC3)[nH]2)cc1 (3D coordinates assigned)
c1ccc(CC/[NH+]=c2\nc(N3CCc4ccccc4C3)nc([NH2+]CCN3CCCC3)[nH]2)cc1 (nonaromatic ring conformer: 71.50899235349316 kcal/mol)

>  <smiles>  (13) 
c1ccc(CCNc2nc(NCCN3CCCC3)nc(N3CCc4ccccc4C3)n2)cc1

>  <score_type>  (13) 
oracle

>  <origin>  (13) 
autodockgpu

>  <m_score__min__energy>  (13) 
-9.5

>  <m_primary>  (13) 
energy

>  <meeko>  (13) 
{"free_energy": -7.75, "intermolecular_energy": -10.43, "internal_energy": -2.55, "cluster_size": 4, "cluster_id": 4, "rank_in_cluster": 4}

>  <energy>  (13) 
-9.04

>  <cluster_rmsd>  (13) 
0.0

>  <rmsd>  (13) 
271.8

>  <cluster>  (13) 
2

$$$$
FPFWJFTVWFQHMH-IEMWKULYNA-P
     RDKit          3D

 68 72  0  0  0  0  0  0  0  0999 V2000
  142.0664   82.3038  223.6961 H   0  0  0  0  0  0  0  0  0  0  0  0
  141.8250   81.2530  223.4780 C   0  0  0  0  0  0  0  0  0  0  0  0
  142.8370   80.3690  223.0930 C   0  0  0  0  0  0  0  0  0  0  0  0
  143.8759   80.7223  223.0164 H   0  0  0  0  0  0  0  0  0  0  0  0
  142.5290   79.0350  222.8050 C   0  0  0  0  0  0  0  0  0  0  0  0
  143.3261   78.3451  222.4907 H   0  0  0  0  0  0  0  0  0  0  0  0
  141.2080   78.5720  222.9150 C   0  0  0  0  0  0  0  0  0  0  0  0
  140.8680   77.1510  222.5450 C   0  0  0  0  0  0  0  0  0  0  0  0
  141.3919   76.8899  221.6137 H   0  0  0  0  0  0  0  0  0  0  0  0
  141.1832   76.4966  223.3711 H   0  0  0  0  0  0  0  0  0  0  0  0
  139.3600   76.9650  222.3360 C   0  0  0  0  0  0  0  0  0  0  0  0
  138.8806   76.7846  223.3094 H   0  0  0  0  0  0  0  0  0  0  0  0
  138.9534   77.8756  221.8719 H   0  0  0  0  0  0  0  0  0  0  0  0
  139.0930   75.8250  221.4490 N   0  0  0  0  0  0  0  0  0  0  0  0
  138.3250   75.9460  220.7520 H   0  0  0  0  0  0  0  0  0  0  0  0
  139.8050   74.7300  221.4300 C   0  0  0  0  0  0  0  0  0  0  0  0
  139.6150   73.7630  222.3690 N   0  0  0  0  0  0  0  0  0  0  0  0
  140.3760   72.6380  222.3770 C   0  0  0  0  0  0  0  0  0  0  0  0
  140.1740   71.6150  223.3730 N   0  0  0  0  0  0  0  0  0  0  0  0
  140.7280   71.8290  224.7230 C   0  0  0  0  0  0  0  0  0  0  0  0
  140.3741   72.8024  225.0935 H   0  0  0  0  0  0  0  0  0  0  0  0
  141.8234   71.7882  224.6315 H   0  0  0  0  0  0  0  0  0  0  0  0
  140.3280   70.7660  225.7180 C   0  0  0  0  0  0  0  0  0  0  0  0
  140.9280   70.7620  226.9880 C   0  0  0  0  0  0  0  0  0  0  0  0
  141.6987   71.5086  227.2303 H   0  0  0  0  0  0  0  0  0  0  0  0
  140.5530   69.8170  227.9450 C   0  0  0  0  0  0  0  0  0  0  0  0
  141.0350   69.8150  228.9338 H   0  0  0  0  0  0  0  0  0  0  0  0
  139.5670   68.8750  227.6480 C   0  0  0  0  0  0  0  0  0  0  0  0
  139.2693   68.1344  228.4049 H   0  0  0  0  0  0  0  0  0  0  0  0
  138.9570   68.8710  226.3900 C   0  0  0  0  0  0  0  0  0  0  0  0
  138.1728   68.1336  226.1634 H   0  0  0  0  0  0  0  0  0  0  0  0
  139.3420   69.8050  225.4150 C   0  0  0  0  0  0  0  0  0  0  0  0
  138.6620   69.8180  224.0770 C   0  0  0  0  0  0  0  0  0  0  0  0
  137.7936   70.4920  224.1173 H   0  0  0  0  0  0  0  0  0  0  0  0
  138.3342   68.7972  223.8312 H   0  0  0  0  0  0  0  0  0  0  0  0
  139.6260   70.3030  223.0010 C   0  0  0  0  0  0  0  0  0  0  0  0
  139.0905   70.3897  222.0441 H   0  0  0  0  0  0  0  0  0  0  0  0
  140.4505   69.5816  222.9024 H   0  0  0  0  0  0  0  0  0  0  0  0
  141.3390   72.4890  221.4340 N   0  0  0  0  0  0  0  0  0  0  0  0
  141.5350   73.4300  220.4740 C   0  0  0  0  0  0  0  0  0  0  0  0
  142.6080   73.2910  219.5160 N   0  0  0  0  0  0  0  0  0  0  0  0
  142.7050   72.2780  219.2700 H   0  0  0  0  0  0  0  0  0  0  0  0
  142.3490   73.8060  218.6420 H   0  0  0  0  0  0  0  0  0  0  0  0
  143.9120   73.7520  220.0360 C   0  0  0  0  0  0  0  0  0  0  0  0
  143.9996   73.4526  221.0908 H   0  0  0  0  0  0  0  0  0  0  0  0
  144.7030   73.2927  219.4249 H   0  0  0  0  0  0  0  0  0  0  0  0
  144.0640   75.2830  219.9390 C   0  0  0  0  0  0  0  0  0  0  0  0
  144.0534   75.7097  220.9528 H   0  0  0  0  0  0  0  0  0  0  0  0
  145.0151   75.5075  219.4339 H   0  0  0  0  0  0  0  0  0  0  0  0
  142.9640   75.8800  219.1530 N   0  0  0  0  0  0  0  0  0  0  0  0
  142.5200   77.1620  219.7300 C   0  0  0  0  0  0  0  0  0  0  0  0
  141.5531   77.0275  220.2370 H   0  0  0  0  0  0  0  0  0  0  0  0
  143.2543   77.5232  220.4650 H   0  0  0  0  0  0  0  0  0  0  0  0
  142.3720   78.1680  218.5940 C   0  0  0  0  0  0  0  0  0  0  0  0
  141.3748   78.6318  218.6177 H   0  0  0  0  0  0  0  0  0  0  0  0
  143.1051   78.9844  218.6715 H   0  0  0  0  0  0  0  0  0  0  0  0
  142.5530   77.3680  217.3260 C   0  0  0  0  0  0  0  0  0  0  0  0
  141.5797   77.0641  216.9133 H   0  0  0  0  0  0  0  0  0  0  0  0
  143.0546   77.9410  216.5322 H   0  0  0  0  0  0  0  0  0  0  0  0
  143.3510   76.1610  217.7650 C   0  0  0  0  0  0  0  0  0  0  0  0
  143.1165   75.2982  217.1242 H   0  0  0  0  0  0  0  0  0  0  0  0
  144.4315   76.3519  217.6869 H   0  0  0  0  0  0  0  0  0  0  0  0
  140.7710   74.5570  220.4830 N   0  0  0  0  0  0  0  0  0  0  0  0
  140.9430   75.3010  219.7680 H   0  0  0  0  0  0  0  0  0  0  0  0
  140.1970   79.4660  223.3120 C   0  0  0  0  0  0  0  0  0  0  0  0
  139.1596   79.1128  223.4072 H   0  0  0  0  0  0  0  0  0  0  0  0
  140.5060   80.8020  223.5860 C   0  0  0  0  0  0  0  0  0  0  0  0
  139.7101   81.4992  223.8870 H   0  0  0  0  0  0  0  0  0  0  0  0
  1  2  1  0
  2  3  2  0
  3  4  1  0
  3  5  1  0
  5  6  1  0
  5  7  2  0
  7  8  1  0
  8  9  1  0
  8 10  1  0
  8 11  1  0
 11 12  1  0
 11 13  1  0
 11 14  1  0
 14 15  1  0
 14 16  2  0
 16 17  1  0
 17 18  2  0
 18 19  1  0
 19 20  1  0
 20 21  1  0
 20 22  1  0
 20 23  1  0
 23 24  2  0
 24 25  1  0
 24 26  1  0
 26 27  1  0
 26 28  2  0
 28 29  1  0
 28 30  1  0
 30 31  1  0
 30 32  2  0
 32 33  1  0
 33 34  1  0
 33 35  1  0
 33 36  1  0
 36 37  1  0
 36 38  1  0
 18 39  1  0
 39 40  2  0
 40 41  1  0
 41 42  1  0
 41 43  1  0
 41 44  1  0
 44 45  1  0
 44 46  1  0
 44 47  1  0
 47 48  1  0
 47 49  1  0
 47 50  1  0
 50 51  1  0
 51 52  1  0
 51 53  1  0
 51 54  1  0
 54 55  1  0
 54 56  1  0
 54 57  1  0
 57 58  1  0
 57 59  1  0
 57 60  1  0
 60 61  1  0
 60 62  1  0
 40 63  1  0
 63 64  1  0
  7 65  1  0
 65 66  1  0
 65 67  2  0
 67 68  1  0
 67  2  1  0
 63 16  1  0
 36 19  1  0
 60 50  1  0
 32 23  1  0
M  CHG  2  14   1  41   1
M  END
>  <UniqueID>  (14) 
668

>  <SMILES>  (14) 
c1ccc(CC/[NH+]=c2\nc(N3CCc4ccccc4C3)nc([NH2+]CCN3CCCC3)[nH]2)cc1

>  <Energy>  (14) 
71.50899235349316

>  <Genealogy>  (14) 
c1ccc(CC[NH2+]c2nc([NH2+]CCN3CCCC3)nc(N3CCc4ccccc4C3)n2)cc1 (protonated)
c1ccc(CC[NH+]=c2nc(N3CCc4ccccc4C3)nc([NH2+]CCN3CCCC3)[nH]2)cc1 (tautomer)
c1ccc(CC/[NH+]=c2\nc(N3CCc4ccccc4C3)nc([NH2+]CCN3CCCC3)[nH]2)cc1 (cis-trans isomerization)
c1ccc(CC/[NH+]=c2\nc(N3CCc4ccccc4C3)nc([NH2+]CCN3CCCC3)[nH]2)cc1 (3D coordinates assigned)
c1ccc(CC/[NH+]=c2\nc(N3CCc4ccccc4C3)nc([NH2+]CCN3CCCC3)[nH]2)cc1 (nonaromatic ring conformer: 71.50899235349316 kcal/mol)

>  <smiles>  (14) 
c1ccc(CCNc2nc(NCCN3CCCC3)nc(N3CCc4ccccc4C3)n2)cc1

>  <score_type>  (14) 
oracle

>  <origin>  (14) 
autodockgpu

>  <m_score__min__energy>  (14) 
-9.5

>  <m_primary>  (14) 
energy

>  <meeko>  (14) 
{"free_energy": -8.71, "intermolecular_energy": -11.39, "internal_energy": -1.88, "cluster_size": 12, "cluster_id": 1, "rank_in_cluster": 4}

>  <energy>  (14) 
-8.9

>  <cluster_rmsd>  (14) 
0.35

>  <rmsd>  (14) 
271.72

>  <cluster>  (14) 
2

$$$$
FPFWJFTVWFQHMH-IEMWKULYNA-P
     RDKit          3D

 68 72  0  0  0  0  0  0  0  0999 V2000
  143.1942   82.2005  224.0637 H   0  0  0  0  0  0  0  0  0  0  0  0
  142.4710   81.4410  223.7320 C   0  0  0  0  0  0  0  0  0  0  0  0
  141.4540   81.7870  222.8370 C   0  0  0  0  0  0  0  0  0  0  0  0
  141.3832   82.8172  222.4580 H   0  0  0  0  0  0  0  0  0  0  0  0
  140.5270   80.8260  222.4230 C   0  0  0  0  0  0  0  0  0  0  0  0
  139.7205   81.1061  221.7294 H   0  0  0  0  0  0  0  0  0  0  0  0
  140.6210   79.5040  222.8890 C   0  0  0  0  0  0  0  0  0  0  0  0
  139.5840   78.4840  222.4910 C   0  0  0  0  0  0  0  0  0  0  0  0
  139.4417   77.7773  223.3218 H   0  0  0  0  0  0  0  0  0  0  0  0
  138.6490   79.0164  222.2623 H   0  0  0  0  0  0  0  0  0  0  0  0
  140.0080   77.7030  221.2410 C   0  0  0  0  0  0  0  0  0  0  0  0
  139.4610   76.7492  221.2091 H   0  0  0  0  0  0  0  0  0  0  0  0
  139.7758   78.3080  220.3522 H   0  0  0  0  0  0  0  0  0  0  0  0
  141.4500   77.4300  221.2600 N   0  0  0  0  0  0  0  0  0  0  0  0
  141.9340   77.5420  222.1790 H   0  0  0  0  0  0  0  0  0  0  0  0
  142.1250   76.9830  220.2350 C   0  0  0  0  0  0  0  0  0  0  0  0
  142.6770   75.7390  220.2570 N   0  0  0  0  0  0  0  0  0  0  0  0
  143.4090   75.2810  219.2100 C   0  0  0  0  0  0  0  0  0  0  0  0
  143.9950   73.9630  219.2370 N   0  0  0  0  0  0  0  0  0  0  0  0
  144.0760   73.2050  217.9740 C   0  0  0  0  0  0  0  0  0  0  0  0
  144.5758   73.8339  217.2225 H   0  0  0  0  0  0  0  0  0  0  0  0
  143.0461   72.9473  217.6860 H   0  0  0  0  0  0  0  0  0  0  0  0
  144.8400   71.9070  218.0950 C   0  0  0  0  0  0  0  0  0  0  0  0
  144.8400   71.0150  217.0100 C   0  0  0  0  0  0  0  0  0  0  0  0
  144.2636   71.2560  216.1046 H   0  0  0  0  0  0  0  0  0  0  0  0
  145.5670   69.8240  217.0730 C   0  0  0  0  0  0  0  0  0  0  0  0
  145.5545   69.1263  216.2227 H   0  0  0  0  0  0  0  0  0  0  0  0
  146.3100   69.5190  218.2160 C   0  0  0  0  0  0  0  0  0  0  0  0
  146.8858   68.5829  218.2629 H   0  0  0  0  0  0  0  0  0  0  0  0
  146.3230   70.4010  219.3000 C   0  0  0  0  0  0  0  0  0  0  0  0
  146.9187   70.1623  220.1934 H   0  0  0  0  0  0  0  0  0  0  0  0
  145.5790   71.5900  219.2530 C   0  0  0  0  0  0  0  0  0  0  0  0
  145.6210   72.5500  220.4060 C   0  0  0  0  0  0  0  0  0  0  0  0
  146.4379   73.2699  220.2495 H   0  0  0  0  0  0  0  0  0  0  0  0
  145.7891   71.9864  221.3356 H   0  0  0  0  0  0  0  0  0  0  0  0
  144.3010   73.3030  220.5140 C   0  0  0  0  0  0  0  0  0  0  0  0
  144.3776   74.0613  221.3072 H   0  0  0  0  0  0  0  0  0  0  0  0
  143.4974   72.5918  220.7555 H   0  0  0  0  0  0  0  0  0  0  0  0
  143.5910   76.0850  218.1330 N   0  0  0  0  0  0  0  0  0  0  0  0
  143.0330   77.3220  218.0770 C   0  0  0  0  0  0  0  0  0  0  0  0
  143.2900   78.1940  216.9530 N   0  0  0  0  0  0  0  0  0  0  0  0
  143.5710   79.1330  217.3200 H   0  0  0  0  0  0  0  0  0  0  0  0
  144.0980   77.8110  216.4080 H   0  0  0  0  0  0  0  0  0  0  0  0
  142.1090   78.3870  216.0870 C   0  0  0  0  0  0  0  0  0  0  0  0
  142.4501   78.5766  215.0586 H   0  0  0  0  0  0  0  0  0  0  0  0
  141.4955   77.4756  216.1415 H   0  0  0  0  0  0  0  0  0  0  0  0
  141.2400   79.5740  216.5500 C   0  0  0  0  0  0  0  0  0  0  0  0
  141.1255   80.2819  215.7159 H   0  0  0  0  0  0  0  0  0  0  0  0
  140.2604   79.1864  216.8665 H   0  0  0  0  0  0  0  0  0  0  0  0
  141.8590   80.2740  217.6950 N   0  0  0  0  0  0  0  0  0  0  0  0
  142.5800   81.4850  217.2650 C   0  0  0  0  0  0  0  0  0  0  0  0
  143.6646   81.3049  217.3004 H   0  0  0  0  0  0  0  0  0  0  0  0
  142.3006   81.7475  216.2340 H   0  0  0  0  0  0  0  0  0  0  0  0
  142.2140   82.6200  218.2150 C   0  0  0  0  0  0  0  0  0  0  0  0
  143.1216   83.0917  218.6197 H   0  0  0  0  0  0  0  0  0  0  0  0
  141.6433   83.4118  217.7077 H   0  0  0  0  0  0  0  0  0  0  0  0
  141.4160   81.9710  219.3220 C   0  0  0  0  0  0  0  0  0  0  0  0
  142.0612   81.7306  220.1798 H   0  0  0  0  0  0  0  0  0  0  0  0
  140.6230   82.6260  219.7121 H   0  0  0  0  0  0  0  0  0  0  0  0
  140.8710   80.7110  218.6900 C   0  0  0  0  0  0  0  0  0  0  0  0
  140.7339   79.9324  219.4549 H   0  0  0  0  0  0  0  0  0  0  0  0
  139.8933   80.8957  218.2209 H   0  0  0  0  0  0  0  0  0  0  0  0
  142.3080   77.7720  219.1390 N   0  0  0  0  0  0  0  0  0  0  0  0
  141.9070   78.7380  219.1150 H   0  0  0  0  0  0  0  0  0  0  0  0
  141.6510   79.1610  223.7820 C   0  0  0  0  0  0  0  0  0  0  0  0
  141.7362   78.1277  224.1495 H   0  0  0  0  0  0  0  0  0  0  0  0
  142.5680   80.1290  224.2050 C   0  0  0  0  0  0  0  0  0  0  0  0
  143.3667   79.8574  224.9109 H   0  0  0  0  0  0  0  0  0  0  0  0
  1  2  1  0
  2  3  2  0
  3  4  1  0
  3  5  1  0
  5  6  1  0
  5  7  2  0
  7  8  1  0
  8  9  1  0
  8 10  1  0
  8 11  1  0
 11 12  1  0
 11 13  1  0
 11 14  1  0
 14 15  1  0
 14 16  2  0
 16 17  1  0
 17 18  2  0
 18 19  1  0
 19 20  1  0
 20 21  1  0
 20 22  1  0
 20 23  1  0
 23 24  2  0
 24 25  1  0
 24 26  1  0
 26 27  1  0
 26 28  2  0
 28 29  1  0
 28 30  1  0
 30 31  1  0
 30 32  2  0
 32 33  1  0
 33 34  1  0
 33 35  1  0
 33 36  1  0
 36 37  1  0
 36 38  1  0
 18 39  1  0
 39 40  2  0
 40 41  1  0
 41 42  1  0
 41 43  1  0
 41 44  1  0
 44 45  1  0
 44 46  1  0
 44 47  1  0
 47 48  1  0
 47 49  1  0
 47 50  1  0
 50 51  1  0
 51 52  1  0
 51 53  1  0
 51 54  1  0
 54 55  1  0
 54 56  1  0
 54 57  1  0
 57 58  1  0
 57 59  1  0
 57 60  1  0
 60 61  1  0
 60 62  1  0
 40 63  1  0
 63 64  1  0
  7 65  1  0
 65 66  1  0
 65 67  2  0
 67 68  1  0
 67  2  1  0
 63 16  1  0
 36 19  1  0
 60 50  1  0
 32 23  1  0
M  CHG  2  14   1  41   1
M  END
>  <UniqueID>  (15) 
668

>  <SMILES>  (15) 
c1ccc(CC/[NH+]=c2\nc(N3CCc4ccccc4C3)nc([NH2+]CCN3CCCC3)[nH]2)cc1

>  <Energy>  (15) 
71.50899235349316

>  <Genealogy>  (15) 
c1ccc(CC[NH2+]c2nc([NH2+]CCN3CCCC3)nc(N3CCc4ccccc4C3)n2)cc1 (protonated)
c1ccc(CC[NH+]=c2nc(N3CCc4ccccc4C3)nc([NH2+]CCN3CCCC3)[nH]2)cc1 (tautomer)
c1ccc(CC/[NH+]=c2\nc(N3CCc4ccccc4C3)nc([NH2+]CCN3CCCC3)[nH]2)cc1 (cis-trans isomerization)
c1ccc(CC/[NH+]=c2\nc(N3CCc4ccccc4C3)nc([NH2+]CCN3CCCC3)[nH]2)cc1 (3D coordinates assigned)
c1ccc(CC/[NH+]=c2\nc(N3CCc4ccccc4C3)nc([NH2+]CCN3CCCC3)[nH]2)cc1 (nonaromatic ring conformer: 71.50899235349316 kcal/mol)

>  <smiles>  (15) 
c1ccc(CCNc2nc(NCCN3CCCC3)nc(N3CCc4ccccc4C3)n2)cc1

>  <score_type>  (15) 
oracle

>  <origin>  (15) 
autodockgpu

>  <m_score__min__energy>  (15) 
-9.5

>  <m_primary>  (15) 
energy

>  <meeko>  (15) 
{"free_energy": -8.13, "intermolecular_energy": -10.82, "internal_energy": -1.92, "cluster_size": 1, "cluster_id": 3, "rank_in_cluster": 1}

>  <energy>  (15) 
-8.85

>  <cluster_rmsd>  (15) 
0.35

>  <rmsd>  (15) 
271.75

>  <cluster>  (15) 
2

$$$$
FPFWJFTVWFQHMH-IEMWKULYNA-P
     RDKit          3D

 68 72  0  0  0  0  0  0  0  0999 V2000
  142.1195   82.2703  223.7896 H   0  0  0  0  0  0  0  0  0  0  0  0
  141.8510   81.2320  223.5450 C   0  0  0  0  0  0  0  0  0  0  0  0
  142.8290   80.3480  223.0790 C   0  0  0  0  0  0  0  0  0  0  0  0
  143.8688   80.6886  222.9656 H   0  0  0  0  0  0  0  0  0  0  0  0
  142.4860   79.0310  222.7570 C   0  0  0  0  0  0  0  0  0  0  0  0
  143.2554   78.3423  222.3780 H   0  0  0  0  0  0  0  0  0  0  0  0
  141.1640   78.5830  222.9150 C   0  0  0  0  0  0  0  0  0  0  0  0
  140.7840   77.1820  222.5090 C   0  0  0  0  0  0  0  0  0  0  0  0
  141.3470   76.9078  221.6047 H   0  0  0  0  0  0  0  0  0  0  0  0
  141.0243   76.5062  223.3430 H   0  0  0  0  0  0  0  0  0  0  0  0
  139.2830   77.0640  222.2150 C   0  0  0  0  0  0  0  0  0  0  0  0
  138.7308   77.0315  223.1658 H   0  0  0  0  0  0  0  0  0  0  0  0
  138.9707   77.9351  221.6204 H   0  0  0  0  0  0  0  0  0  0  0  0
  138.9960   75.8450  221.4500 N   0  0  0  0  0  0  0  0  0  0  0  0
  138.1620   75.8730  220.8210 H   0  0  0  0  0  0  0  0  0  0  0  0
  139.7590   74.7840  221.4500 C   0  0  0  0  0  0  0  0  0  0  0  0
  139.5650   73.7900  222.3600 N   0  0  0  0  0  0  0  0  0  0  0  0
  140.3760   72.7020  222.3890 C   0  0  0  0  0  0  0  0  0  0  0  0
  140.1700   71.6510  223.3560 N   0  0  0  0  0  0  0  0  0  0  0  0
  140.7020   71.8350  224.7180 C   0  0  0  0  0  0  0  0  0  0  0  0
  140.3326   72.7947  225.1086 H   0  0  0  0  0  0  0  0  0  0  0  0
  141.7990   71.8079  224.6414 H   0  0  0  0  0  0  0  0  0  0  0  0
  140.2990   70.7420  225.6790 C   0  0  0  0  0  0  0  0  0  0  0  0
  140.8810   70.7110  226.9570 C   0  0  0  0  0  0  0  0  0  0  0  0
  141.6407   71.4582  227.2298 H   0  0  0  0  0  0  0  0  0  0  0  0
  140.5010   69.7370  227.8840 C   0  0  0  0  0  0  0  0  0  0  0  0
  140.9679   69.7139  228.8798 H   0  0  0  0  0  0  0  0  0  0  0  0
  139.5290   68.7930  227.5470 C   0  0  0  0  0  0  0  0  0  0  0  0
  139.2280   68.0292  228.2792 H   0  0  0  0  0  0  0  0  0  0  0  0
  138.9380   68.8170  226.2810 C   0  0  0  0  0  0  0  0  0  0  0  0
  138.1645   68.0785  226.0236 H   0  0  0  0  0  0  0  0  0  0  0  0
  139.3270   69.7790  225.3370 C   0  0  0  0  0  0  0  0  0  0  0  0
  138.6660   69.8210  223.9900 C   0  0  0  0  0  0  0  0  0  0  0  0
  137.7904   70.4853  224.0355 H   0  0  0  0  0  0  0  0  0  0  0  0
  138.3518   68.8040  223.7125 H   0  0  0  0  0  0  0  0  0  0  0  0
  139.6410   70.3440  222.9410 C   0  0  0  0  0  0  0  0  0  0  0  0
  139.1186   70.4509  221.9789 H   0  0  0  0  0  0  0  0  0  0  0  0
  140.4741   69.6335  222.8353 H   0  0  0  0  0  0  0  0  0  0  0  0
  141.3940   72.6160  221.4960 N   0  0  0  0  0  0  0  0  0  0  0  0
  141.5950   73.5840  220.5650 C   0  0  0  0  0  0  0  0  0  0  0  0
  142.7230   73.5130  219.6640 N   0  0  0  0  0  0  0  0  0  0  0  0
  142.9070   72.5070  219.4400 H   0  0  0  0  0  0  0  0  0  0  0  0
  142.4700   73.9970  218.7700 H   0  0  0  0  0  0  0  0  0  0  0  0
  143.9610   74.0770  220.2400 C   0  0  0  0  0  0  0  0  0  0  0  0
  143.9773   73.8684  221.3199 H   0  0  0  0  0  0  0  0  0  0  0  0
  144.8164   73.6086  219.7311 H   0  0  0  0  0  0  0  0  0  0  0  0
  144.0560   75.6010  220.0260 C   0  0  0  0  0  0  0  0  0  0  0  0
  144.0332   76.1029  221.0046 H   0  0  0  0  0  0  0  0  0  0  0  0
  144.9963   75.8210  219.4992 H   0  0  0  0  0  0  0  0  0  0  0  0
  142.9320   76.0960  219.2040 N   0  0  0  0  0  0  0  0  0  0  0  0
  142.4000   77.3700  219.7220 C   0  0  0  0  0  0  0  0  0  0  0  0
  141.4360   77.1952  220.2222 H   0  0  0  0  0  0  0  0  0  0  0  0
  143.0997   77.8062  220.4501 H   0  0  0  0  0  0  0  0  0  0  0  0
  142.2060   78.3180  218.5450 C   0  0  0  0  0  0  0  0  0  0  0  0
  141.1816   78.7186  218.5380 H   0  0  0  0  0  0  0  0  0  0  0  0
  142.8856   79.1813  218.5981 H   0  0  0  0  0  0  0  0  0  0  0  0
  142.4550   77.4810  217.3120 C   0  0  0  0  0  0  0  0  0  0  0  0
  141.5087   77.1004  216.9000 H   0  0  0  0  0  0  0  0  0  0  0  0
  142.9313   78.0522  216.5015 H   0  0  0  0  0  0  0  0  0  0  0  0
  143.3200   76.3450  217.8100 C   0  0  0  0  0  0  0  0  0  0  0  0
  143.1486   75.4441  217.2025 H   0  0  0  0  0  0  0  0  0  0  0  0
  144.3875   76.6004  217.7370 H   0  0  0  0  0  0  0  0  0  0  0  0
  140.7800   74.6750  220.5530 N   0  0  0  0  0  0  0  0  0  0  0  0
  140.9540   75.4390  219.8620 H   0  0  0  0  0  0  0  0  0  0  0  0
  140.1880   79.4760  223.3920 C   0  0  0  0  0  0  0  0  0  0  0  0
  139.1505   79.1351  223.5233 H   0  0  0  0  0  0  0  0  0  0  0  0
  140.5320   80.7960  223.7000 C   0  0  0  0  0  0  0  0  0  0  0  0
  139.7630   81.4927  224.0650 H   0  0  0  0  0  0  0  0  0  0  0  0
  1  2  1  0
  2  3  2  0
  3  4  1  0
  3  5  1  0
  5  6  1  0
  5  7  2  0
  7  8  1  0
  8  9  1  0
  8 10  1  0
  8 11  1  0
 11 12  1  0
 11 13  1  0
 11 14  1  0
 14 15  1  0
 14 16  2  0
 16 17  1  0
 17 18  2  0
 18 19  1  0
 19 20  1  0
 20 21  1  0
 20 22  1  0
 20 23  1  0
 23 24  2  0
 24 25  1  0
 24 26  1  0
 26 27  1  0
 26 28  2  0
 28 29  1  0
 28 30  1  0
 30 31  1  0
 30 32  2  0
 32 33  1  0
 33 34  1  0
 33 35  1  0
 33 36  1  0
 36 37  1  0
 36 38  1  0
 18 39  1  0
 39 40  2  0
 40 41  1  0
 41 42  1  0
 41 43  1  0
 41 44  1  0
 44 45  1  0
 44 46  1  0
 44 47  1  0
 47 48  1  0
 47 49  1  0
 47 50  1  0
 50 51  1  0
 51 52  1  0
 51 53  1  0
 51 54  1  0
 54 55  1  0
 54 56  1  0
 54 57  1  0
 57 58  1  0
 57 59  1  0
 57 60  1  0
 60 61  1  0
 60 62  1  0
 40 63  1  0
 63 64  1  0
  7 65  1  0
 65 66  1  0
 65 67  2  0
 67 68  1  0
 67  2  1  0
 63 16  1  0
 36 19  1  0
 60 50  1  0
 32 23  1  0
M  CHG  2  14   1  41   1
M  END
>  <UniqueID>  (16) 
668

>  <SMILES>  (16) 
c1ccc(CC/[NH+]=c2\nc(N3CCc4ccccc4C3)nc([NH2+]CCN3CCCC3)[nH]2)cc1

>  <Energy>  (16) 
71.50899235349316

>  <Genealogy>  (16) 
c1ccc(CC[NH2+]c2nc([NH2+]CCN3CCCC3)nc(N3CCc4ccccc4C3)n2)cc1 (protonated)
c1ccc(CC[NH+]=c2nc(N3CCc4ccccc4C3)nc([NH2+]CCN3CCCC3)[nH]2)cc1 (tautomer)
c1ccc(CC/[NH+]=c2\nc(N3CCc4ccccc4C3)nc([NH2+]CCN3CCCC3)[nH]2)cc1 (cis-trans isomerization)
c1ccc(CC/[NH+]=c2\nc(N3CCc4ccccc4C3)nc([NH2+]CCN3CCCC3)[nH]2)cc1 (3D coordinates assigned)
c1ccc(CC/[NH+]=c2\nc(N3CCc4ccccc4C3)nc([NH2+]CCN3CCCC3)[nH]2)cc1 (nonaromatic ring conformer: 71.50899235349316 kcal/mol)

>  <smiles>  (16) 
c1ccc(CCNc2nc(NCCN3CCCC3)nc(N3CCc4ccccc4C3)n2)cc1

>  <score_type>  (16) 
oracle

>  <origin>  (16) 
autodockgpu

>  <m_score__min__energy>  (16) 
-9.5

>  <m_primary>  (16) 
energy

>  <meeko>  (16) 
{"free_energy": -8.62, "intermolecular_energy": -11.31, "internal_energy": -1.92, "cluster_size": 12, "cluster_id": 1, "rank_in_cluster": 9}

>  <energy>  (16) 
-8.13

>  <cluster_rmsd>  (16) 
0.0

>  <rmsd>  (16) 
271.33

>  <cluster>  (16) 
3

$$$$
FPFWJFTVWFQHMH-IEMWKULYNA-P
     RDKit          3D

 68 72  0  0  0  0  0  0  0  0999 V2000
  141.1453   69.5612  229.3623 H   0  0  0  0  0  0  0  0  0  0  0  0
  141.0760   69.9430  228.3330 C   0  0  0  0  0  0  0  0  0  0  0  0
  141.0740   71.3200  228.0980 C   0  0  0  0  0  0  0  0  0  0  0  0
  141.1519   72.0214  228.9418 H   0  0  0  0  0  0  0  0  0  0  0  0
  140.9730   71.8080  226.7910 C   0  0  0  0  0  0  0  0  0  0  0  0
  140.9577   72.8931  226.6111 H   0  0  0  0  0  0  0  0  0  0  0  0
  140.8910   70.9180  225.7070 C   0  0  0  0  0  0  0  0  0  0  0  0
  140.7210   71.4440  224.3040 C   0  0  0  0  0  0  0  0  0  0  0  0
  140.8817   72.5322  224.3092 H   0  0  0  0  0  0  0  0  0  0  0  0
  141.4549   70.9406  223.6575 H   0  0  0  0  0  0  0  0  0  0  0  0
  139.3190   71.1510  223.7550 C   0  0  0  0  0  0  0  0  0  0  0  0
  139.3472   70.2175  223.1738 H   0  0  0  0  0  0  0  0  0  0  0  0
  138.6224   71.0549  224.6009 H   0  0  0  0  0  0  0  0  0  0  0  0
  138.8590   72.2430  222.8890 N   0  0  0  0  0  0  0  0  0  0  0  0
  137.8790   72.5750  223.0350 H   0  0  0  0  0  0  0  0  0  0  0  0
  139.6200   72.8640  222.0280 C   0  0  0  0  0  0  0  0  0  0  0  0
  139.8530   74.2000  222.1450 N   0  0  0  0  0  0  0  0  0  0  0  0
  140.6140   74.8590  221.2330 C   0  0  0  0  0  0  0  0  0  0  0  0
  140.8580   76.2750  221.3580 N   0  0  0  0  0  0  0  0  0  0  0  0
  141.0320   76.8420  222.7080 C   0  0  0  0  0  0  0  0  0  0  0  0
  141.8144   76.2691  223.2273 H   0  0  0  0  0  0  0  0  0  0  0  0
  140.0574   76.7743  223.2136 H   0  0  0  0  0  0  0  0  0  0  0  0
  141.4290   78.2990  222.7070 C   0  0  0  0  0  0  0  0  0  0  0  0
  141.4570   78.9970  223.9260 C   0  0  0  0  0  0  0  0  0  0  0  0
  141.1612   78.4871  224.8547 H   0  0  0  0  0  0  0  0  0  0  0  0
  141.8580   80.3340  223.9660 C   0  0  0  0  0  0  0  0  0  0  0  0
  141.8698   80.8757  224.9233 H   0  0  0  0  0  0  0  0  0  0  0  0
  142.2440   80.9840  222.7920 C   0  0  0  0  0  0  0  0  0  0  0  0
  142.5619   82.0365  222.8261 H   0  0  0  0  0  0  0  0  0  0  0  0
  142.2270   80.2990  221.5730 C   0  0  0  0  0  0  0  0  0  0  0  0
  142.5429   80.8108  220.6520 H   0  0  0  0  0  0  0  0  0  0  0  0
  141.8080   78.9600  221.5210 C   0  0  0  0  0  0  0  0  0  0  0  0
  141.8210   78.2190  220.2160 C   0  0  0  0  0  0  0  0  0  0  0  0
  142.7966   77.7274  220.0872 H   0  0  0  0  0  0  0  0  0  0  0  0
  141.6484   78.9326  219.3968 H   0  0  0  0  0  0  0  0  0  0  0  0
  140.7200   77.1650  220.1970 C   0  0  0  0  0  0  0  0  0  0  0  0
  140.7977   76.5734  219.2729 H   0  0  0  0  0  0  0  0  0  0  0  0
  139.7407   77.6642  220.2384 H   0  0  0  0  0  0  0  0  0  0  0  0
  141.1400   74.1670  220.1920 N   0  0  0  0  0  0  0  0  0  0  0  0
  140.9400   72.8290  220.0650 C   0  0  0  0  0  0  0  0  0  0  0  0
  141.4500   72.1160  218.9150 N   0  0  0  0  0  0  0  0  0  0  0  0
  142.2540   71.5210  219.2230 H   0  0  0  0  0  0  0  0  0  0  0  0
  140.7010   71.4770  218.5570 H   0  0  0  0  0  0  0  0  0  0  0  0
  141.9380   73.0120  217.8470 C   0  0  0  0  0  0  0  0  0  0  0  0
  142.0123   72.4403  216.9102 H   0  0  0  0  0  0  0  0  0  0  0  0
  141.2254   73.8443  217.7497 H   0  0  0  0  0  0  0  0  0  0  0  0
  143.3220   73.6060  218.1790 C   0  0  0  0  0  0  0  0  0  0  0  0
  144.0143   73.3871  217.3527 H   0  0  0  0  0  0  0  0  0  0  0  0
  143.2121   74.6921  218.3146 H   0  0  0  0  0  0  0  0  0  0  0  0
  143.8640   73.0300  219.4280 N   0  0  0  0  0  0  0  0  0  0  0  0
  145.0540   72.1990  219.1700 C   0  0  0  0  0  0  0  0  0  0  0  0
  144.7922   71.1346  219.2621 H   0  0  0  0  0  0  0  0  0  0  0  0
  145.4318   72.3808  218.1530 H   0  0  0  0  0  0  0  0  0  0  0  0
  146.1180   72.5600  220.2000 C   0  0  0  0  0  0  0  0  0  0  0  0
  146.4813   71.6564  220.7114 H   0  0  0  0  0  0  0  0  0  0  0  0
  146.9935   73.0367  219.7349 H   0  0  0  0  0  0  0  0  0  0  0  0
  145.4300   73.4810  221.1790 C   0  0  0  0  0  0  0  0  0  0  0  0
  145.0635   72.9205  222.0516 H   0  0  0  0  0  0  0  0  0  0  0  0
  146.1028   74.2556  221.5756 H   0  0  0  0  0  0  0  0  0  0  0  0
  144.2780   74.0600  220.3900 C   0  0  0  0  0  0  0  0  0  0  0  0
  143.4438   74.3069  221.0632 H   0  0  0  0  0  0  0  0  0  0  0  0
  144.5771   74.9847  219.8747 H   0  0  0  0  0  0  0  0  0  0  0  0
  140.1670   72.1830  220.9810 N   0  0  0  0  0  0  0  0  0  0  0  0
  139.9810   71.1600  220.8670 H   0  0  0  0  0  0  0  0  0  0  0  0
  140.9030   69.5330  225.9510 C   0  0  0  0  0  0  0  0  0  0  0  0
  140.8438   68.8274  225.1092 H   0  0  0  0  0  0  0  0  0  0  0  0
  140.9900   69.0500  227.2610 C   0  0  0  0  0  0  0  0  0  0  0  0
  140.9907   67.9660  227.4478 H   0  0  0  0  0  0  0  0  0  0  0  0
  1  2  1  0
  2  3  2  0
  3  4  1  0
  3  5  1  0
  5  6  1  0
  5  7  2  0
  7  8  1  0
  8  9  1  0
  8 10  1  0
  8 11  1  0
 11 12  1  0
 11 13  1  0
 11 14  1  0
 14 15  1  0
 14 16  2  0
 16 17  1  0
 17 18  2  0
 18 19  1  0
 19 20  1  0
 20 21  1  0
 20 22  1  0
 20 23  1  0
 23 24  2  0
 24 25  1  0
 24 26  1  0
 26 27  1  0
 26 28  2  0
 28 29  1  0
 28 30  1  0
 30 31  1  0
 30 32  2  0
 32 33  1  0
 33 34  1  0
 33 35  1  0
 33 36  1  0
 36 37  1  0
 36 38  1  0
 18 39  1  0
 39 40  2  0
 40 41  1  0
 41 42  1  0
 41 43  1  0
 41 44  1  0
 44 45  1  0
 44 46  1  0
 44 47  1  0
 47 48  1  0
 47 49  1  0
 47 50  1  0
 50 51  1  0
 51 52  1  0
 51 53  1  0
 51 54  1  0
 54 55  1  0
 54 56  1  0
 54 57  1  0
 57 58  1  0
 57 59  1  0
 57 60  1  0
 60 61  1  0
 60 62  1  0
 40 63  1  0
 63 64  1  0
  7 65  1  0
 65 66  1  0
 65 67  2  0
 67 68  1  0
 67  2  1  0
 63 16  1  0
 36 19  1  0
 60 50  1  0
 32 23  1  0
M  CHG  2  14   1  41   1
M  END
>  <UniqueID>  (17) 
668

>  <SMILES>  (17) 
c1ccc(CC/[NH+]=c2\nc(N3CCc4ccccc4C3)nc([NH2+]CCN3CCCC3)[nH]2)cc1

>  <Energy>  (17) 
71.50899235349316

>  <Genealogy>  (17) 
c1ccc(CC[NH2+]c2nc([NH2+]CCN3CCCC3)nc(N3CCc4ccccc4C3)n2)cc1 (protonated)
c1ccc(CC[NH+]=c2nc(N3CCc4ccccc4C3)nc([NH2+]CCN3CCCC3)[nH]2)cc1 (tautomer)
c1ccc(CC/[NH+]=c2\nc(N3CCc4ccccc4C3)nc([NH2+]CCN3CCCC3)[nH]2)cc1 (cis-trans isomerization)
c1ccc(CC/[NH+]=c2\nc(N3CCc4ccccc4C3)nc([NH2+]CCN3CCCC3)[nH]2)cc1 (3D coordinates assigned)
c1ccc(CC/[NH+]=c2\nc(N3CCc4ccccc4C3)nc([NH2+]CCN3CCCC3)[nH]2)cc1 (nonaromatic ring conformer: 71.50899235349316 kcal/mol)

>  <smiles>  (17) 
c1ccc(CCNc2nc(NCCN3CCCC3)nc(N3CCc4ccccc4C3)n2)cc1

>  <score_type>  (17) 
oracle

>  <origin>  (17) 
autodockgpu

>  <m_score__min__energy>  (17) 
-9.5

>  <m_primary>  (17) 
energy

>  <meeko>  (17) 
{"free_energy": -9.35, "intermolecular_energy": -12.03, "internal_energy": -0.97, "cluster_size": 12, "cluster_id": 1, "rank_in_cluster": 3}

>  <energy>  (17) 
-7.94

>  <cluster_rmsd>  (17) 
0.0

>  <rmsd>  (17) 
271.65

>  <cluster>  (17) 
4

$$$$
FPFWJFTVWFQHMH-IEMWKULYNA-P
     RDKit          3D

 68 72  0  0  0  0  0  0  0  0999 V2000
  142.1191   82.2596  223.8383 H   0  0  0  0  0  0  0  0  0  0  0  0
  141.8460   81.2310  223.5600 C   0  0  0  0  0  0  0  0  0  0  0  0
  140.5170   80.8090  223.6600 C   0  0  0  0  0  0  0  0  0  0  0  0
  139.7434   81.5084  224.0098 H   0  0  0  0  0  0  0  0  0  0  0  0
  140.1700   79.4990  223.3160 C   0  0  0  0  0  0  0  0  0  0  0  0
  139.1251   79.1676  223.4076 H   0  0  0  0  0  0  0  0  0  0  0  0
  141.1490   78.6040  222.8540 C   0  0  0  0  0  0  0  0  0  0  0  0
  140.7850   77.1740  222.5430 C   0  0  0  0  0  0  0  0  0  0  0  0
  141.3250   76.8571  221.6386 H   0  0  0  0  0  0  0  0  0  0  0  0
  141.0649   76.5529  223.4066 H   0  0  0  0  0  0  0  0  0  0  0  0
  139.2780   77.0120  222.3050 C   0  0  0  0  0  0  0  0  0  0  0  0
  138.7707   76.8905  223.2735 H   0  0  0  0  0  0  0  0  0  0  0  0
  138.9040   77.9076  221.7872 H   0  0  0  0  0  0  0  0  0  0  0  0
  139.0070   75.8370  221.4690 N   0  0  0  0  0  0  0  0  0  0  0  0
  138.1990   75.9090  220.8090 H   0  0  0  0  0  0  0  0  0  0  0  0
  139.7550   74.7660  221.4450 C   0  0  0  0  0  0  0  0  0  0  0  0
  139.5770   73.7750  222.3620 N   0  0  0  0  0  0  0  0  0  0  0  0
  140.3740   72.6760  222.3650 C   0  0  0  0  0  0  0  0  0  0  0  0
  140.1850   71.6280  223.3380 N   0  0  0  0  0  0  0  0  0  0  0  0
  140.7000   71.8350  224.7040 C   0  0  0  0  0  0  0  0  0  0  0  0
  140.3047   72.7888  225.0834 H   0  0  0  0  0  0  0  0  0  0  0  0
  141.7980   71.8327  224.6375 H   0  0  0  0  0  0  0  0  0  0  0  0
  140.3140   70.7410  225.6700 C   0  0  0  0  0  0  0  0  0  0  0  0
  140.8860   70.7340  226.9540 C   0  0  0  0  0  0  0  0  0  0  0  0
  141.6251   71.5015  227.2271 H   0  0  0  0  0  0  0  0  0  0  0  0
  140.5220   69.7590  227.8850 C   0  0  0  0  0  0  0  0  0  0  0  0
  140.9809   69.7552  228.8847 H   0  0  0  0  0  0  0  0  0  0  0  0
  139.5760   68.7890  227.5480 C   0  0  0  0  0  0  0  0  0  0  0  0
  139.2873   68.0244  228.2842 H   0  0  0  0  0  0  0  0  0  0  0  0
  138.9950   68.7880  226.2760 C   0  0  0  0  0  0  0  0  0  0  0  0
  138.2417   68.0291  226.0179 H   0  0  0  0  0  0  0  0  0  0  0  0
  139.3700   69.7520  225.3280 C   0  0  0  0  0  0  0  0  0  0  0  0
  138.7200   69.7670  223.9740 C   0  0  0  0  0  0  0  0  0  0  0  0
  137.8281   70.4100  224.0062 H   0  0  0  0  0  0  0  0  0  0  0  0
  138.4332   68.7404  223.7021 H   0  0  0  0  0  0  0  0  0  0  0  0
  139.6910   70.3050  222.9300 C   0  0  0  0  0  0  0  0  0  0  0  0
  139.1748   70.3913  221.9625 H   0  0  0  0  0  0  0  0  0  0  0  0
  140.5420   69.6141  222.8382 H   0  0  0  0  0  0  0  0  0  0  0  0
  141.3610   72.5760  221.4410 N   0  0  0  0  0  0  0  0  0  0  0  0
  141.5460   73.5410  220.5030 C   0  0  0  0  0  0  0  0  0  0  0  0
  142.6430   73.4550  219.5660 N   0  0  0  0  0  0  0  0  0  0  0  0
  142.7980   72.4480  219.3270 H   0  0  0  0  0  0  0  0  0  0  0  0
  142.3730   73.9530  218.6850 H   0  0  0  0  0  0  0  0  0  0  0  0
  143.9100   73.9870  220.1080 C   0  0  0  0  0  0  0  0  0  0  0  0
  143.9969   73.6903  221.1637 H   0  0  0  0  0  0  0  0  0  0  0  0
  144.7353   73.5743  219.5091 H   0  0  0  0  0  0  0  0  0  0  0  0
  143.9780   75.5250  220.0160 C   0  0  0  0  0  0  0  0  0  0  0  0
  143.9033   75.9489  221.0283 H   0  0  0  0  0  0  0  0  0  0  0  0
  144.9337   75.8045  219.5486 H   0  0  0  0  0  0  0  0  0  0  0  0
  142.8770   76.0590  219.1870 N   0  0  0  0  0  0  0  0  0  0  0  0
  142.3560   77.3270  219.7290 C   0  0  0  0  0  0  0  0  0  0  0  0
  141.3806   77.1546  220.2074 H   0  0  0  0  0  0  0  0  0  0  0  0
  143.0495   77.7324  220.4805 H   0  0  0  0  0  0  0  0  0  0  0  0
  142.1980   78.3090  218.5750 C   0  0  0  0  0  0  0  0  0  0  0  0
  141.1800   78.7256  218.5603 H   0  0  0  0  0  0  0  0  0  0  0  0
  142.8892   79.1601  218.6635 H   0  0  0  0  0  0  0  0  0  0  0  0
  142.4570   77.5010  217.3250 C   0  0  0  0  0  0  0  0  0  0  0  0
  141.5127   77.1464  216.8861 H   0  0  0  0  0  0  0  0  0  0  0  0
  142.9571   78.0860  216.5391 H   0  0  0  0  0  0  0  0  0  0  0  0
  143.2950   76.3390  217.8070 C   0  0  0  0  0  0  0  0  0  0  0  0
  143.1212   75.4576  217.1723 H   0  0  0  0  0  0  0  0  0  0  0  0
  144.3675   76.5791  217.7601 H   0  0  0  0  0  0  0  0  0  0  0  0
  140.7450   74.6430  220.5160 N   0  0  0  0  0  0  0  0  0  0  0  0
  140.9070   75.4050  219.8190 H   0  0  0  0  0  0  0  0  0  0  0  0
  142.4820   79.0380  222.7480 C   0  0  0  0  0  0  0  0  0  0  0  0
  143.2558   78.3470  222.3821 H   0  0  0  0  0  0  0  0  0  0  0  0
  142.8280   80.3450  223.1060 C   0  0  0  0  0  0  0  0  0  0  0  0
  143.8741   80.6765  223.0303 H   0  0  0  0  0  0  0  0  0  0  0  0
  1  2  1  0
  2  3  2  0
  3  4  1  0
  3  5  1  0
  5  6  1  0
  5  7  2  0
  7  8  1  0
  8  9  1  0
  8 10  1  0
  8 11  1  0
 11 12  1  0
 11 13  1  0
 11 14  1  0
 14 15  1  0
 14 16  2  0
 16 17  1  0
 17 18  2  0
 18 19  1  0
 19 20  1  0
 20 21  1  0
 20 22  1  0
 20 23  1  0
 23 24  2  0
 24 25  1  0
 24 26  1  0
 26 27  1  0
 26 28  2  0
 28 29  1  0
 28 30  1  0
 30 31  1  0
 30 32  2  0
 32 33  1  0
 33 34  1  0
 33 35  1  0
 33 36  1  0
 36 37  1  0
 36 38  1  0
 18 39  1  0
 39 40  2  0
 40 41  1  0
 41 42  1  0
 41 43  1  0
 41 44  1  0
 44 45  1  0
 44 46  1  0
 44 47  1  0
 47 48  1  0
 47 49  1  0
 47 50  1  0
 50 51  1  0
 51 52  1  0
 51 53  1  0
 51 54  1  0
 54 55  1  0
 54 56  1  0
 54 57  1  0
 57 58  1  0
 57 59  1  0
 57 60  1  0
 60 61  1  0
 60 62  1  0
 40 63  1  0
 63 64  1  0
  7 65  1  0
 65 66  1  0
 65 67  2  0
 67 68  1  0
 67  2  1  0
 63 16  1  0
 36 19  1  0
 60 50  1  0
 32 23  1  0
M  CHG  2  14   1  41   1
M  END
>  <UniqueID>  (18) 
668

>  <SMILES>  (18) 
c1ccc(CC/[NH+]=c2\nc(N3CCc4ccccc4C3)nc([NH2+]CCN3CCCC3)[nH]2)cc1

>  <Energy>  (18) 
71.50899235349316

>  <Genealogy>  (18) 
c1ccc(CC[NH2+]c2nc([NH2+]CCN3CCCC3)nc(N3CCc4ccccc4C3)n2)cc1 (protonated)
c1ccc(CC[NH+]=c2nc(N3CCc4ccccc4C3)nc([NH2+]CCN3CCCC3)[nH]2)cc1 (tautomer)
c1ccc(CC/[NH+]=c2\nc(N3CCc4ccccc4C3)nc([NH2+]CCN3CCCC3)[nH]2)cc1 (cis-trans isomerization)
c1ccc(CC/[NH+]=c2\nc(N3CCc4ccccc4C3)nc([NH2+]CCN3CCCC3)[nH]2)cc1 (3D coordinates assigned)
c1ccc(CC/[NH+]=c2\nc(N3CCc4ccccc4C3)nc([NH2+]CCN3CCCC3)[nH]2)cc1 (nonaromatic ring conformer: 71.50899235349316 kcal/mol)

>  <smiles>  (18) 
c1ccc(CCNc2nc(NCCN3CCCC3)nc(N3CCc4ccccc4C3)n2)cc1

>  <score_type>  (18) 
oracle

>  <origin>  (18) 
autodockgpu

>  <m_score__min__energy>  (18) 
-9.5

>  <m_primary>  (18) 
energy

>  <meeko>  (18) 
{"free_energy": -8.66, "intermolecular_energy": -11.35, "internal_energy": -1.9, "cluster_size": 12, "cluster_id": 1, "rank_in_cluster": 8}

>  <energy>  (18) 
-7.88

>  <cluster_rmsd>  (18) 
0.48

>  <rmsd>  (18) 
271.64

>  <cluster>  (18) 
4

$$$$
FPFWJFTVWFQHMH-IEMWKULYNA-P
     RDKit          3D

 68 72  0  0  0  0  0  0  0  0999 V2000
  140.7449   71.4504  229.4517 H   0  0  0  0  0  0  0  0  0  0  0  0
  140.6440   71.2660  228.3720 C   0  0  0  0  0  0  0  0  0  0  0  0
  139.8780   70.1900  227.9150 C   0  0  0  0  0  0  0  0  0  0  0  0
  139.3687   69.5332  228.6356 H   0  0  0  0  0  0  0  0  0  0  0  0
  139.7580   69.9470  226.5430 C   0  0  0  0  0  0  0  0  0  0  0  0
  139.1647   69.0914  226.1882 H   0  0  0  0  0  0  0  0  0  0  0  0
  140.3920   70.7910  225.6160 C   0  0  0  0  0  0  0  0  0  0  0  0
  140.3130   70.4910  224.1400 C   0  0  0  0  0  0  0  0  0  0  0  0
  141.0518   71.1103  223.6103 H   0  0  0  0  0  0  0  0  0  0  0  0
  140.5205   69.4204  223.9960 H   0  0  0  0  0  0  0  0  0  0  0  0
  138.9190   70.7880  223.5750 C   0  0  0  0  0  0  0  0  0  0  0  0
  138.6938   70.0689  222.7736 H   0  0  0  0  0  0  0  0  0  0  0  0
  138.1827   70.6986  224.3873 H   0  0  0  0  0  0  0  0  0  0  0  0
  138.8570   72.1500  223.0310 N   0  0  0  0  0  0  0  0  0  0  0  0
  138.0110   72.7130  223.2760 H   0  0  0  0  0  0  0  0  0  0  0  0
  139.8180   72.7110  222.3480 C   0  0  0  0  0  0  0  0  0  0  0  0
  139.9310   74.0660  222.2920 N   0  0  0  0  0  0  0  0  0  0  0  0
  140.9060   74.6560  221.5540 C   0  0  0  0  0  0  0  0  0  0  0  0
  141.0220   76.0930  221.4950 N   0  0  0  0  0  0  0  0  0  0  0  0
  141.0600   76.8480  222.7600 C   0  0  0  0  0  0  0  0  0  0  0  0
  141.8527   76.4239  223.3939 H   0  0  0  0  0  0  0  0  0  0  0  0
  140.0638   76.7586  223.2177 H   0  0  0  0  0  0  0  0  0  0  0  0
  141.3320   78.3230  222.5790 C   0  0  0  0  0  0  0  0  0  0  0  0
  141.2220   79.1760  223.6890 C   0  0  0  0  0  0  0  0  0  0  0  0
  140.9109   78.7689  224.6624 H   0  0  0  0  0  0  0  0  0  0  0  0
  141.5050   80.5380  223.5650 C   0  0  0  0  0  0  0  0  0  0  0  0
  141.4074   81.2015  224.4369 H   0  0  0  0  0  0  0  0  0  0  0  0
  141.9120   81.0580  222.3340 C   0  0  0  0  0  0  0  0  0  0  0  0
  142.1384   82.1302  222.2387 H   0  0  0  0  0  0  0  0  0  0  0  0
  142.0320   80.2180  221.2230 C   0  0  0  0  0  0  0  0  0  0  0  0
  142.3641   80.6289  220.2582 H   0  0  0  0  0  0  0  0  0  0  0  0
  141.7300   78.8520  221.3350 C   0  0  0  0  0  0  0  0  0  0  0  0
  141.8910   77.9480  220.1470 C   0  0  0  0  0  0  0  0  0  0  0  0
  142.9108   77.5358  220.1397 H   0  0  0  0  0  0  0  0  0  0  0  0
  141.7133   78.5270  219.2287 H   0  0  0  0  0  0  0  0  0  0  0  0
  140.8860   76.8040  220.2160 C   0  0  0  0  0  0  0  0  0  0  0  0
  141.0731   76.1041  219.3883 H   0  0  0  0  0  0  0  0  0  0  0  0
  139.8677   77.2122  220.1359 H   0  0  0  0  0  0  0  0  0  0  0  0
  141.7740   73.8740  220.8640 N   0  0  0  0  0  0  0  0  0  0  0  0
  141.6960   72.5190  220.9210 C   0  0  0  0  0  0  0  0  0  0  0  0
  142.5830   71.6990  220.1280 N   0  0  0  0  0  0  0  0  0  0  0  0
  143.5500   71.7800  220.5210 H   0  0  0  0  0  0  0  0  0  0  0  0
  142.2870   70.6980  220.2190 H   0  0  0  0  0  0  0  0  0  0  0  0
  142.6390   72.1080  218.7100 C   0  0  0  0  0  0  0  0  0  0  0  0
  141.9174   71.5062  218.1381 H   0  0  0  0  0  0  0  0  0  0  0  0
  142.3954   73.1793  218.6557 H   0  0  0  0  0  0  0  0  0  0  0  0
  144.0430   71.9080  218.1060 C   0  0  0  0  0  0  0  0  0  0  0  0
  144.3241   70.8482  218.1946 H   0  0  0  0  0  0  0  0  0  0  0  0
  144.0149   72.2148  217.0500 H   0  0  0  0  0  0  0  0  0  0  0  0
  145.0490   72.7340  218.8070 N   0  0  0  0  0  0  0  0  0  0  0  0
  144.4480   73.9520  219.3780 C   0  0  0  0  0  0  0  0  0  0  0  0
  144.7333   74.8261  218.7743 H   0  0  0  0  0  0  0  0  0  0  0  0
  143.3511   73.8689  219.3805 H   0  0  0  0  0  0  0  0  0  0  0  0
  144.9660   74.1170  220.8010 C   0  0  0  0  0  0  0  0  0  0  0  0
  145.3894   75.1223  220.9427 H   0  0  0  0  0  0  0  0  0  0  0  0
  144.1642   74.0014  221.5451 H   0  0  0  0  0  0  0  0  0  0  0  0
  146.0380   73.0640  220.9600 C   0  0  0  0  0  0  0  0  0  0  0  0
  147.0341   73.4873  220.7636 H   0  0  0  0  0  0  0  0  0  0  0  0
  146.0787   72.6515  221.9789 H   0  0  0  0  0  0  0  0  0  0  0  0
  145.6830   72.0220  219.9240 C   0  0  0  0  0  0  0  0  0  0  0  0
  146.5913   71.5069  219.5781 H   0  0  0  0  0  0  0  0  0  0  0  0
  145.0065   71.2627  220.3432 H   0  0  0  0  0  0  0  0  0  0  0  0
  140.7070   71.9410  221.6570 N   0  0  0  0  0  0  0  0  0  0  0  0
  140.6210   70.8990  221.6740 H   0  0  0  0  0  0  0  0  0  0  0  0
  141.1530   71.8770  226.0820 C   0  0  0  0  0  0  0  0  0  0  0  0
  141.6486   72.5473  225.3644 H   0  0  0  0  0  0  0  0  0  0  0  0
  141.2820   72.1080  227.4560 C   0  0  0  0  0  0  0  0  0  0  0  0
  141.8864   72.9535  227.8162 H   0  0  0  0  0  0  0  0  0  0  0  0
  1  2  1  0
  2  3  2  0
  3  4  1  0
  3  5  1  0
  5  6  1  0
  5  7  2  0
  7  8  1  0
  8  9  1  0
  8 10  1  0
  8 11  1  0
 11 12  1  0
 11 13  1  0
 11 14  1  0
 14 15  1  0
 14 16  2  0
 16 17  1  0
 17 18  2  0
 18 19  1  0
 19 20  1  0
 20 21  1  0
 20 22  1  0
 20 23  1  0
 23 24  2  0
 24 25  1  0
 24 26  1  0
 26 27  1  0
 26 28  2  0
 28 29  1  0
 28 30  1  0
 30 31  1  0
 30 32  2  0
 32 33  1  0
 33 34  1  0
 33 35  1  0
 33 36  1  0
 36 37  1  0
 36 38  1  0
 18 39  1  0
 39 40  2  0
 40 41  1  0
 41 42  1  0
 41 43  1  0
 41 44  1  0
 44 45  1  0
 44 46  1  0
 44 47  1  0
 47 48  1  0
 47 49  1  0
 47 50  1  0
 50 51  1  0
 51 52  1  0
 51 53  1  0
 51 54  1  0
 54 55  1  0
 54 56  1  0
 54 57  1  0
 57 58  1  0
 57 59  1  0
 57 60  1  0
 60 61  1  0
 60 62  1  0
 40 63  1  0
 63 64  1  0
  7 65  1  0
 65 66  1  0
 65 67  2  0
 67 68  1  0
 67  2  1  0
 63 16  1  0
 36 19  1  0
 60 50  1  0
 32 23  1  0
M  CHG  2  14   1  41   1
M  END
>  <UniqueID>  (19) 
668

>  <SMILES>  (19) 
c1ccc(CC/[NH+]=c2\nc(N3CCc4ccccc4C3)nc([NH2+]CCN3CCCC3)[nH]2)cc1

>  <Energy>  (19) 
71.50899235349316

>  <Genealogy>  (19) 
c1ccc(CC[NH2+]c2nc([NH2+]CCN3CCCC3)nc(N3CCc4ccccc4C3)n2)cc1 (protonated)
c1ccc(CC[NH+]=c2nc(N3CCc4ccccc4C3)nc([NH2+]CCN3CCCC3)[nH]2)cc1 (tautomer)
c1ccc(CC/[NH+]=c2\nc(N3CCc4ccccc4C3)nc([NH2+]CCN3CCCC3)[nH]2)cc1 (cis-trans isomerization)
c1ccc(CC/[NH+]=c2\nc(N3CCc4ccccc4C3)nc([NH2+]CCN3CCCC3)[nH]2)cc1 (3D coordinates assigned)
c1ccc(CC/[NH+]=c2\nc(N3CCc4ccccc4C3)nc([NH2+]CCN3CCCC3)[nH]2)cc1 (nonaromatic ring conformer: 71.50899235349316 kcal/mol)

>  <smiles>  (19) 
c1ccc(CCNc2nc(NCCN3CCCC3)nc(N3CCc4ccccc4C3)n2)cc1

>  <score_type>  (19) 
oracle

>  <origin>  (19) 
autodockgpu

>  <m_score__min__energy>  (19) 
-9.5

>  <m_primary>  (19) 
energy

>  <meeko>  (19) 
{"free_energy": -9.5, "intermolecular_energy": -12.19, "internal_energy": -0.41, "cluster_size": 12, "cluster_id": 1, "rank_in_cluster": 1}

>  <energy>  (19) 
-7.8

>  <cluster_rmsd>  (19) 
0.56

>  <rmsd>  (19) 
271.65

>  <cluster>  (19) 
4

$$$$
FPFWJFTVWFQHMH-IEMWKULYNA-P
     RDKit          3D

 68 72  0  0  0  0  0  0  0  0999 V2000
  143.3611   80.8734  222.8908 H   0  0  0  0  0  0  0  0  0  0  0  0
  142.3680   80.4040  222.9490 C   0  0  0  0  0  0  0  0  0  0  0  0
  142.2560   79.0140  223.0400 C   0  0  0  0  0  0  0  0  0  0  0  0
  143.1618   78.3902  223.0613 H   0  0  0  0  0  0  0  0  0  0  0  0
  140.9940   78.4150  223.1040 C   0  0  0  0  0  0  0  0  0  0  0  0
  140.9103   77.3198  223.1640 H   0  0  0  0  0  0  0  0  0  0  0  0
  139.8330   79.2050  223.0920 C   0  0  0  0  0  0  0  0  0  0  0  0
  138.4720   78.5560  223.0980 C   0  0  0  0  0  0  0  0  0  0  0  0
  138.4370   77.8083  223.9040 H   0  0  0  0  0  0  0  0  0  0  0  0
  137.7179   79.3411  223.2563 H   0  0  0  0  0  0  0  0  0  0  0  0
  138.1690   77.8630  221.7630 C   0  0  0  0  0  0  0  0  0  0  0  0
  137.2227   78.2536  221.3605 H   0  0  0  0  0  0  0  0  0  0  0  0
  138.9947   78.0658  221.0651 H   0  0  0  0  0  0  0  0  0  0  0  0
  138.0520   76.4110  221.9440 N   0  0  0  0  0  0  0  0  0  0  0  0
  137.0870   76.0340  222.0800 H   0  0  0  0  0  0  0  0  0  0  0  0
  139.0560   75.5790  221.8600 C   0  0  0  0  0  0  0  0  0  0  0  0
  138.9540   74.3170  222.3600 N   0  0  0  0  0  0  0  0  0  0  0  0
  140.0050   73.4590  222.3080 C   0  0  0  0  0  0  0  0  0  0  0  0
  139.8950   72.1220  222.8400 N   0  0  0  0  0  0  0  0  0  0  0  0
  140.4560   71.8490  224.1760 C   0  0  0  0  0  0  0  0  0  0  0  0
  140.0386   72.5801  224.8840 H   0  0  0  0  0  0  0  0  0  0  0  0
  141.5496   71.9276  224.0879 H   0  0  0  0  0  0  0  0  0  0  0  0
  140.1530   70.4620  224.6890 C   0  0  0  0  0  0  0  0  0  0  0  0
  140.7740   70.0220  225.8700 C   0  0  0  0  0  0  0  0  0  0  0  0
  141.4920   70.6763  226.3861 H   0  0  0  0  0  0  0  0  0  0  0  0
  140.4860   68.7600  226.3930 C   0  0  0  0  0  0  0  0  0  0  0  0
  140.9840   68.4193  227.3128 H   0  0  0  0  0  0  0  0  0  0  0  0
  139.5660   67.9300  225.7490 C   0  0  0  0  0  0  0  0  0  0  0  0
  139.3367   66.9377  226.1647 H   0  0  0  0  0  0  0  0  0  0  0  0
  138.9360   68.3580  224.5770 C   0  0  0  0  0  0  0  0  0  0  0  0
  138.2040   67.7055  224.0786 H   0  0  0  0  0  0  0  0  0  0  0  0
  139.2340   69.6170  224.0340 C   0  0  0  0  0  0  0  0  0  0  0  0
  138.5310   70.0860  222.7930 C   0  0  0  0  0  0  0  0  0  0  0  0
  137.6167   70.6280  223.0763 H   0  0  0  0  0  0  0  0  0  0  0  0
  138.2742   69.2132  222.1747 H   0  0  0  0  0  0  0  0  0  0  0  0
  139.4380   71.0130  221.9920 C   0  0  0  0  0  0  0  0  0  0  0  0
  138.8806   71.4161  221.1336 H   0  0  0  0  0  0  0  0  0  0  0  0
  140.3110   70.4462  221.6360 H   0  0  0  0  0  0  0  0  0  0  0  0
  141.1690   73.8770  221.7520 N   0  0  0  0  0  0  0  0  0  0  0  0
  141.2890   75.1240  221.2270 C   0  0  0  0  0  0  0  0  0  0  0  0
  142.5550   75.5800  220.6990 N   0  0  0  0  0  0  0  0  0  0  0  0
  142.6300   76.6110  220.8620 H   0  0  0  0  0  0  0  0  0  0  0  0
  143.3280   75.1170  221.2320 H   0  0  0  0  0  0  0  0  0  0  0  0
  142.6960   75.3450  219.2480 C   0  0  0  0  0  0  0  0  0  0  0  0
  143.7636   75.2301  219.0091 H   0  0  0  0  0  0  0  0  0  0  0  0
  142.1312   74.4357  218.9949 H   0  0  0  0  0  0  0  0  0  0  0  0
  142.1220   76.5090  218.4150 C   0  0  0  0  0  0  0  0  0  0  0  0
  142.9447   77.0101  217.8838 H   0  0  0  0  0  0  0  0  0  0  0  0
  141.3920   76.0999  217.7010 H   0  0  0  0  0  0  0  0  0  0  0  0
  141.4340   77.4930  219.2760 N   0  0  0  0  0  0  0  0  0  0  0  0
  142.1830   78.7600  219.3580 C   0  0  0  0  0  0  0  0  0  0  0  0
  142.6740   78.8395  220.3391 H   0  0  0  0  0  0  0  0  0  0  0  0
  142.9546   78.7968  218.5748 H   0  0  0  0  0  0  0  0  0  0  0  0
  141.1970   79.9080  219.1800 C   0  0  0  0  0  0  0  0  0  0  0  0
  141.2915   80.6284  220.0059 H   0  0  0  0  0  0  0  0  0  0  0  0
  141.3801   80.4647  218.2491 H   0  0  0  0  0  0  0  0  0  0  0  0
  139.8300   79.2660  219.1920 C   0  0  0  0  0  0  0  0  0  0  0  0
  139.3867   79.3091  220.1978 H   0  0  0  0  0  0  0  0  0  0  0  0
  139.1183   79.7732  218.5240 H   0  0  0  0  0  0  0  0  0  0  0  0
  140.0940   77.8350  218.7820 C   0  0  0  0  0  0  0  0  0  0  0  0
  139.3432   77.1678  219.2306 H   0  0  0  0  0  0  0  0  0  0  0  0
  140.0345   77.7198  217.6897 H   0  0  0  0  0  0  0  0  0  0  0  0
  140.2300   75.9780  221.2940 N   0  0  0  0  0  0  0  0  0  0  0  0
  140.3300   76.9510  220.9250 H   0  0  0  0  0  0  0  0  0  0  0  0
  139.9540   80.6040  223.0090 C   0  0  0  0  0  0  0  0  0  0  0  0
  139.0515   81.2328  223.0047 H   0  0  0  0  0  0  0  0  0  0  0  0
  141.2170   81.1980  222.9320 C   0  0  0  0  0  0  0  0  0  0  0  0
  141.3057   82.2919  222.8579 H   0  0  0  0  0  0  0  0  0  0  0  0
  1  2  1  0
  2  3  2  0
  3  4  1  0
  3  5  1  0
  5  6  1  0
  5  7  2  0
  7  8  1  0
  8  9  1  0
  8 10  1  0
  8 11  1  0
 11 12  1  0
 11 13  1  0
 11 14  1  0
 14 15  1  0
 14 16  2  0
 16 17  1  0
 17 18  2  0
 18 19  1  0
 19 20  1  0
 20 21  1  0
 20 22  1  0
 20 23  1  0
 23 24  2  0
 24 25  1  0
 24 26  1  0
 26 27  1  0
 26 28  2  0
 28 29  1  0
 28 30  1  0
 30 31  1  0
 30 32  2  0
 32 33  1  0
 33 34  1  0
 33 35  1  0
 33 36  1  0
 36 37  1  0
 36 38  1  0
 18 39  1  0
 39 40  2  0
 40 41  1  0
 41 42  1  0
 41 43  1  0
 41 44  1  0
 44 45  1  0
 44 46  1  0
 44 47  1  0
 47 48  1  0
 47 49  1  0
 47 50  1  0
 50 51  1  0
 51 52  1  0
 51 53  1  0
 51 54  1  0
 54 55  1  0
 54 56  1  0
 54 57  1  0
 57 58  1  0
 57 59  1  0
 57 60  1  0
 60 61  1  0
 60 62  1  0
 40 63  1  0
 63 64  1  0
  7 65  1  0
 65 66  1  0
 65 67  2  0
 67 68  1  0
 67  2  1  0
 63 16  1  0
 36 19  1  0
 60 50  1  0
 32 23  1  0
M  CHG  2  14   1  41   1
M  END
>  <UniqueID>  (20) 
668

>  <SMILES>  (20) 
c1ccc(CC/[NH+]=c2\nc(N3CCc4ccccc4C3)nc([NH2+]CCN3CCCC3)[nH]2)cc1

>  <Energy>  (20) 
71.50899235349316

>  <Genealogy>  (20) 
c1ccc(CC[NH2+]c2nc([NH2+]CCN3CCCC3)nc(N3CCc4ccccc4C3)n2)cc1 (protonated)
c1ccc(CC[NH+]=c2nc(N3CCc4ccccc4C3)nc([NH2+]CCN3CCCC3)[nH]2)cc1 (tautomer)
c1ccc(CC/[NH+]=c2\nc(N3CCc4ccccc4C3)nc([NH2+]CCN3CCCC3)[nH]2)cc1 (cis-trans isomerization)
c1ccc(CC/[NH+]=c2\nc(N3CCc4ccccc4C3)nc([NH2+]CCN3CCCC3)[nH]2)cc1 (3D coordinates assigned)
c1ccc(CC/[NH+]=c2\nc(N3CCc4ccccc4C3)nc([NH2+]CCN3CCCC3)[nH]2)cc1 (nonaromatic ring conformer: 71.50899235349316 kcal/mol)

>  <smiles>  (20) 
c1ccc(CCNc2nc(NCCN3CCCC3)nc(N3CCc4ccccc4C3)n2)cc1

>  <score_type>  (20) 
oracle

>  <origin>  (20) 
autodockgpu

>  <m_score__min__energy>  (20) 
-9.5

>  <m_primary>  (20) 
energy

>  <meeko>  (20) 
{"free_energy": -7.8, "intermolecular_energy": -10.48, "internal_energy": -2.51, "cluster_size": 4, "cluster_id": 4, "rank_in_cluster": 3}

>  <energy>  (20) 
-7.75

>  <cluster_rmsd>  (20) 
0.51

>  <rmsd>  (20) 
271.63

>  <cluster>  (20) 
4

$$$$
FPFWJFTVWFQHMH-FSECZMGHNA-O
     RDKit          3D

 67 71  0  0  0  0  0  0  0  0999 V2000
  140.2833   67.7311  228.7766 H   0  0  0  0  0  0  0  0  0  0  0  0
  140.3700   68.4930  227.9880 C   0  0  0  0  0  0  0  0  0  0  0  0
  140.6310   69.8240  228.3290 C   0  0  0  0  0  0  0  0  0  0  0  0
  140.7514   70.1069  229.3852 H   0  0  0  0  0  0  0  0  0  0  0  0
  140.7390   70.7950  227.3300 C   0  0  0  0  0  0  0  0  0  0  0  0
  140.9486   71.8398  227.6028 H   0  0  0  0  0  0  0  0  0  0  0  0
  140.5810   70.4430  225.9770 C   0  0  0  0  0  0  0  0  0  0  0  0
  140.6940   71.4940  224.9000 C   0  0  0  0  0  0  0  0  0  0  0  0
  140.2792   72.4400  225.2783 H   0  0  0  0  0  0  0  0  0  0  0  0
  141.7565   71.6096  224.6397 H   0  0  0  0  0  0  0  0  0  0  0  0
  139.9300   71.0850  223.6360 C   0  0  0  0  0  0  0  0  0  0  0  0
  140.6021   70.5200  222.9734 H   0  0  0  0  0  0  0  0  0  0  0  0
  139.0711   70.4615  223.9249 H   0  0  0  0  0  0  0  0  0  0  0  0
  139.4390   72.2710  222.9280 N   0  0  0  0  0  0  0  0  0  0  0  0
  138.4020   72.4100  222.8850 H   0  0  0  0  0  0  0  0  0  0  0  0
  140.2170   73.1410  222.3460 C   0  0  0  0  0  0  0  0  0  0  0  0
  139.8170   74.4350  222.2390 N   0  0  0  0  0  0  0  0  0  0  0  0
  140.6040   75.3550  221.6240 C   0  0  0  0  0  0  0  0  0  0  0  0
  140.1530   76.7160  221.5100 N   0  0  0  0  0  0  0  0  0  0  0  0
  139.9240   77.5480  222.6950 C   0  0  0  0  0  0  0  0  0  0  0  0
  140.0345   76.9304  223.5985 H   0  0  0  0  0  0  0  0  0  0  0  0
  138.9082   77.9673  222.6461 H   0  0  0  0  0  0  0  0  0  0  0  0
  140.9200   78.6810  222.7420 C   0  0  0  0  0  0  0  0  0  0  0  0
  141.0730   79.4090  223.9330 C   0  0  0  0  0  0  0  0  0  0  0  0
  140.5040   79.1181  224.8283 H   0  0  0  0  0  0  0  0  0  0  0  0
  141.9430   80.5000  223.9880 C   0  0  0  0  0  0  0  0  0  0  0  0
  142.0607   81.0618  224.9264 H   0  0  0  0  0  0  0  0  0  0  0  0
  142.6640   80.8790  222.8530 C   0  0  0  0  0  0  0  0  0  0  0  0
  143.3564   81.7323  222.9019 H   0  0  0  0  0  0  0  0  0  0  0  0
  142.5070   80.1760  221.6560 C   0  0  0  0  0  0  0  0  0  0  0  0
  143.0744   80.4816  220.7646 H   0  0  0  0  0  0  0  0  0  0  0  0
  141.6290   79.0810  221.5830 C   0  0  0  0  0  0  0  0  0  0  0  0
  141.5440   78.2930  220.2930 C   0  0  0  0  0  0  0  0  0  0  0  0
  142.4310   77.6475  220.2125 H   0  0  0  0  0  0  0  0  0  0  0  0
  141.4957   79.0102  219.4603 H   0  0  0  0  0  0  0  0  0  0  0  0
  140.2900   77.4180  220.2350 C   0  0  0  0  0  0  0  0  0  0  0  0
  140.3850   76.6876  219.4180 H   0  0  0  0  0  0  0  0  0  0  0  0
  139.4033   78.0429  220.0524 H   0  0  0  0  0  0  0  0  0  0  0  0
  141.7960   74.9690  221.0880 N   0  0  0  0  0  0  0  0  0  0  0  0
  142.3940   75.6590  220.5790 H   0  0  0  0  0  0  0  0  0  0  0  0
  142.2110   73.6780  221.1970 C   0  0  0  0  0  0  0  0  0  0  0  0
  143.4620   73.2750  220.6180 N   0  0  0  0  0  0  0  0  0  0  0  0
  143.5140   72.3520  220.1300 H   0  0  0  0  0  0  0  0  0  0  0  0
  144.6110   74.1730  220.4990 C   0  0  0  0  0  0  0  0  0  0  0  0
  144.4972   74.7919  219.5968 H   0  0  0  0  0  0  0  0  0  0  0  0
  144.6594   74.8160  221.3902 H   0  0  0  0  0  0  0  0  0  0  0  0
  145.9060   73.3600  220.3960 C   0  0  0  0  0  0  0  0  0  0  0  0
  146.7648   74.0467  220.4267 H   0  0  0  0  0  0  0  0  0  0  0  0
  145.9445   72.6553  221.2398 H   0  0  0  0  0  0  0  0  0  0  0  0
  145.9500   72.5880  219.1370 N   0  0  0  0  0  0  0  0  0  0  0  0
  145.1160   73.1930  218.0840 C   0  0  0  0  0  0  0  0  0  0  0  0
  144.4867   73.9847  218.5166 H   0  0  0  0  0  0  0  0  0  0  0  0
  145.7522   73.6360  217.3036 H   0  0  0  0  0  0  0  0  0  0  0  0
  144.2340   72.1010  217.4870 C   0  0  0  0  0  0  0  0  0  0  0  0
  143.1893   72.2317  217.8055 H   0  0  0  0  0  0  0  0  0  0  0  0
  144.2356   72.1264  216.3873 H   0  0  0  0  0  0  0  0  0  0  0  0
  144.7920   70.8060  218.0220 C   0  0  0  0  0  0  0  0  0  0  0  0
  143.9853   70.0846  218.2189 H   0  0  0  0  0  0  0  0  0  0  0  0
  145.4738   70.3141  217.3127 H   0  0  0  0  0  0  0  0  0  0  0  0
  145.4810   71.2070  219.3090 C   0  0  0  0  0  0  0  0  0  0  0  0
  144.7730   71.1510  220.1490 H   0  0  0  0  0  0  0  0  0  0  0  0
  146.3221   70.5329  219.5287 H   0  0  0  0  0  0  0  0  0  0  0  0
  141.4190   72.7720  221.8290 N   0  0  0  0  0  0  0  0  0  0  0  0
  140.3100   69.1030  225.6430 C   0  0  0  0  0  0  0  0  0  0  0  0
  140.1690   68.8190  224.5897 H   0  0  0  0  0  0  0  0  0  0  0  0
  140.2190   68.1290  226.6460 C   0  0  0  0  0  0  0  0  0  0  0  0
  140.0290   67.0791  226.3783 H   0  0  0  0  0  0  0  0  0  0  0  0
  1  2  1  0
  2  3  2  0
  3  4  1  0
  3  5  1  0
  5  6  1  0
  5  7  2  0
  7  8  1  0
  8  9  1  0
  8 10  1  0
  8 11  1  0
 11 12  1  0
 11 13  1  0
 11 14  1  0
 14 15  1  0
 14 16  2  0
 16 17  1  0
 17 18  2  0
 18 19  1  0
 19 20  1  0
 20 21  1  0
 20 22  1  0
 20 23  1  0
 23 24  2  0
 24 25  1  0
 24 26  1  0
 26 27  1  0
 26 28  2  0
 28 29  1  0
 28 30  1  0
 30 31  1  0
 30 32  2  0
 32 33  1  0
 33 34  1  0
 33 35  1  0
 33 36  1  0
 36 37  1  0
 36 38  1  0
 18 39  1  0
 39 40  1  0
 39 41  1  0
 41 42  1  0
 42 43  1  0
 42 44  1  0
 44 45  1  0
 44 46  1  0
 44 47  1  0
 47 48  1  0
 47 49  1  0
 47 50  1  0
 50 51  1  0
 51 52  1  0
 51 53  1  0
 51 54  1  0
 54 55  1  0
 54 56  1  0
 54 57  1  0
 57 58  1  0
 57 59  1  0
 57 60  1  0
 60 61  1  0
 60 62  1  0
 41 63  2  0
  7 64  1  0
 64 65  1  0
 64 66  2  0
 66 67  1  0
 66  2  1  0
 63 16  1  0
 36 19  1  0
 60 50  1  0
 32 23  1  0
M  CHG  1  14   1
M  END
>  <UniqueID>  (21) 
669

>  <SMILES>  (21) 
c1ccc(CC/[NH+]=c2\nc(NCCN3CCCC3)[nH]c(N3CCc4ccccc4C3)n2)cc1

>  <Energy>  (21) 
72.69166460132372

>  <Genealogy>  (21) 
c1ccc(CC[NH2+]c2nc(NCCN3CCCC3)nc(N3CCc4ccccc4C3)n2)cc1 (protonated)
c1ccc(CC[NH+]=c2nc(NCCN3CCCC3)[nH]c(N3CCc4ccccc4C3)n2)cc1 (tautomer)
c1ccc(CC/[NH+]=c2\nc(NCCN3CCCC3)[nH]c(N3CCc4ccccc4C3)n2)cc1 (cis-trans isomerization)
c1ccc(CC/[NH+]=c2\nc(NCCN3CCCC3)[nH]c(N3CCc4ccccc4C3)n2)cc1 (3D coordinates assigned)
c1ccc(CC/[NH+]=c2\nc(NCCN3CCCC3)[nH]c(N3CCc4ccccc4C3)n2)cc1 (nonaromatic ring conformer: 72.69166460132372 kcal/mol)

>  <smiles>  (21) 
c1ccc(CCNc2nc(NCCN3CCCC3)nc(N3CCc4ccccc4C3)n2)cc1

>  <score_type>  (21) 
oracle

>  <origin>  (21) 
autodockgpu

>  <m_score__min__energy>  (21) 
-9.9900000000000002

>  <m_primary>  (21) 
energy

>  <meeko>  (21) 
{"free_energy": -9.98, "intermolecular_energy": -12.67, "internal_energy": -0.96, "cluster_size": 12, "cluster_id": 1, "rank_in_cluster": 2}

>  <energy>  (21) 
-9.99

>  <cluster_rmsd>  (21) 
0.0

>  <rmsd>  (21) 
271.39

>  <cluster>  (21) 
1

$$$$
FPFWJFTVWFQHMH-FSECZMGHNA-O
     RDKit          3D

 67 71  0  0  0  0  0  0  0  0999 V2000
  140.2996   69.9835  229.1703 H   0  0  0  0  0  0  0  0  0  0  0  0
  140.3690   70.2930  228.1170 C   0  0  0  0  0  0  0  0  0  0  0  0
  141.0830   71.4450  227.7730 C   0  0  0  0  0  0  0  0  0  0  0  0
  141.5767   72.0388  228.5563 H   0  0  0  0  0  0  0  0  0  0  0  0
  141.1710   71.8440  226.4360 C   0  0  0  0  0  0  0  0  0  0  0  0
  141.7384   72.7482  226.1704 H   0  0  0  0  0  0  0  0  0  0  0  0
  140.5370   71.0940  225.4290 C   0  0  0  0  0  0  0  0  0  0  0  0
  140.6290   71.5280  223.9870 C   0  0  0  0  0  0  0  0  0  0  0  0
  141.0597   72.5393  223.9446 H   0  0  0  0  0  0  0  0  0  0  0  0
  141.2652   70.8094  223.4495 H   0  0  0  0  0  0  0  0  0  0  0  0
  139.2500   71.5450  223.3180 C   0  0  0  0  0  0  0  0  0  0  0  0
  138.9227   70.5106  223.1368 H   0  0  0  0  0  0  0  0  0  0  0  0
  138.5383   72.0568  223.9824 H   0  0  0  0  0  0  0  0  0  0  0  0
  139.3080   72.2630  222.0420 N   0  0  0  0  0  0  0  0  0  0  0  0
  138.7050   71.9100  221.2640 H   0  0  0  0  0  0  0  0  0  0  0  0
  140.0740   73.2980  221.8260 C   0  0  0  0  0  0  0  0  0  0  0  0
  139.7300   74.5070  222.3400 N   0  0  0  0  0  0  0  0  0  0  0  0
  140.5050   75.6000  222.1160 C   0  0  0  0  0  0  0  0  0  0  0  0
  140.1130   76.8730  222.6580 N   0  0  0  0  0  0  0  0  0  0  0  0
  141.1060   77.8400  223.1360 C   0  0  0  0  0  0  0  0  0  0  0  0
  142.1033   77.3763  223.1143 H   0  0  0  0  0  0  0  0  0  0  0  0
  140.8497   78.1365  224.1638 H   0  0  0  0  0  0  0  0  0  0  0  0
  141.1090   79.0680  222.2580 C   0  0  0  0  0  0  0  0  0  0  0  0
  142.1770   79.9750  222.3520 C   0  0  0  0  0  0  0  0  0  0  0  0
  143.0193   79.7591  223.0258 H   0  0  0  0  0  0  0  0  0  0  0  0
  142.1770   81.1490  221.5960 C   0  0  0  0  0  0  0  0  0  0  0  0
  143.0204   81.8511  221.6718 H   0  0  0  0  0  0  0  0  0  0  0  0
  141.1080   81.4330  220.7440 C   0  0  0  0  0  0  0  0  0  0  0  0
  141.1149   82.3536  220.1420 H   0  0  0  0  0  0  0  0  0  0  0  0
  140.0290   80.5490  220.6550 C   0  0  0  0  0  0  0  0  0  0  0  0
  139.1883   80.7796  219.9841 H   0  0  0  0  0  0  0  0  0  0  0  0
  140.0100   79.3680  221.4160 C   0  0  0  0  0  0  0  0  0  0  0  0
  138.8640   78.3960  221.2340 C   0  0  0  0  0  0  0  0  0  0  0  0
  139.0121   77.8445  220.2938 H   0  0  0  0  0  0  0  0  0  0  0  0
  137.9284   78.9742  221.2133 H   0  0  0  0  0  0  0  0  0  0  0  0
  138.7740   77.3930  222.3860 C   0  0  0  0  0  0  0  0  0  0  0  0
  138.1052   76.5659  222.1057 H   0  0  0  0  0  0  0  0  0  0  0  0
  138.3734   77.8869  223.2836 H   0  0  0  0  0  0  0  0  0  0  0  0
  141.6250   75.4850  221.3480 N   0  0  0  0  0  0  0  0  0  0  0  0
  142.2090   76.3260  221.1370 H   0  0  0  0  0  0  0  0  0  0  0  0
  141.9830   74.2770  220.8360 C   0  0  0  0  0  0  0  0  0  0  0  0
  143.1580   74.1650  220.0160 N   0  0  0  0  0  0  0  0  0  0  0  0
  143.3290   73.2690  219.5060 H   0  0  0  0  0  0  0  0  0  0  0  0
  144.0180   75.3040  219.6990 C   0  0  0  0  0  0  0  0  0  0  0  0
  144.1031   75.9529  220.5831 H   0  0  0  0  0  0  0  0  0  0  0  0
  145.0127   74.9346  219.4089 H   0  0  0  0  0  0  0  0  0  0  0  0
  143.4220   76.1060  218.5370 C   0  0  0  0  0  0  0  0  0  0  0  0
  144.2272   76.6602  218.0325 H   0  0  0  0  0  0  0  0  0  0  0  0
  142.9396   75.4053  217.8396 H   0  0  0  0  0  0  0  0  0  0  0  0
  142.4050   77.0640  219.0190 N   0  0  0  0  0  0  0  0  0  0  0  0
  141.0360   76.6450  218.6730 C   0  0  0  0  0  0  0  0  0  0  0  0
  141.0720   75.8053  217.9633 H   0  0  0  0  0  0  0  0  0  0  0  0
  140.4990   76.3199  219.5763 H   0  0  0  0  0  0  0  0  0  0  0  0
  140.3210   77.8300  218.0340 C   0  0  0  0  0  0  0  0  0  0  0  0
  140.1953   77.6676  216.9533 H   0  0  0  0  0  0  0  0  0  0  0  0
  139.3141   77.9767  218.4519 H   0  0  0  0  0  0  0  0  0  0  0  0
  141.2160   79.0170  218.2900 C   0  0  0  0  0  0  0  0  0  0  0  0
  141.1977   79.7116  217.4372 H   0  0  0  0  0  0  0  0  0  0  0  0
  140.9017   79.6031  219.1662 H   0  0  0  0  0  0  0  0  0  0  0  0
  142.5910   78.4090  218.4590 C   0  0  0  0  0  0  0  0  0  0  0  0
  143.0971   78.3449  217.4845 H   0  0  0  0  0  0  0  0  0  0  0  0
  143.2121   79.0267  219.1244 H   0  0  0  0  0  0  0  0  0  0  0  0
  141.2070   73.1890  221.0810 N   0  0  0  0  0  0  0  0  0  0  0  0
  139.8130   69.9400  225.7840 C   0  0  0  0  0  0  0  0  0  0  0  0
  139.3001   69.3546  225.0067 H   0  0  0  0  0  0  0  0  0  0  0  0
  139.7430   69.5340  227.1230 C   0  0  0  0  0  0  0  0  0  0  0  0
  139.1959   68.6186  227.3925 H   0  0  0  0  0  0  0  0  0  0  0  0
  1  2  1  0
  2  3  2  0
  3  4  1  0
  3  5  1  0
  5  6  1  0
  5  7  2  0
  7  8  1  0
  8  9  1  0
  8 10  1  0
  8 11  1  0
 11 12  1  0
 11 13  1  0
 11 14  1  0
 14 15  1  0
 14 16  2  0
 16 17  1  0
 17 18  2  0
 18 19  1  0
 19 20  1  0
 20 21  1  0
 20 22  1  0
 20 23  1  0
 23 24  2  0
 24 25  1  0
 24 26  1  0
 26 27  1  0
 26 28  2  0
 28 29  1  0
 28 30  1  0
 30 31  1  0
 30 32  2  0
 32 33  1  0
 33 34  1  0
 33 35  1  0
 33 36  1  0
 36 37  1  0
 36 38  1  0
 18 39  1  0
 39 40  1  0
 39 41  1  0
 41 42  1  0
 42 43  1  0
 42 44  1  0
 44 45  1  0
 44 46  1  0
 44 47  1  0
 47 48  1  0
 47 49  1  0
 47 50  1  0
 50 51  1  0
 51 52  1  0
 51 53  1  0
 51 54  1  0
 54 55  1  0
 54 56  1  0
 54 57  1  0
 57 58  1  0
 57 59  1  0
 57 60  1  0
 60 61  1  0
 60 62  1  0
 41 63  2  0
  7 64  1  0
 64 65  1  0
 64 66  2  0
 66 67  1  0
 66  2  1  0
 63 16  1  0
 36 19  1  0
 60 50  1  0
 32 23  1  0
M  CHG  1  14   1
M  END
>  <UniqueID>  (22) 
669

>  <SMILES>  (22) 
c1ccc(CC/[NH+]=c2\nc(NCCN3CCCC3)[nH]c(N3CCc4ccccc4C3)n2)cc1

>  <Energy>  (22) 
72.69166460132372

>  <Genealogy>  (22) 
c1ccc(CC[NH2+]c2nc(NCCN3CCCC3)nc(N3CCc4ccccc4C3)n2)cc1 (protonated)
c1ccc(CC[NH+]=c2nc(NCCN3CCCC3)[nH]c(N3CCc4ccccc4C3)n2)cc1 (tautomer)
c1ccc(CC/[NH+]=c2\nc(NCCN3CCCC3)[nH]c(N3CCc4ccccc4C3)n2)cc1 (cis-trans isomerization)
c1ccc(CC/[NH+]=c2\nc(NCCN3CCCC3)[nH]c(N3CCc4ccccc4C3)n2)cc1 (3D coordinates assigned)
c1ccc(CC/[NH+]=c2\nc(NCCN3CCCC3)[nH]c(N3CCc4ccccc4C3)n2)cc1 (nonaromatic ring conformer: 72.69166460132372 kcal/mol)

>  <smiles>  (22) 
c1ccc(CCNc2nc(NCCN3CCCC3)nc(N3CCc4ccccc4C3)n2)cc1

>  <score_type>  (22) 
oracle

>  <origin>  (22) 
autodockgpu

>  <m_score__min__energy>  (22) 
-9.9900000000000002

>  <m_primary>  (22) 
energy

>  <meeko>  (22) 
{"free_energy": -8.07, "intermolecular_energy": -10.76, "internal_energy": -2.53, "cluster_size": 12, "cluster_id": 1, "rank_in_cluster": 12}

>  <energy>  (22) 
-9.98

>  <cluster_rmsd>  (22) 
0.75

>  <rmsd>  (22) 
271.46

>  <cluster>  (22) 
1

$$$$
FPFWJFTVWFQHMH-FSECZMGHNA-O
     RDKit          3D

 67 71  0  0  0  0  0  0  0  0999 V2000
  140.7999   73.3345  227.8108 H   0  0  0  0  0  0  0  0  0  0  0  0
  140.7740   72.2700  227.5350 C   0  0  0  0  0  0  0  0  0  0  0  0
  140.0720   71.3590  228.3310 C   0  0  0  0  0  0  0  0  0  0  0  0
  139.5449   71.7087  229.2309 H   0  0  0  0  0  0  0  0  0  0  0  0
  140.0390   70.0050  227.9850 C   0  0  0  0  0  0  0  0  0  0  0  0
  139.4813   69.2935  228.6117 H   0  0  0  0  0  0  0  0  0  0  0  0
  140.7150   69.5480  226.8400 C   0  0  0  0  0  0  0  0  0  0  0  0
  140.6820   68.0860  226.4700 C   0  0  0  0  0  0  0  0  0  0  0  0
  141.5873   67.8420  225.8948 H   0  0  0  0  0  0  0  0  0  0  0  0
  140.6371   67.4955  227.3970 H   0  0  0  0  0  0  0  0  0  0  0  0
  139.4480   67.7500  225.6240 C   0  0  0  0  0  0  0  0  0  0  0  0
  139.5720   66.7495  225.1840 H   0  0  0  0  0  0  0  0  0  0  0  0
  138.5571   67.7722  226.2688 H   0  0  0  0  0  0  0  0  0  0  0  0
  139.2810   68.7320  224.5500 N   0  0  0  0  0  0  0  0  0  0  0  0
  140.0420   68.7970  223.8350 H   0  0  0  0  0  0  0  0  0  0  0  0
  138.2510   69.5280  224.4490 C   0  0  0  0  0  0  0  0  0  0  0  0
  137.0960   69.2160  225.0910 N   0  0  0  0  0  0  0  0  0  0  0  0
  136.0080   70.0230  224.9880 C   0  0  0  0  0  0  0  0  0  0  0  0
  134.7900   69.6640  225.6650 N   0  0  0  0  0  0  0  0  0  0  0  0
  134.3490   70.3700  226.8720 C   0  0  0  0  0  0  0  0  0  0  0  0
  135.1348   71.0714  227.1892 H   0  0  0  0  0  0  0  0  0  0  0  0
  134.1569   69.6335  227.6661 H   0  0  0  0  0  0  0  0  0  0  0  0
  133.0790   71.1370  226.5980 C   0  0  0  0  0  0  0  0  0  0  0  0
  132.6560   72.1120  227.5150 C   0  0  0  0  0  0  0  0  0  0  0  0
  133.2757   72.3396  228.3949 H   0  0  0  0  0  0  0  0  0  0  0  0
  131.4540   72.7950  227.3180 C   0  0  0  0  0  0  0  0  0  0  0  0
  131.1337   73.5615  228.0390 H   0  0  0  0  0  0  0  0  0  0  0  0
  130.6580   72.5070  226.2080 C   0  0  0  0  0  0  0  0  0  0  0  0
  129.7163   73.0532  226.0502 H   0  0  0  0  0  0  0  0  0  0  0  0
  131.0570   71.5250  225.2970 C   0  0  0  0  0  0  0  0  0  0  0  0
  130.4248   71.2998  224.4255 H   0  0  0  0  0  0  0  0  0  0  0  0
  132.2600   70.8230  225.4860 C   0  0  0  0  0  0  0  0  0  0  0  0
  132.6990   69.8240  224.4370 C   0  0  0  0  0  0  0  0  0  0  0  0
  133.0998   70.3714  223.5711 H   0  0  0  0  0  0  0  0  0  0  0  0
  131.8236   69.2201  224.1559 H   0  0  0  0  0  0  0  0  0  0  0  0
  133.7780   68.8750  224.9640 C   0  0  0  0  0  0  0  0  0  0  0  0
  134.2427   68.3386  224.1235 H   0  0  0  0  0  0  0  0  0  0  0  0
  133.3308   68.1412  225.6508 H   0  0  0  0  0  0  0  0  0  0  0  0
  136.0700   71.1410  224.2130 N   0  0  0  0  0  0  0  0  0  0  0  0
  135.2280   71.7500  224.0950 H   0  0  0  0  0  0  0  0  0  0  0  0
  137.2250   71.4680  223.5720 C   0  0  0  0  0  0  0  0  0  0  0  0
  137.2800   72.6410  222.7460 N   0  0  0  0  0  0  0  0  0  0  0  0
  138.1350   73.2420  222.7860 H   0  0  0  0  0  0  0  0  0  0  0  0
  136.2930   72.9300  221.7060 C   0  0  0  0  0  0  0  0  0  0  0  0
  136.7853   73.4513  220.8718 H   0  0  0  0  0  0  0  0  0  0  0  0
  135.8565   71.9848  221.3508 H   0  0  0  0  0  0  0  0  0  0  0  0
  135.1780   73.8170  222.2710 C   0  0  0  0  0  0  0  0  0  0  0  0
  135.3101   74.8427  221.8962 H   0  0  0  0  0  0  0  0  0  0  0  0
  134.2090   73.4091  221.9473 H   0  0  0  0  0  0  0  0  0  0  0  0
  135.2100   73.8350  223.7480 N   0  0  0  0  0  0  0  0  0  0  0  0
  133.8770   73.6190  224.3370 C   0  0  0  0  0  0  0  0  0  0  0  0
  133.1090   73.6799  223.5518 H   0  0  0  0  0  0  0  0  0  0  0  0
  133.8255   72.6244  224.8041 H   0  0  0  0  0  0  0  0  0  0  0  0
  133.6340   74.7030  225.3810 C   0  0  0  0  0  0  0  0  0  0  0  0
  132.8943   75.4309  225.0163 H   0  0  0  0  0  0  0  0  0  0  0  0
  133.2355   74.2887  226.3188 H   0  0  0  0  0  0  0  0  0  0  0  0
  134.9740   75.3660  225.5820 C   0  0  0  0  0  0  0  0  0  0  0  0
  134.8540   76.4454  225.7564 H   0  0  0  0  0  0  0  0  0  0  0  0
  135.5130   74.9748  226.4575 H   0  0  0  0  0  0  0  0  0  0  0  0
  135.7080   75.1090  224.2830 C   0  0  0  0  0  0  0  0  0  0  0  0
  135.5072   75.9217  223.5694 H   0  0  0  0  0  0  0  0  0  0  0  0
  136.7943   75.0645  224.4503 H   0  0  0  0  0  0  0  0  0  0  0  0
  138.3110   70.6600  223.6970 N   0  0  0  0  0  0  0  0  0  0  0  0
  141.4270   70.4700  226.0480 C   0  0  0  0  0  0  0  0  0  0  0  0
  141.9725   70.1218  225.1585 H   0  0  0  0  0  0  0  0  0  0  0  0
  141.4430   71.8290  226.3890 C   0  0  0  0  0  0  0  0  0  0  0  0
  141.9817   72.5488  225.7553 H   0  0  0  0  0  0  0  0  0  0  0  0
  1  2  1  0
  2  3  2  0
  3  4  1  0
  3  5  1  0
  5  6  1  0
  5  7  2  0
  7  8  1  0
  8  9  1  0
  8 10  1  0
  8 11  1  0
 11 12  1  0
 11 13  1  0
 11 14  1  0
 14 15  1  0
 14 16  2  0
 16 17  1  0
 17 18  2  0
 18 19  1  0
 19 20  1  0
 20 21  1  0
 20 22  1  0
 20 23  1  0
 23 24  2  0
 24 25  1  0
 24 26  1  0
 26 27  1  0
 26 28  2  0
 28 29  1  0
 28 30  1  0
 30 31  1  0
 30 32  2  0
 32 33  1  0
 33 34  1  0
 33 35  1  0
 33 36  1  0
 36 37  1  0
 36 38  1  0
 18 39  1  0
 39 40  1  0
 39 41  1  0
 41 42  1  0
 42 43  1  0
 42 44  1  0
 44 45  1  0
 44 46  1  0
 44 47  1  0
 47 48  1  0
 47 49  1  0
 47 50  1  0
 50 51  1  0
 51 52  1  0
 51 53  1  0
 51 54  1  0
 54 55  1  0
 54 56  1  0
 54 57  1  0
 57 58  1  0
 57 59  1  0
 57 60  1  0
 60 61  1  0
 60 62  1  0
 41 63  2  0
  7 64  1  0
 64 65  1  0
 64 66  2  0
 66 67  1  0
 66  2  1  0
 63 16  1  0
 36 19  1  0
 60 50  1  0
 32 23  1  0
M  CHG  1  14   1
M  END
>  <UniqueID>  (23) 
669

>  <SMILES>  (23) 
c1ccc(CC/[NH+]=c2\nc(NCCN3CCCC3)[nH]c(N3CCc4ccccc4C3)n2)cc1

>  <Energy>  (23) 
72.69166460132372

>  <Genealogy>  (23) 
c1ccc(CC[NH2+]c2nc(NCCN3CCCC3)nc(N3CCc4ccccc4C3)n2)cc1 (protonated)
c1ccc(CC[NH+]=c2nc(NCCN3CCCC3)[nH]c(N3CCc4ccccc4C3)n2)cc1 (tautomer)
c1ccc(CC/[NH+]=c2\nc(NCCN3CCCC3)[nH]c(N3CCc4ccccc4C3)n2)cc1 (cis-trans isomerization)
c1ccc(CC/[NH+]=c2\nc(NCCN3CCCC3)[nH]c(N3CCc4ccccc4C3)n2)cc1 (3D coordinates assigned)
c1ccc(CC/[NH+]=c2\nc(NCCN3CCCC3)[nH]c(N3CCc4ccccc4C3)n2)cc1 (nonaromatic ring conformer: 72.69166460132372 kcal/mol)

>  <smiles>  (23) 
c1ccc(CCNc2nc(NCCN3CCCC3)nc(N3CCc4ccccc4C3)n2)cc1

>  <score_type>  (23) 
oracle

>  <origin>  (23) 
autodockgpu

>  <m_score__min__energy>  (23) 
-9.9900000000000002

>  <m_primary>  (23) 
energy

>  <meeko>  (23) 
{"free_energy": -7.4, "intermolecular_energy": -10.08, "internal_energy": -2.9, "cluster_size": 2, "cluster_id": 4, "rank_in_cluster": 2}

>  <energy>  (23) 
-9.05

>  <cluster_rmsd>  (23) 
1.42

>  <rmsd>  (23) 
271.2

>  <cluster>  (23) 
1

$$$$
FPFWJFTVWFQHMH-FSECZMGHNA-O
     RDKit          3D

 67 71  0  0  0  0  0  0  0  0999 V2000
  140.4200   69.9294  229.3337 H   0  0  0  0  0  0  0  0  0  0  0  0
  140.4610   70.2460  228.2810 C   0  0  0  0  0  0  0  0  0  0  0  0
  141.0280   71.4790  227.9440 C   0  0  0  0  0  0  0  0  0  0  0  0
  141.4356   72.1293  228.7320 H   0  0  0  0  0  0  0  0  0  0  0  0
  141.0780   71.8870  226.6080 C   0  0  0  0  0  0  0  0  0  0  0  0
  141.5285   72.8562  226.3480 H   0  0  0  0  0  0  0  0  0  0  0  0
  140.5550   71.0640  225.5950 C   0  0  0  0  0  0  0  0  0  0  0  0
  140.6060   71.5070  224.1530 C   0  0  0  0  0  0  0  0  0  0  0  0
  140.8692   72.5744  224.1160 H   0  0  0  0  0  0  0  0  0  0  0  0
  141.3605   70.8997  223.6316 H   0  0  0  0  0  0  0  0  0  0  0  0
  139.2570   71.3020  223.4550 C   0  0  0  0  0  0  0  0  0  0  0  0
  139.0779   70.2248  223.3227 H   0  0  0  0  0  0  0  0  0  0  0  0
  138.4643   71.7448  224.0759 H   0  0  0  0  0  0  0  0  0  0  0  0
  139.2530   71.9560  222.1440 N   0  0  0  0  0  0  0  0  0  0  0  0
  138.6170   71.5630  221.4120 H   0  0  0  0  0  0  0  0  0  0  0  0
  140.0030   72.9810  221.8430 C   0  0  0  0  0  0  0  0  0  0  0  0
  139.6840   74.2110  222.3230 N   0  0  0  0  0  0  0  0  0  0  0  0
  140.4420   75.2940  222.0110 C   0  0  0  0  0  0  0  0  0  0  0  0
  140.0750   76.5890  222.5190 N   0  0  0  0  0  0  0  0  0  0  0  0
  141.0710   77.4920  223.1030 C   0  0  0  0  0  0  0  0  0  0  0  0
  142.0345   76.9670  223.1811 H   0  0  0  0  0  0  0  0  0  0  0  0
  140.7284   77.8038  224.1007 H   0  0  0  0  0  0  0  0  0  0  0  0
  141.2410   78.7170  222.2390 C   0  0  0  0  0  0  0  0  0  0  0  0
  142.3480   79.5560  222.4490 C   0  0  0  0  0  0  0  0  0  0  0  0
  143.1016   79.2877  223.2041 H   0  0  0  0  0  0  0  0  0  0  0  0
  142.4980   80.7290  221.7050 C   0  0  0  0  0  0  0  0  0  0  0  0
  143.3709   81.3772  221.8720 H   0  0  0  0  0  0  0  0  0  0  0  0
  141.5420   81.0800  220.7500 C   0  0  0  0  0  0  0  0  0  0  0  0
  141.6679   81.9991  220.1588 H   0  0  0  0  0  0  0  0  0  0  0  0
  140.4250   80.2650  220.5440 C   0  0  0  0  0  0  0  0  0  0  0  0
  139.6731   80.5485  219.7928 H   0  0  0  0  0  0  0  0  0  0  0  0
  140.2560   79.0860  221.2900 C   0  0  0  0  0  0  0  0  0  0  0  0
  139.0760   78.1880  220.9850 C   0  0  0  0  0  0  0  0  0  0  0  0
  139.2849   77.6292  220.0608 H   0  0  0  0  0  0  0  0  0  0  0  0
  138.1857   78.8243  220.8737 H   0  0  0  0  0  0  0  0  0  0  0  0
  138.8050   77.1910  222.1140 C   0  0  0  0  0  0  0  0  0  0  0  0
  138.1195   76.4071  221.7597 H   0  0  0  0  0  0  0  0  0  0  0  0
  138.3440   77.7072  222.9690 H   0  0  0  0  0  0  0  0  0  0  0  0
  141.5180   75.1480  221.1880 N   0  0  0  0  0  0  0  0  0  0  0  0
  142.0870   75.9800  220.9100 H   0  0  0  0  0  0  0  0  0  0  0  0
  141.8520   73.9190  220.7090 C   0  0  0  0  0  0  0  0  0  0  0  0
  142.9800   73.7730  219.8320 N   0  0  0  0  0  0  0  0  0  0  0  0
  142.8490   73.2660  218.9270 H   0  0  0  0  0  0  0  0  0  0  0  0
  144.2490   74.4690  220.0440 C   0  0  0  0  0  0  0  0  0  0  0  0
  144.6036   74.2758  221.0672 H   0  0  0  0  0  0  0  0  0  0  0  0
  144.9877   74.1012  219.3167 H   0  0  0  0  0  0  0  0  0  0  0  0
  144.0600   75.9780  219.8490 C   0  0  0  0  0  0  0  0  0  0  0  0
  143.8557   76.4435  220.8245 H   0  0  0  0  0  0  0  0  0  0  0  0
  144.9793   76.3913  219.4084 H   0  0  0  0  0  0  0  0  0  0  0  0
  142.9340   76.2590  218.9350 N   0  0  0  0  0  0  0  0  0  0  0  0
  143.3410   76.2180  217.5200 C   0  0  0  0  0  0  0  0  0  0  0  0
  144.4379   76.1749  217.4496 H   0  0  0  0  0  0  0  0  0  0  0  0
  142.9208   75.3270  217.0305 H   0  0  0  0  0  0  0  0  0  0  0  0
  142.8300   77.4820  216.8380 C   0  0  0  0  0  0  0  0  0  0  0  0
  143.6626   78.1680  216.6231 H   0  0  0  0  0  0  0  0  0  0  0  0
  142.3439   77.2626  215.8760 H   0  0  0  0  0  0  0  0  0  0  0  0
  141.8730   78.1040  217.8250 C   0  0  0  0  0  0  0  0  0  0  0  0
  141.9331   79.2018  217.7892 H   0  0  0  0  0  0  0  0  0  0  0  0
  140.8236   77.8500  217.6148 H   0  0  0  0  0  0  0  0  0  0  0  0
  142.3410   77.5830  219.1670 C   0  0  0  0  0  0  0  0  0  0  0  0
  143.0925   78.2631  219.5943 H   0  0  0  0  0  0  0  0  0  0  0  0
  141.5017   77.5168  219.8750 H   0  0  0  0  0  0  0  0  0  0  0  0
  141.0930   72.8420  221.0430 N   0  0  0  0  0  0  0  0  0  0  0  0
  139.9790   69.8270  225.9420 C   0  0  0  0  0  0  0  0  0  0  0  0
  139.5534   69.1818  225.1593 H   0  0  0  0  0  0  0  0  0  0  0  0
  139.9460   69.4150  227.2810 C   0  0  0  0  0  0  0  0  0  0  0  0
  139.5151   68.4381  227.5455 H   0  0  0  0  0  0  0  0  0  0  0  0
  1  2  1  0
  2  3  2  0
  3  4  1  0
  3  5  1  0
  5  6  1  0
  5  7  2  0
  7  8  1  0
  8  9  1  0
  8 10  1  0
  8 11  1  0
 11 12  1  0
 11 13  1  0
 11 14  1  0
 14 15  1  0
 14 16  2  0
 16 17  1  0
 17 18  2  0
 18 19  1  0
 19 20  1  0
 20 21  1  0
 20 22  1  0
 20 23  1  0
 23 24  2  0
 24 25  1  0
 24 26  1  0
 26 27  1  0
 26 28  2  0
 28 29  1  0
 28 30  1  0
 30 31  1  0
 30 32  2  0
 32 33  1  0
 33 34  1  0
 33 35  1  0
 33 36  1  0
 36 37  1  0
 36 38  1  0
 18 39  1  0
 39 40  1  0
 39 41  1  0
 41 42  1  0
 42 43  1  0
 42 44  1  0
 44 45  1  0
 44 46  1  0
 44 47  1  0
 47 48  1  0
 47 49  1  0
 47 50  1  0
 50 51  1  0
 51 52  1  0
 51 53  1  0
 51 54  1  0
 54 55  1  0
 54 56  1  0
 54 57  1  0
 57 58  1  0
 57 59  1  0
 57 60  1  0
 60 61  1  0
 60 62  1  0
 41 63  2  0
  7 64  1  0
 64 65  1  0
 64 66  2  0
 66 67  1  0
 66  2  1  0
 63 16  1  0
 36 19  1  0
 60 50  1  0
 32 23  1  0
M  CHG  1  14   1
M  END
>  <UniqueID>  (24) 
669

>  <SMILES>  (24) 
c1ccc(CC/[NH+]=c2\nc(NCCN3CCCC3)[nH]c(N3CCc4ccccc4C3)n2)cc1

>  <Energy>  (24) 
72.69166460132372

>  <Genealogy>  (24) 
c1ccc(CC[NH2+]c2nc(NCCN3CCCC3)nc(N3CCc4ccccc4C3)n2)cc1 (protonated)
c1ccc(CC[NH+]=c2nc(NCCN3CCCC3)[nH]c(N3CCc4ccccc4C3)n2)cc1 (tautomer)
c1ccc(CC/[NH+]=c2\nc(NCCN3CCCC3)[nH]c(N3CCc4ccccc4C3)n2)cc1 (cis-trans isomerization)
c1ccc(CC/[NH+]=c2\nc(NCCN3CCCC3)[nH]c(N3CCc4ccccc4C3)n2)cc1 (3D coordinates assigned)
c1ccc(CC/[NH+]=c2\nc(NCCN3CCCC3)[nH]c(N3CCc4ccccc4C3)n2)cc1 (nonaromatic ring conformer: 72.69166460132372 kcal/mol)

>  <smiles>  (24) 
c1ccc(CCNc2nc(NCCN3CCCC3)nc(N3CCc4ccccc4C3)n2)cc1

>  <score_type>  (24) 
oracle

>  <origin>  (24) 
autodockgpu

>  <m_score__min__energy>  (24) 
-9.9900000000000002

>  <m_primary>  (24) 
energy

>  <meeko>  (24) 
{"free_energy": -8.22, "intermolecular_energy": -10.9, "internal_energy": -2.41, "cluster_size": 12, "cluster_id": 1, "rank_in_cluster": 9}

>  <energy>  (24) 
-9.03

>  <cluster_rmsd>  (24) 
1.29

>  <rmsd>  (24) 
271.31

>  <cluster>  (24) 
1

$$$$
FPFWJFTVWFQHMH-FSECZMGHNA-O
     RDKit          3D

 67 71  0  0  0  0  0  0  0  0999 V2000
  140.5601   68.9012  229.1177 H   0  0  0  0  0  0  0  0  0  0  0  0
  140.5870   69.4740  228.1790 C   0  0  0  0  0  0  0  0  0  0  0  0
  140.8070   70.8540  228.2100 C   0  0  0  0  0  0  0  0  0  0  0  0
  140.9544   71.3652  229.1728 H   0  0  0  0  0  0  0  0  0  0  0  0
  140.8400   71.5860  227.0180 C   0  0  0  0  0  0  0  0  0  0  0  0
  141.0193   72.6709  227.0465 H   0  0  0  0  0  0  0  0  0  0  0  0
  140.6450   70.9410  225.7840 C   0  0  0  0  0  0  0  0  0  0  0  0
  140.6760   71.7330  224.5000 C   0  0  0  0  0  0  0  0  0  0  0  0
  140.1686   72.6956  224.6611 H   0  0  0  0  0  0  0  0  0  0  0  0
  141.7269   71.8882  224.2146 H   0  0  0  0  0  0  0  0  0  0  0  0
  139.9730   70.9830  223.3620 C   0  0  0  0  0  0  0  0  0  0  0  0
  140.3168   69.9382  223.3502 H   0  0  0  0  0  0  0  0  0  0  0  0
  138.8862   71.0223  223.5276 H   0  0  0  0  0  0  0  0  0  0  0  0
  140.2790   71.6060  222.0720 N   0  0  0  0  0  0  0  0  0  0  0  0
  140.4140   70.9710  221.2510 H   0  0  0  0  0  0  0  0  0  0  0  0
  140.4030   72.8940  221.9000 C   0  0  0  0  0  0  0  0  0  0  0  0
  141.5190   73.3870  221.3020 N   0  0  0  0  0  0  0  0  0  0  0  0
  141.6750   74.7250  221.1270 C   0  0  0  0  0  0  0  0  0  0  0  0
  142.8720   75.2250  220.5040 N   0  0  0  0  0  0  0  0  0  0  0  0
  144.0660   74.3880  220.3580 C   0  0  0  0  0  0  0  0  0  0  0  0
  143.9098   73.4378  220.8897 H   0  0  0  0  0  0  0  0  0  0  0  0
  144.9296   74.9209  220.7825 H   0  0  0  0  0  0  0  0  0  0  0  0
  144.3340   74.1040  218.9000 C   0  0  0  0  0  0  0  0  0  0  0  0
  145.2380   73.0870  218.5550 C   0  0  0  0  0  0  0  0  0  0  0  0
  145.7032   72.4787  219.3447 H   0  0  0  0  0  0  0  0  0  0  0  0
  145.5510   72.8420  217.2160 C   0  0  0  0  0  0  0  0  0  0  0  0
  146.2552   72.0384  216.9545 H   0  0  0  0  0  0  0  0  0  0  0  0
  144.9710   73.6160  216.2090 C   0  0  0  0  0  0  0  0  0  0  0  0
  145.2114   73.4151  215.1546 H   0  0  0  0  0  0  0  0  0  0  0  0
  144.0850   74.6460  216.5390 C   0  0  0  0  0  0  0  0  0  0  0  0
  143.6344   75.2550  215.7415 H   0  0  0  0  0  0  0  0  0  0  0  0
  143.7660   74.9090  217.8820 C   0  0  0  0  0  0  0  0  0  0  0  0
  142.7430   75.9780  218.1970 C   0  0  0  0  0  0  0  0  0  0  0  0
  141.7388   75.5811  217.9872 H   0  0  0  0  0  0  0  0  0  0  0  0
  142.9641   76.8544  217.5701 H   0  0  0  0  0  0  0  0  0  0  0  0
  142.8040   76.4180  219.6620 C   0  0  0  0  0  0  0  0  0  0  0  0
  141.9035   76.9979  219.9127 H   0  0  0  0  0  0  0  0  0  0  0  0
  143.6906   77.0473  219.8291 H   0  0  0  0  0  0  0  0  0  0  0  0
  140.7150   75.5800  221.5770 N   0  0  0  0  0  0  0  0  0  0  0  0
  140.8410   76.6140  221.4820 H   0  0  0  0  0  0  0  0  0  0  0  0
  139.5900   75.0960  222.1690 C   0  0  0  0  0  0  0  0  0  0  0  0
  138.5870   76.0030  222.6540 N   0  0  0  0  0  0  0  0  0  0  0  0
  138.0070   75.7170  223.4750 H   0  0  0  0  0  0  0  0  0  0  0  0
  138.4700   77.3840  222.1870 C   0  0  0  0  0  0  0  0  0  0  0  0
  138.8362   77.4505  221.1519 H   0  0  0  0  0  0  0  0  0  0  0  0
  137.4146   77.6911  222.2304 H   0  0  0  0  0  0  0  0  0  0  0  0
  139.3010   78.3130  223.0800 C   0  0  0  0  0  0  0  0  0  0  0  0
  138.8213   79.3023  223.1143 H   0  0  0  0  0  0  0  0  0  0  0  0
  139.3541   77.8743  224.0873 H   0  0  0  0  0  0  0  0  0  0  0  0
  140.6760   78.4610  222.5590 N   0  0  0  0  0  0  0  0  0  0  0  0
  141.6590   78.6680  223.6360 C   0  0  0  0  0  0  0  0  0  0  0  0
  141.1364   78.8587  224.5849 H   0  0  0  0  0  0  0  0  0  0  0  0
  142.2871   77.7726  223.7529 H   0  0  0  0  0  0  0  0  0  0  0  0
  142.5220   79.8710  223.2720 C   0  0  0  0  0  0  0  0  0  0  0  0
  142.2698   80.7331  223.9069 H   0  0  0  0  0  0  0  0  0  0  0  0
  143.5930   79.6697  223.4221 H   0  0  0  0  0  0  0  0  0  0  0  0
  142.2000   80.1650  221.8280 C   0  0  0  0  0  0  0  0  0  0  0  0
  142.2105   81.2484  221.6377 H   0  0  0  0  0  0  0  0  0  0  0  0
  142.9320   79.7274  221.1332 H   0  0  0  0  0  0  0  0  0  0  0  0
  140.8080   79.5990  221.6410 C   0  0  0  0  0  0  0  0  0  0  0  0
  140.0547   80.3645  221.8787 H   0  0  0  0  0  0  0  0  0  0  0  0
  140.6520   79.2811  220.5996 H   0  0  0  0  0  0  0  0  0  0  0  0
  139.4400   73.7540  222.3240 N   0  0  0  0  0  0  0  0  0  0  0  0
  140.4150   69.5520  225.7630 C   0  0  0  0  0  0  0  0  0  0  0  0
  140.2455   69.0395  224.8045 H   0  0  0  0  0  0  0  0  0  0  0  0
  140.4010   68.8200  226.9570 C   0  0  0  0  0  0  0  0  0  0  0  0
  140.2438   67.7315  226.9335 H   0  0  0  0  0  0  0  0  0  0  0  0
  1  2  1  0
  2  3  2  0
  3  4  1  0
  3  5  1  0
  5  6  1  0
  5  7  2  0
  7  8  1  0
  8  9  1  0
  8 10  1  0
  8 11  1  0
 11 12  1  0
 11 13  1  0
 11 14  1  0
 14 15  1  0
 14 16  2  0
 16 17  1  0
 17 18  2  0
 18 19  1  0
 19 20  1  0
 20 21  1  0
 20 22  1  0
 20 23  1  0
 23 24  2  0
 24 25  1  0
 24 26  1  0
 26 27  1  0
 26 28  2  0
 28 29  1  0
 28 30  1  0
 30 31  1  0
 30 32  2  0
 32 33  1  0
 33 34  1  0
 33 35  1  0
 33 36  1  0
 36 37  1  0
 36 38  1  0
 18 39  1  0
 39 40  1  0
 39 41  1  0
 41 42  1  0
 42 43  1  0
 42 44  1  0
 44 45  1  0
 44 46  1  0
 44 47  1  0
 47 48  1  0
 47 49  1  0
 47 50  1  0
 50 51  1  0
 51 52  1  0
 51 53  1  0
 51 54  1  0
 54 55  1  0
 54 56  1  0
 54 57  1  0
 57 58  1  0
 57 59  1  0
 57 60  1  0
 60 61  1  0
 60 62  1  0
 41 63  2  0
  7 64  1  0
 64 65  1  0
 64 66  2  0
 66 67  1  0
 66  2  1  0
 63 16  1  0
 36 19  1  0
 60 50  1  0
 32 23  1  0
M  CHG  1  14   1
M  END
>  <UniqueID>  (25) 
669

>  <SMILES>  (25) 
c1ccc(CC/[NH+]=c2\nc(NCCN3CCCC3)[nH]c(N3CCc4ccccc4C3)n2)cc1

>  <Energy>  (25) 
72.69166460132372

>  <Genealogy>  (25) 
c1ccc(CC[NH2+]c2nc(NCCN3CCCC3)nc(N3CCc4ccccc4C3)n2)cc1 (protonated)
c1ccc(CC[NH+]=c2nc(NCCN3CCCC3)[nH]c(N3CCc4ccccc4C3)n2)cc1 (tautomer)
c1ccc(CC/[NH+]=c2\nc(NCCN3CCCC3)[nH]c(N3CCc4ccccc4C3)n2)cc1 (cis-trans isomerization)
c1ccc(CC/[NH+]=c2\nc(NCCN3CCCC3)[nH]c(N3CCc4ccccc4C3)n2)cc1 (3D coordinates assigned)
c1ccc(CC/[NH+]=c2\nc(NCCN3CCCC3)[nH]c(N3CCc4ccccc4C3)n2)cc1 (nonaromatic ring conformer: 72.69166460132372 kcal/mol)

>  <smiles>  (25) 
c1ccc(CCNc2nc(NCCN3CCCC3)nc(N3CCc4ccccc4C3)n2)cc1

>  <score_type>  (25) 
oracle

>  <origin>  (25) 
autodockgpu

>  <m_score__min__energy>  (25) 
-9.9900000000000002

>  <m_primary>  (25) 
energy

>  <meeko>  (25) 
{"free_energy": -8.58, "intermolecular_energy": -11.26, "internal_energy": -1.8, "cluster_size": 4, "cluster_id": 2, "rank_in_cluster": 4}

>  <energy>  (25) 
-9.0

>  <cluster_rmsd>  (25) 
1.34

>  <rmsd>  (25) 
271.19

>  <cluster>  (25) 
1

$$$$
FPFWJFTVWFQHMH-FSECZMGHNA-O
     RDKit          3D

 67 71  0  0  0  0  0  0  0  0999 V2000
  140.1978   70.0815  229.2500 H   0  0  0  0  0  0  0  0  0  0  0  0
  140.2990   70.3650  228.1920 C   0  0  0  0  0  0  0  0  0  0  0  0
  140.9760   71.5380  227.8460 C   0  0  0  0  0  0  0  0  0  0  0  0
  141.4095   72.1741  228.6318 H   0  0  0  0  0  0  0  0  0  0  0  0
  141.1030   71.9040  226.5020 C   0  0  0  0  0  0  0  0  0  0  0  0
  141.6408   72.8253  226.2338 H   0  0  0  0  0  0  0  0  0  0  0  0
  140.5460   71.0990  225.4920 C   0  0  0  0  0  0  0  0  0  0  0  0
  140.6810   71.4970  224.0430 C   0  0  0  0  0  0  0  0  0  0  0  0
  141.0964   72.5141  223.9885 H   0  0  0  0  0  0  0  0  0  0  0  0
  141.3471   70.7759  223.5467 H   0  0  0  0  0  0  0  0  0  0  0  0
  139.3250   71.4730  223.3270 C   0  0  0  0  0  0  0  0  0  0  0  0
  139.0177   70.4288  223.1683 H   0  0  0  0  0  0  0  0  0  0  0  0
  138.5839   71.9953  223.9499 H   0  0  0  0  0  0  0  0  0  0  0  0
  139.4180   72.1510  222.0310 N   0  0  0  0  0  0  0  0  0  0  0  0
  138.8560   71.7570  221.2420 H   0  0  0  0  0  0  0  0  0  0  0  0
  140.1650   73.1990  221.8130 C   0  0  0  0  0  0  0  0  0  0  0  0
  139.7680   74.4140  222.2720 N   0  0  0  0  0  0  0  0  0  0  0  0
  140.5240   75.5200  222.0440 C   0  0  0  0  0  0  0  0  0  0  0  0
  140.0760   76.7990  222.5270 N   0  0  0  0  0  0  0  0  0  0  0  0
  141.0160   77.7850  223.0670 C   0  0  0  0  0  0  0  0  0  0  0  0
  142.0155   77.3313  223.1386 H   0  0  0  0  0  0  0  0  0  0  0  0
  140.6705   78.0986  224.0632 H   0  0  0  0  0  0  0  0  0  0  0  0
  141.0830   78.9960  222.1690 C   0  0  0  0  0  0  0  0  0  0  0  0
  142.1310   79.9150  222.3350 C   0  0  0  0  0  0  0  0  0  0  0  0
  142.9161   79.7201  223.0804 H   0  0  0  0  0  0  0  0  0  0  0  0
  142.1830   81.0760  221.5590 C   0  0  0  0  0  0  0  0  0  0  0  0
  143.0102   81.7887  221.6922 H   0  0  0  0  0  0  0  0  0  0  0  0
  141.1870   81.3330  220.6150 C   0  0  0  0  0  0  0  0  0  0  0  0
  141.2364   82.2423  219.9980 H   0  0  0  0  0  0  0  0  0  0  0  0
  140.1270   80.4360  220.4530 C   0  0  0  0  0  0  0  0  0  0  0  0
  139.3430   80.6454  219.7104 H   0  0  0  0  0  0  0  0  0  0  0  0
  140.0560   79.2690  221.2320 C   0  0  0  0  0  0  0  0  0  0  0  0
  138.9380   78.2820  220.9740 C   0  0  0  0  0  0  0  0  0  0  0  0
  139.1695   77.7145  220.0606 H   0  0  0  0  0  0  0  0  0  0  0  0
  138.0027   78.8505  220.8641 H   0  0  0  0  0  0  0  0  0  0  0  0
  138.7590   77.2990  222.1340 C   0  0  0  0  0  0  0  0  0  0  0  0
  138.1239   76.4597  221.8143 H   0  0  0  0  0  0  0  0  0  0  0  0
  138.2787   77.8042  222.9850 H   0  0  0  0  0  0  0  0  0  0  0  0
  141.6770   75.4110  221.3270 N   0  0  0  0  0  0  0  0  0  0  0  0
  142.2470   76.2600  221.1120 H   0  0  0  0  0  0  0  0  0  0  0  0
  142.0880   74.1970  220.8700 C   0  0  0  0  0  0  0  0  0  0  0  0
  143.2980   74.0910  220.1040 N   0  0  0  0  0  0  0  0  0  0  0  0
  143.9570   73.3070  220.3130 H   0  0  0  0  0  0  0  0  0  0  0  0
  143.5600   74.9010  218.9140 C   0  0  0  0  0  0  0  0  0  0  0  0
  144.4910   74.5587  218.4385 H   0  0  0  0  0  0  0  0  0  0  0  0
  142.7199   74.7926  218.2122 H   0  0  0  0  0  0  0  0  0  0  0  0
  143.7020   76.3770  219.3030 C   0  0  0  0  0  0  0  0  0  0  0  0
  144.0388   76.4426  220.3481 H   0  0  0  0  0  0  0  0  0  0  0  0
  144.4352   76.8472  218.6312 H   0  0  0  0  0  0  0  0  0  0  0  0
  142.4140   77.0880  219.1650 N   0  0  0  0  0  0  0  0  0  0  0  0
  141.4730   76.3720  218.2870 C   0  0  0  0  0  0  0  0  0  0  0  0
  141.9965   75.5557  217.7678 H   0  0  0  0  0  0  0  0  0  0  0  0
  140.6522   75.9433  218.8807 H   0  0  0  0  0  0  0  0  0  0  0  0
  140.9220   77.3620  217.2670 C   0  0  0  0  0  0  0  0  0  0  0  0
  141.3465   77.1665  216.2712 H   0  0  0  0  0  0  0  0  0  0  0  0
  139.8294   77.2839  217.1666 H   0  0  0  0  0  0  0  0  0  0  0  0
  141.3470   78.7210  217.7660 C   0  0  0  0  0  0  0  0  0  0  0  0
  141.5931   79.3867  216.9256 H   0  0  0  0  0  0  0  0  0  0  0  0
  140.5549   79.2297  218.3351 H   0  0  0  0  0  0  0  0  0  0  0  0
  142.5750   78.4360  218.6040 C   0  0  0  0  0  0  0  0  0  0  0  0
  143.4776   78.4779  217.9766 H   0  0  0  0  0  0  0  0  0  0  0  0
  142.6833   79.1822  219.4049 H   0  0  0  0  0  0  0  0  0  0  0  0
  141.3300   73.0970  221.1200 N   0  0  0  0  0  0  0  0  0  0  0  0
  139.8600   69.9230  225.8500 C   0  0  0  0  0  0  0  0  0  0  0  0
  139.4083   69.2934  225.0693 H   0  0  0  0  0  0  0  0  0  0  0  0
  139.7500   69.5510  227.1960 C   0  0  0  0  0  0  0  0  0  0  0  0
  139.2324   68.6197  227.4693 H   0  0  0  0  0  0  0  0  0  0  0  0
  1  2  1  0
  2  3  2  0
  3  4  1  0
  3  5  1  0
  5  6  1  0
  5  7  2  0
  7  8  1  0
  8  9  1  0
  8 10  1  0
  8 11  1  0
 11 12  1  0
 11 13  1  0
 11 14  1  0
 14 15  1  0
 14 16  2  0
 16 17  1  0
 17 18  2  0
 18 19  1  0
 19 20  1  0
 20 21  1  0
 20 22  1  0
 20 23  1  0
 23 24  2  0
 24 25  1  0
 24 26  1  0
 26 27  1  0
 26 28  2  0
 28 29  1  0
 28 30  1  0
 30 31  1  0
 30 32  2  0
 32 33  1  0
 33 34  1  0
 33 35  1  0
 33 36  1  0
 36 37  1  0
 36 38  1  0
 18 39  1  0
 39 40  1  0
 39 41  1  0
 41 42  1  0
 42 43  1  0
 42 44  1  0
 44 45  1  0
 44 46  1  0
 44 47  1  0
 47 48  1  0
 47 49  1  0
 47 50  1  0
 50 51  1  0
 51 52  1  0
 51 53  1  0
 51 54  1  0
 54 55  1  0
 54 56  1  0
 54 57  1  0
 57 58  1  0
 57 59  1  0
 57 60  1  0
 60 61  1  0
 60 62  1  0
 41 63  2  0
  7 64  1  0
 64 65  1  0
 64 66  2  0
 66 67  1  0
 66  2  1  0
 63 16  1  0
 36 19  1  0
 60 50  1  0
 32 23  1  0
M  CHG  1  14   1
M  END
>  <UniqueID>  (26) 
669

>  <SMILES>  (26) 
c1ccc(CC/[NH+]=c2\nc(NCCN3CCCC3)[nH]c(N3CCc4ccccc4C3)n2)cc1

>  <Energy>  (26) 
72.69166460132372

>  <Genealogy>  (26) 
c1ccc(CC[NH2+]c2nc(NCCN3CCCC3)nc(N3CCc4ccccc4C3)n2)cc1 (protonated)
c1ccc(CC[NH+]=c2nc(NCCN3CCCC3)[nH]c(N3CCc4ccccc4C3)n2)cc1 (tautomer)
c1ccc(CC/[NH+]=c2\nc(NCCN3CCCC3)[nH]c(N3CCc4ccccc4C3)n2)cc1 (cis-trans isomerization)
c1ccc(CC/[NH+]=c2\nc(NCCN3CCCC3)[nH]c(N3CCc4ccccc4C3)n2)cc1 (3D coordinates assigned)
c1ccc(CC/[NH+]=c2\nc(NCCN3CCCC3)[nH]c(N3CCc4ccccc4C3)n2)cc1 (nonaromatic ring conformer: 72.69166460132372 kcal/mol)

>  <smiles>  (26) 
c1ccc(CCNc2nc(NCCN3CCCC3)nc(N3CCc4ccccc4C3)n2)cc1

>  <score_type>  (26) 
oracle

>  <origin>  (26) 
autodockgpu

>  <m_score__min__energy>  (26) 
-9.9900000000000002

>  <m_primary>  (26) 
energy

>  <meeko>  (26) 
{"free_energy": -8.08, "intermolecular_energy": -10.76, "internal_energy": -2.64, "cluster_size": 12, "cluster_id": 1, "rank_in_cluster": 11}

>  <energy>  (26) 
-8.65

>  <cluster_rmsd>  (26) 
1.51

>  <rmsd>  (26) 
271.32

>  <cluster>  (26) 
1

$$$$
FPFWJFTVWFQHMH-FSECZMGHNA-O
     RDKit          3D

 67 71  0  0  0  0  0  0  0  0999 V2000
  132.2816   72.8423  227.8556 H   0  0  0  0  0  0  0  0  0  0  0  0
  132.6190   71.9200  227.3600 C   0  0  0  0  0  0  0  0  0  0  0  0
  131.7350   71.1980  226.5520 C   0  0  0  0  0  0  0  0  0  0  0  0
  130.7040   71.5545  226.4108 H   0  0  0  0  0  0  0  0  0  0  0  0
  132.1600   70.0230  225.9230 C   0  0  0  0  0  0  0  0  0  0  0  0
  131.4626   69.4608  225.2846 H   0  0  0  0  0  0  0  0  0  0  0  0
  133.4750   69.5570  226.1030 C   0  0  0  0  0  0  0  0  0  0  0  0
  133.9300   68.2880  225.4260 C   0  0  0  0  0  0  0  0  0  0  0  0
  135.0237   68.3161  225.3115 H   0  0  0  0  0  0  0  0  0  0  0  0
  133.6238   67.4349  226.0493 H   0  0  0  0  0  0  0  0  0  0  0  0
  133.2880   68.1290  224.0430 C   0  0  0  0  0  0  0  0  0  0  0  0
  133.2347   67.0600  223.7892 H   0  0  0  0  0  0  0  0  0  0  0  0
  132.2777   68.5634  224.0674 H   0  0  0  0  0  0  0  0  0  0  0  0
  134.0800   68.8270  223.0270 N   0  0  0  0  0  0  0  0  0  0  0  0
  133.9500   68.5330  222.0310 H   0  0  0  0  0  0  0  0  0  0  0  0
  134.9370   69.7720  223.2990 C   0  0  0  0  0  0  0  0  0  0  0  0
  136.2430   69.4580  223.5050 N   0  0  0  0  0  0  0  0  0  0  0  0
  137.1490   70.4240  223.8040 C   0  0  0  0  0  0  0  0  0  0  0  0
  138.5230   70.0650  224.0320 N   0  0  0  0  0  0  0  0  0  0  0  0
  139.5290   71.0710  224.3850 C   0  0  0  0  0  0  0  0  0  0  0  0
  139.0798   72.0726  224.3145 H   0  0  0  0  0  0  0  0  0  0  0  0
  140.3768   70.9862  223.6893 H   0  0  0  0  0  0  0  0  0  0  0  0
  140.0270   70.8480  225.7910 C   0  0  0  0  0  0  0  0  0  0  0  0
  140.7590   71.8620  226.4290 C   0  0  0  0  0  0  0  0  0  0  0  0
  140.9208   72.8226  225.9181 H   0  0  0  0  0  0  0  0  0  0  0  0
  141.2830   71.6600  227.7070 C   0  0  0  0  0  0  0  0  0  0  0  0
  141.8498   72.4628  228.2012 H   0  0  0  0  0  0  0  0  0  0  0  0
  141.0890   70.4410  228.3590 C   0  0  0  0  0  0  0  0  0  0  0  0
  141.4953   70.2877  229.3696 H   0  0  0  0  0  0  0  0  0  0  0  0
  140.3790   69.4150  227.7290 C   0  0  0  0  0  0  0  0  0  0  0  0
  140.2318   68.4555  228.2464 H   0  0  0  0  0  0  0  0  0  0  0  0
  139.8520   69.6000  226.4400 C   0  0  0  0  0  0  0  0  0  0  0  0
  139.0220   68.4970  225.8210 C   0  0  0  0  0  0  0  0  0  0  0  0
  138.0231   68.5038  226.2816 H   0  0  0  0  0  0  0  0  0  0  0  0
  139.5384   67.5427  226.0015 H   0  0  0  0  0  0  0  0  0  0  0  0
  138.8690   68.6710  224.3080 C   0  0  0  0  0  0  0  0  0  0  0  0
  138.0710   68.0107  223.9377 H   0  0  0  0  0  0  0  0  0  0  0  0
  139.8103   68.4099  223.8023 H   0  0  0  0  0  0  0  0  0  0  0  0
  136.7390   71.7180  223.9230 N   0  0  0  0  0  0  0  0  0  0  0  0
  137.4190   72.4660  224.1900 H   0  0  0  0  0  0  0  0  0  0  0  0
  135.4350   72.0460  223.7100 C   0  0  0  0  0  0  0  0  0  0  0  0
  135.0060   73.4100  223.8490 N   0  0  0  0  0  0  0  0  0  0  0  0
  135.3370   74.1120  223.1500 H   0  0  0  0  0  0  0  0  0  0  0  0
  133.9740   73.8270  224.7980 C   0  0  0  0  0  0  0  0  0  0  0  0
  133.1137   74.2324  224.2452 H   0  0  0  0  0  0  0  0  0  0  0  0
  133.6598   72.9572  225.3936 H   0  0  0  0  0  0  0  0  0  0  0  0
  134.5270   74.9050  225.7370 C   0  0  0  0  0  0  0  0  0  0  0  0
  135.4764   74.5541  226.1677 H   0  0  0  0  0  0  0  0  0  0  0  0
  134.6835   75.8270  225.1578 H   0  0  0  0  0  0  0  0  0  0  0  0
  133.5770   75.1930  226.8320 N   0  0  0  0  0  0  0  0  0  0  0  0
  132.1940   74.8330  226.4790 C   0  0  0  0  0  0  0  0  0  0  0  0
  132.1319   74.6037  225.4050 H   0  0  0  0  0  0  0  0  0  0  0  0
  131.8760   73.9467  227.0477 H   0  0  0  0  0  0  0  0  0  0  0  0
  131.2930   76.0180  226.8060 C   0  0  0  0  0  0  0  0  0  0  0  0
  130.9551   76.5119  225.8830 H   0  0  0  0  0  0  0  0  0  0  0  0
  130.3882   75.7087  227.3498 H   0  0  0  0  0  0  0  0  0  0  0  0
  132.1500   76.9530  227.6230 C   0  0  0  0  0  0  0  0  0  0  0  0
  131.9142   78.0022  227.3917 H   0  0  0  0  0  0  0  0  0  0  0  0
  131.9903   76.8372  228.7052 H   0  0  0  0  0  0  0  0  0  0  0  0
  133.5640   76.6140  227.2030 C   0  0  0  0  0  0  0  0  0  0  0  0
  133.8598   77.2312  226.3419 H   0  0  0  0  0  0  0  0  0  0  0  0
  134.2726   76.8109  228.0210 H   0  0  0  0  0  0  0  0  0  0  0  0
  134.5430   71.0700  223.3960 N   0  0  0  0  0  0  0  0  0  0  0  0
  134.3560   70.2860  226.9240 C   0  0  0  0  0  0  0  0  0  0  0  0
  135.3822   69.9234  227.0833 H   0  0  0  0  0  0  0  0  0  0  0  0
  133.9320   71.4710  227.5390 C   0  0  0  0  0  0  0  0  0  0  0  0
  134.6309   72.0482  228.1623 H   0  0  0  0  0  0  0  0  0  0  0  0
  1  2  1  0
  2  3  2  0
  3  4  1  0
  3  5  1  0
  5  6  1  0
  5  7  2  0
  7  8  1  0
  8  9  1  0
  8 10  1  0
  8 11  1  0
 11 12  1  0
 11 13  1  0
 11 14  1  0
 14 15  1  0
 14 16  2  0
 16 17  1  0
 17 18  2  0
 18 19  1  0
 19 20  1  0
 20 21  1  0
 20 22  1  0
 20 23  1  0
 23 24  2  0
 24 25  1  0
 24 26  1  0
 26 27  1  0
 26 28  2  0
 28 29  1  0
 28 30  1  0
 30 31  1  0
 30 32  2  0
 32 33  1  0
 33 34  1  0
 33 35  1  0
 33 36  1  0
 36 37  1  0
 36 38  1  0
 18 39  1  0
 39 40  1  0
 39 41  1  0
 41 42  1  0
 42 43  1  0
 42 44  1  0
 44 45  1  0
 44 46  1  0
 44 47  1  0
 47 48  1  0
 47 49  1  0
 47 50  1  0
 50 51  1  0
 51 52  1  0
 51 53  1  0
 51 54  1  0
 54 55  1  0
 54 56  1  0
 54 57  1  0
 57 58  1  0
 57 59  1  0
 57 60  1  0
 60 61  1  0
 60 62  1  0
 41 63  2  0
  7 64  1  0
 64 65  1  0
 64 66  2  0
 66 67  1  0
 66  2  1  0
 63 16  1  0
 36 19  1  0
 60 50  1  0
 32 23  1  0
M  CHG  1  14   1
M  END
>  <UniqueID>  (27) 
669

>  <SMILES>  (27) 
c1ccc(CC/[NH+]=c2\nc(NCCN3CCCC3)[nH]c(N3CCc4ccccc4C3)n2)cc1

>  <Energy>  (27) 
72.69166460132372

>  <Genealogy>  (27) 
c1ccc(CC[NH2+]c2nc(NCCN3CCCC3)nc(N3CCc4ccccc4C3)n2)cc1 (protonated)
c1ccc(CC[NH+]=c2nc(NCCN3CCCC3)[nH]c(N3CCc4ccccc4C3)n2)cc1 (tautomer)
c1ccc(CC/[NH+]=c2\nc(NCCN3CCCC3)[nH]c(N3CCc4ccccc4C3)n2)cc1 (cis-trans isomerization)
c1ccc(CC/[NH+]=c2\nc(NCCN3CCCC3)[nH]c(N3CCc4ccccc4C3)n2)cc1 (3D coordinates assigned)
c1ccc(CC/[NH+]=c2\nc(NCCN3CCCC3)[nH]c(N3CCc4ccccc4C3)n2)cc1 (nonaromatic ring conformer: 72.69166460132372 kcal/mol)

>  <smiles>  (27) 
c1ccc(CCNc2nc(NCCN3CCCC3)nc(N3CCc4ccccc4C3)n2)cc1

>  <score_type>  (27) 
oracle

>  <origin>  (27) 
autodockgpu

>  <m_score__min__energy>  (27) 
-9.9900000000000002

>  <m_primary>  (27) 
energy

>  <meeko>  (27) 
{"free_energy": -8.13, "intermolecular_energy": -10.81, "internal_energy": -1.87, "cluster_size": 1, "cluster_id": 5, "rank_in_cluster": 1}

>  <energy>  (27) 
-8.33

>  <cluster_rmsd>  (27) 
1.57

>  <rmsd>  (27) 
271.13

>  <cluster>  (27) 
1

$$$$
FPFWJFTVWFQHMH-FSECZMGHNA-O
     RDKit          3D

 67 71  0  0  0  0  0  0  0  0999 V2000
  140.8510   67.4316  228.9621 H   0  0  0  0  0  0  0  0  0  0  0  0
  140.8140   68.1660  228.1440 C   0  0  0  0  0  0  0  0  0  0  0  0
  141.0700   69.5160  228.4050 C   0  0  0  0  0  0  0  0  0  0  0  0
  141.3104   69.8414  229.4279 H   0  0  0  0  0  0  0  0  0  0  0  0
  141.0210   70.4530  227.3680 C   0  0  0  0  0  0  0  0  0  0  0  0
  141.2282   71.5129  227.5772 H   0  0  0  0  0  0  0  0  0  0  0  0
  140.7080   70.0460  226.0590 C   0  0  0  0  0  0  0  0  0  0  0  0
  140.6520   71.0590  224.9420 C   0  0  0  0  0  0  0  0  0  0  0  0
  140.9200   72.0480  225.3421 H   0  0  0  0  0  0  0  0  0  0  0  0
  141.3596   70.7497  224.1586 H   0  0  0  0  0  0  0  0  0  0  0  0
  139.2510   71.1340  224.3240 C   0  0  0  0  0  0  0  0  0  0  0  0
  138.7002   70.2122  224.5625 H   0  0  0  0  0  0  0  0  0  0  0  0
  138.7255   72.0072  224.7380 H   0  0  0  0  0  0  0  0  0  0  0  0
  139.3400   71.2800  222.8680 N   0  0  0  0  0  0  0  0  0  0  0  0
  138.8220   70.5840  222.2830 H   0  0  0  0  0  0  0  0  0  0  0  0
  140.0350   72.2120  222.2740 C   0  0  0  0  0  0  0  0  0  0  0  0
  139.5570   73.4830  222.2330 N   0  0  0  0  0  0  0  0  0  0  0  0
  140.2560   74.4640  221.6070 C   0  0  0  0  0  0  0  0  0  0  0  0
  139.7230   75.8000  221.5630 N   0  0  0  0  0  0  0  0  0  0  0  0
  139.8150   76.6990  222.7170 C   0  0  0  0  0  0  0  0  0  0  0  0
  140.2197   76.1448  223.5767 H   0  0  0  0  0  0  0  0  0  0  0  0
  138.8107   77.0813  222.9520 H   0  0  0  0  0  0  0  0  0  0  0  0
  140.7210   77.8640  222.4060 C   0  0  0  0  0  0  0  0  0  0  0  0
  141.1840   78.6730  223.4560 C   0  0  0  0  0  0  0  0  0  0  0  0
  140.9219   78.4229  224.4946 H   0  0  0  0  0  0  0  0  0  0  0  0
  141.9750   79.7930  223.1910 C   0  0  0  0  0  0  0  0  0  0  0  0
  142.3372   80.4180  224.0206 H   0  0  0  0  0  0  0  0  0  0  0  0
  142.3070   80.1210  221.8750 C   0  0  0  0  0  0  0  0  0  0  0  0
  142.9398   80.9971  221.6699 H   0  0  0  0  0  0  0  0  0  0  0  0
  141.8360   79.3370  220.8180 C   0  0  0  0  0  0  0  0  0  0  0  0
  142.0958   79.6033  219.7828 H   0  0  0  0  0  0  0  0  0  0  0  0
  141.0330   78.2110  221.0680 C   0  0  0  0  0  0  0  0  0  0  0  0
  140.6090   77.3400  219.9050 C   0  0  0  0  0  0  0  0  0  0  0  0
  141.4633   76.7199  219.5959 H   0  0  0  0  0  0  0  0  0  0  0  0
  140.2800   78.0000  219.0888 H   0  0  0  0  0  0  0  0  0  0  0  0
  139.4400   76.4230  220.2710 C   0  0  0  0  0  0  0  0  0  0  0  0
  139.3242   75.6451  219.5019 H   0  0  0  0  0  0  0  0  0  0  0  0
  138.5092   77.0061  220.3307 H   0  0  0  0  0  0  0  0  0  0  0  0
  141.4360   74.1650  220.9950 N   0  0  0  0  0  0  0  0  0  0  0  0
  141.9650   74.9040  220.4770 H   0  0  0  0  0  0  0  0  0  0  0  0
  141.9280   72.8970  221.0380 C   0  0  0  0  0  0  0  0  0  0  0  0
  143.1660   72.5860  220.3790 N   0  0  0  0  0  0  0  0  0  0  0  0
  143.1320   72.1480  219.4310 H   0  0  0  0  0  0  0  0  0  0  0  0
  144.4670   73.0310  220.8780 C   0  0  0  0  0  0  0  0  0  0  0  0
  144.4419   73.0687  221.9771 H   0  0  0  0  0  0  0  0  0  0  0  0
  145.2416   72.3240  220.5460 H   0  0  0  0  0  0  0  0  0  0  0  0
  144.7910   74.4250  220.3300 C   0  0  0  0  0  0  0  0  0  0  0  0
  144.9445   75.1154  221.1725 H   0  0  0  0  0  0  0  0  0  0  0  0
  145.7009   74.3561  219.7158 H   0  0  0  0  0  0  0  0  0  0  0  0
  143.6910   74.9330  219.4840 N   0  0  0  0  0  0  0  0  0  0  0  0
  143.8120   74.4850  218.0860 C   0  0  0  0  0  0  0  0  0  0  0  0
  144.7986   74.0254  217.9267 H   0  0  0  0  0  0  0  0  0  0  0  0
  143.0353   73.7403  217.8579 H   0  0  0  0  0  0  0  0  0  0  0  0
  143.6570   75.7010  217.1790 C   0  0  0  0  0  0  0  0  0  0  0  0
  144.6246   75.9766  216.7343 H   0  0  0  0  0  0  0  0  0  0  0  0
  142.9685   75.5062  216.3435 H   0  0  0  0  0  0  0  0  0  0  0  0
  143.1550   76.8030  218.0790 C   0  0  0  0  0  0  0  0  0  0  0  0
  143.5812   77.7732  217.7841 H   0  0  0  0  0  0  0  0  0  0  0  0
  142.0627   76.9236  218.0315 H   0  0  0  0  0  0  0  0  0  0  0  0
  143.6370   76.4000  219.4560 C   0  0  0  0  0  0  0  0  0  0  0  0
  144.6373   76.8177  219.6425 H   0  0  0  0  0  0  0  0  0  0  0  0
  142.9595   76.7811  220.2343 H   0  0  0  0  0  0  0  0  0  0  0  0
  141.2250   71.9280  221.6810 N   0  0  0  0  0  0  0  0  0  0  0  0
  140.4440   68.6870  225.8050 C   0  0  0  0  0  0  0  0  0  0  0  0
  140.1842   68.3600  224.7874 H   0  0  0  0  0  0  0  0  0  0  0  0
  140.5110   67.7490  226.8440 C   0  0  0  0  0  0  0  0  0  0  0  0
  140.3253   66.6847  226.6370 H   0  0  0  0  0  0  0  0  0  0  0  0
  1  2  1  0
  2  3  2  0
  3  4  1  0
  3  5  1  0
  5  6  1  0
  5  7  2  0
  7  8  1  0
  8  9  1  0
  8 10  1  0
  8 11  1  0
 11 12  1  0
 11 13  1  0
 11 14  1  0
 14 15  1  0
 14 16  2  0
 16 17  1  0
 17 18  2  0
 18 19  1  0
 19 20  1  0
 20 21  1  0
 20 22  1  0
 20 23  1  0
 23 24  2  0
 24 25  1  0
 24 26  1  0
 26 27  1  0
 26 28  2  0
 28 29  1  0
 28 30  1  0
 30 31  1  0
 30 32  2  0
 32 33  1  0
 33 34  1  0
 33 35  1  0
 33 36  1  0
 36 37  1  0
 36 38  1  0
 18 39  1  0
 39 40  1  0
 39 41  1  0
 41 42  1  0
 42 43  1  0
 42 44  1  0
 44 45  1  0
 44 46  1  0
 44 47  1  0
 47 48  1  0
 47 49  1  0
 47 50  1  0
 50 51  1  0
 51 52  1  0
 51 53  1  0
 51 54  1  0
 54 55  1  0
 54 56  1  0
 54 57  1  0
 57 58  1  0
 57 59  1  0
 57 60  1  0
 60 61  1  0
 60 62  1  0
 41 63  2  0
  7 64  1  0
 64 65  1  0
 64 66  2  0
 66 67  1  0
 66  2  1  0
 63 16  1  0
 36 19  1  0
 60 50  1  0
 32 23  1  0
M  CHG  1  14   1
M  END
>  <UniqueID>  (28) 
669

>  <SMILES>  (28) 
c1ccc(CC/[NH+]=c2\nc(NCCN3CCCC3)[nH]c(N3CCc4ccccc4C3)n2)cc1

>  <Energy>  (28) 
72.69166460132372

>  <Genealogy>  (28) 
c1ccc(CC[NH2+]c2nc(NCCN3CCCC3)nc(N3CCc4ccccc4C3)n2)cc1 (protonated)
c1ccc(CC[NH+]=c2nc(NCCN3CCCC3)[nH]c(N3CCc4ccccc4C3)n2)cc1 (tautomer)
c1ccc(CC/[NH+]=c2\nc(NCCN3CCCC3)[nH]c(N3CCc4ccccc4C3)n2)cc1 (cis-trans isomerization)
c1ccc(CC/[NH+]=c2\nc(NCCN3CCCC3)[nH]c(N3CCc4ccccc4C3)n2)cc1 (3D coordinates assigned)
c1ccc(CC/[NH+]=c2\nc(NCCN3CCCC3)[nH]c(N3CCc4ccccc4C3)n2)cc1 (nonaromatic ring conformer: 72.69166460132372 kcal/mol)

>  <smiles>  (28) 
c1ccc(CCNc2nc(NCCN3CCCC3)nc(N3CCc4ccccc4C3)n2)cc1

>  <score_type>  (28) 
oracle

>  <origin>  (28) 
autodockgpu

>  <m_score__min__energy>  (28) 
-9.9900000000000002

>  <m_primary>  (28) 
energy

>  <meeko>  (28) 
{"free_energy": -8.33, "intermolecular_energy": -11.02, "internal_energy": -2.28, "cluster_size": 12, "cluster_id": 1, "rank_in_cluster": 7}

>  <energy>  (28) 
-8.3

>  <cluster_rmsd>  (28) 
1.4

>  <rmsd>  (28) 
271.14

>  <cluster>  (28) 
1

$$$$
FPFWJFTVWFQHMH-FSECZMGHNA-O
     RDKit          3D

 67 71  0  0  0  0  0  0  0  0999 V2000
  141.9928   71.8660  229.1308 H   0  0  0  0  0  0  0  0  0  0  0  0
  141.4190   71.5160  228.2600 C   0  0  0  0  0  0  0  0  0  0  0  0
  141.4290   72.2570  227.0740 C   0  0  0  0  0  0  0  0  0  0  0  0
  142.0123   73.1876  227.0124 H   0  0  0  0  0  0  0  0  0  0  0  0
  140.6980   71.8160  225.9660 C   0  0  0  0  0  0  0  0  0  0  0  0
  140.7129   72.3987  225.0332 H   0  0  0  0  0  0  0  0  0  0  0  0
  139.9440   70.6310  226.0390 C   0  0  0  0  0  0  0  0  0  0  0  0
  139.1530   70.1590  224.8440 C   0  0  0  0  0  0  0  0  0  0  0  0
  139.1240   69.0594  224.8458 H   0  0  0  0  0  0  0  0  0  0  0  0
  138.1378   70.5767  224.9142 H   0  0  0  0  0  0  0  0  0  0  0  0
  139.7820   70.6390  223.5310 C   0  0  0  0  0  0  0  0  0  0  0  0
  140.8771   70.6448  223.6350 H   0  0  0  0  0  0  0  0  0  0  0  0
  139.4817   69.9567  222.7221 H   0  0  0  0  0  0  0  0  0  0  0  0
  139.3210   71.9920  223.2060 N   0  0  0  0  0  0  0  0  0  0  0  0
  138.3990   72.2920  223.6000 H   0  0  0  0  0  0  0  0  0  0  0  0
  139.9860   72.8230  222.4510 C   0  0  0  0  0  0  0  0  0  0  0  0
  139.5880   74.1190  222.3660 N   0  0  0  0  0  0  0  0  0  0  0  0
  140.2570   74.9970  221.5750 C   0  0  0  0  0  0  0  0  0  0  0  0
  139.8080   76.3610  221.4890 N   0  0  0  0  0  0  0  0  0  0  0  0
  139.6870   77.2030  222.6830 C   0  0  0  0  0  0  0  0  0  0  0  0
  139.8683   76.5903  223.5784 H   0  0  0  0  0  0  0  0  0  0  0  0
  138.6743   77.6311  222.7165 H   0  0  0  0  0  0  0  0  0  0  0  0
  140.6920   78.3270  222.6380 C   0  0  0  0  0  0  0  0  0  0  0  0
  140.9510   79.0620  223.8060 C   0  0  0  0  0  0  0  0  0  0  0  0
  140.4568   78.7824  224.7481 H   0  0  0  0  0  0  0  0  0  0  0  0
  141.8320   80.1460  223.7800 C   0  0  0  0  0  0  0  0  0  0  0  0
  142.0329   80.7128  224.7011 H   0  0  0  0  0  0  0  0  0  0  0  0
  142.4580   80.5110  222.5860 C   0  0  0  0  0  0  0  0  0  0  0  0
  143.1590   81.3586  222.5700 H   0  0  0  0  0  0  0  0  0  0  0  0
  142.1950   79.8010  221.4120 C   0  0  0  0  0  0  0  0  0  0  0  0
  142.6883   80.0956  220.4740 H   0  0  0  0  0  0  0  0  0  0  0  0
  141.3050   78.7130  221.4200 C   0  0  0  0  0  0  0  0  0  0  0  0
  141.1050   77.9180  220.1480 C   0  0  0  0  0  0  0  0  0  0  0  0
  141.9768   77.2643  219.9975 H   0  0  0  0  0  0  0  0  0  0  0  0
  140.9923   78.6303  219.3174 H   0  0  0  0  0  0  0  0  0  0  0  0
  139.8440   77.0540  220.2020 C   0  0  0  0  0  0  0  0  0  0  0  0
  139.8641   76.3176  219.3851 H   0  0  0  0  0  0  0  0  0  0  0  0
  138.9505   77.6858  220.0903 H   0  0  0  0  0  0  0  0  0  0  0  0
  141.3210   74.5670  220.8410 N   0  0  0  0  0  0  0  0  0  0  0  0
  141.8210   75.2240  220.1990 H   0  0  0  0  0  0  0  0  0  0  0  0
  141.7330   73.2730  220.9250 C   0  0  0  0  0  0  0  0  0  0  0  0
  142.8480   72.8220  220.1400 N   0  0  0  0  0  0  0  0  0  0  0  0
  142.6630   72.4160  219.1950 H   0  0  0  0  0  0  0  0  0  0  0  0
  144.2390   73.0850  220.5070 C   0  0  0  0  0  0  0  0  0  0  0  0
  144.3594   72.9561  221.5928 H   0  0  0  0  0  0  0  0  0  0  0  0
  144.8919   72.3800  219.9716 H   0  0  0  0  0  0  0  0  0  0  0  0
  144.6240   74.5170  220.1210 C   0  0  0  0  0  0  0  0  0  0  0  0
  144.7288   75.1198  221.0351 H   0  0  0  0  0  0  0  0  0  0  0  0
  145.5741   74.4866  219.5674 H   0  0  0  0  0  0  0  0  0  0  0  0
  143.5940   75.1290  219.2540 N   0  0  0  0  0  0  0  0  0  0  0  0
  143.7100   74.6860  217.8540 C   0  0  0  0  0  0  0  0  0  0  0  0
  144.6554   74.1417  217.7131 H   0  0  0  0  0  0  0  0  0  0  0  0
  142.8762   74.0159  217.5978 H   0  0  0  0  0  0  0  0  0  0  0  0
  143.6870   75.9200  216.9590 C   0  0  0  0  0  0  0  0  0  0  0  0
  144.6866   76.1131  216.5424 H   0  0  0  0  0  0  0  0  0  0  0  0
  143.0060   75.7954  216.1042 H   0  0  0  0  0  0  0  0  0  0  0  0
  143.2610   77.0530  217.8590 C   0  0  0  0  0  0  0  0  0  0  0  0
  143.7786   77.9846  217.5865 H   0  0  0  0  0  0  0  0  0  0  0  0
  142.1852   77.2704  217.7857 H   0  0  0  0  0  0  0  0  0  0  0  0
  143.6700   76.5950  219.2430 C   0  0  0  0  0  0  0  0  0  0  0  0
  144.6980   76.9209  219.4596 H   0  0  0  0  0  0  0  0  0  0  0  0
  143.0088   77.0265  220.0089 H   0  0  0  0  0  0  0  0  0  0  0  0
  141.0640   72.4090  221.7330 N   0  0  0  0  0  0  0  0  0  0  0  0
  139.9330   69.8960  227.2400 C   0  0  0  0  0  0  0  0  0  0  0  0
  139.3343   68.9762  227.3137 H   0  0  0  0  0  0  0  0  0  0  0  0
  140.6810   70.3310  228.3410 C   0  0  0  0  0  0  0  0  0  0  0  0
  140.6880   69.7408  229.2692 H   0  0  0  0  0  0  0  0  0  0  0  0
  1  2  1  0
  2  3  2  0
  3  4  1  0
  3  5  1  0
  5  6  1  0
  5  7  2  0
  7  8  1  0
  8  9  1  0
  8 10  1  0
  8 11  1  0
 11 12  1  0
 11 13  1  0
 11 14  1  0
 14 15  1  0
 14 16  2  0
 16 17  1  0
 17 18  2  0
 18 19  1  0
 19 20  1  0
 20 21  1  0
 20 22  1  0
 20 23  1  0
 23 24  2  0
 24 25  1  0
 24 26  1  0
 26 27  1  0
 26 28  2  0
 28 29  1  0
 28 30  1  0
 30 31  1  0
 30 32  2  0
 32 33  1  0
 33 34  1  0
 33 35  1  0
 33 36  1  0
 36 37  1  0
 36 38  1  0
 18 39  1  0
 39 40  1  0
 39 41  1  0
 41 42  1  0
 42 43  1  0
 42 44  1  0
 44 45  1  0
 44 46  1  0
 44 47  1  0
 47 48  1  0
 47 49  1  0
 47 50  1  0
 50 51  1  0
 51 52  1  0
 51 53  1  0
 51 54  1  0
 54 55  1  0
 54 56  1  0
 54 57  1  0
 57 58  1  0
 57 59  1  0
 57 60  1  0
 60 61  1  0
 60 62  1  0
 41 63  2  0
  7 64  1  0
 64 65  1  0
 64 66  2  0
 66 67  1  0
 66  2  1  0
 63 16  1  0
 36 19  1  0
 60 50  1  0
 32 23  1  0
M  CHG  1  14   1
M  END
>  <UniqueID>  (29) 
669

>  <SMILES>  (29) 
c1ccc(CC/[NH+]=c2\nc(NCCN3CCCC3)[nH]c(N3CCc4ccccc4C3)n2)cc1

>  <Energy>  (29) 
72.69166460132372

>  <Genealogy>  (29) 
c1ccc(CC[NH2+]c2nc(NCCN3CCCC3)nc(N3CCc4ccccc4C3)n2)cc1 (protonated)
c1ccc(CC[NH+]=c2nc(NCCN3CCCC3)[nH]c(N3CCc4ccccc4C3)n2)cc1 (tautomer)
c1ccc(CC/[NH+]=c2\nc(NCCN3CCCC3)[nH]c(N3CCc4ccccc4C3)n2)cc1 (cis-trans isomerization)
c1ccc(CC/[NH+]=c2\nc(NCCN3CCCC3)[nH]c(N3CCc4ccccc4C3)n2)cc1 (3D coordinates assigned)
c1ccc(CC/[NH+]=c2\nc(NCCN3CCCC3)[nH]c(N3CCc4ccccc4C3)n2)cc1 (nonaromatic ring conformer: 72.69166460132372 kcal/mol)

>  <smiles>  (29) 
c1ccc(CCNc2nc(NCCN3CCCC3)nc(N3CCc4ccccc4C3)n2)cc1

>  <score_type>  (29) 
oracle

>  <origin>  (29) 
autodockgpu

>  <m_score__min__energy>  (29) 
-9.9900000000000002

>  <m_primary>  (29) 
energy

>  <meeko>  (29) 
{"free_energy": -9.03, "intermolecular_energy": -11.71, "internal_energy": -2.13, "cluster_size": 12, "cluster_id": 1, "rank_in_cluster": 4}

>  <energy>  (29) 
-8.22

>  <cluster_rmsd>  (29) 
1.67

>  <rmsd>  (29) 
271.11

>  <cluster>  (29) 
1

$$$$
FPFWJFTVWFQHMH-FSECZMGHNA-O
     RDKit          3D

 67 71  0  0  0  0  0  0  0  0999 V2000
  140.2296   68.8007  229.3643 H   0  0  0  0  0  0  0  0  0  0  0  0
  140.3320   69.2810  228.3800 C   0  0  0  0  0  0  0  0  0  0  0  0
  140.2440   68.5120  227.2150 C   0  0  0  0  0  0  0  0  0  0  0  0
  140.0691   67.4282  227.2841 H   0  0  0  0  0  0  0  0  0  0  0  0
  140.3780   69.1190  225.9630 C   0  0  0  0  0  0  0  0  0  0  0  0
  140.3039   68.5108  225.0495 H   0  0  0  0  0  0  0  0  0  0  0  0
  140.6070   70.5030  225.8650 C   0  0  0  0  0  0  0  0  0  0  0  0
  140.7550   71.1560  224.5130 C   0  0  0  0  0  0  0  0  0  0  0  0
  140.9019   72.2373  224.6520 H   0  0  0  0  0  0  0  0  0  0  0  0
  141.6207   70.7066  224.0045 H   0  0  0  0  0  0  0  0  0  0  0  0
  139.5130   70.9290  223.6430 C   0  0  0  0  0  0  0  0  0  0  0  0
  139.7784   70.2809  222.7948 H   0  0  0  0  0  0  0  0  0  0  0  0
  138.7323   70.4522  224.2539 H   0  0  0  0  0  0  0  0  0  0  0  0
  139.0040   72.2060  223.1340 N   0  0  0  0  0  0  0  0  0  0  0  0
  138.0160   72.4570  223.3690 H   0  0  0  0  0  0  0  0  0  0  0  0
  139.7070   73.0260  222.4010 C   0  0  0  0  0  0  0  0  0  0  0  0
  139.3610   74.3380  222.3420 N   0  0  0  0  0  0  0  0  0  0  0  0
  140.0700   75.2060  221.5750 C   0  0  0  0  0  0  0  0  0  0  0  0
  139.6760   76.5880  221.5150 N   0  0  0  0  0  0  0  0  0  0  0  0
  139.6120   77.4180  222.7220 C   0  0  0  0  0  0  0  0  0  0  0  0
  139.7847   76.7861  223.6057 H   0  0  0  0  0  0  0  0  0  0  0  0
  138.6185   77.8866  222.7800 H   0  0  0  0  0  0  0  0  0  0  0  0
  140.6610   78.5010  222.6730 C   0  0  0  0  0  0  0  0  0  0  0  0
  140.9720   79.2090  223.8440 C   0  0  0  0  0  0  0  0  0  0  0  0
  140.4844   78.9374  224.7919 H   0  0  0  0  0  0  0  0  0  0  0  0
  141.8960   80.2560  223.8150 C   0  0  0  0  0  0  0  0  0  0  0  0
  142.1380   80.8008  224.7395 H   0  0  0  0  0  0  0  0  0  0  0  0
  142.5130   80.6120  222.6140 C   0  0  0  0  0  0  0  0  0  0  0  0
  143.2479   81.4303  222.5953 H   0  0  0  0  0  0  0  0  0  0  0  0
  142.1980   79.9300  221.4360 C   0  0  0  0  0  0  0  0  0  0  0  0
  142.6839   80.2178  220.4920 H   0  0  0  0  0  0  0  0  0  0  0  0
  141.2650   78.8790  221.4480 C   0  0  0  0  0  0  0  0  0  0  0  0
  141.0090   78.1100  220.1690 C   0  0  0  0  0  0  0  0  0  0  0  0
  141.8505   77.4237  219.9930 H   0  0  0  0  0  0  0  0  0  0  0  0
  140.9100   78.8374  219.3498 H   0  0  0  0  0  0  0  0  0  0  0  0
  139.7150   77.2970  220.2370 C   0  0  0  0  0  0  0  0  0  0  0  0
  139.6890   76.5720  219.4101 H   0  0  0  0  0  0  0  0  0  0  0  0
  138.8460   77.9660  220.1518 H   0  0  0  0  0  0  0  0  0  0  0  0
  141.1220   74.7500  220.8390 N   0  0  0  0  0  0  0  0  0  0  0  0
  141.6520   75.4010  220.2150 H   0  0  0  0  0  0  0  0  0  0  0  0
  141.4830   73.4390  220.8980 C   0  0  0  0  0  0  0  0  0  0  0  0
  142.5850   72.9620  220.1110 N   0  0  0  0  0  0  0  0  0  0  0  0
  142.3890   72.5620  219.1660 H   0  0  0  0  0  0  0  0  0  0  0  0
  143.9830   73.1910  220.4760 C   0  0  0  0  0  0  0  0  0  0  0  0
  144.0784   73.1869  221.5718 H   0  0  0  0  0  0  0  0  0  0  0  0
  144.6038   72.3925  220.0436 H   0  0  0  0  0  0  0  0  0  0  0  0
  144.4540   74.5440  219.9310 C   0  0  0  0  0  0  0  0  0  0  0  0
  144.6422   75.2250  220.7741 H   0  0  0  0  0  0  0  0  0  0  0  0
  145.3740   74.3851  219.3494 H   0  0  0  0  0  0  0  0  0  0  0  0
  143.4360   75.1440  219.0440 N   0  0  0  0  0  0  0  0  0  0  0  0
  143.6720   74.8180  217.6270 C   0  0  0  0  0  0  0  0  0  0  0  0
  144.6638   74.3565  217.5116 H   0  0  0  0  0  0  0  0  0  0  0  0
  142.9101   74.1101  217.2687 H   0  0  0  0  0  0  0  0  0  0  0  0
  143.6080   76.1110  216.8220 C   0  0  0  0  0  0  0  0  0  0  0  0
  144.6131   76.4071  216.4870 H   0  0  0  0  0  0  0  0  0  0  0  0
  142.9916   76.0022  215.9174 H   0  0  0  0  0  0  0  0  0  0  0  0
  143.0420   77.1390  217.7700 C   0  0  0  0  0  0  0  0  0  0  0  0
  143.5021   78.1235  217.5995 H   0  0  0  0  0  0  0  0  0  0  0  0
  141.9592   77.2834  217.6411 H   0  0  0  0  0  0  0  0  0  0  0  0
  143.4000   76.6080  219.1410 C   0  0  0  0  0  0  0  0  0  0  0  0
  144.3851   76.9897  219.4475 H   0  0  0  0  0  0  0  0  0  0  0  0
  142.6620   76.9315  219.8898 H   0  0  0  0  0  0  0  0  0  0  0  0
  140.7740   72.5850  221.6820 N   0  0  0  0  0  0  0  0  0  0  0  0
  140.7020   71.2690  227.0430 C   0  0  0  0  0  0  0  0  0  0  0  0
  140.8963   72.3498  226.9795 H   0  0  0  0  0  0  0  0  0  0  0  0
  140.5500   70.6600  228.2950 C   0  0  0  0  0  0  0  0  0  0  0  0
  140.6021   71.2662  229.2114 H   0  0  0  0  0  0  0  0  0  0  0  0
  1  2  1  0
  2  3  2  0
  3  4  1  0
  3  5  1  0
  5  6  1  0
  5  7  2  0
  7  8  1  0
  8  9  1  0
  8 10  1  0
  8 11  1  0
 11 12  1  0
 11 13  1  0
 11 14  1  0
 14 15  1  0
 14 16  2  0
 16 17  1  0
 17 18  2  0
 18 19  1  0
 19 20  1  0
 20 21  1  0
 20 22  1  0
 20 23  1  0
 23 24  2  0
 24 25  1  0
 24 26  1  0
 26 27  1  0
 26 28  2  0
 28 29  1  0
 28 30  1  0
 30 31  1  0
 30 32  2  0
 32 33  1  0
 33 34  1  0
 33 35  1  0
 33 36  1  0
 36 37  1  0
 36 38  1  0
 18 39  1  0
 39 40  1  0
 39 41  1  0
 41 42  1  0
 42 43  1  0
 42 44  1  0
 44 45  1  0
 44 46  1  0
 44 47  1  0
 47 48  1  0
 47 49  1  0
 47 50  1  0
 50 51  1  0
 51 52  1  0
 51 53  1  0
 51 54  1  0
 54 55  1  0
 54 56  1  0
 54 57  1  0
 57 58  1  0
 57 59  1  0
 57 60  1  0
 60 61  1  0
 60 62  1  0
 41 63  2  0
  7 64  1  0
 64 65  1  0
 64 66  2  0
 66 67  1  0
 66  2  1  0
 63 16  1  0
 36 19  1  0
 60 50  1  0
 32 23  1  0
M  CHG  1  14   1
M  END
>  <UniqueID>  (30) 
669

>  <SMILES>  (30) 
c1ccc(CC/[NH+]=c2\nc(NCCN3CCCC3)[nH]c(N3CCc4ccccc4C3)n2)cc1

>  <Energy>  (30) 
72.69166460132372

>  <Genealogy>  (30) 
c1ccc(CC[NH2+]c2nc(NCCN3CCCC3)nc(N3CCc4ccccc4C3)n2)cc1 (protonated)
c1ccc(CC[NH+]=c2nc(NCCN3CCCC3)[nH]c(N3CCc4ccccc4C3)n2)cc1 (tautomer)
c1ccc(CC/[NH+]=c2\nc(NCCN3CCCC3)[nH]c(N3CCc4ccccc4C3)n2)cc1 (cis-trans isomerization)
c1ccc(CC/[NH+]=c2\nc(NCCN3CCCC3)[nH]c(N3CCc4ccccc4C3)n2)cc1 (3D coordinates assigned)
c1ccc(CC/[NH+]=c2\nc(NCCN3CCCC3)[nH]c(N3CCc4ccccc4C3)n2)cc1 (nonaromatic ring conformer: 72.69166460132372 kcal/mol)

>  <smiles>  (30) 
c1ccc(CCNc2nc(NCCN3CCCC3)nc(N3CCc4ccccc4C3)n2)cc1

>  <score_type>  (30) 
oracle

>  <origin>  (30) 
autodockgpu

>  <m_score__min__energy>  (30) 
-9.9900000000000002

>  <m_primary>  (30) 
energy

>  <meeko>  (30) 
{"free_energy": -9.05, "intermolecular_energy": -11.73, "internal_energy": -2.07, "cluster_size": 12, "cluster_id": 1, "rank_in_cluster": 3}

>  <energy>  (30) 
-8.18

>  <cluster_rmsd>  (30) 
1.42

>  <rmsd>  (30) 
271.09

>  <cluster>  (30) 
1

$$$$
FPFWJFTVWFQHMH-FSECZMGHNA-O
     RDKit          3D

 67 71  0  0  0  0  0  0  0  0999 V2000
  139.8451   70.1166  229.3450 H   0  0  0  0  0  0  0  0  0  0  0  0
  140.0140   70.3940  228.2940 C   0  0  0  0  0  0  0  0  0  0  0  0
  139.5030   69.5920  227.2690 C   0  0  0  0  0  0  0  0  0  0  0  0
  138.9316   68.6848  227.5149 H   0  0  0  0  0  0  0  0  0  0  0  0
  139.7170   69.9410  225.9320 C   0  0  0  0  0  0  0  0  0  0  0  0
  139.3078   69.3101  225.1292 H   0  0  0  0  0  0  0  0  0  0  0  0
  140.4530   71.0950  225.6090 C   0  0  0  0  0  0  0  0  0  0  0  0
  140.6870   71.4680  224.1650 C   0  0  0  0  0  0  0  0  0  0  0  0
  141.1929   72.4439  224.1250 H   0  0  0  0  0  0  0  0  0  0  0  0
  141.3080   70.6870  223.7021 H   0  0  0  0  0  0  0  0  0  0  0  0
  139.3670   71.5580  223.3890 C   0  0  0  0  0  0  0  0  0  0  0  0
  138.9473   70.5482  223.2699 H   0  0  0  0  0  0  0  0  0  0  0  0
  138.6671   72.1953  223.9493 H   0  0  0  0  0  0  0  0  0  0  0  0
  139.5900   72.1470  222.0660 N   0  0  0  0  0  0  0  0  0  0  0  0
  139.2550   71.6060  221.2360 H   0  0  0  0  0  0  0  0  0  0  0  0
  140.1890   73.2910  221.8740 C   0  0  0  0  0  0  0  0  0  0  0  0
  141.4280   73.3150  221.3170 N   0  0  0  0  0  0  0  0  0  0  0  0
  142.0760   74.4920  221.1210 C   0  0  0  0  0  0  0  0  0  0  0  0
  143.3930   74.4920  220.5440 N   0  0  0  0  0  0  0  0  0  0  0  0
  144.3550   73.4240  220.8320 C   0  0  0  0  0  0  0  0  0  0  0  0
  143.9411   72.7634  221.6080 H   0  0  0  0  0  0  0  0  0  0  0  0
  145.2950   73.8761  221.1813 H   0  0  0  0  0  0  0  0  0  0  0  0
  144.6340   72.6160  219.5890 C   0  0  0  0  0  0  0  0  0  0  0  0
  145.2830   71.3770  219.7080 C   0  0  0  0  0  0  0  0  0  0  0  0
  145.5381   70.9871  220.7045 H   0  0  0  0  0  0  0  0  0  0  0  0
  145.6070   70.6360  218.5690 C   0  0  0  0  0  0  0  0  0  0  0  0
  146.1097   69.6630  218.6717 H   0  0  0  0  0  0  0  0  0  0  0  0
  145.2940   71.1280  217.3010 C   0  0  0  0  0  0  0  0  0  0  0  0
  145.5421   70.5379  216.4064 H   0  0  0  0  0  0  0  0  0  0  0  0
  144.6660   72.3690  217.1660 C   0  0  0  0  0  0  0  0  0  0  0  0
  144.4251   72.7531  216.1638 H   0  0  0  0  0  0  0  0  0  0  0  0
  144.3400   73.1300  218.3020 C   0  0  0  0  0  0  0  0  0  0  0  0
  143.5900   74.4320  218.1220 C   0  0  0  0  0  0  0  0  0  0  0  0
  142.5341   74.2070  217.9113 H   0  0  0  0  0  0  0  0  0  0  0  0
  144.0552   74.9788  217.2886 H   0  0  0  0  0  0  0  0  0  0  0  0
  143.6670   75.3170  219.3680 C   0  0  0  0  0  0  0  0  0  0  0  0
  142.9203   76.1217  219.2977 H   0  0  0  0  0  0  0  0  0  0  0  0
  144.6680   75.7658  219.4488 H   0  0  0  0  0  0  0  0  0  0  0  0
  141.4870   75.6580  221.5100 N   0  0  0  0  0  0  0  0  0  0  0  0
  141.9900   76.5670  221.4000 H   0  0  0  0  0  0  0  0  0  0  0  0
  140.2420   75.6460  222.0610 C   0  0  0  0  0  0  0  0  0  0  0  0
  139.6320   76.8760  222.4810 N   0  0  0  0  0  0  0  0  0  0  0  0
  139.8110   77.2190  223.4510 H   0  0  0  0  0  0  0  0  0  0  0  0
  138.9370   77.7760  221.5590 C   0  0  0  0  0  0  0  0  0  0  0  0
  139.1445   77.4677  220.5237 H   0  0  0  0  0  0  0  0  0  0  0  0
  137.8555   77.7270  221.7539 H   0  0  0  0  0  0  0  0  0  0  0  0
  139.4200   79.2160  221.7660 C   0  0  0  0  0  0  0  0  0  0  0  0
  139.8460   79.5911  220.8238 H   0  0  0  0  0  0  0  0  0  0  0  0
  138.5621   79.8317  222.0742 H   0  0  0  0  0  0  0  0  0  0  0  0
  140.4510   79.2840  222.8230 N   0  0  0  0  0  0  0  0  0  0  0  0
  140.4860   80.6020  223.4810 C   0  0  0  0  0  0  0  0  0  0  0  0
  139.8680   81.3160  222.9169 H   0  0  0  0  0  0  0  0  0  0  0  0
  140.0904   80.5255  224.5046 H   0  0  0  0  0  0  0  0  0  0  0  0
  141.9320   81.0830  223.5110 C   0  0  0  0  0  0  0  0  0  0  0  0
  142.0805   81.9041  222.7942 H   0  0  0  0  0  0  0  0  0  0  0  0
  142.2161   81.4708  224.5004 H   0  0  0  0  0  0  0  0  0  0  0  0
  142.7560   79.8820  223.1180 C   0  0  0  0  0  0  0  0  0  0  0  0
  143.6230   80.1840  222.5122 H   0  0  0  0  0  0  0  0  0  0  0  0
  143.1644   79.3460  223.9874 H   0  0  0  0  0  0  0  0  0  0  0  0
  141.8020   79.0330  222.3060 C   0  0  0  0  0  0  0  0  0  0  0  0
  141.8576   79.3143  221.2440 H   0  0  0  0  0  0  0  0  0  0  0  0
  142.0603   77.9670  222.3888 H   0  0  0  0  0  0  0  0  0  0  0  0
  139.6000   74.4610  222.2360 N   0  0  0  0  0  0  0  0  0  0  0  0
  140.9720   71.8930  226.6470 C   0  0  0  0  0  0  0  0  0  0  0  0
  141.5618   72.7898  226.4063 H   0  0  0  0  0  0  0  0  0  0  0  0
  140.7400   71.5490  227.9840 C   0  0  0  0  0  0  0  0  0  0  0  0
  141.1287   72.1872  228.7912 H   0  0  0  0  0  0  0  0  0  0  0  0
  1  2  1  0
  2  3  2  0
  3  4  1  0
  3  5  1  0
  5  6  1  0
  5  7  2  0
  7  8  1  0
  8  9  1  0
  8 10  1  0
  8 11  1  0
 11 12  1  0
 11 13  1  0
 11 14  1  0
 14 15  1  0
 14 16  2  0
 16 17  1  0
 17 18  2  0
 18 19  1  0
 19 20  1  0
 20 21  1  0
 20 22  1  0
 20 23  1  0
 23 24  2  0
 24 25  1  0
 24 26  1  0
 26 27  1  0
 26 28  2  0
 28 29  1  0
 28 30  1  0
 30 31  1  0
 30 32  2  0
 32 33  1  0
 33 34  1  0
 33 35  1  0
 33 36  1  0
 36 37  1  0
 36 38  1  0
 18 39  1  0
 39 40  1  0
 39 41  1  0
 41 42  1  0
 42 43  1  0
 42 44  1  0
 44 45  1  0
 44 46  1  0
 44 47  1  0
 47 48  1  0
 47 49  1  0
 47 50  1  0
 50 51  1  0
 51 52  1  0
 51 53  1  0
 51 54  1  0
 54 55  1  0
 54 56  1  0
 54 57  1  0
 57 58  1  0
 57 59  1  0
 57 60  1  0
 60 61  1  0
 60 62  1  0
 41 63  2  0
  7 64  1  0
 64 65  1  0
 64 66  2  0
 66 67  1  0
 66  2  1  0
 63 16  1  0
 36 19  1  0
 60 50  1  0
 32 23  1  0
M  CHG  1  14   1
M  END
>  <UniqueID>  (31) 
669

>  <SMILES>  (31) 
c1ccc(CC/[NH+]=c2\nc(NCCN3CCCC3)[nH]c(N3CCc4ccccc4C3)n2)cc1

>  <Energy>  (31) 
72.69166460132372

>  <Genealogy>  (31) 
c1ccc(CC[NH2+]c2nc(NCCN3CCCC3)nc(N3CCc4ccccc4C3)n2)cc1 (protonated)
c1ccc(CC[NH+]=c2nc(NCCN3CCCC3)[nH]c(N3CCc4ccccc4C3)n2)cc1 (tautomer)
c1ccc(CC/[NH+]=c2\nc(NCCN3CCCC3)[nH]c(N3CCc4ccccc4C3)n2)cc1 (cis-trans isomerization)
c1ccc(CC/[NH+]=c2\nc(NCCN3CCCC3)[nH]c(N3CCc4ccccc4C3)n2)cc1 (3D coordinates assigned)
c1ccc(CC/[NH+]=c2\nc(NCCN3CCCC3)[nH]c(N3CCc4ccccc4C3)n2)cc1 (nonaromatic ring conformer: 72.69166460132372 kcal/mol)

>  <smiles>  (31) 
c1ccc(CCNc2nc(NCCN3CCCC3)nc(N3CCc4ccccc4C3)n2)cc1

>  <score_type>  (31) 
oracle

>  <origin>  (31) 
autodockgpu

>  <m_score__min__energy>  (31) 
-9.9900000000000002

>  <m_primary>  (31) 
energy

>  <meeko>  (31) 
{"free_energy": -8.97, "intermolecular_energy": -11.66, "internal_energy": -1.53, "cluster_size": 4, "cluster_id": 2, "rank_in_cluster": 1}

>  <energy>  (31) 
-8.08

>  <cluster_rmsd>  (31) 
1.65

>  <rmsd>  (31) 
271.1

>  <cluster>  (31) 
1

$$$$
FPFWJFTVWFQHMH-FSECZMGHNA-O
     RDKit          3D

 67 71  0  0  0  0  0  0  0  0999 V2000
  140.3807   68.7665  229.0971 H   0  0  0  0  0  0  0  0  0  0  0  0
  140.4430   69.3600  228.1730 C   0  0  0  0  0  0  0  0  0  0  0  0
  140.6490   70.7410  228.2430 C   0  0  0  0  0  0  0  0  0  0  0  0
  140.7515   71.2316  229.2222 H   0  0  0  0  0  0  0  0  0  0  0  0
  140.7250   71.5000  227.0710 C   0  0  0  0  0  0  0  0  0  0  0  0
  140.8918   72.5856  227.1314 H   0  0  0  0  0  0  0  0  0  0  0  0
  140.5890   70.8810  225.8150 C   0  0  0  0  0  0  0  0  0  0  0  0
  140.6680   71.7010  224.5510 C   0  0  0  0  0  0  0  0  0  0  0  0
  140.2002   72.6803  224.7300 H   0  0  0  0  0  0  0  0  0  0  0  0
  141.7277   71.8180  224.2801 H   0  0  0  0  0  0  0  0  0  0  0  0
  139.9470   71.0090  223.3890 C   0  0  0  0  0  0  0  0  0  0  0  0
  140.2195   69.9434  223.3769 H   0  0  0  0  0  0  0  0  0  0  0  0
  138.8614   71.1209  223.5263 H   0  0  0  0  0  0  0  0  0  0  0  0
  140.3290   71.6190  222.1130 N   0  0  0  0  0  0  0  0  0  0  0  0
  140.5250   70.9760  221.3110 H   0  0  0  0  0  0  0  0  0  0  0  0
  140.4490   72.9060  221.9320 C   0  0  0  0  0  0  0  0  0  0  0  0
  141.5600   73.3990  221.3250 N   0  0  0  0  0  0  0  0  0  0  0  0
  141.7110   74.7360  221.1400 C   0  0  0  0  0  0  0  0  0  0  0  0
  142.9030   75.2360  220.5080 N   0  0  0  0  0  0  0  0  0  0  0  0
  144.0960   74.3990  220.3540 C   0  0  0  0  0  0  0  0  0  0  0  0
  143.9439   73.4498  220.8886 H   0  0  0  0  0  0  0  0  0  0  0  0
  144.9624   74.9336  220.7706 H   0  0  0  0  0  0  0  0  0  0  0  0
  144.3540   74.1120  218.8960 C   0  0  0  0  0  0  0  0  0  0  0  0
  145.2560   73.0940  218.5460 C   0  0  0  0  0  0  0  0  0  0  0  0
  145.7270   72.4871  219.3332 H   0  0  0  0  0  0  0  0  0  0  0  0
  145.5590   72.8470  217.2050 C   0  0  0  0  0  0  0  0  0  0  0  0
  146.2622   72.0436  216.9401 H   0  0  0  0  0  0  0  0  0  0  0  0
  144.9710   73.6180  216.2000 C   0  0  0  0  0  0  0  0  0  0  0  0
  145.2035   73.4148  215.1442 H   0  0  0  0  0  0  0  0  0  0  0  0
  144.0870   74.6480  216.5350 C   0  0  0  0  0  0  0  0  0  0  0  0
  143.6298   75.2549  215.7396 H   0  0  0  0  0  0  0  0  0  0  0  0
  143.7780   74.9140  217.8790 C   0  0  0  0  0  0  0  0  0  0  0  0
  142.7570   75.9830  218.2000 C   0  0  0  0  0  0  0  0  0  0  0  0
  141.7515   75.5849  217.9987 H   0  0  0  0  0  0  0  0  0  0  0  0
  142.9737   76.8581  217.5698 H   0  0  0  0  0  0  0  0  0  0  0  0
  142.8280   76.4270  219.6630 C   0  0  0  0  0  0  0  0  0  0  0  0
  141.9288   77.0068  219.9185 H   0  0  0  0  0  0  0  0  0  0  0  0
  143.7152   77.0576  219.8221 H   0  0  0  0  0  0  0  0  0  0  0  0
  140.7510   75.5920  221.5900 N   0  0  0  0  0  0  0  0  0  0  0  0
  140.8740   76.6250  221.4870 H   0  0  0  0  0  0  0  0  0  0  0  0
  139.6310   75.1080  222.1910 C   0  0  0  0  0  0  0  0  0  0  0  0
  138.6280   76.0150  222.6760 N   0  0  0  0  0  0  0  0  0  0  0  0
  138.1090   75.7690  223.5490 H   0  0  0  0  0  0  0  0  0  0  0  0
  138.4350   77.3570  222.1250 C   0  0  0  0  0  0  0  0  0  0  0  0
  138.8076   77.3826  221.0903 H   0  0  0  0  0  0  0  0  0  0  0  0
  137.3630   77.6029  222.1428 H   0  0  0  0  0  0  0  0  0  0  0  0
  139.2000   78.3860  222.9650 C   0  0  0  0  0  0  0  0  0  0  0  0
  138.7135   79.3672  222.8620 H   0  0  0  0  0  0  0  0  0  0  0  0
  139.1893   78.0579  224.0149 H   0  0  0  0  0  0  0  0  0  0  0  0
  140.6060   78.4950  222.5210 N   0  0  0  0  0  0  0  0  0  0  0  0
  141.5310   78.7040  223.6480 C   0  0  0  0  0  0  0  0  0  0  0  0
  140.9602   78.9252  224.5619 H   0  0  0  0  0  0  0  0  0  0  0  0
  142.1320   77.7986  223.8187 H   0  0  0  0  0  0  0  0  0  0  0  0
  142.4380   79.8810  223.3090 C   0  0  0  0  0  0  0  0  0  0  0  0
  142.1695   80.7608  223.9122 H   0  0  0  0  0  0  0  0  0  0  0  0
  143.4943   79.6601  223.5221 H   0  0  0  0  0  0  0  0  0  0  0  0
  142.2040   80.1530  221.8440 C   0  0  0  0  0  0  0  0  0  0  0  0
  142.2475   81.2320  221.6347 H   0  0  0  0  0  0  0  0  0  0  0  0
  142.9648   79.6878  221.2000 H   0  0  0  0  0  0  0  0  0  0  0  0
  140.8140   79.6110  221.5890 C   0  0  0  0  0  0  0  0  0  0  0  0
  140.0646   80.3961  221.7677 H   0  0  0  0  0  0  0  0  0  0  0  0
  140.7110   79.2742  220.5469 H   0  0  0  0  0  0  0  0  0  0  0  0
  139.4850   73.7670  222.3560 N   0  0  0  0  0  0  0  0  0  0  0  0
  140.3740   69.4900  225.7540 C   0  0  0  0  0  0  0  0  0  0  0  0
  140.2511   68.9972  224.7783 H   0  0  0  0  0  0  0  0  0  0  0  0
  140.3160   68.7320  226.9300 C   0  0  0  0  0  0  0  0  0  0  0  0
  140.1706   67.6430  226.8760 H   0  0  0  0  0  0  0  0  0  0  0  0
  1  2  1  0
  2  3  2  0
  3  4  1  0
  3  5  1  0
  5  6  1  0
  5  7  2  0
  7  8  1  0
  8  9  1  0
  8 10  1  0
  8 11  1  0
 11 12  1  0
 11 13  1  0
 11 14  1  0
 14 15  1  0
 14 16  2  0
 16 17  1  0
 17 18  2  0
 18 19  1  0
 19 20  1  0
 20 21  1  0
 20 22  1  0
 20 23  1  0
 23 24  2  0
 24 25  1  0
 24 26  1  0
 26 27  1  0
 26 28  2  0
 28 29  1  0
 28 30  1  0
 30 31  1  0
 30 32  2  0
 32 33  1  0
 33 34  1  0
 33 35  1  0
 33 36  1  0
 36 37  1  0
 36 38  1  0
 18 39  1  0
 39 40  1  0
 39 41  1  0
 41 42  1  0
 42 43  1  0
 42 44  1  0
 44 45  1  0
 44 46  1  0
 44 47  1  0
 47 48  1  0
 47 49  1  0
 47 50  1  0
 50 51  1  0
 51 52  1  0
 51 53  1  0
 51 54  1  0
 54 55  1  0
 54 56  1  0
 54 57  1  0
 57 58  1  0
 57 59  1  0
 57 60  1  0
 60 61  1  0
 60 62  1  0
 41 63  2  0
  7 64  1  0
 64 65  1  0
 64 66  2  0
 66 67  1  0
 66  2  1  0
 63 16  1  0
 36 19  1  0
 60 50  1  0
 32 23  1  0
M  CHG  1  14   1
M  END
>  <UniqueID>  (32) 
669

>  <SMILES>  (32) 
c1ccc(CC/[NH+]=c2\nc(NCCN3CCCC3)[nH]c(N3CCc4ccccc4C3)n2)cc1

>  <Energy>  (32) 
72.69166460132372

>  <Genealogy>  (32) 
c1ccc(CC[NH2+]c2nc(NCCN3CCCC3)nc(N3CCc4ccccc4C3)n2)cc1 (protonated)
c1ccc(CC[NH+]=c2nc(NCCN3CCCC3)[nH]c(N3CCc4ccccc4C3)n2)cc1 (tautomer)
c1ccc(CC/[NH+]=c2\nc(NCCN3CCCC3)[nH]c(N3CCc4ccccc4C3)n2)cc1 (cis-trans isomerization)
c1ccc(CC/[NH+]=c2\nc(NCCN3CCCC3)[nH]c(N3CCc4ccccc4C3)n2)cc1 (3D coordinates assigned)
c1ccc(CC/[NH+]=c2\nc(NCCN3CCCC3)[nH]c(N3CCc4ccccc4C3)n2)cc1 (nonaromatic ring conformer: 72.69166460132372 kcal/mol)

>  <smiles>  (32) 
c1ccc(CCNc2nc(NCCN3CCCC3)nc(N3CCc4ccccc4C3)n2)cc1

>  <score_type>  (32) 
oracle

>  <origin>  (32) 
autodockgpu

>  <m_score__min__energy>  (32) 
-9.9900000000000002

>  <m_primary>  (32) 
energy

>  <meeko>  (32) 
{"free_energy": -8.58, "intermolecular_energy": -11.26, "internal_energy": -1.79, "cluster_size": 4, "cluster_id": 2, "rank_in_cluster": 3}

>  <energy>  (32) 
-8.07

>  <cluster_rmsd>  (32) 
1.6

>  <rmsd>  (32) 
271.12

>  <cluster>  (32) 
1

$$$$
FPFWJFTVWFQHMH-FSECZMGHNA-O
     RDKit          3D

 67 71  0  0  0  0  0  0  0  0999 V2000
  141.3918   71.8002  229.4153 H   0  0  0  0  0  0  0  0  0  0  0  0
  141.0940   71.4960  228.4010 C   0  0  0  0  0  0  0  0  0  0  0  0
  140.3660   70.3170  228.2110 C   0  0  0  0  0  0  0  0  0  0  0  0
  140.0889   69.6967  229.0762 H   0  0  0  0  0  0  0  0  0  0  0  0
  139.9900   69.9260  226.9220 C   0  0  0  0  0  0  0  0  0  0  0  0
  139.4142   69.0000  226.7774 H   0  0  0  0  0  0  0  0  0  0  0  0
  140.3440   70.7100  225.8100 C   0  0  0  0  0  0  0  0  0  0  0  0
  139.9400   70.2840  224.4200 C   0  0  0  0  0  0  0  0  0  0  0  0
  140.8035   70.3931  223.7473 H   0  0  0  0  0  0  0  0  0  0  0  0
  139.6074   69.2363  224.4624 H   0  0  0  0  0  0  0  0  0  0  0  0
  138.7820   71.1360  223.8870 C   0  0  0  0  0  0  0  0  0  0  0  0
  137.8347   70.6001  224.0466 H   0  0  0  0  0  0  0  0  0  0  0  0
  138.7693   72.0958  224.4242 H   0  0  0  0  0  0  0  0  0  0  0  0
  138.9540   71.3960  222.4550 N   0  0  0  0  0  0  0  0  0  0  0  0
  138.4380   70.7750  221.7890 H   0  0  0  0  0  0  0  0  0  0  0  0
  139.7170   72.3390  221.9760 C   0  0  0  0  0  0  0  0  0  0  0  0
  139.2940   73.6300  222.0130 N   0  0  0  0  0  0  0  0  0  0  0  0
  140.0660   74.6250  221.5060 C   0  0  0  0  0  0  0  0  0  0  0  0
  139.5900   75.9830  221.5430 N   0  0  0  0  0  0  0  0  0  0  0  0
  139.7860   76.8310  222.7230 C   0  0  0  0  0  0  0  0  0  0  0  0
  140.2132   76.2267  223.5368 H   0  0  0  0  0  0  0  0  0  0  0  0
  138.8144   77.2454  223.0301 H   0  0  0  0  0  0  0  0  0  0  0  0
  140.7240   77.9680  222.4030 C   0  0  0  0  0  0  0  0  0  0  0  0
  141.2800   78.7140  223.4550 C   0  0  0  0  0  0  0  0  0  0  0  0
  141.0653   78.4336  224.4968 H   0  0  0  0  0  0  0  0  0  0  0  0
  142.1040   79.8100  223.1870 C   0  0  0  0  0  0  0  0  0  0  0  0
  142.5401   80.3849  224.0172 H   0  0  0  0  0  0  0  0  0  0  0  0
  142.3750   80.1770  221.8670 C   0  0  0  0  0  0  0  0  0  0  0  0
  143.0317   81.0345  221.6587 H   0  0  0  0  0  0  0  0  0  0  0  0
  141.8120   79.4550  220.8100 C   0  0  0  0  0  0  0  0  0  0  0  0
  142.0258   79.7502  219.7721 H   0  0  0  0  0  0  0  0  0  0  0  0
  140.9750   78.3550  221.0640 C   0  0  0  0  0  0  0  0  0  0  0  0
  140.4480   77.5490  219.8960 C   0  0  0  0  0  0  0  0  0  0  0  0
  141.2556   76.9066  219.5150 H   0  0  0  0  0  0  0  0  0  0  0  0
  140.1025   78.2543  219.1258 H   0  0  0  0  0  0  0  0  0  0  0  0
  139.2630   76.6680  220.2940 C   0  0  0  0  0  0  0  0  0  0  0  0
  139.0705   75.9269  219.5043 H   0  0  0  0  0  0  0  0  0  0  0  0
  138.3635   77.2866  220.4290 H   0  0  0  0  0  0  0  0  0  0  0  0
  141.2650   74.3230  220.9340 N   0  0  0  0  0  0  0  0  0  0  0  0
  141.8510   75.0760  220.5070 H   0  0  0  0  0  0  0  0  0  0  0  0
  141.7020   73.0350  220.9000 C   0  0  0  0  0  0  0  0  0  0  0  0
  142.9610   72.7210  220.2830 N   0  0  0  0  0  0  0  0  0  0  0  0
  142.9590   72.2910  219.3310 H   0  0  0  0  0  0  0  0  0  0  0  0
  144.2460   73.1560  220.8310 C   0  0  0  0  0  0  0  0  0  0  0  0
  144.1702   73.2243  221.9263 H   0  0  0  0  0  0  0  0  0  0  0  0
  145.0212   72.4262  220.5546 H   0  0  0  0  0  0  0  0  0  0  0  0
  144.6230   74.5290  220.2620 C   0  0  0  0  0  0  0  0  0  0  0  0
  144.8026   75.2258  221.0940 H   0  0  0  0  0  0  0  0  0  0  0  0
  145.5298   74.4167  219.6496 H   0  0  0  0  0  0  0  0  0  0  0  0
  143.5430   75.0650  219.4080 N   0  0  0  0  0  0  0  0  0  0  0  0
  143.7290   74.7130  217.9890 C   0  0  0  0  0  0  0  0  0  0  0  0
  144.7327   74.2883  217.8395 H   0  0  0  0  0  0  0  0  0  0  0  0
  142.9813   73.9668  217.6823 H   0  0  0  0  0  0  0  0  0  0  0  0
  143.5770   75.9810  217.1580 C   0  0  0  0  0  0  0  0  0  0  0  0
  144.5533   76.3076  216.7705 H   0  0  0  0  0  0  0  0  0  0  0  0
  142.9255   75.8251  216.2855 H   0  0  0  0  0  0  0  0  0  0  0  0
  143.0130   77.0100  218.1060 C   0  0  0  0  0  0  0  0  0  0  0  0
  143.4254   78.0069  217.8914 H   0  0  0  0  0  0  0  0  0  0  0  0
  141.9206   77.1085  218.0228 H   0  0  0  0  0  0  0  0  0  0  0  0
  143.4520   76.5290  219.4720 C   0  0  0  0  0  0  0  0  0  0  0  0
  144.4333   76.9569  219.7249 H   0  0  0  0  0  0  0  0  0  0  0  0
  142.7352   76.8423  220.2453 H   0  0  0  0  0  0  0  0  0  0  0  0
  140.9260   72.0510  221.4240 N   0  0  0  0  0  0  0  0  0  0  0  0
  141.0840   71.8920  226.0100 C   0  0  0  0  0  0  0  0  0  0  0  0
  141.3801   72.5055  225.1463 H   0  0  0  0  0  0  0  0  0  0  0  0
  141.4440   72.2890  227.3030 C   0  0  0  0  0  0  0  0  0  0  0  0
  142.0021   73.2245  227.4558 H   0  0  0  0  0  0  0  0  0  0  0  0
  1  2  1  0
  2  3  2  0
  3  4  1  0
  3  5  1  0
  5  6  1  0
  5  7  2  0
  7  8  1  0
  8  9  1  0
  8 10  1  0
  8 11  1  0
 11 12  1  0
 11 13  1  0
 11 14  1  0
 14 15  1  0
 14 16  2  0
 16 17  1  0
 17 18  2  0
 18 19  1  0
 19 20  1  0
 20 21  1  0
 20 22  1  0
 20 23  1  0
 23 24  2  0
 24 25  1  0
 24 26  1  0
 26 27  1  0
 26 28  2  0
 28 29  1  0
 28 30  1  0
 30 31  1  0
 30 32  2  0
 32 33  1  0
 33 34  1  0
 33 35  1  0
 33 36  1  0
 36 37  1  0
 36 38  1  0
 18 39  1  0
 39 40  1  0
 39 41  1  0
 41 42  1  0
 42 43  1  0
 42 44  1  0
 44 45  1  0
 44 46  1  0
 44 47  1  0
 47 48  1  0
 47 49  1  0
 47 50  1  0
 50 51  1  0
 51 52  1  0
 51 53  1  0
 51 54  1  0
 54 55  1  0
 54 56  1  0
 54 57  1  0
 57 58  1  0
 57 59  1  0
 57 60  1  0
 60 61  1  0
 60 62  1  0
 41 63  2  0
  7 64  1  0
 64 65  1  0
 64 66  2  0
 66 67  1  0
 66  2  1  0
 63 16  1  0
 36 19  1  0
 60 50  1  0
 32 23  1  0
M  CHG  1  14   1
M  END
>  <UniqueID>  (33) 
669

>  <SMILES>  (33) 
c1ccc(CC/[NH+]=c2\nc(NCCN3CCCC3)[nH]c(N3CCc4ccccc4C3)n2)cc1

>  <Energy>  (33) 
72.69166460132372

>  <Genealogy>  (33) 
c1ccc(CC[NH2+]c2nc(NCCN3CCCC3)nc(N3CCc4ccccc4C3)n2)cc1 (protonated)
c1ccc(CC[NH+]=c2nc(NCCN3CCCC3)[nH]c(N3CCc4ccccc4C3)n2)cc1 (tautomer)
c1ccc(CC/[NH+]=c2\nc(NCCN3CCCC3)[nH]c(N3CCc4ccccc4C3)n2)cc1 (cis-trans isomerization)
c1ccc(CC/[NH+]=c2\nc(NCCN3CCCC3)[nH]c(N3CCc4ccccc4C3)n2)cc1 (3D coordinates assigned)
c1ccc(CC/[NH+]=c2\nc(NCCN3CCCC3)[nH]c(N3CCc4ccccc4C3)n2)cc1 (nonaromatic ring conformer: 72.69166460132372 kcal/mol)

>  <smiles>  (33) 
c1ccc(CCNc2nc(NCCN3CCCC3)nc(N3CCc4ccccc4C3)n2)cc1

>  <score_type>  (33) 
oracle

>  <origin>  (33) 
autodockgpu

>  <m_score__min__energy>  (33) 
-9.9900000000000002

>  <m_primary>  (33) 
energy

>  <meeko>  (33) 
{"free_energy": -8.18, "intermolecular_energy": -10.86, "internal_energy": -2.39, "cluster_size": 12, "cluster_id": 1, "rank_in_cluster": 10}

>  <energy>  (33) 
-8.97

>  <cluster_rmsd>  (33) 
0.0

>  <rmsd>  (33) 
271.29

>  <cluster>  (33) 
2

$$$$
FPFWJFTVWFQHMH-FSECZMGHNA-O
     RDKit          3D

 67 71  0  0  0  0  0  0  0  0999 V2000
  141.2093   70.2184  229.3169 H   0  0  0  0  0  0  0  0  0  0  0  0
  140.8710   70.4050  228.2870 C   0  0  0  0  0  0  0  0  0  0  0  0
  141.1120   71.6450  227.6860 C   0  0  0  0  0  0  0  0  0  0  0  0
  141.6420   72.4313  228.2435 H   0  0  0  0  0  0  0  0  0  0  0  0
  140.6810   71.8870  226.3790 C   0  0  0  0  0  0  0  0  0  0  0  0
  140.8780   72.8619  225.9092 H   0  0  0  0  0  0  0  0  0  0  0  0
  139.9960   70.8890  225.6610 C   0  0  0  0  0  0  0  0  0  0  0  0
  139.5280   71.1540  224.2510 C   0  0  0  0  0  0  0  0  0  0  0  0
  138.9426   70.2912  223.9004 H   0  0  0  0  0  0  0  0  0  0  0  0
  138.9142   72.0668  224.2564 H   0  0  0  0  0  0  0  0  0  0  0  0
  140.7100   71.3740  223.3000 C   0  0  0  0  0  0  0  0  0  0  0  0
  141.4739   71.9823  223.8064 H   0  0  0  0  0  0  0  0  0  0  0  0
  141.1288   70.3961  223.0203 H   0  0  0  0  0  0  0  0  0  0  0  0
  140.2690   72.0660  222.0860 N   0  0  0  0  0  0  0  0  0  0  0  0
  140.3440   71.5450  221.1820 H   0  0  0  0  0  0  0  0  0  0  0  0
  139.8070   73.2870  222.0750 C   0  0  0  0  0  0  0  0  0  0  0  0
  138.4670   73.4990  222.1520 N   0  0  0  0  0  0  0  0  0  0  0  0
  137.9640   74.7600  222.1270 C   0  0  0  0  0  0  0  0  0  0  0  0
  136.5410   74.9600  222.1940 N   0  0  0  0  0  0  0  0  0  0  0  0
  135.6520   73.9430  222.7640 C   0  0  0  0  0  0  0  0  0  0  0  0
  136.2335   73.0356  222.9841 H   0  0  0  0  0  0  0  0  0  0  0  0
  134.8576   73.7160  222.0378 H   0  0  0  0  0  0  0  0  0  0  0  0
  135.0210   74.4500  224.0370 C   0  0  0  0  0  0  0  0  0  0  0  0
  134.3810   73.5400  224.8940 C   0  0  0  0  0  0  0  0  0  0  0  0
  134.3876   72.4665  224.6542 H   0  0  0  0  0  0  0  0  0  0  0  0
  133.7360   73.9890  226.0490 C   0  0  0  0  0  0  0  0  0  0  0  0
  133.2432   73.2684  226.7183 H   0  0  0  0  0  0  0  0  0  0  0  0
  133.7160   75.3510  226.3550 C   0  0  0  0  0  0  0  0  0  0  0  0
  133.2148   75.7010  227.2695 H   0  0  0  0  0  0  0  0  0  0  0  0
  134.3320   76.2710  225.5010 C   0  0  0  0  0  0  0  0  0  0  0  0
  134.3110   77.3431  225.7463 H   0  0  0  0  0  0  0  0  0  0  0  0
  134.9780   75.8350  224.3310 C   0  0  0  0  0  0  0  0  0  0  0  0
  135.7020   76.8490  223.4710 C   0  0  0  0  0  0  0  0  0  0  0  0
  136.6541   77.1103  223.9560 H   0  0  0  0  0  0  0  0  0  0  0  0
  135.0523   77.7305  223.3667 H   0  0  0  0  0  0  0  0  0  0  0  0
  135.9940   76.3100  222.0690 C   0  0  0  0  0  0  0  0  0  0  0  0
  136.7244   76.9609  221.5662 H   0  0  0  0  0  0  0  0  0  0  0  0
  135.0689   76.2875  221.4743 H   0  0  0  0  0  0  0  0  0  0  0  0
  138.8100   75.8200  221.9990 N   0  0  0  0  0  0  0  0  0  0  0  0
  138.4330   76.7930  221.9400 H   0  0  0  0  0  0  0  0  0  0  0  0
  140.1550   75.6200  221.9300 C   0  0  0  0  0  0  0  0  0  0  0  0
  141.0410   76.7410  221.7820 N   0  0  0  0  0  0  0  0  0  0  0  0
  141.7910   76.8830  222.4950 H   0  0  0  0  0  0  0  0  0  0  0  0
  141.0760   77.5750  220.5810 C   0  0  0  0  0  0  0  0  0  0  0  0
  141.6229   77.0462  219.7865 H   0  0  0  0  0  0  0  0  0  0  0  0
  140.0458   77.7790  220.2539 H   0  0  0  0  0  0  0  0  0  0  0  0
  141.7790   78.9030  220.8830 C   0  0  0  0  0  0  0  0  0  0  0  0
  142.7820   78.8894  220.4316 H   0  0  0  0  0  0  0  0  0  0  0  0
  141.1766   79.7212  220.4615 H   0  0  0  0  0  0  0  0  0  0  0  0
  141.9080   79.1170  222.3390 N   0  0  0  0  0  0  0  0  0  0  0  0
  140.6820   79.6830  222.9290 C   0  0  0  0  0  0  0  0  0  0  0  0
  139.9981   80.0041  222.1295 H   0  0  0  0  0  0  0  0  0  0  0  0
  140.1731   78.9270  223.5450 H   0  0  0  0  0  0  0  0  0  0  0  0
  141.0740   80.8820  223.7850 C   0  0  0  0  0  0  0  0  0  0  0  0
  140.7713   81.8200  223.2966 H   0  0  0  0  0  0  0  0  0  0  0  0
  140.5819   80.8631  224.7686 H   0  0  0  0  0  0  0  0  0  0  0  0
  142.5760   80.8090  223.9050 C   0  0  0  0  0  0  0  0  0  0  0  0
  143.0178   81.8164  223.9060 H   0  0  0  0  0  0  0  0  0  0  0  0
  142.9039   80.3330  224.8409 H   0  0  0  0  0  0  0  0  0  0  0  0
  143.0030   80.0350  222.6760 C   0  0  0  0  0  0  0  0  0  0  0  0
  143.1861   80.7262  221.8401 H   0  0  0  0  0  0  0  0  0  0  0  0
  143.9330   79.4798  222.8678 H   0  0  0  0  0  0  0  0  0  0  0  0
  140.6450   74.3530  221.9720 N   0  0  0  0  0  0  0  0  0  0  0  0
  139.7500   69.6470  226.2750 C   0  0  0  0  0  0  0  0  0  0  0  0
  139.2020   68.8651  225.7288 H   0  0  0  0  0  0  0  0  0  0  0  0
  140.2000   69.4020  227.5790 C   0  0  0  0  0  0  0  0  0  0  0  0
  140.0258   68.4214  228.0460 H   0  0  0  0  0  0  0  0  0  0  0  0
  1  2  1  0
  2  3  2  0
  3  4  1  0
  3  5  1  0
  5  6  1  0
  5  7  2  0
  7  8  1  0
  8  9  1  0
  8 10  1  0
  8 11  1  0
 11 12  1  0
 11 13  1  0
 11 14  1  0
 14 15  1  0
 14 16  2  0
 16 17  1  0
 17 18  2  0
 18 19  1  0
 19 20  1  0
 20 21  1  0
 20 22  1  0
 20 23  1  0
 23 24  2  0
 24 25  1  0
 24 26  1  0
 26 27  1  0
 26 28  2  0
 28 29  1  0
 28 30  1  0
 30 31  1  0
 30 32  2  0
 32 33  1  0
 33 34  1  0
 33 35  1  0
 33 36  1  0
 36 37  1  0
 36 38  1  0
 18 39  1  0
 39 40  1  0
 39 41  1  0
 41 42  1  0
 42 43  1  0
 42 44  1  0
 44 45  1  0
 44 46  1  0
 44 47  1  0
 47 48  1  0
 47 49  1  0
 47 50  1  0
 50 51  1  0
 51 52  1  0
 51 53  1  0
 51 54  1  0
 54 55  1  0
 54 56  1  0
 54 57  1  0
 57 58  1  0
 57 59  1  0
 57 60  1  0
 60 61  1  0
 60 62  1  0
 41 63  2  0
  7 64  1  0
 64 65  1  0
 64 66  2  0
 66 67  1  0
 66  2  1  0
 63 16  1  0
 36 19  1  0
 60 50  1  0
 32 23  1  0
M  CHG  1  14   1
M  END
>  <UniqueID>  (34) 
669

>  <SMILES>  (34) 
c1ccc(CC/[NH+]=c2\nc(NCCN3CCCC3)[nH]c(N3CCc4ccccc4C3)n2)cc1

>  <Energy>  (34) 
72.69166460132372

>  <Genealogy>  (34) 
c1ccc(CC[NH2+]c2nc(NCCN3CCCC3)nc(N3CCc4ccccc4C3)n2)cc1 (protonated)
c1ccc(CC[NH+]=c2nc(NCCN3CCCC3)[nH]c(N3CCc4ccccc4C3)n2)cc1 (tautomer)
c1ccc(CC/[NH+]=c2\nc(NCCN3CCCC3)[nH]c(N3CCc4ccccc4C3)n2)cc1 (cis-trans isomerization)
c1ccc(CC/[NH+]=c2\nc(NCCN3CCCC3)[nH]c(N3CCc4ccccc4C3)n2)cc1 (3D coordinates assigned)
c1ccc(CC/[NH+]=c2\nc(NCCN3CCCC3)[nH]c(N3CCc4ccccc4C3)n2)cc1 (nonaromatic ring conformer: 72.69166460132372 kcal/mol)

>  <smiles>  (34) 
c1ccc(CCNc2nc(NCCN3CCCC3)nc(N3CCc4ccccc4C3)n2)cc1

>  <score_type>  (34) 
oracle

>  <origin>  (34) 
autodockgpu

>  <m_score__min__energy>  (34) 
-9.9900000000000002

>  <m_primary>  (34) 
energy

>  <meeko>  (34) 
{"free_energy": -8.93, "intermolecular_energy": -11.62, "internal_energy": -1.5, "cluster_size": 1, "cluster_id": 3, "rank_in_cluster": 1}

>  <energy>  (34) 
-8.91

>  <cluster_rmsd>  (34) 
1.1

>  <rmsd>  (34) 
271.1

>  <cluster>  (34) 
2

$$$$
FPFWJFTVWFQHMH-FSECZMGHNA-O
     RDKit          3D

 67 71  0  0  0  0  0  0  0  0999 V2000
  141.6462   71.9293  229.1529 H   0  0  0  0  0  0  0  0  0  0  0  0
  141.1470   71.5500  228.2490 C   0  0  0  0  0  0  0  0  0  0  0  0
  141.3810   72.1610  227.0140 C   0  0  0  0  0  0  0  0  0  0  0  0
  142.0666   73.0186  226.9470 H   0  0  0  0  0  0  0  0  0  0  0  0
  140.7450   71.6840  225.8630 C   0  0  0  0  0  0  0  0  0  0  0  0
  140.9358   72.1655  224.8926 H   0  0  0  0  0  0  0  0  0  0  0  0
  139.8630   70.5920  225.9410 C   0  0  0  0  0  0  0  0  0  0  0  0
  139.1740   70.0820  224.6990 C   0  0  0  0  0  0  0  0  0  0  0  0
  139.2366   68.9839  224.6805 H   0  0  0  0  0  0  0  0  0  0  0  0
  138.1254   70.4133  224.7245 H   0  0  0  0  0  0  0  0  0  0  0  0
  139.8250   70.6400  223.4280 C   0  0  0  0  0  0  0  0  0  0  0  0
  140.9177   70.6481  223.5543 H   0  0  0  0  0  0  0  0  0  0  0  0
  139.5470   70.0023  222.5759 H   0  0  0  0  0  0  0  0  0  0  0  0
  139.3590   72.0050  223.1710 N   0  0  0  0  0  0  0  0  0  0  0  0
  138.4770   72.3080  223.6440 H   0  0  0  0  0  0  0  0  0  0  0  0
  139.9730   72.8430  222.3820 C   0  0  0  0  0  0  0  0  0  0  0  0
  139.5840   74.1450  222.3510 N   0  0  0  0  0  0  0  0  0  0  0  0
  140.1990   75.0310  221.5260 C   0  0  0  0  0  0  0  0  0  0  0  0
  139.7600   76.4010  221.5000 N   0  0  0  0  0  0  0  0  0  0  0  0
  139.7060   77.2100  222.7210 C   0  0  0  0  0  0  0  0  0  0  0  0
  139.9254   76.5709  223.5890 H   0  0  0  0  0  0  0  0  0  0  0  0
  138.7002   77.6452  222.8160 H   0  0  0  0  0  0  0  0  0  0  0  0
  140.7180   78.3270  222.6580 C   0  0  0  0  0  0  0  0  0  0  0  0
  141.0410   79.0270  223.8310 C   0  0  0  0  0  0  0  0  0  0  0  0
  140.5907   78.7253  224.7882 H   0  0  0  0  0  0  0  0  0  0  0  0
  141.9300   80.1040  223.7920 C   0  0  0  0  0  0  0  0  0  0  0  0
  142.1813   80.6429  224.7174 H   0  0  0  0  0  0  0  0  0  0  0  0
  142.5000   80.4970  222.5790 C   0  0  0  0  0  0  0  0  0  0  0  0
  143.2078   81.3386  222.5516 H   0  0  0  0  0  0  0  0  0  0  0  0
  142.1720   79.8220  221.4000 C   0  0  0  0  0  0  0  0  0  0  0  0
  142.6207   80.1390  220.4470 H   0  0  0  0  0  0  0  0  0  0  0  0
  141.2740   78.7420  221.4220 C   0  0  0  0  0  0  0  0  0  0  0  0
  141.0040   77.9840  220.1400 C   0  0  0  0  0  0  0  0  0  0  0  0
  141.8609   77.3273  219.9289 H   0  0  0  0  0  0  0  0  0  0  0  0
  140.8577   78.7198  219.3356 H   0  0  0  0  0  0  0  0  0  0  0  0
  139.7380   77.1290  220.2330 C   0  0  0  0  0  0  0  0  0  0  0  0
  139.7101   76.4157  219.3961 H   0  0  0  0  0  0  0  0  0  0  0  0
  138.8461   77.7709  220.1835 H   0  0  0  0  0  0  0  0  0  0  0  0
  141.1990   74.6050  220.7050 N   0  0  0  0  0  0  0  0  0  0  0  0
  141.6540   75.2690  220.0380 H   0  0  0  0  0  0  0  0  0  0  0  0
  141.6020   73.3060  220.7340 C   0  0  0  0  0  0  0  0  0  0  0  0
  142.6470   72.8600  219.8560 N   0  0  0  0  0  0  0  0  0  0  0  0
  142.3870   72.4960  218.9110 H   0  0  0  0  0  0  0  0  0  0  0  0
  144.0670   73.0740  220.1350 C   0  0  0  0  0  0  0  0  0  0  0  0
  144.2605   72.8882  221.2018 H   0  0  0  0  0  0  0  0  0  0  0  0
  144.6634   72.3828  219.5213 H   0  0  0  0  0  0  0  0  0  0  0  0
  144.4580   74.5160  219.7920 C   0  0  0  0  0  0  0  0  0  0  0  0
  144.5333   75.0987  220.7220 H   0  0  0  0  0  0  0  0  0  0  0  0
  145.4241   74.5004  219.2662 H   0  0  0  0  0  0  0  0  0  0  0  0
  143.4530   75.1440  218.9090 N   0  0  0  0  0  0  0  0  0  0  0  0
  143.7090   74.8630  217.4860 C   0  0  0  0  0  0  0  0  0  0  0  0
  144.7019   74.4039  217.3703 H   0  0  0  0  0  0  0  0  0  0  0  0
  142.9514   74.1681  217.0946 H   0  0  0  0  0  0  0  0  0  0  0  0
  143.6580   76.1810  216.7210 C   0  0  0  0  0  0  0  0  0  0  0  0
  144.6681   76.4862  216.4103 H   0  0  0  0  0  0  0  0  0  0  0  0
  143.0551   76.1018  215.8043 H   0  0  0  0  0  0  0  0  0  0  0  0
  143.0790   77.1790  217.6930 C   0  0  0  0  0  0  0  0  0  0  0  0
  143.5419   78.1680  217.5601 H   0  0  0  0  0  0  0  0  0  0  0  0
  141.9981   77.3280  217.5533 H   0  0  0  0  0  0  0  0  0  0  0  0
  143.4170   76.6050  219.0520 C   0  0  0  0  0  0  0  0  0  0  0  0
  144.3980   76.9755  219.3843 H   0  0  0  0  0  0  0  0  0  0  0  0
  142.6690   76.9060  219.8003 H   0  0  0  0  0  0  0  0  0  0  0  0
  140.9880   72.4330  221.5750 N   0  0  0  0  0  0  0  0  0  0  0  0
  139.6260   69.9870  227.1900 C   0  0  0  0  0  0  0  0  0  0  0  0
  138.9256   69.1422  227.2656 H   0  0  0  0  0  0  0  0  0  0  0  0
  140.2790   70.4570  228.3370 C   0  0  0  0  0  0  0  0  0  0  0  0
  140.1090   69.9663  229.3067 H   0  0  0  0  0  0  0  0  0  0  0  0
  1  2  1  0
  2  3  2  0
  3  4  1  0
  3  5  1  0
  5  6  1  0
  5  7  2  0
  7  8  1  0
  8  9  1  0
  8 10  1  0
  8 11  1  0
 11 12  1  0
 11 13  1  0
 11 14  1  0
 14 15  1  0
 14 16  2  0
 16 17  1  0
 17 18  2  0
 18 19  1  0
 19 20  1  0
 20 21  1  0
 20 22  1  0
 20 23  1  0
 23 24  2  0
 24 25  1  0
 24 26  1  0
 26 27  1  0
 26 28  2  0
 28 29  1  0
 28 30  1  0
 30 31  1  0
 30 32  2  0
 32 33  1  0
 33 34  1  0
 33 35  1  0
 33 36  1  0
 36 37  1  0
 36 38  1  0
 18 39  1  0
 39 40  1  0
 39 41  1  0
 41 42  1  0
 42 43  1  0
 42 44  1  0
 44 45  1  0
 44 46  1  0
 44 47  1  0
 47 48  1  0
 47 49  1  0
 47 50  1  0
 50 51  1  0
 51 52  1  0
 51 53  1  0
 51 54  1  0
 54 55  1  0
 54 56  1  0
 54 57  1  0
 57 58  1  0
 57 59  1  0
 57 60  1  0
 60 61  1  0
 60 62  1  0
 41 63  2  0
  7 64  1  0
 64 65  1  0
 64 66  2  0
 66 67  1  0
 66  2  1  0
 63 16  1  0
 36 19  1  0
 60 50  1  0
 32 23  1  0
M  CHG  1  14   1
M  END
>  <UniqueID>  (35) 
669

>  <SMILES>  (35) 
c1ccc(CC/[NH+]=c2\nc(NCCN3CCCC3)[nH]c(N3CCc4ccccc4C3)n2)cc1

>  <Energy>  (35) 
72.69166460132372

>  <Genealogy>  (35) 
c1ccc(CC[NH2+]c2nc(NCCN3CCCC3)nc(N3CCc4ccccc4C3)n2)cc1 (protonated)
c1ccc(CC[NH+]=c2nc(NCCN3CCCC3)[nH]c(N3CCc4ccccc4C3)n2)cc1 (tautomer)
c1ccc(CC/[NH+]=c2\nc(NCCN3CCCC3)[nH]c(N3CCc4ccccc4C3)n2)cc1 (cis-trans isomerization)
c1ccc(CC/[NH+]=c2\nc(NCCN3CCCC3)[nH]c(N3CCc4ccccc4C3)n2)cc1 (3D coordinates assigned)
c1ccc(CC/[NH+]=c2\nc(NCCN3CCCC3)[nH]c(N3CCc4ccccc4C3)n2)cc1 (nonaromatic ring conformer: 72.69166460132372 kcal/mol)

>  <smiles>  (35) 
c1ccc(CCNc2nc(NCCN3CCCC3)nc(N3CCc4ccccc4C3)n2)cc1

>  <score_type>  (35) 
oracle

>  <origin>  (35) 
autodockgpu

>  <m_score__min__energy>  (35) 
-9.9900000000000002

>  <m_primary>  (35) 
energy

>  <meeko>  (35) 
{"free_energy": -9.0, "intermolecular_energy": -11.68, "internal_energy": -2.08, "cluster_size": 12, "cluster_id": 1, "rank_in_cluster": 5}

>  <energy>  (35) 
-8.58

>  <cluster_rmsd>  (35) 
1.17

>  <rmsd>  (35) 
271.13

>  <cluster>  (35) 
2

$$$$
FPFWJFTVWFQHMH-FSECZMGHNA-O
     RDKit          3D

 67 71  0  0  0  0  0  0  0  0999 V2000
  140.7300   73.3591  227.5259 H   0  0  0  0  0  0  0  0  0  0  0  0
  140.7150   72.2610  227.4630 C   0  0  0  0  0  0  0  0  0  0  0  0
  141.4410   71.6090  226.4610 C   0  0  0  0  0  0  0  0  0  0  0  0
  142.0285   72.1949  225.7388 H   0  0  0  0  0  0  0  0  0  0  0  0
  141.4210   70.2140  226.3760 C   0  0  0  0  0  0  0  0  0  0  0  0
  141.9974   69.7050  225.5894 H   0  0  0  0  0  0  0  0  0  0  0  0
  140.6670   69.4580  227.2920 C   0  0  0  0  0  0  0  0  0  0  0  0
  140.6440   67.9520  227.1960 C   0  0  0  0  0  0  0  0  0  0  0  0
  141.5360   67.6147  226.6478 H   0  0  0  0  0  0  0  0  0  0  0  0
  140.6337   67.5402  228.2160 H   0  0  0  0  0  0  0  0  0  0  0  0
  139.3910   67.4570  226.4630 C   0  0  0  0  0  0  0  0  0  0  0  0
  139.3617   66.3579  226.4972 H   0  0  0  0  0  0  0  0  0  0  0  0
  138.5011   67.8748  226.9564 H   0  0  0  0  0  0  0  0  0  0  0  0
  139.4090   67.8960  225.0650 N   0  0  0  0  0  0  0  0  0  0  0  0
  139.9060   67.2850  224.3760 H   0  0  0  0  0  0  0  0  0  0  0  0
  138.8540   69.0000  224.6450 C   0  0  0  0  0  0  0  0  0  0  0  0
  137.5010   69.1180  224.6540 N   0  0  0  0  0  0  0  0  0  0  0  0
  136.9030   70.2530  224.2080 C   0  0  0  0  0  0  0  0  0  0  0  0
  135.4670   70.3490  224.2130 N   0  0  0  0  0  0  0  0  0  0  0  0
  134.6900   70.1270  225.4350 C   0  0  0  0  0  0  0  0  0  0  0  0
  135.3618   69.7782  226.2331 H   0  0  0  0  0  0  0  0  0  0  0  0
  133.9171   69.3707  225.2335 H   0  0  0  0  0  0  0  0  0  0  0  0
  134.0200   71.4060  225.8730 C   0  0  0  0  0  0  0  0  0  0  0  0
  133.4820   71.4910  227.1670 C   0  0  0  0  0  0  0  0  0  0  0  0
  133.5946   70.6458  227.8619 H   0  0  0  0  0  0  0  0  0  0  0  0
  132.8050   72.6410  227.5780 C   0  0  0  0  0  0  0  0  0  0  0  0
  132.3923   72.7010  228.5959 H   0  0  0  0  0  0  0  0  0  0  0  0
  132.6510   73.7150  226.6990 C   0  0  0  0  0  0  0  0  0  0  0  0
  132.1260   74.6237  227.0287 H   0  0  0  0  0  0  0  0  0  0  0  0
  133.1630   73.6370  225.4010 C   0  0  0  0  0  0  0  0  0  0  0  0
  133.0343   74.4844  224.7116 H   0  0  0  0  0  0  0  0  0  0  0  0
  133.8410   72.4840  224.9700 C   0  0  0  0  0  0  0  0  0  0  0  0
  134.4520   72.4660  223.5860 C   0  0  0  0  0  0  0  0  0  0  0  0
  135.3766   73.0617  223.5986 H   0  0  0  0  0  0  0  0  0  0  0  0
  133.7160   72.8867  222.8851 H   0  0  0  0  0  0  0  0  0  0  0  0
  134.7860   71.0460  223.1230 C   0  0  0  0  0  0  0  0  0  0  0  0
  135.4433   71.0883  222.2420 H   0  0  0  0  0  0  0  0  0  0  0  0
  133.8632   70.5115  222.8531 H   0  0  0  0  0  0  0  0  0  0  0  0
  137.6670   71.2710  223.7240 N   0  0  0  0  0  0  0  0  0  0  0  0
  137.2170   72.1340  223.3430 H   0  0  0  0  0  0  0  0  0  0  0  0
  139.0240   71.1670  223.7190 C   0  0  0  0  0  0  0  0  0  0  0  0
  139.8240   72.2390  223.1960 N   0  0  0  0  0  0  0  0  0  0  0  0
  139.9540   73.0970  223.7780 H   0  0  0  0  0  0  0  0  0  0  0  0
  140.6280   72.1130  221.9800 C   0  0  0  0  0  0  0  0  0  0  0  0
  141.6178   71.7085  222.2384 H   0  0  0  0  0  0  0  0  0  0  0  0
  140.1182   71.4351  221.2796 H   0  0  0  0  0  0  0  0  0  0  0  0
  140.7980   73.4850  221.3170 C   0  0  0  0  0  0  0  0  0  0  0  0
  141.8693   73.6762  221.1562 H   0  0  0  0  0  0  0  0  0  0  0  0
  140.2585   73.4794  220.3584 H   0  0  0  0  0  0  0  0  0  0  0  0
  140.2380   74.5580  222.1650 N   0  0  0  0  0  0  0  0  0  0  0  0
  138.8020   74.7710  221.9160 C   0  0  0  0  0  0  0  0  0  0  0  0
  138.4941   74.2170  221.0170 H   0  0  0  0  0  0  0  0  0  0  0  0
  138.2113   74.4111  222.7713 H   0  0  0  0  0  0  0  0  0  0  0  0
  138.5690   76.2640  221.7070 C   0  0  0  0  0  0  0  0  0  0  0  0
  138.3563   76.4770  220.6490 H   0  0  0  0  0  0  0  0  0  0  0  0
  137.7068   76.6307  222.2834 H   0  0  0  0  0  0  0  0  0  0  0  0
  139.8550   76.9270  222.1320 C   0  0  0  0  0  0  0  0  0  0  0  0
  140.0742   77.7980  221.4969 H   0  0  0  0  0  0  0  0  0  0  0  0
  139.8150   77.3054  223.1641 H   0  0  0  0  0  0  0  0  0  0  0  0
  140.9020   75.8490  221.9470 C   0  0  0  0  0  0  0  0  0  0  0  0
  141.3134   75.8940  220.9278 H   0  0  0  0  0  0  0  0  0  0  0  0
  141.7328   75.9856  222.6549 H   0  0  0  0  0  0  0  0  0  0  0  0
  139.6090   70.0320  224.1830 N   0  0  0  0  0  0  0  0  0  0  0  0
  139.9330   70.1220  228.2930 C   0  0  0  0  0  0  0  0  0  0  0  0
  139.3283   69.5416  229.0054 H   0  0  0  0  0  0  0  0  0  0  0  0
  139.9700   71.5190  228.3850 C   0  0  0  0  0  0  0  0  0  0  0  0
  139.4130   72.0326  229.1825 H   0  0  0  0  0  0  0  0  0  0  0  0
  1  2  1  0
  2  3  2  0
  3  4  1  0
  3  5  1  0
  5  6  1  0
  5  7  2  0
  7  8  1  0
  8  9  1  0
  8 10  1  0
  8 11  1  0
 11 12  1  0
 11 13  1  0
 11 14  1  0
 14 15  1  0
 14 16  2  0
 16 17  1  0
 17 18  2  0
 18 19  1  0
 19 20  1  0
 20 21  1  0
 20 22  1  0
 20 23  1  0
 23 24  2  0
 24 25  1  0
 24 26  1  0
 26 27  1  0
 26 28  2  0
 28 29  1  0
 28 30  1  0
 30 31  1  0
 30 32  2  0
 32 33  1  0
 33 34  1  0
 33 35  1  0
 33 36  1  0
 36 37  1  0
 36 38  1  0
 18 39  1  0
 39 40  1  0
 39 41  1  0
 41 42  1  0
 42 43  1  0
 42 44  1  0
 44 45  1  0
 44 46  1  0
 44 47  1  0
 47 48  1  0
 47 49  1  0
 47 50  1  0
 50 51  1  0
 51 52  1  0
 51 53  1  0
 51 54  1  0
 54 55  1  0
 54 56  1  0
 54 57  1  0
 57 58  1  0
 57 59  1  0
 57 60  1  0
 60 61  1  0
 60 62  1  0
 41 63  2  0
  7 64  1  0
 64 65  1  0
 64 66  2  0
 66 67  1  0
 66  2  1  0
 63 16  1  0
 36 19  1  0
 60 50  1  0
 32 23  1  0
M  CHG  1  14   1
M  END
>  <UniqueID>  (36) 
669

>  <SMILES>  (36) 
c1ccc(CC/[NH+]=c2\nc(NCCN3CCCC3)[nH]c(N3CCc4ccccc4C3)n2)cc1

>  <Energy>  (36) 
72.69166460132372

>  <Genealogy>  (36) 
c1ccc(CC[NH2+]c2nc(NCCN3CCCC3)nc(N3CCc4ccccc4C3)n2)cc1 (protonated)
c1ccc(CC[NH+]=c2nc(NCCN3CCCC3)[nH]c(N3CCc4ccccc4C3)n2)cc1 (tautomer)
c1ccc(CC/[NH+]=c2\nc(NCCN3CCCC3)[nH]c(N3CCc4ccccc4C3)n2)cc1 (cis-trans isomerization)
c1ccc(CC/[NH+]=c2\nc(NCCN3CCCC3)[nH]c(N3CCc4ccccc4C3)n2)cc1 (3D coordinates assigned)
c1ccc(CC/[NH+]=c2\nc(NCCN3CCCC3)[nH]c(N3CCc4ccccc4C3)n2)cc1 (nonaromatic ring conformer: 72.69166460132372 kcal/mol)

>  <smiles>  (36) 
c1ccc(CCNc2nc(NCCN3CCCC3)nc(N3CCc4ccccc4C3)n2)cc1

>  <score_type>  (36) 
oracle

>  <origin>  (36) 
autodockgpu

>  <m_score__min__energy>  (36) 
-9.9900000000000002

>  <m_primary>  (36) 
energy

>  <meeko>  (36) 
{"free_energy": -8.79, "intermolecular_energy": -11.47, "internal_energy": -2.06, "cluster_size": 2, "cluster_id": 4, "rank_in_cluster": 1}

>  <energy>  (36) 
-8.58

>  <cluster_rmsd>  (36) 
1.18

>  <rmsd>  (36) 
271.13

>  <cluster>  (36) 
2

$$$$
FPFWJFTVWFQHMH-FSECZMGHNA-O
     RDKit          3D

 67 71  0  0  0  0  0  0  0  0999 V2000
  140.6696   69.7027  229.3633 H   0  0  0  0  0  0  0  0  0  0  0  0
  140.6710   70.0770  228.3290 C   0  0  0  0  0  0  0  0  0  0  0  0
  140.3370   69.2200  227.2760 C   0  0  0  0  0  0  0  0  0  0  0  0
  140.0715   68.1728  227.4833 H   0  0  0  0  0  0  0  0  0  0  0  0
  140.3400   69.6920  225.9600 C   0  0  0  0  0  0  0  0  0  0  0  0
  140.0712   69.0154  225.1354 H   0  0  0  0  0  0  0  0  0  0  0  0
  140.6850   71.0280  225.6850 C   0  0  0  0  0  0  0  0  0  0  0  0
  140.6920   71.5340  224.2640 C   0  0  0  0  0  0  0  0  0  0  0  0
  141.0789   72.5636  224.2528 H   0  0  0  0  0  0  0  0  0  0  0  0
  141.3311   70.8700  223.6635 H   0  0  0  0  0  0  0  0  0  0  0  0
  139.2830   71.5240  223.6590 C   0  0  0  0  0  0  0  0  0  0  0  0
  138.9365   70.4842  223.5649 H   0  0  0  0  0  0  0  0  0  0  0  0
  138.6081   72.0897  224.3182 H   0  0  0  0  0  0  0  0  0  0  0  0
  139.2900   72.1520  222.3350 N   0  0  0  0  0  0  0  0  0  0  0  0
  138.5730   71.8260  221.6450 H   0  0  0  0  0  0  0  0  0  0  0  0
  140.1400   73.0730  221.9740 C   0  0  0  0  0  0  0  0  0  0  0  0
  139.7470   74.3730  221.9360 N   0  0  0  0  0  0  0  0  0  0  0  0
  140.6120   75.3460  221.5490 C   0  0  0  0  0  0  0  0  0  0  0  0
  140.1690   76.7140  221.5030 N   0  0  0  0  0  0  0  0  0  0  0  0
  139.9790   77.4990  222.7270 C   0  0  0  0  0  0  0  0  0  0  0  0
  140.1084   76.8440  223.6012 H   0  0  0  0  0  0  0  0  0  0  0  0
  138.9660   77.9276  222.7220 H   0  0  0  0  0  0  0  0  0  0  0  0
  140.9840   78.6210  222.7940 C   0  0  0  0  0  0  0  0  0  0  0  0
  141.1750   79.2990  224.0080 C   0  0  0  0  0  0  0  0  0  0  0  0
  140.6278   78.9760  224.9059 H   0  0  0  0  0  0  0  0  0  0  0  0
  142.0550   80.3810  224.0840 C   0  0  0  0  0  0  0  0  0  0  0  0
  142.2014   80.9032  225.0410 H   0  0  0  0  0  0  0  0  0  0  0  0
  142.7490   80.8010  222.9480 C   0  0  0  0  0  0  0  0  0  0  0  0
  143.4498   81.6463  223.0134 H   0  0  0  0  0  0  0  0  0  0  0  0
  142.5540   80.1480  221.7270 C   0  0  0  0  0  0  0  0  0  0  0  0
  143.0996   80.4861  220.8337 H   0  0  0  0  0  0  0  0  0  0  0  0
  141.6660   79.0630  221.6330 C   0  0  0  0  0  0  0  0  0  0  0  0
  141.5400   78.3300  220.3150 C   0  0  0  0  0  0  0  0  0  0  0  0
  142.4193   77.6822  220.1839 H   0  0  0  0  0  0  0  0  0  0  0  0
  141.4750   79.0814  219.5143 H   0  0  0  0  0  0  0  0  0  0  0  0
  140.2780   77.4670  220.2550 C   0  0  0  0  0  0  0  0  0  0  0  0
  140.3453   76.7704  219.4064 H   0  0  0  0  0  0  0  0  0  0  0  0
  139.3920   78.1052  220.1222 H   0  0  0  0  0  0  0  0  0  0  0  0
  141.8780   75.0120  221.1720 N   0  0  0  0  0  0  0  0  0  0  0  0
  142.5410   75.7470  220.8360 H   0  0  0  0  0  0  0  0  0  0  0  0
  142.2840   73.7140  221.2140 C   0  0  0  0  0  0  0  0  0  0  0  0
  143.6160   73.3660  220.8030 N   0  0  0  0  0  0  0  0  0  0  0  0
  143.9260   72.3720  220.8990 H   0  0  0  0  0  0  0  0  0  0  0  0
  144.4900   74.2840  220.0730 C   0  0  0  0  0  0  0  0  0  0  0  0
  144.5494   75.2391  220.6155 H   0  0  0  0  0  0  0  0  0  0  0  0
  145.4924   73.8385  219.9902 H   0  0  0  0  0  0  0  0  0  0  0  0
  143.9330   74.5330  218.6670 C   0  0  0  0  0  0  0  0  0  0  0  0
  144.7577   74.8261  218.0007 H   0  0  0  0  0  0  0  0  0  0  0  0
  143.4581   73.6070  218.3105 H   0  0  0  0  0  0  0  0  0  0  0  0
  142.9170   75.6070  218.6790 N   0  0  0  0  0  0  0  0  0  0  0  0
  141.6470   75.1790  218.0690 C   0  0  0  0  0  0  0  0  0  0  0  0
  141.7850   74.2131  217.5611 H   0  0  0  0  0  0  0  0  0  0  0  0
  140.8745   75.0626  218.8434 H   0  0  0  0  0  0  0  0  0  0  0  0
  141.2220   76.2380  217.0570 C   0  0  0  0  0  0  0  0  0  0  0  0
  141.3563   75.8666  216.0303 H   0  0  0  0  0  0  0  0  0  0  0  0
  140.1597   76.5039  217.1612 H   0  0  0  0  0  0  0  0  0  0  0  0
  142.1270   77.4170  217.3160 C   0  0  0  0  0  0  0  0  0  0  0  0
  142.3847   77.9260  216.3755 H   0  0  0  0  0  0  0  0  0  0  0  0
  141.6570   78.1788  217.9553 H   0  0  0  0  0  0  0  0  0  0  0  0
  143.3570   76.8030  217.9500 C   0  0  0  0  0  0  0  0  0  0  0  0
  144.0831   76.5246  217.1721 H   0  0  0  0  0  0  0  0  0  0  0  0
  143.8448   77.5176  218.6293 H   0  0  0  0  0  0  0  0  0  0  0  0
  141.4130   72.7520  221.6190 N   0  0  0  0  0  0  0  0  0  0  0  0
  141.0280   71.8820  226.7500 C   0  0  0  0  0  0  0  0  0  0  0  0
  141.3138   72.9244  226.5459 H   0  0  0  0  0  0  0  0  0  0  0  0
  141.0070   71.4100  228.0690 C   0  0  0  0  0  0  0  0  0  0  0  0
  141.2546   72.0872  228.8998 H   0  0  0  0  0  0  0  0  0  0  0  0
  1  2  1  0
  2  3  2  0
  3  4  1  0
  3  5  1  0
  5  6  1  0
  5  7  2  0
  7  8  1  0
  8  9  1  0
  8 10  1  0
  8 11  1  0
 11 12  1  0
 11 13  1  0
 11 14  1  0
 14 15  1  0
 14 16  2  0
 16 17  1  0
 17 18  2  0
 18 19  1  0
 19 20  1  0
 20 21  1  0
 20 22  1  0
 20 23  1  0
 23 24  2  0
 24 25  1  0
 24 26  1  0
 26 27  1  0
 26 28  2  0
 28 29  1  0
 28 30  1  0
 30 31  1  0
 30 32  2  0
 32 33  1  0
 33 34  1  0
 33 35  1  0
 33 36  1  0
 36 37  1  0
 36 38  1  0
 18 39  1  0
 39 40  1  0
 39 41  1  0
 41 42  1  0
 42 43  1  0
 42 44  1  0
 44 45  1  0
 44 46  1  0
 44 47  1  0
 47 48  1  0
 47 49  1  0
 47 50  1  0
 50 51  1  0
 51 52  1  0
 51 53  1  0
 51 54  1  0
 54 55  1  0
 54 56  1  0
 54 57  1  0
 57 58  1  0
 57 59  1  0
 57 60  1  0
 60 61  1  0
 60 62  1  0
 41 63  2  0
  7 64  1  0
 64 65  1  0
 64 66  2  0
 66 67  1  0
 66  2  1  0
 63 16  1  0
 36 19  1  0
 60 50  1  0
 32 23  1  0
M  CHG  1  14   1
M  END
>  <UniqueID>  (37) 
669

>  <SMILES>  (37) 
c1ccc(CC/[NH+]=c2\nc(NCCN3CCCC3)[nH]c(N3CCc4ccccc4C3)n2)cc1

>  <Energy>  (37) 
72.69166460132372

>  <Genealogy>  (37) 
c1ccc(CC[NH2+]c2nc(NCCN3CCCC3)nc(N3CCc4ccccc4C3)n2)cc1 (protonated)
c1ccc(CC[NH+]=c2nc(NCCN3CCCC3)[nH]c(N3CCc4ccccc4C3)n2)cc1 (tautomer)
c1ccc(CC/[NH+]=c2\nc(NCCN3CCCC3)[nH]c(N3CCc4ccccc4C3)n2)cc1 (cis-trans isomerization)
c1ccc(CC/[NH+]=c2\nc(NCCN3CCCC3)[nH]c(N3CCc4ccccc4C3)n2)cc1 (3D coordinates assigned)
c1ccc(CC/[NH+]=c2\nc(NCCN3CCCC3)[nH]c(N3CCc4ccccc4C3)n2)cc1 (nonaromatic ring conformer: 72.69166460132372 kcal/mol)

>  <smiles>  (37) 
c1ccc(CCNc2nc(NCCN3CCCC3)nc(N3CCc4ccccc4C3)n2)cc1

>  <score_type>  (37) 
oracle

>  <origin>  (37) 
autodockgpu

>  <m_score__min__energy>  (37) 
-9.9900000000000002

>  <m_primary>  (37) 
energy

>  <meeko>  (37) 
{"free_energy": -8.65, "intermolecular_energy": -11.33, "internal_energy": -2.13, "cluster_size": 12, "cluster_id": 1, "rank_in_cluster": 6}

>  <energy>  (37) 
-8.93

>  <cluster_rmsd>  (37) 
0.0

>  <rmsd>  (37) 
271.31

>  <cluster>  (37) 
3

$$$$
FPFWJFTVWFQHMH-FSECZMGHNA-O
     RDKit          3D

 67 71  0  0  0  0  0  0  0  0999 V2000
  141.3521   70.9294  229.4102 H   0  0  0  0  0  0  0  0  0  0  0  0
  141.1010   70.8900  228.3400 C   0  0  0  0  0  0  0  0  0  0  0  0
  140.4900   69.7500  227.8070 C   0  0  0  0  0  0  0  0  0  0  0  0
  140.2595   68.8948  228.4592 H   0  0  0  0  0  0  0  0  0  0  0  0
  140.1720   69.6960  226.4470 C   0  0  0  0  0  0  0  0  0  0  0  0
  139.6869   68.7994  226.0338 H   0  0  0  0  0  0  0  0  0  0  0  0
  140.4690   70.7820  225.6040 C   0  0  0  0  0  0  0  0  0  0  0  0
  140.1280   70.7190  224.1360 C   0  0  0  0  0  0  0  0  0  0  0  0
  140.9338   71.1984  223.5608 H   0  0  0  0  0  0  0  0  0  0  0  0
  140.0199   69.6620  223.8514 H   0  0  0  0  0  0  0  0  0  0  0  0
  138.8070   71.4360  223.8360 C   0  0  0  0  0  0  0  0  0  0  0  0
  137.9717   70.7390  223.9987 H   0  0  0  0  0  0  0  0  0  0  0  0
  138.7129   72.3035  224.5058 H   0  0  0  0  0  0  0  0  0  0  0  0
  138.7810   71.9040  222.4480 N   0  0  0  0  0  0  0  0  0  0  0  0
  138.0670   71.4800  221.8110 H   0  0  0  0  0  0  0  0  0  0  0  0
  139.6000   72.8000  221.9690 C   0  0  0  0  0  0  0  0  0  0  0  0
  139.2470   74.1120  221.9870 N   0  0  0  0  0  0  0  0  0  0  0  0
  140.0780   75.0590  221.4810 C   0  0  0  0  0  0  0  0  0  0  0  0
  139.6760   76.4400  221.4980 N   0  0  0  0  0  0  0  0  0  0  0  0
  139.7400   77.2410  222.7240 C   0  0  0  0  0  0  0  0  0  0  0  0
  140.0080   76.5894  223.5688 H   0  0  0  0  0  0  0  0  0  0  0  0
  138.7573   77.7033  222.8991 H   0  0  0  0  0  0  0  0  0  0  0  0
  140.7750   78.3300  222.5890 C   0  0  0  0  0  0  0  0  0  0  0  0
  141.2070   79.0120  223.7380 C   0  0  0  0  0  0  0  0  0  0  0  0
  140.8247   78.7150  224.7257 H   0  0  0  0  0  0  0  0  0  0  0  0
  142.1190   80.0650  223.6350 C   0  0  0  0  0  0  0  0  0  0  0  0
  142.4563   80.5900  224.5408 H   0  0  0  0  0  0  0  0  0  0  0  0
  142.6030   80.4520  222.3840 C   0  0  0  0  0  0  0  0  0  0  0  0
  143.3293   81.2744  222.3065 H   0  0  0  0  0  0  0  0  0  0  0  0
  142.1660   79.7960  221.2300 C   0  0  0  0  0  0  0  0  0  0  0  0
  142.5475   80.1087  220.2468 H   0  0  0  0  0  0  0  0  0  0  0  0
  141.2430   78.7400  221.3160 C   0  0  0  0  0  0  0  0  0  0  0  0
  140.8540   78.0000  220.0540 C   0  0  0  0  0  0  0  0  0  0  0  0
  141.6735   77.3221  219.7732 H   0  0  0  0  0  0  0  0  0  0  0  0
  140.6665   78.7459  219.2676 H   0  0  0  0  0  0  0  0  0  0  0  0
  139.5760   77.1790  220.2400 C   0  0  0  0  0  0  0  0  0  0  0  0
  139.4636   76.4735  219.4036 H   0  0  0  0  0  0  0  0  0  0  0  0
  138.7011   77.8453  220.2637 H   0  0  0  0  0  0  0  0  0  0  0  0
  141.2670   74.6860  220.9280 N   0  0  0  0  0  0  0  0  0  0  0  0
  141.8980   75.4020  220.5010 H   0  0  0  0  0  0  0  0  0  0  0  0
  141.6340   73.3760  220.9130 C   0  0  0  0  0  0  0  0  0  0  0  0
  142.8820   72.9880  220.3170 N   0  0  0  0  0  0  0  0  0  0  0  0
  142.8630   72.4390  219.4280 H   0  0  0  0  0  0  0  0  0  0  0  0
  144.1760   73.4920  220.7780 C   0  0  0  0  0  0  0  0  0  0  0  0
  144.1485   73.6204  221.8701 H   0  0  0  0  0  0  0  0  0  0  0  0
  144.9612   72.7713  220.5060 H   0  0  0  0  0  0  0  0  0  0  0  0
  144.4810   74.8410  220.1160 C   0  0  0  0  0  0  0  0  0  0  0  0
  144.5335   75.6184  220.8924 H   0  0  0  0  0  0  0  0  0  0  0  0
  145.4405   74.7600  219.5842 H   0  0  0  0  0  0  0  0  0  0  0  0
  143.4330   75.2040  219.1400 N   0  0  0  0  0  0  0  0  0  0  0  0
  143.6930   74.6370  217.8060 C   0  0  0  0  0  0  0  0  0  0  0  0
  144.7109   74.2216  217.7701 H   0  0  0  0  0  0  0  0  0  0  0  0
  142.9760   73.8312  217.5899 H   0  0  0  0  0  0  0  0  0  0  0  0
  143.5550   75.7540  216.7770 C   0  0  0  0  0  0  0  0  0  0  0  0
  144.5420   76.0430  216.3867 H   0  0  0  0  0  0  0  0  0  0  0  0
  142.9504   75.4438  215.9120 H   0  0  0  0  0  0  0  0  0  0  0  0
  142.9240   76.9030  217.5230 C   0  0  0  0  0  0  0  0  0  0  0  0
  143.3242   77.8650  217.1704 H   0  0  0  0  0  0  0  0  0  0  0  0
  141.8349   76.9552  217.3775 H   0  0  0  0  0  0  0  0  0  0  0  0
  143.3080   76.6570  218.9670 C   0  0  0  0  0  0  0  0  0  0  0  0
  144.2668   77.1474  219.1911 H   0  0  0  0  0  0  0  0  0  0  0  0
  142.5492   77.0683  219.6490 H   0  0  0  0  0  0  0  0  0  0  0  0
  140.7990   72.4410  221.4370 N   0  0  0  0  0  0  0  0  0  0  0  0
  141.0910   71.9220  226.1460 C   0  0  0  0  0  0  0  0  0  0  0  0
  141.3413   72.7715  225.4935 H   0  0  0  0  0  0  0  0  0  0  0  0
  141.3930   71.9800  227.5130 C   0  0  0  0  0  0  0  0  0  0  0  0
  141.8594   72.8821  227.9357 H   0  0  0  0  0  0  0  0  0  0  0  0
  1  2  1  0
  2  3  2  0
  3  4  1  0
  3  5  1  0
  5  6  1  0
  5  7  2  0
  7  8  1  0
  8  9  1  0
  8 10  1  0
  8 11  1  0
 11 12  1  0
 11 13  1  0
 11 14  1  0
 14 15  1  0
 14 16  2  0
 16 17  1  0
 17 18  2  0
 18 19  1  0
 19 20  1  0
 20 21  1  0
 20 22  1  0
 20 23  1  0
 23 24  2  0
 24 25  1  0
 24 26  1  0
 26 27  1  0
 26 28  2  0
 28 29  1  0
 28 30  1  0
 30 31  1  0
 30 32  2  0
 32 33  1  0
 33 34  1  0
 33 35  1  0
 33 36  1  0
 36 37  1  0
 36 38  1  0
 18 39  1  0
 39 40  1  0
 39 41  1  0
 41 42  1  0
 42 43  1  0
 42 44  1  0
 44 45  1  0
 44 46  1  0
 44 47  1  0
 47 48  1  0
 47 49  1  0
 47 50  1  0
 50 51  1  0
 51 52  1  0
 51 53  1  0
 51 54  1  0
 54 55  1  0
 54 56  1  0
 54 57  1  0
 57 58  1  0
 57 59  1  0
 57 60  1  0
 60 61  1  0
 60 62  1  0
 41 63  2  0
  7 64  1  0
 64 65  1  0
 64 66  2  0
 66 67  1  0
 66  2  1  0
 63 16  1  0
 36 19  1  0
 60 50  1  0
 32 23  1  0
M  CHG  1  14   1
M  END
>  <UniqueID>  (38) 
669

>  <SMILES>  (38) 
c1ccc(CC/[NH+]=c2\nc(NCCN3CCCC3)[nH]c(N3CCc4ccccc4C3)n2)cc1

>  <Energy>  (38) 
72.69166460132372

>  <Genealogy>  (38) 
c1ccc(CC[NH2+]c2nc(NCCN3CCCC3)nc(N3CCc4ccccc4C3)n2)cc1 (protonated)
c1ccc(CC[NH+]=c2nc(NCCN3CCCC3)[nH]c(N3CCc4ccccc4C3)n2)cc1 (tautomer)
c1ccc(CC/[NH+]=c2\nc(NCCN3CCCC3)[nH]c(N3CCc4ccccc4C3)n2)cc1 (cis-trans isomerization)
c1ccc(CC/[NH+]=c2\nc(NCCN3CCCC3)[nH]c(N3CCc4ccccc4C3)n2)cc1 (3D coordinates assigned)
c1ccc(CC/[NH+]=c2\nc(NCCN3CCCC3)[nH]c(N3CCc4ccccc4C3)n2)cc1 (nonaromatic ring conformer: 72.69166460132372 kcal/mol)

>  <smiles>  (38) 
c1ccc(CCNc2nc(NCCN3CCCC3)nc(N3CCc4ccccc4C3)n2)cc1

>  <score_type>  (38) 
oracle

>  <origin>  (38) 
autodockgpu

>  <m_score__min__energy>  (38) 
-9.9900000000000002

>  <m_primary>  (38) 
energy

>  <meeko>  (38) 
{"free_energy": -8.3, "intermolecular_energy": -10.98, "internal_energy": -2.18, "cluster_size": 12, "cluster_id": 1, "rank_in_cluster": 8}

>  <energy>  (38) 
-8.79

>  <cluster_rmsd>  (38) 
0.0

>  <rmsd>  (38) 
270.85

>  <cluster>  (38) 
4

$$$$
FPFWJFTVWFQHMH-FSECZMGHNA-O
     RDKit          3D

 67 71  0  0  0  0  0  0  0  0999 V2000
  141.6167   71.6580  229.0510 H   0  0  0  0  0  0  0  0  0  0  0  0
  141.1310   71.4090  228.0960 C   0  0  0  0  0  0  0  0  0  0  0  0
  140.2750   70.3060  228.0140 C   0  0  0  0  0  0  0  0  0  0  0  0
  140.0859   69.6901  228.9056 H   0  0  0  0  0  0  0  0  0  0  0  0
  139.6590   69.9850  226.8000 C   0  0  0  0  0  0  0  0  0  0  0  0
  138.9826   69.1195  226.7416 H   0  0  0  0  0  0  0  0  0  0  0  0
  139.9000   70.7630  225.6540 C   0  0  0  0  0  0  0  0  0  0  0  0
  139.2370   70.4120  224.3450 C   0  0  0  0  0  0  0  0  0  0  0  0
  139.1677   69.3174  224.2613 H   0  0  0  0  0  0  0  0  0  0  0  0
  138.2366   70.8692  224.3305 H   0  0  0  0  0  0  0  0  0  0  0  0
  140.0320   70.9540  223.1510 C   0  0  0  0  0  0  0  0  0  0  0  0
  141.1035   70.9545  223.3997 H   0  0  0  0  0  0  0  0  0  0  0  0
  139.8459   70.3111  222.2780 H   0  0  0  0  0  0  0  0  0  0  0  0
  139.6100   72.3210  222.8320 N   0  0  0  0  0  0  0  0  0  0  0  0
  138.6500   72.6100  223.1330 H   0  0  0  0  0  0  0  0  0  0  0  0
  140.3540   73.1780  222.1880 C   0  0  0  0  0  0  0  0  0  0  0  0
  139.9480   74.4690  222.0760 N   0  0  0  0  0  0  0  0  0  0  0  0
  140.7000   75.3740  221.3980 C   0  0  0  0  0  0  0  0  0  0  0  0
  140.2430   76.7330  221.2790 N   0  0  0  0  0  0  0  0  0  0  0  0
  139.9060   77.5330  222.4610 C   0  0  0  0  0  0  0  0  0  0  0  0
  139.9487   76.8939  223.3553 H   0  0  0  0  0  0  0  0  0  0  0  0
  138.8928   77.9430  222.3371 H   0  0  0  0  0  0  0  0  0  0  0  0
  140.8790   78.6740  222.6190 C   0  0  0  0  0  0  0  0  0  0  0  0
  140.9240   79.3740  223.8350 C   0  0  0  0  0  0  0  0  0  0  0  0
  140.2867   79.0546  224.6727 H   0  0  0  0  0  0  0  0  0  0  0  0
  141.7720   80.4730  223.9890 C   0  0  0  0  0  0  0  0  0  0  0  0
  141.8036   81.0124  224.9471 H   0  0  0  0  0  0  0  0  0  0  0  0
  142.5800   80.8880  222.9280 C   0  0  0  0  0  0  0  0  0  0  0  0
  143.2550   81.7472  223.0550 H   0  0  0  0  0  0  0  0  0  0  0  0
  142.5320   80.2130  221.7050 C   0  0  0  0  0  0  0  0  0  0  0  0
  143.1680   80.5467  220.8719 H   0  0  0  0  0  0  0  0  0  0  0  0
  141.6770   79.1110  221.5320 C   0  0  0  0  0  0  0  0  0  0  0  0
  141.7100   78.3550  220.2210 C   0  0  0  0  0  0  0  0  0  0  0  0
  142.6086   77.7209  220.1994 H   0  0  0  0  0  0  0  0  0  0  0  0
  141.7228   79.0920  219.4045 H   0  0  0  0  0  0  0  0  0  0  0  0
  140.4760   77.4690  220.0380 C   0  0  0  0  0  0  0  0  0  0  0  0
  140.6469   76.7610  219.2136 H   0  0  0  0  0  0  0  0  0  0  0  0
  139.5998   78.0894  219.7985 H   0  0  0  0  0  0  0  0  0  0  0  0
  141.8610   74.9760  220.8050 N   0  0  0  0  0  0  0  0  0  0  0  0
  142.4290   75.6550  220.2480 H   0  0  0  0  0  0  0  0  0  0  0  0
  142.2810   73.6870  220.9190 C   0  0  0  0  0  0  0  0  0  0  0  0
  143.4980   73.2710  220.2800 N   0  0  0  0  0  0  0  0  0  0  0  0
  143.5180   73.1990  219.2380 H   0  0  0  0  0  0  0  0  0  0  0  0
  144.7670   73.1370  220.9960 C   0  0  0  0  0  0  0  0  0  0  0  0
  144.7881   73.8476  221.8354 H   0  0  0  0  0  0  0  0  0  0  0  0
  144.8604   72.1084  221.3745 H   0  0  0  0  0  0  0  0  0  0  0  0
  145.9380   73.4330  220.0510 C   0  0  0  0  0  0  0  0  0  0  0  0
  145.8500   74.4657  219.6824 H   0  0  0  0  0  0  0  0  0  0  0  0
  146.8778   73.2996  220.6069 H   0  0  0  0  0  0  0  0  0  0  0  0
  145.9390   72.5080  218.8990 N   0  0  0  0  0  0  0  0  0  0  0  0
  145.2200   73.0620  217.7380 C   0  0  0  0  0  0  0  0  0  0  0  0
  144.6718   73.9674  218.0374 H   0  0  0  0  0  0  0  0  0  0  0  0
  145.9321   73.3276  216.9428 H   0  0  0  0  0  0  0  0  0  0  0  0
  144.2400   72.0090  217.2350 C   0  0  0  0  0  0  0  0  0  0  0  0
  143.2067   72.2946  217.4815 H   0  0  0  0  0  0  0  0  0  0  0  0
  144.2850   71.8941  216.1419 H   0  0  0  0  0  0  0  0  0  0  0  0
  144.6230   70.7380  217.9520 C   0  0  0  0  0  0  0  0  0  0  0  0
  143.7310   70.1414  218.1938 H   0  0  0  0  0  0  0  0  0  0  0  0
  145.2684   70.0869  217.3442 H   0  0  0  0  0  0  0  0  0  0  0  0
  145.3050   71.2210  219.2130 C   0  0  0  0  0  0  0  0  0  0  0  0
  144.5642   71.3518  220.0155 H   0  0  0  0  0  0  0  0  0  0  0  0
  146.0529   70.4910  219.5562 H   0  0  0  0  0  0  0  0  0  0  0  0
  141.5260   72.7960  221.6130 N   0  0  0  0  0  0  0  0  0  0  0  0
  140.7690   71.8670  225.7430 C   0  0  0  0  0  0  0  0  0  0  0  0
  140.9767   72.4738  224.8493 H   0  0  0  0  0  0  0  0  0  0  0  0
  141.3700   72.1960  226.9640 C   0  0  0  0  0  0  0  0  0  0  0  0
  142.0301   73.0732  227.0334 H   0  0  0  0  0  0  0  0  0  0  0  0
  1  2  1  0
  2  3  2  0
  3  4  1  0
  3  5  1  0
  5  6  1  0
  5  7  2  0
  7  8  1  0
  8  9  1  0
  8 10  1  0
  8 11  1  0
 11 12  1  0
 11 13  1  0
 11 14  1  0
 14 15  1  0
 14 16  2  0
 16 17  1  0
 17 18  2  0
 18 19  1  0
 19 20  1  0
 20 21  1  0
 20 22  1  0
 20 23  1  0
 23 24  2  0
 24 25  1  0
 24 26  1  0
 26 27  1  0
 26 28  2  0
 28 29  1  0
 28 30  1  0
 30 31  1  0
 30 32  2  0
 32 33  1  0
 33 34  1  0
 33 35  1  0
 33 36  1  0
 36 37  1  0
 36 38  1  0
 18 39  1  0
 39 40  1  0
 39 41  1  0
 41 42  1  0
 42 43  1  0
 42 44  1  0
 44 45  1  0
 44 46  1  0
 44 47  1  0
 47 48  1  0
 47 49  1  0
 47 50  1  0
 50 51  1  0
 51 52  1  0
 51 53  1  0
 51 54  1  0
 54 55  1  0
 54 56  1  0
 54 57  1  0
 57 58  1  0
 57 59  1  0
 57 60  1  0
 60 61  1  0
 60 62  1  0
 41 63  2  0
  7 64  1  0
 64 65  1  0
 64 66  2  0
 66 67  1  0
 66  2  1  0
 63 16  1  0
 36 19  1  0
 60 50  1  0
 32 23  1  0
M  CHG  1  14   1
M  END
>  <UniqueID>  (39) 
669

>  <SMILES>  (39) 
c1ccc(CC/[NH+]=c2\nc(NCCN3CCCC3)[nH]c(N3CCc4ccccc4C3)n2)cc1

>  <Energy>  (39) 
72.69166460132372

>  <Genealogy>  (39) 
c1ccc(CC[NH2+]c2nc(NCCN3CCCC3)nc(N3CCc4ccccc4C3)n2)cc1 (protonated)
c1ccc(CC[NH+]=c2nc(NCCN3CCCC3)[nH]c(N3CCc4ccccc4C3)n2)cc1 (tautomer)
c1ccc(CC/[NH+]=c2\nc(NCCN3CCCC3)[nH]c(N3CCc4ccccc4C3)n2)cc1 (cis-trans isomerization)
c1ccc(CC/[NH+]=c2\nc(NCCN3CCCC3)[nH]c(N3CCc4ccccc4C3)n2)cc1 (3D coordinates assigned)
c1ccc(CC/[NH+]=c2\nc(NCCN3CCCC3)[nH]c(N3CCc4ccccc4C3)n2)cc1 (nonaromatic ring conformer: 72.69166460132372 kcal/mol)

>  <smiles>  (39) 
c1ccc(CCNc2nc(NCCN3CCCC3)nc(N3CCc4ccccc4C3)n2)cc1

>  <score_type>  (39) 
oracle

>  <origin>  (39) 
autodockgpu

>  <m_score__min__energy>  (39) 
-9.9900000000000002

>  <m_primary>  (39) 
energy

>  <meeko>  (39) 
{"free_energy": -9.99, "intermolecular_energy": -12.68, "internal_energy": -1.03, "cluster_size": 12, "cluster_id": 1, "rank_in_cluster": 1}

>  <energy>  (39) 
-7.4

>  <cluster_rmsd>  (39) 
1.9

>  <rmsd>  (39) 
270.32

>  <cluster>  (39) 
4

$$$$
FPFWJFTVWFQHMH-FSECZMGHNA-O
     RDKit          3D

 67 71  0  0  0  0  0  0  0  0999 V2000
  140.0595   70.3802  229.4102 H   0  0  0  0  0  0  0  0  0  0  0  0
  140.1920   70.5530  228.3320 C   0  0  0  0  0  0  0  0  0  0  0  0
  140.9050   71.6700  227.8860 C   0  0  0  0  0  0  0  0  0  0  0  0
  141.3345   72.3738  228.6141 H   0  0  0  0  0  0  0  0  0  0  0  0
  141.0730   71.8940  226.5160 C   0  0  0  0  0  0  0  0  0  0  0  0
  141.6390   72.7716  226.1703 H   0  0  0  0  0  0  0  0  0  0  0  0
  140.5220   71.0030  225.5780 C   0  0  0  0  0  0  0  0  0  0  0  0
  140.7000   71.2490  224.1000 C   0  0  0  0  0  0  0  0  0  0  0  0
  141.3448   72.1290  223.9591 H   0  0  0  0  0  0  0  0  0  0  0  0
  141.1569   70.3536  223.6534 H   0  0  0  0  0  0  0  0  0  0  0  0
  139.3560   71.5000  223.4070 C   0  0  0  0  0  0  0  0  0  0  0  0
  138.7924   70.5567  223.3573 H   0  0  0  0  0  0  0  0  0  0  0  0
  138.7922   72.2481  223.9836 H   0  0  0  0  0  0  0  0  0  0  0  0
  139.5670   72.0080  222.0490 N   0  0  0  0  0  0  0  0  0  0  0  0
  138.9970   71.5800  221.2820 H   0  0  0  0  0  0  0  0  0  0  0  0
  140.4260   72.9440  221.7500 C   0  0  0  0  0  0  0  0  0  0  0  0
  141.5760   72.6190  221.1040 N   0  0  0  0  0  0  0  0  0  0  0  0
  142.4900   73.5750  220.7960 C   0  0  0  0  0  0  0  0  0  0  0  0
  143.7080   73.2050  220.1260 N   0  0  0  0  0  0  0  0  0  0  0  0
  144.4190   71.9680  220.4590 C   0  0  0  0  0  0  0  0  0  0  0  0
  143.9417   71.4999  221.3325 H   0  0  0  0  0  0  0  0  0  0  0  0
  145.4680   72.2101  220.6847 H   0  0  0  0  0  0  0  0  0  0  0  0
  144.3790   71.0070  219.2970 C   0  0  0  0  0  0  0  0  0  0  0  0
  144.7310   69.6640  219.5040 C   0  0  0  0  0  0  0  0  0  0  0  0
  144.9859   69.3163  220.5160 H   0  0  0  0  0  0  0  0  0  0  0  0
  144.7600   68.7660  218.4350 C   0  0  0  0  0  0  0  0  0  0  0  0
  145.0314   67.7142  218.6086 H   0  0  0  0  0  0  0  0  0  0  0  0
  144.4450   69.2010  217.1460 C   0  0  0  0  0  0  0  0  0  0  0  0
  144.4589   68.4896  216.3071 H   0  0  0  0  0  0  0  0  0  0  0  0
  144.1120   70.5400  216.9210 C   0  0  0  0  0  0  0  0  0  0  0  0
  143.8685   70.8784  215.9031 H   0  0  0  0  0  0  0  0  0  0  0  0
  144.0860   71.4570  217.9860 C   0  0  0  0  0  0  0  0  0  0  0  0
  143.6440   72.8800  217.7180 C   0  0  0  0  0  0  0  0  0  0  0  0
  142.5491   72.8979  217.6138 H   0  0  0  0  0  0  0  0  0  0  0  0
  144.1376   73.2207  216.7959 H   0  0  0  0  0  0  0  0  0  0  0  0
  144.0480   73.8290  218.8480 C   0  0  0  0  0  0  0  0  0  0  0  0
  143.5058   74.7805  218.7444 H   0  0  0  0  0  0  0  0  0  0  0  0
  145.1289   74.0279  218.8030 H   0  0  0  0  0  0  0  0  0  0  0  0
  142.2620   74.8680  221.1610 N   0  0  0  0  0  0  0  0  0  0  0  0
  142.9750   75.6060  220.9640 H   0  0  0  0  0  0  0  0  0  0  0  0
  141.1090   75.2060  221.8010 C   0  0  0  0  0  0  0  0  0  0  0  0
  140.8800   76.5680  222.1940 N   0  0  0  0  0  0  0  0  0  0  0  0
  141.6970   77.2170  222.2520 H   0  0  0  0  0  0  0  0  0  0  0  0
  139.5420   77.1450  222.3230 C   0  0  0  0  0  0  0  0  0  0  0  0
  139.0154   77.0616  221.3608 H   0  0  0  0  0  0  0  0  0  0  0  0
  138.9879   76.5995  223.1011 H   0  0  0  0  0  0  0  0  0  0  0  0
  139.6420   78.6220  222.7200 C   0  0  0  0  0  0  0  0  0  0  0  0
  138.9312   79.2053  222.1161 H   0  0  0  0  0  0  0  0  0  0  0  0
  139.4054   78.7129  223.7904 H   0  0  0  0  0  0  0  0  0  0  0  0
  141.0070   79.1420  222.4950 N   0  0  0  0  0  0  0  0  0  0  0  0
  141.7830   79.2310  223.7440 C   0  0  0  0  0  0  0  0  0  0  0  0
  141.1191   79.0721  224.6066 H   0  0  0  0  0  0  0  0  0  0  0  0
  142.5690   78.4616  223.7577 H   0  0  0  0  0  0  0  0  0  0  0  0
  142.4060   80.6200  223.8220 C   0  0  0  0  0  0  0  0  0  0  0  0
  141.8991   81.2279  224.5859 H   0  0  0  0  0  0  0  0  0  0  0  0
  143.4686   80.5791  224.1034 H   0  0  0  0  0  0  0  0  0  0  0  0
  142.2080   81.2190  222.4520 C   0  0  0  0  0  0  0  0  0  0  0  0
  142.0087   82.2985  222.5225 H   0  0  0  0  0  0  0  0  0  0  0  0
  143.0967   81.1147  221.8122 H   0  0  0  0  0  0  0  0  0  0  0  0
  141.0050   80.4850  221.9010 C   0  0  0  0  0  0  0  0  0  0  0  0
  140.0815   81.0166  222.1740 H   0  0  0  0  0  0  0  0  0  0  0  0
  141.0516   80.4269  220.8035 H   0  0  0  0  0  0  0  0  0  0  0  0
  140.1960   74.2410  222.0880 N   0  0  0  0  0  0  0  0  0  0  0  0
  139.7980   69.8850  226.0350 C   0  0  0  0  0  0  0  0  0  0  0  0
  139.3492   69.1895  225.3105 H   0  0  0  0  0  0  0  0  0  0  0  0
  139.6470   69.6550  227.4080 C   0  0  0  0  0  0  0  0  0  0  0  0
  139.0998   68.7681  227.7601 H   0  0  0  0  0  0  0  0  0  0  0  0
  1  2  1  0
  2  3  2  0
  3  4  1  0
  3  5  1  0
  5  6  1  0
  5  7  2  0
  7  8  1  0
  8  9  1  0
  8 10  1  0
  8 11  1  0
 11 12  1  0
 11 13  1  0
 11 14  1  0
 14 15  1  0
 14 16  2  0
 16 17  1  0
 17 18  2  0
 18 19  1  0
 19 20  1  0
 20 21  1  0
 20 22  1  0
 20 23  1  0
 23 24  2  0
 24 25  1  0
 24 26  1  0
 26 27  1  0
 26 28  2  0
 28 29  1  0
 28 30  1  0
 30 31  1  0
 30 32  2  0
 32 33  1  0
 33 34  1  0
 33 35  1  0
 33 36  1  0
 36 37  1  0
 36 38  1  0
 18 39  1  0
 39 40  1  0
 39 41  1  0
 41 42  1  0
 42 43  1  0
 42 44  1  0
 44 45  1  0
 44 46  1  0
 44 47  1  0
 47 48  1  0
 47 49  1  0
 47 50  1  0
 50 51  1  0
 51 52  1  0
 51 53  1  0
 51 54  1  0
 54 55  1  0
 54 56  1  0
 54 57  1  0
 57 58  1  0
 57 59  1  0
 57 60  1  0
 60 61  1  0
 60 62  1  0
 41 63  2  0
  7 64  1  0
 64 65  1  0
 64 66  2  0
 66 67  1  0
 66  2  1  0
 63 16  1  0
 36 19  1  0
 60 50  1  0
 32 23  1  0
M  CHG  1  14   1
M  END
>  <UniqueID>  (40) 
669

>  <SMILES>  (40) 
c1ccc(CC/[NH+]=c2\nc(NCCN3CCCC3)[nH]c(N3CCc4ccccc4C3)n2)cc1

>  <Energy>  (40) 
72.69166460132372

>  <Genealogy>  (40) 
c1ccc(CC[NH2+]c2nc(NCCN3CCCC3)nc(N3CCc4ccccc4C3)n2)cc1 (protonated)
c1ccc(CC[NH+]=c2nc(NCCN3CCCC3)[nH]c(N3CCc4ccccc4C3)n2)cc1 (tautomer)
c1ccc(CC/[NH+]=c2\nc(NCCN3CCCC3)[nH]c(N3CCc4ccccc4C3)n2)cc1 (cis-trans isomerization)
c1ccc(CC/[NH+]=c2\nc(NCCN3CCCC3)[nH]c(N3CCc4ccccc4C3)n2)cc1 (3D coordinates assigned)
c1ccc(CC/[NH+]=c2\nc(NCCN3CCCC3)[nH]c(N3CCc4ccccc4C3)n2)cc1 (nonaromatic ring conformer: 72.69166460132372 kcal/mol)

>  <smiles>  (40) 
c1ccc(CCNc2nc(NCCN3CCCC3)nc(N3CCc4ccccc4C3)n2)cc1

>  <score_type>  (40) 
oracle

>  <origin>  (40) 
autodockgpu

>  <m_score__min__energy>  (40) 
-9.9900000000000002

>  <m_primary>  (40) 
energy

>  <meeko>  (40) 
{"free_energy": -8.91, "intermolecular_energy": -11.59, "internal_energy": -1.45, "cluster_size": 4, "cluster_id": 2, "rank_in_cluster": 2}

>  <energy>  (40) 
-8.13

>  <cluster_rmsd>  (40) 
0.0

>  <rmsd>  (40) 
270.21

>  <cluster>  (40) 
5

$$$$
FPFWJFTVWFQHMH-FSECZMGHNA-O
     RDKit          3D

 67 71  0  0  0  0  0  0  0  0999 V2000
  140.2833   67.7311  228.7766 H   0  0  0  0  0  0  0  0  0  0  0  0
  140.3700   68.4930  227.9880 C   0  0  0  0  0  0  0  0  0  0  0  0
  140.6310   69.8240  228.3290 C   0  0  0  0  0  0  0  0  0  0  0  0
  140.7514   70.1069  229.3852 H   0  0  0  0  0  0  0  0  0  0  0  0
  140.7390   70.7950  227.3300 C   0  0  0  0  0  0  0  0  0  0  0  0
  140.9486   71.8398  227.6028 H   0  0  0  0  0  0  0  0  0  0  0  0
  140.5810   70.4430  225.9770 C   0  0  0  0  0  0  0  0  0  0  0  0
  140.6940   71.4940  224.9000 C   0  0  0  0  0  0  0  0  0  0  0  0
  140.2792   72.4400  225.2783 H   0  0  0  0  0  0  0  0  0  0  0  0
  141.7565   71.6096  224.6397 H   0  0  0  0  0  0  0  0  0  0  0  0
  139.9300   71.0850  223.6360 C   0  0  0  0  0  0  0  0  0  0  0  0
  140.6021   70.5200  222.9734 H   0  0  0  0  0  0  0  0  0  0  0  0
  139.0711   70.4615  223.9249 H   0  0  0  0  0  0  0  0  0  0  0  0
  139.4390   72.2710  222.9280 N   0  0  0  0  0  0  0  0  0  0  0  0
  138.4020   72.4100  222.8850 H   0  0  0  0  0  0  0  0  0  0  0  0
  140.2170   73.1410  222.3460 C   0  0  0  0  0  0  0  0  0  0  0  0
  139.8170   74.4350  222.2390 N   0  0  0  0  0  0  0  0  0  0  0  0
  140.6040   75.3550  221.6240 C   0  0  0  0  0  0  0  0  0  0  0  0
  140.1530   76.7160  221.5100 N   0  0  0  0  0  0  0  0  0  0  0  0
  139.9240   77.5480  222.6950 C   0  0  0  0  0  0  0  0  0  0  0  0
  140.0345   76.9304  223.5985 H   0  0  0  0  0  0  0  0  0  0  0  0
  138.9082   77.9673  222.6461 H   0  0  0  0  0  0  0  0  0  0  0  0
  140.9200   78.6810  222.7420 C   0  0  0  0  0  0  0  0  0  0  0  0
  141.0730   79.4090  223.9330 C   0  0  0  0  0  0  0  0  0  0  0  0
  140.5040   79.1181  224.8283 H   0  0  0  0  0  0  0  0  0  0  0  0
  141.9430   80.5000  223.9880 C   0  0  0  0  0  0  0  0  0  0  0  0
  142.0607   81.0618  224.9264 H   0  0  0  0  0  0  0  0  0  0  0  0
  142.6640   80.8790  222.8530 C   0  0  0  0  0  0  0  0  0  0  0  0
  143.3564   81.7323  222.9019 H   0  0  0  0  0  0  0  0  0  0  0  0
  142.5070   80.1760  221.6560 C   0  0  0  0  0  0  0  0  0  0  0  0
  143.0744   80.4816  220.7646 H   0  0  0  0  0  0  0  0  0  0  0  0
  141.6290   79.0810  221.5830 C   0  0  0  0  0  0  0  0  0  0  0  0
  141.5440   78.2930  220.2930 C   0  0  0  0  0  0  0  0  0  0  0  0
  142.4310   77.6475  220.2125 H   0  0  0  0  0  0  0  0  0  0  0  0
  141.4957   79.0102  219.4603 H   0  0  0  0  0  0  0  0  0  0  0  0
  140.2900   77.4180  220.2350 C   0  0  0  0  0  0  0  0  0  0  0  0
  140.3850   76.6876  219.4180 H   0  0  0  0  0  0  0  0  0  0  0  0
  139.4033   78.0429  220.0524 H   0  0  0  0  0  0  0  0  0  0  0  0
  141.7960   74.9690  221.0880 N   0  0  0  0  0  0  0  0  0  0  0  0
  142.3940   75.6590  220.5790 H   0  0  0  0  0  0  0  0  0  0  0  0
  142.2110   73.6780  221.1970 C   0  0  0  0  0  0  0  0  0  0  0  0
  143.4620   73.2750  220.6180 N   0  0  0  0  0  0  0  0  0  0  0  0
  143.5140   72.3520  220.1300 H   0  0  0  0  0  0  0  0  0  0  0  0
  144.6110   74.1730  220.4990 C   0  0  0  0  0  0  0  0  0  0  0  0
  144.4972   74.7919  219.5968 H   0  0  0  0  0  0  0  0  0  0  0  0
  144.6594   74.8160  221.3902 H   0  0  0  0  0  0  0  0  0  0  0  0
  145.9060   73.3600  220.3960 C   0  0  0  0  0  0  0  0  0  0  0  0
  146.7648   74.0467  220.4267 H   0  0  0  0  0  0  0  0  0  0  0  0
  145.9445   72.6553  221.2398 H   0  0  0  0  0  0  0  0  0  0  0  0
  145.9500   72.5880  219.1370 N   0  0  0  0  0  0  0  0  0  0  0  0
  145.1160   73.1930  218.0840 C   0  0  0  0  0  0  0  0  0  0  0  0
  144.4867   73.9847  218.5166 H   0  0  0  0  0  0  0  0  0  0  0  0
  145.7522   73.6360  217.3036 H   0  0  0  0  0  0  0  0  0  0  0  0
  144.2340   72.1010  217.4870 C   0  0  0  0  0  0  0  0  0  0  0  0
  143.1893   72.2317  217.8055 H   0  0  0  0  0  0  0  0  0  0  0  0
  144.2356   72.1264  216.3873 H   0  0  0  0  0  0  0  0  0  0  0  0
  144.7920   70.8060  218.0220 C   0  0  0  0  0  0  0  0  0  0  0  0
  143.9853   70.0846  218.2189 H   0  0  0  0  0  0  0  0  0  0  0  0
  145.4738   70.3141  217.3127 H   0  0  0  0  0  0  0  0  0  0  0  0
  145.4810   71.2070  219.3090 C   0  0  0  0  0  0  0  0  0  0  0  0
  144.7730   71.1510  220.1490 H   0  0  0  0  0  0  0  0  0  0  0  0
  146.3221   70.5329  219.5287 H   0  0  0  0  0  0  0  0  0  0  0  0
  141.4190   72.7720  221.8290 N   0  0  0  0  0  0  0  0  0  0  0  0
  140.3100   69.1030  225.6430 C   0  0  0  0  0  0  0  0  0  0  0  0
  140.1690   68.8190  224.5897 H   0  0  0  0  0  0  0  0  0  0  0  0
  140.2190   68.1290  226.6460 C   0  0  0  0  0  0  0  0  0  0  0  0
  140.0290   67.0791  226.3783 H   0  0  0  0  0  0  0  0  0  0  0  0
  1  2  1  0
  2  3  2  0
  3  4  1  0
  3  5  1  0
  5  6  1  0
  5  7  2  0
  7  8  1  0
  8  9  1  0
  8 10  1  0
  8 11  1  0
 11 12  1  0
 11 13  1  0
 11 14  1  0
 14 15  1  0
 14 16  2  0
 16 17  1  0
 17 18  2  0
 18 19  1  0
 19 20  1  0
 20 21  1  0
 20 22  1  0
 20 23  1  0
 23 24  2  0
 24 25  1  0
 24 26  1  0
 26 27  1  0
 26 28  2  0
 28 29  1  0
 28 30  1  0
 30 31  1  0
 30 32  2  0
 32 33  1  0
 33 34  1  0
 33 35  1  0
 33 36  1  0
 36 37  1  0
 36 38  1  0
 18 39  1  0
 39 40  1  0
 39 41  1  0
 41 42  1  0
 42 43  1  0
 42 44  1  0
 44 45  1  0
 44 46  1  0
 44 47  1  0
 47 48  1  0
 47 49  1  0
 47 50  1  0
 50 51  1  0
 51 52  1  0
 51 53  1  0
 51 54  1  0
 54 55  1  0
 54 56  1  0
 54 57  1  0
 57 58  1  0
 57 59  1  0
 57 60  1  0
 60 61  1  0
 60 62  1  0
 41 63  2  0
  7 64  1  0
 64 65  1  0
 64 66  2  0
 66 67  1  0
 66  2  1  0
 63 16  1  0
 36 19  1  0
 60 50  1  0
 32 23  1  0
M  CHG  1  14   1
M  END
>  <UniqueID>  (41) 
670

>  <SMILES>  (41) 
c1ccc(CC/[NH+]=c2\nc(NCCN3CCCC3)[nH]c(N3CCc4ccccc4C3)n2)cc1

>  <Energy>  (41) 
73.03619198892197

>  <Genealogy>  (41) 
c1ccc(CC[NH2+]c2nc(NCCN3CCCC3)nc(N3CCc4ccccc4C3)n2)cc1 (protonated)
c1ccc(CC[NH+]=c2nc(NCCN3CCCC3)[nH]c(N3CCc4ccccc4C3)n2)cc1 (tautomer)
c1ccc(CC/[NH+]=c2\nc(NCCN3CCCC3)[nH]c(N3CCc4ccccc4C3)n2)cc1 (cis-trans isomerization)
c1ccc(CC/[NH+]=c2\nc(NCCN3CCCC3)[nH]c(N3CCc4ccccc4C3)n2)cc1 (3D coordinates assigned)
c1ccc(CC/[NH+]=c2\nc(NCCN3CCCC3)[nH]c(N3CCc4ccccc4C3)n2)cc1 (nonaromatic ring conformer: 73.03619198892197 kcal/mol)

>  <smiles>  (41) 
c1ccc(CCNc2nc(NCCN3CCCC3)nc(N3CCc4ccccc4C3)n2)cc1

>  <score_type>  (41) 
oracle

>  <origin>  (41) 
autodockgpu

>  <m_score__min__energy>  (41) 
-9.9900000000000002

>  <m_primary>  (41) 
energy

>  <meeko>  (41) 
{"free_energy": -9.98, "intermolecular_energy": -12.67, "internal_energy": -0.96, "cluster_size": 12, "cluster_id": 1, "rank_in_cluster": 2}

>  <energy>  (41) 
-9.99

>  <cluster_rmsd>  (41) 
0.0

>  <rmsd>  (41) 
271.39

>  <cluster>  (41) 
1

$$$$
FPFWJFTVWFQHMH-FSECZMGHNA-O
     RDKit          3D

 67 71  0  0  0  0  0  0  0  0999 V2000
  140.2996   69.9835  229.1703 H   0  0  0  0  0  0  0  0  0  0  0  0
  140.3690   70.2930  228.1170 C   0  0  0  0  0  0  0  0  0  0  0  0
  141.0830   71.4450  227.7730 C   0  0  0  0  0  0  0  0  0  0  0  0
  141.5767   72.0388  228.5563 H   0  0  0  0  0  0  0  0  0  0  0  0
  141.1710   71.8440  226.4360 C   0  0  0  0  0  0  0  0  0  0  0  0
  141.7384   72.7482  226.1704 H   0  0  0  0  0  0  0  0  0  0  0  0
  140.5370   71.0940  225.4290 C   0  0  0  0  0  0  0  0  0  0  0  0
  140.6290   71.5280  223.9870 C   0  0  0  0  0  0  0  0  0  0  0  0
  141.0597   72.5393  223.9446 H   0  0  0  0  0  0  0  0  0  0  0  0
  141.2652   70.8094  223.4495 H   0  0  0  0  0  0  0  0  0  0  0  0
  139.2500   71.5450  223.3180 C   0  0  0  0  0  0  0  0  0  0  0  0
  138.9227   70.5106  223.1368 H   0  0  0  0  0  0  0  0  0  0  0  0
  138.5383   72.0568  223.9824 H   0  0  0  0  0  0  0  0  0  0  0  0
  139.3080   72.2630  222.0420 N   0  0  0  0  0  0  0  0  0  0  0  0
  138.7050   71.9100  221.2640 H   0  0  0  0  0  0  0  0  0  0  0  0
  140.0740   73.2980  221.8260 C   0  0  0  0  0  0  0  0  0  0  0  0
  139.7300   74.5070  222.3400 N   0  0  0  0  0  0  0  0  0  0  0  0
  140.5050   75.6000  222.1160 C   0  0  0  0  0  0  0  0  0  0  0  0
  140.1130   76.8730  222.6580 N   0  0  0  0  0  0  0  0  0  0  0  0
  141.1060   77.8400  223.1360 C   0  0  0  0  0  0  0  0  0  0  0  0
  142.1033   77.3763  223.1143 H   0  0  0  0  0  0  0  0  0  0  0  0
  140.8497   78.1365  224.1638 H   0  0  0  0  0  0  0  0  0  0  0  0
  141.1090   79.0680  222.2580 C   0  0  0  0  0  0  0  0  0  0  0  0
  142.1770   79.9750  222.3520 C   0  0  0  0  0  0  0  0  0  0  0  0
  143.0193   79.7591  223.0258 H   0  0  0  0  0  0  0  0  0  0  0  0
  142.1770   81.1490  221.5960 C   0  0  0  0  0  0  0  0  0  0  0  0
  143.0204   81.8511  221.6718 H   0  0  0  0  0  0  0  0  0  0  0  0
  141.1080   81.4330  220.7440 C   0  0  0  0  0  0  0  0  0  0  0  0
  141.1149   82.3536  220.1420 H   0  0  0  0  0  0  0  0  0  0  0  0
  140.0290   80.5490  220.6550 C   0  0  0  0  0  0  0  0  0  0  0  0
  139.1883   80.7796  219.9841 H   0  0  0  0  0  0  0  0  0  0  0  0
  140.0100   79.3680  221.4160 C   0  0  0  0  0  0  0  0  0  0  0  0
  138.8640   78.3960  221.2340 C   0  0  0  0  0  0  0  0  0  0  0  0
  139.0121   77.8445  220.2938 H   0  0  0  0  0  0  0  0  0  0  0  0
  137.9284   78.9742  221.2133 H   0  0  0  0  0  0  0  0  0  0  0  0
  138.7740   77.3930  222.3860 C   0  0  0  0  0  0  0  0  0  0  0  0
  138.1052   76.5659  222.1057 H   0  0  0  0  0  0  0  0  0  0  0  0
  138.3734   77.8869  223.2836 H   0  0  0  0  0  0  0  0  0  0  0  0
  141.6250   75.4850  221.3480 N   0  0  0  0  0  0  0  0  0  0  0  0
  142.2090   76.3260  221.1370 H   0  0  0  0  0  0  0  0  0  0  0  0
  141.9830   74.2770  220.8360 C   0  0  0  0  0  0  0  0  0  0  0  0
  143.1580   74.1650  220.0160 N   0  0  0  0  0  0  0  0  0  0  0  0
  143.3290   73.2690  219.5060 H   0  0  0  0  0  0  0  0  0  0  0  0
  144.0180   75.3040  219.6990 C   0  0  0  0  0  0  0  0  0  0  0  0
  144.1031   75.9529  220.5831 H   0  0  0  0  0  0  0  0  0  0  0  0
  145.0127   74.9346  219.4089 H   0  0  0  0  0  0  0  0  0  0  0  0
  143.4220   76.1060  218.5370 C   0  0  0  0  0  0  0  0  0  0  0  0
  144.2272   76.6602  218.0325 H   0  0  0  0  0  0  0  0  0  0  0  0
  142.9396   75.4053  217.8396 H   0  0  0  0  0  0  0  0  0  0  0  0
  142.4050   77.0640  219.0190 N   0  0  0  0  0  0  0  0  0  0  0  0
  141.0360   76.6450  218.6730 C   0  0  0  0  0  0  0  0  0  0  0  0
  141.0720   75.8053  217.9633 H   0  0  0  0  0  0  0  0  0  0  0  0
  140.4990   76.3199  219.5763 H   0  0  0  0  0  0  0  0  0  0  0  0
  140.3210   77.8300  218.0340 C   0  0  0  0  0  0  0  0  0  0  0  0
  140.1953   77.6676  216.9533 H   0  0  0  0  0  0  0  0  0  0  0  0
  139.3141   77.9767  218.4519 H   0  0  0  0  0  0  0  0  0  0  0  0
  141.2160   79.0170  218.2900 C   0  0  0  0  0  0  0  0  0  0  0  0
  141.1977   79.7116  217.4372 H   0  0  0  0  0  0  0  0  0  0  0  0
  140.9017   79.6031  219.1662 H   0  0  0  0  0  0  0  0  0  0  0  0
  142.5910   78.4090  218.4590 C   0  0  0  0  0  0  0  0  0  0  0  0
  143.0971   78.3449  217.4845 H   0  0  0  0  0  0  0  0  0  0  0  0
  143.2121   79.0267  219.1244 H   0  0  0  0  0  0  0  0  0  0  0  0
  141.2070   73.1890  221.0810 N   0  0  0  0  0  0  0  0  0  0  0  0
  139.8130   69.9400  225.7840 C   0  0  0  0  0  0  0  0  0  0  0  0
  139.3001   69.3546  225.0067 H   0  0  0  0  0  0  0  0  0  0  0  0
  139.7430   69.5340  227.1230 C   0  0  0  0  0  0  0  0  0  0  0  0
  139.1959   68.6186  227.3925 H   0  0  0  0  0  0  0  0  0  0  0  0
  1  2  1  0
  2  3  2  0
  3  4  1  0
  3  5  1  0
  5  6  1  0
  5  7  2  0
  7  8  1  0
  8  9  1  0
  8 10  1  0
  8 11  1  0
 11 12  1  0
 11 13  1  0
 11 14  1  0
 14 15  1  0
 14 16  2  0
 16 17  1  0
 17 18  2  0
 18 19  1  0
 19 20  1  0
 20 21  1  0
 20 22  1  0
 20 23  1  0
 23 24  2  0
 24 25  1  0
 24 26  1  0
 26 27  1  0
 26 28  2  0
 28 29  1  0
 28 30  1  0
 30 31  1  0
 30 32  2  0
 32 33  1  0
 33 34  1  0
 33 35  1  0
 33 36  1  0
 36 37  1  0
 36 38  1  0
 18 39  1  0
 39 40  1  0
 39 41  1  0
 41 42  1  0
 42 43  1  0
 42 44  1  0
 44 45  1  0
 44 46  1  0
 44 47  1  0
 47 48  1  0
 47 49  1  0
 47 50  1  0
 50 51  1  0
 51 52  1  0
 51 53  1  0
 51 54  1  0
 54 55  1  0
 54 56  1  0
 54 57  1  0
 57 58  1  0
 57 59  1  0
 57 60  1  0
 60 61  1  0
 60 62  1  0
 41 63  2  0
  7 64  1  0
 64 65  1  0
 64 66  2  0
 66 67  1  0
 66  2  1  0
 63 16  1  0
 36 19  1  0
 60 50  1  0
 32 23  1  0
M  CHG  1  14   1
M  END
>  <UniqueID>  (42) 
670

>  <SMILES>  (42) 
c1ccc(CC/[NH+]=c2\nc(NCCN3CCCC3)[nH]c(N3CCc4ccccc4C3)n2)cc1

>  <Energy>  (42) 
73.03619198892197

>  <Genealogy>  (42) 
c1ccc(CC[NH2+]c2nc(NCCN3CCCC3)nc(N3CCc4ccccc4C3)n2)cc1 (protonated)
c1ccc(CC[NH+]=c2nc(NCCN3CCCC3)[nH]c(N3CCc4ccccc4C3)n2)cc1 (tautomer)
c1ccc(CC/[NH+]=c2\nc(NCCN3CCCC3)[nH]c(N3CCc4ccccc4C3)n2)cc1 (cis-trans isomerization)
c1ccc(CC/[NH+]=c2\nc(NCCN3CCCC3)[nH]c(N3CCc4ccccc4C3)n2)cc1 (3D coordinates assigned)
c1ccc(CC/[NH+]=c2\nc(NCCN3CCCC3)[nH]c(N3CCc4ccccc4C3)n2)cc1 (nonaromatic ring conformer: 73.03619198892197 kcal/mol)

>  <smiles>  (42) 
c1ccc(CCNc2nc(NCCN3CCCC3)nc(N3CCc4ccccc4C3)n2)cc1

>  <score_type>  (42) 
oracle

>  <origin>  (42) 
autodockgpu

>  <m_score__min__energy>  (42) 
-9.9900000000000002

>  <m_primary>  (42) 
energy

>  <meeko>  (42) 
{"free_energy": -8.07, "intermolecular_energy": -10.76, "internal_energy": -2.53, "cluster_size": 12, "cluster_id": 1, "rank_in_cluster": 12}

>  <energy>  (42) 
-9.98

>  <cluster_rmsd>  (42) 
0.75

>  <rmsd>  (42) 
271.46

>  <cluster>  (42) 
1

$$$$
FPFWJFTVWFQHMH-FSECZMGHNA-O
     RDKit          3D

 67 71  0  0  0  0  0  0  0  0999 V2000
  140.7999   73.3345  227.8108 H   0  0  0  0  0  0  0  0  0  0  0  0
  140.7740   72.2700  227.5350 C   0  0  0  0  0  0  0  0  0  0  0  0
  140.0720   71.3590  228.3310 C   0  0  0  0  0  0  0  0  0  0  0  0
  139.5449   71.7087  229.2309 H   0  0  0  0  0  0  0  0  0  0  0  0
  140.0390   70.0050  227.9850 C   0  0  0  0  0  0  0  0  0  0  0  0
  139.4813   69.2935  228.6117 H   0  0  0  0  0  0  0  0  0  0  0  0
  140.7150   69.5480  226.8400 C   0  0  0  0  0  0  0  0  0  0  0  0
  140.6820   68.0860  226.4700 C   0  0  0  0  0  0  0  0  0  0  0  0
  141.5873   67.8420  225.8948 H   0  0  0  0  0  0  0  0  0  0  0  0
  140.6371   67.4955  227.3970 H   0  0  0  0  0  0  0  0  0  0  0  0
  139.4480   67.7500  225.6240 C   0  0  0  0  0  0  0  0  0  0  0  0
  139.5720   66.7495  225.1840 H   0  0  0  0  0  0  0  0  0  0  0  0
  138.5571   67.7722  226.2688 H   0  0  0  0  0  0  0  0  0  0  0  0
  139.2810   68.7320  224.5500 N   0  0  0  0  0  0  0  0  0  0  0  0
  140.0420   68.7970  223.8350 H   0  0  0  0  0  0  0  0  0  0  0  0
  138.2510   69.5280  224.4490 C   0  0  0  0  0  0  0  0  0  0  0  0
  137.0960   69.2160  225.0910 N   0  0  0  0  0  0  0  0  0  0  0  0
  136.0080   70.0230  224.9880 C   0  0  0  0  0  0  0  0  0  0  0  0
  134.7900   69.6640  225.6650 N   0  0  0  0  0  0  0  0  0  0  0  0
  134.3490   70.3700  226.8720 C   0  0  0  0  0  0  0  0  0  0  0  0
  135.1348   71.0714  227.1892 H   0  0  0  0  0  0  0  0  0  0  0  0
  134.1569   69.6335  227.6661 H   0  0  0  0  0  0  0  0  0  0  0  0
  133.0790   71.1370  226.5980 C   0  0  0  0  0  0  0  0  0  0  0  0
  132.6560   72.1120  227.5150 C   0  0  0  0  0  0  0  0  0  0  0  0
  133.2757   72.3396  228.3949 H   0  0  0  0  0  0  0  0  0  0  0  0
  131.4540   72.7950  227.3180 C   0  0  0  0  0  0  0  0  0  0  0  0
  131.1337   73.5615  228.0390 H   0  0  0  0  0  0  0  0  0  0  0  0
  130.6580   72.5070  226.2080 C   0  0  0  0  0  0  0  0  0  0  0  0
  129.7163   73.0532  226.0502 H   0  0  0  0  0  0  0  0  0  0  0  0
  131.0570   71.5250  225.2970 C   0  0  0  0  0  0  0  0  0  0  0  0
  130.4248   71.2998  224.4255 H   0  0  0  0  0  0  0  0  0  0  0  0
  132.2600   70.8230  225.4860 C   0  0  0  0  0  0  0  0  0  0  0  0
  132.6990   69.8240  224.4370 C   0  0  0  0  0  0  0  0  0  0  0  0
  133.0998   70.3714  223.5711 H   0  0  0  0  0  0  0  0  0  0  0  0
  131.8236   69.2201  224.1559 H   0  0  0  0  0  0  0  0  0  0  0  0
  133.7780   68.8750  224.9640 C   0  0  0  0  0  0  0  0  0  0  0  0
  134.2427   68.3386  224.1235 H   0  0  0  0  0  0  0  0  0  0  0  0
  133.3308   68.1412  225.6508 H   0  0  0  0  0  0  0  0  0  0  0  0
  136.0700   71.1410  224.2130 N   0  0  0  0  0  0  0  0  0  0  0  0
  135.2280   71.7500  224.0950 H   0  0  0  0  0  0  0  0  0  0  0  0
  137.2250   71.4680  223.5720 C   0  0  0  0  0  0  0  0  0  0  0  0
  137.2800   72.6410  222.7460 N   0  0  0  0  0  0  0  0  0  0  0  0
  138.1350   73.2420  222.7860 H   0  0  0  0  0  0  0  0  0  0  0  0
  136.2930   72.9300  221.7060 C   0  0  0  0  0  0  0  0  0  0  0  0
  136.7853   73.4513  220.8718 H   0  0  0  0  0  0  0  0  0  0  0  0
  135.8565   71.9848  221.3508 H   0  0  0  0  0  0  0  0  0  0  0  0
  135.1780   73.8170  222.2710 C   0  0  0  0  0  0  0  0  0  0  0  0
  135.3101   74.8427  221.8962 H   0  0  0  0  0  0  0  0  0  0  0  0
  134.2090   73.4091  221.9473 H   0  0  0  0  0  0  0  0  0  0  0  0
  135.2100   73.8350  223.7480 N   0  0  0  0  0  0  0  0  0  0  0  0
  133.8770   73.6190  224.3370 C   0  0  0  0  0  0  0  0  0  0  0  0
  133.1090   73.6799  223.5518 H   0  0  0  0  0  0  0  0  0  0  0  0
  133.8255   72.6244  224.8041 H   0  0  0  0  0  0  0  0  0  0  0  0
  133.6340   74.7030  225.3810 C   0  0  0  0  0  0  0  0  0  0  0  0
  132.8943   75.4309  225.0163 H   0  0  0  0  0  0  0  0  0  0  0  0
  133.2355   74.2887  226.3188 H   0  0  0  0  0  0  0  0  0  0  0  0
  134.9740   75.3660  225.5820 C   0  0  0  0  0  0  0  0  0  0  0  0
  134.8540   76.4454  225.7564 H   0  0  0  0  0  0  0  0  0  0  0  0
  135.5130   74.9748  226.4575 H   0  0  0  0  0  0  0  0  0  0  0  0
  135.7080   75.1090  224.2830 C   0  0  0  0  0  0  0  0  0  0  0  0
  135.5072   75.9217  223.5694 H   0  0  0  0  0  0  0  0  0  0  0  0
  136.7943   75.0645  224.4503 H   0  0  0  0  0  0  0  0  0  0  0  0
  138.3110   70.6600  223.6970 N   0  0  0  0  0  0  0  0  0  0  0  0
  141.4270   70.4700  226.0480 C   0  0  0  0  0  0  0  0  0  0  0  0
  141.9725   70.1218  225.1585 H   0  0  0  0  0  0  0  0  0  0  0  0
  141.4430   71.8290  226.3890 C   0  0  0  0  0  0  0  0  0  0  0  0
  141.9817   72.5488  225.7553 H   0  0  0  0  0  0  0  0  0  0  0  0
  1  2  1  0
  2  3  2  0
  3  4  1  0
  3  5  1  0
  5  6  1  0
  5  7  2  0
  7  8  1  0
  8  9  1  0
  8 10  1  0
  8 11  1  0
 11 12  1  0
 11 13  1  0
 11 14  1  0
 14 15  1  0
 14 16  2  0
 16 17  1  0
 17 18  2  0
 18 19  1  0
 19 20  1  0
 20 21  1  0
 20 22  1  0
 20 23  1  0
 23 24  2  0
 24 25  1  0
 24 26  1  0
 26 27  1  0
 26 28  2  0
 28 29  1  0
 28 30  1  0
 30 31  1  0
 30 32  2  0
 32 33  1  0
 33 34  1  0
 33 35  1  0
 33 36  1  0
 36 37  1  0
 36 38  1  0
 18 39  1  0
 39 40  1  0
 39 41  1  0
 41 42  1  0
 42 43  1  0
 42 44  1  0
 44 45  1  0
 44 46  1  0
 44 47  1  0
 47 48  1  0
 47 49  1  0
 47 50  1  0
 50 51  1  0
 51 52  1  0
 51 53  1  0
 51 54  1  0
 54 55  1  0
 54 56  1  0
 54 57  1  0
 57 58  1  0
 57 59  1  0
 57 60  1  0
 60 61  1  0
 60 62  1  0
 41 63  2  0
  7 64  1  0
 64 65  1  0
 64 66  2  0
 66 67  1  0
 66  2  1  0
 63 16  1  0
 36 19  1  0
 60 50  1  0
 32 23  1  0
M  CHG  1  14   1
M  END
>  <UniqueID>  (43) 
670

>  <SMILES>  (43) 
c1ccc(CC/[NH+]=c2\nc(NCCN3CCCC3)[nH]c(N3CCc4ccccc4C3)n2)cc1

>  <Energy>  (43) 
73.03619198892197

>  <Genealogy>  (43) 
c1ccc(CC[NH2+]c2nc(NCCN3CCCC3)nc(N3CCc4ccccc4C3)n2)cc1 (protonated)
c1ccc(CC[NH+]=c2nc(NCCN3CCCC3)[nH]c(N3CCc4ccccc4C3)n2)cc1 (tautomer)
c1ccc(CC/[NH+]=c2\nc(NCCN3CCCC3)[nH]c(N3CCc4ccccc4C3)n2)cc1 (cis-trans isomerization)
c1ccc(CC/[NH+]=c2\nc(NCCN3CCCC3)[nH]c(N3CCc4ccccc4C3)n2)cc1 (3D coordinates assigned)
c1ccc(CC/[NH+]=c2\nc(NCCN3CCCC3)[nH]c(N3CCc4ccccc4C3)n2)cc1 (nonaromatic ring conformer: 73.03619198892197 kcal/mol)

>  <smiles>  (43) 
c1ccc(CCNc2nc(NCCN3CCCC3)nc(N3CCc4ccccc4C3)n2)cc1

>  <score_type>  (43) 
oracle

>  <origin>  (43) 
autodockgpu

>  <m_score__min__energy>  (43) 
-9.9900000000000002

>  <m_primary>  (43) 
energy

>  <meeko>  (43) 
{"free_energy": -7.4, "intermolecular_energy": -10.08, "internal_energy": -2.9, "cluster_size": 2, "cluster_id": 4, "rank_in_cluster": 2}

>  <energy>  (43) 
-9.05

>  <cluster_rmsd>  (43) 
1.42

>  <rmsd>  (43) 
271.2

>  <cluster>  (43) 
1

$$$$
FPFWJFTVWFQHMH-FSECZMGHNA-O
     RDKit          3D

 67 71  0  0  0  0  0  0  0  0999 V2000
  140.4200   69.9294  229.3337 H   0  0  0  0  0  0  0  0  0  0  0  0
  140.4610   70.2460  228.2810 C   0  0  0  0  0  0  0  0  0  0  0  0
  141.0280   71.4790  227.9440 C   0  0  0  0  0  0  0  0  0  0  0  0
  141.4356   72.1293  228.7320 H   0  0  0  0  0  0  0  0  0  0  0  0
  141.0780   71.8870  226.6080 C   0  0  0  0  0  0  0  0  0  0  0  0
  141.5285   72.8562  226.3480 H   0  0  0  0  0  0  0  0  0  0  0  0
  140.5550   71.0640  225.5950 C   0  0  0  0  0  0  0  0  0  0  0  0
  140.6060   71.5070  224.1530 C   0  0  0  0  0  0  0  0  0  0  0  0
  140.8692   72.5744  224.1160 H   0  0  0  0  0  0  0  0  0  0  0  0
  141.3605   70.8997  223.6316 H   0  0  0  0  0  0  0  0  0  0  0  0
  139.2570   71.3020  223.4550 C   0  0  0  0  0  0  0  0  0  0  0  0
  139.0779   70.2248  223.3227 H   0  0  0  0  0  0  0  0  0  0  0  0
  138.4643   71.7448  224.0759 H   0  0  0  0  0  0  0  0  0  0  0  0
  139.2530   71.9560  222.1440 N   0  0  0  0  0  0  0  0  0  0  0  0
  138.6170   71.5630  221.4120 H   0  0  0  0  0  0  0  0  0  0  0  0
  140.0030   72.9810  221.8430 C   0  0  0  0  0  0  0  0  0  0  0  0
  139.6840   74.2110  222.3230 N   0  0  0  0  0  0  0  0  0  0  0  0
  140.4420   75.2940  222.0110 C   0  0  0  0  0  0  0  0  0  0  0  0
  140.0750   76.5890  222.5190 N   0  0  0  0  0  0  0  0  0  0  0  0
  141.0710   77.4920  223.1030 C   0  0  0  0  0  0  0  0  0  0  0  0
  142.0345   76.9670  223.1811 H   0  0  0  0  0  0  0  0  0  0  0  0
  140.7284   77.8038  224.1007 H   0  0  0  0  0  0  0  0  0  0  0  0
  141.2410   78.7170  222.2390 C   0  0  0  0  0  0  0  0  0  0  0  0
  142.3480   79.5560  222.4490 C   0  0  0  0  0  0  0  0  0  0  0  0
  143.1016   79.2877  223.2041 H   0  0  0  0  0  0  0  0  0  0  0  0
  142.4980   80.7290  221.7050 C   0  0  0  0  0  0  0  0  0  0  0  0
  143.3709   81.3772  221.8720 H   0  0  0  0  0  0  0  0  0  0  0  0
  141.5420   81.0800  220.7500 C   0  0  0  0  0  0  0  0  0  0  0  0
  141.6679   81.9991  220.1588 H   0  0  0  0  0  0  0  0  0  0  0  0
  140.4250   80.2650  220.5440 C   0  0  0  0  0  0  0  0  0  0  0  0
  139.6731   80.5485  219.7928 H   0  0  0  0  0  0  0  0  0  0  0  0
  140.2560   79.0860  221.2900 C   0  0  0  0  0  0  0  0  0  0  0  0
  139.0760   78.1880  220.9850 C   0  0  0  0  0  0  0  0  0  0  0  0
  139.2849   77.6292  220.0608 H   0  0  0  0  0  0  0  0  0  0  0  0
  138.1857   78.8243  220.8737 H   0  0  0  0  0  0  0  0  0  0  0  0
  138.8050   77.1910  222.1140 C   0  0  0  0  0  0  0  0  0  0  0  0
  138.1195   76.4071  221.7597 H   0  0  0  0  0  0  0  0  0  0  0  0
  138.3440   77.7072  222.9690 H   0  0  0  0  0  0  0  0  0  0  0  0
  141.5180   75.1480  221.1880 N   0  0  0  0  0  0  0  0  0  0  0  0
  142.0870   75.9800  220.9100 H   0  0  0  0  0  0  0  0  0  0  0  0
  141.8520   73.9190  220.7090 C   0  0  0  0  0  0  0  0  0  0  0  0
  142.9800   73.7730  219.8320 N   0  0  0  0  0  0  0  0  0  0  0  0
  142.8490   73.2660  218.9270 H   0  0  0  0  0  0  0  0  0  0  0  0
  144.2490   74.4690  220.0440 C   0  0  0  0  0  0  0  0  0  0  0  0
  144.6036   74.2758  221.0672 H   0  0  0  0  0  0  0  0  0  0  0  0
  144.9877   74.1012  219.3167 H   0  0  0  0  0  0  0  0  0  0  0  0
  144.0600   75.9780  219.8490 C   0  0  0  0  0  0  0  0  0  0  0  0
  143.8557   76.4435  220.8245 H   0  0  0  0  0  0  0  0  0  0  0  0
  144.9793   76.3913  219.4084 H   0  0  0  0  0  0  0  0  0  0  0  0
  142.9340   76.2590  218.9350 N   0  0  0  0  0  0  0  0  0  0  0  0
  143.3410   76.2180  217.5200 C   0  0  0  0  0  0  0  0  0  0  0  0
  144.4379   76.1749  217.4496 H   0  0  0  0  0  0  0  0  0  0  0  0
  142.9208   75.3270  217.0305 H   0  0  0  0  0  0  0  0  0  0  0  0
  142.8300   77.4820  216.8380 C   0  0  0  0  0  0  0  0  0  0  0  0
  143.6626   78.1680  216.6231 H   0  0  0  0  0  0  0  0  0  0  0  0
  142.3439   77.2626  215.8760 H   0  0  0  0  0  0  0  0  0  0  0  0
  141.8730   78.1040  217.8250 C   0  0  0  0  0  0  0  0  0  0  0  0
  141.9331   79.2018  217.7892 H   0  0  0  0  0  0  0  0  0  0  0  0
  140.8236   77.8500  217.6148 H   0  0  0  0  0  0  0  0  0  0  0  0
  142.3410   77.5830  219.1670 C   0  0  0  0  0  0  0  0  0  0  0  0
  143.0925   78.2631  219.5943 H   0  0  0  0  0  0  0  0  0  0  0  0
  141.5017   77.5168  219.8750 H   0  0  0  0  0  0  0  0  0  0  0  0
  141.0930   72.8420  221.0430 N   0  0  0  0  0  0  0  0  0  0  0  0
  139.9790   69.8270  225.9420 C   0  0  0  0  0  0  0  0  0  0  0  0
  139.5534   69.1818  225.1593 H   0  0  0  0  0  0  0  0  0  0  0  0
  139.9460   69.4150  227.2810 C   0  0  0  0  0  0  0  0  0  0  0  0
  139.5151   68.4381  227.5455 H   0  0  0  0  0  0  0  0  0  0  0  0
  1  2  1  0
  2  3  2  0
  3  4  1  0
  3  5  1  0
  5  6  1  0
  5  7  2  0
  7  8  1  0
  8  9  1  0
  8 10  1  0
  8 11  1  0
 11 12  1  0
 11 13  1  0
 11 14  1  0
 14 15  1  0
 14 16  2  0
 16 17  1  0
 17 18  2  0
 18 19  1  0
 19 20  1  0
 20 21  1  0
 20 22  1  0
 20 23  1  0
 23 24  2  0
 24 25  1  0
 24 26  1  0
 26 27  1  0
 26 28  2  0
 28 29  1  0
 28 30  1  0
 30 31  1  0
 30 32  2  0
 32 33  1  0
 33 34  1  0
 33 35  1  0
 33 36  1  0
 36 37  1  0
 36 38  1  0
 18 39  1  0
 39 40  1  0
 39 41  1  0
 41 42  1  0
 42 43  1  0
 42 44  1  0
 44 45  1  0
 44 46  1  0
 44 47  1  0
 47 48  1  0
 47 49  1  0
 47 50  1  0
 50 51  1  0
 51 52  1  0
 51 53  1  0
 51 54  1  0
 54 55  1  0
 54 56  1  0
 54 57  1  0
 57 58  1  0
 57 59  1  0
 57 60  1  0
 60 61  1  0
 60 62  1  0
 41 63  2  0
  7 64  1  0
 64 65  1  0
 64 66  2  0
 66 67  1  0
 66  2  1  0
 63 16  1  0
 36 19  1  0
 60 50  1  0
 32 23  1  0
M  CHG  1  14   1
M  END
>  <UniqueID>  (44) 
670

>  <SMILES>  (44) 
c1ccc(CC/[NH+]=c2\nc(NCCN3CCCC3)[nH]c(N3CCc4ccccc4C3)n2)cc1

>  <Energy>  (44) 
73.03619198892197

>  <Genealogy>  (44) 
c1ccc(CC[NH2+]c2nc(NCCN3CCCC3)nc(N3CCc4ccccc4C3)n2)cc1 (protonated)
c1ccc(CC[NH+]=c2nc(NCCN3CCCC3)[nH]c(N3CCc4ccccc4C3)n2)cc1 (tautomer)
c1ccc(CC/[NH+]=c2\nc(NCCN3CCCC3)[nH]c(N3CCc4ccccc4C3)n2)cc1 (cis-trans isomerization)
c1ccc(CC/[NH+]=c2\nc(NCCN3CCCC3)[nH]c(N3CCc4ccccc4C3)n2)cc1 (3D coordinates assigned)
c1ccc(CC/[NH+]=c2\nc(NCCN3CCCC3)[nH]c(N3CCc4ccccc4C3)n2)cc1 (nonaromatic ring conformer: 73.03619198892197 kcal/mol)

>  <smiles>  (44) 
c1ccc(CCNc2nc(NCCN3CCCC3)nc(N3CCc4ccccc4C3)n2)cc1

>  <score_type>  (44) 
oracle

>  <origin>  (44) 
autodockgpu

>  <m_score__min__energy>  (44) 
-9.9900000000000002

>  <m_primary>  (44) 
energy

>  <meeko>  (44) 
{"free_energy": -8.22, "intermolecular_energy": -10.9, "internal_energy": -2.41, "cluster_size": 12, "cluster_id": 1, "rank_in_cluster": 9}

>  <energy>  (44) 
-9.03

>  <cluster_rmsd>  (44) 
1.29

>  <rmsd>  (44) 
271.31

>  <cluster>  (44) 
1

$$$$
FPFWJFTVWFQHMH-FSECZMGHNA-O
     RDKit          3D

 67 71  0  0  0  0  0  0  0  0999 V2000
  140.5601   68.9012  229.1177 H   0  0  0  0  0  0  0  0  0  0  0  0
  140.5870   69.4740  228.1790 C   0  0  0  0  0  0  0  0  0  0  0  0
  140.8070   70.8540  228.2100 C   0  0  0  0  0  0  0  0  0  0  0  0
  140.9544   71.3652  229.1728 H   0  0  0  0  0  0  0  0  0  0  0  0
  140.8400   71.5860  227.0180 C   0  0  0  0  0  0  0  0  0  0  0  0
  141.0193   72.6709  227.0465 H   0  0  0  0  0  0  0  0  0  0  0  0
  140.6450   70.9410  225.7840 C   0  0  0  0  0  0  0  0  0  0  0  0
  140.6760   71.7330  224.5000 C   0  0  0  0  0  0  0  0  0  0  0  0
  140.1686   72.6956  224.6611 H   0  0  0  0  0  0  0  0  0  0  0  0
  141.7269   71.8882  224.2146 H   0  0  0  0  0  0  0  0  0  0  0  0
  139.9730   70.9830  223.3620 C   0  0  0  0  0  0  0  0  0  0  0  0
  140.3168   69.9382  223.3502 H   0  0  0  0  0  0  0  0  0  0  0  0
  138.8862   71.0223  223.5276 H   0  0  0  0  0  0  0  0  0  0  0  0
  140.2790   71.6060  222.0720 N   0  0  0  0  0  0  0  0  0  0  0  0
  140.4140   70.9710  221.2510 H   0  0  0  0  0  0  0  0  0  0  0  0
  140.4030   72.8940  221.9000 C   0  0  0  0  0  0  0  0  0  0  0  0
  141.5190   73.3870  221.3020 N   0  0  0  0  0  0  0  0  0  0  0  0
  141.6750   74.7250  221.1270 C   0  0  0  0  0  0  0  0  0  0  0  0
  142.8720   75.2250  220.5040 N   0  0  0  0  0  0  0  0  0  0  0  0
  144.0660   74.3880  220.3580 C   0  0  0  0  0  0  0  0  0  0  0  0
  143.9098   73.4378  220.8897 H   0  0  0  0  0  0  0  0  0  0  0  0
  144.9296   74.9209  220.7825 H   0  0  0  0  0  0  0  0  0  0  0  0
  144.3340   74.1040  218.9000 C   0  0  0  0  0  0  0  0  0  0  0  0
  145.2380   73.0870  218.5550 C   0  0  0  0  0  0  0  0  0  0  0  0
  145.7032   72.4787  219.3447 H   0  0  0  0  0  0  0  0  0  0  0  0
  145.5510   72.8420  217.2160 C   0  0  0  0  0  0  0  0  0  0  0  0
  146.2552   72.0384  216.9545 H   0  0  0  0  0  0  0  0  0  0  0  0
  144.9710   73.6160  216.2090 C   0  0  0  0  0  0  0  0  0  0  0  0
  145.2114   73.4151  215.1546 H   0  0  0  0  0  0  0  0  0  0  0  0
  144.0850   74.6460  216.5390 C   0  0  0  0  0  0  0  0  0  0  0  0
  143.6344   75.2550  215.7415 H   0  0  0  0  0  0  0  0  0  0  0  0
  143.7660   74.9090  217.8820 C   0  0  0  0  0  0  0  0  0  0  0  0
  142.7430   75.9780  218.1970 C   0  0  0  0  0  0  0  0  0  0  0  0
  141.7388   75.5811  217.9872 H   0  0  0  0  0  0  0  0  0  0  0  0
  142.9641   76.8544  217.5701 H   0  0  0  0  0  0  0  0  0  0  0  0
  142.8040   76.4180  219.6620 C   0  0  0  0  0  0  0  0  0  0  0  0
  141.9035   76.9979  219.9127 H   0  0  0  0  0  0  0  0  0  0  0  0
  143.6906   77.0473  219.8291 H   0  0  0  0  0  0  0  0  0  0  0  0
  140.7150   75.5800  221.5770 N   0  0  0  0  0  0  0  0  0  0  0  0
  140.8410   76.6140  221.4820 H   0  0  0  0  0  0  0  0  0  0  0  0
  139.5900   75.0960  222.1690 C   0  0  0  0  0  0  0  0  0  0  0  0
  138.5870   76.0030  222.6540 N   0  0  0  0  0  0  0  0  0  0  0  0
  138.0070   75.7170  223.4750 H   0  0  0  0  0  0  0  0  0  0  0  0
  138.4700   77.3840  222.1870 C   0  0  0  0  0  0  0  0  0  0  0  0
  138.8362   77.4505  221.1519 H   0  0  0  0  0  0  0  0  0  0  0  0
  137.4146   77.6911  222.2304 H   0  0  0  0  0  0  0  0  0  0  0  0
  139.3010   78.3130  223.0800 C   0  0  0  0  0  0  0  0  0  0  0  0
  138.8213   79.3023  223.1143 H   0  0  0  0  0  0  0  0  0  0  0  0
  139.3541   77.8743  224.0873 H   0  0  0  0  0  0  0  0  0  0  0  0
  140.6760   78.4610  222.5590 N   0  0  0  0  0  0  0  0  0  0  0  0
  141.6590   78.6680  223.6360 C   0  0  0  0  0  0  0  0  0  0  0  0
  141.1364   78.8587  224.5849 H   0  0  0  0  0  0  0  0  0  0  0  0
  142.2871   77.7726  223.7529 H   0  0  0  0  0  0  0  0  0  0  0  0
  142.5220   79.8710  223.2720 C   0  0  0  0  0  0  0  0  0  0  0  0
  142.2698   80.7331  223.9069 H   0  0  0  0  0  0  0  0  0  0  0  0
  143.5930   79.6697  223.4221 H   0  0  0  0  0  0  0  0  0  0  0  0
  142.2000   80.1650  221.8280 C   0  0  0  0  0  0  0  0  0  0  0  0
  142.2105   81.2484  221.6377 H   0  0  0  0  0  0  0  0  0  0  0  0
  142.9320   79.7274  221.1332 H   0  0  0  0  0  0  0  0  0  0  0  0
  140.8080   79.5990  221.6410 C   0  0  0  0  0  0  0  0  0  0  0  0
  140.0547   80.3645  221.8787 H   0  0  0  0  0  0  0  0  0  0  0  0
  140.6520   79.2811  220.5996 H   0  0  0  0  0  0  0  0  0  0  0  0
  139.4400   73.7540  222.3240 N   0  0  0  0  0  0  0  0  0  0  0  0
  140.4150   69.5520  225.7630 C   0  0  0  0  0  0  0  0  0  0  0  0
  140.2455   69.0395  224.8045 H   0  0  0  0  0  0  0  0  0  0  0  0
  140.4010   68.8200  226.9570 C   0  0  0  0  0  0  0  0  0  0  0  0
  140.2438   67.7315  226.9335 H   0  0  0  0  0  0  0  0  0  0  0  0
  1  2  1  0
  2  3  2  0
  3  4  1  0
  3  5  1  0
  5  6  1  0
  5  7  2  0
  7  8  1  0
  8  9  1  0
  8 10  1  0
  8 11  1  0
 11 12  1  0
 11 13  1  0
 11 14  1  0
 14 15  1  0
 14 16  2  0
 16 17  1  0
 17 18  2  0
 18 19  1  0
 19 20  1  0
 20 21  1  0
 20 22  1  0
 20 23  1  0
 23 24  2  0
 24 25  1  0
 24 26  1  0
 26 27  1  0
 26 28  2  0
 28 29  1  0
 28 30  1  0
 30 31  1  0
 30 32  2  0
 32 33  1  0
 33 34  1  0
 33 35  1  0
 33 36  1  0
 36 37  1  0
 36 38  1  0
 18 39  1  0
 39 40  1  0
 39 41  1  0
 41 42  1  0
 42 43  1  0
 42 44  1  0
 44 45  1  0
 44 46  1  0
 44 47  1  0
 47 48  1  0
 47 49  1  0
 47 50  1  0
 50 51  1  0
 51 52  1  0
 51 53  1  0
 51 54  1  0
 54 55  1  0
 54 56  1  0
 54 57  1  0
 57 58  1  0
 57 59  1  0
 57 60  1  0
 60 61  1  0
 60 62  1  0
 41 63  2  0
  7 64  1  0
 64 65  1  0
 64 66  2  0
 66 67  1  0
 66  2  1  0
 63 16  1  0
 36 19  1  0
 60 50  1  0
 32 23  1  0
M  CHG  1  14   1
M  END
>  <UniqueID>  (45) 
670

>  <SMILES>  (45) 
c1ccc(CC/[NH+]=c2\nc(NCCN3CCCC3)[nH]c(N3CCc4ccccc4C3)n2)cc1

>  <Energy>  (45) 
73.03619198892197

>  <Genealogy>  (45) 
c1ccc(CC[NH2+]c2nc(NCCN3CCCC3)nc(N3CCc4ccccc4C3)n2)cc1 (protonated)
c1ccc(CC[NH+]=c2nc(NCCN3CCCC3)[nH]c(N3CCc4ccccc4C3)n2)cc1 (tautomer)
c1ccc(CC/[NH+]=c2\nc(NCCN3CCCC3)[nH]c(N3CCc4ccccc4C3)n2)cc1 (cis-trans isomerization)
c1ccc(CC/[NH+]=c2\nc(NCCN3CCCC3)[nH]c(N3CCc4ccccc4C3)n2)cc1 (3D coordinates assigned)
c1ccc(CC/[NH+]=c2\nc(NCCN3CCCC3)[nH]c(N3CCc4ccccc4C3)n2)cc1 (nonaromatic ring conformer: 73.03619198892197 kcal/mol)

>  <smiles>  (45) 
c1ccc(CCNc2nc(NCCN3CCCC3)nc(N3CCc4ccccc4C3)n2)cc1

>  <score_type>  (45) 
oracle

>  <origin>  (45) 
autodockgpu

>  <m_score__min__energy>  (45) 
-9.9900000000000002

>  <m_primary>  (45) 
energy

>  <meeko>  (45) 
{"free_energy": -8.58, "intermolecular_energy": -11.26, "internal_energy": -1.8, "cluster_size": 4, "cluster_id": 2, "rank_in_cluster": 4}

>  <energy>  (45) 
-9.0

>  <cluster_rmsd>  (45) 
1.34

>  <rmsd>  (45) 
271.19

>  <cluster>  (45) 
1

$$$$
FPFWJFTVWFQHMH-FSECZMGHNA-O
     RDKit          3D

 67 71  0  0  0  0  0  0  0  0999 V2000
  140.1978   70.0815  229.2500 H   0  0  0  0  0  0  0  0  0  0  0  0
  140.2990   70.3650  228.1920 C   0  0  0  0  0  0  0  0  0  0  0  0
  140.9760   71.5380  227.8460 C   0  0  0  0  0  0  0  0  0  0  0  0
  141.4095   72.1741  228.6318 H   0  0  0  0  0  0  0  0  0  0  0  0
  141.1030   71.9040  226.5020 C   0  0  0  0  0  0  0  0  0  0  0  0
  141.6408   72.8253  226.2338 H   0  0  0  0  0  0  0  0  0  0  0  0
  140.5460   71.0990  225.4920 C   0  0  0  0  0  0  0  0  0  0  0  0
  140.6810   71.4970  224.0430 C   0  0  0  0  0  0  0  0  0  0  0  0
  141.0964   72.5141  223.9885 H   0  0  0  0  0  0  0  0  0  0  0  0
  141.3471   70.7759  223.5467 H   0  0  0  0  0  0  0  0  0  0  0  0
  139.3250   71.4730  223.3270 C   0  0  0  0  0  0  0  0  0  0  0  0
  139.0177   70.4288  223.1683 H   0  0  0  0  0  0  0  0  0  0  0  0
  138.5839   71.9953  223.9499 H   0  0  0  0  0  0  0  0  0  0  0  0
  139.4180   72.1510  222.0310 N   0  0  0  0  0  0  0  0  0  0  0  0
  138.8560   71.7570  221.2420 H   0  0  0  0  0  0  0  0  0  0  0  0
  140.1650   73.1990  221.8130 C   0  0  0  0  0  0  0  0  0  0  0  0
  139.7680   74.4140  222.2720 N   0  0  0  0  0  0  0  0  0  0  0  0
  140.5240   75.5200  222.0440 C   0  0  0  0  0  0  0  0  0  0  0  0
  140.0760   76.7990  222.5270 N   0  0  0  0  0  0  0  0  0  0  0  0
  141.0160   77.7850  223.0670 C   0  0  0  0  0  0  0  0  0  0  0  0
  142.0155   77.3313  223.1386 H   0  0  0  0  0  0  0  0  0  0  0  0
  140.6705   78.0986  224.0632 H   0  0  0  0  0  0  0  0  0  0  0  0
  141.0830   78.9960  222.1690 C   0  0  0  0  0  0  0  0  0  0  0  0
  142.1310   79.9150  222.3350 C   0  0  0  0  0  0  0  0  0  0  0  0
  142.9161   79.7201  223.0804 H   0  0  0  0  0  0  0  0  0  0  0  0
  142.1830   81.0760  221.5590 C   0  0  0  0  0  0  0  0  0  0  0  0
  143.0102   81.7887  221.6922 H   0  0  0  0  0  0  0  0  0  0  0  0
  141.1870   81.3330  220.6150 C   0  0  0  0  0  0  0  0  0  0  0  0
  141.2364   82.2423  219.9980 H   0  0  0  0  0  0  0  0  0  0  0  0
  140.1270   80.4360  220.4530 C   0  0  0  0  0  0  0  0  0  0  0  0
  139.3430   80.6454  219.7104 H   0  0  0  0  0  0  0  0  0  0  0  0
  140.0560   79.2690  221.2320 C   0  0  0  0  0  0  0  0  0  0  0  0
  138.9380   78.2820  220.9740 C   0  0  0  0  0  0  0  0  0  0  0  0
  139.1695   77.7145  220.0606 H   0  0  0  0  0  0  0  0  0  0  0  0
  138.0027   78.8505  220.8641 H   0  0  0  0  0  0  0  0  0  0  0  0
  138.7590   77.2990  222.1340 C   0  0  0  0  0  0  0  0  0  0  0  0
  138.1239   76.4597  221.8143 H   0  0  0  0  0  0  0  0  0  0  0  0
  138.2787   77.8042  222.9850 H   0  0  0  0  0  0  0  0  0  0  0  0
  141.6770   75.4110  221.3270 N   0  0  0  0  0  0  0  0  0  0  0  0
  142.2470   76.2600  221.1120 H   0  0  0  0  0  0  0  0  0  0  0  0
  142.0880   74.1970  220.8700 C   0  0  0  0  0  0  0  0  0  0  0  0
  143.2980   74.0910  220.1040 N   0  0  0  0  0  0  0  0  0  0  0  0
  143.9570   73.3070  220.3130 H   0  0  0  0  0  0  0  0  0  0  0  0
  143.5600   74.9010  218.9140 C   0  0  0  0  0  0  0  0  0  0  0  0
  144.4910   74.5587  218.4385 H   0  0  0  0  0  0  0  0  0  0  0  0
  142.7199   74.7926  218.2122 H   0  0  0  0  0  0  0  0  0  0  0  0
  143.7020   76.3770  219.3030 C   0  0  0  0  0  0  0  0  0  0  0  0
  144.0388   76.4426  220.3481 H   0  0  0  0  0  0  0  0  0  0  0  0
  144.4352   76.8472  218.6312 H   0  0  0  0  0  0  0  0  0  0  0  0
  142.4140   77.0880  219.1650 N   0  0  0  0  0  0  0  0  0  0  0  0
  141.4730   76.3720  218.2870 C   0  0  0  0  0  0  0  0  0  0  0  0
  141.9965   75.5557  217.7678 H   0  0  0  0  0  0  0  0  0  0  0  0
  140.6522   75.9433  218.8807 H   0  0  0  0  0  0  0  0  0  0  0  0
  140.9220   77.3620  217.2670 C   0  0  0  0  0  0  0  0  0  0  0  0
  141.3465   77.1665  216.2712 H   0  0  0  0  0  0  0  0  0  0  0  0
  139.8294   77.2839  217.1666 H   0  0  0  0  0  0  0  0  0  0  0  0
  141.3470   78.7210  217.7660 C   0  0  0  0  0  0  0  0  0  0  0  0
  141.5931   79.3867  216.9256 H   0  0  0  0  0  0  0  0  0  0  0  0
  140.5549   79.2297  218.3351 H   0  0  0  0  0  0  0  0  0  0  0  0
  142.5750   78.4360  218.6040 C   0  0  0  0  0  0  0  0  0  0  0  0
  143.4776   78.4779  217.9766 H   0  0  0  0  0  0  0  0  0  0  0  0
  142.6833   79.1822  219.4049 H   0  0  0  0  0  0  0  0  0  0  0  0
  141.3300   73.0970  221.1200 N   0  0  0  0  0  0  0  0  0  0  0  0
  139.8600   69.9230  225.8500 C   0  0  0  0  0  0  0  0  0  0  0  0
  139.4083   69.2934  225.0693 H   0  0  0  0  0  0  0  0  0  0  0  0
  139.7500   69.5510  227.1960 C   0  0  0  0  0  0  0  0  0  0  0  0
  139.2324   68.6197  227.4693 H   0  0  0  0  0  0  0  0  0  0  0  0
  1  2  1  0
  2  3  2  0
  3  4  1  0
  3  5  1  0
  5  6  1  0
  5  7  2  0
  7  8  1  0
  8  9  1  0
  8 10  1  0
  8 11  1  0
 11 12  1  0
 11 13  1  0
 11 14  1  0
 14 15  1  0
 14 16  2  0
 16 17  1  0
 17 18  2  0
 18 19  1  0
 19 20  1  0
 20 21  1  0
 20 22  1  0
 20 23  1  0
 23 24  2  0
 24 25  1  0
 24 26  1  0
 26 27  1  0
 26 28  2  0
 28 29  1  0
 28 30  1  0
 30 31  1  0
 30 32  2  0
 32 33  1  0
 33 34  1  0
 33 35  1  0
 33 36  1  0
 36 37  1  0
 36 38  1  0
 18 39  1  0
 39 40  1  0
 39 41  1  0
 41 42  1  0
 42 43  1  0
 42 44  1  0
 44 45  1  0
 44 46  1  0
 44 47  1  0
 47 48  1  0
 47 49  1  0
 47 50  1  0
 50 51  1  0
 51 52  1  0
 51 53  1  0
 51 54  1  0
 54 55  1  0
 54 56  1  0
 54 57  1  0
 57 58  1  0
 57 59  1  0
 57 60  1  0
 60 61  1  0
 60 62  1  0
 41 63  2  0
  7 64  1  0
 64 65  1  0
 64 66  2  0
 66 67  1  0
 66  2  1  0
 63 16  1  0
 36 19  1  0
 60 50  1  0
 32 23  1  0
M  CHG  1  14   1
M  END
>  <UniqueID>  (46) 
670

>  <SMILES>  (46) 
c1ccc(CC/[NH+]=c2\nc(NCCN3CCCC3)[nH]c(N3CCc4ccccc4C3)n2)cc1

>  <Energy>  (46) 
73.03619198892197

>  <Genealogy>  (46) 
c1ccc(CC[NH2+]c2nc(NCCN3CCCC3)nc(N3CCc4ccccc4C3)n2)cc1 (protonated)
c1ccc(CC[NH+]=c2nc(NCCN3CCCC3)[nH]c(N3CCc4ccccc4C3)n2)cc1 (tautomer)
c1ccc(CC/[NH+]=c2\nc(NCCN3CCCC3)[nH]c(N3CCc4ccccc4C3)n2)cc1 (cis-trans isomerization)
c1ccc(CC/[NH+]=c2\nc(NCCN3CCCC3)[nH]c(N3CCc4ccccc4C3)n2)cc1 (3D coordinates assigned)
c1ccc(CC/[NH+]=c2\nc(NCCN3CCCC3)[nH]c(N3CCc4ccccc4C3)n2)cc1 (nonaromatic ring conformer: 73.03619198892197 kcal/mol)

>  <smiles>  (46) 
c1ccc(CCNc2nc(NCCN3CCCC3)nc(N3CCc4ccccc4C3)n2)cc1

>  <score_type>  (46) 
oracle

>  <origin>  (46) 
autodockgpu

>  <m_score__min__energy>  (46) 
-9.9900000000000002

>  <m_primary>  (46) 
energy

>  <meeko>  (46) 
{"free_energy": -8.08, "intermolecular_energy": -10.76, "internal_energy": -2.64, "cluster_size": 12, "cluster_id": 1, "rank_in_cluster": 11}

>  <energy>  (46) 
-8.65

>  <cluster_rmsd>  (46) 
1.51

>  <rmsd>  (46) 
271.32

>  <cluster>  (46) 
1

$$$$
FPFWJFTVWFQHMH-FSECZMGHNA-O
     RDKit          3D

 67 71  0  0  0  0  0  0  0  0999 V2000
  132.2816   72.8423  227.8556 H   0  0  0  0  0  0  0  0  0  0  0  0
  132.6190   71.9200  227.3600 C   0  0  0  0  0  0  0  0  0  0  0  0
  131.7350   71.1980  226.5520 C   0  0  0  0  0  0  0  0  0  0  0  0
  130.7040   71.5545  226.4108 H   0  0  0  0  0  0  0  0  0  0  0  0
  132.1600   70.0230  225.9230 C   0  0  0  0  0  0  0  0  0  0  0  0
  131.4626   69.4608  225.2846 H   0  0  0  0  0  0  0  0  0  0  0  0
  133.4750   69.5570  226.1030 C   0  0  0  0  0  0  0  0  0  0  0  0
  133.9300   68.2880  225.4260 C   0  0  0  0  0  0  0  0  0  0  0  0
  135.0237   68.3161  225.3115 H   0  0  0  0  0  0  0  0  0  0  0  0
  133.6238   67.4349  226.0493 H   0  0  0  0  0  0  0  0  0  0  0  0
  133.2880   68.1290  224.0430 C   0  0  0  0  0  0  0  0  0  0  0  0
  133.2347   67.0600  223.7892 H   0  0  0  0  0  0  0  0  0  0  0  0
  132.2777   68.5634  224.0674 H   0  0  0  0  0  0  0  0  0  0  0  0
  134.0800   68.8270  223.0270 N   0  0  0  0  0  0  0  0  0  0  0  0
  133.9500   68.5330  222.0310 H   0  0  0  0  0  0  0  0  0  0  0  0
  134.9370   69.7720  223.2990 C   0  0  0  0  0  0  0  0  0  0  0  0
  136.2430   69.4580  223.5050 N   0  0  0  0  0  0  0  0  0  0  0  0
  137.1490   70.4240  223.8040 C   0  0  0  0  0  0  0  0  0  0  0  0
  138.5230   70.0650  224.0320 N   0  0  0  0  0  0  0  0  0  0  0  0
  139.5290   71.0710  224.3850 C   0  0  0  0  0  0  0  0  0  0  0  0
  139.0798   72.0726  224.3145 H   0  0  0  0  0  0  0  0  0  0  0  0
  140.3768   70.9862  223.6893 H   0  0  0  0  0  0  0  0  0  0  0  0
  140.0270   70.8480  225.7910 C   0  0  0  0  0  0  0  0  0  0  0  0
  140.7590   71.8620  226.4290 C   0  0  0  0  0  0  0  0  0  0  0  0
  140.9208   72.8226  225.9181 H   0  0  0  0  0  0  0  0  0  0  0  0
  141.2830   71.6600  227.7070 C   0  0  0  0  0  0  0  0  0  0  0  0
  141.8498   72.4628  228.2012 H   0  0  0  0  0  0  0  0  0  0  0  0
  141.0890   70.4410  228.3590 C   0  0  0  0  0  0  0  0  0  0  0  0
  141.4953   70.2877  229.3696 H   0  0  0  0  0  0  0  0  0  0  0  0
  140.3790   69.4150  227.7290 C   0  0  0  0  0  0  0  0  0  0  0  0
  140.2318   68.4555  228.2464 H   0  0  0  0  0  0  0  0  0  0  0  0
  139.8520   69.6000  226.4400 C   0  0  0  0  0  0  0  0  0  0  0  0
  139.0220   68.4970  225.8210 C   0  0  0  0  0  0  0  0  0  0  0  0
  138.0231   68.5038  226.2816 H   0  0  0  0  0  0  0  0  0  0  0  0
  139.5384   67.5427  226.0015 H   0  0  0  0  0  0  0  0  0  0  0  0
  138.8690   68.6710  224.3080 C   0  0  0  0  0  0  0  0  0  0  0  0
  138.0710   68.0107  223.9377 H   0  0  0  0  0  0  0  0  0  0  0  0
  139.8103   68.4099  223.8023 H   0  0  0  0  0  0  0  0  0  0  0  0
  136.7390   71.7180  223.9230 N   0  0  0  0  0  0  0  0  0  0  0  0
  137.4190   72.4660  224.1900 H   0  0  0  0  0  0  0  0  0  0  0  0
  135.4350   72.0460  223.7100 C   0  0  0  0  0  0  0  0  0  0  0  0
  135.0060   73.4100  223.8490 N   0  0  0  0  0  0  0  0  0  0  0  0
  135.3370   74.1120  223.1500 H   0  0  0  0  0  0  0  0  0  0  0  0
  133.9740   73.8270  224.7980 C   0  0  0  0  0  0  0  0  0  0  0  0
  133.1137   74.2324  224.2452 H   0  0  0  0  0  0  0  0  0  0  0  0
  133.6598   72.9572  225.3936 H   0  0  0  0  0  0  0  0  0  0  0  0
  134.5270   74.9050  225.7370 C   0  0  0  0  0  0  0  0  0  0  0  0
  135.4764   74.5541  226.1677 H   0  0  0  0  0  0  0  0  0  0  0  0
  134.6835   75.8270  225.1578 H   0  0  0  0  0  0  0  0  0  0  0  0
  133.5770   75.1930  226.8320 N   0  0  0  0  0  0  0  0  0  0  0  0
  132.1940   74.8330  226.4790 C   0  0  0  0  0  0  0  0  0  0  0  0
  132.1319   74.6037  225.4050 H   0  0  0  0  0  0  0  0  0  0  0  0
  131.8760   73.9467  227.0477 H   0  0  0  0  0  0  0  0  0  0  0  0
  131.2930   76.0180  226.8060 C   0  0  0  0  0  0  0  0  0  0  0  0
  130.9551   76.5119  225.8830 H   0  0  0  0  0  0  0  0  0  0  0  0
  130.3882   75.7087  227.3498 H   0  0  0  0  0  0  0  0  0  0  0  0
  132.1500   76.9530  227.6230 C   0  0  0  0  0  0  0  0  0  0  0  0
  131.9142   78.0022  227.3917 H   0  0  0  0  0  0  0  0  0  0  0  0
  131.9903   76.8372  228.7052 H   0  0  0  0  0  0  0  0  0  0  0  0
  133.5640   76.6140  227.2030 C   0  0  0  0  0  0  0  0  0  0  0  0
  133.8598   77.2312  226.3419 H   0  0  0  0  0  0  0  0  0  0  0  0
  134.2726   76.8109  228.0210 H   0  0  0  0  0  0  0  0  0  0  0  0
  134.5430   71.0700  223.3960 N   0  0  0  0  0  0  0  0  0  0  0  0
  134.3560   70.2860  226.9240 C   0  0  0  0  0  0  0  0  0  0  0  0
  135.3822   69.9234  227.0833 H   0  0  0  0  0  0  0  0  0  0  0  0
  133.9320   71.4710  227.5390 C   0  0  0  0  0  0  0  0  0  0  0  0
  134.6309   72.0482  228.1623 H   0  0  0  0  0  0  0  0  0  0  0  0
  1  2  1  0
  2  3  2  0
  3  4  1  0
  3  5  1  0
  5  6  1  0
  5  7  2  0
  7  8  1  0
  8  9  1  0
  8 10  1  0
  8 11  1  0
 11 12  1  0
 11 13  1  0
 11 14  1  0
 14 15  1  0
 14 16  2  0
 16 17  1  0
 17 18  2  0
 18 19  1  0
 19 20  1  0
 20 21  1  0
 20 22  1  0
 20 23  1  0
 23 24  2  0
 24 25  1  0
 24 26  1  0
 26 27  1  0
 26 28  2  0
 28 29  1  0
 28 30  1  0
 30 31  1  0
 30 32  2  0
 32 33  1  0
 33 34  1  0
 33 35  1  0
 33 36  1  0
 36 37  1  0
 36 38  1  0
 18 39  1  0
 39 40  1  0
 39 41  1  0
 41 42  1  0
 42 43  1  0
 42 44  1  0
 44 45  1  0
 44 46  1  0
 44 47  1  0
 47 48  1  0
 47 49  1  0
 47 50  1  0
 50 51  1  0
 51 52  1  0
 51 53  1  0
 51 54  1  0
 54 55  1  0
 54 56  1  0
 54 57  1  0
 57 58  1  0
 57 59  1  0
 57 60  1  0
 60 61  1  0
 60 62  1  0
 41 63  2  0
  7 64  1  0
 64 65  1  0
 64 66  2  0
 66 67  1  0
 66  2  1  0
 63 16  1  0
 36 19  1  0
 60 50  1  0
 32 23  1  0
M  CHG  1  14   1
M  END
>  <UniqueID>  (47) 
670

>  <SMILES>  (47) 
c1ccc(CC/[NH+]=c2\nc(NCCN3CCCC3)[nH]c(N3CCc4ccccc4C3)n2)cc1

>  <Energy>  (47) 
73.03619198892197

>  <Genealogy>  (47) 
c1ccc(CC[NH2+]c2nc(NCCN3CCCC3)nc(N3CCc4ccccc4C3)n2)cc1 (protonated)
c1ccc(CC[NH+]=c2nc(NCCN3CCCC3)[nH]c(N3CCc4ccccc4C3)n2)cc1 (tautomer)
c1ccc(CC/[NH+]=c2\nc(NCCN3CCCC3)[nH]c(N3CCc4ccccc4C3)n2)cc1 (cis-trans isomerization)
c1ccc(CC/[NH+]=c2\nc(NCCN3CCCC3)[nH]c(N3CCc4ccccc4C3)n2)cc1 (3D coordinates assigned)
c1ccc(CC/[NH+]=c2\nc(NCCN3CCCC3)[nH]c(N3CCc4ccccc4C3)n2)cc1 (nonaromatic ring conformer: 73.03619198892197 kcal/mol)

>  <smiles>  (47) 
c1ccc(CCNc2nc(NCCN3CCCC3)nc(N3CCc4ccccc4C3)n2)cc1

>  <score_type>  (47) 
oracle

>  <origin>  (47) 
autodockgpu

>  <m_score__min__energy>  (47) 
-9.9900000000000002

>  <m_primary>  (47) 
energy

>  <meeko>  (47) 
{"free_energy": -8.13, "intermolecular_energy": -10.81, "internal_energy": -1.87, "cluster_size": 1, "cluster_id": 5, "rank_in_cluster": 1}

>  <energy>  (47) 
-8.33

>  <cluster_rmsd>  (47) 
1.57

>  <rmsd>  (47) 
271.13

>  <cluster>  (47) 
1

$$$$
FPFWJFTVWFQHMH-FSECZMGHNA-O
     RDKit          3D

 67 71  0  0  0  0  0  0  0  0999 V2000
  140.8510   67.4316  228.9621 H   0  0  0  0  0  0  0  0  0  0  0  0
  140.8140   68.1660  228.1440 C   0  0  0  0  0  0  0  0  0  0  0  0
  141.0700   69.5160  228.4050 C   0  0  0  0  0  0  0  0  0  0  0  0
  141.3104   69.8414  229.4279 H   0  0  0  0  0  0  0  0  0  0  0  0
  141.0210   70.4530  227.3680 C   0  0  0  0  0  0  0  0  0  0  0  0
  141.2282   71.5129  227.5772 H   0  0  0  0  0  0  0  0  0  0  0  0
  140.7080   70.0460  226.0590 C   0  0  0  0  0  0  0  0  0  0  0  0
  140.6520   71.0590  224.9420 C   0  0  0  0  0  0  0  0  0  0  0  0
  140.9200   72.0480  225.3421 H   0  0  0  0  0  0  0  0  0  0  0  0
  141.3596   70.7497  224.1586 H   0  0  0  0  0  0  0  0  0  0  0  0
  139.2510   71.1340  224.3240 C   0  0  0  0  0  0  0  0  0  0  0  0
  138.7002   70.2122  224.5625 H   0  0  0  0  0  0  0  0  0  0  0  0
  138.7255   72.0072  224.7380 H   0  0  0  0  0  0  0  0  0  0  0  0
  139.3400   71.2800  222.8680 N   0  0  0  0  0  0  0  0  0  0  0  0
  138.8220   70.5840  222.2830 H   0  0  0  0  0  0  0  0  0  0  0  0
  140.0350   72.2120  222.2740 C   0  0  0  0  0  0  0  0  0  0  0  0
  139.5570   73.4830  222.2330 N   0  0  0  0  0  0  0  0  0  0  0  0
  140.2560   74.4640  221.6070 C   0  0  0  0  0  0  0  0  0  0  0  0
  139.7230   75.8000  221.5630 N   0  0  0  0  0  0  0  0  0  0  0  0
  139.8150   76.6990  222.7170 C   0  0  0  0  0  0  0  0  0  0  0  0
  140.2197   76.1448  223.5767 H   0  0  0  0  0  0  0  0  0  0  0  0
  138.8107   77.0813  222.9520 H   0  0  0  0  0  0  0  0  0  0  0  0
  140.7210   77.8640  222.4060 C   0  0  0  0  0  0  0  0  0  0  0  0
  141.1840   78.6730  223.4560 C   0  0  0  0  0  0  0  0  0  0  0  0
  140.9219   78.4229  224.4946 H   0  0  0  0  0  0  0  0  0  0  0  0
  141.9750   79.7930  223.1910 C   0  0  0  0  0  0  0  0  0  0  0  0
  142.3372   80.4180  224.0206 H   0  0  0  0  0  0  0  0  0  0  0  0
  142.3070   80.1210  221.8750 C   0  0  0  0  0  0  0  0  0  0  0  0
  142.9398   80.9971  221.6699 H   0  0  0  0  0  0  0  0  0  0  0  0
  141.8360   79.3370  220.8180 C   0  0  0  0  0  0  0  0  0  0  0  0
  142.0958   79.6033  219.7828 H   0  0  0  0  0  0  0  0  0  0  0  0
  141.0330   78.2110  221.0680 C   0  0  0  0  0  0  0  0  0  0  0  0
  140.6090   77.3400  219.9050 C   0  0  0  0  0  0  0  0  0  0  0  0
  141.4633   76.7199  219.5959 H   0  0  0  0  0  0  0  0  0  0  0  0
  140.2800   78.0000  219.0888 H   0  0  0  0  0  0  0  0  0  0  0  0
  139.4400   76.4230  220.2710 C   0  0  0  0  0  0  0  0  0  0  0  0
  139.3242   75.6451  219.5019 H   0  0  0  0  0  0  0  0  0  0  0  0
  138.5092   77.0061  220.3307 H   0  0  0  0  0  0  0  0  0  0  0  0
  141.4360   74.1650  220.9950 N   0  0  0  0  0  0  0  0  0  0  0  0
  141.9650   74.9040  220.4770 H   0  0  0  0  0  0  0  0  0  0  0  0
  141.9280   72.8970  221.0380 C   0  0  0  0  0  0  0  0  0  0  0  0
  143.1660   72.5860  220.3790 N   0  0  0  0  0  0  0  0  0  0  0  0
  143.1320   72.1480  219.4310 H   0  0  0  0  0  0  0  0  0  0  0  0
  144.4670   73.0310  220.8780 C   0  0  0  0  0  0  0  0  0  0  0  0
  144.4419   73.0687  221.9771 H   0  0  0  0  0  0  0  0  0  0  0  0
  145.2416   72.3240  220.5460 H   0  0  0  0  0  0  0  0  0  0  0  0
  144.7910   74.4250  220.3300 C   0  0  0  0  0  0  0  0  0  0  0  0
  144.9445   75.1154  221.1725 H   0  0  0  0  0  0  0  0  0  0  0  0
  145.7009   74.3561  219.7158 H   0  0  0  0  0  0  0  0  0  0  0  0
  143.6910   74.9330  219.4840 N   0  0  0  0  0  0  0  0  0  0  0  0
  143.8120   74.4850  218.0860 C   0  0  0  0  0  0  0  0  0  0  0  0
  144.7986   74.0254  217.9267 H   0  0  0  0  0  0  0  0  0  0  0  0
  143.0353   73.7403  217.8579 H   0  0  0  0  0  0  0  0  0  0  0  0
  143.6570   75.7010  217.1790 C   0  0  0  0  0  0  0  0  0  0  0  0
  144.6246   75.9766  216.7343 H   0  0  0  0  0  0  0  0  0  0  0  0
  142.9685   75.5062  216.3435 H   0  0  0  0  0  0  0  0  0  0  0  0
  143.1550   76.8030  218.0790 C   0  0  0  0  0  0  0  0  0  0  0  0
  143.5812   77.7732  217.7841 H   0  0  0  0  0  0  0  0  0  0  0  0
  142.0627   76.9236  218.0315 H   0  0  0  0  0  0  0  0  0  0  0  0
  143.6370   76.4000  219.4560 C   0  0  0  0  0  0  0  0  0  0  0  0
  144.6373   76.8177  219.6425 H   0  0  0  0  0  0  0  0  0  0  0  0
  142.9595   76.7811  220.2343 H   0  0  0  0  0  0  0  0  0  0  0  0
  141.2250   71.9280  221.6810 N   0  0  0  0  0  0  0  0  0  0  0  0
  140.4440   68.6870  225.8050 C   0  0  0  0  0  0  0  0  0  0  0  0
  140.1842   68.3600  224.7874 H   0  0  0  0  0  0  0  0  0  0  0  0
  140.5110   67.7490  226.8440 C   0  0  0  0  0  0  0  0  0  0  0  0
  140.3253   66.6847  226.6370 H   0  0  0  0  0  0  0  0  0  0  0  0
  1  2  1  0
  2  3  2  0
  3  4  1  0
  3  5  1  0
  5  6  1  0
  5  7  2  0
  7  8  1  0
  8  9  1  0
  8 10  1  0
  8 11  1  0
 11 12  1  0
 11 13  1  0
 11 14  1  0
 14 15  1  0
 14 16  2  0
 16 17  1  0
 17 18  2  0
 18 19  1  0
 19 20  1  0
 20 21  1  0
 20 22  1  0
 20 23  1  0
 23 24  2  0
 24 25  1  0
 24 26  1  0
 26 27  1  0
 26 28  2  0
 28 29  1  0
 28 30  1  0
 30 31  1  0
 30 32  2  0
 32 33  1  0
 33 34  1  0
 33 35  1  0
 33 36  1  0
 36 37  1  0
 36 38  1  0
 18 39  1  0
 39 40  1  0
 39 41  1  0
 41 42  1  0
 42 43  1  0
 42 44  1  0
 44 45  1  0
 44 46  1  0
 44 47  1  0
 47 48  1  0
 47 49  1  0
 47 50  1  0
 50 51  1  0
 51 52  1  0
 51 53  1  0
 51 54  1  0
 54 55  1  0
 54 56  1  0
 54 57  1  0
 57 58  1  0
 57 59  1  0
 57 60  1  0
 60 61  1  0
 60 62  1  0
 41 63  2  0
  7 64  1  0
 64 65  1  0
 64 66  2  0
 66 67  1  0
 66  2  1  0
 63 16  1  0
 36 19  1  0
 60 50  1  0
 32 23  1  0
M  CHG  1  14   1
M  END
>  <UniqueID>  (48) 
670

>  <SMILES>  (48) 
c1ccc(CC/[NH+]=c2\nc(NCCN3CCCC3)[nH]c(N3CCc4ccccc4C3)n2)cc1

>  <Energy>  (48) 
73.03619198892197

>  <Genealogy>  (48) 
c1ccc(CC[NH2+]c2nc(NCCN3CCCC3)nc(N3CCc4ccccc4C3)n2)cc1 (protonated)
c1ccc(CC[NH+]=c2nc(NCCN3CCCC3)[nH]c(N3CCc4ccccc4C3)n2)cc1 (tautomer)
c1ccc(CC/[NH+]=c2\nc(NCCN3CCCC3)[nH]c(N3CCc4ccccc4C3)n2)cc1 (cis-trans isomerization)
c1ccc(CC/[NH+]=c2\nc(NCCN3CCCC3)[nH]c(N3CCc4ccccc4C3)n2)cc1 (3D coordinates assigned)
c1ccc(CC/[NH+]=c2\nc(NCCN3CCCC3)[nH]c(N3CCc4ccccc4C3)n2)cc1 (nonaromatic ring conformer: 73.03619198892197 kcal/mol)

>  <smiles>  (48) 
c1ccc(CCNc2nc(NCCN3CCCC3)nc(N3CCc4ccccc4C3)n2)cc1

>  <score_type>  (48) 
oracle

>  <origin>  (48) 
autodockgpu

>  <m_score__min__energy>  (48) 
-9.9900000000000002

>  <m_primary>  (48) 
energy

>  <meeko>  (48) 
{"free_energy": -8.33, "intermolecular_energy": -11.02, "internal_energy": -2.28, "cluster_size": 12, "cluster_id": 1, "rank_in_cluster": 7}

>  <energy>  (48) 
-8.3

>  <cluster_rmsd>  (48) 
1.4

>  <rmsd>  (48) 
271.14

>  <cluster>  (48) 
1

$$$$
FPFWJFTVWFQHMH-FSECZMGHNA-O
     RDKit          3D

 67 71  0  0  0  0  0  0  0  0999 V2000
  141.9928   71.8660  229.1308 H   0  0  0  0  0  0  0  0  0  0  0  0
  141.4190   71.5160  228.2600 C   0  0  0  0  0  0  0  0  0  0  0  0
  141.4290   72.2570  227.0740 C   0  0  0  0  0  0  0  0  0  0  0  0
  142.0123   73.1876  227.0124 H   0  0  0  0  0  0  0  0  0  0  0  0
  140.6980   71.8160  225.9660 C   0  0  0  0  0  0  0  0  0  0  0  0
  140.7129   72.3987  225.0332 H   0  0  0  0  0  0  0  0  0  0  0  0
  139.9440   70.6310  226.0390 C   0  0  0  0  0  0  0  0  0  0  0  0
  139.1530   70.1590  224.8440 C   0  0  0  0  0  0  0  0  0  0  0  0
  139.1240   69.0594  224.8458 H   0  0  0  0  0  0  0  0  0  0  0  0
  138.1378   70.5767  224.9142 H   0  0  0  0  0  0  0  0  0  0  0  0
  139.7820   70.6390  223.5310 C   0  0  0  0  0  0  0  0  0  0  0  0
  140.8771   70.6448  223.6350 H   0  0  0  0  0  0  0  0  0  0  0  0
  139.4817   69.9567  222.7221 H   0  0  0  0  0  0  0  0  0  0  0  0
  139.3210   71.9920  223.2060 N   0  0  0  0  0  0  0  0  0  0  0  0
  138.3990   72.2920  223.6000 H   0  0  0  0  0  0  0  0  0  0  0  0
  139.9860   72.8230  222.4510 C   0  0  0  0  0  0  0  0  0  0  0  0
  139.5880   74.1190  222.3660 N   0  0  0  0  0  0  0  0  0  0  0  0
  140.2570   74.9970  221.5750 C   0  0  0  0  0  0  0  0  0  0  0  0
  139.8080   76.3610  221.4890 N   0  0  0  0  0  0  0  0  0  0  0  0
  139.6870   77.2030  222.6830 C   0  0  0  0  0  0  0  0  0  0  0  0
  139.8683   76.5903  223.5784 H   0  0  0  0  0  0  0  0  0  0  0  0
  138.6743   77.6311  222.7165 H   0  0  0  0  0  0  0  0  0  0  0  0
  140.6920   78.3270  222.6380 C   0  0  0  0  0  0  0  0  0  0  0  0
  140.9510   79.0620  223.8060 C   0  0  0  0  0  0  0  0  0  0  0  0
  140.4568   78.7824  224.7481 H   0  0  0  0  0  0  0  0  0  0  0  0
  141.8320   80.1460  223.7800 C   0  0  0  0  0  0  0  0  0  0  0  0
  142.0329   80.7128  224.7011 H   0  0  0  0  0  0  0  0  0  0  0  0
  142.4580   80.5110  222.5860 C   0  0  0  0  0  0  0  0  0  0  0  0
  143.1590   81.3586  222.5700 H   0  0  0  0  0  0  0  0  0  0  0  0
  142.1950   79.8010  221.4120 C   0  0  0  0  0  0  0  0  0  0  0  0
  142.6883   80.0956  220.4740 H   0  0  0  0  0  0  0  0  0  0  0  0
  141.3050   78.7130  221.4200 C   0  0  0  0  0  0  0  0  0  0  0  0
  141.1050   77.9180  220.1480 C   0  0  0  0  0  0  0  0  0  0  0  0
  141.9768   77.2643  219.9975 H   0  0  0  0  0  0  0  0  0  0  0  0
  140.9923   78.6303  219.3174 H   0  0  0  0  0  0  0  0  0  0  0  0
  139.8440   77.0540  220.2020 C   0  0  0  0  0  0  0  0  0  0  0  0
  139.8641   76.3176  219.3851 H   0  0  0  0  0  0  0  0  0  0  0  0
  138.9505   77.6858  220.0903 H   0  0  0  0  0  0  0  0  0  0  0  0
  141.3210   74.5670  220.8410 N   0  0  0  0  0  0  0  0  0  0  0  0
  141.8210   75.2240  220.1990 H   0  0  0  0  0  0  0  0  0  0  0  0
  141.7330   73.2730  220.9250 C   0  0  0  0  0  0  0  0  0  0  0  0
  142.8480   72.8220  220.1400 N   0  0  0  0  0  0  0  0  0  0  0  0
  142.6630   72.4160  219.1950 H   0  0  0  0  0  0  0  0  0  0  0  0
  144.2390   73.0850  220.5070 C   0  0  0  0  0  0  0  0  0  0  0  0
  144.3594   72.9561  221.5928 H   0  0  0  0  0  0  0  0  0  0  0  0
  144.8919   72.3800  219.9716 H   0  0  0  0  0  0  0  0  0  0  0  0
  144.6240   74.5170  220.1210 C   0  0  0  0  0  0  0  0  0  0  0  0
  144.7288   75.1198  221.0351 H   0  0  0  0  0  0  0  0  0  0  0  0
  145.5741   74.4866  219.5674 H   0  0  0  0  0  0  0  0  0  0  0  0
  143.5940   75.1290  219.2540 N   0  0  0  0  0  0  0  0  0  0  0  0
  143.7100   74.6860  217.8540 C   0  0  0  0  0  0  0  0  0  0  0  0
  144.6554   74.1417  217.7131 H   0  0  0  0  0  0  0  0  0  0  0  0
  142.8762   74.0159  217.5978 H   0  0  0  0  0  0  0  0  0  0  0  0
  143.6870   75.9200  216.9590 C   0  0  0  0  0  0  0  0  0  0  0  0
  144.6866   76.1131  216.5424 H   0  0  0  0  0  0  0  0  0  0  0  0
  143.0060   75.7954  216.1042 H   0  0  0  0  0  0  0  0  0  0  0  0
  143.2610   77.0530  217.8590 C   0  0  0  0  0  0  0  0  0  0  0  0
  143.7786   77.9846  217.5865 H   0  0  0  0  0  0  0  0  0  0  0  0
  142.1852   77.2704  217.7857 H   0  0  0  0  0  0  0  0  0  0  0  0
  143.6700   76.5950  219.2430 C   0  0  0  0  0  0  0  0  0  0  0  0
  144.6980   76.9209  219.4596 H   0  0  0  0  0  0  0  0  0  0  0  0
  143.0088   77.0265  220.0089 H   0  0  0  0  0  0  0  0  0  0  0  0
  141.0640   72.4090  221.7330 N   0  0  0  0  0  0  0  0  0  0  0  0
  139.9330   69.8960  227.2400 C   0  0  0  0  0  0  0  0  0  0  0  0
  139.3343   68.9762  227.3137 H   0  0  0  0  0  0  0  0  0  0  0  0
  140.6810   70.3310  228.3410 C   0  0  0  0  0  0  0  0  0  0  0  0
  140.6880   69.7408  229.2692 H   0  0  0  0  0  0  0  0  0  0  0  0
  1  2  1  0
  2  3  2  0
  3  4  1  0
  3  5  1  0
  5  6  1  0
  5  7  2  0
  7  8  1  0
  8  9  1  0
  8 10  1  0
  8 11  1  0
 11 12  1  0
 11 13  1  0
 11 14  1  0
 14 15  1  0
 14 16  2  0
 16 17  1  0
 17 18  2  0
 18 19  1  0
 19 20  1  0
 20 21  1  0
 20 22  1  0
 20 23  1  0
 23 24  2  0
 24 25  1  0
 24 26  1  0
 26 27  1  0
 26 28  2  0
 28 29  1  0
 28 30  1  0
 30 31  1  0
 30 32  2  0
 32 33  1  0
 33 34  1  0
 33 35  1  0
 33 36  1  0
 36 37  1  0
 36 38  1  0
 18 39  1  0
 39 40  1  0
 39 41  1  0
 41 42  1  0
 42 43  1  0
 42 44  1  0
 44 45  1  0
 44 46  1  0
 44 47  1  0
 47 48  1  0
 47 49  1  0
 47 50  1  0
 50 51  1  0
 51 52  1  0
 51 53  1  0
 51 54  1  0
 54 55  1  0
 54 56  1  0
 54 57  1  0
 57 58  1  0
 57 59  1  0
 57 60  1  0
 60 61  1  0
 60 62  1  0
 41 63  2  0
  7 64  1  0
 64 65  1  0
 64 66  2  0
 66 67  1  0
 66  2  1  0
 63 16  1  0
 36 19  1  0
 60 50  1  0
 32 23  1  0
M  CHG  1  14   1
M  END
>  <UniqueID>  (49) 
670

>  <SMILES>  (49) 
c1ccc(CC/[NH+]=c2\nc(NCCN3CCCC3)[nH]c(N3CCc4ccccc4C3)n2)cc1

>  <Energy>  (49) 
73.03619198892197

>  <Genealogy>  (49) 
c1ccc(CC[NH2+]c2nc(NCCN3CCCC3)nc(N3CCc4ccccc4C3)n2)cc1 (protonated)
c1ccc(CC[NH+]=c2nc(NCCN3CCCC3)[nH]c(N3CCc4ccccc4C3)n2)cc1 (tautomer)
c1ccc(CC/[NH+]=c2\nc(NCCN3CCCC3)[nH]c(N3CCc4ccccc4C3)n2)cc1 (cis-trans isomerization)
c1ccc(CC/[NH+]=c2\nc(NCCN3CCCC3)[nH]c(N3CCc4ccccc4C3)n2)cc1 (3D coordinates assigned)
c1ccc(CC/[NH+]=c2\nc(NCCN3CCCC3)[nH]c(N3CCc4ccccc4C3)n2)cc1 (nonaromatic ring conformer: 73.03619198892197 kcal/mol)

>  <smiles>  (49) 
c1ccc(CCNc2nc(NCCN3CCCC3)nc(N3CCc4ccccc4C3)n2)cc1

>  <score_type>  (49) 
oracle

>  <origin>  (49) 
autodockgpu

>  <m_score__min__energy>  (49) 
-9.9900000000000002

>  <m_primary>  (49) 
energy

>  <meeko>  (49) 
{"free_energy": -9.03, "intermolecular_energy": -11.71, "internal_energy": -2.13, "cluster_size": 12, "cluster_id": 1, "rank_in_cluster": 4}

>  <energy>  (49) 
-8.22

>  <cluster_rmsd>  (49) 
1.67

>  <rmsd>  (49) 
271.11

>  <cluster>  (49) 
1

$$$$
FPFWJFTVWFQHMH-FSECZMGHNA-O
     RDKit          3D

 67 71  0  0  0  0  0  0  0  0999 V2000
  140.2296   68.8007  229.3643 H   0  0  0  0  0  0  0  0  0  0  0  0
  140.3320   69.2810  228.3800 C   0  0  0  0  0  0  0  0  0  0  0  0
  140.2440   68.5120  227.2150 C   0  0  0  0  0  0  0  0  0  0  0  0
  140.0691   67.4282  227.2841 H   0  0  0  0  0  0  0  0  0  0  0  0
  140.3780   69.1190  225.9630 C   0  0  0  0  0  0  0  0  0  0  0  0
  140.3039   68.5108  225.0495 H   0  0  0  0  0  0  0  0  0  0  0  0
  140.6070   70.5030  225.8650 C   0  0  0  0  0  0  0  0  0  0  0  0
  140.7550   71.1560  224.5130 C   0  0  0  0  0  0  0  0  0  0  0  0
  140.9019   72.2373  224.6520 H   0  0  0  0  0  0  0  0  0  0  0  0
  141.6207   70.7066  224.0045 H   0  0  0  0  0  0  0  0  0  0  0  0
  139.5130   70.9290  223.6430 C   0  0  0  0  0  0  0  0  0  0  0  0
  139.7784   70.2809  222.7948 H   0  0  0  0  0  0  0  0  0  0  0  0
  138.7323   70.4522  224.2539 H   0  0  0  0  0  0  0  0  0  0  0  0
  139.0040   72.2060  223.1340 N   0  0  0  0  0  0  0  0  0  0  0  0
  138.0160   72.4570  223.3690 H   0  0  0  0  0  0  0  0  0  0  0  0
  139.7070   73.0260  222.4010 C   0  0  0  0  0  0  0  0  0  0  0  0
  139.3610   74.3380  222.3420 N   0  0  0  0  0  0  0  0  0  0  0  0
  140.0700   75.2060  221.5750 C   0  0  0  0  0  0  0  0  0  0  0  0
  139.6760   76.5880  221.5150 N   0  0  0  0  0  0  0  0  0  0  0  0
  139.6120   77.4180  222.7220 C   0  0  0  0  0  0  0  0  0  0  0  0
  139.7847   76.7861  223.6057 H   0  0  0  0  0  0  0  0  0  0  0  0
  138.6185   77.8866  222.7800 H   0  0  0  0  0  0  0  0  0  0  0  0
  140.6610   78.5010  222.6730 C   0  0  0  0  0  0  0  0  0  0  0  0
  140.9720   79.2090  223.8440 C   0  0  0  0  0  0  0  0  0  0  0  0
  140.4844   78.9374  224.7919 H   0  0  0  0  0  0  0  0  0  0  0  0
  141.8960   80.2560  223.8150 C   0  0  0  0  0  0  0  0  0  0  0  0
  142.1380   80.8008  224.7395 H   0  0  0  0  0  0  0  0  0  0  0  0
  142.5130   80.6120  222.6140 C   0  0  0  0  0  0  0  0  0  0  0  0
  143.2479   81.4303  222.5953 H   0  0  0  0  0  0  0  0  0  0  0  0
  142.1980   79.9300  221.4360 C   0  0  0  0  0  0  0  0  0  0  0  0
  142.6839   80.2178  220.4920 H   0  0  0  0  0  0  0  0  0  0  0  0
  141.2650   78.8790  221.4480 C   0  0  0  0  0  0  0  0  0  0  0  0
  141.0090   78.1100  220.1690 C   0  0  0  0  0  0  0  0  0  0  0  0
  141.8505   77.4237  219.9930 H   0  0  0  0  0  0  0  0  0  0  0  0
  140.9100   78.8374  219.3498 H   0  0  0  0  0  0  0  0  0  0  0  0
  139.7150   77.2970  220.2370 C   0  0  0  0  0  0  0  0  0  0  0  0
  139.6890   76.5720  219.4101 H   0  0  0  0  0  0  0  0  0  0  0  0
  138.8460   77.9660  220.1518 H   0  0  0  0  0  0  0  0  0  0  0  0
  141.1220   74.7500  220.8390 N   0  0  0  0  0  0  0  0  0  0  0  0
  141.6520   75.4010  220.2150 H   0  0  0  0  0  0  0  0  0  0  0  0
  141.4830   73.4390  220.8980 C   0  0  0  0  0  0  0  0  0  0  0  0
  142.5850   72.9620  220.1110 N   0  0  0  0  0  0  0  0  0  0  0  0
  142.3890   72.5620  219.1660 H   0  0  0  0  0  0  0  0  0  0  0  0
  143.9830   73.1910  220.4760 C   0  0  0  0  0  0  0  0  0  0  0  0
  144.0784   73.1869  221.5718 H   0  0  0  0  0  0  0  0  0  0  0  0
  144.6038   72.3925  220.0436 H   0  0  0  0  0  0  0  0  0  0  0  0
  144.4540   74.5440  219.9310 C   0  0  0  0  0  0  0  0  0  0  0  0
  144.6422   75.2250  220.7741 H   0  0  0  0  0  0  0  0  0  0  0  0
  145.3740   74.3851  219.3494 H   0  0  0  0  0  0  0  0  0  0  0  0
  143.4360   75.1440  219.0440 N   0  0  0  0  0  0  0  0  0  0  0  0
  143.6720   74.8180  217.6270 C   0  0  0  0  0  0  0  0  0  0  0  0
  144.6638   74.3565  217.5116 H   0  0  0  0  0  0  0  0  0  0  0  0
  142.9101   74.1101  217.2687 H   0  0  0  0  0  0  0  0  0  0  0  0
  143.6080   76.1110  216.8220 C   0  0  0  0  0  0  0  0  0  0  0  0
  144.6131   76.4071  216.4870 H   0  0  0  0  0  0  0  0  0  0  0  0
  142.9916   76.0022  215.9174 H   0  0  0  0  0  0  0  0  0  0  0  0
  143.0420   77.1390  217.7700 C   0  0  0  0  0  0  0  0  0  0  0  0
  143.5021   78.1235  217.5995 H   0  0  0  0  0  0  0  0  0  0  0  0
  141.9592   77.2834  217.6411 H   0  0  0  0  0  0  0  0  0  0  0  0
  143.4000   76.6080  219.1410 C   0  0  0  0  0  0  0  0  0  0  0  0
  144.3851   76.9897  219.4475 H   0  0  0  0  0  0  0  0  0  0  0  0
  142.6620   76.9315  219.8898 H   0  0  0  0  0  0  0  0  0  0  0  0
  140.7740   72.5850  221.6820 N   0  0  0  0  0  0  0  0  0  0  0  0
  140.7020   71.2690  227.0430 C   0  0  0  0  0  0  0  0  0  0  0  0
  140.8963   72.3498  226.9795 H   0  0  0  0  0  0  0  0  0  0  0  0
  140.5500   70.6600  228.2950 C   0  0  0  0  0  0  0  0  0  0  0  0
  140.6021   71.2662  229.2114 H   0  0  0  0  0  0  0  0  0  0  0  0
  1  2  1  0
  2  3  2  0
  3  4  1  0
  3  5  1  0
  5  6  1  0
  5  7  2  0
  7  8  1  0
  8  9  1  0
  8 10  1  0
  8 11  1  0
 11 12  1  0
 11 13  1  0
 11 14  1  0
 14 15  1  0
 14 16  2  0
 16 17  1  0
 17 18  2  0
 18 19  1  0
 19 20  1  0
 20 21  1  0
 20 22  1  0
 20 23  1  0
 23 24  2  0
 24 25  1  0
 24 26  1  0
 26 27  1  0
 26 28  2  0
 28 29  1  0
 28 30  1  0
 30 31  1  0
 30 32  2  0
 32 33  1  0
 33 34  1  0
 33 35  1  0
 33 36  1  0
 36 37  1  0
 36 38  1  0
 18 39  1  0
 39 40  1  0
 39 41  1  0
 41 42  1  0
 42 43  1  0
 42 44  1  0
 44 45  1  0
 44 46  1  0
 44 47  1  0
 47 48  1  0
 47 49  1  0
 47 50  1  0
 50 51  1  0
 51 52  1  0
 51 53  1  0
 51 54  1  0
 54 55  1  0
 54 56  1  0
 54 57  1  0
 57 58  1  0
 57 59  1  0
 57 60  1  0
 60 61  1  0
 60 62  1  0
 41 63  2  0
  7 64  1  0
 64 65  1  0
 64 66  2  0
 66 67  1  0
 66  2  1  0
 63 16  1  0
 36 19  1  0
 60 50  1  0
 32 23  1  0
M  CHG  1  14   1
M  END
>  <UniqueID>  (50) 
670

>  <SMILES>  (50) 
c1ccc(CC/[NH+]=c2\nc(NCCN3CCCC3)[nH]c(N3CCc4ccccc4C3)n2)cc1

>  <Energy>  (50) 
73.03619198892197

>  <Genealogy>  (50) 
c1ccc(CC[NH2+]c2nc(NCCN3CCCC3)nc(N3CCc4ccccc4C3)n2)cc1 (protonated)
c1ccc(CC[NH+]=c2nc(NCCN3CCCC3)[nH]c(N3CCc4ccccc4C3)n2)cc1 (tautomer)
c1ccc(CC/[NH+]=c2\nc(NCCN3CCCC3)[nH]c(N3CCc4ccccc4C3)n2)cc1 (cis-trans isomerization)
c1ccc(CC/[NH+]=c2\nc(NCCN3CCCC3)[nH]c(N3CCc4ccccc4C3)n2)cc1 (3D coordinates assigned)
c1ccc(CC/[NH+]=c2\nc(NCCN3CCCC3)[nH]c(N3CCc4ccccc4C3)n2)cc1 (nonaromatic ring conformer: 73.03619198892197 kcal/mol)

>  <smiles>  (50) 
c1ccc(CCNc2nc(NCCN3CCCC3)nc(N3CCc4ccccc4C3)n2)cc1

>  <score_type>  (50) 
oracle

>  <origin>  (50) 
autodockgpu

>  <m_score__min__energy>  (50) 
-9.9900000000000002

>  <m_primary>  (50) 
energy

>  <meeko>  (50) 
{"free_energy": -9.05, "intermolecular_energy": -11.73, "internal_energy": -2.07, "cluster_size": 12, "cluster_id": 1, "rank_in_cluster": 3}

>  <energy>  (50) 
-8.18

>  <cluster_rmsd>  (50) 
1.42

>  <rmsd>  (50) 
271.09

>  <cluster>  (50) 
1

$$$$
FPFWJFTVWFQHMH-FSECZMGHNA-O
     RDKit          3D

 67 71  0  0  0  0  0  0  0  0999 V2000
  139.8451   70.1166  229.3450 H   0  0  0  0  0  0  0  0  0  0  0  0
  140.0140   70.3940  228.2940 C   0  0  0  0  0  0  0  0  0  0  0  0
  139.5030   69.5920  227.2690 C   0  0  0  0  0  0  0  0  0  0  0  0
  138.9316   68.6848  227.5149 H   0  0  0  0  0  0  0  0  0  0  0  0
  139.7170   69.9410  225.9320 C   0  0  0  0  0  0  0  0  0  0  0  0
  139.3078   69.3101  225.1292 H   0  0  0  0  0  0  0  0  0  0  0  0
  140.4530   71.0950  225.6090 C   0  0  0  0  0  0  0  0  0  0  0  0
  140.6870   71.4680  224.1650 C   0  0  0  0  0  0  0  0  0  0  0  0
  141.1929   72.4439  224.1250 H   0  0  0  0  0  0  0  0  0  0  0  0
  141.3080   70.6870  223.7021 H   0  0  0  0  0  0  0  0  0  0  0  0
  139.3670   71.5580  223.3890 C   0  0  0  0  0  0  0  0  0  0  0  0
  138.9473   70.5482  223.2699 H   0  0  0  0  0  0  0  0  0  0  0  0
  138.6671   72.1953  223.9493 H   0  0  0  0  0  0  0  0  0  0  0  0
  139.5900   72.1470  222.0660 N   0  0  0  0  0  0  0  0  0  0  0  0
  139.2550   71.6060  221.2360 H   0  0  0  0  0  0  0  0  0  0  0  0
  140.1890   73.2910  221.8740 C   0  0  0  0  0  0  0  0  0  0  0  0
  141.4280   73.3150  221.3170 N   0  0  0  0  0  0  0  0  0  0  0  0
  142.0760   74.4920  221.1210 C   0  0  0  0  0  0  0  0  0  0  0  0
  143.3930   74.4920  220.5440 N   0  0  0  0  0  0  0  0  0  0  0  0
  144.3550   73.4240  220.8320 C   0  0  0  0  0  0  0  0  0  0  0  0
  143.9411   72.7634  221.6080 H   0  0  0  0  0  0  0  0  0  0  0  0
  145.2950   73.8761  221.1813 H   0  0  0  0  0  0  0  0  0  0  0  0
  144.6340   72.6160  219.5890 C   0  0  0  0  0  0  0  0  0  0  0  0
  145.2830   71.3770  219.7080 C   0  0  0  0  0  0  0  0  0  0  0  0
  145.5381   70.9871  220.7045 H   0  0  0  0  0  0  0  0  0  0  0  0
  145.6070   70.6360  218.5690 C   0  0  0  0  0  0  0  0  0  0  0  0
  146.1097   69.6630  218.6717 H   0  0  0  0  0  0  0  0  0  0  0  0
  145.2940   71.1280  217.3010 C   0  0  0  0  0  0  0  0  0  0  0  0
  145.5421   70.5379  216.4064 H   0  0  0  0  0  0  0  0  0  0  0  0
  144.6660   72.3690  217.1660 C   0  0  0  0  0  0  0  0  0  0  0  0
  144.4251   72.7531  216.1638 H   0  0  0  0  0  0  0  0  0  0  0  0
  144.3400   73.1300  218.3020 C   0  0  0  0  0  0  0  0  0  0  0  0
  143.5900   74.4320  218.1220 C   0  0  0  0  0  0  0  0  0  0  0  0
  142.5341   74.2070  217.9113 H   0  0  0  0  0  0  0  0  0  0  0  0
  144.0552   74.9788  217.2886 H   0  0  0  0  0  0  0  0  0  0  0  0
  143.6670   75.3170  219.3680 C   0  0  0  0  0  0  0  0  0  0  0  0
  142.9203   76.1217  219.2977 H   0  0  0  0  0  0  0  0  0  0  0  0
  144.6680   75.7658  219.4488 H   0  0  0  0  0  0  0  0  0  0  0  0
  141.4870   75.6580  221.5100 N   0  0  0  0  0  0  0  0  0  0  0  0
  141.9900   76.5670  221.4000 H   0  0  0  0  0  0  0  0  0  0  0  0
  140.2420   75.6460  222.0610 C   0  0  0  0  0  0  0  0  0  0  0  0
  139.6320   76.8760  222.4810 N   0  0  0  0  0  0  0  0  0  0  0  0
  139.8110   77.2190  223.4510 H   0  0  0  0  0  0  0  0  0  0  0  0
  138.9370   77.7760  221.5590 C   0  0  0  0  0  0  0  0  0  0  0  0
  139.1445   77.4677  220.5237 H   0  0  0  0  0  0  0  0  0  0  0  0
  137.8555   77.7270  221.7539 H   0  0  0  0  0  0  0  0  0  0  0  0
  139.4200   79.2160  221.7660 C   0  0  0  0  0  0  0  0  0  0  0  0
  139.8460   79.5911  220.8238 H   0  0  0  0  0  0  0  0  0  0  0  0
  138.5621   79.8317  222.0742 H   0  0  0  0  0  0  0  0  0  0  0  0
  140.4510   79.2840  222.8230 N   0  0  0  0  0  0  0  0  0  0  0  0
  140.4860   80.6020  223.4810 C   0  0  0  0  0  0  0  0  0  0  0  0
  139.8680   81.3160  222.9169 H   0  0  0  0  0  0  0  0  0  0  0  0
  140.0904   80.5255  224.5046 H   0  0  0  0  0  0  0  0  0  0  0  0
  141.9320   81.0830  223.5110 C   0  0  0  0  0  0  0  0  0  0  0  0
  142.0805   81.9041  222.7942 H   0  0  0  0  0  0  0  0  0  0  0  0
  142.2161   81.4708  224.5004 H   0  0  0  0  0  0  0  0  0  0  0  0
  142.7560   79.8820  223.1180 C   0  0  0  0  0  0  0  0  0  0  0  0
  143.6230   80.1840  222.5122 H   0  0  0  0  0  0  0  0  0  0  0  0
  143.1644   79.3460  223.9874 H   0  0  0  0  0  0  0  0  0  0  0  0
  141.8020   79.0330  222.3060 C   0  0  0  0  0  0  0  0  0  0  0  0
  141.8576   79.3143  221.2440 H   0  0  0  0  0  0  0  0  0  0  0  0
  142.0603   77.9670  222.3888 H   0  0  0  0  0  0  0  0  0  0  0  0
  139.6000   74.4610  222.2360 N   0  0  0  0  0  0  0  0  0  0  0  0
  140.9720   71.8930  226.6470 C   0  0  0  0  0  0  0  0  0  0  0  0
  141.5618   72.7898  226.4063 H   0  0  0  0  0  0  0  0  0  0  0  0
  140.7400   71.5490  227.9840 C   0  0  0  0  0  0  0  0  0  0  0  0
  141.1287   72.1872  228.7912 H   0  0  0  0  0  0  0  0  0  0  0  0
  1  2  1  0
  2  3  2  0
  3  4  1  0
  3  5  1  0
  5  6  1  0
  5  7  2  0
  7  8  1  0
  8  9  1  0
  8 10  1  0
  8 11  1  0
 11 12  1  0
 11 13  1  0
 11 14  1  0
 14 15  1  0
 14 16  2  0
 16 17  1  0
 17 18  2  0
 18 19  1  0
 19 20  1  0
 20 21  1  0
 20 22  1  0
 20 23  1  0
 23 24  2  0
 24 25  1  0
 24 26  1  0
 26 27  1  0
 26 28  2  0
 28 29  1  0
 28 30  1  0
 30 31  1  0
 30 32  2  0
 32 33  1  0
 33 34  1  0
 33 35  1  0
 33 36  1  0
 36 37  1  0
 36 38  1  0
 18 39  1  0
 39 40  1  0
 39 41  1  0
 41 42  1  0
 42 43  1  0
 42 44  1  0
 44 45  1  0
 44 46  1  0
 44 47  1  0
 47 48  1  0
 47 49  1  0
 47 50  1  0
 50 51  1  0
 51 52  1  0
 51 53  1  0
 51 54  1  0
 54 55  1  0
 54 56  1  0
 54 57  1  0
 57 58  1  0
 57 59  1  0
 57 60  1  0
 60 61  1  0
 60 62  1  0
 41 63  2  0
  7 64  1  0
 64 65  1  0
 64 66  2  0
 66 67  1  0
 66  2  1  0
 63 16  1  0
 36 19  1  0
 60 50  1  0
 32 23  1  0
M  CHG  1  14   1
M  END
>  <UniqueID>  (51) 
670

>  <SMILES>  (51) 
c1ccc(CC/[NH+]=c2\nc(NCCN3CCCC3)[nH]c(N3CCc4ccccc4C3)n2)cc1

>  <Energy>  (51) 
73.03619198892197

>  <Genealogy>  (51) 
c1ccc(CC[NH2+]c2nc(NCCN3CCCC3)nc(N3CCc4ccccc4C3)n2)cc1 (protonated)
c1ccc(CC[NH+]=c2nc(NCCN3CCCC3)[nH]c(N3CCc4ccccc4C3)n2)cc1 (tautomer)
c1ccc(CC/[NH+]=c2\nc(NCCN3CCCC3)[nH]c(N3CCc4ccccc4C3)n2)cc1 (cis-trans isomerization)
c1ccc(CC/[NH+]=c2\nc(NCCN3CCCC3)[nH]c(N3CCc4ccccc4C3)n2)cc1 (3D coordinates assigned)
c1ccc(CC/[NH+]=c2\nc(NCCN3CCCC3)[nH]c(N3CCc4ccccc4C3)n2)cc1 (nonaromatic ring conformer: 73.03619198892197 kcal/mol)

>  <smiles>  (51) 
c1ccc(CCNc2nc(NCCN3CCCC3)nc(N3CCc4ccccc4C3)n2)cc1

>  <score_type>  (51) 
oracle

>  <origin>  (51) 
autodockgpu

>  <m_score__min__energy>  (51) 
-9.9900000000000002

>  <m_primary>  (51) 
energy

>  <meeko>  (51) 
{"free_energy": -8.97, "intermolecular_energy": -11.66, "internal_energy": -1.53, "cluster_size": 4, "cluster_id": 2, "rank_in_cluster": 1}

>  <energy>  (51) 
-8.08

>  <cluster_rmsd>  (51) 
1.65

>  <rmsd>  (51) 
271.1

>  <cluster>  (51) 
1

$$$$
FPFWJFTVWFQHMH-FSECZMGHNA-O
     RDKit          3D

 67 71  0  0  0  0  0  0  0  0999 V2000
  140.3807   68.7665  229.0971 H   0  0  0  0  0  0  0  0  0  0  0  0
  140.4430   69.3600  228.1730 C   0  0  0  0  0  0  0  0  0  0  0  0
  140.6490   70.7410  228.2430 C   0  0  0  0  0  0  0  0  0  0  0  0
  140.7515   71.2316  229.2222 H   0  0  0  0  0  0  0  0  0  0  0  0
  140.7250   71.5000  227.0710 C   0  0  0  0  0  0  0  0  0  0  0  0
  140.8918   72.5856  227.1314 H   0  0  0  0  0  0  0  0  0  0  0  0
  140.5890   70.8810  225.8150 C   0  0  0  0  0  0  0  0  0  0  0  0
  140.6680   71.7010  224.5510 C   0  0  0  0  0  0  0  0  0  0  0  0
  140.2002   72.6803  224.7300 H   0  0  0  0  0  0  0  0  0  0  0  0
  141.7277   71.8180  224.2801 H   0  0  0  0  0  0  0  0  0  0  0  0
  139.9470   71.0090  223.3890 C   0  0  0  0  0  0  0  0  0  0  0  0
  140.2195   69.9434  223.3769 H   0  0  0  0  0  0  0  0  0  0  0  0
  138.8614   71.1209  223.5263 H   0  0  0  0  0  0  0  0  0  0  0  0
  140.3290   71.6190  222.1130 N   0  0  0  0  0  0  0  0  0  0  0  0
  140.5250   70.9760  221.3110 H   0  0  0  0  0  0  0  0  0  0  0  0
  140.4490   72.9060  221.9320 C   0  0  0  0  0  0  0  0  0  0  0  0
  141.5600   73.3990  221.3250 N   0  0  0  0  0  0  0  0  0  0  0  0
  141.7110   74.7360  221.1400 C   0  0  0  0  0  0  0  0  0  0  0  0
  142.9030   75.2360  220.5080 N   0  0  0  0  0  0  0  0  0  0  0  0
  144.0960   74.3990  220.3540 C   0  0  0  0  0  0  0  0  0  0  0  0
  143.9439   73.4498  220.8886 H   0  0  0  0  0  0  0  0  0  0  0  0
  144.9624   74.9336  220.7706 H   0  0  0  0  0  0  0  0  0  0  0  0
  144.3540   74.1120  218.8960 C   0  0  0  0  0  0  0  0  0  0  0  0
  145.2560   73.0940  218.5460 C   0  0  0  0  0  0  0  0  0  0  0  0
  145.7270   72.4871  219.3332 H   0  0  0  0  0  0  0  0  0  0  0  0
  145.5590   72.8470  217.2050 C   0  0  0  0  0  0  0  0  0  0  0  0
  146.2622   72.0436  216.9401 H   0  0  0  0  0  0  0  0  0  0  0  0
  144.9710   73.6180  216.2000 C   0  0  0  0  0  0  0  0  0  0  0  0
  145.2035   73.4148  215.1442 H   0  0  0  0  0  0  0  0  0  0  0  0
  144.0870   74.6480  216.5350 C   0  0  0  0  0  0  0  0  0  0  0  0
  143.6298   75.2549  215.7396 H   0  0  0  0  0  0  0  0  0  0  0  0
  143.7780   74.9140  217.8790 C   0  0  0  0  0  0  0  0  0  0  0  0
  142.7570   75.9830  218.2000 C   0  0  0  0  0  0  0  0  0  0  0  0
  141.7515   75.5849  217.9987 H   0  0  0  0  0  0  0  0  0  0  0  0
  142.9737   76.8581  217.5698 H   0  0  0  0  0  0  0  0  0  0  0  0
  142.8280   76.4270  219.6630 C   0  0  0  0  0  0  0  0  0  0  0  0
  141.9288   77.0068  219.9185 H   0  0  0  0  0  0  0  0  0  0  0  0
  143.7152   77.0576  219.8221 H   0  0  0  0  0  0  0  0  0  0  0  0
  140.7510   75.5920  221.5900 N   0  0  0  0  0  0  0  0  0  0  0  0
  140.8740   76.6250  221.4870 H   0  0  0  0  0  0  0  0  0  0  0  0
  139.6310   75.1080  222.1910 C   0  0  0  0  0  0  0  0  0  0  0  0
  138.6280   76.0150  222.6760 N   0  0  0  0  0  0  0  0  0  0  0  0
  138.1090   75.7690  223.5490 H   0  0  0  0  0  0  0  0  0  0  0  0
  138.4350   77.3570  222.1250 C   0  0  0  0  0  0  0  0  0  0  0  0
  138.8076   77.3826  221.0903 H   0  0  0  0  0  0  0  0  0  0  0  0
  137.3630   77.6029  222.1428 H   0  0  0  0  0  0  0  0  0  0  0  0
  139.2000   78.3860  222.9650 C   0  0  0  0  0  0  0  0  0  0  0  0
  138.7135   79.3672  222.8620 H   0  0  0  0  0  0  0  0  0  0  0  0
  139.1893   78.0579  224.0149 H   0  0  0  0  0  0  0  0  0  0  0  0
  140.6060   78.4950  222.5210 N   0  0  0  0  0  0  0  0  0  0  0  0
  141.5310   78.7040  223.6480 C   0  0  0  0  0  0  0  0  0  0  0  0
  140.9602   78.9252  224.5619 H   0  0  0  0  0  0  0  0  0  0  0  0
  142.1320   77.7986  223.8187 H   0  0  0  0  0  0  0  0  0  0  0  0
  142.4380   79.8810  223.3090 C   0  0  0  0  0  0  0  0  0  0  0  0
  142.1695   80.7608  223.9122 H   0  0  0  0  0  0  0  0  0  0  0  0
  143.4943   79.6601  223.5221 H   0  0  0  0  0  0  0  0  0  0  0  0
  142.2040   80.1530  221.8440 C   0  0  0  0  0  0  0  0  0  0  0  0
  142.2475   81.2320  221.6347 H   0  0  0  0  0  0  0  0  0  0  0  0
  142.9648   79.6878  221.2000 H   0  0  0  0  0  0  0  0  0  0  0  0
  140.8140   79.6110  221.5890 C   0  0  0  0  0  0  0  0  0  0  0  0
  140.0646   80.3961  221.7677 H   0  0  0  0  0  0  0  0  0  0  0  0
  140.7110   79.2742  220.5469 H   0  0  0  0  0  0  0  0  0  0  0  0
  139.4850   73.7670  222.3560 N   0  0  0  0  0  0  0  0  0  0  0  0
  140.3740   69.4900  225.7540 C   0  0  0  0  0  0  0  0  0  0  0  0
  140.2511   68.9972  224.7783 H   0  0  0  0  0  0  0  0  0  0  0  0
  140.3160   68.7320  226.9300 C   0  0  0  0  0  0  0  0  0  0  0  0
  140.1706   67.6430  226.8760 H   0  0  0  0  0  0  0  0  0  0  0  0
  1  2  1  0
  2  3  2  0
  3  4  1  0
  3  5  1  0
  5  6  1  0
  5  7  2  0
  7  8  1  0
  8  9  1  0
  8 10  1  0
  8 11  1  0
 11 12  1  0
 11 13  1  0
 11 14  1  0
 14 15  1  0
 14 16  2  0
 16 17  1  0
 17 18  2  0
 18 19  1  0
 19 20  1  0
 20 21  1  0
 20 22  1  0
 20 23  1  0
 23 24  2  0
 24 25  1  0
 24 26  1  0
 26 27  1  0
 26 28  2  0
 28 29  1  0
 28 30  1  0
 30 31  1  0
 30 32  2  0
 32 33  1  0
 33 34  1  0
 33 35  1  0
 33 36  1  0
 36 37  1  0
 36 38  1  0
 18 39  1  0
 39 40  1  0
 39 41  1  0
 41 42  1  0
 42 43  1  0
 42 44  1  0
 44 45  1  0
 44 46  1  0
 44 47  1  0
 47 48  1  0
 47 49  1  0
 47 50  1  0
 50 51  1  0
 51 52  1  0
 51 53  1  0
 51 54  1  0
 54 55  1  0
 54 56  1  0
 54 57  1  0
 57 58  1  0
 57 59  1  0
 57 60  1  0
 60 61  1  0
 60 62  1  0
 41 63  2  0
  7 64  1  0
 64 65  1  0
 64 66  2  0
 66 67  1  0
 66  2  1  0
 63 16  1  0
 36 19  1  0
 60 50  1  0
 32 23  1  0
M  CHG  1  14   1
M  END
>  <UniqueID>  (52) 
670

>  <SMILES>  (52) 
c1ccc(CC/[NH+]=c2\nc(NCCN3CCCC3)[nH]c(N3CCc4ccccc4C3)n2)cc1

>  <Energy>  (52) 
73.03619198892197

>  <Genealogy>  (52) 
c1ccc(CC[NH2+]c2nc(NCCN3CCCC3)nc(N3CCc4ccccc4C3)n2)cc1 (protonated)
c1ccc(CC[NH+]=c2nc(NCCN3CCCC3)[nH]c(N3CCc4ccccc4C3)n2)cc1 (tautomer)
c1ccc(CC/[NH+]=c2\nc(NCCN3CCCC3)[nH]c(N3CCc4ccccc4C3)n2)cc1 (cis-trans isomerization)
c1ccc(CC/[NH+]=c2\nc(NCCN3CCCC3)[nH]c(N3CCc4ccccc4C3)n2)cc1 (3D coordinates assigned)
c1ccc(CC/[NH+]=c2\nc(NCCN3CCCC3)[nH]c(N3CCc4ccccc4C3)n2)cc1 (nonaromatic ring conformer: 73.03619198892197 kcal/mol)

>  <smiles>  (52) 
c1ccc(CCNc2nc(NCCN3CCCC3)nc(N3CCc4ccccc4C3)n2)cc1

>  <score_type>  (52) 
oracle

>  <origin>  (52) 
autodockgpu

>  <m_score__min__energy>  (52) 
-9.9900000000000002

>  <m_primary>  (52) 
energy

>  <meeko>  (52) 
{"free_energy": -8.58, "intermolecular_energy": -11.26, "internal_energy": -1.79, "cluster_size": 4, "cluster_id": 2, "rank_in_cluster": 3}

>  <energy>  (52) 
-8.07

>  <cluster_rmsd>  (52) 
1.6

>  <rmsd>  (52) 
271.12

>  <cluster>  (52) 
1

$$$$
FPFWJFTVWFQHMH-FSECZMGHNA-O
     RDKit          3D

 67 71  0  0  0  0  0  0  0  0999 V2000
  141.3918   71.8002  229.4153 H   0  0  0  0  0  0  0  0  0  0  0  0
  141.0940   71.4960  228.4010 C   0  0  0  0  0  0  0  0  0  0  0  0
  140.3660   70.3170  228.2110 C   0  0  0  0  0  0  0  0  0  0  0  0
  140.0889   69.6967  229.0762 H   0  0  0  0  0  0  0  0  0  0  0  0
  139.9900   69.9260  226.9220 C   0  0  0  0  0  0  0  0  0  0  0  0
  139.4142   69.0000  226.7774 H   0  0  0  0  0  0  0  0  0  0  0  0
  140.3440   70.7100  225.8100 C   0  0  0  0  0  0  0  0  0  0  0  0
  139.9400   70.2840  224.4200 C   0  0  0  0  0  0  0  0  0  0  0  0
  140.8035   70.3931  223.7473 H   0  0  0  0  0  0  0  0  0  0  0  0
  139.6074   69.2363  224.4624 H   0  0  0  0  0  0  0  0  0  0  0  0
  138.7820   71.1360  223.8870 C   0  0  0  0  0  0  0  0  0  0  0  0
  137.8347   70.6001  224.0466 H   0  0  0  0  0  0  0  0  0  0  0  0
  138.7693   72.0958  224.4242 H   0  0  0  0  0  0  0  0  0  0  0  0
  138.9540   71.3960  222.4550 N   0  0  0  0  0  0  0  0  0  0  0  0
  138.4380   70.7750  221.7890 H   0  0  0  0  0  0  0  0  0  0  0  0
  139.7170   72.3390  221.9760 C   0  0  0  0  0  0  0  0  0  0  0  0
  139.2940   73.6300  222.0130 N   0  0  0  0  0  0  0  0  0  0  0  0
  140.0660   74.6250  221.5060 C   0  0  0  0  0  0  0  0  0  0  0  0
  139.5900   75.9830  221.5430 N   0  0  0  0  0  0  0  0  0  0  0  0
  139.7860   76.8310  222.7230 C   0  0  0  0  0  0  0  0  0  0  0  0
  140.2132   76.2267  223.5368 H   0  0  0  0  0  0  0  0  0  0  0  0
  138.8144   77.2454  223.0301 H   0  0  0  0  0  0  0  0  0  0  0  0
  140.7240   77.9680  222.4030 C   0  0  0  0  0  0  0  0  0  0  0  0
  141.2800   78.7140  223.4550 C   0  0  0  0  0  0  0  0  0  0  0  0
  141.0653   78.4336  224.4968 H   0  0  0  0  0  0  0  0  0  0  0  0
  142.1040   79.8100  223.1870 C   0  0  0  0  0  0  0  0  0  0  0  0
  142.5401   80.3849  224.0172 H   0  0  0  0  0  0  0  0  0  0  0  0
  142.3750   80.1770  221.8670 C   0  0  0  0  0  0  0  0  0  0  0  0
  143.0317   81.0345  221.6587 H   0  0  0  0  0  0  0  0  0  0  0  0
  141.8120   79.4550  220.8100 C   0  0  0  0  0  0  0  0  0  0  0  0
  142.0258   79.7502  219.7721 H   0  0  0  0  0  0  0  0  0  0  0  0
  140.9750   78.3550  221.0640 C   0  0  0  0  0  0  0  0  0  0  0  0
  140.4480   77.5490  219.8960 C   0  0  0  0  0  0  0  0  0  0  0  0
  141.2556   76.9066  219.5150 H   0  0  0  0  0  0  0  0  0  0  0  0
  140.1025   78.2543  219.1258 H   0  0  0  0  0  0  0  0  0  0  0  0
  139.2630   76.6680  220.2940 C   0  0  0  0  0  0  0  0  0  0  0  0
  139.0705   75.9269  219.5043 H   0  0  0  0  0  0  0  0  0  0  0  0
  138.3635   77.2866  220.4290 H   0  0  0  0  0  0  0  0  0  0  0  0
  141.2650   74.3230  220.9340 N   0  0  0  0  0  0  0  0  0  0  0  0
  141.8510   75.0760  220.5070 H   0  0  0  0  0  0  0  0  0  0  0  0
  141.7020   73.0350  220.9000 C   0  0  0  0  0  0  0  0  0  0  0  0
  142.9610   72.7210  220.2830 N   0  0  0  0  0  0  0  0  0  0  0  0
  142.9590   72.2910  219.3310 H   0  0  0  0  0  0  0  0  0  0  0  0
  144.2460   73.1560  220.8310 C   0  0  0  0  0  0  0  0  0  0  0  0
  144.1702   73.2243  221.9263 H   0  0  0  0  0  0  0  0  0  0  0  0
  145.0212   72.4262  220.5546 H   0  0  0  0  0  0  0  0  0  0  0  0
  144.6230   74.5290  220.2620 C   0  0  0  0  0  0  0  0  0  0  0  0
  144.8026   75.2258  221.0940 H   0  0  0  0  0  0  0  0  0  0  0  0
  145.5298   74.4167  219.6496 H   0  0  0  0  0  0  0  0  0  0  0  0
  143.5430   75.0650  219.4080 N   0  0  0  0  0  0  0  0  0  0  0  0
  143.7290   74.7130  217.9890 C   0  0  0  0  0  0  0  0  0  0  0  0
  144.7327   74.2883  217.8395 H   0  0  0  0  0  0  0  0  0  0  0  0
  142.9813   73.9668  217.6823 H   0  0  0  0  0  0  0  0  0  0  0  0
  143.5770   75.9810  217.1580 C   0  0  0  0  0  0  0  0  0  0  0  0
  144.5533   76.3076  216.7705 H   0  0  0  0  0  0  0  0  0  0  0  0
  142.9255   75.8251  216.2855 H   0  0  0  0  0  0  0  0  0  0  0  0
  143.0130   77.0100  218.1060 C   0  0  0  0  0  0  0  0  0  0  0  0
  143.4254   78.0069  217.8914 H   0  0  0  0  0  0  0  0  0  0  0  0
  141.9206   77.1085  218.0228 H   0  0  0  0  0  0  0  0  0  0  0  0
  143.4520   76.5290  219.4720 C   0  0  0  0  0  0  0  0  0  0  0  0
  144.4333   76.9569  219.7249 H   0  0  0  0  0  0  0  0  0  0  0  0
  142.7352   76.8423  220.2453 H   0  0  0  0  0  0  0  0  0  0  0  0
  140.9260   72.0510  221.4240 N   0  0  0  0  0  0  0  0  0  0  0  0
  141.0840   71.8920  226.0100 C   0  0  0  0  0  0  0  0  0  0  0  0
  141.3801   72.5055  225.1463 H   0  0  0  0  0  0  0  0  0  0  0  0
  141.4440   72.2890  227.3030 C   0  0  0  0  0  0  0  0  0  0  0  0
  142.0021   73.2245  227.4558 H   0  0  0  0  0  0  0  0  0  0  0  0
  1  2  1  0
  2  3  2  0
  3  4  1  0
  3  5  1  0
  5  6  1  0
  5  7  2  0
  7  8  1  0
  8  9  1  0
  8 10  1  0
  8 11  1  0
 11 12  1  0
 11 13  1  0
 11 14  1  0
 14 15  1  0
 14 16  2  0
 16 17  1  0
 17 18  2  0
 18 19  1  0
 19 20  1  0
 20 21  1  0
 20 22  1  0
 20 23  1  0
 23 24  2  0
 24 25  1  0
 24 26  1  0
 26 27  1  0
 26 28  2  0
 28 29  1  0
 28 30  1  0
 30 31  1  0
 30 32  2  0
 32 33  1  0
 33 34  1  0
 33 35  1  0
 33 36  1  0
 36 37  1  0
 36 38  1  0
 18 39  1  0
 39 40  1  0
 39 41  1  0
 41 42  1  0
 42 43  1  0
 42 44  1  0
 44 45  1  0
 44 46  1  0
 44 47  1  0
 47 48  1  0
 47 49  1  0
 47 50  1  0
 50 51  1  0
 51 52  1  0
 51 53  1  0
 51 54  1  0
 54 55  1  0
 54 56  1  0
 54 57  1  0
 57 58  1  0
 57 59  1  0
 57 60  1  0
 60 61  1  0
 60 62  1  0
 41 63  2  0
  7 64  1  0
 64 65  1  0
 64 66  2  0
 66 67  1  0
 66  2  1  0
 63 16  1  0
 36 19  1  0
 60 50  1  0
 32 23  1  0
M  CHG  1  14   1
M  END
>  <UniqueID>  (53) 
670

>  <SMILES>  (53) 
c1ccc(CC/[NH+]=c2\nc(NCCN3CCCC3)[nH]c(N3CCc4ccccc4C3)n2)cc1

>  <Energy>  (53) 
73.03619198892197

>  <Genealogy>  (53) 
c1ccc(CC[NH2+]c2nc(NCCN3CCCC3)nc(N3CCc4ccccc4C3)n2)cc1 (protonated)
c1ccc(CC[NH+]=c2nc(NCCN3CCCC3)[nH]c(N3CCc4ccccc4C3)n2)cc1 (tautomer)
c1ccc(CC/[NH+]=c2\nc(NCCN3CCCC3)[nH]c(N3CCc4ccccc4C3)n2)cc1 (cis-trans isomerization)
c1ccc(CC/[NH+]=c2\nc(NCCN3CCCC3)[nH]c(N3CCc4ccccc4C3)n2)cc1 (3D coordinates assigned)
c1ccc(CC/[NH+]=c2\nc(NCCN3CCCC3)[nH]c(N3CCc4ccccc4C3)n2)cc1 (nonaromatic ring conformer: 73.03619198892197 kcal/mol)

>  <smiles>  (53) 
c1ccc(CCNc2nc(NCCN3CCCC3)nc(N3CCc4ccccc4C3)n2)cc1

>  <score_type>  (53) 
oracle

>  <origin>  (53) 
autodockgpu

>  <m_score__min__energy>  (53) 
-9.9900000000000002

>  <m_primary>  (53) 
energy

>  <meeko>  (53) 
{"free_energy": -8.18, "intermolecular_energy": -10.86, "internal_energy": -2.39, "cluster_size": 12, "cluster_id": 1, "rank_in_cluster": 10}

>  <energy>  (53) 
-8.97

>  <cluster_rmsd>  (53) 
0.0

>  <rmsd>  (53) 
271.29

>  <cluster>  (53) 
2

$$$$
FPFWJFTVWFQHMH-FSECZMGHNA-O
     RDKit          3D

 67 71  0  0  0  0  0  0  0  0999 V2000
  141.2093   70.2184  229.3169 H   0  0  0  0  0  0  0  0  0  0  0  0
  140.8710   70.4050  228.2870 C   0  0  0  0  0  0  0  0  0  0  0  0
  141.1120   71.6450  227.6860 C   0  0  0  0  0  0  0  0  0  0  0  0
  141.6420   72.4313  228.2435 H   0  0  0  0  0  0  0  0  0  0  0  0
  140.6810   71.8870  226.3790 C   0  0  0  0  0  0  0  0  0  0  0  0
  140.8780   72.8619  225.9092 H   0  0  0  0  0  0  0  0  0  0  0  0
  139.9960   70.8890  225.6610 C   0  0  0  0  0  0  0  0  0  0  0  0
  139.5280   71.1540  224.2510 C   0  0  0  0  0  0  0  0  0  0  0  0
  138.9426   70.2912  223.9004 H   0  0  0  0  0  0  0  0  0  0  0  0
  138.9142   72.0668  224.2564 H   0  0  0  0  0  0  0  0  0  0  0  0
  140.7100   71.3740  223.3000 C   0  0  0  0  0  0  0  0  0  0  0  0
  141.4739   71.9823  223.8064 H   0  0  0  0  0  0  0  0  0  0  0  0
  141.1288   70.3961  223.0203 H   0  0  0  0  0  0  0  0  0  0  0  0
  140.2690   72.0660  222.0860 N   0  0  0  0  0  0  0  0  0  0  0  0
  140.3440   71.5450  221.1820 H   0  0  0  0  0  0  0  0  0  0  0  0
  139.8070   73.2870  222.0750 C   0  0  0  0  0  0  0  0  0  0  0  0
  138.4670   73.4990  222.1520 N   0  0  0  0  0  0  0  0  0  0  0  0
  137.9640   74.7600  222.1270 C   0  0  0  0  0  0  0  0  0  0  0  0
  136.5410   74.9600  222.1940 N   0  0  0  0  0  0  0  0  0  0  0  0
  135.6520   73.9430  222.7640 C   0  0  0  0  0  0  0  0  0  0  0  0
  136.2335   73.0356  222.9841 H   0  0  0  0  0  0  0  0  0  0  0  0
  134.8576   73.7160  222.0378 H   0  0  0  0  0  0  0  0  0  0  0  0
  135.0210   74.4500  224.0370 C   0  0  0  0  0  0  0  0  0  0  0  0
  134.3810   73.5400  224.8940 C   0  0  0  0  0  0  0  0  0  0  0  0
  134.3876   72.4665  224.6542 H   0  0  0  0  0  0  0  0  0  0  0  0
  133.7360   73.9890  226.0490 C   0  0  0  0  0  0  0  0  0  0  0  0
  133.2432   73.2684  226.7183 H   0  0  0  0  0  0  0  0  0  0  0  0
  133.7160   75.3510  226.3550 C   0  0  0  0  0  0  0  0  0  0  0  0
  133.2148   75.7010  227.2695 H   0  0  0  0  0  0  0  0  0  0  0  0
  134.3320   76.2710  225.5010 C   0  0  0  0  0  0  0  0  0  0  0  0
  134.3110   77.3431  225.7463 H   0  0  0  0  0  0  0  0  0  0  0  0
  134.9780   75.8350  224.3310 C   0  0  0  0  0  0  0  0  0  0  0  0
  135.7020   76.8490  223.4710 C   0  0  0  0  0  0  0  0  0  0  0  0
  136.6541   77.1103  223.9560 H   0  0  0  0  0  0  0  0  0  0  0  0
  135.0523   77.7305  223.3667 H   0  0  0  0  0  0  0  0  0  0  0  0
  135.9940   76.3100  222.0690 C   0  0  0  0  0  0  0  0  0  0  0  0
  136.7244   76.9609  221.5662 H   0  0  0  0  0  0  0  0  0  0  0  0
  135.0689   76.2875  221.4743 H   0  0  0  0  0  0  0  0  0  0  0  0
  138.8100   75.8200  221.9990 N   0  0  0  0  0  0  0  0  0  0  0  0
  138.4330   76.7930  221.9400 H   0  0  0  0  0  0  0  0  0  0  0  0
  140.1550   75.6200  221.9300 C   0  0  0  0  0  0  0  0  0  0  0  0
  141.0410   76.7410  221.7820 N   0  0  0  0  0  0  0  0  0  0  0  0
  141.7910   76.8830  222.4950 H   0  0  0  0  0  0  0  0  0  0  0  0
  141.0760   77.5750  220.5810 C   0  0  0  0  0  0  0  0  0  0  0  0
  141.6229   77.0462  219.7865 H   0  0  0  0  0  0  0  0  0  0  0  0
  140.0458   77.7790  220.2539 H   0  0  0  0  0  0  0  0  0  0  0  0
  141.7790   78.9030  220.8830 C   0  0  0  0  0  0  0  0  0  0  0  0
  142.7820   78.8894  220.4316 H   0  0  0  0  0  0  0  0  0  0  0  0
  141.1766   79.7212  220.4615 H   0  0  0  0  0  0  0  0  0  0  0  0
  141.9080   79.1170  222.3390 N   0  0  0  0  0  0  0  0  0  0  0  0
  140.6820   79.6830  222.9290 C   0  0  0  0  0  0  0  0  0  0  0  0
  139.9981   80.0041  222.1295 H   0  0  0  0  0  0  0  0  0  0  0  0
  140.1731   78.9270  223.5450 H   0  0  0  0  0  0  0  0  0  0  0  0
  141.0740   80.8820  223.7850 C   0  0  0  0  0  0  0  0  0  0  0  0
  140.7713   81.8200  223.2966 H   0  0  0  0  0  0  0  0  0  0  0  0
  140.5819   80.8631  224.7686 H   0  0  0  0  0  0  0  0  0  0  0  0
  142.5760   80.8090  223.9050 C   0  0  0  0  0  0  0  0  0  0  0  0
  143.0178   81.8164  223.9060 H   0  0  0  0  0  0  0  0  0  0  0  0
  142.9039   80.3330  224.8409 H   0  0  0  0  0  0  0  0  0  0  0  0
  143.0030   80.0350  222.6760 C   0  0  0  0  0  0  0  0  0  0  0  0
  143.1861   80.7262  221.8401 H   0  0  0  0  0  0  0  0  0  0  0  0
  143.9330   79.4798  222.8678 H   0  0  0  0  0  0  0  0  0  0  0  0
  140.6450   74.3530  221.9720 N   0  0  0  0  0  0  0  0  0  0  0  0
  139.7500   69.6470  226.2750 C   0  0  0  0  0  0  0  0  0  0  0  0
  139.2020   68.8651  225.7288 H   0  0  0  0  0  0  0  0  0  0  0  0
  140.2000   69.4020  227.5790 C   0  0  0  0  0  0  0  0  0  0  0  0
  140.0258   68.4214  228.0460 H   0  0  0  0  0  0  0  0  0  0  0  0
  1  2  1  0
  2  3  2  0
  3  4  1  0
  3  5  1  0
  5  6  1  0
  5  7  2  0
  7  8  1  0
  8  9  1  0
  8 10  1  0
  8 11  1  0
 11 12  1  0
 11 13  1  0
 11 14  1  0
 14 15  1  0
 14 16  2  0
 16 17  1  0
 17 18  2  0
 18 19  1  0
 19 20  1  0
 20 21  1  0
 20 22  1  0
 20 23  1  0
 23 24  2  0
 24 25  1  0
 24 26  1  0
 26 27  1  0
 26 28  2  0
 28 29  1  0
 28 30  1  0
 30 31  1  0
 30 32  2  0
 32 33  1  0
 33 34  1  0
 33 35  1  0
 33 36  1  0
 36 37  1  0
 36 38  1  0
 18 39  1  0
 39 40  1  0
 39 41  1  0
 41 42  1  0
 42 43  1  0
 42 44  1  0
 44 45  1  0
 44 46  1  0
 44 47  1  0
 47 48  1  0
 47 49  1  0
 47 50  1  0
 50 51  1  0
 51 52  1  0
 51 53  1  0
 51 54  1  0
 54 55  1  0
 54 56  1  0
 54 57  1  0
 57 58  1  0
 57 59  1  0
 57 60  1  0
 60 61  1  0
 60 62  1  0
 41 63  2  0
  7 64  1  0
 64 65  1  0
 64 66  2  0
 66 67  1  0
 66  2  1  0
 63 16  1  0
 36 19  1  0
 60 50  1  0
 32 23  1  0
M  CHG  1  14   1
M  END
>  <UniqueID>  (54) 
670

>  <SMILES>  (54) 
c1ccc(CC/[NH+]=c2\nc(NCCN3CCCC3)[nH]c(N3CCc4ccccc4C3)n2)cc1

>  <Energy>  (54) 
73.03619198892197

>  <Genealogy>  (54) 
c1ccc(CC[NH2+]c2nc(NCCN3CCCC3)nc(N3CCc4ccccc4C3)n2)cc1 (protonated)
c1ccc(CC[NH+]=c2nc(NCCN3CCCC3)[nH]c(N3CCc4ccccc4C3)n2)cc1 (tautomer)
c1ccc(CC/[NH+]=c2\nc(NCCN3CCCC3)[nH]c(N3CCc4ccccc4C3)n2)cc1 (cis-trans isomerization)
c1ccc(CC/[NH+]=c2\nc(NCCN3CCCC3)[nH]c(N3CCc4ccccc4C3)n2)cc1 (3D coordinates assigned)
c1ccc(CC/[NH+]=c2\nc(NCCN3CCCC3)[nH]c(N3CCc4ccccc4C3)n2)cc1 (nonaromatic ring conformer: 73.03619198892197 kcal/mol)

>  <smiles>  (54) 
c1ccc(CCNc2nc(NCCN3CCCC3)nc(N3CCc4ccccc4C3)n2)cc1

>  <score_type>  (54) 
oracle

>  <origin>  (54) 
autodockgpu

>  <m_score__min__energy>  (54) 
-9.9900000000000002

>  <m_primary>  (54) 
energy

>  <meeko>  (54) 
{"free_energy": -8.93, "intermolecular_energy": -11.62, "internal_energy": -1.5, "cluster_size": 1, "cluster_id": 3, "rank_in_cluster": 1}

>  <energy>  (54) 
-8.91

>  <cluster_rmsd>  (54) 
1.1

>  <rmsd>  (54) 
271.1

>  <cluster>  (54) 
2

$$$$
FPFWJFTVWFQHMH-FSECZMGHNA-O
     RDKit          3D

 67 71  0  0  0  0  0  0  0  0999 V2000
  141.6462   71.9293  229.1529 H   0  0  0  0  0  0  0  0  0  0  0  0
  141.1470   71.5500  228.2490 C   0  0  0  0  0  0  0  0  0  0  0  0
  141.3810   72.1610  227.0140 C   0  0  0  0  0  0  0  0  0  0  0  0
  142.0666   73.0186  226.9470 H   0  0  0  0  0  0  0  0  0  0  0  0
  140.7450   71.6840  225.8630 C   0  0  0  0  0  0  0  0  0  0  0  0
  140.9358   72.1655  224.8926 H   0  0  0  0  0  0  0  0  0  0  0  0
  139.8630   70.5920  225.9410 C   0  0  0  0  0  0  0  0  0  0  0  0
  139.1740   70.0820  224.6990 C   0  0  0  0  0  0  0  0  0  0  0  0
  139.2366   68.9839  224.6805 H   0  0  0  0  0  0  0  0  0  0  0  0
  138.1254   70.4133  224.7245 H   0  0  0  0  0  0  0  0  0  0  0  0
  139.8250   70.6400  223.4280 C   0  0  0  0  0  0  0  0  0  0  0  0
  140.9177   70.6481  223.5543 H   0  0  0  0  0  0  0  0  0  0  0  0
  139.5470   70.0023  222.5759 H   0  0  0  0  0  0  0  0  0  0  0  0
  139.3590   72.0050  223.1710 N   0  0  0  0  0  0  0  0  0  0  0  0
  138.4770   72.3080  223.6440 H   0  0  0  0  0  0  0  0  0  0  0  0
  139.9730   72.8430  222.3820 C   0  0  0  0  0  0  0  0  0  0  0  0
  139.5840   74.1450  222.3510 N   0  0  0  0  0  0  0  0  0  0  0  0
  140.1990   75.0310  221.5260 C   0  0  0  0  0  0  0  0  0  0  0  0
  139.7600   76.4010  221.5000 N   0  0  0  0  0  0  0  0  0  0  0  0
  139.7060   77.2100  222.7210 C   0  0  0  0  0  0  0  0  0  0  0  0
  139.9254   76.5709  223.5890 H   0  0  0  0  0  0  0  0  0  0  0  0
  138.7002   77.6452  222.8160 H   0  0  0  0  0  0  0  0  0  0  0  0
  140.7180   78.3270  222.6580 C   0  0  0  0  0  0  0  0  0  0  0  0
  141.0410   79.0270  223.8310 C   0  0  0  0  0  0  0  0  0  0  0  0
  140.5907   78.7253  224.7882 H   0  0  0  0  0  0  0  0  0  0  0  0
  141.9300   80.1040  223.7920 C   0  0  0  0  0  0  0  0  0  0  0  0
  142.1813   80.6429  224.7174 H   0  0  0  0  0  0  0  0  0  0  0  0
  142.5000   80.4970  222.5790 C   0  0  0  0  0  0  0  0  0  0  0  0
  143.2078   81.3386  222.5516 H   0  0  0  0  0  0  0  0  0  0  0  0
  142.1720   79.8220  221.4000 C   0  0  0  0  0  0  0  0  0  0  0  0
  142.6207   80.1390  220.4470 H   0  0  0  0  0  0  0  0  0  0  0  0
  141.2740   78.7420  221.4220 C   0  0  0  0  0  0  0  0  0  0  0  0
  141.0040   77.9840  220.1400 C   0  0  0  0  0  0  0  0  0  0  0  0
  141.8609   77.3273  219.9289 H   0  0  0  0  0  0  0  0  0  0  0  0
  140.8577   78.7198  219.3356 H   0  0  0  0  0  0  0  0  0  0  0  0
  139.7380   77.1290  220.2330 C   0  0  0  0  0  0  0  0  0  0  0  0
  139.7101   76.4157  219.3961 H   0  0  0  0  0  0  0  0  0  0  0  0
  138.8461   77.7709  220.1835 H   0  0  0  0  0  0  0  0  0  0  0  0
  141.1990   74.6050  220.7050 N   0  0  0  0  0  0  0  0  0  0  0  0
  141.6540   75.2690  220.0380 H   0  0  0  0  0  0  0  0  0  0  0  0
  141.6020   73.3060  220.7340 C   0  0  0  0  0  0  0  0  0  0  0  0
  142.6470   72.8600  219.8560 N   0  0  0  0  0  0  0  0  0  0  0  0
  142.3870   72.4960  218.9110 H   0  0  0  0  0  0  0  0  0  0  0  0
  144.0670   73.0740  220.1350 C   0  0  0  0  0  0  0  0  0  0  0  0
  144.2605   72.8882  221.2018 H   0  0  0  0  0  0  0  0  0  0  0  0
  144.6634   72.3828  219.5213 H   0  0  0  0  0  0  0  0  0  0  0  0
  144.4580   74.5160  219.7920 C   0  0  0  0  0  0  0  0  0  0  0  0
  144.5333   75.0987  220.7220 H   0  0  0  0  0  0  0  0  0  0  0  0
  145.4241   74.5004  219.2662 H   0  0  0  0  0  0  0  0  0  0  0  0
  143.4530   75.1440  218.9090 N   0  0  0  0  0  0  0  0  0  0  0  0
  143.7090   74.8630  217.4860 C   0  0  0  0  0  0  0  0  0  0  0  0
  144.7019   74.4039  217.3703 H   0  0  0  0  0  0  0  0  0  0  0  0
  142.9514   74.1681  217.0946 H   0  0  0  0  0  0  0  0  0  0  0  0
  143.6580   76.1810  216.7210 C   0  0  0  0  0  0  0  0  0  0  0  0
  144.6681   76.4862  216.4103 H   0  0  0  0  0  0  0  0  0  0  0  0
  143.0551   76.1018  215.8043 H   0  0  0  0  0  0  0  0  0  0  0  0
  143.0790   77.1790  217.6930 C   0  0  0  0  0  0  0  0  0  0  0  0
  143.5419   78.1680  217.5601 H   0  0  0  0  0  0  0  0  0  0  0  0
  141.9981   77.3280  217.5533 H   0  0  0  0  0  0  0  0  0  0  0  0
  143.4170   76.6050  219.0520 C   0  0  0  0  0  0  0  0  0  0  0  0
  144.3980   76.9755  219.3843 H   0  0  0  0  0  0  0  0  0  0  0  0
  142.6690   76.9060  219.8003 H   0  0  0  0  0  0  0  0  0  0  0  0
  140.9880   72.4330  221.5750 N   0  0  0  0  0  0  0  0  0  0  0  0
  139.6260   69.9870  227.1900 C   0  0  0  0  0  0  0  0  0  0  0  0
  138.9256   69.1422  227.2656 H   0  0  0  0  0  0  0  0  0  0  0  0
  140.2790   70.4570  228.3370 C   0  0  0  0  0  0  0  0  0  0  0  0
  140.1090   69.9663  229.3067 H   0  0  0  0  0  0  0  0  0  0  0  0
  1  2  1  0
  2  3  2  0
  3  4  1  0
  3  5  1  0
  5  6  1  0
  5  7  2  0
  7  8  1  0
  8  9  1  0
  8 10  1  0
  8 11  1  0
 11 12  1  0
 11 13  1  0
 11 14  1  0
 14 15  1  0
 14 16  2  0
 16 17  1  0
 17 18  2  0
 18 19  1  0
 19 20  1  0
 20 21  1  0
 20 22  1  0
 20 23  1  0
 23 24  2  0
 24 25  1  0
 24 26  1  0
 26 27  1  0
 26 28  2  0
 28 29  1  0
 28 30  1  0
 30 31  1  0
 30 32  2  0
 32 33  1  0
 33 34  1  0
 33 35  1  0
 33 36  1  0
 36 37  1  0
 36 38  1  0
 18 39  1  0
 39 40  1  0
 39 41  1  0
 41 42  1  0
 42 43  1  0
 42 44  1  0
 44 45  1  0
 44 46  1  0
 44 47  1  0
 47 48  1  0
 47 49  1  0
 47 50  1  0
 50 51  1  0
 51 52  1  0
 51 53  1  0
 51 54  1  0
 54 55  1  0
 54 56  1  0
 54 57  1  0
 57 58  1  0
 57 59  1  0
 57 60  1  0
 60 61  1  0
 60 62  1  0
 41 63  2  0
  7 64  1  0
 64 65  1  0
 64 66  2  0
 66 67  1  0
 66  2  1  0
 63 16  1  0
 36 19  1  0
 60 50  1  0
 32 23  1  0
M  CHG  1  14   1
M  END
>  <UniqueID>  (55) 
670

>  <SMILES>  (55) 
c1ccc(CC/[NH+]=c2\nc(NCCN3CCCC3)[nH]c(N3CCc4ccccc4C3)n2)cc1

>  <Energy>  (55) 
73.03619198892197

>  <Genealogy>  (55) 
c1ccc(CC[NH2+]c2nc(NCCN3CCCC3)nc(N3CCc4ccccc4C3)n2)cc1 (protonated)
c1ccc(CC[NH+]=c2nc(NCCN3CCCC3)[nH]c(N3CCc4ccccc4C3)n2)cc1 (tautomer)
c1ccc(CC/[NH+]=c2\nc(NCCN3CCCC3)[nH]c(N3CCc4ccccc4C3)n2)cc1 (cis-trans isomerization)
c1ccc(CC/[NH+]=c2\nc(NCCN3CCCC3)[nH]c(N3CCc4ccccc4C3)n2)cc1 (3D coordinates assigned)
c1ccc(CC/[NH+]=c2\nc(NCCN3CCCC3)[nH]c(N3CCc4ccccc4C3)n2)cc1 (nonaromatic ring conformer: 73.03619198892197 kcal/mol)

>  <smiles>  (55) 
c1ccc(CCNc2nc(NCCN3CCCC3)nc(N3CCc4ccccc4C3)n2)cc1

>  <score_type>  (55) 
oracle

>  <origin>  (55) 
autodockgpu

>  <m_score__min__energy>  (55) 
-9.9900000000000002

>  <m_primary>  (55) 
energy

>  <meeko>  (55) 
{"free_energy": -9.0, "intermolecular_energy": -11.68, "internal_energy": -2.08, "cluster_size": 12, "cluster_id": 1, "rank_in_cluster": 5}

>  <energy>  (55) 
-8.58

>  <cluster_rmsd>  (55) 
1.17

>  <rmsd>  (55) 
271.13

>  <cluster>  (55) 
2

$$$$
FPFWJFTVWFQHMH-FSECZMGHNA-O
     RDKit          3D

 67 71  0  0  0  0  0  0  0  0999 V2000
  140.7300   73.3591  227.5259 H   0  0  0  0  0  0  0  0  0  0  0  0
  140.7150   72.2610  227.4630 C   0  0  0  0  0  0  0  0  0  0  0  0
  141.4410   71.6090  226.4610 C   0  0  0  0  0  0  0  0  0  0  0  0
  142.0285   72.1949  225.7388 H   0  0  0  0  0  0  0  0  0  0  0  0
  141.4210   70.2140  226.3760 C   0  0  0  0  0  0  0  0  0  0  0  0
  141.9974   69.7050  225.5894 H   0  0  0  0  0  0  0  0  0  0  0  0
  140.6670   69.4580  227.2920 C   0  0  0  0  0  0  0  0  0  0  0  0
  140.6440   67.9520  227.1960 C   0  0  0  0  0  0  0  0  0  0  0  0
  141.5360   67.6147  226.6478 H   0  0  0  0  0  0  0  0  0  0  0  0
  140.6337   67.5402  228.2160 H   0  0  0  0  0  0  0  0  0  0  0  0
  139.3910   67.4570  226.4630 C   0  0  0  0  0  0  0  0  0  0  0  0
  139.3617   66.3579  226.4972 H   0  0  0  0  0  0  0  0  0  0  0  0
  138.5011   67.8748  226.9564 H   0  0  0  0  0  0  0  0  0  0  0  0
  139.4090   67.8960  225.0650 N   0  0  0  0  0  0  0  0  0  0  0  0
  139.9060   67.2850  224.3760 H   0  0  0  0  0  0  0  0  0  0  0  0
  138.8540   69.0000  224.6450 C   0  0  0  0  0  0  0  0  0  0  0  0
  137.5010   69.1180  224.6540 N   0  0  0  0  0  0  0  0  0  0  0  0
  136.9030   70.2530  224.2080 C   0  0  0  0  0  0  0  0  0  0  0  0
  135.4670   70.3490  224.2130 N   0  0  0  0  0  0  0  0  0  0  0  0
  134.6900   70.1270  225.4350 C   0  0  0  0  0  0  0  0  0  0  0  0
  135.3618   69.7782  226.2331 H   0  0  0  0  0  0  0  0  0  0  0  0
  133.9171   69.3707  225.2335 H   0  0  0  0  0  0  0  0  0  0  0  0
  134.0200   71.4060  225.8730 C   0  0  0  0  0  0  0  0  0  0  0  0
  133.4820   71.4910  227.1670 C   0  0  0  0  0  0  0  0  0  0  0  0
  133.5946   70.6458  227.8619 H   0  0  0  0  0  0  0  0  0  0  0  0
  132.8050   72.6410  227.5780 C   0  0  0  0  0  0  0  0  0  0  0  0
  132.3923   72.7010  228.5959 H   0  0  0  0  0  0  0  0  0  0  0  0
  132.6510   73.7150  226.6990 C   0  0  0  0  0  0  0  0  0  0  0  0
  132.1260   74.6237  227.0287 H   0  0  0  0  0  0  0  0  0  0  0  0
  133.1630   73.6370  225.4010 C   0  0  0  0  0  0  0  0  0  0  0  0
  133.0343   74.4844  224.7116 H   0  0  0  0  0  0  0  0  0  0  0  0
  133.8410   72.4840  224.9700 C   0  0  0  0  0  0  0  0  0  0  0  0
  134.4520   72.4660  223.5860 C   0  0  0  0  0  0  0  0  0  0  0  0
  135.3766   73.0617  223.5986 H   0  0  0  0  0  0  0  0  0  0  0  0
  133.7160   72.8867  222.8851 H   0  0  0  0  0  0  0  0  0  0  0  0
  134.7860   71.0460  223.1230 C   0  0  0  0  0  0  0  0  0  0  0  0
  135.4433   71.0883  222.2420 H   0  0  0  0  0  0  0  0  0  0  0  0
  133.8632   70.5115  222.8531 H   0  0  0  0  0  0  0  0  0  0  0  0
  137.6670   71.2710  223.7240 N   0  0  0  0  0  0  0  0  0  0  0  0
  137.2170   72.1340  223.3430 H   0  0  0  0  0  0  0  0  0  0  0  0
  139.0240   71.1670  223.7190 C   0  0  0  0  0  0  0  0  0  0  0  0
  139.8240   72.2390  223.1960 N   0  0  0  0  0  0  0  0  0  0  0  0
  139.9540   73.0970  223.7780 H   0  0  0  0  0  0  0  0  0  0  0  0
  140.6280   72.1130  221.9800 C   0  0  0  0  0  0  0  0  0  0  0  0
  141.6178   71.7085  222.2384 H   0  0  0  0  0  0  0  0  0  0  0  0
  140.1182   71.4351  221.2796 H   0  0  0  0  0  0  0  0  0  0  0  0
  140.7980   73.4850  221.3170 C   0  0  0  0  0  0  0  0  0  0  0  0
  141.8693   73.6762  221.1562 H   0  0  0  0  0  0  0  0  0  0  0  0
  140.2585   73.4794  220.3584 H   0  0  0  0  0  0  0  0  0  0  0  0
  140.2380   74.5580  222.1650 N   0  0  0  0  0  0  0  0  0  0  0  0
  138.8020   74.7710  221.9160 C   0  0  0  0  0  0  0  0  0  0  0  0
  138.4941   74.2170  221.0170 H   0  0  0  0  0  0  0  0  0  0  0  0
  138.2113   74.4111  222.7713 H   0  0  0  0  0  0  0  0  0  0  0  0
  138.5690   76.2640  221.7070 C   0  0  0  0  0  0  0  0  0  0  0  0
  138.3563   76.4770  220.6490 H   0  0  0  0  0  0  0  0  0  0  0  0
  137.7068   76.6307  222.2834 H   0  0  0  0  0  0  0  0  0  0  0  0
  139.8550   76.9270  222.1320 C   0  0  0  0  0  0  0  0  0  0  0  0
  140.0742   77.7980  221.4969 H   0  0  0  0  0  0  0  0  0  0  0  0
  139.8150   77.3054  223.1641 H   0  0  0  0  0  0  0  0  0  0  0  0
  140.9020   75.8490  221.9470 C   0  0  0  0  0  0  0  0  0  0  0  0
  141.3134   75.8940  220.9278 H   0  0  0  0  0  0  0  0  0  0  0  0
  141.7328   75.9856  222.6549 H   0  0  0  0  0  0  0  0  0  0  0  0
  139.6090   70.0320  224.1830 N   0  0  0  0  0  0  0  0  0  0  0  0
  139.9330   70.1220  228.2930 C   0  0  0  0  0  0  0  0  0  0  0  0
  139.3283   69.5416  229.0054 H   0  0  0  0  0  0  0  0  0  0  0  0
  139.9700   71.5190  228.3850 C   0  0  0  0  0  0  0  0  0  0  0  0
  139.4130   72.0326  229.1825 H   0  0  0  0  0  0  0  0  0  0  0  0
  1  2  1  0
  2  3  2  0
  3  4  1  0
  3  5  1  0
  5  6  1  0
  5  7  2  0
  7  8  1  0
  8  9  1  0
  8 10  1  0
  8 11  1  0
 11 12  1  0
 11 13  1  0
 11 14  1  0
 14 15  1  0
 14 16  2  0
 16 17  1  0
 17 18  2  0
 18 19  1  0
 19 20  1  0
 20 21  1  0
 20 22  1  0
 20 23  1  0
 23 24  2  0
 24 25  1  0
 24 26  1  0
 26 27  1  0
 26 28  2  0
 28 29  1  0
 28 30  1  0
 30 31  1  0
 30 32  2  0
 32 33  1  0
 33 34  1  0
 33 35  1  0
 33 36  1  0
 36 37  1  0
 36 38  1  0
 18 39  1  0
 39 40  1  0
 39 41  1  0
 41 42  1  0
 42 43  1  0
 42 44  1  0
 44 45  1  0
 44 46  1  0
 44 47  1  0
 47 48  1  0
 47 49  1  0
 47 50  1  0
 50 51  1  0
 51 52  1  0
 51 53  1  0
 51 54  1  0
 54 55  1  0
 54 56  1  0
 54 57  1  0
 57 58  1  0
 57 59  1  0
 57 60  1  0
 60 61  1  0
 60 62  1  0
 41 63  2  0
  7 64  1  0
 64 65  1  0
 64 66  2  0
 66 67  1  0
 66  2  1  0
 63 16  1  0
 36 19  1  0
 60 50  1  0
 32 23  1  0
M  CHG  1  14   1
M  END
>  <UniqueID>  (56) 
670

>  <SMILES>  (56) 
c1ccc(CC/[NH+]=c2\nc(NCCN3CCCC3)[nH]c(N3CCc4ccccc4C3)n2)cc1

>  <Energy>  (56) 
73.03619198892197

>  <Genealogy>  (56) 
c1ccc(CC[NH2+]c2nc(NCCN3CCCC3)nc(N3CCc4ccccc4C3)n2)cc1 (protonated)
c1ccc(CC[NH+]=c2nc(NCCN3CCCC3)[nH]c(N3CCc4ccccc4C3)n2)cc1 (tautomer)
c1ccc(CC/[NH+]=c2\nc(NCCN3CCCC3)[nH]c(N3CCc4ccccc4C3)n2)cc1 (cis-trans isomerization)
c1ccc(CC/[NH+]=c2\nc(NCCN3CCCC3)[nH]c(N3CCc4ccccc4C3)n2)cc1 (3D coordinates assigned)
c1ccc(CC/[NH+]=c2\nc(NCCN3CCCC3)[nH]c(N3CCc4ccccc4C3)n2)cc1 (nonaromatic ring conformer: 73.03619198892197 kcal/mol)

>  <smiles>  (56) 
c1ccc(CCNc2nc(NCCN3CCCC3)nc(N3CCc4ccccc4C3)n2)cc1

>  <score_type>  (56) 
oracle

>  <origin>  (56) 
autodockgpu

>  <m_score__min__energy>  (56) 
-9.9900000000000002

>  <m_primary>  (56) 
energy

>  <meeko>  (56) 
{"free_energy": -8.79, "intermolecular_energy": -11.47, "internal_energy": -2.06, "cluster_size": 2, "cluster_id": 4, "rank_in_cluster": 1}

>  <energy>  (56) 
-8.58

>  <cluster_rmsd>  (56) 
1.18

>  <rmsd>  (56) 
271.13

>  <cluster>  (56) 
2

$$$$
FPFWJFTVWFQHMH-FSECZMGHNA-O
     RDKit          3D

 67 71  0  0  0  0  0  0  0  0999 V2000
  140.6696   69.7027  229.3633 H   0  0  0  0  0  0  0  0  0  0  0  0
  140.6710   70.0770  228.3290 C   0  0  0  0  0  0  0  0  0  0  0  0
  140.3370   69.2200  227.2760 C   0  0  0  0  0  0  0  0  0  0  0  0
  140.0715   68.1728  227.4833 H   0  0  0  0  0  0  0  0  0  0  0  0
  140.3400   69.6920  225.9600 C   0  0  0  0  0  0  0  0  0  0  0  0
  140.0712   69.0154  225.1354 H   0  0  0  0  0  0  0  0  0  0  0  0
  140.6850   71.0280  225.6850 C   0  0  0  0  0  0  0  0  0  0  0  0
  140.6920   71.5340  224.2640 C   0  0  0  0  0  0  0  0  0  0  0  0
  141.0789   72.5636  224.2528 H   0  0  0  0  0  0  0  0  0  0  0  0
  141.3311   70.8700  223.6635 H   0  0  0  0  0  0  0  0  0  0  0  0
  139.2830   71.5240  223.6590 C   0  0  0  0  0  0  0  0  0  0  0  0
  138.9365   70.4842  223.5649 H   0  0  0  0  0  0  0  0  0  0  0  0
  138.6081   72.0897  224.3182 H   0  0  0  0  0  0  0  0  0  0  0  0
  139.2900   72.1520  222.3350 N   0  0  0  0  0  0  0  0  0  0  0  0
  138.5730   71.8260  221.6450 H   0  0  0  0  0  0  0  0  0  0  0  0
  140.1400   73.0730  221.9740 C   0  0  0  0  0  0  0  0  0  0  0  0
  139.7470   74.3730  221.9360 N   0  0  0  0  0  0  0  0  0  0  0  0
  140.6120   75.3460  221.5490 C   0  0  0  0  0  0  0  0  0  0  0  0
  140.1690   76.7140  221.5030 N   0  0  0  0  0  0  0  0  0  0  0  0
  139.9790   77.4990  222.7270 C   0  0  0  0  0  0  0  0  0  0  0  0
  140.1084   76.8440  223.6012 H   0  0  0  0  0  0  0  0  0  0  0  0
  138.9660   77.9276  222.7220 H   0  0  0  0  0  0  0  0  0  0  0  0
  140.9840   78.6210  222.7940 C   0  0  0  0  0  0  0  0  0  0  0  0
  141.1750   79.2990  224.0080 C   0  0  0  0  0  0  0  0  0  0  0  0
  140.6278   78.9760  224.9059 H   0  0  0  0  0  0  0  0  0  0  0  0
  142.0550   80.3810  224.0840 C   0  0  0  0  0  0  0  0  0  0  0  0
  142.2014   80.9032  225.0410 H   0  0  0  0  0  0  0  0  0  0  0  0
  142.7490   80.8010  222.9480 C   0  0  0  0  0  0  0  0  0  0  0  0
  143.4498   81.6463  223.0134 H   0  0  0  0  0  0  0  0  0  0  0  0
  142.5540   80.1480  221.7270 C   0  0  0  0  0  0  0  0  0  0  0  0
  143.0996   80.4861  220.8337 H   0  0  0  0  0  0  0  0  0  0  0  0
  141.6660   79.0630  221.6330 C   0  0  0  0  0  0  0  0  0  0  0  0
  141.5400   78.3300  220.3150 C   0  0  0  0  0  0  0  0  0  0  0  0
  142.4193   77.6822  220.1839 H   0  0  0  0  0  0  0  0  0  0  0  0
  141.4750   79.0814  219.5143 H   0  0  0  0  0  0  0  0  0  0  0  0
  140.2780   77.4670  220.2550 C   0  0  0  0  0  0  0  0  0  0  0  0
  140.3453   76.7704  219.4064 H   0  0  0  0  0  0  0  0  0  0  0  0
  139.3920   78.1052  220.1222 H   0  0  0  0  0  0  0  0  0  0  0  0
  141.8780   75.0120  221.1720 N   0  0  0  0  0  0  0  0  0  0  0  0
  142.5410   75.7470  220.8360 H   0  0  0  0  0  0  0  0  0  0  0  0
  142.2840   73.7140  221.2140 C   0  0  0  0  0  0  0  0  0  0  0  0
  143.6160   73.3660  220.8030 N   0  0  0  0  0  0  0  0  0  0  0  0
  143.9260   72.3720  220.8990 H   0  0  0  0  0  0  0  0  0  0  0  0
  144.4900   74.2840  220.0730 C   0  0  0  0  0  0  0  0  0  0  0  0
  144.5494   75.2391  220.6155 H   0  0  0  0  0  0  0  0  0  0  0  0
  145.4924   73.8385  219.9902 H   0  0  0  0  0  0  0  0  0  0  0  0
  143.9330   74.5330  218.6670 C   0  0  0  0  0  0  0  0  0  0  0  0
  144.7577   74.8261  218.0007 H   0  0  0  0  0  0  0  0  0  0  0  0
  143.4581   73.6070  218.3105 H   0  0  0  0  0  0  0  0  0  0  0  0
  142.9170   75.6070  218.6790 N   0  0  0  0  0  0  0  0  0  0  0  0
  141.6470   75.1790  218.0690 C   0  0  0  0  0  0  0  0  0  0  0  0
  141.7850   74.2131  217.5611 H   0  0  0  0  0  0  0  0  0  0  0  0
  140.8745   75.0626  218.8434 H   0  0  0  0  0  0  0  0  0  0  0  0
  141.2220   76.2380  217.0570 C   0  0  0  0  0  0  0  0  0  0  0  0
  141.3563   75.8666  216.0303 H   0  0  0  0  0  0  0  0  0  0  0  0
  140.1597   76.5039  217.1612 H   0  0  0  0  0  0  0  0  0  0  0  0
  142.1270   77.4170  217.3160 C   0  0  0  0  0  0  0  0  0  0  0  0
  142.3847   77.9260  216.3755 H   0  0  0  0  0  0  0  0  0  0  0  0
  141.6570   78.1788  217.9553 H   0  0  0  0  0  0  0  0  0  0  0  0
  143.3570   76.8030  217.9500 C   0  0  0  0  0  0  0  0  0  0  0  0
  144.0831   76.5246  217.1721 H   0  0  0  0  0  0  0  0  0  0  0  0
  143.8448   77.5176  218.6293 H   0  0  0  0  0  0  0  0  0  0  0  0
  141.4130   72.7520  221.6190 N   0  0  0  0  0  0  0  0  0  0  0  0
  141.0280   71.8820  226.7500 C   0  0  0  0  0  0  0  0  0  0  0  0
  141.3138   72.9244  226.5459 H   0  0  0  0  0  0  0  0  0  0  0  0
  141.0070   71.4100  228.0690 C   0  0  0  0  0  0  0  0  0  0  0  0
  141.2546   72.0872  228.8998 H   0  0  0  0  0  0  0  0  0  0  0  0
  1  2  1  0
  2  3  2  0
  3  4  1  0
  3  5  1  0
  5  6  1  0
  5  7  2  0
  7  8  1  0
  8  9  1  0
  8 10  1  0
  8 11  1  0
 11 12  1  0
 11 13  1  0
 11 14  1  0
 14 15  1  0
 14 16  2  0
 16 17  1  0
 17 18  2  0
 18 19  1  0
 19 20  1  0
 20 21  1  0
 20 22  1  0
 20 23  1  0
 23 24  2  0
 24 25  1  0
 24 26  1  0
 26 27  1  0
 26 28  2  0
 28 29  1  0
 28 30  1  0
 30 31  1  0
 30 32  2  0
 32 33  1  0
 33 34  1  0
 33 35  1  0
 33 36  1  0
 36 37  1  0
 36 38  1  0
 18 39  1  0
 39 40  1  0
 39 41  1  0
 41 42  1  0
 42 43  1  0
 42 44  1  0
 44 45  1  0
 44 46  1  0
 44 47  1  0
 47 48  1  0
 47 49  1  0
 47 50  1  0
 50 51  1  0
 51 52  1  0
 51 53  1  0
 51 54  1  0
 54 55  1  0
 54 56  1  0
 54 57  1  0
 57 58  1  0
 57 59  1  0
 57 60  1  0
 60 61  1  0
 60 62  1  0
 41 63  2  0
  7 64  1  0
 64 65  1  0
 64 66  2  0
 66 67  1  0
 66  2  1  0
 63 16  1  0
 36 19  1  0
 60 50  1  0
 32 23  1  0
M  CHG  1  14   1
M  END
>  <UniqueID>  (57) 
670

>  <SMILES>  (57) 
c1ccc(CC/[NH+]=c2\nc(NCCN3CCCC3)[nH]c(N3CCc4ccccc4C3)n2)cc1

>  <Energy>  (57) 
73.03619198892197

>  <Genealogy>  (57) 
c1ccc(CC[NH2+]c2nc(NCCN3CCCC3)nc(N3CCc4ccccc4C3)n2)cc1 (protonated)
c1ccc(CC[NH+]=c2nc(NCCN3CCCC3)[nH]c(N3CCc4ccccc4C3)n2)cc1 (tautomer)
c1ccc(CC/[NH+]=c2\nc(NCCN3CCCC3)[nH]c(N3CCc4ccccc4C3)n2)cc1 (cis-trans isomerization)
c1ccc(CC/[NH+]=c2\nc(NCCN3CCCC3)[nH]c(N3CCc4ccccc4C3)n2)cc1 (3D coordinates assigned)
c1ccc(CC/[NH+]=c2\nc(NCCN3CCCC3)[nH]c(N3CCc4ccccc4C3)n2)cc1 (nonaromatic ring conformer: 73.03619198892197 kcal/mol)

>  <smiles>  (57) 
c1ccc(CCNc2nc(NCCN3CCCC3)nc(N3CCc4ccccc4C3)n2)cc1

>  <score_type>  (57) 
oracle

>  <origin>  (57) 
autodockgpu

>  <m_score__min__energy>  (57) 
-9.9900000000000002

>  <m_primary>  (57) 
energy

>  <meeko>  (57) 
{"free_energy": -8.65, "intermolecular_energy": -11.33, "internal_energy": -2.13, "cluster_size": 12, "cluster_id": 1, "rank_in_cluster": 6}

>  <energy>  (57) 
-8.93

>  <cluster_rmsd>  (57) 
0.0

>  <rmsd>  (57) 
271.31

>  <cluster>  (57) 
3

$$$$
FPFWJFTVWFQHMH-FSECZMGHNA-O
     RDKit          3D

 67 71  0  0  0  0  0  0  0  0999 V2000
  141.3521   70.9294  229.4102 H   0  0  0  0  0  0  0  0  0  0  0  0
  141.1010   70.8900  228.3400 C   0  0  0  0  0  0  0  0  0  0  0  0
  140.4900   69.7500  227.8070 C   0  0  0  0  0  0  0  0  0  0  0  0
  140.2595   68.8948  228.4592 H   0  0  0  0  0  0  0  0  0  0  0  0
  140.1720   69.6960  226.4470 C   0  0  0  0  0  0  0  0  0  0  0  0
  139.6869   68.7994  226.0338 H   0  0  0  0  0  0  0  0  0  0  0  0
  140.4690   70.7820  225.6040 C   0  0  0  0  0  0  0  0  0  0  0  0
  140.1280   70.7190  224.1360 C   0  0  0  0  0  0  0  0  0  0  0  0
  140.9338   71.1984  223.5608 H   0  0  0  0  0  0  0  0  0  0  0  0
  140.0199   69.6620  223.8514 H   0  0  0  0  0  0  0  0  0  0  0  0
  138.8070   71.4360  223.8360 C   0  0  0  0  0  0  0  0  0  0  0  0
  137.9717   70.7390  223.9987 H   0  0  0  0  0  0  0  0  0  0  0  0
  138.7129   72.3035  224.5058 H   0  0  0  0  0  0  0  0  0  0  0  0
  138.7810   71.9040  222.4480 N   0  0  0  0  0  0  0  0  0  0  0  0
  138.0670   71.4800  221.8110 H   0  0  0  0  0  0  0  0  0  0  0  0
  139.6000   72.8000  221.9690 C   0  0  0  0  0  0  0  0  0  0  0  0
  139.2470   74.1120  221.9870 N   0  0  0  0  0  0  0  0  0  0  0  0
  140.0780   75.0590  221.4810 C   0  0  0  0  0  0  0  0  0  0  0  0
  139.6760   76.4400  221.4980 N   0  0  0  0  0  0  0  0  0  0  0  0
  139.7400   77.2410  222.7240 C   0  0  0  0  0  0  0  0  0  0  0  0
  140.0080   76.5894  223.5688 H   0  0  0  0  0  0  0  0  0  0  0  0
  138.7573   77.7033  222.8991 H   0  0  0  0  0  0  0  0  0  0  0  0
  140.7750   78.3300  222.5890 C   0  0  0  0  0  0  0  0  0  0  0  0
  141.2070   79.0120  223.7380 C   0  0  0  0  0  0  0  0  0  0  0  0
  140.8247   78.7150  224.7257 H   0  0  0  0  0  0  0  0  0  0  0  0
  142.1190   80.0650  223.6350 C   0  0  0  0  0  0  0  0  0  0  0  0
  142.4563   80.5900  224.5408 H   0  0  0  0  0  0  0  0  0  0  0  0
  142.6030   80.4520  222.3840 C   0  0  0  0  0  0  0  0  0  0  0  0
  143.3293   81.2744  222.3065 H   0  0  0  0  0  0  0  0  0  0  0  0
  142.1660   79.7960  221.2300 C   0  0  0  0  0  0  0  0  0  0  0  0
  142.5475   80.1087  220.2468 H   0  0  0  0  0  0  0  0  0  0  0  0
  141.2430   78.7400  221.3160 C   0  0  0  0  0  0  0  0  0  0  0  0
  140.8540   78.0000  220.0540 C   0  0  0  0  0  0  0  0  0  0  0  0
  141.6735   77.3221  219.7732 H   0  0  0  0  0  0  0  0  0  0  0  0
  140.6665   78.7459  219.2676 H   0  0  0  0  0  0  0  0  0  0  0  0
  139.5760   77.1790  220.2400 C   0  0  0  0  0  0  0  0  0  0  0  0
  139.4636   76.4735  219.4036 H   0  0  0  0  0  0  0  0  0  0  0  0
  138.7011   77.8453  220.2637 H   0  0  0  0  0  0  0  0  0  0  0  0
  141.2670   74.6860  220.9280 N   0  0  0  0  0  0  0  0  0  0  0  0
  141.8980   75.4020  220.5010 H   0  0  0  0  0  0  0  0  0  0  0  0
  141.6340   73.3760  220.9130 C   0  0  0  0  0  0  0  0  0  0  0  0
  142.8820   72.9880  220.3170 N   0  0  0  0  0  0  0  0  0  0  0  0
  142.8630   72.4390  219.4280 H   0  0  0  0  0  0  0  0  0  0  0  0
  144.1760   73.4920  220.7780 C   0  0  0  0  0  0  0  0  0  0  0  0
  144.1485   73.6204  221.8701 H   0  0  0  0  0  0  0  0  0  0  0  0
  144.9612   72.7713  220.5060 H   0  0  0  0  0  0  0  0  0  0  0  0
  144.4810   74.8410  220.1160 C   0  0  0  0  0  0  0  0  0  0  0  0
  144.5335   75.6184  220.8924 H   0  0  0  0  0  0  0  0  0  0  0  0
  145.4405   74.7600  219.5842 H   0  0  0  0  0  0  0  0  0  0  0  0
  143.4330   75.2040  219.1400 N   0  0  0  0  0  0  0  0  0  0  0  0
  143.6930   74.6370  217.8060 C   0  0  0  0  0  0  0  0  0  0  0  0
  144.7109   74.2216  217.7701 H   0  0  0  0  0  0  0  0  0  0  0  0
  142.9760   73.8312  217.5899 H   0  0  0  0  0  0  0  0  0  0  0  0
  143.5550   75.7540  216.7770 C   0  0  0  0  0  0  0  0  0  0  0  0
  144.5420   76.0430  216.3867 H   0  0  0  0  0  0  0  0  0  0  0  0
  142.9504   75.4438  215.9120 H   0  0  0  0  0  0  0  0  0  0  0  0
  142.9240   76.9030  217.5230 C   0  0  0  0  0  0  0  0  0  0  0  0
  143.3242   77.8650  217.1704 H   0  0  0  0  0  0  0  0  0  0  0  0
  141.8349   76.9552  217.3775 H   0  0  0  0  0  0  0  0  0  0  0  0
  143.3080   76.6570  218.9670 C   0  0  0  0  0  0  0  0  0  0  0  0
  144.2668   77.1474  219.1911 H   0  0  0  0  0  0  0  0  0  0  0  0
  142.5492   77.0683  219.6490 H   0  0  0  0  0  0  0  0  0  0  0  0
  140.7990   72.4410  221.4370 N   0  0  0  0  0  0  0  0  0  0  0  0
  141.0910   71.9220  226.1460 C   0  0  0  0  0  0  0  0  0  0  0  0
  141.3413   72.7715  225.4935 H   0  0  0  0  0  0  0  0  0  0  0  0
  141.3930   71.9800  227.5130 C   0  0  0  0  0  0  0  0  0  0  0  0
  141.8594   72.8821  227.9357 H   0  0  0  0  0  0  0  0  0  0  0  0
  1  2  1  0
  2  3  2  0
  3  4  1  0
  3  5  1  0
  5  6  1  0
  5  7  2  0
  7  8  1  0
  8  9  1  0
  8 10  1  0
  8 11  1  0
 11 12  1  0
 11 13  1  0
 11 14  1  0
 14 15  1  0
 14 16  2  0
 16 17  1  0
 17 18  2  0
 18 19  1  0
 19 20  1  0
 20 21  1  0
 20 22  1  0
 20 23  1  0
 23 24  2  0
 24 25  1  0
 24 26  1  0
 26 27  1  0
 26 28  2  0
 28 29  1  0
 28 30  1  0
 30 31  1  0
 30 32  2  0
 32 33  1  0
 33 34  1  0
 33 35  1  0
 33 36  1  0
 36 37  1  0
 36 38  1  0
 18 39  1  0
 39 40  1  0
 39 41  1  0
 41 42  1  0
 42 43  1  0
 42 44  1  0
 44 45  1  0
 44 46  1  0
 44 47  1  0
 47 48  1  0
 47 49  1  0
 47 50  1  0
 50 51  1  0
 51 52  1  0
 51 53  1  0
 51 54  1  0
 54 55  1  0
 54 56  1  0
 54 57  1  0
 57 58  1  0
 57 59  1  0
 57 60  1  0
 60 61  1  0
 60 62  1  0
 41 63  2  0
  7 64  1  0
 64 65  1  0
 64 66  2  0
 66 67  1  0
 66  2  1  0
 63 16  1  0
 36 19  1  0
 60 50  1  0
 32 23  1  0
M  CHG  1  14   1
M  END
>  <UniqueID>  (58) 
670

>  <SMILES>  (58) 
c1ccc(CC/[NH+]=c2\nc(NCCN3CCCC3)[nH]c(N3CCc4ccccc4C3)n2)cc1

>  <Energy>  (58) 
73.03619198892197

>  <Genealogy>  (58) 
c1ccc(CC[NH2+]c2nc(NCCN3CCCC3)nc(N3CCc4ccccc4C3)n2)cc1 (protonated)
c1ccc(CC[NH+]=c2nc(NCCN3CCCC3)[nH]c(N3CCc4ccccc4C3)n2)cc1 (tautomer)
c1ccc(CC/[NH+]=c2\nc(NCCN3CCCC3)[nH]c(N3CCc4ccccc4C3)n2)cc1 (cis-trans isomerization)
c1ccc(CC/[NH+]=c2\nc(NCCN3CCCC3)[nH]c(N3CCc4ccccc4C3)n2)cc1 (3D coordinates assigned)
c1ccc(CC/[NH+]=c2\nc(NCCN3CCCC3)[nH]c(N3CCc4ccccc4C3)n2)cc1 (nonaromatic ring conformer: 73.03619198892197 kcal/mol)

>  <smiles>  (58) 
c1ccc(CCNc2nc(NCCN3CCCC3)nc(N3CCc4ccccc4C3)n2)cc1

>  <score_type>  (58) 
oracle

>  <origin>  (58) 
autodockgpu

>  <m_score__min__energy>  (58) 
-9.9900000000000002

>  <m_primary>  (58) 
energy

>  <meeko>  (58) 
{"free_energy": -8.3, "intermolecular_energy": -10.98, "internal_energy": -2.18, "cluster_size": 12, "cluster_id": 1, "rank_in_cluster": 8}

>  <energy>  (58) 
-8.79

>  <cluster_rmsd>  (58) 
0.0

>  <rmsd>  (58) 
270.85

>  <cluster>  (58) 
4

$$$$
FPFWJFTVWFQHMH-FSECZMGHNA-O
     RDKit          3D

 67 71  0  0  0  0  0  0  0  0999 V2000
  141.6167   71.6580  229.0510 H   0  0  0  0  0  0  0  0  0  0  0  0
  141.1310   71.4090  228.0960 C   0  0  0  0  0  0  0  0  0  0  0  0
  140.2750   70.3060  228.0140 C   0  0  0  0  0  0  0  0  0  0  0  0
  140.0859   69.6901  228.9056 H   0  0  0  0  0  0  0  0  0  0  0  0
  139.6590   69.9850  226.8000 C   0  0  0  0  0  0  0  0  0  0  0  0
  138.9826   69.1195  226.7416 H   0  0  0  0  0  0  0  0  0  0  0  0
  139.9000   70.7630  225.6540 C   0  0  0  0  0  0  0  0  0  0  0  0
  139.2370   70.4120  224.3450 C   0  0  0  0  0  0  0  0  0  0  0  0
  139.1677   69.3174  224.2613 H   0  0  0  0  0  0  0  0  0  0  0  0
  138.2366   70.8692  224.3305 H   0  0  0  0  0  0  0  0  0  0  0  0
  140.0320   70.9540  223.1510 C   0  0  0  0  0  0  0  0  0  0  0  0
  141.1035   70.9545  223.3997 H   0  0  0  0  0  0  0  0  0  0  0  0
  139.8459   70.3111  222.2780 H   0  0  0  0  0  0  0  0  0  0  0  0
  139.6100   72.3210  222.8320 N   0  0  0  0  0  0  0  0  0  0  0  0
  138.6500   72.6100  223.1330 H   0  0  0  0  0  0  0  0  0  0  0  0
  140.3540   73.1780  222.1880 C   0  0  0  0  0  0  0  0  0  0  0  0
  139.9480   74.4690  222.0760 N   0  0  0  0  0  0  0  0  0  0  0  0
  140.7000   75.3740  221.3980 C   0  0  0  0  0  0  0  0  0  0  0  0
  140.2430   76.7330  221.2790 N   0  0  0  0  0  0  0  0  0  0  0  0
  139.9060   77.5330  222.4610 C   0  0  0  0  0  0  0  0  0  0  0  0
  139.9487   76.8939  223.3553 H   0  0  0  0  0  0  0  0  0  0  0  0
  138.8928   77.9430  222.3371 H   0  0  0  0  0  0  0  0  0  0  0  0
  140.8790   78.6740  222.6190 C   0  0  0  0  0  0  0  0  0  0  0  0
  140.9240   79.3740  223.8350 C   0  0  0  0  0  0  0  0  0  0  0  0
  140.2867   79.0546  224.6727 H   0  0  0  0  0  0  0  0  0  0  0  0
  141.7720   80.4730  223.9890 C   0  0  0  0  0  0  0  0  0  0  0  0
  141.8036   81.0124  224.9471 H   0  0  0  0  0  0  0  0  0  0  0  0
  142.5800   80.8880  222.9280 C   0  0  0  0  0  0  0  0  0  0  0  0
  143.2550   81.7472  223.0550 H   0  0  0  0  0  0  0  0  0  0  0  0
  142.5320   80.2130  221.7050 C   0  0  0  0  0  0  0  0  0  0  0  0
  143.1680   80.5467  220.8719 H   0  0  0  0  0  0  0  0  0  0  0  0
  141.6770   79.1110  221.5320 C   0  0  0  0  0  0  0  0  0  0  0  0
  141.7100   78.3550  220.2210 C   0  0  0  0  0  0  0  0  0  0  0  0
  142.6086   77.7209  220.1994 H   0  0  0  0  0  0  0  0  0  0  0  0
  141.7228   79.0920  219.4045 H   0  0  0  0  0  0  0  0  0  0  0  0
  140.4760   77.4690  220.0380 C   0  0  0  0  0  0  0  0  0  0  0  0
  140.6469   76.7610  219.2136 H   0  0  0  0  0  0  0  0  0  0  0  0
  139.5998   78.0894  219.7985 H   0  0  0  0  0  0  0  0  0  0  0  0
  141.8610   74.9760  220.8050 N   0  0  0  0  0  0  0  0  0  0  0  0
  142.4290   75.6550  220.2480 H   0  0  0  0  0  0  0  0  0  0  0  0
  142.2810   73.6870  220.9190 C   0  0  0  0  0  0  0  0  0  0  0  0
  143.4980   73.2710  220.2800 N   0  0  0  0  0  0  0  0  0  0  0  0
  143.5180   73.1990  219.2380 H   0  0  0  0  0  0  0  0  0  0  0  0
  144.7670   73.1370  220.9960 C   0  0  0  0  0  0  0  0  0  0  0  0
  144.7881   73.8476  221.8354 H   0  0  0  0  0  0  0  0  0  0  0  0
  144.8604   72.1084  221.3745 H   0  0  0  0  0  0  0  0  0  0  0  0
  145.9380   73.4330  220.0510 C   0  0  0  0  0  0  0  0  0  0  0  0
  145.8500   74.4657  219.6824 H   0  0  0  0  0  0  0  0  0  0  0  0
  146.8778   73.2996  220.6069 H   0  0  0  0  0  0  0  0  0  0  0  0
  145.9390   72.5080  218.8990 N   0  0  0  0  0  0  0  0  0  0  0  0
  145.2200   73.0620  217.7380 C   0  0  0  0  0  0  0  0  0  0  0  0
  144.6718   73.9674  218.0374 H   0  0  0  0  0  0  0  0  0  0  0  0
  145.9321   73.3276  216.9428 H   0  0  0  0  0  0  0  0  0  0  0  0
  144.2400   72.0090  217.2350 C   0  0  0  0  0  0  0  0  0  0  0  0
  143.2067   72.2946  217.4815 H   0  0  0  0  0  0  0  0  0  0  0  0
  144.2850   71.8941  216.1419 H   0  0  0  0  0  0  0  0  0  0  0  0
  144.6230   70.7380  217.9520 C   0  0  0  0  0  0  0  0  0  0  0  0
  143.7310   70.1414  218.1938 H   0  0  0  0  0  0  0  0  0  0  0  0
  145.2684   70.0869  217.3442 H   0  0  0  0  0  0  0  0  0  0  0  0
  145.3050   71.2210  219.2130 C   0  0  0  0  0  0  0  0  0  0  0  0
  144.5642   71.3518  220.0155 H   0  0  0  0  0  0  0  0  0  0  0  0
  146.0529   70.4910  219.5562 H   0  0  0  0  0  0  0  0  0  0  0  0
  141.5260   72.7960  221.6130 N   0  0  0  0  0  0  0  0  0  0  0  0
  140.7690   71.8670  225.7430 C   0  0  0  0  0  0  0  0  0  0  0  0
  140.9767   72.4738  224.8493 H   0  0  0  0  0  0  0  0  0  0  0  0
  141.3700   72.1960  226.9640 C   0  0  0  0  0  0  0  0  0  0  0  0
  142.0301   73.0732  227.0334 H   0  0  0  0  0  0  0  0  0  0  0  0
  1  2  1  0
  2  3  2  0
  3  4  1  0
  3  5  1  0
  5  6  1  0
  5  7  2  0
  7  8  1  0
  8  9  1  0
  8 10  1  0
  8 11  1  0
 11 12  1  0
 11 13  1  0
 11 14  1  0
 14 15  1  0
 14 16  2  0
 16 17  1  0
 17 18  2  0
 18 19  1  0
 19 20  1  0
 20 21  1  0
 20 22  1  0
 20 23  1  0
 23 24  2  0
 24 25  1  0
 24 26  1  0
 26 27  1  0
 26 28  2  0
 28 29  1  0
 28 30  1  0
 30 31  1  0
 30 32  2  0
 32 33  1  0
 33 34  1  0
 33 35  1  0
 33 36  1  0
 36 37  1  0
 36 38  1  0
 18 39  1  0
 39 40  1  0
 39 41  1  0
 41 42  1  0
 42 43  1  0
 42 44  1  0
 44 45  1  0
 44 46  1  0
 44 47  1  0
 47 48  1  0
 47 49  1  0
 47 50  1  0
 50 51  1  0
 51 52  1  0
 51 53  1  0
 51 54  1  0
 54 55  1  0
 54 56  1  0
 54 57  1  0
 57 58  1  0
 57 59  1  0
 57 60  1  0
 60 61  1  0
 60 62  1  0
 41 63  2  0
  7 64  1  0
 64 65  1  0
 64 66  2  0
 66 67  1  0
 66  2  1  0
 63 16  1  0
 36 19  1  0
 60 50  1  0
 32 23  1  0
M  CHG  1  14   1
M  END
>  <UniqueID>  (59) 
670

>  <SMILES>  (59) 
c1ccc(CC/[NH+]=c2\nc(NCCN3CCCC3)[nH]c(N3CCc4ccccc4C3)n2)cc1

>  <Energy>  (59) 
73.03619198892197

>  <Genealogy>  (59) 
c1ccc(CC[NH2+]c2nc(NCCN3CCCC3)nc(N3CCc4ccccc4C3)n2)cc1 (protonated)
c1ccc(CC[NH+]=c2nc(NCCN3CCCC3)[nH]c(N3CCc4ccccc4C3)n2)cc1 (tautomer)
c1ccc(CC/[NH+]=c2\nc(NCCN3CCCC3)[nH]c(N3CCc4ccccc4C3)n2)cc1 (cis-trans isomerization)
c1ccc(CC/[NH+]=c2\nc(NCCN3CCCC3)[nH]c(N3CCc4ccccc4C3)n2)cc1 (3D coordinates assigned)
c1ccc(CC/[NH+]=c2\nc(NCCN3CCCC3)[nH]c(N3CCc4ccccc4C3)n2)cc1 (nonaromatic ring conformer: 73.03619198892197 kcal/mol)

>  <smiles>  (59) 
c1ccc(CCNc2nc(NCCN3CCCC3)nc(N3CCc4ccccc4C3)n2)cc1

>  <score_type>  (59) 
oracle

>  <origin>  (59) 
autodockgpu

>  <m_score__min__energy>  (59) 
-9.9900000000000002

>  <m_primary>  (59) 
energy

>  <meeko>  (59) 
{"free_energy": -9.99, "intermolecular_energy": -12.68, "internal_energy": -1.03, "cluster_size": 12, "cluster_id": 1, "rank_in_cluster": 1}

>  <energy>  (59) 
-7.4

>  <cluster_rmsd>  (59) 
1.9

>  <rmsd>  (59) 
270.32

>  <cluster>  (59) 
4

$$$$
FPFWJFTVWFQHMH-FSECZMGHNA-O
     RDKit          3D

 67 71  0  0  0  0  0  0  0  0999 V2000
  140.0595   70.3802  229.4102 H   0  0  0  0  0  0  0  0  0  0  0  0
  140.1920   70.5530  228.3320 C   0  0  0  0  0  0  0  0  0  0  0  0
  140.9050   71.6700  227.8860 C   0  0  0  0  0  0  0  0  0  0  0  0
  141.3345   72.3738  228.6141 H   0  0  0  0  0  0  0  0  0  0  0  0
  141.0730   71.8940  226.5160 C   0  0  0  0  0  0  0  0  0  0  0  0
  141.6390   72.7716  226.1703 H   0  0  0  0  0  0  0  0  0  0  0  0
  140.5220   71.0030  225.5780 C   0  0  0  0  0  0  0  0  0  0  0  0
  140.7000   71.2490  224.1000 C   0  0  0  0  0  0  0  0  0  0  0  0
  141.3448   72.1290  223.9591 H   0  0  0  0  0  0  0  0  0  0  0  0
  141.1569   70.3536  223.6534 H   0  0  0  0  0  0  0  0  0  0  0  0
  139.3560   71.5000  223.4070 C   0  0  0  0  0  0  0  0  0  0  0  0
  138.7924   70.5567  223.3573 H   0  0  0  0  0  0  0  0  0  0  0  0
  138.7922   72.2481  223.9836 H   0  0  0  0  0  0  0  0  0  0  0  0
  139.5670   72.0080  222.0490 N   0  0  0  0  0  0  0  0  0  0  0  0
  138.9970   71.5800  221.2820 H   0  0  0  0  0  0  0  0  0  0  0  0
  140.4260   72.9440  221.7500 C   0  0  0  0  0  0  0  0  0  0  0  0
  141.5760   72.6190  221.1040 N   0  0  0  0  0  0  0  0  0  0  0  0
  142.4900   73.5750  220.7960 C   0  0  0  0  0  0  0  0  0  0  0  0
  143.7080   73.2050  220.1260 N   0  0  0  0  0  0  0  0  0  0  0  0
  144.4190   71.9680  220.4590 C   0  0  0  0  0  0  0  0  0  0  0  0
  143.9417   71.4999  221.3325 H   0  0  0  0  0  0  0  0  0  0  0  0
  145.4680   72.2101  220.6847 H   0  0  0  0  0  0  0  0  0  0  0  0
  144.3790   71.0070  219.2970 C   0  0  0  0  0  0  0  0  0  0  0  0
  144.7310   69.6640  219.5040 C   0  0  0  0  0  0  0  0  0  0  0  0
  144.9859   69.3163  220.5160 H   0  0  0  0  0  0  0  0  0  0  0  0
  144.7600   68.7660  218.4350 C   0  0  0  0  0  0  0  0  0  0  0  0
  145.0314   67.7142  218.6086 H   0  0  0  0  0  0  0  0  0  0  0  0
  144.4450   69.2010  217.1460 C   0  0  0  0  0  0  0  0  0  0  0  0
  144.4589   68.4896  216.3071 H   0  0  0  0  0  0  0  0  0  0  0  0
  144.1120   70.5400  216.9210 C   0  0  0  0  0  0  0  0  0  0  0  0
  143.8685   70.8784  215.9031 H   0  0  0  0  0  0  0  0  0  0  0  0
  144.0860   71.4570  217.9860 C   0  0  0  0  0  0  0  0  0  0  0  0
  143.6440   72.8800  217.7180 C   0  0  0  0  0  0  0  0  0  0  0  0
  142.5491   72.8979  217.6138 H   0  0  0  0  0  0  0  0  0  0  0  0
  144.1376   73.2207  216.7959 H   0  0  0  0  0  0  0  0  0  0  0  0
  144.0480   73.8290  218.8480 C   0  0  0  0  0  0  0  0  0  0  0  0
  143.5058   74.7805  218.7444 H   0  0  0  0  0  0  0  0  0  0  0  0
  145.1289   74.0279  218.8030 H   0  0  0  0  0  0  0  0  0  0  0  0
  142.2620   74.8680  221.1610 N   0  0  0  0  0  0  0  0  0  0  0  0
  142.9750   75.6060  220.9640 H   0  0  0  0  0  0  0  0  0  0  0  0
  141.1090   75.2060  221.8010 C   0  0  0  0  0  0  0  0  0  0  0  0
  140.8800   76.5680  222.1940 N   0  0  0  0  0  0  0  0  0  0  0  0
  141.6970   77.2170  222.2520 H   0  0  0  0  0  0  0  0  0  0  0  0
  139.5420   77.1450  222.3230 C   0  0  0  0  0  0  0  0  0  0  0  0
  139.0154   77.0616  221.3608 H   0  0  0  0  0  0  0  0  0  0  0  0
  138.9879   76.5995  223.1011 H   0  0  0  0  0  0  0  0  0  0  0  0
  139.6420   78.6220  222.7200 C   0  0  0  0  0  0  0  0  0  0  0  0
  138.9312   79.2053  222.1161 H   0  0  0  0  0  0  0  0  0  0  0  0
  139.4054   78.7129  223.7904 H   0  0  0  0  0  0  0  0  0  0  0  0
  141.0070   79.1420  222.4950 N   0  0  0  0  0  0  0  0  0  0  0  0
  141.7830   79.2310  223.7440 C   0  0  0  0  0  0  0  0  0  0  0  0
  141.1191   79.0721  224.6066 H   0  0  0  0  0  0  0  0  0  0  0  0
  142.5690   78.4616  223.7577 H   0  0  0  0  0  0  0  0  0  0  0  0
  142.4060   80.6200  223.8220 C   0  0  0  0  0  0  0  0  0  0  0  0
  141.8991   81.2279  224.5859 H   0  0  0  0  0  0  0  0  0  0  0  0
  143.4686   80.5791  224.1034 H   0  0  0  0  0  0  0  0  0  0  0  0
  142.2080   81.2190  222.4520 C   0  0  0  0  0  0  0  0  0  0  0  0
  142.0087   82.2985  222.5225 H   0  0  0  0  0  0  0  0  0  0  0  0
  143.0967   81.1147  221.8122 H   0  0  0  0  0  0  0  0  0  0  0  0
  141.0050   80.4850  221.9010 C   0  0  0  0  0  0  0  0  0  0  0  0
  140.0815   81.0166  222.1740 H   0  0  0  0  0  0  0  0  0  0  0  0
  141.0516   80.4269  220.8035 H   0  0  0  0  0  0  0  0  0  0  0  0
  140.1960   74.2410  222.0880 N   0  0  0  0  0  0  0  0  0  0  0  0
  139.7980   69.8850  226.0350 C   0  0  0  0  0  0  0  0  0  0  0  0
  139.3492   69.1895  225.3105 H   0  0  0  0  0  0  0  0  0  0  0  0
  139.6470   69.6550  227.4080 C   0  0  0  0  0  0  0  0  0  0  0  0
  139.0998   68.7681  227.7601 H   0  0  0  0  0  0  0  0  0  0  0  0
  1  2  1  0
  2  3  2  0
  3  4  1  0
  3  5  1  0
  5  6  1  0
  5  7  2  0
  7  8  1  0
  8  9  1  0
  8 10  1  0
  8 11  1  0
 11 12  1  0
 11 13  1  0
 11 14  1  0
 14 15  1  0
 14 16  2  0
 16 17  1  0
 17 18  2  0
 18 19  1  0
 19 20  1  0
 20 21  1  0
 20 22  1  0
 20 23  1  0
 23 24  2  0
 24 25  1  0
 24 26  1  0
 26 27  1  0
 26 28  2  0
 28 29  1  0
 28 30  1  0
 30 31  1  0
 30 32  2  0
 32 33  1  0
 33 34  1  0
 33 35  1  0
 33 36  1  0
 36 37  1  0
 36 38  1  0
 18 39  1  0
 39 40  1  0
 39 41  1  0
 41 42  1  0
 42 43  1  0
 42 44  1  0
 44 45  1  0
 44 46  1  0
 44 47  1  0
 47 48  1  0
 47 49  1  0
 47 50  1  0
 50 51  1  0
 51 52  1  0
 51 53  1  0
 51 54  1  0
 54 55  1  0
 54 56  1  0
 54 57  1  0
 57 58  1  0
 57 59  1  0
 57 60  1  0
 60 61  1  0
 60 62  1  0
 41 63  2  0
  7 64  1  0
 64 65  1  0
 64 66  2  0
 66 67  1  0
 66  2  1  0
 63 16  1  0
 36 19  1  0
 60 50  1  0
 32 23  1  0
M  CHG  1  14   1
M  END
>  <UniqueID>  (60) 
670

>  <SMILES>  (60) 
c1ccc(CC/[NH+]=c2\nc(NCCN3CCCC3)[nH]c(N3CCc4ccccc4C3)n2)cc1

>  <Energy>  (60) 
73.03619198892197

>  <Genealogy>  (60) 
c1ccc(CC[NH2+]c2nc(NCCN3CCCC3)nc(N3CCc4ccccc4C3)n2)cc1 (protonated)
c1ccc(CC[NH+]=c2nc(NCCN3CCCC3)[nH]c(N3CCc4ccccc4C3)n2)cc1 (tautomer)
c1ccc(CC/[NH+]=c2\nc(NCCN3CCCC3)[nH]c(N3CCc4ccccc4C3)n2)cc1 (cis-trans isomerization)
c1ccc(CC/[NH+]=c2\nc(NCCN3CCCC3)[nH]c(N3CCc4ccccc4C3)n2)cc1 (3D coordinates assigned)
c1ccc(CC/[NH+]=c2\nc(NCCN3CCCC3)[nH]c(N3CCc4ccccc4C3)n2)cc1 (nonaromatic ring conformer: 73.03619198892197 kcal/mol)

>  <smiles>  (60) 
c1ccc(CCNc2nc(NCCN3CCCC3)nc(N3CCc4ccccc4C3)n2)cc1

>  <score_type>  (60) 
oracle

>  <origin>  (60) 
autodockgpu

>  <m_score__min__energy>  (60) 
-9.9900000000000002

>  <m_primary>  (60) 
energy

>  <meeko>  (60) 
{"free_energy": -8.91, "intermolecular_energy": -11.59, "internal_energy": -1.45, "cluster_size": 4, "cluster_id": 2, "rank_in_cluster": 2}

>  <energy>  (60) 
-8.13

>  <cluster_rmsd>  (60) 
0.0

>  <rmsd>  (60) 
270.21

>  <cluster>  (60) 
5

$$$$
FPFWJFTVWFQHMH-FSECZMGHNA-O
     RDKit          3D

 67 71  0  0  0  0  0  0  0  0999 V2000
  140.2833   67.7311  228.7766 H   0  0  0  0  0  0  0  0  0  0  0  0
  140.3700   68.4930  227.9880 C   0  0  0  0  0  0  0  0  0  0  0  0
  140.6310   69.8240  228.3290 C   0  0  0  0  0  0  0  0  0  0  0  0
  140.7514   70.1069  229.3852 H   0  0  0  0  0  0  0  0  0  0  0  0
  140.7390   70.7950  227.3300 C   0  0  0  0  0  0  0  0  0  0  0  0
  140.9486   71.8398  227.6028 H   0  0  0  0  0  0  0  0  0  0  0  0
  140.5810   70.4430  225.9770 C   0  0  0  0  0  0  0  0  0  0  0  0
  140.6940   71.4940  224.9000 C   0  0  0  0  0  0  0  0  0  0  0  0
  140.2792   72.4400  225.2783 H   0  0  0  0  0  0  0  0  0  0  0  0
  141.7565   71.6096  224.6397 H   0  0  0  0  0  0  0  0  0  0  0  0
  139.9300   71.0850  223.6360 C   0  0  0  0  0  0  0  0  0  0  0  0
  140.6021   70.5200  222.9734 H   0  0  0  0  0  0  0  0  0  0  0  0
  139.0711   70.4615  223.9249 H   0  0  0  0  0  0  0  0  0  0  0  0
  139.4390   72.2710  222.9280 N   0  0  0  0  0  0  0  0  0  0  0  0
  138.4020   72.4100  222.8850 H   0  0  0  0  0  0  0  0  0  0  0  0
  140.2170   73.1410  222.3460 C   0  0  0  0  0  0  0  0  0  0  0  0
  139.8170   74.4350  222.2390 N   0  0  0  0  0  0  0  0  0  0  0  0
  140.6040   75.3550  221.6240 C   0  0  0  0  0  0  0  0  0  0  0  0
  140.1530   76.7160  221.5100 N   0  0  0  0  0  0  0  0  0  0  0  0
  139.9240   77.5480  222.6950 C   0  0  0  0  0  0  0  0  0  0  0  0
  140.0345   76.9304  223.5985 H   0  0  0  0  0  0  0  0  0  0  0  0
  138.9082   77.9673  222.6461 H   0  0  0  0  0  0  0  0  0  0  0  0
  140.9200   78.6810  222.7420 C   0  0  0  0  0  0  0  0  0  0  0  0
  141.0730   79.4090  223.9330 C   0  0  0  0  0  0  0  0  0  0  0  0
  140.5040   79.1181  224.8283 H   0  0  0  0  0  0  0  0  0  0  0  0
  141.9430   80.5000  223.9880 C   0  0  0  0  0  0  0  0  0  0  0  0
  142.0607   81.0618  224.9264 H   0  0  0  0  0  0  0  0  0  0  0  0
  142.6640   80.8790  222.8530 C   0  0  0  0  0  0  0  0  0  0  0  0
  143.3564   81.7323  222.9019 H   0  0  0  0  0  0  0  0  0  0  0  0
  142.5070   80.1760  221.6560 C   0  0  0  0  0  0  0  0  0  0  0  0
  143.0744   80.4816  220.7646 H   0  0  0  0  0  0  0  0  0  0  0  0
  141.6290   79.0810  221.5830 C   0  0  0  0  0  0  0  0  0  0  0  0
  141.5440   78.2930  220.2930 C   0  0  0  0  0  0  0  0  0  0  0  0
  142.4310   77.6475  220.2125 H   0  0  0  0  0  0  0  0  0  0  0  0
  141.4957   79.0102  219.4603 H   0  0  0  0  0  0  0  0  0  0  0  0
  140.2900   77.4180  220.2350 C   0  0  0  0  0  0  0  0  0  0  0  0
  140.3850   76.6876  219.4180 H   0  0  0  0  0  0  0  0  0  0  0  0
  139.4033   78.0429  220.0524 H   0  0  0  0  0  0  0  0  0  0  0  0
  141.7960   74.9690  221.0880 N   0  0  0  0  0  0  0  0  0  0  0  0
  142.3940   75.6590  220.5790 H   0  0  0  0  0  0  0  0  0  0  0  0
  142.2110   73.6780  221.1970 C   0  0  0  0  0  0  0  0  0  0  0  0
  143.4620   73.2750  220.6180 N   0  0  0  0  0  0  0  0  0  0  0  0
  143.5140   72.3520  220.1300 H   0  0  0  0  0  0  0  0  0  0  0  0
  144.6110   74.1730  220.4990 C   0  0  0  0  0  0  0  0  0  0  0  0
  144.4972   74.7919  219.5968 H   0  0  0  0  0  0  0  0  0  0  0  0
  144.6594   74.8160  221.3902 H   0  0  0  0  0  0  0  0  0  0  0  0
  145.9060   73.3600  220.3960 C   0  0  0  0  0  0  0  0  0  0  0  0
  146.7648   74.0467  220.4267 H   0  0  0  0  0  0  0  0  0  0  0  0
  145.9445   72.6553  221.2398 H   0  0  0  0  0  0  0  0  0  0  0  0
  145.9500   72.5880  219.1370 N   0  0  0  0  0  0  0  0  0  0  0  0
  145.1160   73.1930  218.0840 C   0  0  0  0  0  0  0  0  0  0  0  0
  144.4867   73.9847  218.5166 H   0  0  0  0  0  0  0  0  0  0  0  0
  145.7522   73.6360  217.3036 H   0  0  0  0  0  0  0  0  0  0  0  0
  144.2340   72.1010  217.4870 C   0  0  0  0  0  0  0  0  0  0  0  0
  143.1893   72.2317  217.8055 H   0  0  0  0  0  0  0  0  0  0  0  0
  144.2356   72.1264  216.3873 H   0  0  0  0  0  0  0  0  0  0  0  0
  144.7920   70.8060  218.0220 C   0  0  0  0  0  0  0  0  0  0  0  0
  143.9853   70.0846  218.2189 H   0  0  0  0  0  0  0  0  0  0  0  0
  145.4738   70.3141  217.3127 H   0  0  0  0  0  0  0  0  0  0  0  0
  145.4810   71.2070  219.3090 C   0  0  0  0  0  0  0  0  0  0  0  0
  144.7730   71.1510  220.1490 H   0  0  0  0  0  0  0  0  0  0  0  0
  146.3221   70.5329  219.5287 H   0  0  0  0  0  0  0  0  0  0  0  0
  141.4190   72.7720  221.8290 N   0  0  0  0  0  0  0  0  0  0  0  0
  140.3100   69.1030  225.6430 C   0  0  0  0  0  0  0  0  0  0  0  0
  140.1690   68.8190  224.5897 H   0  0  0  0  0  0  0  0  0  0  0  0
  140.2190   68.1290  226.6460 C   0  0  0  0  0  0  0  0  0  0  0  0
  140.0290   67.0791  226.3783 H   0  0  0  0  0  0  0  0  0  0  0  0
  1  2  1  0
  2  3  2  0
  3  4  1  0
  3  5  1  0
  5  6  1  0
  5  7  2  0
  7  8  1  0
  8  9  1  0
  8 10  1  0
  8 11  1  0
 11 12  1  0
 11 13  1  0
 11 14  1  0
 14 15  1  0
 14 16  2  0
 16 17  1  0
 17 18  2  0
 18 19  1  0
 19 20  1  0
 20 21  1  0
 20 22  1  0
 20 23  1  0
 23 24  2  0
 24 25  1  0
 24 26  1  0
 26 27  1  0
 26 28  2  0
 28 29  1  0
 28 30  1  0
 30 31  1  0
 30 32  2  0
 32 33  1  0
 33 34  1  0
 33 35  1  0
 33 36  1  0
 36 37  1  0
 36 38  1  0
 18 39  1  0
 39 40  1  0
 39 41  1  0
 41 42  1  0
 42 43  1  0
 42 44  1  0
 44 45  1  0
 44 46  1  0
 44 47  1  0
 47 48  1  0
 47 49  1  0
 47 50  1  0
 50 51  1  0
 51 52  1  0
 51 53  1  0
 51 54  1  0
 54 55  1  0
 54 56  1  0
 54 57  1  0
 57 58  1  0
 57 59  1  0
 57 60  1  0
 60 61  1  0
 60 62  1  0
 41 63  2  0
  7 64  1  0
 64 65  1  0
 64 66  2  0
 66 67  1  0
 66  2  1  0
 63 16  1  0
 36 19  1  0
 60 50  1  0
 32 23  1  0
M  CHG  1  14   1
M  END
>  <UniqueID>  (61) 
671

>  <SMILES>  (61) 
c1ccc(CC/[NH+]=c2\nc(NCCN3CCCC3)[nH]c(N3CCc4ccccc4C3)n2)cc1

>  <Energy>  (61) 
73.12508540169439

>  <Genealogy>  (61) 
c1ccc(CC[NH2+]c2nc(NCCN3CCCC3)nc(N3CCc4ccccc4C3)n2)cc1 (protonated)
c1ccc(CC[NH+]=c2nc(NCCN3CCCC3)[nH]c(N3CCc4ccccc4C3)n2)cc1 (tautomer)
c1ccc(CC/[NH+]=c2\nc(NCCN3CCCC3)[nH]c(N3CCc4ccccc4C3)n2)cc1 (cis-trans isomerization)
c1ccc(CC/[NH+]=c2\nc(NCCN3CCCC3)[nH]c(N3CCc4ccccc4C3)n2)cc1 (3D coordinates assigned)
c1ccc(CC/[NH+]=c2\nc(NCCN3CCCC3)[nH]c(N3CCc4ccccc4C3)n2)cc1 (nonaromatic ring conformer: 73.12508540169439 kcal/mol)

>  <smiles>  (61) 
c1ccc(CCNc2nc(NCCN3CCCC3)nc(N3CCc4ccccc4C3)n2)cc1

>  <score_type>  (61) 
oracle

>  <origin>  (61) 
autodockgpu

>  <m_score__min__energy>  (61) 
-9.9900000000000002

>  <m_primary>  (61) 
energy

>  <meeko>  (61) 
{"free_energy": -9.98, "intermolecular_energy": -12.67, "internal_energy": -0.96, "cluster_size": 12, "cluster_id": 1, "rank_in_cluster": 2}

>  <energy>  (61) 
-9.99

>  <cluster_rmsd>  (61) 
0.0

>  <rmsd>  (61) 
271.39

>  <cluster>  (61) 
1

$$$$
FPFWJFTVWFQHMH-FSECZMGHNA-O
     RDKit          3D

 67 71  0  0  0  0  0  0  0  0999 V2000
  140.2996   69.9835  229.1703 H   0  0  0  0  0  0  0  0  0  0  0  0
  140.3690   70.2930  228.1170 C   0  0  0  0  0  0  0  0  0  0  0  0
  141.0830   71.4450  227.7730 C   0  0  0  0  0  0  0  0  0  0  0  0
  141.5767   72.0388  228.5563 H   0  0  0  0  0  0  0  0  0  0  0  0
  141.1710   71.8440  226.4360 C   0  0  0  0  0  0  0  0  0  0  0  0
  141.7384   72.7482  226.1704 H   0  0  0  0  0  0  0  0  0  0  0  0
  140.5370   71.0940  225.4290 C   0  0  0  0  0  0  0  0  0  0  0  0
  140.6290   71.5280  223.9870 C   0  0  0  0  0  0  0  0  0  0  0  0
  141.0597   72.5393  223.9446 H   0  0  0  0  0  0  0  0  0  0  0  0
  141.2652   70.8094  223.4495 H   0  0  0  0  0  0  0  0  0  0  0  0
  139.2500   71.5450  223.3180 C   0  0  0  0  0  0  0  0  0  0  0  0
  138.9227   70.5106  223.1368 H   0  0  0  0  0  0  0  0  0  0  0  0
  138.5383   72.0568  223.9824 H   0  0  0  0  0  0  0  0  0  0  0  0
  139.3080   72.2630  222.0420 N   0  0  0  0  0  0  0  0  0  0  0  0
  138.7050   71.9100  221.2640 H   0  0  0  0  0  0  0  0  0  0  0  0
  140.0740   73.2980  221.8260 C   0  0  0  0  0  0  0  0  0  0  0  0
  139.7300   74.5070  222.3400 N   0  0  0  0  0  0  0  0  0  0  0  0
  140.5050   75.6000  222.1160 C   0  0  0  0  0  0  0  0  0  0  0  0
  140.1130   76.8730  222.6580 N   0  0  0  0  0  0  0  0  0  0  0  0
  141.1060   77.8400  223.1360 C   0  0  0  0  0  0  0  0  0  0  0  0
  142.1033   77.3763  223.1143 H   0  0  0  0  0  0  0  0  0  0  0  0
  140.8497   78.1365  224.1638 H   0  0  0  0  0  0  0  0  0  0  0  0
  141.1090   79.0680  222.2580 C   0  0  0  0  0  0  0  0  0  0  0  0
  142.1770   79.9750  222.3520 C   0  0  0  0  0  0  0  0  0  0  0  0
  143.0193   79.7591  223.0258 H   0  0  0  0  0  0  0  0  0  0  0  0
  142.1770   81.1490  221.5960 C   0  0  0  0  0  0  0  0  0  0  0  0
  143.0204   81.8511  221.6718 H   0  0  0  0  0  0  0  0  0  0  0  0
  141.1080   81.4330  220.7440 C   0  0  0  0  0  0  0  0  0  0  0  0
  141.1149   82.3536  220.1420 H   0  0  0  0  0  0  0  0  0  0  0  0
  140.0290   80.5490  220.6550 C   0  0  0  0  0  0  0  0  0  0  0  0
  139.1883   80.7796  219.9841 H   0  0  0  0  0  0  0  0  0  0  0  0
  140.0100   79.3680  221.4160 C   0  0  0  0  0  0  0  0  0  0  0  0
  138.8640   78.3960  221.2340 C   0  0  0  0  0  0  0  0  0  0  0  0
  139.0121   77.8445  220.2938 H   0  0  0  0  0  0  0  0  0  0  0  0
  137.9284   78.9742  221.2133 H   0  0  0  0  0  0  0  0  0  0  0  0
  138.7740   77.3930  222.3860 C   0  0  0  0  0  0  0  0  0  0  0  0
  138.1052   76.5659  222.1057 H   0  0  0  0  0  0  0  0  0  0  0  0
  138.3734   77.8869  223.2836 H   0  0  0  0  0  0  0  0  0  0  0  0
  141.6250   75.4850  221.3480 N   0  0  0  0  0  0  0  0  0  0  0  0
  142.2090   76.3260  221.1370 H   0  0  0  0  0  0  0  0  0  0  0  0
  141.9830   74.2770  220.8360 C   0  0  0  0  0  0  0  0  0  0  0  0
  143.1580   74.1650  220.0160 N   0  0  0  0  0  0  0  0  0  0  0  0
  143.3290   73.2690  219.5060 H   0  0  0  0  0  0  0  0  0  0  0  0
  144.0180   75.3040  219.6990 C   0  0  0  0  0  0  0  0  0  0  0  0
  144.1031   75.9529  220.5831 H   0  0  0  0  0  0  0  0  0  0  0  0
  145.0127   74.9346  219.4089 H   0  0  0  0  0  0  0  0  0  0  0  0
  143.4220   76.1060  218.5370 C   0  0  0  0  0  0  0  0  0  0  0  0
  144.2272   76.6602  218.0325 H   0  0  0  0  0  0  0  0  0  0  0  0
  142.9396   75.4053  217.8396 H   0  0  0  0  0  0  0  0  0  0  0  0
  142.4050   77.0640  219.0190 N   0  0  0  0  0  0  0  0  0  0  0  0
  141.0360   76.6450  218.6730 C   0  0  0  0  0  0  0  0  0  0  0  0
  141.0720   75.8053  217.9633 H   0  0  0  0  0  0  0  0  0  0  0  0
  140.4990   76.3199  219.5763 H   0  0  0  0  0  0  0  0  0  0  0  0
  140.3210   77.8300  218.0340 C   0  0  0  0  0  0  0  0  0  0  0  0
  140.1953   77.6676  216.9533 H   0  0  0  0  0  0  0  0  0  0  0  0
  139.3141   77.9767  218.4519 H   0  0  0  0  0  0  0  0  0  0  0  0
  141.2160   79.0170  218.2900 C   0  0  0  0  0  0  0  0  0  0  0  0
  141.1977   79.7116  217.4372 H   0  0  0  0  0  0  0  0  0  0  0  0
  140.9017   79.6031  219.1662 H   0  0  0  0  0  0  0  0  0  0  0  0
  142.5910   78.4090  218.4590 C   0  0  0  0  0  0  0  0  0  0  0  0
  143.0971   78.3449  217.4845 H   0  0  0  0  0  0  0  0  0  0  0  0
  143.2121   79.0267  219.1244 H   0  0  0  0  0  0  0  0  0  0  0  0
  141.2070   73.1890  221.0810 N   0  0  0  0  0  0  0  0  0  0  0  0
  139.8130   69.9400  225.7840 C   0  0  0  0  0  0  0  0  0  0  0  0
  139.3001   69.3546  225.0067 H   0  0  0  0  0  0  0  0  0  0  0  0
  139.7430   69.5340  227.1230 C   0  0  0  0  0  0  0  0  0  0  0  0
  139.1959   68.6186  227.3925 H   0  0  0  0  0  0  0  0  0  0  0  0
  1  2  1  0
  2  3  2  0
  3  4  1  0
  3  5  1  0
  5  6  1  0
  5  7  2  0
  7  8  1  0
  8  9  1  0
  8 10  1  0
  8 11  1  0
 11 12  1  0
 11 13  1  0
 11 14  1  0
 14 15  1  0
 14 16  2  0
 16 17  1  0
 17 18  2  0
 18 19  1  0
 19 20  1  0
 20 21  1  0
 20 22  1  0
 20 23  1  0
 23 24  2  0
 24 25  1  0
 24 26  1  0
 26 27  1  0
 26 28  2  0
 28 29  1  0
 28 30  1  0
 30 31  1  0
 30 32  2  0
 32 33  1  0
 33 34  1  0
 33 35  1  0
 33 36  1  0
 36 37  1  0
 36 38  1  0
 18 39  1  0
 39 40  1  0
 39 41  1  0
 41 42  1  0
 42 43  1  0
 42 44  1  0
 44 45  1  0
 44 46  1  0
 44 47  1  0
 47 48  1  0
 47 49  1  0
 47 50  1  0
 50 51  1  0
 51 52  1  0
 51 53  1  0
 51 54  1  0
 54 55  1  0
 54 56  1  0
 54 57  1  0
 57 58  1  0
 57 59  1  0
 57 60  1  0
 60 61  1  0
 60 62  1  0
 41 63  2  0
  7 64  1  0
 64 65  1  0
 64 66  2  0
 66 67  1  0
 66  2  1  0
 63 16  1  0
 36 19  1  0
 60 50  1  0
 32 23  1  0
M  CHG  1  14   1
M  END
>  <UniqueID>  (62) 
671

>  <SMILES>  (62) 
c1ccc(CC/[NH+]=c2\nc(NCCN3CCCC3)[nH]c(N3CCc4ccccc4C3)n2)cc1

>  <Energy>  (62) 
73.12508540169439

>  <Genealogy>  (62) 
c1ccc(CC[NH2+]c2nc(NCCN3CCCC3)nc(N3CCc4ccccc4C3)n2)cc1 (protonated)
c1ccc(CC[NH+]=c2nc(NCCN3CCCC3)[nH]c(N3CCc4ccccc4C3)n2)cc1 (tautomer)
c1ccc(CC/[NH+]=c2\nc(NCCN3CCCC3)[nH]c(N3CCc4ccccc4C3)n2)cc1 (cis-trans isomerization)
c1ccc(CC/[NH+]=c2\nc(NCCN3CCCC3)[nH]c(N3CCc4ccccc4C3)n2)cc1 (3D coordinates assigned)
c1ccc(CC/[NH+]=c2\nc(NCCN3CCCC3)[nH]c(N3CCc4ccccc4C3)n2)cc1 (nonaromatic ring conformer: 73.12508540169439 kcal/mol)

>  <smiles>  (62) 
c1ccc(CCNc2nc(NCCN3CCCC3)nc(N3CCc4ccccc4C3)n2)cc1

>  <score_type>  (62) 
oracle

>  <origin>  (62) 
autodockgpu

>  <m_score__min__energy>  (62) 
-9.9900000000000002

>  <m_primary>  (62) 
energy

>  <meeko>  (62) 
{"free_energy": -8.07, "intermolecular_energy": -10.76, "internal_energy": -2.53, "cluster_size": 12, "cluster_id": 1, "rank_in_cluster": 12}

>  <energy>  (62) 
-9.98

>  <cluster_rmsd>  (62) 
0.75

>  <rmsd>  (62) 
271.46

>  <cluster>  (62) 
1

$$$$
FPFWJFTVWFQHMH-FSECZMGHNA-O
     RDKit          3D

 67 71  0  0  0  0  0  0  0  0999 V2000
  140.7999   73.3345  227.8108 H   0  0  0  0  0  0  0  0  0  0  0  0
  140.7740   72.2700  227.5350 C   0  0  0  0  0  0  0  0  0  0  0  0
  140.0720   71.3590  228.3310 C   0  0  0  0  0  0  0  0  0  0  0  0
  139.5449   71.7087  229.2309 H   0  0  0  0  0  0  0  0  0  0  0  0
  140.0390   70.0050  227.9850 C   0  0  0  0  0  0  0  0  0  0  0  0
  139.4813   69.2935  228.6117 H   0  0  0  0  0  0  0  0  0  0  0  0
  140.7150   69.5480  226.8400 C   0  0  0  0  0  0  0  0  0  0  0  0
  140.6820   68.0860  226.4700 C   0  0  0  0  0  0  0  0  0  0  0  0
  141.5873   67.8420  225.8948 H   0  0  0  0  0  0  0  0  0  0  0  0
  140.6371   67.4955  227.3970 H   0  0  0  0  0  0  0  0  0  0  0  0
  139.4480   67.7500  225.6240 C   0  0  0  0  0  0  0  0  0  0  0  0
  139.5720   66.7495  225.1840 H   0  0  0  0  0  0  0  0  0  0  0  0
  138.5571   67.7722  226.2688 H   0  0  0  0  0  0  0  0  0  0  0  0
  139.2810   68.7320  224.5500 N   0  0  0  0  0  0  0  0  0  0  0  0
  140.0420   68.7970  223.8350 H   0  0  0  0  0  0  0  0  0  0  0  0
  138.2510   69.5280  224.4490 C   0  0  0  0  0  0  0  0  0  0  0  0
  137.0960   69.2160  225.0910 N   0  0  0  0  0  0  0  0  0  0  0  0
  136.0080   70.0230  224.9880 C   0  0  0  0  0  0  0  0  0  0  0  0
  134.7900   69.6640  225.6650 N   0  0  0  0  0  0  0  0  0  0  0  0
  134.3490   70.3700  226.8720 C   0  0  0  0  0  0  0  0  0  0  0  0
  135.1348   71.0714  227.1892 H   0  0  0  0  0  0  0  0  0  0  0  0
  134.1569   69.6335  227.6661 H   0  0  0  0  0  0  0  0  0  0  0  0
  133.0790   71.1370  226.5980 C   0  0  0  0  0  0  0  0  0  0  0  0
  132.6560   72.1120  227.5150 C   0  0  0  0  0  0  0  0  0  0  0  0
  133.2757   72.3396  228.3949 H   0  0  0  0  0  0  0  0  0  0  0  0
  131.4540   72.7950  227.3180 C   0  0  0  0  0  0  0  0  0  0  0  0
  131.1337   73.5615  228.0390 H   0  0  0  0  0  0  0  0  0  0  0  0
  130.6580   72.5070  226.2080 C   0  0  0  0  0  0  0  0  0  0  0  0
  129.7163   73.0532  226.0502 H   0  0  0  0  0  0  0  0  0  0  0  0
  131.0570   71.5250  225.2970 C   0  0  0  0  0  0  0  0  0  0  0  0
  130.4248   71.2998  224.4255 H   0  0  0  0  0  0  0  0  0  0  0  0
  132.2600   70.8230  225.4860 C   0  0  0  0  0  0  0  0  0  0  0  0
  132.6990   69.8240  224.4370 C   0  0  0  0  0  0  0  0  0  0  0  0
  133.0998   70.3714  223.5711 H   0  0  0  0  0  0  0  0  0  0  0  0
  131.8236   69.2201  224.1559 H   0  0  0  0  0  0  0  0  0  0  0  0
  133.7780   68.8750  224.9640 C   0  0  0  0  0  0  0  0  0  0  0  0
  134.2427   68.3386  224.1235 H   0  0  0  0  0  0  0  0  0  0  0  0
  133.3308   68.1412  225.6508 H   0  0  0  0  0  0  0  0  0  0  0  0
  136.0700   71.1410  224.2130 N   0  0  0  0  0  0  0  0  0  0  0  0
  135.2280   71.7500  224.0950 H   0  0  0  0  0  0  0  0  0  0  0  0
  137.2250   71.4680  223.5720 C   0  0  0  0  0  0  0  0  0  0  0  0
  137.2800   72.6410  222.7460 N   0  0  0  0  0  0  0  0  0  0  0  0
  138.1350   73.2420  222.7860 H   0  0  0  0  0  0  0  0  0  0  0  0
  136.2930   72.9300  221.7060 C   0  0  0  0  0  0  0  0  0  0  0  0
  136.7853   73.4513  220.8718 H   0  0  0  0  0  0  0  0  0  0  0  0
  135.8565   71.9848  221.3508 H   0  0  0  0  0  0  0  0  0  0  0  0
  135.1780   73.8170  222.2710 C   0  0  0  0  0  0  0  0  0  0  0  0
  135.3101   74.8427  221.8962 H   0  0  0  0  0  0  0  0  0  0  0  0
  134.2090   73.4091  221.9473 H   0  0  0  0  0  0  0  0  0  0  0  0
  135.2100   73.8350  223.7480 N   0  0  0  0  0  0  0  0  0  0  0  0
  133.8770   73.6190  224.3370 C   0  0  0  0  0  0  0  0  0  0  0  0
  133.1090   73.6799  223.5518 H   0  0  0  0  0  0  0  0  0  0  0  0
  133.8255   72.6244  224.8041 H   0  0  0  0  0  0  0  0  0  0  0  0
  133.6340   74.7030  225.3810 C   0  0  0  0  0  0  0  0  0  0  0  0
  132.8943   75.4309  225.0163 H   0  0  0  0  0  0  0  0  0  0  0  0
  133.2355   74.2887  226.3188 H   0  0  0  0  0  0  0  0  0  0  0  0
  134.9740   75.3660  225.5820 C   0  0  0  0  0  0  0  0  0  0  0  0
  134.8540   76.4454  225.7564 H   0  0  0  0  0  0  0  0  0  0  0  0
  135.5130   74.9748  226.4575 H   0  0  0  0  0  0  0  0  0  0  0  0
  135.7080   75.1090  224.2830 C   0  0  0  0  0  0  0  0  0  0  0  0
  135.5072   75.9217  223.5694 H   0  0  0  0  0  0  0  0  0  0  0  0
  136.7943   75.0645  224.4503 H   0  0  0  0  0  0  0  0  0  0  0  0
  138.3110   70.6600  223.6970 N   0  0  0  0  0  0  0  0  0  0  0  0
  141.4270   70.4700  226.0480 C   0  0  0  0  0  0  0  0  0  0  0  0
  141.9725   70.1218  225.1585 H   0  0  0  0  0  0  0  0  0  0  0  0
  141.4430   71.8290  226.3890 C   0  0  0  0  0  0  0  0  0  0  0  0
  141.9817   72.5488  225.7553 H   0  0  0  0  0  0  0  0  0  0  0  0
  1  2  1  0
  2  3  2  0
  3  4  1  0
  3  5  1  0
  5  6  1  0
  5  7  2  0
  7  8  1  0
  8  9  1  0
  8 10  1  0
  8 11  1  0
 11 12  1  0
 11 13  1  0
 11 14  1  0
 14 15  1  0
 14 16  2  0
 16 17  1  0
 17 18  2  0
 18 19  1  0
 19 20  1  0
 20 21  1  0
 20 22  1  0
 20 23  1  0
 23 24  2  0
 24 25  1  0
 24 26  1  0
 26 27  1  0
 26 28  2  0
 28 29  1  0
 28 30  1  0
 30 31  1  0
 30 32  2  0
 32 33  1  0
 33 34  1  0
 33 35  1  0
 33 36  1  0
 36 37  1  0
 36 38  1  0
 18 39  1  0
 39 40  1  0
 39 41  1  0
 41 42  1  0
 42 43  1  0
 42 44  1  0
 44 45  1  0
 44 46  1  0
 44 47  1  0
 47 48  1  0
 47 49  1  0
 47 50  1  0
 50 51  1  0
 51 52  1  0
 51 53  1  0
 51 54  1  0
 54 55  1  0
 54 56  1  0
 54 57  1  0
 57 58  1  0
 57 59  1  0
 57 60  1  0
 60 61  1  0
 60 62  1  0
 41 63  2  0
  7 64  1  0
 64 65  1  0
 64 66  2  0
 66 67  1  0
 66  2  1  0
 63 16  1  0
 36 19  1  0
 60 50  1  0
 32 23  1  0
M  CHG  1  14   1
M  END
>  <UniqueID>  (63) 
671

>  <SMILES>  (63) 
c1ccc(CC/[NH+]=c2\nc(NCCN3CCCC3)[nH]c(N3CCc4ccccc4C3)n2)cc1

>  <Energy>  (63) 
73.12508540169439

>  <Genealogy>  (63) 
c1ccc(CC[NH2+]c2nc(NCCN3CCCC3)nc(N3CCc4ccccc4C3)n2)cc1 (protonated)
c1ccc(CC[NH+]=c2nc(NCCN3CCCC3)[nH]c(N3CCc4ccccc4C3)n2)cc1 (tautomer)
c1ccc(CC/[NH+]=c2\nc(NCCN3CCCC3)[nH]c(N3CCc4ccccc4C3)n2)cc1 (cis-trans isomerization)
c1ccc(CC/[NH+]=c2\nc(NCCN3CCCC3)[nH]c(N3CCc4ccccc4C3)n2)cc1 (3D coordinates assigned)
c1ccc(CC/[NH+]=c2\nc(NCCN3CCCC3)[nH]c(N3CCc4ccccc4C3)n2)cc1 (nonaromatic ring conformer: 73.12508540169439 kcal/mol)

>  <smiles>  (63) 
c1ccc(CCNc2nc(NCCN3CCCC3)nc(N3CCc4ccccc4C3)n2)cc1

>  <score_type>  (63) 
oracle

>  <origin>  (63) 
autodockgpu

>  <m_score__min__energy>  (63) 
-9.9900000000000002

>  <m_primary>  (63) 
energy

>  <meeko>  (63) 
{"free_energy": -7.4, "intermolecular_energy": -10.08, "internal_energy": -2.9, "cluster_size": 2, "cluster_id": 4, "rank_in_cluster": 2}

>  <energy>  (63) 
-9.05

>  <cluster_rmsd>  (63) 
1.42

>  <rmsd>  (63) 
271.2

>  <cluster>  (63) 
1

$$$$
FPFWJFTVWFQHMH-FSECZMGHNA-O
     RDKit          3D

 67 71  0  0  0  0  0  0  0  0999 V2000
  140.4200   69.9294  229.3337 H   0  0  0  0  0  0  0  0  0  0  0  0
  140.4610   70.2460  228.2810 C   0  0  0  0  0  0  0  0  0  0  0  0
  141.0280   71.4790  227.9440 C   0  0  0  0  0  0  0  0  0  0  0  0
  141.4356   72.1293  228.7320 H   0  0  0  0  0  0  0  0  0  0  0  0
  141.0780   71.8870  226.6080 C   0  0  0  0  0  0  0  0  0  0  0  0
  141.5285   72.8562  226.3480 H   0  0  0  0  0  0  0  0  0  0  0  0
  140.5550   71.0640  225.5950 C   0  0  0  0  0  0  0  0  0  0  0  0
  140.6060   71.5070  224.1530 C   0  0  0  0  0  0  0  0  0  0  0  0
  140.8692   72.5744  224.1160 H   0  0  0  0  0  0  0  0  0  0  0  0
  141.3605   70.8997  223.6316 H   0  0  0  0  0  0  0  0  0  0  0  0
  139.2570   71.3020  223.4550 C   0  0  0  0  0  0  0  0  0  0  0  0
  139.0779   70.2248  223.3227 H   0  0  0  0  0  0  0  0  0  0  0  0
  138.4643   71.7448  224.0759 H   0  0  0  0  0  0  0  0  0  0  0  0
  139.2530   71.9560  222.1440 N   0  0  0  0  0  0  0  0  0  0  0  0
  138.6170   71.5630  221.4120 H   0  0  0  0  0  0  0  0  0  0  0  0
  140.0030   72.9810  221.8430 C   0  0  0  0  0  0  0  0  0  0  0  0
  139.6840   74.2110  222.3230 N   0  0  0  0  0  0  0  0  0  0  0  0
  140.4420   75.2940  222.0110 C   0  0  0  0  0  0  0  0  0  0  0  0
  140.0750   76.5890  222.5190 N   0  0  0  0  0  0  0  0  0  0  0  0
  141.0710   77.4920  223.1030 C   0  0  0  0  0  0  0  0  0  0  0  0
  142.0345   76.9670  223.1811 H   0  0  0  0  0  0  0  0  0  0  0  0
  140.7284   77.8038  224.1007 H   0  0  0  0  0  0  0  0  0  0  0  0
  141.2410   78.7170  222.2390 C   0  0  0  0  0  0  0  0  0  0  0  0
  142.3480   79.5560  222.4490 C   0  0  0  0  0  0  0  0  0  0  0  0
  143.1016   79.2877  223.2041 H   0  0  0  0  0  0  0  0  0  0  0  0
  142.4980   80.7290  221.7050 C   0  0  0  0  0  0  0  0  0  0  0  0
  143.3709   81.3772  221.8720 H   0  0  0  0  0  0  0  0  0  0  0  0
  141.5420   81.0800  220.7500 C   0  0  0  0  0  0  0  0  0  0  0  0
  141.6679   81.9991  220.1588 H   0  0  0  0  0  0  0  0  0  0  0  0
  140.4250   80.2650  220.5440 C   0  0  0  0  0  0  0  0  0  0  0  0
  139.6731   80.5485  219.7928 H   0  0  0  0  0  0  0  0  0  0  0  0
  140.2560   79.0860  221.2900 C   0  0  0  0  0  0  0  0  0  0  0  0
  139.0760   78.1880  220.9850 C   0  0  0  0  0  0  0  0  0  0  0  0
  139.2849   77.6292  220.0608 H   0  0  0  0  0  0  0  0  0  0  0  0
  138.1857   78.8243  220.8737 H   0  0  0  0  0  0  0  0  0  0  0  0
  138.8050   77.1910  222.1140 C   0  0  0  0  0  0  0  0  0  0  0  0
  138.1195   76.4071  221.7597 H   0  0  0  0  0  0  0  0  0  0  0  0
  138.3440   77.7072  222.9690 H   0  0  0  0  0  0  0  0  0  0  0  0
  141.5180   75.1480  221.1880 N   0  0  0  0  0  0  0  0  0  0  0  0
  142.0870   75.9800  220.9100 H   0  0  0  0  0  0  0  0  0  0  0  0
  141.8520   73.9190  220.7090 C   0  0  0  0  0  0  0  0  0  0  0  0
  142.9800   73.7730  219.8320 N   0  0  0  0  0  0  0  0  0  0  0  0
  142.8490   73.2660  218.9270 H   0  0  0  0  0  0  0  0  0  0  0  0
  144.2490   74.4690  220.0440 C   0  0  0  0  0  0  0  0  0  0  0  0
  144.6036   74.2758  221.0672 H   0  0  0  0  0  0  0  0  0  0  0  0
  144.9877   74.1012  219.3167 H   0  0  0  0  0  0  0  0  0  0  0  0
  144.0600   75.9780  219.8490 C   0  0  0  0  0  0  0  0  0  0  0  0
  143.8557   76.4435  220.8245 H   0  0  0  0  0  0  0  0  0  0  0  0
  144.9793   76.3913  219.4084 H   0  0  0  0  0  0  0  0  0  0  0  0
  142.9340   76.2590  218.9350 N   0  0  0  0  0  0  0  0  0  0  0  0
  143.3410   76.2180  217.5200 C   0  0  0  0  0  0  0  0  0  0  0  0
  144.4379   76.1749  217.4496 H   0  0  0  0  0  0  0  0  0  0  0  0
  142.9208   75.3270  217.0305 H   0  0  0  0  0  0  0  0  0  0  0  0
  142.8300   77.4820  216.8380 C   0  0  0  0  0  0  0  0  0  0  0  0
  143.6626   78.1680  216.6231 H   0  0  0  0  0  0  0  0  0  0  0  0
  142.3439   77.2626  215.8760 H   0  0  0  0  0  0  0  0  0  0  0  0
  141.8730   78.1040  217.8250 C   0  0  0  0  0  0  0  0  0  0  0  0
  141.9331   79.2018  217.7892 H   0  0  0  0  0  0  0  0  0  0  0  0
  140.8236   77.8500  217.6148 H   0  0  0  0  0  0  0  0  0  0  0  0
  142.3410   77.5830  219.1670 C   0  0  0  0  0  0  0  0  0  0  0  0
  143.0925   78.2631  219.5943 H   0  0  0  0  0  0  0  0  0  0  0  0
  141.5017   77.5168  219.8750 H   0  0  0  0  0  0  0  0  0  0  0  0
  141.0930   72.8420  221.0430 N   0  0  0  0  0  0  0  0  0  0  0  0
  139.9790   69.8270  225.9420 C   0  0  0  0  0  0  0  0  0  0  0  0
  139.5534   69.1818  225.1593 H   0  0  0  0  0  0  0  0  0  0  0  0
  139.9460   69.4150  227.2810 C   0  0  0  0  0  0  0  0  0  0  0  0
  139.5151   68.4381  227.5455 H   0  0  0  0  0  0  0  0  0  0  0  0
  1  2  1  0
  2  3  2  0
  3  4  1  0
  3  5  1  0
  5  6  1  0
  5  7  2  0
  7  8  1  0
  8  9  1  0
  8 10  1  0
  8 11  1  0
 11 12  1  0
 11 13  1  0
 11 14  1  0
 14 15  1  0
 14 16  2  0
 16 17  1  0
 17 18  2  0
 18 19  1  0
 19 20  1  0
 20 21  1  0
 20 22  1  0
 20 23  1  0
 23 24  2  0
 24 25  1  0
 24 26  1  0
 26 27  1  0
 26 28  2  0
 28 29  1  0
 28 30  1  0
 30 31  1  0
 30 32  2  0
 32 33  1  0
 33 34  1  0
 33 35  1  0
 33 36  1  0
 36 37  1  0
 36 38  1  0
 18 39  1  0
 39 40  1  0
 39 41  1  0
 41 42  1  0
 42 43  1  0
 42 44  1  0
 44 45  1  0
 44 46  1  0
 44 47  1  0
 47 48  1  0
 47 49  1  0
 47 50  1  0
 50 51  1  0
 51 52  1  0
 51 53  1  0
 51 54  1  0
 54 55  1  0
 54 56  1  0
 54 57  1  0
 57 58  1  0
 57 59  1  0
 57 60  1  0
 60 61  1  0
 60 62  1  0
 41 63  2  0
  7 64  1  0
 64 65  1  0
 64 66  2  0
 66 67  1  0
 66  2  1  0
 63 16  1  0
 36 19  1  0
 60 50  1  0
 32 23  1  0
M  CHG  1  14   1
M  END
>  <UniqueID>  (64) 
671

>  <SMILES>  (64) 
c1ccc(CC/[NH+]=c2\nc(NCCN3CCCC3)[nH]c(N3CCc4ccccc4C3)n2)cc1

>  <Energy>  (64) 
73.12508540169439

>  <Genealogy>  (64) 
c1ccc(CC[NH2+]c2nc(NCCN3CCCC3)nc(N3CCc4ccccc4C3)n2)cc1 (protonated)
c1ccc(CC[NH+]=c2nc(NCCN3CCCC3)[nH]c(N3CCc4ccccc4C3)n2)cc1 (tautomer)
c1ccc(CC/[NH+]=c2\nc(NCCN3CCCC3)[nH]c(N3CCc4ccccc4C3)n2)cc1 (cis-trans isomerization)
c1ccc(CC/[NH+]=c2\nc(NCCN3CCCC3)[nH]c(N3CCc4ccccc4C3)n2)cc1 (3D coordinates assigned)
c1ccc(CC/[NH+]=c2\nc(NCCN3CCCC3)[nH]c(N3CCc4ccccc4C3)n2)cc1 (nonaromatic ring conformer: 73.12508540169439 kcal/mol)

>  <smiles>  (64) 
c1ccc(CCNc2nc(NCCN3CCCC3)nc(N3CCc4ccccc4C3)n2)cc1

>  <score_type>  (64) 
oracle

>  <origin>  (64) 
autodockgpu

>  <m_score__min__energy>  (64) 
-9.9900000000000002

>  <m_primary>  (64) 
energy

>  <meeko>  (64) 
{"free_energy": -8.22, "intermolecular_energy": -10.9, "internal_energy": -2.41, "cluster_size": 12, "cluster_id": 1, "rank_in_cluster": 9}

>  <energy>  (64) 
-9.03

>  <cluster_rmsd>  (64) 
1.29

>  <rmsd>  (64) 
271.31

>  <cluster>  (64) 
1

$$$$
FPFWJFTVWFQHMH-FSECZMGHNA-O
     RDKit          3D

 67 71  0  0  0  0  0  0  0  0999 V2000
  140.5601   68.9012  229.1177 H   0  0  0  0  0  0  0  0  0  0  0  0
  140.5870   69.4740  228.1790 C   0  0  0  0  0  0  0  0  0  0  0  0
  140.8070   70.8540  228.2100 C   0  0  0  0  0  0  0  0  0  0  0  0
  140.9544   71.3652  229.1728 H   0  0  0  0  0  0  0  0  0  0  0  0
  140.8400   71.5860  227.0180 C   0  0  0  0  0  0  0  0  0  0  0  0
  141.0193   72.6709  227.0465 H   0  0  0  0  0  0  0  0  0  0  0  0
  140.6450   70.9410  225.7840 C   0  0  0  0  0  0  0  0  0  0  0  0
  140.6760   71.7330  224.5000 C   0  0  0  0  0  0  0  0  0  0  0  0
  140.1686   72.6956  224.6611 H   0  0  0  0  0  0  0  0  0  0  0  0
  141.7269   71.8882  224.2146 H   0  0  0  0  0  0  0  0  0  0  0  0
  139.9730   70.9830  223.3620 C   0  0  0  0  0  0  0  0  0  0  0  0
  140.3168   69.9382  223.3502 H   0  0  0  0  0  0  0  0  0  0  0  0
  138.8862   71.0223  223.5276 H   0  0  0  0  0  0  0  0  0  0  0  0
  140.2790   71.6060  222.0720 N   0  0  0  0  0  0  0  0  0  0  0  0
  140.4140   70.9710  221.2510 H   0  0  0  0  0  0  0  0  0  0  0  0
  140.4030   72.8940  221.9000 C   0  0  0  0  0  0  0  0  0  0  0  0
  141.5190   73.3870  221.3020 N   0  0  0  0  0  0  0  0  0  0  0  0
  141.6750   74.7250  221.1270 C   0  0  0  0  0  0  0  0  0  0  0  0
  142.8720   75.2250  220.5040 N   0  0  0  0  0  0  0  0  0  0  0  0
  144.0660   74.3880  220.3580 C   0  0  0  0  0  0  0  0  0  0  0  0
  143.9098   73.4378  220.8897 H   0  0  0  0  0  0  0  0  0  0  0  0
  144.9296   74.9209  220.7825 H   0  0  0  0  0  0  0  0  0  0  0  0
  144.3340   74.1040  218.9000 C   0  0  0  0  0  0  0  0  0  0  0  0
  145.2380   73.0870  218.5550 C   0  0  0  0  0  0  0  0  0  0  0  0
  145.7032   72.4787  219.3447 H   0  0  0  0  0  0  0  0  0  0  0  0
  145.5510   72.8420  217.2160 C   0  0  0  0  0  0  0  0  0  0  0  0
  146.2552   72.0384  216.9545 H   0  0  0  0  0  0  0  0  0  0  0  0
  144.9710   73.6160  216.2090 C   0  0  0  0  0  0  0  0  0  0  0  0
  145.2114   73.4151  215.1546 H   0  0  0  0  0  0  0  0  0  0  0  0
  144.0850   74.6460  216.5390 C   0  0  0  0  0  0  0  0  0  0  0  0
  143.6344   75.2550  215.7415 H   0  0  0  0  0  0  0  0  0  0  0  0
  143.7660   74.9090  217.8820 C   0  0  0  0  0  0  0  0  0  0  0  0
  142.7430   75.9780  218.1970 C   0  0  0  0  0  0  0  0  0  0  0  0
  141.7388   75.5811  217.9872 H   0  0  0  0  0  0  0  0  0  0  0  0
  142.9641   76.8544  217.5701 H   0  0  0  0  0  0  0  0  0  0  0  0
  142.8040   76.4180  219.6620 C   0  0  0  0  0  0  0  0  0  0  0  0
  141.9035   76.9979  219.9127 H   0  0  0  0  0  0  0  0  0  0  0  0
  143.6906   77.0473  219.8291 H   0  0  0  0  0  0  0  0  0  0  0  0
  140.7150   75.5800  221.5770 N   0  0  0  0  0  0  0  0  0  0  0  0
  140.8410   76.6140  221.4820 H   0  0  0  0  0  0  0  0  0  0  0  0
  139.5900   75.0960  222.1690 C   0  0  0  0  0  0  0  0  0  0  0  0
  138.5870   76.0030  222.6540 N   0  0  0  0  0  0  0  0  0  0  0  0
  138.0070   75.7170  223.4750 H   0  0  0  0  0  0  0  0  0  0  0  0
  138.4700   77.3840  222.1870 C   0  0  0  0  0  0  0  0  0  0  0  0
  138.8362   77.4505  221.1519 H   0  0  0  0  0  0  0  0  0  0  0  0
  137.4146   77.6911  222.2304 H   0  0  0  0  0  0  0  0  0  0  0  0
  139.3010   78.3130  223.0800 C   0  0  0  0  0  0  0  0  0  0  0  0
  138.8213   79.3023  223.1143 H   0  0  0  0  0  0  0  0  0  0  0  0
  139.3541   77.8743  224.0873 H   0  0  0  0  0  0  0  0  0  0  0  0
  140.6760   78.4610  222.5590 N   0  0  0  0  0  0  0  0  0  0  0  0
  141.6590   78.6680  223.6360 C   0  0  0  0  0  0  0  0  0  0  0  0
  141.1364   78.8587  224.5849 H   0  0  0  0  0  0  0  0  0  0  0  0
  142.2871   77.7726  223.7529 H   0  0  0  0  0  0  0  0  0  0  0  0
  142.5220   79.8710  223.2720 C   0  0  0  0  0  0  0  0  0  0  0  0
  142.2698   80.7331  223.9069 H   0  0  0  0  0  0  0  0  0  0  0  0
  143.5930   79.6697  223.4221 H   0  0  0  0  0  0  0  0  0  0  0  0
  142.2000   80.1650  221.8280 C   0  0  0  0  0  0  0  0  0  0  0  0
  142.2105   81.2484  221.6377 H   0  0  0  0  0  0  0  0  0  0  0  0
  142.9320   79.7274  221.1332 H   0  0  0  0  0  0  0  0  0  0  0  0
  140.8080   79.5990  221.6410 C   0  0  0  0  0  0  0  0  0  0  0  0
  140.0547   80.3645  221.8787 H   0  0  0  0  0  0  0  0  0  0  0  0
  140.6520   79.2811  220.5996 H   0  0  0  0  0  0  0  0  0  0  0  0
  139.4400   73.7540  222.3240 N   0  0  0  0  0  0  0  0  0  0  0  0
  140.4150   69.5520  225.7630 C   0  0  0  0  0  0  0  0  0  0  0  0
  140.2455   69.0395  224.8045 H   0  0  0  0  0  0  0  0  0  0  0  0
  140.4010   68.8200  226.9570 C   0  0  0  0  0  0  0  0  0  0  0  0
  140.2438   67.7315  226.9335 H   0  0  0  0  0  0  0  0  0  0  0  0
  1  2  1  0
  2  3  2  0
  3  4  1  0
  3  5  1  0
  5  6  1  0
  5  7  2  0
  7  8  1  0
  8  9  1  0
  8 10  1  0
  8 11  1  0
 11 12  1  0
 11 13  1  0
 11 14  1  0
 14 15  1  0
 14 16  2  0
 16 17  1  0
 17 18  2  0
 18 19  1  0
 19 20  1  0
 20 21  1  0
 20 22  1  0
 20 23  1  0
 23 24  2  0
 24 25  1  0
 24 26  1  0
 26 27  1  0
 26 28  2  0
 28 29  1  0
 28 30  1  0
 30 31  1  0
 30 32  2  0
 32 33  1  0
 33 34  1  0
 33 35  1  0
 33 36  1  0
 36 37  1  0
 36 38  1  0
 18 39  1  0
 39 40  1  0
 39 41  1  0
 41 42  1  0
 42 43  1  0
 42 44  1  0
 44 45  1  0
 44 46  1  0
 44 47  1  0
 47 48  1  0
 47 49  1  0
 47 50  1  0
 50 51  1  0
 51 52  1  0
 51 53  1  0
 51 54  1  0
 54 55  1  0
 54 56  1  0
 54 57  1  0
 57 58  1  0
 57 59  1  0
 57 60  1  0
 60 61  1  0
 60 62  1  0
 41 63  2  0
  7 64  1  0
 64 65  1  0
 64 66  2  0
 66 67  1  0
 66  2  1  0
 63 16  1  0
 36 19  1  0
 60 50  1  0
 32 23  1  0
M  CHG  1  14   1
M  END
>  <UniqueID>  (65) 
671

>  <SMILES>  (65) 
c1ccc(CC/[NH+]=c2\nc(NCCN3CCCC3)[nH]c(N3CCc4ccccc4C3)n2)cc1

>  <Energy>  (65) 
73.12508540169439

>  <Genealogy>  (65) 
c1ccc(CC[NH2+]c2nc(NCCN3CCCC3)nc(N3CCc4ccccc4C3)n2)cc1 (protonated)
c1ccc(CC[NH+]=c2nc(NCCN3CCCC3)[nH]c(N3CCc4ccccc4C3)n2)cc1 (tautomer)
c1ccc(CC/[NH+]=c2\nc(NCCN3CCCC3)[nH]c(N3CCc4ccccc4C3)n2)cc1 (cis-trans isomerization)
c1ccc(CC/[NH+]=c2\nc(NCCN3CCCC3)[nH]c(N3CCc4ccccc4C3)n2)cc1 (3D coordinates assigned)
c1ccc(CC/[NH+]=c2\nc(NCCN3CCCC3)[nH]c(N3CCc4ccccc4C3)n2)cc1 (nonaromatic ring conformer: 73.12508540169439 kcal/mol)

>  <smiles>  (65) 
c1ccc(CCNc2nc(NCCN3CCCC3)nc(N3CCc4ccccc4C3)n2)cc1

>  <score_type>  (65) 
oracle

>  <origin>  (65) 
autodockgpu

>  <m_score__min__energy>  (65) 
-9.9900000000000002

>  <m_primary>  (65) 
energy

>  <meeko>  (65) 
{"free_energy": -8.58, "intermolecular_energy": -11.26, "internal_energy": -1.8, "cluster_size": 4, "cluster_id": 2, "rank_in_cluster": 4}

>  <energy>  (65) 
-9.0

>  <cluster_rmsd>  (65) 
1.34

>  <rmsd>  (65) 
271.19

>  <cluster>  (65) 
1

$$$$
FPFWJFTVWFQHMH-FSECZMGHNA-O
     RDKit          3D

 67 71  0  0  0  0  0  0  0  0999 V2000
  140.1978   70.0815  229.2500 H   0  0  0  0  0  0  0  0  0  0  0  0
  140.2990   70.3650  228.1920 C   0  0  0  0  0  0  0  0  0  0  0  0
  140.9760   71.5380  227.8460 C   0  0  0  0  0  0  0  0  0  0  0  0
  141.4095   72.1741  228.6318 H   0  0  0  0  0  0  0  0  0  0  0  0
  141.1030   71.9040  226.5020 C   0  0  0  0  0  0  0  0  0  0  0  0
  141.6408   72.8253  226.2338 H   0  0  0  0  0  0  0  0  0  0  0  0
  140.5460   71.0990  225.4920 C   0  0  0  0  0  0  0  0  0  0  0  0
  140.6810   71.4970  224.0430 C   0  0  0  0  0  0  0  0  0  0  0  0
  141.0964   72.5141  223.9885 H   0  0  0  0  0  0  0  0  0  0  0  0
  141.3471   70.7759  223.5467 H   0  0  0  0  0  0  0  0  0  0  0  0
  139.3250   71.4730  223.3270 C   0  0  0  0  0  0  0  0  0  0  0  0
  139.0177   70.4288  223.1683 H   0  0  0  0  0  0  0  0  0  0  0  0
  138.5839   71.9953  223.9499 H   0  0  0  0  0  0  0  0  0  0  0  0
  139.4180   72.1510  222.0310 N   0  0  0  0  0  0  0  0  0  0  0  0
  138.8560   71.7570  221.2420 H   0  0  0  0  0  0  0  0  0  0  0  0
  140.1650   73.1990  221.8130 C   0  0  0  0  0  0  0  0  0  0  0  0
  139.7680   74.4140  222.2720 N   0  0  0  0  0  0  0  0  0  0  0  0
  140.5240   75.5200  222.0440 C   0  0  0  0  0  0  0  0  0  0  0  0
  140.0760   76.7990  222.5270 N   0  0  0  0  0  0  0  0  0  0  0  0
  141.0160   77.7850  223.0670 C   0  0  0  0  0  0  0  0  0  0  0  0
  142.0155   77.3313  223.1386 H   0  0  0  0  0  0  0  0  0  0  0  0
  140.6705   78.0986  224.0632 H   0  0  0  0  0  0  0  0  0  0  0  0
  141.0830   78.9960  222.1690 C   0  0  0  0  0  0  0  0  0  0  0  0
  142.1310   79.9150  222.3350 C   0  0  0  0  0  0  0  0  0  0  0  0
  142.9161   79.7201  223.0804 H   0  0  0  0  0  0  0  0  0  0  0  0
  142.1830   81.0760  221.5590 C   0  0  0  0  0  0  0  0  0  0  0  0
  143.0102   81.7887  221.6922 H   0  0  0  0  0  0  0  0  0  0  0  0
  141.1870   81.3330  220.6150 C   0  0  0  0  0  0  0  0  0  0  0  0
  141.2364   82.2423  219.9980 H   0  0  0  0  0  0  0  0  0  0  0  0
  140.1270   80.4360  220.4530 C   0  0  0  0  0  0  0  0  0  0  0  0
  139.3430   80.6454  219.7104 H   0  0  0  0  0  0  0  0  0  0  0  0
  140.0560   79.2690  221.2320 C   0  0  0  0  0  0  0  0  0  0  0  0
  138.9380   78.2820  220.9740 C   0  0  0  0  0  0  0  0  0  0  0  0
  139.1695   77.7145  220.0606 H   0  0  0  0  0  0  0  0  0  0  0  0
  138.0027   78.8505  220.8641 H   0  0  0  0  0  0  0  0  0  0  0  0
  138.7590   77.2990  222.1340 C   0  0  0  0  0  0  0  0  0  0  0  0
  138.1239   76.4597  221.8143 H   0  0  0  0  0  0  0  0  0  0  0  0
  138.2787   77.8042  222.9850 H   0  0  0  0  0  0  0  0  0  0  0  0
  141.6770   75.4110  221.3270 N   0  0  0  0  0  0  0  0  0  0  0  0
  142.2470   76.2600  221.1120 H   0  0  0  0  0  0  0  0  0  0  0  0
  142.0880   74.1970  220.8700 C   0  0  0  0  0  0  0  0  0  0  0  0
  143.2980   74.0910  220.1040 N   0  0  0  0  0  0  0  0  0  0  0  0
  143.9570   73.3070  220.3130 H   0  0  0  0  0  0  0  0  0  0  0  0
  143.5600   74.9010  218.9140 C   0  0  0  0  0  0  0  0  0  0  0  0
  144.4910   74.5587  218.4385 H   0  0  0  0  0  0  0  0  0  0  0  0
  142.7199   74.7926  218.2122 H   0  0  0  0  0  0  0  0  0  0  0  0
  143.7020   76.3770  219.3030 C   0  0  0  0  0  0  0  0  0  0  0  0
  144.0388   76.4426  220.3481 H   0  0  0  0  0  0  0  0  0  0  0  0
  144.4352   76.8472  218.6312 H   0  0  0  0  0  0  0  0  0  0  0  0
  142.4140   77.0880  219.1650 N   0  0  0  0  0  0  0  0  0  0  0  0
  141.4730   76.3720  218.2870 C   0  0  0  0  0  0  0  0  0  0  0  0
  141.9965   75.5557  217.7678 H   0  0  0  0  0  0  0  0  0  0  0  0
  140.6522   75.9433  218.8807 H   0  0  0  0  0  0  0  0  0  0  0  0
  140.9220   77.3620  217.2670 C   0  0  0  0  0  0  0  0  0  0  0  0
  141.3465   77.1665  216.2712 H   0  0  0  0  0  0  0  0  0  0  0  0
  139.8294   77.2839  217.1666 H   0  0  0  0  0  0  0  0  0  0  0  0
  141.3470   78.7210  217.7660 C   0  0  0  0  0  0  0  0  0  0  0  0
  141.5931   79.3867  216.9256 H   0  0  0  0  0  0  0  0  0  0  0  0
  140.5549   79.2297  218.3351 H   0  0  0  0  0  0  0  0  0  0  0  0
  142.5750   78.4360  218.6040 C   0  0  0  0  0  0  0  0  0  0  0  0
  143.4776   78.4779  217.9766 H   0  0  0  0  0  0  0  0  0  0  0  0
  142.6833   79.1822  219.4049 H   0  0  0  0  0  0  0  0  0  0  0  0
  141.3300   73.0970  221.1200 N   0  0  0  0  0  0  0  0  0  0  0  0
  139.8600   69.9230  225.8500 C   0  0  0  0  0  0  0  0  0  0  0  0
  139.4083   69.2934  225.0693 H   0  0  0  0  0  0  0  0  0  0  0  0
  139.7500   69.5510  227.1960 C   0  0  0  0  0  0  0  0  0  0  0  0
  139.2324   68.6197  227.4693 H   0  0  0  0  0  0  0  0  0  0  0  0
  1  2  1  0
  2  3  2  0
  3  4  1  0
  3  5  1  0
  5  6  1  0
  5  7  2  0
  7  8  1  0
  8  9  1  0
  8 10  1  0
  8 11  1  0
 11 12  1  0
 11 13  1  0
 11 14  1  0
 14 15  1  0
 14 16  2  0
 16 17  1  0
 17 18  2  0
 18 19  1  0
 19 20  1  0
 20 21  1  0
 20 22  1  0
 20 23  1  0
 23 24  2  0
 24 25  1  0
 24 26  1  0
 26 27  1  0
 26 28  2  0
 28 29  1  0
 28 30  1  0
 30 31  1  0
 30 32  2  0
 32 33  1  0
 33 34  1  0
 33 35  1  0
 33 36  1  0
 36 37  1  0
 36 38  1  0
 18 39  1  0
 39 40  1  0
 39 41  1  0
 41 42  1  0
 42 43  1  0
 42 44  1  0
 44 45  1  0
 44 46  1  0
 44 47  1  0
 47 48  1  0
 47 49  1  0
 47 50  1  0
 50 51  1  0
 51 52  1  0
 51 53  1  0
 51 54  1  0
 54 55  1  0
 54 56  1  0
 54 57  1  0
 57 58  1  0
 57 59  1  0
 57 60  1  0
 60 61  1  0
 60 62  1  0
 41 63  2  0
  7 64  1  0
 64 65  1  0
 64 66  2  0
 66 67  1  0
 66  2  1  0
 63 16  1  0
 36 19  1  0
 60 50  1  0
 32 23  1  0
M  CHG  1  14   1
M  END
>  <UniqueID>  (66) 
671

>  <SMILES>  (66) 
c1ccc(CC/[NH+]=c2\nc(NCCN3CCCC3)[nH]c(N3CCc4ccccc4C3)n2)cc1

>  <Energy>  (66) 
73.12508540169439

>  <Genealogy>  (66) 
c1ccc(CC[NH2+]c2nc(NCCN3CCCC3)nc(N3CCc4ccccc4C3)n2)cc1 (protonated)
c1ccc(CC[NH+]=c2nc(NCCN3CCCC3)[nH]c(N3CCc4ccccc4C3)n2)cc1 (tautomer)
c1ccc(CC/[NH+]=c2\nc(NCCN3CCCC3)[nH]c(N3CCc4ccccc4C3)n2)cc1 (cis-trans isomerization)
c1ccc(CC/[NH+]=c2\nc(NCCN3CCCC3)[nH]c(N3CCc4ccccc4C3)n2)cc1 (3D coordinates assigned)
c1ccc(CC/[NH+]=c2\nc(NCCN3CCCC3)[nH]c(N3CCc4ccccc4C3)n2)cc1 (nonaromatic ring conformer: 73.12508540169439 kcal/mol)

>  <smiles>  (66) 
c1ccc(CCNc2nc(NCCN3CCCC3)nc(N3CCc4ccccc4C3)n2)cc1

>  <score_type>  (66) 
oracle

>  <origin>  (66) 
autodockgpu

>  <m_score__min__energy>  (66) 
-9.9900000000000002

>  <m_primary>  (66) 
energy

>  <meeko>  (66) 
{"free_energy": -8.08, "intermolecular_energy": -10.76, "internal_energy": -2.64, "cluster_size": 12, "cluster_id": 1, "rank_in_cluster": 11}

>  <energy>  (66) 
-8.65

>  <cluster_rmsd>  (66) 
1.51

>  <rmsd>  (66) 
271.32

>  <cluster>  (66) 
1

$$$$
FPFWJFTVWFQHMH-FSECZMGHNA-O
     RDKit          3D

 67 71  0  0  0  0  0  0  0  0999 V2000
  132.2816   72.8423  227.8556 H   0  0  0  0  0  0  0  0  0  0  0  0
  132.6190   71.9200  227.3600 C   0  0  0  0  0  0  0  0  0  0  0  0
  131.7350   71.1980  226.5520 C   0  0  0  0  0  0  0  0  0  0  0  0
  130.7040   71.5545  226.4108 H   0  0  0  0  0  0  0  0  0  0  0  0
  132.1600   70.0230  225.9230 C   0  0  0  0  0  0  0  0  0  0  0  0
  131.4626   69.4608  225.2846 H   0  0  0  0  0  0  0  0  0  0  0  0
  133.4750   69.5570  226.1030 C   0  0  0  0  0  0  0  0  0  0  0  0
  133.9300   68.2880  225.4260 C   0  0  0  0  0  0  0  0  0  0  0  0
  135.0237   68.3161  225.3115 H   0  0  0  0  0  0  0  0  0  0  0  0
  133.6238   67.4349  226.0493 H   0  0  0  0  0  0  0  0  0  0  0  0
  133.2880   68.1290  224.0430 C   0  0  0  0  0  0  0  0  0  0  0  0
  133.2347   67.0600  223.7892 H   0  0  0  0  0  0  0  0  0  0  0  0
  132.2777   68.5634  224.0674 H   0  0  0  0  0  0  0  0  0  0  0  0
  134.0800   68.8270  223.0270 N   0  0  0  0  0  0  0  0  0  0  0  0
  133.9500   68.5330  222.0310 H   0  0  0  0  0  0  0  0  0  0  0  0
  134.9370   69.7720  223.2990 C   0  0  0  0  0  0  0  0  0  0  0  0
  136.2430   69.4580  223.5050 N   0  0  0  0  0  0  0  0  0  0  0  0
  137.1490   70.4240  223.8040 C   0  0  0  0  0  0  0  0  0  0  0  0
  138.5230   70.0650  224.0320 N   0  0  0  0  0  0  0  0  0  0  0  0
  139.5290   71.0710  224.3850 C   0  0  0  0  0  0  0  0  0  0  0  0
  139.0798   72.0726  224.3145 H   0  0  0  0  0  0  0  0  0  0  0  0
  140.3768   70.9862  223.6893 H   0  0  0  0  0  0  0  0  0  0  0  0
  140.0270   70.8480  225.7910 C   0  0  0  0  0  0  0  0  0  0  0  0
  140.7590   71.8620  226.4290 C   0  0  0  0  0  0  0  0  0  0  0  0
  140.9208   72.8226  225.9181 H   0  0  0  0  0  0  0  0  0  0  0  0
  141.2830   71.6600  227.7070 C   0  0  0  0  0  0  0  0  0  0  0  0
  141.8498   72.4628  228.2012 H   0  0  0  0  0  0  0  0  0  0  0  0
  141.0890   70.4410  228.3590 C   0  0  0  0  0  0  0  0  0  0  0  0
  141.4953   70.2877  229.3696 H   0  0  0  0  0  0  0  0  0  0  0  0
  140.3790   69.4150  227.7290 C   0  0  0  0  0  0  0  0  0  0  0  0
  140.2318   68.4555  228.2464 H   0  0  0  0  0  0  0  0  0  0  0  0
  139.8520   69.6000  226.4400 C   0  0  0  0  0  0  0  0  0  0  0  0
  139.0220   68.4970  225.8210 C   0  0  0  0  0  0  0  0  0  0  0  0
  138.0231   68.5038  226.2816 H   0  0  0  0  0  0  0  0  0  0  0  0
  139.5384   67.5427  226.0015 H   0  0  0  0  0  0  0  0  0  0  0  0
  138.8690   68.6710  224.3080 C   0  0  0  0  0  0  0  0  0  0  0  0
  138.0710   68.0107  223.9377 H   0  0  0  0  0  0  0  0  0  0  0  0
  139.8103   68.4099  223.8023 H   0  0  0  0  0  0  0  0  0  0  0  0
  136.7390   71.7180  223.9230 N   0  0  0  0  0  0  0  0  0  0  0  0
  137.4190   72.4660  224.1900 H   0  0  0  0  0  0  0  0  0  0  0  0
  135.4350   72.0460  223.7100 C   0  0  0  0  0  0  0  0  0  0  0  0
  135.0060   73.4100  223.8490 N   0  0  0  0  0  0  0  0  0  0  0  0
  135.3370   74.1120  223.1500 H   0  0  0  0  0  0  0  0  0  0  0  0
  133.9740   73.8270  224.7980 C   0  0  0  0  0  0  0  0  0  0  0  0
  133.1137   74.2324  224.2452 H   0  0  0  0  0  0  0  0  0  0  0  0
  133.6598   72.9572  225.3936 H   0  0  0  0  0  0  0  0  0  0  0  0
  134.5270   74.9050  225.7370 C   0  0  0  0  0  0  0  0  0  0  0  0
  135.4764   74.5541  226.1677 H   0  0  0  0  0  0  0  0  0  0  0  0
  134.6835   75.8270  225.1578 H   0  0  0  0  0  0  0  0  0  0  0  0
  133.5770   75.1930  226.8320 N   0  0  0  0  0  0  0  0  0  0  0  0
  132.1940   74.8330  226.4790 C   0  0  0  0  0  0  0  0  0  0  0  0
  132.1319   74.6037  225.4050 H   0  0  0  0  0  0  0  0  0  0  0  0
  131.8760   73.9467  227.0477 H   0  0  0  0  0  0  0  0  0  0  0  0
  131.2930   76.0180  226.8060 C   0  0  0  0  0  0  0  0  0  0  0  0
  130.9551   76.5119  225.8830 H   0  0  0  0  0  0  0  0  0  0  0  0
  130.3882   75.7087  227.3498 H   0  0  0  0  0  0  0  0  0  0  0  0
  132.1500   76.9530  227.6230 C   0  0  0  0  0  0  0  0  0  0  0  0
  131.9142   78.0022  227.3917 H   0  0  0  0  0  0  0  0  0  0  0  0
  131.9903   76.8372  228.7052 H   0  0  0  0  0  0  0  0  0  0  0  0
  133.5640   76.6140  227.2030 C   0  0  0  0  0  0  0  0  0  0  0  0
  133.8598   77.2312  226.3419 H   0  0  0  0  0  0  0  0  0  0  0  0
  134.2726   76.8109  228.0210 H   0  0  0  0  0  0  0  0  0  0  0  0
  134.5430   71.0700  223.3960 N   0  0  0  0  0  0  0  0  0  0  0  0
  134.3560   70.2860  226.9240 C   0  0  0  0  0  0  0  0  0  0  0  0
  135.3822   69.9234  227.0833 H   0  0  0  0  0  0  0  0  0  0  0  0
  133.9320   71.4710  227.5390 C   0  0  0  0  0  0  0  0  0  0  0  0
  134.6309   72.0482  228.1623 H   0  0  0  0  0  0  0  0  0  0  0  0
  1  2  1  0
  2  3  2  0
  3  4  1  0
  3  5  1  0
  5  6  1  0
  5  7  2  0
  7  8  1  0
  8  9  1  0
  8 10  1  0
  8 11  1  0
 11 12  1  0
 11 13  1  0
 11 14  1  0
 14 15  1  0
 14 16  2  0
 16 17  1  0
 17 18  2  0
 18 19  1  0
 19 20  1  0
 20 21  1  0
 20 22  1  0
 20 23  1  0
 23 24  2  0
 24 25  1  0
 24 26  1  0
 26 27  1  0
 26 28  2  0
 28 29  1  0
 28 30  1  0
 30 31  1  0
 30 32  2  0
 32 33  1  0
 33 34  1  0
 33 35  1  0
 33 36  1  0
 36 37  1  0
 36 38  1  0
 18 39  1  0
 39 40  1  0
 39 41  1  0
 41 42  1  0
 42 43  1  0
 42 44  1  0
 44 45  1  0
 44 46  1  0
 44 47  1  0
 47 48  1  0
 47 49  1  0
 47 50  1  0
 50 51  1  0
 51 52  1  0
 51 53  1  0
 51 54  1  0
 54 55  1  0
 54 56  1  0
 54 57  1  0
 57 58  1  0
 57 59  1  0
 57 60  1  0
 60 61  1  0
 60 62  1  0
 41 63  2  0
  7 64  1  0
 64 65  1  0
 64 66  2  0
 66 67  1  0
 66  2  1  0
 63 16  1  0
 36 19  1  0
 60 50  1  0
 32 23  1  0
M  CHG  1  14   1
M  END
>  <UniqueID>  (67) 
671

>  <SMILES>  (67) 
c1ccc(CC/[NH+]=c2\nc(NCCN3CCCC3)[nH]c(N3CCc4ccccc4C3)n2)cc1

>  <Energy>  (67) 
73.12508540169439

>  <Genealogy>  (67) 
c1ccc(CC[NH2+]c2nc(NCCN3CCCC3)nc(N3CCc4ccccc4C3)n2)cc1 (protonated)
c1ccc(CC[NH+]=c2nc(NCCN3CCCC3)[nH]c(N3CCc4ccccc4C3)n2)cc1 (tautomer)
c1ccc(CC/[NH+]=c2\nc(NCCN3CCCC3)[nH]c(N3CCc4ccccc4C3)n2)cc1 (cis-trans isomerization)
c1ccc(CC/[NH+]=c2\nc(NCCN3CCCC3)[nH]c(N3CCc4ccccc4C3)n2)cc1 (3D coordinates assigned)
c1ccc(CC/[NH+]=c2\nc(NCCN3CCCC3)[nH]c(N3CCc4ccccc4C3)n2)cc1 (nonaromatic ring conformer: 73.12508540169439 kcal/mol)

>  <smiles>  (67) 
c1ccc(CCNc2nc(NCCN3CCCC3)nc(N3CCc4ccccc4C3)n2)cc1

>  <score_type>  (67) 
oracle

>  <origin>  (67) 
autodockgpu

>  <m_score__min__energy>  (67) 
-9.9900000000000002

>  <m_primary>  (67) 
energy

>  <meeko>  (67) 
{"free_energy": -8.13, "intermolecular_energy": -10.81, "internal_energy": -1.87, "cluster_size": 1, "cluster_id": 5, "rank_in_cluster": 1}

>  <energy>  (67) 
-8.33

>  <cluster_rmsd>  (67) 
1.57

>  <rmsd>  (67) 
271.13

>  <cluster>  (67) 
1

$$$$
FPFWJFTVWFQHMH-FSECZMGHNA-O
     RDKit          3D

 67 71  0  0  0  0  0  0  0  0999 V2000
  140.8510   67.4316  228.9621 H   0  0  0  0  0  0  0  0  0  0  0  0
  140.8140   68.1660  228.1440 C   0  0  0  0  0  0  0  0  0  0  0  0
  141.0700   69.5160  228.4050 C   0  0  0  0  0  0  0  0  0  0  0  0
  141.3104   69.8414  229.4279 H   0  0  0  0  0  0  0  0  0  0  0  0
  141.0210   70.4530  227.3680 C   0  0  0  0  0  0  0  0  0  0  0  0
  141.2282   71.5129  227.5772 H   0  0  0  0  0  0  0  0  0  0  0  0
  140.7080   70.0460  226.0590 C   0  0  0  0  0  0  0  0  0  0  0  0
  140.6520   71.0590  224.9420 C   0  0  0  0  0  0  0  0  0  0  0  0
  140.9200   72.0480  225.3421 H   0  0  0  0  0  0  0  0  0  0  0  0
  141.3596   70.7497  224.1586 H   0  0  0  0  0  0  0  0  0  0  0  0
  139.2510   71.1340  224.3240 C   0  0  0  0  0  0  0  0  0  0  0  0
  138.7002   70.2122  224.5625 H   0  0  0  0  0  0  0  0  0  0  0  0
  138.7255   72.0072  224.7380 H   0  0  0  0  0  0  0  0  0  0  0  0
  139.3400   71.2800  222.8680 N   0  0  0  0  0  0  0  0  0  0  0  0
  138.8220   70.5840  222.2830 H   0  0  0  0  0  0  0  0  0  0  0  0
  140.0350   72.2120  222.2740 C   0  0  0  0  0  0  0  0  0  0  0  0
  139.5570   73.4830  222.2330 N   0  0  0  0  0  0  0  0  0  0  0  0
  140.2560   74.4640  221.6070 C   0  0  0  0  0  0  0  0  0  0  0  0
  139.7230   75.8000  221.5630 N   0  0  0  0  0  0  0  0  0  0  0  0
  139.8150   76.6990  222.7170 C   0  0  0  0  0  0  0  0  0  0  0  0
  140.2197   76.1448  223.5767 H   0  0  0  0  0  0  0  0  0  0  0  0
  138.8107   77.0813  222.9520 H   0  0  0  0  0  0  0  0  0  0  0  0
  140.7210   77.8640  222.4060 C   0  0  0  0  0  0  0  0  0  0  0  0
  141.1840   78.6730  223.4560 C   0  0  0  0  0  0  0  0  0  0  0  0
  140.9219   78.4229  224.4946 H   0  0  0  0  0  0  0  0  0  0  0  0
  141.9750   79.7930  223.1910 C   0  0  0  0  0  0  0  0  0  0  0  0
  142.3372   80.4180  224.0206 H   0  0  0  0  0  0  0  0  0  0  0  0
  142.3070   80.1210  221.8750 C   0  0  0  0  0  0  0  0  0  0  0  0
  142.9398   80.9971  221.6699 H   0  0  0  0  0  0  0  0  0  0  0  0
  141.8360   79.3370  220.8180 C   0  0  0  0  0  0  0  0  0  0  0  0
  142.0958   79.6033  219.7828 H   0  0  0  0  0  0  0  0  0  0  0  0
  141.0330   78.2110  221.0680 C   0  0  0  0  0  0  0  0  0  0  0  0
  140.6090   77.3400  219.9050 C   0  0  0  0  0  0  0  0  0  0  0  0
  141.4633   76.7199  219.5959 H   0  0  0  0  0  0  0  0  0  0  0  0
  140.2800   78.0000  219.0888 H   0  0  0  0  0  0  0  0  0  0  0  0
  139.4400   76.4230  220.2710 C   0  0  0  0  0  0  0  0  0  0  0  0
  139.3242   75.6451  219.5019 H   0  0  0  0  0  0  0  0  0  0  0  0
  138.5092   77.0061  220.3307 H   0  0  0  0  0  0  0  0  0  0  0  0
  141.4360   74.1650  220.9950 N   0  0  0  0  0  0  0  0  0  0  0  0
  141.9650   74.9040  220.4770 H   0  0  0  0  0  0  0  0  0  0  0  0
  141.9280   72.8970  221.0380 C   0  0  0  0  0  0  0  0  0  0  0  0
  143.1660   72.5860  220.3790 N   0  0  0  0  0  0  0  0  0  0  0  0
  143.1320   72.1480  219.4310 H   0  0  0  0  0  0  0  0  0  0  0  0
  144.4670   73.0310  220.8780 C   0  0  0  0  0  0  0  0  0  0  0  0
  144.4419   73.0687  221.9771 H   0  0  0  0  0  0  0  0  0  0  0  0
  145.2416   72.3240  220.5460 H   0  0  0  0  0  0  0  0  0  0  0  0
  144.7910   74.4250  220.3300 C   0  0  0  0  0  0  0  0  0  0  0  0
  144.9445   75.1154  221.1725 H   0  0  0  0  0  0  0  0  0  0  0  0
  145.7009   74.3561  219.7158 H   0  0  0  0  0  0  0  0  0  0  0  0
  143.6910   74.9330  219.4840 N   0  0  0  0  0  0  0  0  0  0  0  0
  143.8120   74.4850  218.0860 C   0  0  0  0  0  0  0  0  0  0  0  0
  144.7986   74.0254  217.9267 H   0  0  0  0  0  0  0  0  0  0  0  0
  143.0353   73.7403  217.8579 H   0  0  0  0  0  0  0  0  0  0  0  0
  143.6570   75.7010  217.1790 C   0  0  0  0  0  0  0  0  0  0  0  0
  144.6246   75.9766  216.7343 H   0  0  0  0  0  0  0  0  0  0  0  0
  142.9685   75.5062  216.3435 H   0  0  0  0  0  0  0  0  0  0  0  0
  143.1550   76.8030  218.0790 C   0  0  0  0  0  0  0  0  0  0  0  0
  143.5812   77.7732  217.7841 H   0  0  0  0  0  0  0  0  0  0  0  0
  142.0627   76.9236  218.0315 H   0  0  0  0  0  0  0  0  0  0  0  0
  143.6370   76.4000  219.4560 C   0  0  0  0  0  0  0  0  0  0  0  0
  144.6373   76.8177  219.6425 H   0  0  0  0  0  0  0  0  0  0  0  0
  142.9595   76.7811  220.2343 H   0  0  0  0  0  0  0  0  0  0  0  0
  141.2250   71.9280  221.6810 N   0  0  0  0  0  0  0  0  0  0  0  0
  140.4440   68.6870  225.8050 C   0  0  0  0  0  0  0  0  0  0  0  0
  140.1842   68.3600  224.7874 H   0  0  0  0  0  0  0  0  0  0  0  0
  140.5110   67.7490  226.8440 C   0  0  0  0  0  0  0  0  0  0  0  0
  140.3253   66.6847  226.6370 H   0  0  0  0  0  0  0  0  0  0  0  0
  1  2  1  0
  2  3  2  0
  3  4  1  0
  3  5  1  0
  5  6  1  0
  5  7  2  0
  7  8  1  0
  8  9  1  0
  8 10  1  0
  8 11  1  0
 11 12  1  0
 11 13  1  0
 11 14  1  0
 14 15  1  0
 14 16  2  0
 16 17  1  0
 17 18  2  0
 18 19  1  0
 19 20  1  0
 20 21  1  0
 20 22  1  0
 20 23  1  0
 23 24  2  0
 24 25  1  0
 24 26  1  0
 26 27  1  0
 26 28  2  0
 28 29  1  0
 28 30  1  0
 30 31  1  0
 30 32  2  0
 32 33  1  0
 33 34  1  0
 33 35  1  0
 33 36  1  0
 36 37  1  0
 36 38  1  0
 18 39  1  0
 39 40  1  0
 39 41  1  0
 41 42  1  0
 42 43  1  0
 42 44  1  0
 44 45  1  0
 44 46  1  0
 44 47  1  0
 47 48  1  0
 47 49  1  0
 47 50  1  0
 50 51  1  0
 51 52  1  0
 51 53  1  0
 51 54  1  0
 54 55  1  0
 54 56  1  0
 54 57  1  0
 57 58  1  0
 57 59  1  0
 57 60  1  0
 60 61  1  0
 60 62  1  0
 41 63  2  0
  7 64  1  0
 64 65  1  0
 64 66  2  0
 66 67  1  0
 66  2  1  0
 63 16  1  0
 36 19  1  0
 60 50  1  0
 32 23  1  0
M  CHG  1  14   1
M  END
>  <UniqueID>  (68) 
671

>  <SMILES>  (68) 
c1ccc(CC/[NH+]=c2\nc(NCCN3CCCC3)[nH]c(N3CCc4ccccc4C3)n2)cc1

>  <Energy>  (68) 
73.12508540169439

>  <Genealogy>  (68) 
c1ccc(CC[NH2+]c2nc(NCCN3CCCC3)nc(N3CCc4ccccc4C3)n2)cc1 (protonated)
c1ccc(CC[NH+]=c2nc(NCCN3CCCC3)[nH]c(N3CCc4ccccc4C3)n2)cc1 (tautomer)
c1ccc(CC/[NH+]=c2\nc(NCCN3CCCC3)[nH]c(N3CCc4ccccc4C3)n2)cc1 (cis-trans isomerization)
c1ccc(CC/[NH+]=c2\nc(NCCN3CCCC3)[nH]c(N3CCc4ccccc4C3)n2)cc1 (3D coordinates assigned)
c1ccc(CC/[NH+]=c2\nc(NCCN3CCCC3)[nH]c(N3CCc4ccccc4C3)n2)cc1 (nonaromatic ring conformer: 73.12508540169439 kcal/mol)

>  <smiles>  (68) 
c1ccc(CCNc2nc(NCCN3CCCC3)nc(N3CCc4ccccc4C3)n2)cc1

>  <score_type>  (68) 
oracle

>  <origin>  (68) 
autodockgpu

>  <m_score__min__energy>  (68) 
-9.9900000000000002

>  <m_primary>  (68) 
energy

>  <meeko>  (68) 
{"free_energy": -8.33, "intermolecular_energy": -11.02, "internal_energy": -2.28, "cluster_size": 12, "cluster_id": 1, "rank_in_cluster": 7}

>  <energy>  (68) 
-8.3

>  <cluster_rmsd>  (68) 
1.4

>  <rmsd>  (68) 
271.14

>  <cluster>  (68) 
1

$$$$
FPFWJFTVWFQHMH-FSECZMGHNA-O
     RDKit          3D

 67 71  0  0  0  0  0  0  0  0999 V2000
  141.9928   71.8660  229.1308 H   0  0  0  0  0  0  0  0  0  0  0  0
  141.4190   71.5160  228.2600 C   0  0  0  0  0  0  0  0  0  0  0  0
  141.4290   72.2570  227.0740 C   0  0  0  0  0  0  0  0  0  0  0  0
  142.0123   73.1876  227.0124 H   0  0  0  0  0  0  0  0  0  0  0  0
  140.6980   71.8160  225.9660 C   0  0  0  0  0  0  0  0  0  0  0  0
  140.7129   72.3987  225.0332 H   0  0  0  0  0  0  0  0  0  0  0  0
  139.9440   70.6310  226.0390 C   0  0  0  0  0  0  0  0  0  0  0  0
  139.1530   70.1590  224.8440 C   0  0  0  0  0  0  0  0  0  0  0  0
  139.1240   69.0594  224.8458 H   0  0  0  0  0  0  0  0  0  0  0  0
  138.1378   70.5767  224.9142 H   0  0  0  0  0  0  0  0  0  0  0  0
  139.7820   70.6390  223.5310 C   0  0  0  0  0  0  0  0  0  0  0  0
  140.8771   70.6448  223.6350 H   0  0  0  0  0  0  0  0  0  0  0  0
  139.4817   69.9567  222.7221 H   0  0  0  0  0  0  0  0  0  0  0  0
  139.3210   71.9920  223.2060 N   0  0  0  0  0  0  0  0  0  0  0  0
  138.3990   72.2920  223.6000 H   0  0  0  0  0  0  0  0  0  0  0  0
  139.9860   72.8230  222.4510 C   0  0  0  0  0  0  0  0  0  0  0  0
  139.5880   74.1190  222.3660 N   0  0  0  0  0  0  0  0  0  0  0  0
  140.2570   74.9970  221.5750 C   0  0  0  0  0  0  0  0  0  0  0  0
  139.8080   76.3610  221.4890 N   0  0  0  0  0  0  0  0  0  0  0  0
  139.6870   77.2030  222.6830 C   0  0  0  0  0  0  0  0  0  0  0  0
  139.8683   76.5903  223.5784 H   0  0  0  0  0  0  0  0  0  0  0  0
  138.6743   77.6311  222.7165 H   0  0  0  0  0  0  0  0  0  0  0  0
  140.6920   78.3270  222.6380 C   0  0  0  0  0  0  0  0  0  0  0  0
  140.9510   79.0620  223.8060 C   0  0  0  0  0  0  0  0  0  0  0  0
  140.4568   78.7824  224.7481 H   0  0  0  0  0  0  0  0  0  0  0  0
  141.8320   80.1460  223.7800 C   0  0  0  0  0  0  0  0  0  0  0  0
  142.0329   80.7128  224.7011 H   0  0  0  0  0  0  0  0  0  0  0  0
  142.4580   80.5110  222.5860 C   0  0  0  0  0  0  0  0  0  0  0  0
  143.1590   81.3586  222.5700 H   0  0  0  0  0  0  0  0  0  0  0  0
  142.1950   79.8010  221.4120 C   0  0  0  0  0  0  0  0  0  0  0  0
  142.6883   80.0956  220.4740 H   0  0  0  0  0  0  0  0  0  0  0  0
  141.3050   78.7130  221.4200 C   0  0  0  0  0  0  0  0  0  0  0  0
  141.1050   77.9180  220.1480 C   0  0  0  0  0  0  0  0  0  0  0  0
  141.9768   77.2643  219.9975 H   0  0  0  0  0  0  0  0  0  0  0  0
  140.9923   78.6303  219.3174 H   0  0  0  0  0  0  0  0  0  0  0  0
  139.8440   77.0540  220.2020 C   0  0  0  0  0  0  0  0  0  0  0  0
  139.8641   76.3176  219.3851 H   0  0  0  0  0  0  0  0  0  0  0  0
  138.9505   77.6858  220.0903 H   0  0  0  0  0  0  0  0  0  0  0  0
  141.3210   74.5670  220.8410 N   0  0  0  0  0  0  0  0  0  0  0  0
  141.8210   75.2240  220.1990 H   0  0  0  0  0  0  0  0  0  0  0  0
  141.7330   73.2730  220.9250 C   0  0  0  0  0  0  0  0  0  0  0  0
  142.8480   72.8220  220.1400 N   0  0  0  0  0  0  0  0  0  0  0  0
  142.6630   72.4160  219.1950 H   0  0  0  0  0  0  0  0  0  0  0  0
  144.2390   73.0850  220.5070 C   0  0  0  0  0  0  0  0  0  0  0  0
  144.3594   72.9561  221.5928 H   0  0  0  0  0  0  0  0  0  0  0  0
  144.8919   72.3800  219.9716 H   0  0  0  0  0  0  0  0  0  0  0  0
  144.6240   74.5170  220.1210 C   0  0  0  0  0  0  0  0  0  0  0  0
  144.7288   75.1198  221.0351 H   0  0  0  0  0  0  0  0  0  0  0  0
  145.5741   74.4866  219.5674 H   0  0  0  0  0  0  0  0  0  0  0  0
  143.5940   75.1290  219.2540 N   0  0  0  0  0  0  0  0  0  0  0  0
  143.7100   74.6860  217.8540 C   0  0  0  0  0  0  0  0  0  0  0  0
  144.6554   74.1417  217.7131 H   0  0  0  0  0  0  0  0  0  0  0  0
  142.8762   74.0159  217.5978 H   0  0  0  0  0  0  0  0  0  0  0  0
  143.6870   75.9200  216.9590 C   0  0  0  0  0  0  0  0  0  0  0  0
  144.6866   76.1131  216.5424 H   0  0  0  0  0  0  0  0  0  0  0  0
  143.0060   75.7954  216.1042 H   0  0  0  0  0  0  0  0  0  0  0  0
  143.2610   77.0530  217.8590 C   0  0  0  0  0  0  0  0  0  0  0  0
  143.7786   77.9846  217.5865 H   0  0  0  0  0  0  0  0  0  0  0  0
  142.1852   77.2704  217.7857 H   0  0  0  0  0  0  0  0  0  0  0  0
  143.6700   76.5950  219.2430 C   0  0  0  0  0  0  0  0  0  0  0  0
  144.6980   76.9209  219.4596 H   0  0  0  0  0  0  0  0  0  0  0  0
  143.0088   77.0265  220.0089 H   0  0  0  0  0  0  0  0  0  0  0  0
  141.0640   72.4090  221.7330 N   0  0  0  0  0  0  0  0  0  0  0  0
  139.9330   69.8960  227.2400 C   0  0  0  0  0  0  0  0  0  0  0  0
  139.3343   68.9762  227.3137 H   0  0  0  0  0  0  0  0  0  0  0  0
  140.6810   70.3310  228.3410 C   0  0  0  0  0  0  0  0  0  0  0  0
  140.6880   69.7408  229.2692 H   0  0  0  0  0  0  0  0  0  0  0  0
  1  2  1  0
  2  3  2  0
  3  4  1  0
  3  5  1  0
  5  6  1  0
  5  7  2  0
  7  8  1  0
  8  9  1  0
  8 10  1  0
  8 11  1  0
 11 12  1  0
 11 13  1  0
 11 14  1  0
 14 15  1  0
 14 16  2  0
 16 17  1  0
 17 18  2  0
 18 19  1  0
 19 20  1  0
 20 21  1  0
 20 22  1  0
 20 23  1  0
 23 24  2  0
 24 25  1  0
 24 26  1  0
 26 27  1  0
 26 28  2  0
 28 29  1  0
 28 30  1  0
 30 31  1  0
 30 32  2  0
 32 33  1  0
 33 34  1  0
 33 35  1  0
 33 36  1  0
 36 37  1  0
 36 38  1  0
 18 39  1  0
 39 40  1  0
 39 41  1  0
 41 42  1  0
 42 43  1  0
 42 44  1  0
 44 45  1  0
 44 46  1  0
 44 47  1  0
 47 48  1  0
 47 49  1  0
 47 50  1  0
 50 51  1  0
 51 52  1  0
 51 53  1  0
 51 54  1  0
 54 55  1  0
 54 56  1  0
 54 57  1  0
 57 58  1  0
 57 59  1  0
 57 60  1  0
 60 61  1  0
 60 62  1  0
 41 63  2  0
  7 64  1  0
 64 65  1  0
 64 66  2  0
 66 67  1  0
 66  2  1  0
 63 16  1  0
 36 19  1  0
 60 50  1  0
 32 23  1  0
M  CHG  1  14   1
M  END
>  <UniqueID>  (69) 
671

>  <SMILES>  (69) 
c1ccc(CC/[NH+]=c2\nc(NCCN3CCCC3)[nH]c(N3CCc4ccccc4C3)n2)cc1

>  <Energy>  (69) 
73.12508540169439

>  <Genealogy>  (69) 
c1ccc(CC[NH2+]c2nc(NCCN3CCCC3)nc(N3CCc4ccccc4C3)n2)cc1 (protonated)
c1ccc(CC[NH+]=c2nc(NCCN3CCCC3)[nH]c(N3CCc4ccccc4C3)n2)cc1 (tautomer)
c1ccc(CC/[NH+]=c2\nc(NCCN3CCCC3)[nH]c(N3CCc4ccccc4C3)n2)cc1 (cis-trans isomerization)
c1ccc(CC/[NH+]=c2\nc(NCCN3CCCC3)[nH]c(N3CCc4ccccc4C3)n2)cc1 (3D coordinates assigned)
c1ccc(CC/[NH+]=c2\nc(NCCN3CCCC3)[nH]c(N3CCc4ccccc4C3)n2)cc1 (nonaromatic ring conformer: 73.12508540169439 kcal/mol)

>  <smiles>  (69) 
c1ccc(CCNc2nc(NCCN3CCCC3)nc(N3CCc4ccccc4C3)n2)cc1

>  <score_type>  (69) 
oracle

>  <origin>  (69) 
autodockgpu

>  <m_score__min__energy>  (69) 
-9.9900000000000002

>  <m_primary>  (69) 
energy

>  <meeko>  (69) 
{"free_energy": -9.03, "intermolecular_energy": -11.71, "internal_energy": -2.13, "cluster_size": 12, "cluster_id": 1, "rank_in_cluster": 4}

>  <energy>  (69) 
-8.22

>  <cluster_rmsd>  (69) 
1.67

>  <rmsd>  (69) 
271.11

>  <cluster>  (69) 
1

$$$$
FPFWJFTVWFQHMH-FSECZMGHNA-O
     RDKit          3D

 67 71  0  0  0  0  0  0  0  0999 V2000
  140.2296   68.8007  229.3643 H   0  0  0  0  0  0  0  0  0  0  0  0
  140.3320   69.2810  228.3800 C   0  0  0  0  0  0  0  0  0  0  0  0
  140.2440   68.5120  227.2150 C   0  0  0  0  0  0  0  0  0  0  0  0
  140.0691   67.4282  227.2841 H   0  0  0  0  0  0  0  0  0  0  0  0
  140.3780   69.1190  225.9630 C   0  0  0  0  0  0  0  0  0  0  0  0
  140.3039   68.5108  225.0495 H   0  0  0  0  0  0  0  0  0  0  0  0
  140.6070   70.5030  225.8650 C   0  0  0  0  0  0  0  0  0  0  0  0
  140.7550   71.1560  224.5130 C   0  0  0  0  0  0  0  0  0  0  0  0
  140.9019   72.2373  224.6520 H   0  0  0  0  0  0  0  0  0  0  0  0
  141.6207   70.7066  224.0045 H   0  0  0  0  0  0  0  0  0  0  0  0
  139.5130   70.9290  223.6430 C   0  0  0  0  0  0  0  0  0  0  0  0
  139.7784   70.2809  222.7948 H   0  0  0  0  0  0  0  0  0  0  0  0
  138.7323   70.4522  224.2539 H   0  0  0  0  0  0  0  0  0  0  0  0
  139.0040   72.2060  223.1340 N   0  0  0  0  0  0  0  0  0  0  0  0
  138.0160   72.4570  223.3690 H   0  0  0  0  0  0  0  0  0  0  0  0
  139.7070   73.0260  222.4010 C   0  0  0  0  0  0  0  0  0  0  0  0
  139.3610   74.3380  222.3420 N   0  0  0  0  0  0  0  0  0  0  0  0
  140.0700   75.2060  221.5750 C   0  0  0  0  0  0  0  0  0  0  0  0
  139.6760   76.5880  221.5150 N   0  0  0  0  0  0  0  0  0  0  0  0
  139.6120   77.4180  222.7220 C   0  0  0  0  0  0  0  0  0  0  0  0
  139.7847   76.7861  223.6057 H   0  0  0  0  0  0  0  0  0  0  0  0
  138.6185   77.8866  222.7800 H   0  0  0  0  0  0  0  0  0  0  0  0
  140.6610   78.5010  222.6730 C   0  0  0  0  0  0  0  0  0  0  0  0
  140.9720   79.2090  223.8440 C   0  0  0  0  0  0  0  0  0  0  0  0
  140.4844   78.9374  224.7919 H   0  0  0  0  0  0  0  0  0  0  0  0
  141.8960   80.2560  223.8150 C   0  0  0  0  0  0  0  0  0  0  0  0
  142.1380   80.8008  224.7395 H   0  0  0  0  0  0  0  0  0  0  0  0
  142.5130   80.6120  222.6140 C   0  0  0  0  0  0  0  0  0  0  0  0
  143.2479   81.4303  222.5953 H   0  0  0  0  0  0  0  0  0  0  0  0
  142.1980   79.9300  221.4360 C   0  0  0  0  0  0  0  0  0  0  0  0
  142.6839   80.2178  220.4920 H   0  0  0  0  0  0  0  0  0  0  0  0
  141.2650   78.8790  221.4480 C   0  0  0  0  0  0  0  0  0  0  0  0
  141.0090   78.1100  220.1690 C   0  0  0  0  0  0  0  0  0  0  0  0
  141.8505   77.4237  219.9930 H   0  0  0  0  0  0  0  0  0  0  0  0
  140.9100   78.8374  219.3498 H   0  0  0  0  0  0  0  0  0  0  0  0
  139.7150   77.2970  220.2370 C   0  0  0  0  0  0  0  0  0  0  0  0
  139.6890   76.5720  219.4101 H   0  0  0  0  0  0  0  0  0  0  0  0
  138.8460   77.9660  220.1518 H   0  0  0  0  0  0  0  0  0  0  0  0
  141.1220   74.7500  220.8390 N   0  0  0  0  0  0  0  0  0  0  0  0
  141.6520   75.4010  220.2150 H   0  0  0  0  0  0  0  0  0  0  0  0
  141.4830   73.4390  220.8980 C   0  0  0  0  0  0  0  0  0  0  0  0
  142.5850   72.9620  220.1110 N   0  0  0  0  0  0  0  0  0  0  0  0
  142.3890   72.5620  219.1660 H   0  0  0  0  0  0  0  0  0  0  0  0
  143.9830   73.1910  220.4760 C   0  0  0  0  0  0  0  0  0  0  0  0
  144.0784   73.1869  221.5718 H   0  0  0  0  0  0  0  0  0  0  0  0
  144.6038   72.3925  220.0436 H   0  0  0  0  0  0  0  0  0  0  0  0
  144.4540   74.5440  219.9310 C   0  0  0  0  0  0  0  0  0  0  0  0
  144.6422   75.2250  220.7741 H   0  0  0  0  0  0  0  0  0  0  0  0
  145.3740   74.3851  219.3494 H   0  0  0  0  0  0  0  0  0  0  0  0
  143.4360   75.1440  219.0440 N   0  0  0  0  0  0  0  0  0  0  0  0
  143.6720   74.8180  217.6270 C   0  0  0  0  0  0  0  0  0  0  0  0
  144.6638   74.3565  217.5116 H   0  0  0  0  0  0  0  0  0  0  0  0
  142.9101   74.1101  217.2687 H   0  0  0  0  0  0  0  0  0  0  0  0
  143.6080   76.1110  216.8220 C   0  0  0  0  0  0  0  0  0  0  0  0
  144.6131   76.4071  216.4870 H   0  0  0  0  0  0  0  0  0  0  0  0
  142.9916   76.0022  215.9174 H   0  0  0  0  0  0  0  0  0  0  0  0
  143.0420   77.1390  217.7700 C   0  0  0  0  0  0  0  0  0  0  0  0
  143.5021   78.1235  217.5995 H   0  0  0  0  0  0  0  0  0  0  0  0
  141.9592   77.2834  217.6411 H   0  0  0  0  0  0  0  0  0  0  0  0
  143.4000   76.6080  219.1410 C   0  0  0  0  0  0  0  0  0  0  0  0
  144.3851   76.9897  219.4475 H   0  0  0  0  0  0  0  0  0  0  0  0
  142.6620   76.9315  219.8898 H   0  0  0  0  0  0  0  0  0  0  0  0
  140.7740   72.5850  221.6820 N   0  0  0  0  0  0  0  0  0  0  0  0
  140.7020   71.2690  227.0430 C   0  0  0  0  0  0  0  0  0  0  0  0
  140.8963   72.3498  226.9795 H   0  0  0  0  0  0  0  0  0  0  0  0
  140.5500   70.6600  228.2950 C   0  0  0  0  0  0  0  0  0  0  0  0
  140.6021   71.2662  229.2114 H   0  0  0  0  0  0  0  0  0  0  0  0
  1  2  1  0
  2  3  2  0
  3  4  1  0
  3  5  1  0
  5  6  1  0
  5  7  2  0
  7  8  1  0
  8  9  1  0
  8 10  1  0
  8 11  1  0
 11 12  1  0
 11 13  1  0
 11 14  1  0
 14 15  1  0
 14 16  2  0
 16 17  1  0
 17 18  2  0
 18 19  1  0
 19 20  1  0
 20 21  1  0
 20 22  1  0
 20 23  1  0
 23 24  2  0
 24 25  1  0
 24 26  1  0
 26 27  1  0
 26 28  2  0
 28 29  1  0
 28 30  1  0
 30 31  1  0
 30 32  2  0
 32 33  1  0
 33 34  1  0
 33 35  1  0
 33 36  1  0
 36 37  1  0
 36 38  1  0
 18 39  1  0
 39 40  1  0
 39 41  1  0
 41 42  1  0
 42 43  1  0
 42 44  1  0
 44 45  1  0
 44 46  1  0
 44 47  1  0
 47 48  1  0
 47 49  1  0
 47 50  1  0
 50 51  1  0
 51 52  1  0
 51 53  1  0
 51 54  1  0
 54 55  1  0
 54 56  1  0
 54 57  1  0
 57 58  1  0
 57 59  1  0
 57 60  1  0
 60 61  1  0
 60 62  1  0
 41 63  2  0
  7 64  1  0
 64 65  1  0
 64 66  2  0
 66 67  1  0
 66  2  1  0
 63 16  1  0
 36 19  1  0
 60 50  1  0
 32 23  1  0
M  CHG  1  14   1
M  END
>  <UniqueID>  (70) 
671

>  <SMILES>  (70) 
c1ccc(CC/[NH+]=c2\nc(NCCN3CCCC3)[nH]c(N3CCc4ccccc4C3)n2)cc1

>  <Energy>  (70) 
73.12508540169439

>  <Genealogy>  (70) 
c1ccc(CC[NH2+]c2nc(NCCN3CCCC3)nc(N3CCc4ccccc4C3)n2)cc1 (protonated)
c1ccc(CC[NH+]=c2nc(NCCN3CCCC3)[nH]c(N3CCc4ccccc4C3)n2)cc1 (tautomer)
c1ccc(CC/[NH+]=c2\nc(NCCN3CCCC3)[nH]c(N3CCc4ccccc4C3)n2)cc1 (cis-trans isomerization)
c1ccc(CC/[NH+]=c2\nc(NCCN3CCCC3)[nH]c(N3CCc4ccccc4C3)n2)cc1 (3D coordinates assigned)
c1ccc(CC/[NH+]=c2\nc(NCCN3CCCC3)[nH]c(N3CCc4ccccc4C3)n2)cc1 (nonaromatic ring conformer: 73.12508540169439 kcal/mol)

>  <smiles>  (70) 
c1ccc(CCNc2nc(NCCN3CCCC3)nc(N3CCc4ccccc4C3)n2)cc1

>  <score_type>  (70) 
oracle

>  <origin>  (70) 
autodockgpu

>  <m_score__min__energy>  (70) 
-9.9900000000000002

>  <m_primary>  (70) 
energy

>  <meeko>  (70) 
{"free_energy": -9.05, "intermolecular_energy": -11.73, "internal_energy": -2.07, "cluster_size": 12, "cluster_id": 1, "rank_in_cluster": 3}

>  <energy>  (70) 
-8.18

>  <cluster_rmsd>  (70) 
1.42

>  <rmsd>  (70) 
271.09

>  <cluster>  (70) 
1

$$$$
FPFWJFTVWFQHMH-FSECZMGHNA-O
     RDKit          3D

 67 71  0  0  0  0  0  0  0  0999 V2000
  139.8451   70.1166  229.3450 H   0  0  0  0  0  0  0  0  0  0  0  0
  140.0140   70.3940  228.2940 C   0  0  0  0  0  0  0  0  0  0  0  0
  139.5030   69.5920  227.2690 C   0  0  0  0  0  0  0  0  0  0  0  0
  138.9316   68.6848  227.5149 H   0  0  0  0  0  0  0  0  0  0  0  0
  139.7170   69.9410  225.9320 C   0  0  0  0  0  0  0  0  0  0  0  0
  139.3078   69.3101  225.1292 H   0  0  0  0  0  0  0  0  0  0  0  0
  140.4530   71.0950  225.6090 C   0  0  0  0  0  0  0  0  0  0  0  0
  140.6870   71.4680  224.1650 C   0  0  0  0  0  0  0  0  0  0  0  0
  141.1929   72.4439  224.1250 H   0  0  0  0  0  0  0  0  0  0  0  0
  141.3080   70.6870  223.7021 H   0  0  0  0  0  0  0  0  0  0  0  0
  139.3670   71.5580  223.3890 C   0  0  0  0  0  0  0  0  0  0  0  0
  138.9473   70.5482  223.2699 H   0  0  0  0  0  0  0  0  0  0  0  0
  138.6671   72.1953  223.9493 H   0  0  0  0  0  0  0  0  0  0  0  0
  139.5900   72.1470  222.0660 N   0  0  0  0  0  0  0  0  0  0  0  0
  139.2550   71.6060  221.2360 H   0  0  0  0  0  0  0  0  0  0  0  0
  140.1890   73.2910  221.8740 C   0  0  0  0  0  0  0  0  0  0  0  0
  141.4280   73.3150  221.3170 N   0  0  0  0  0  0  0  0  0  0  0  0
  142.0760   74.4920  221.1210 C   0  0  0  0  0  0  0  0  0  0  0  0
  143.3930   74.4920  220.5440 N   0  0  0  0  0  0  0  0  0  0  0  0
  144.3550   73.4240  220.8320 C   0  0  0  0  0  0  0  0  0  0  0  0
  143.9411   72.7634  221.6080 H   0  0  0  0  0  0  0  0  0  0  0  0
  145.2950   73.8761  221.1813 H   0  0  0  0  0  0  0  0  0  0  0  0
  144.6340   72.6160  219.5890 C   0  0  0  0  0  0  0  0  0  0  0  0
  145.2830   71.3770  219.7080 C   0  0  0  0  0  0  0  0  0  0  0  0
  145.5381   70.9871  220.7045 H   0  0  0  0  0  0  0  0  0  0  0  0
  145.6070   70.6360  218.5690 C   0  0  0  0  0  0  0  0  0  0  0  0
  146.1097   69.6630  218.6717 H   0  0  0  0  0  0  0  0  0  0  0  0
  145.2940   71.1280  217.3010 C   0  0  0  0  0  0  0  0  0  0  0  0
  145.5421   70.5379  216.4064 H   0  0  0  0  0  0  0  0  0  0  0  0
  144.6660   72.3690  217.1660 C   0  0  0  0  0  0  0  0  0  0  0  0
  144.4251   72.7531  216.1638 H   0  0  0  0  0  0  0  0  0  0  0  0
  144.3400   73.1300  218.3020 C   0  0  0  0  0  0  0  0  0  0  0  0
  143.5900   74.4320  218.1220 C   0  0  0  0  0  0  0  0  0  0  0  0
  142.5341   74.2070  217.9113 H   0  0  0  0  0  0  0  0  0  0  0  0
  144.0552   74.9788  217.2886 H   0  0  0  0  0  0  0  0  0  0  0  0
  143.6670   75.3170  219.3680 C   0  0  0  0  0  0  0  0  0  0  0  0
  142.9203   76.1217  219.2977 H   0  0  0  0  0  0  0  0  0  0  0  0
  144.6680   75.7658  219.4488 H   0  0  0  0  0  0  0  0  0  0  0  0
  141.4870   75.6580  221.5100 N   0  0  0  0  0  0  0  0  0  0  0  0
  141.9900   76.5670  221.4000 H   0  0  0  0  0  0  0  0  0  0  0  0
  140.2420   75.6460  222.0610 C   0  0  0  0  0  0  0  0  0  0  0  0
  139.6320   76.8760  222.4810 N   0  0  0  0  0  0  0  0  0  0  0  0
  139.8110   77.2190  223.4510 H   0  0  0  0  0  0  0  0  0  0  0  0
  138.9370   77.7760  221.5590 C   0  0  0  0  0  0  0  0  0  0  0  0
  139.1445   77.4677  220.5237 H   0  0  0  0  0  0  0  0  0  0  0  0
  137.8555   77.7270  221.7539 H   0  0  0  0  0  0  0  0  0  0  0  0
  139.4200   79.2160  221.7660 C   0  0  0  0  0  0  0  0  0  0  0  0
  139.8460   79.5911  220.8238 H   0  0  0  0  0  0  0  0  0  0  0  0
  138.5621   79.8317  222.0742 H   0  0  0  0  0  0  0  0  0  0  0  0
  140.4510   79.2840  222.8230 N   0  0  0  0  0  0  0  0  0  0  0  0
  140.4860   80.6020  223.4810 C   0  0  0  0  0  0  0  0  0  0  0  0
  139.8680   81.3160  222.9169 H   0  0  0  0  0  0  0  0  0  0  0  0
  140.0904   80.5255  224.5046 H   0  0  0  0  0  0  0  0  0  0  0  0
  141.9320   81.0830  223.5110 C   0  0  0  0  0  0  0  0  0  0  0  0
  142.0805   81.9041  222.7942 H   0  0  0  0  0  0  0  0  0  0  0  0
  142.2161   81.4708  224.5004 H   0  0  0  0  0  0  0  0  0  0  0  0
  142.7560   79.8820  223.1180 C   0  0  0  0  0  0  0  0  0  0  0  0
  143.6230   80.1840  222.5122 H   0  0  0  0  0  0  0  0  0  0  0  0
  143.1644   79.3460  223.9874 H   0  0  0  0  0  0  0  0  0  0  0  0
  141.8020   79.0330  222.3060 C   0  0  0  0  0  0  0  0  0  0  0  0
  141.8576   79.3143  221.2440 H   0  0  0  0  0  0  0  0  0  0  0  0
  142.0603   77.9670  222.3888 H   0  0  0  0  0  0  0  0  0  0  0  0
  139.6000   74.4610  222.2360 N   0  0  0  0  0  0  0  0  0  0  0  0
  140.9720   71.8930  226.6470 C   0  0  0  0  0  0  0  0  0  0  0  0
  141.5618   72.7898  226.4063 H   0  0  0  0  0  0  0  0  0  0  0  0
  140.7400   71.5490  227.9840 C   0  0  0  0  0  0  0  0  0  0  0  0
  141.1287   72.1872  228.7912 H   0  0  0  0  0  0  0  0  0  0  0  0
  1  2  1  0
  2  3  2  0
  3  4  1  0
  3  5  1  0
  5  6  1  0
  5  7  2  0
  7  8  1  0
  8  9  1  0
  8 10  1  0
  8 11  1  0
 11 12  1  0
 11 13  1  0
 11 14  1  0
 14 15  1  0
 14 16  2  0
 16 17  1  0
 17 18  2  0
 18 19  1  0
 19 20  1  0
 20 21  1  0
 20 22  1  0
 20 23  1  0
 23 24  2  0
 24 25  1  0
 24 26  1  0
 26 27  1  0
 26 28  2  0
 28 29  1  0
 28 30  1  0
 30 31  1  0
 30 32  2  0
 32 33  1  0
 33 34  1  0
 33 35  1  0
 33 36  1  0
 36 37  1  0
 36 38  1  0
 18 39  1  0
 39 40  1  0
 39 41  1  0
 41 42  1  0
 42 43  1  0
 42 44  1  0
 44 45  1  0
 44 46  1  0
 44 47  1  0
 47 48  1  0
 47 49  1  0
 47 50  1  0
 50 51  1  0
 51 52  1  0
 51 53  1  0
 51 54  1  0
 54 55  1  0
 54 56  1  0
 54 57  1  0
 57 58  1  0
 57 59  1  0
 57 60  1  0
 60 61  1  0
 60 62  1  0
 41 63  2  0
  7 64  1  0
 64 65  1  0
 64 66  2  0
 66 67  1  0
 66  2  1  0
 63 16  1  0
 36 19  1  0
 60 50  1  0
 32 23  1  0
M  CHG  1  14   1
M  END
>  <UniqueID>  (71) 
671

>  <SMILES>  (71) 
c1ccc(CC/[NH+]=c2\nc(NCCN3CCCC3)[nH]c(N3CCc4ccccc4C3)n2)cc1

>  <Energy>  (71) 
73.12508540169439

>  <Genealogy>  (71) 
c1ccc(CC[NH2+]c2nc(NCCN3CCCC3)nc(N3CCc4ccccc4C3)n2)cc1 (protonated)
c1ccc(CC[NH+]=c2nc(NCCN3CCCC3)[nH]c(N3CCc4ccccc4C3)n2)cc1 (tautomer)
c1ccc(CC/[NH+]=c2\nc(NCCN3CCCC3)[nH]c(N3CCc4ccccc4C3)n2)cc1 (cis-trans isomerization)
c1ccc(CC/[NH+]=c2\nc(NCCN3CCCC3)[nH]c(N3CCc4ccccc4C3)n2)cc1 (3D coordinates assigned)
c1ccc(CC/[NH+]=c2\nc(NCCN3CCCC3)[nH]c(N3CCc4ccccc4C3)n2)cc1 (nonaromatic ring conformer: 73.12508540169439 kcal/mol)

>  <smiles>  (71) 
c1ccc(CCNc2nc(NCCN3CCCC3)nc(N3CCc4ccccc4C3)n2)cc1

>  <score_type>  (71) 
oracle

>  <origin>  (71) 
autodockgpu

>  <m_score__min__energy>  (71) 
-9.9900000000000002

>  <m_primary>  (71) 
energy

>  <meeko>  (71) 
{"free_energy": -8.97, "intermolecular_energy": -11.66, "internal_energy": -1.53, "cluster_size": 4, "cluster_id": 2, "rank_in_cluster": 1}

>  <energy>  (71) 
-8.08

>  <cluster_rmsd>  (71) 
1.65

>  <rmsd>  (71) 
271.1

>  <cluster>  (71) 
1

$$$$
FPFWJFTVWFQHMH-FSECZMGHNA-O
     RDKit          3D

 67 71  0  0  0  0  0  0  0  0999 V2000
  140.3807   68.7665  229.0971 H   0  0  0  0  0  0  0  0  0  0  0  0
  140.4430   69.3600  228.1730 C   0  0  0  0  0  0  0  0  0  0  0  0
  140.6490   70.7410  228.2430 C   0  0  0  0  0  0  0  0  0  0  0  0
  140.7515   71.2316  229.2222 H   0  0  0  0  0  0  0  0  0  0  0  0
  140.7250   71.5000  227.0710 C   0  0  0  0  0  0  0  0  0  0  0  0
  140.8918   72.5856  227.1314 H   0  0  0  0  0  0  0  0  0  0  0  0
  140.5890   70.8810  225.8150 C   0  0  0  0  0  0  0  0  0  0  0  0
  140.6680   71.7010  224.5510 C   0  0  0  0  0  0  0  0  0  0  0  0
  140.2002   72.6803  224.7300 H   0  0  0  0  0  0  0  0  0  0  0  0
  141.7277   71.8180  224.2801 H   0  0  0  0  0  0  0  0  0  0  0  0
  139.9470   71.0090  223.3890 C   0  0  0  0  0  0  0  0  0  0  0  0
  140.2195   69.9434  223.3769 H   0  0  0  0  0  0  0  0  0  0  0  0
  138.8614   71.1209  223.5263 H   0  0  0  0  0  0  0  0  0  0  0  0
  140.3290   71.6190  222.1130 N   0  0  0  0  0  0  0  0  0  0  0  0
  140.5250   70.9760  221.3110 H   0  0  0  0  0  0  0  0  0  0  0  0
  140.4490   72.9060  221.9320 C   0  0  0  0  0  0  0  0  0  0  0  0
  141.5600   73.3990  221.3250 N   0  0  0  0  0  0  0  0  0  0  0  0
  141.7110   74.7360  221.1400 C   0  0  0  0  0  0  0  0  0  0  0  0
  142.9030   75.2360  220.5080 N   0  0  0  0  0  0  0  0  0  0  0  0
  144.0960   74.3990  220.3540 C   0  0  0  0  0  0  0  0  0  0  0  0
  143.9439   73.4498  220.8886 H   0  0  0  0  0  0  0  0  0  0  0  0
  144.9624   74.9336  220.7706 H   0  0  0  0  0  0  0  0  0  0  0  0
  144.3540   74.1120  218.8960 C   0  0  0  0  0  0  0  0  0  0  0  0
  145.2560   73.0940  218.5460 C   0  0  0  0  0  0  0  0  0  0  0  0
  145.7270   72.4871  219.3332 H   0  0  0  0  0  0  0  0  0  0  0  0
  145.5590   72.8470  217.2050 C   0  0  0  0  0  0  0  0  0  0  0  0
  146.2622   72.0436  216.9401 H   0  0  0  0  0  0  0  0  0  0  0  0
  144.9710   73.6180  216.2000 C   0  0  0  0  0  0  0  0  0  0  0  0
  145.2035   73.4148  215.1442 H   0  0  0  0  0  0  0  0  0  0  0  0
  144.0870   74.6480  216.5350 C   0  0  0  0  0  0  0  0  0  0  0  0
  143.6298   75.2549  215.7396 H   0  0  0  0  0  0  0  0  0  0  0  0
  143.7780   74.9140  217.8790 C   0  0  0  0  0  0  0  0  0  0  0  0
  142.7570   75.9830  218.2000 C   0  0  0  0  0  0  0  0  0  0  0  0
  141.7515   75.5849  217.9987 H   0  0  0  0  0  0  0  0  0  0  0  0
  142.9737   76.8581  217.5698 H   0  0  0  0  0  0  0  0  0  0  0  0
  142.8280   76.4270  219.6630 C   0  0  0  0  0  0  0  0  0  0  0  0
  141.9288   77.0068  219.9185 H   0  0  0  0  0  0  0  0  0  0  0  0
  143.7152   77.0576  219.8221 H   0  0  0  0  0  0  0  0  0  0  0  0
  140.7510   75.5920  221.5900 N   0  0  0  0  0  0  0  0  0  0  0  0
  140.8740   76.6250  221.4870 H   0  0  0  0  0  0  0  0  0  0  0  0
  139.6310   75.1080  222.1910 C   0  0  0  0  0  0  0  0  0  0  0  0
  138.6280   76.0150  222.6760 N   0  0  0  0  0  0  0  0  0  0  0  0
  138.1090   75.7690  223.5490 H   0  0  0  0  0  0  0  0  0  0  0  0
  138.4350   77.3570  222.1250 C   0  0  0  0  0  0  0  0  0  0  0  0
  138.8076   77.3826  221.0903 H   0  0  0  0  0  0  0  0  0  0  0  0
  137.3630   77.6029  222.1428 H   0  0  0  0  0  0  0  0  0  0  0  0
  139.2000   78.3860  222.9650 C   0  0  0  0  0  0  0  0  0  0  0  0
  138.7135   79.3672  222.8620 H   0  0  0  0  0  0  0  0  0  0  0  0
  139.1893   78.0579  224.0149 H   0  0  0  0  0  0  0  0  0  0  0  0
  140.6060   78.4950  222.5210 N   0  0  0  0  0  0  0  0  0  0  0  0
  141.5310   78.7040  223.6480 C   0  0  0  0  0  0  0  0  0  0  0  0
  140.9602   78.9252  224.5619 H   0  0  0  0  0  0  0  0  0  0  0  0
  142.1320   77.7986  223.8187 H   0  0  0  0  0  0  0  0  0  0  0  0
  142.4380   79.8810  223.3090 C   0  0  0  0  0  0  0  0  0  0  0  0
  142.1695   80.7608  223.9122 H   0  0  0  0  0  0  0  0  0  0  0  0
  143.4943   79.6601  223.5221 H   0  0  0  0  0  0  0  0  0  0  0  0
  142.2040   80.1530  221.8440 C   0  0  0  0  0  0  0  0  0  0  0  0
  142.2475   81.2320  221.6347 H   0  0  0  0  0  0  0  0  0  0  0  0
  142.9648   79.6878  221.2000 H   0  0  0  0  0  0  0  0  0  0  0  0
  140.8140   79.6110  221.5890 C   0  0  0  0  0  0  0  0  0  0  0  0
  140.0646   80.3961  221.7677 H   0  0  0  0  0  0  0  0  0  0  0  0
  140.7110   79.2742  220.5469 H   0  0  0  0  0  0  0  0  0  0  0  0
  139.4850   73.7670  222.3560 N   0  0  0  0  0  0  0  0  0  0  0  0
  140.3740   69.4900  225.7540 C   0  0  0  0  0  0  0  0  0  0  0  0
  140.2511   68.9972  224.7783 H   0  0  0  0  0  0  0  0  0  0  0  0
  140.3160   68.7320  226.9300 C   0  0  0  0  0  0  0  0  0  0  0  0
  140.1706   67.6430  226.8760 H   0  0  0  0  0  0  0  0  0  0  0  0
  1  2  1  0
  2  3  2  0
  3  4  1  0
  3  5  1  0
  5  6  1  0
  5  7  2  0
  7  8  1  0
  8  9  1  0
  8 10  1  0
  8 11  1  0
 11 12  1  0
 11 13  1  0
 11 14  1  0
 14 15  1  0
 14 16  2  0
 16 17  1  0
 17 18  2  0
 18 19  1  0
 19 20  1  0
 20 21  1  0
 20 22  1  0
 20 23  1  0
 23 24  2  0
 24 25  1  0
 24 26  1  0
 26 27  1  0
 26 28  2  0
 28 29  1  0
 28 30  1  0
 30 31  1  0
 30 32  2  0
 32 33  1  0
 33 34  1  0
 33 35  1  0
 33 36  1  0
 36 37  1  0
 36 38  1  0
 18 39  1  0
 39 40  1  0
 39 41  1  0
 41 42  1  0
 42 43  1  0
 42 44  1  0
 44 45  1  0
 44 46  1  0
 44 47  1  0
 47 48  1  0
 47 49  1  0
 47 50  1  0
 50 51  1  0
 51 52  1  0
 51 53  1  0
 51 54  1  0
 54 55  1  0
 54 56  1  0
 54 57  1  0
 57 58  1  0
 57 59  1  0
 57 60  1  0
 60 61  1  0
 60 62  1  0
 41 63  2  0
  7 64  1  0
 64 65  1  0
 64 66  2  0
 66 67  1  0
 66  2  1  0
 63 16  1  0
 36 19  1  0
 60 50  1  0
 32 23  1  0
M  CHG  1  14   1
M  END
>  <UniqueID>  (72) 
671

>  <SMILES>  (72) 
c1ccc(CC/[NH+]=c2\nc(NCCN3CCCC3)[nH]c(N3CCc4ccccc4C3)n2)cc1

>  <Energy>  (72) 
73.12508540169439

>  <Genealogy>  (72) 
c1ccc(CC[NH2+]c2nc(NCCN3CCCC3)nc(N3CCc4ccccc4C3)n2)cc1 (protonated)
c1ccc(CC[NH+]=c2nc(NCCN3CCCC3)[nH]c(N3CCc4ccccc4C3)n2)cc1 (tautomer)
c1ccc(CC/[NH+]=c2\nc(NCCN3CCCC3)[nH]c(N3CCc4ccccc4C3)n2)cc1 (cis-trans isomerization)
c1ccc(CC/[NH+]=c2\nc(NCCN3CCCC3)[nH]c(N3CCc4ccccc4C3)n2)cc1 (3D coordinates assigned)
c1ccc(CC/[NH+]=c2\nc(NCCN3CCCC3)[nH]c(N3CCc4ccccc4C3)n2)cc1 (nonaromatic ring conformer: 73.12508540169439 kcal/mol)

>  <smiles>  (72) 
c1ccc(CCNc2nc(NCCN3CCCC3)nc(N3CCc4ccccc4C3)n2)cc1

>  <score_type>  (72) 
oracle

>  <origin>  (72) 
autodockgpu

>  <m_score__min__energy>  (72) 
-9.9900000000000002

>  <m_primary>  (72) 
energy

>  <meeko>  (72) 
{"free_energy": -8.58, "intermolecular_energy": -11.26, "internal_energy": -1.79, "cluster_size": 4, "cluster_id": 2, "rank_in_cluster": 3}

>  <energy>  (72) 
-8.07

>  <cluster_rmsd>  (72) 
1.6

>  <rmsd>  (72) 
271.12

>  <cluster>  (72) 
1

$$$$
FPFWJFTVWFQHMH-FSECZMGHNA-O
     RDKit          3D

 67 71  0  0  0  0  0  0  0  0999 V2000
  141.3918   71.8002  229.4153 H   0  0  0  0  0  0  0  0  0  0  0  0
  141.0940   71.4960  228.4010 C   0  0  0  0  0  0  0  0  0  0  0  0
  140.3660   70.3170  228.2110 C   0  0  0  0  0  0  0  0  0  0  0  0
  140.0889   69.6967  229.0762 H   0  0  0  0  0  0  0  0  0  0  0  0
  139.9900   69.9260  226.9220 C   0  0  0  0  0  0  0  0  0  0  0  0
  139.4142   69.0000  226.7774 H   0  0  0  0  0  0  0  0  0  0  0  0
  140.3440   70.7100  225.8100 C   0  0  0  0  0  0  0  0  0  0  0  0
  139.9400   70.2840  224.4200 C   0  0  0  0  0  0  0  0  0  0  0  0
  140.8035   70.3931  223.7473 H   0  0  0  0  0  0  0  0  0  0  0  0
  139.6074   69.2363  224.4624 H   0  0  0  0  0  0  0  0  0  0  0  0
  138.7820   71.1360  223.8870 C   0  0  0  0  0  0  0  0  0  0  0  0
  137.8347   70.6001  224.0466 H   0  0  0  0  0  0  0  0  0  0  0  0
  138.7693   72.0958  224.4242 H   0  0  0  0  0  0  0  0  0  0  0  0
  138.9540   71.3960  222.4550 N   0  0  0  0  0  0  0  0  0  0  0  0
  138.4380   70.7750  221.7890 H   0  0  0  0  0  0  0  0  0  0  0  0
  139.7170   72.3390  221.9760 C   0  0  0  0  0  0  0  0  0  0  0  0
  139.2940   73.6300  222.0130 N   0  0  0  0  0  0  0  0  0  0  0  0
  140.0660   74.6250  221.5060 C   0  0  0  0  0  0  0  0  0  0  0  0
  139.5900   75.9830  221.5430 N   0  0  0  0  0  0  0  0  0  0  0  0
  139.7860   76.8310  222.7230 C   0  0  0  0  0  0  0  0  0  0  0  0
  140.2132   76.2267  223.5368 H   0  0  0  0  0  0  0  0  0  0  0  0
  138.8144   77.2454  223.0301 H   0  0  0  0  0  0  0  0  0  0  0  0
  140.7240   77.9680  222.4030 C   0  0  0  0  0  0  0  0  0  0  0  0
  141.2800   78.7140  223.4550 C   0  0  0  0  0  0  0  0  0  0  0  0
  141.0653   78.4336  224.4968 H   0  0  0  0  0  0  0  0  0  0  0  0
  142.1040   79.8100  223.1870 C   0  0  0  0  0  0  0  0  0  0  0  0
  142.5401   80.3849  224.0172 H   0  0  0  0  0  0  0  0  0  0  0  0
  142.3750   80.1770  221.8670 C   0  0  0  0  0  0  0  0  0  0  0  0
  143.0317   81.0345  221.6587 H   0  0  0  0  0  0  0  0  0  0  0  0
  141.8120   79.4550  220.8100 C   0  0  0  0  0  0  0  0  0  0  0  0
  142.0258   79.7502  219.7721 H   0  0  0  0  0  0  0  0  0  0  0  0
  140.9750   78.3550  221.0640 C   0  0  0  0  0  0  0  0  0  0  0  0
  140.4480   77.5490  219.8960 C   0  0  0  0  0  0  0  0  0  0  0  0
  141.2556   76.9066  219.5150 H   0  0  0  0  0  0  0  0  0  0  0  0
  140.1025   78.2543  219.1258 H   0  0  0  0  0  0  0  0  0  0  0  0
  139.2630   76.6680  220.2940 C   0  0  0  0  0  0  0  0  0  0  0  0
  139.0705   75.9269  219.5043 H   0  0  0  0  0  0  0  0  0  0  0  0
  138.3635   77.2866  220.4290 H   0  0  0  0  0  0  0  0  0  0  0  0
  141.2650   74.3230  220.9340 N   0  0  0  0  0  0  0  0  0  0  0  0
  141.8510   75.0760  220.5070 H   0  0  0  0  0  0  0  0  0  0  0  0
  141.7020   73.0350  220.9000 C   0  0  0  0  0  0  0  0  0  0  0  0
  142.9610   72.7210  220.2830 N   0  0  0  0  0  0  0  0  0  0  0  0
  142.9590   72.2910  219.3310 H   0  0  0  0  0  0  0  0  0  0  0  0
  144.2460   73.1560  220.8310 C   0  0  0  0  0  0  0  0  0  0  0  0
  144.1702   73.2243  221.9263 H   0  0  0  0  0  0  0  0  0  0  0  0
  145.0212   72.4262  220.5546 H   0  0  0  0  0  0  0  0  0  0  0  0
  144.6230   74.5290  220.2620 C   0  0  0  0  0  0  0  0  0  0  0  0
  144.8026   75.2258  221.0940 H   0  0  0  0  0  0  0  0  0  0  0  0
  145.5298   74.4167  219.6496 H   0  0  0  0  0  0  0  0  0  0  0  0
  143.5430   75.0650  219.4080 N   0  0  0  0  0  0  0  0  0  0  0  0
  143.7290   74.7130  217.9890 C   0  0  0  0  0  0  0  0  0  0  0  0
  144.7327   74.2883  217.8395 H   0  0  0  0  0  0  0  0  0  0  0  0
  142.9813   73.9668  217.6823 H   0  0  0  0  0  0  0  0  0  0  0  0
  143.5770   75.9810  217.1580 C   0  0  0  0  0  0  0  0  0  0  0  0
  144.5533   76.3076  216.7705 H   0  0  0  0  0  0  0  0  0  0  0  0
  142.9255   75.8251  216.2855 H   0  0  0  0  0  0  0  0  0  0  0  0
  143.0130   77.0100  218.1060 C   0  0  0  0  0  0  0  0  0  0  0  0
  143.4254   78.0069  217.8914 H   0  0  0  0  0  0  0  0  0  0  0  0
  141.9206   77.1085  218.0228 H   0  0  0  0  0  0  0  0  0  0  0  0
  143.4520   76.5290  219.4720 C   0  0  0  0  0  0  0  0  0  0  0  0
  144.4333   76.9569  219.7249 H   0  0  0  0  0  0  0  0  0  0  0  0
  142.7352   76.8423  220.2453 H   0  0  0  0  0  0  0  0  0  0  0  0
  140.9260   72.0510  221.4240 N   0  0  0  0  0  0  0  0  0  0  0  0
  141.0840   71.8920  226.0100 C   0  0  0  0  0  0  0  0  0  0  0  0
  141.3801   72.5055  225.1463 H   0  0  0  0  0  0  0  0  0  0  0  0
  141.4440   72.2890  227.3030 C   0  0  0  0  0  0  0  0  0  0  0  0
  142.0021   73.2245  227.4558 H   0  0  0  0  0  0  0  0  0  0  0  0
  1  2  1  0
  2  3  2  0
  3  4  1  0
  3  5  1  0
  5  6  1  0
  5  7  2  0
  7  8  1  0
  8  9  1  0
  8 10  1  0
  8 11  1  0
 11 12  1  0
 11 13  1  0
 11 14  1  0
 14 15  1  0
 14 16  2  0
 16 17  1  0
 17 18  2  0
 18 19  1  0
 19 20  1  0
 20 21  1  0
 20 22  1  0
 20 23  1  0
 23 24  2  0
 24 25  1  0
 24 26  1  0
 26 27  1  0
 26 28  2  0
 28 29  1  0
 28 30  1  0
 30 31  1  0
 30 32  2  0
 32 33  1  0
 33 34  1  0
 33 35  1  0
 33 36  1  0
 36 37  1  0
 36 38  1  0
 18 39  1  0
 39 40  1  0
 39 41  1  0
 41 42  1  0
 42 43  1  0
 42 44  1  0
 44 45  1  0
 44 46  1  0
 44 47  1  0
 47 48  1  0
 47 49  1  0
 47 50  1  0
 50 51  1  0
 51 52  1  0
 51 53  1  0
 51 54  1  0
 54 55  1  0
 54 56  1  0
 54 57  1  0
 57 58  1  0
 57 59  1  0
 57 60  1  0
 60 61  1  0
 60 62  1  0
 41 63  2  0
  7 64  1  0
 64 65  1  0
 64 66  2  0
 66 67  1  0
 66  2  1  0
 63 16  1  0
 36 19  1  0
 60 50  1  0
 32 23  1  0
M  CHG  1  14   1
M  END
>  <UniqueID>  (73) 
671

>  <SMILES>  (73) 
c1ccc(CC/[NH+]=c2\nc(NCCN3CCCC3)[nH]c(N3CCc4ccccc4C3)n2)cc1

>  <Energy>  (73) 
73.12508540169439

>  <Genealogy>  (73) 
c1ccc(CC[NH2+]c2nc(NCCN3CCCC3)nc(N3CCc4ccccc4C3)n2)cc1 (protonated)
c1ccc(CC[NH+]=c2nc(NCCN3CCCC3)[nH]c(N3CCc4ccccc4C3)n2)cc1 (tautomer)
c1ccc(CC/[NH+]=c2\nc(NCCN3CCCC3)[nH]c(N3CCc4ccccc4C3)n2)cc1 (cis-trans isomerization)
c1ccc(CC/[NH+]=c2\nc(NCCN3CCCC3)[nH]c(N3CCc4ccccc4C3)n2)cc1 (3D coordinates assigned)
c1ccc(CC/[NH+]=c2\nc(NCCN3CCCC3)[nH]c(N3CCc4ccccc4C3)n2)cc1 (nonaromatic ring conformer: 73.12508540169439 kcal/mol)

>  <smiles>  (73) 
c1ccc(CCNc2nc(NCCN3CCCC3)nc(N3CCc4ccccc4C3)n2)cc1

>  <score_type>  (73) 
oracle

>  <origin>  (73) 
autodockgpu

>  <m_score__min__energy>  (73) 
-9.9900000000000002

>  <m_primary>  (73) 
energy

>  <meeko>  (73) 
{"free_energy": -8.18, "intermolecular_energy": -10.86, "internal_energy": -2.39, "cluster_size": 12, "cluster_id": 1, "rank_in_cluster": 10}

>  <energy>  (73) 
-8.97

>  <cluster_rmsd>  (73) 
0.0

>  <rmsd>  (73) 
271.29

>  <cluster>  (73) 
2

$$$$
FPFWJFTVWFQHMH-FSECZMGHNA-O
     RDKit          3D

 67 71  0  0  0  0  0  0  0  0999 V2000
  141.2093   70.2184  229.3169 H   0  0  0  0  0  0  0  0  0  0  0  0
  140.8710   70.4050  228.2870 C   0  0  0  0  0  0  0  0  0  0  0  0
  141.1120   71.6450  227.6860 C   0  0  0  0  0  0  0  0  0  0  0  0
  141.6420   72.4313  228.2435 H   0  0  0  0  0  0  0  0  0  0  0  0
  140.6810   71.8870  226.3790 C   0  0  0  0  0  0  0  0  0  0  0  0
  140.8780   72.8619  225.9092 H   0  0  0  0  0  0  0  0  0  0  0  0
  139.9960   70.8890  225.6610 C   0  0  0  0  0  0  0  0  0  0  0  0
  139.5280   71.1540  224.2510 C   0  0  0  0  0  0  0  0  0  0  0  0
  138.9426   70.2912  223.9004 H   0  0  0  0  0  0  0  0  0  0  0  0
  138.9142   72.0668  224.2564 H   0  0  0  0  0  0  0  0  0  0  0  0
  140.7100   71.3740  223.3000 C   0  0  0  0  0  0  0  0  0  0  0  0
  141.4739   71.9823  223.8064 H   0  0  0  0  0  0  0  0  0  0  0  0
  141.1288   70.3961  223.0203 H   0  0  0  0  0  0  0  0  0  0  0  0
  140.2690   72.0660  222.0860 N   0  0  0  0  0  0  0  0  0  0  0  0
  140.3440   71.5450  221.1820 H   0  0  0  0  0  0  0  0  0  0  0  0
  139.8070   73.2870  222.0750 C   0  0  0  0  0  0  0  0  0  0  0  0
  138.4670   73.4990  222.1520 N   0  0  0  0  0  0  0  0  0  0  0  0
  137.9640   74.7600  222.1270 C   0  0  0  0  0  0  0  0  0  0  0  0
  136.5410   74.9600  222.1940 N   0  0  0  0  0  0  0  0  0  0  0  0
  135.6520   73.9430  222.7640 C   0  0  0  0  0  0  0  0  0  0  0  0
  136.2335   73.0356  222.9841 H   0  0  0  0  0  0  0  0  0  0  0  0
  134.8576   73.7160  222.0378 H   0  0  0  0  0  0  0  0  0  0  0  0
  135.0210   74.4500  224.0370 C   0  0  0  0  0  0  0  0  0  0  0  0
  134.3810   73.5400  224.8940 C   0  0  0  0  0  0  0  0  0  0  0  0
  134.3876   72.4665  224.6542 H   0  0  0  0  0  0  0  0  0  0  0  0
  133.7360   73.9890  226.0490 C   0  0  0  0  0  0  0  0  0  0  0  0
  133.2432   73.2684  226.7183 H   0  0  0  0  0  0  0  0  0  0  0  0
  133.7160   75.3510  226.3550 C   0  0  0  0  0  0  0  0  0  0  0  0
  133.2148   75.7010  227.2695 H   0  0  0  0  0  0  0  0  0  0  0  0
  134.3320   76.2710  225.5010 C   0  0  0  0  0  0  0  0  0  0  0  0
  134.3110   77.3431  225.7463 H   0  0  0  0  0  0  0  0  0  0  0  0
  134.9780   75.8350  224.3310 C   0  0  0  0  0  0  0  0  0  0  0  0
  135.7020   76.8490  223.4710 C   0  0  0  0  0  0  0  0  0  0  0  0
  136.6541   77.1103  223.9560 H   0  0  0  0  0  0  0  0  0  0  0  0
  135.0523   77.7305  223.3667 H   0  0  0  0  0  0  0  0  0  0  0  0
  135.9940   76.3100  222.0690 C   0  0  0  0  0  0  0  0  0  0  0  0
  136.7244   76.9609  221.5662 H   0  0  0  0  0  0  0  0  0  0  0  0
  135.0689   76.2875  221.4743 H   0  0  0  0  0  0  0  0  0  0  0  0
  138.8100   75.8200  221.9990 N   0  0  0  0  0  0  0  0  0  0  0  0
  138.4330   76.7930  221.9400 H   0  0  0  0  0  0  0  0  0  0  0  0
  140.1550   75.6200  221.9300 C   0  0  0  0  0  0  0  0  0  0  0  0
  141.0410   76.7410  221.7820 N   0  0  0  0  0  0  0  0  0  0  0  0
  141.7910   76.8830  222.4950 H   0  0  0  0  0  0  0  0  0  0  0  0
  141.0760   77.5750  220.5810 C   0  0  0  0  0  0  0  0  0  0  0  0
  141.6229   77.0462  219.7865 H   0  0  0  0  0  0  0  0  0  0  0  0
  140.0458   77.7790  220.2539 H   0  0  0  0  0  0  0  0  0  0  0  0
  141.7790   78.9030  220.8830 C   0  0  0  0  0  0  0  0  0  0  0  0
  142.7820   78.8894  220.4316 H   0  0  0  0  0  0  0  0  0  0  0  0
  141.1766   79.7212  220.4615 H   0  0  0  0  0  0  0  0  0  0  0  0
  141.9080   79.1170  222.3390 N   0  0  0  0  0  0  0  0  0  0  0  0
  140.6820   79.6830  222.9290 C   0  0  0  0  0  0  0  0  0  0  0  0
  139.9981   80.0041  222.1295 H   0  0  0  0  0  0  0  0  0  0  0  0
  140.1731   78.9270  223.5450 H   0  0  0  0  0  0  0  0  0  0  0  0
  141.0740   80.8820  223.7850 C   0  0  0  0  0  0  0  0  0  0  0  0
  140.7713   81.8200  223.2966 H   0  0  0  0  0  0  0  0  0  0  0  0
  140.5819   80.8631  224.7686 H   0  0  0  0  0  0  0  0  0  0  0  0
  142.5760   80.8090  223.9050 C   0  0  0  0  0  0  0  0  0  0  0  0
  143.0178   81.8164  223.9060 H   0  0  0  0  0  0  0  0  0  0  0  0
  142.9039   80.3330  224.8409 H   0  0  0  0  0  0  0  0  0  0  0  0
  143.0030   80.0350  222.6760 C   0  0  0  0  0  0  0  0  0  0  0  0
  143.1861   80.7262  221.8401 H   0  0  0  0  0  0  0  0  0  0  0  0
  143.9330   79.4798  222.8678 H   0  0  0  0  0  0  0  0  0  0  0  0
  140.6450   74.3530  221.9720 N   0  0  0  0  0  0  0  0  0  0  0  0
  139.7500   69.6470  226.2750 C   0  0  0  0  0  0  0  0  0  0  0  0
  139.2020   68.8651  225.7288 H   0  0  0  0  0  0  0  0  0  0  0  0
  140.2000   69.4020  227.5790 C   0  0  0  0  0  0  0  0  0  0  0  0
  140.0258   68.4214  228.0460 H   0  0  0  0  0  0  0  0  0  0  0  0
  1  2  1  0
  2  3  2  0
  3  4  1  0
  3  5  1  0
  5  6  1  0
  5  7  2  0
  7  8  1  0
  8  9  1  0
  8 10  1  0
  8 11  1  0
 11 12  1  0
 11 13  1  0
 11 14  1  0
 14 15  1  0
 14 16  2  0
 16 17  1  0
 17 18  2  0
 18 19  1  0
 19 20  1  0
 20 21  1  0
 20 22  1  0
 20 23  1  0
 23 24  2  0
 24 25  1  0
 24 26  1  0
 26 27  1  0
 26 28  2  0
 28 29  1  0
 28 30  1  0
 30 31  1  0
 30 32  2  0
 32 33  1  0
 33 34  1  0
 33 35  1  0
 33 36  1  0
 36 37  1  0
 36 38  1  0
 18 39  1  0
 39 40  1  0
 39 41  1  0
 41 42  1  0
 42 43  1  0
 42 44  1  0
 44 45  1  0
 44 46  1  0
 44 47  1  0
 47 48  1  0
 47 49  1  0
 47 50  1  0
 50 51  1  0
 51 52  1  0
 51 53  1  0
 51 54  1  0
 54 55  1  0
 54 56  1  0
 54 57  1  0
 57 58  1  0
 57 59  1  0
 57 60  1  0
 60 61  1  0
 60 62  1  0
 41 63  2  0
  7 64  1  0
 64 65  1  0
 64 66  2  0
 66 67  1  0
 66  2  1  0
 63 16  1  0
 36 19  1  0
 60 50  1  0
 32 23  1  0
M  CHG  1  14   1
M  END
>  <UniqueID>  (74) 
671

>  <SMILES>  (74) 
c1ccc(CC/[NH+]=c2\nc(NCCN3CCCC3)[nH]c(N3CCc4ccccc4C3)n2)cc1

>  <Energy>  (74) 
73.12508540169439

>  <Genealogy>  (74) 
c1ccc(CC[NH2+]c2nc(NCCN3CCCC3)nc(N3CCc4ccccc4C3)n2)cc1 (protonated)
c1ccc(CC[NH+]=c2nc(NCCN3CCCC3)[nH]c(N3CCc4ccccc4C3)n2)cc1 (tautomer)
c1ccc(CC/[NH+]=c2\nc(NCCN3CCCC3)[nH]c(N3CCc4ccccc4C3)n2)cc1 (cis-trans isomerization)
c1ccc(CC/[NH+]=c2\nc(NCCN3CCCC3)[nH]c(N3CCc4ccccc4C3)n2)cc1 (3D coordinates assigned)
c1ccc(CC/[NH+]=c2\nc(NCCN3CCCC3)[nH]c(N3CCc4ccccc4C3)n2)cc1 (nonaromatic ring conformer: 73.12508540169439 kcal/mol)

>  <smiles>  (74) 
c1ccc(CCNc2nc(NCCN3CCCC3)nc(N3CCc4ccccc4C3)n2)cc1

>  <score_type>  (74) 
oracle

>  <origin>  (74) 
autodockgpu

>  <m_score__min__energy>  (74) 
-9.9900000000000002

>  <m_primary>  (74) 
energy

>  <meeko>  (74) 
{"free_energy": -8.93, "intermolecular_energy": -11.62, "internal_energy": -1.5, "cluster_size": 1, "cluster_id": 3, "rank_in_cluster": 1}

>  <energy>  (74) 
-8.91

>  <cluster_rmsd>  (74) 
1.1

>  <rmsd>  (74) 
271.1

>  <cluster>  (74) 
2

$$$$
FPFWJFTVWFQHMH-FSECZMGHNA-O
     RDKit          3D

 67 71  0  0  0  0  0  0  0  0999 V2000
  141.6462   71.9293  229.1529 H   0  0  0  0  0  0  0  0  0  0  0  0
  141.1470   71.5500  228.2490 C   0  0  0  0  0  0  0  0  0  0  0  0
  141.3810   72.1610  227.0140 C   0  0  0  0  0  0  0  0  0  0  0  0
  142.0666   73.0186  226.9470 H   0  0  0  0  0  0  0  0  0  0  0  0
  140.7450   71.6840  225.8630 C   0  0  0  0  0  0  0  0  0  0  0  0
  140.9358   72.1655  224.8926 H   0  0  0  0  0  0  0  0  0  0  0  0
  139.8630   70.5920  225.9410 C   0  0  0  0  0  0  0  0  0  0  0  0
  139.1740   70.0820  224.6990 C   0  0  0  0  0  0  0  0  0  0  0  0
  139.2366   68.9839  224.6805 H   0  0  0  0  0  0  0  0  0  0  0  0
  138.1254   70.4133  224.7245 H   0  0  0  0  0  0  0  0  0  0  0  0
  139.8250   70.6400  223.4280 C   0  0  0  0  0  0  0  0  0  0  0  0
  140.9177   70.6481  223.5543 H   0  0  0  0  0  0  0  0  0  0  0  0
  139.5470   70.0023  222.5759 H   0  0  0  0  0  0  0  0  0  0  0  0
  139.3590   72.0050  223.1710 N   0  0  0  0  0  0  0  0  0  0  0  0
  138.4770   72.3080  223.6440 H   0  0  0  0  0  0  0  0  0  0  0  0
  139.9730   72.8430  222.3820 C   0  0  0  0  0  0  0  0  0  0  0  0
  139.5840   74.1450  222.3510 N   0  0  0  0  0  0  0  0  0  0  0  0
  140.1990   75.0310  221.5260 C   0  0  0  0  0  0  0  0  0  0  0  0
  139.7600   76.4010  221.5000 N   0  0  0  0  0  0  0  0  0  0  0  0
  139.7060   77.2100  222.7210 C   0  0  0  0  0  0  0  0  0  0  0  0
  139.9254   76.5709  223.5890 H   0  0  0  0  0  0  0  0  0  0  0  0
  138.7002   77.6452  222.8160 H   0  0  0  0  0  0  0  0  0  0  0  0
  140.7180   78.3270  222.6580 C   0  0  0  0  0  0  0  0  0  0  0  0
  141.0410   79.0270  223.8310 C   0  0  0  0  0  0  0  0  0  0  0  0
  140.5907   78.7253  224.7882 H   0  0  0  0  0  0  0  0  0  0  0  0
  141.9300   80.1040  223.7920 C   0  0  0  0  0  0  0  0  0  0  0  0
  142.1813   80.6429  224.7174 H   0  0  0  0  0  0  0  0  0  0  0  0
  142.5000   80.4970  222.5790 C   0  0  0  0  0  0  0  0  0  0  0  0
  143.2078   81.3386  222.5516 H   0  0  0  0  0  0  0  0  0  0  0  0
  142.1720   79.8220  221.4000 C   0  0  0  0  0  0  0  0  0  0  0  0
  142.6207   80.1390  220.4470 H   0  0  0  0  0  0  0  0  0  0  0  0
  141.2740   78.7420  221.4220 C   0  0  0  0  0  0  0  0  0  0  0  0
  141.0040   77.9840  220.1400 C   0  0  0  0  0  0  0  0  0  0  0  0
  141.8609   77.3273  219.9289 H   0  0  0  0  0  0  0  0  0  0  0  0
  140.8577   78.7198  219.3356 H   0  0  0  0  0  0  0  0  0  0  0  0
  139.7380   77.1290  220.2330 C   0  0  0  0  0  0  0  0  0  0  0  0
  139.7101   76.4157  219.3961 H   0  0  0  0  0  0  0  0  0  0  0  0
  138.8461   77.7709  220.1835 H   0  0  0  0  0  0  0  0  0  0  0  0
  141.1990   74.6050  220.7050 N   0  0  0  0  0  0  0  0  0  0  0  0
  141.6540   75.2690  220.0380 H   0  0  0  0  0  0  0  0  0  0  0  0
  141.6020   73.3060  220.7340 C   0  0  0  0  0  0  0  0  0  0  0  0
  142.6470   72.8600  219.8560 N   0  0  0  0  0  0  0  0  0  0  0  0
  142.3870   72.4960  218.9110 H   0  0  0  0  0  0  0  0  0  0  0  0
  144.0670   73.0740  220.1350 C   0  0  0  0  0  0  0  0  0  0  0  0
  144.2605   72.8882  221.2018 H   0  0  0  0  0  0  0  0  0  0  0  0
  144.6634   72.3828  219.5213 H   0  0  0  0  0  0  0  0  0  0  0  0
  144.4580   74.5160  219.7920 C   0  0  0  0  0  0  0  0  0  0  0  0
  144.5333   75.0987  220.7220 H   0  0  0  0  0  0  0  0  0  0  0  0
  145.4241   74.5004  219.2662 H   0  0  0  0  0  0  0  0  0  0  0  0
  143.4530   75.1440  218.9090 N   0  0  0  0  0  0  0  0  0  0  0  0
  143.7090   74.8630  217.4860 C   0  0  0  0  0  0  0  0  0  0  0  0
  144.7019   74.4039  217.3703 H   0  0  0  0  0  0  0  0  0  0  0  0
  142.9514   74.1681  217.0946 H   0  0  0  0  0  0  0  0  0  0  0  0
  143.6580   76.1810  216.7210 C   0  0  0  0  0  0  0  0  0  0  0  0
  144.6681   76.4862  216.4103 H   0  0  0  0  0  0  0  0  0  0  0  0
  143.0551   76.1018  215.8043 H   0  0  0  0  0  0  0  0  0  0  0  0
  143.0790   77.1790  217.6930 C   0  0  0  0  0  0  0  0  0  0  0  0
  143.5419   78.1680  217.5601 H   0  0  0  0  0  0  0  0  0  0  0  0
  141.9981   77.3280  217.5533 H   0  0  0  0  0  0  0  0  0  0  0  0
  143.4170   76.6050  219.0520 C   0  0  0  0  0  0  0  0  0  0  0  0
  144.3980   76.9755  219.3843 H   0  0  0  0  0  0  0  0  0  0  0  0
  142.6690   76.9060  219.8003 H   0  0  0  0  0  0  0  0  0  0  0  0
  140.9880   72.4330  221.5750 N   0  0  0  0  0  0  0  0  0  0  0  0
  139.6260   69.9870  227.1900 C   0  0  0  0  0  0  0  0  0  0  0  0
  138.9256   69.1422  227.2656 H   0  0  0  0  0  0  0  0  0  0  0  0
  140.2790   70.4570  228.3370 C   0  0  0  0  0  0  0  0  0  0  0  0
  140.1090   69.9663  229.3067 H   0  0  0  0  0  0  0  0  0  0  0  0
  1  2  1  0
  2  3  2  0
  3  4  1  0
  3  5  1  0
  5  6  1  0
  5  7  2  0
  7  8  1  0
  8  9  1  0
  8 10  1  0
  8 11  1  0
 11 12  1  0
 11 13  1  0
 11 14  1  0
 14 15  1  0
 14 16  2  0
 16 17  1  0
 17 18  2  0
 18 19  1  0
 19 20  1  0
 20 21  1  0
 20 22  1  0
 20 23  1  0
 23 24  2  0
 24 25  1  0
 24 26  1  0
 26 27  1  0
 26 28  2  0
 28 29  1  0
 28 30  1  0
 30 31  1  0
 30 32  2  0
 32 33  1  0
 33 34  1  0
 33 35  1  0
 33 36  1  0
 36 37  1  0
 36 38  1  0
 18 39  1  0
 39 40  1  0
 39 41  1  0
 41 42  1  0
 42 43  1  0
 42 44  1  0
 44 45  1  0
 44 46  1  0
 44 47  1  0
 47 48  1  0
 47 49  1  0
 47 50  1  0
 50 51  1  0
 51 52  1  0
 51 53  1  0
 51 54  1  0
 54 55  1  0
 54 56  1  0
 54 57  1  0
 57 58  1  0
 57 59  1  0
 57 60  1  0
 60 61  1  0
 60 62  1  0
 41 63  2  0
  7 64  1  0
 64 65  1  0
 64 66  2  0
 66 67  1  0
 66  2  1  0
 63 16  1  0
 36 19  1  0
 60 50  1  0
 32 23  1  0
M  CHG  1  14   1
M  END
>  <UniqueID>  (75) 
671

>  <SMILES>  (75) 
c1ccc(CC/[NH+]=c2\nc(NCCN3CCCC3)[nH]c(N3CCc4ccccc4C3)n2)cc1

>  <Energy>  (75) 
73.12508540169439

>  <Genealogy>  (75) 
c1ccc(CC[NH2+]c2nc(NCCN3CCCC3)nc(N3CCc4ccccc4C3)n2)cc1 (protonated)
c1ccc(CC[NH+]=c2nc(NCCN3CCCC3)[nH]c(N3CCc4ccccc4C3)n2)cc1 (tautomer)
c1ccc(CC/[NH+]=c2\nc(NCCN3CCCC3)[nH]c(N3CCc4ccccc4C3)n2)cc1 (cis-trans isomerization)
c1ccc(CC/[NH+]=c2\nc(NCCN3CCCC3)[nH]c(N3CCc4ccccc4C3)n2)cc1 (3D coordinates assigned)
c1ccc(CC/[NH+]=c2\nc(NCCN3CCCC3)[nH]c(N3CCc4ccccc4C3)n2)cc1 (nonaromatic ring conformer: 73.12508540169439 kcal/mol)

>  <smiles>  (75) 
c1ccc(CCNc2nc(NCCN3CCCC3)nc(N3CCc4ccccc4C3)n2)cc1

>  <score_type>  (75) 
oracle

>  <origin>  (75) 
autodockgpu

>  <m_score__min__energy>  (75) 
-9.9900000000000002

>  <m_primary>  (75) 
energy

>  <meeko>  (75) 
{"free_energy": -9.0, "intermolecular_energy": -11.68, "internal_energy": -2.08, "cluster_size": 12, "cluster_id": 1, "rank_in_cluster": 5}

>  <energy>  (75) 
-8.58

>  <cluster_rmsd>  (75) 
1.17

>  <rmsd>  (75) 
271.13

>  <cluster>  (75) 
2

$$$$
FPFWJFTVWFQHMH-FSECZMGHNA-O
     RDKit          3D

 67 71  0  0  0  0  0  0  0  0999 V2000
  140.7300   73.3591  227.5259 H   0  0  0  0  0  0  0  0  0  0  0  0
  140.7150   72.2610  227.4630 C   0  0  0  0  0  0  0  0  0  0  0  0
  141.4410   71.6090  226.4610 C   0  0  0  0  0  0  0  0  0  0  0  0
  142.0285   72.1949  225.7388 H   0  0  0  0  0  0  0  0  0  0  0  0
  141.4210   70.2140  226.3760 C   0  0  0  0  0  0  0  0  0  0  0  0
  141.9974   69.7050  225.5894 H   0  0  0  0  0  0  0  0  0  0  0  0
  140.6670   69.4580  227.2920 C   0  0  0  0  0  0  0  0  0  0  0  0
  140.6440   67.9520  227.1960 C   0  0  0  0  0  0  0  0  0  0  0  0
  141.5360   67.6147  226.6478 H   0  0  0  0  0  0  0  0  0  0  0  0
  140.6337   67.5402  228.2160 H   0  0  0  0  0  0  0  0  0  0  0  0
  139.3910   67.4570  226.4630 C   0  0  0  0  0  0  0  0  0  0  0  0
  139.3617   66.3579  226.4972 H   0  0  0  0  0  0  0  0  0  0  0  0
  138.5011   67.8748  226.9564 H   0  0  0  0  0  0  0  0  0  0  0  0
  139.4090   67.8960  225.0650 N   0  0  0  0  0  0  0  0  0  0  0  0
  139.9060   67.2850  224.3760 H   0  0  0  0  0  0  0  0  0  0  0  0
  138.8540   69.0000  224.6450 C   0  0  0  0  0  0  0  0  0  0  0  0
  137.5010   69.1180  224.6540 N   0  0  0  0  0  0  0  0  0  0  0  0
  136.9030   70.2530  224.2080 C   0  0  0  0  0  0  0  0  0  0  0  0
  135.4670   70.3490  224.2130 N   0  0  0  0  0  0  0  0  0  0  0  0
  134.6900   70.1270  225.4350 C   0  0  0  0  0  0  0  0  0  0  0  0
  135.3618   69.7782  226.2331 H   0  0  0  0  0  0  0  0  0  0  0  0
  133.9171   69.3707  225.2335 H   0  0  0  0  0  0  0  0  0  0  0  0
  134.0200   71.4060  225.8730 C   0  0  0  0  0  0  0  0  0  0  0  0
  133.4820   71.4910  227.1670 C   0  0  0  0  0  0  0  0  0  0  0  0
  133.5946   70.6458  227.8619 H   0  0  0  0  0  0  0  0  0  0  0  0
  132.8050   72.6410  227.5780 C   0  0  0  0  0  0  0  0  0  0  0  0
  132.3923   72.7010  228.5959 H   0  0  0  0  0  0  0  0  0  0  0  0
  132.6510   73.7150  226.6990 C   0  0  0  0  0  0  0  0  0  0  0  0
  132.1260   74.6237  227.0287 H   0  0  0  0  0  0  0  0  0  0  0  0
  133.1630   73.6370  225.4010 C   0  0  0  0  0  0  0  0  0  0  0  0
  133.0343   74.4844  224.7116 H   0  0  0  0  0  0  0  0  0  0  0  0
  133.8410   72.4840  224.9700 C   0  0  0  0  0  0  0  0  0  0  0  0
  134.4520   72.4660  223.5860 C   0  0  0  0  0  0  0  0  0  0  0  0
  135.3766   73.0617  223.5986 H   0  0  0  0  0  0  0  0  0  0  0  0
  133.7160   72.8867  222.8851 H   0  0  0  0  0  0  0  0  0  0  0  0
  134.7860   71.0460  223.1230 C   0  0  0  0  0  0  0  0  0  0  0  0
  135.4433   71.0883  222.2420 H   0  0  0  0  0  0  0  0  0  0  0  0
  133.8632   70.5115  222.8531 H   0  0  0  0  0  0  0  0  0  0  0  0
  137.6670   71.2710  223.7240 N   0  0  0  0  0  0  0  0  0  0  0  0
  137.2170   72.1340  223.3430 H   0  0  0  0  0  0  0  0  0  0  0  0
  139.0240   71.1670  223.7190 C   0  0  0  0  0  0  0  0  0  0  0  0
  139.8240   72.2390  223.1960 N   0  0  0  0  0  0  0  0  0  0  0  0
  139.9540   73.0970  223.7780 H   0  0  0  0  0  0  0  0  0  0  0  0
  140.6280   72.1130  221.9800 C   0  0  0  0  0  0  0  0  0  0  0  0
  141.6178   71.7085  222.2384 H   0  0  0  0  0  0  0  0  0  0  0  0
  140.1182   71.4351  221.2796 H   0  0  0  0  0  0  0  0  0  0  0  0
  140.7980   73.4850  221.3170 C   0  0  0  0  0  0  0  0  0  0  0  0
  141.8693   73.6762  221.1562 H   0  0  0  0  0  0  0  0  0  0  0  0
  140.2585   73.4794  220.3584 H   0  0  0  0  0  0  0  0  0  0  0  0
  140.2380   74.5580  222.1650 N   0  0  0  0  0  0  0  0  0  0  0  0
  138.8020   74.7710  221.9160 C   0  0  0  0  0  0  0  0  0  0  0  0
  138.4941   74.2170  221.0170 H   0  0  0  0  0  0  0  0  0  0  0  0
  138.2113   74.4111  222.7713 H   0  0  0  0  0  0  0  0  0  0  0  0
  138.5690   76.2640  221.7070 C   0  0  0  0  0  0  0  0  0  0  0  0
  138.3563   76.4770  220.6490 H   0  0  0  0  0  0  0  0  0  0  0  0
  137.7068   76.6307  222.2834 H   0  0  0  0  0  0  0  0  0  0  0  0
  139.8550   76.9270  222.1320 C   0  0  0  0  0  0  0  0  0  0  0  0
  140.0742   77.7980  221.4969 H   0  0  0  0  0  0  0  0  0  0  0  0
  139.8150   77.3054  223.1641 H   0  0  0  0  0  0  0  0  0  0  0  0
  140.9020   75.8490  221.9470 C   0  0  0  0  0  0  0  0  0  0  0  0
  141.3134   75.8940  220.9278 H   0  0  0  0  0  0  0  0  0  0  0  0
  141.7328   75.9856  222.6549 H   0  0  0  0  0  0  0  0  0  0  0  0
  139.6090   70.0320  224.1830 N   0  0  0  0  0  0  0  0  0  0  0  0
  139.9330   70.1220  228.2930 C   0  0  0  0  0  0  0  0  0  0  0  0
  139.3283   69.5416  229.0054 H   0  0  0  0  0  0  0  0  0  0  0  0
  139.9700   71.5190  228.3850 C   0  0  0  0  0  0  0  0  0  0  0  0
  139.4130   72.0326  229.1825 H   0  0  0  0  0  0  0  0  0  0  0  0
  1  2  1  0
  2  3  2  0
  3  4  1  0
  3  5  1  0
  5  6  1  0
  5  7  2  0
  7  8  1  0
  8  9  1  0
  8 10  1  0
  8 11  1  0
 11 12  1  0
 11 13  1  0
 11 14  1  0
 14 15  1  0
 14 16  2  0
 16 17  1  0
 17 18  2  0
 18 19  1  0
 19 20  1  0
 20 21  1  0
 20 22  1  0
 20 23  1  0
 23 24  2  0
 24 25  1  0
 24 26  1  0
 26 27  1  0
 26 28  2  0
 28 29  1  0
 28 30  1  0
 30 31  1  0
 30 32  2  0
 32 33  1  0
 33 34  1  0
 33 35  1  0
 33 36  1  0
 36 37  1  0
 36 38  1  0
 18 39  1  0
 39 40  1  0
 39 41  1  0
 41 42  1  0
 42 43  1  0
 42 44  1  0
 44 45  1  0
 44 46  1  0
 44 47  1  0
 47 48  1  0
 47 49  1  0
 47 50  1  0
 50 51  1  0
 51 52  1  0
 51 53  1  0
 51 54  1  0
 54 55  1  0
 54 56  1  0
 54 57  1  0
 57 58  1  0
 57 59  1  0
 57 60  1  0
 60 61  1  0
 60 62  1  0
 41 63  2  0
  7 64  1  0
 64 65  1  0
 64 66  2  0
 66 67  1  0
 66  2  1  0
 63 16  1  0
 36 19  1  0
 60 50  1  0
 32 23  1  0
M  CHG  1  14   1
M  END
>  <UniqueID>  (76) 
671

>  <SMILES>  (76) 
c1ccc(CC/[NH+]=c2\nc(NCCN3CCCC3)[nH]c(N3CCc4ccccc4C3)n2)cc1

>  <Energy>  (76) 
73.12508540169439

>  <Genealogy>  (76) 
c1ccc(CC[NH2+]c2nc(NCCN3CCCC3)nc(N3CCc4ccccc4C3)n2)cc1 (protonated)
c1ccc(CC[NH+]=c2nc(NCCN3CCCC3)[nH]c(N3CCc4ccccc4C3)n2)cc1 (tautomer)
c1ccc(CC/[NH+]=c2\nc(NCCN3CCCC3)[nH]c(N3CCc4ccccc4C3)n2)cc1 (cis-trans isomerization)
c1ccc(CC/[NH+]=c2\nc(NCCN3CCCC3)[nH]c(N3CCc4ccccc4C3)n2)cc1 (3D coordinates assigned)
c1ccc(CC/[NH+]=c2\nc(NCCN3CCCC3)[nH]c(N3CCc4ccccc4C3)n2)cc1 (nonaromatic ring conformer: 73.12508540169439 kcal/mol)

>  <smiles>  (76) 
c1ccc(CCNc2nc(NCCN3CCCC3)nc(N3CCc4ccccc4C3)n2)cc1

>  <score_type>  (76) 
oracle

>  <origin>  (76) 
autodockgpu

>  <m_score__min__energy>  (76) 
-9.9900000000000002

>  <m_primary>  (76) 
energy

>  <meeko>  (76) 
{"free_energy": -8.79, "intermolecular_energy": -11.47, "internal_energy": -2.06, "cluster_size": 2, "cluster_id": 4, "rank_in_cluster": 1}

>  <energy>  (76) 
-8.58

>  <cluster_rmsd>  (76) 
1.18

>  <rmsd>  (76) 
271.13

>  <cluster>  (76) 
2

$$$$
FPFWJFTVWFQHMH-FSECZMGHNA-O
     RDKit          3D

 67 71  0  0  0  0  0  0  0  0999 V2000
  140.6696   69.7027  229.3633 H   0  0  0  0  0  0  0  0  0  0  0  0
  140.6710   70.0770  228.3290 C   0  0  0  0  0  0  0  0  0  0  0  0
  140.3370   69.2200  227.2760 C   0  0  0  0  0  0  0  0  0  0  0  0
  140.0715   68.1728  227.4833 H   0  0  0  0  0  0  0  0  0  0  0  0
  140.3400   69.6920  225.9600 C   0  0  0  0  0  0  0  0  0  0  0  0
  140.0712   69.0154  225.1354 H   0  0  0  0  0  0  0  0  0  0  0  0
  140.6850   71.0280  225.6850 C   0  0  0  0  0  0  0  0  0  0  0  0
  140.6920   71.5340  224.2640 C   0  0  0  0  0  0  0  0  0  0  0  0
  141.0789   72.5636  224.2528 H   0  0  0  0  0  0  0  0  0  0  0  0
  141.3311   70.8700  223.6635 H   0  0  0  0  0  0  0  0  0  0  0  0
  139.2830   71.5240  223.6590 C   0  0  0  0  0  0  0  0  0  0  0  0
  138.9365   70.4842  223.5649 H   0  0  0  0  0  0  0  0  0  0  0  0
  138.6081   72.0897  224.3182 H   0  0  0  0  0  0  0  0  0  0  0  0
  139.2900   72.1520  222.3350 N   0  0  0  0  0  0  0  0  0  0  0  0
  138.5730   71.8260  221.6450 H   0  0  0  0  0  0  0  0  0  0  0  0
  140.1400   73.0730  221.9740 C   0  0  0  0  0  0  0  0  0  0  0  0
  139.7470   74.3730  221.9360 N   0  0  0  0  0  0  0  0  0  0  0  0
  140.6120   75.3460  221.5490 C   0  0  0  0  0  0  0  0  0  0  0  0
  140.1690   76.7140  221.5030 N   0  0  0  0  0  0  0  0  0  0  0  0
  139.9790   77.4990  222.7270 C   0  0  0  0  0  0  0  0  0  0  0  0
  140.1084   76.8440  223.6012 H   0  0  0  0  0  0  0  0  0  0  0  0
  138.9660   77.9276  222.7220 H   0  0  0  0  0  0  0  0  0  0  0  0
  140.9840   78.6210  222.7940 C   0  0  0  0  0  0  0  0  0  0  0  0
  141.1750   79.2990  224.0080 C   0  0  0  0  0  0  0  0  0  0  0  0
  140.6278   78.9760  224.9059 H   0  0  0  0  0  0  0  0  0  0  0  0
  142.0550   80.3810  224.0840 C   0  0  0  0  0  0  0  0  0  0  0  0
  142.2014   80.9032  225.0410 H   0  0  0  0  0  0  0  0  0  0  0  0
  142.7490   80.8010  222.9480 C   0  0  0  0  0  0  0  0  0  0  0  0
  143.4498   81.6463  223.0134 H   0  0  0  0  0  0  0  0  0  0  0  0
  142.5540   80.1480  221.7270 C   0  0  0  0  0  0  0  0  0  0  0  0
  143.0996   80.4861  220.8337 H   0  0  0  0  0  0  0  0  0  0  0  0
  141.6660   79.0630  221.6330 C   0  0  0  0  0  0  0  0  0  0  0  0
  141.5400   78.3300  220.3150 C   0  0  0  0  0  0  0  0  0  0  0  0
  142.4193   77.6822  220.1839 H   0  0  0  0  0  0  0  0  0  0  0  0
  141.4750   79.0814  219.5143 H   0  0  0  0  0  0  0  0  0  0  0  0
  140.2780   77.4670  220.2550 C   0  0  0  0  0  0  0  0  0  0  0  0
  140.3453   76.7704  219.4064 H   0  0  0  0  0  0  0  0  0  0  0  0
  139.3920   78.1052  220.1222 H   0  0  0  0  0  0  0  0  0  0  0  0
  141.8780   75.0120  221.1720 N   0  0  0  0  0  0  0  0  0  0  0  0
  142.5410   75.7470  220.8360 H   0  0  0  0  0  0  0  0  0  0  0  0
  142.2840   73.7140  221.2140 C   0  0  0  0  0  0  0  0  0  0  0  0
  143.6160   73.3660  220.8030 N   0  0  0  0  0  0  0  0  0  0  0  0
  143.9260   72.3720  220.8990 H   0  0  0  0  0  0  0  0  0  0  0  0
  144.4900   74.2840  220.0730 C   0  0  0  0  0  0  0  0  0  0  0  0
  144.5494   75.2391  220.6155 H   0  0  0  0  0  0  0  0  0  0  0  0
  145.4924   73.8385  219.9902 H   0  0  0  0  0  0  0  0  0  0  0  0
  143.9330   74.5330  218.6670 C   0  0  0  0  0  0  0  0  0  0  0  0
  144.7577   74.8261  218.0007 H   0  0  0  0  0  0  0  0  0  0  0  0
  143.4581   73.6070  218.3105 H   0  0  0  0  0  0  0  0  0  0  0  0
  142.9170   75.6070  218.6790 N   0  0  0  0  0  0  0  0  0  0  0  0
  141.6470   75.1790  218.0690 C   0  0  0  0  0  0  0  0  0  0  0  0
  141.7850   74.2131  217.5611 H   0  0  0  0  0  0  0  0  0  0  0  0
  140.8745   75.0626  218.8434 H   0  0  0  0  0  0  0  0  0  0  0  0
  141.2220   76.2380  217.0570 C   0  0  0  0  0  0  0  0  0  0  0  0
  141.3563   75.8666  216.0303 H   0  0  0  0  0  0  0  0  0  0  0  0
  140.1597   76.5039  217.1612 H   0  0  0  0  0  0  0  0  0  0  0  0
  142.1270   77.4170  217.3160 C   0  0  0  0  0  0  0  0  0  0  0  0
  142.3847   77.9260  216.3755 H   0  0  0  0  0  0  0  0  0  0  0  0
  141.6570   78.1788  217.9553 H   0  0  0  0  0  0  0  0  0  0  0  0
  143.3570   76.8030  217.9500 C   0  0  0  0  0  0  0  0  0  0  0  0
  144.0831   76.5246  217.1721 H   0  0  0  0  0  0  0  0  0  0  0  0
  143.8448   77.5176  218.6293 H   0  0  0  0  0  0  0  0  0  0  0  0
  141.4130   72.7520  221.6190 N   0  0  0  0  0  0  0  0  0  0  0  0
  141.0280   71.8820  226.7500 C   0  0  0  0  0  0  0  0  0  0  0  0
  141.3138   72.9244  226.5459 H   0  0  0  0  0  0  0  0  0  0  0  0
  141.0070   71.4100  228.0690 C   0  0  0  0  0  0  0  0  0  0  0  0
  141.2546   72.0872  228.8998 H   0  0  0  0  0  0  0  0  0  0  0  0
  1  2  1  0
  2  3  2  0
  3  4  1  0
  3  5  1  0
  5  6  1  0
  5  7  2  0
  7  8  1  0
  8  9  1  0
  8 10  1  0
  8 11  1  0
 11 12  1  0
 11 13  1  0
 11 14  1  0
 14 15  1  0
 14 16  2  0
 16 17  1  0
 17 18  2  0
 18 19  1  0
 19 20  1  0
 20 21  1  0
 20 22  1  0
 20 23  1  0
 23 24  2  0
 24 25  1  0
 24 26  1  0
 26 27  1  0
 26 28  2  0
 28 29  1  0
 28 30  1  0
 30 31  1  0
 30 32  2  0
 32 33  1  0
 33 34  1  0
 33 35  1  0
 33 36  1  0
 36 37  1  0
 36 38  1  0
 18 39  1  0
 39 40  1  0
 39 41  1  0
 41 42  1  0
 42 43  1  0
 42 44  1  0
 44 45  1  0
 44 46  1  0
 44 47  1  0
 47 48  1  0
 47 49  1  0
 47 50  1  0
 50 51  1  0
 51 52  1  0
 51 53  1  0
 51 54  1  0
 54 55  1  0
 54 56  1  0
 54 57  1  0
 57 58  1  0
 57 59  1  0
 57 60  1  0
 60 61  1  0
 60 62  1  0
 41 63  2  0
  7 64  1  0
 64 65  1  0
 64 66  2  0
 66 67  1  0
 66  2  1  0
 63 16  1  0
 36 19  1  0
 60 50  1  0
 32 23  1  0
M  CHG  1  14   1
M  END
>  <UniqueID>  (77) 
671

>  <SMILES>  (77) 
c1ccc(CC/[NH+]=c2\nc(NCCN3CCCC3)[nH]c(N3CCc4ccccc4C3)n2)cc1

>  <Energy>  (77) 
73.12508540169439

>  <Genealogy>  (77) 
c1ccc(CC[NH2+]c2nc(NCCN3CCCC3)nc(N3CCc4ccccc4C3)n2)cc1 (protonated)
c1ccc(CC[NH+]=c2nc(NCCN3CCCC3)[nH]c(N3CCc4ccccc4C3)n2)cc1 (tautomer)
c1ccc(CC/[NH+]=c2\nc(NCCN3CCCC3)[nH]c(N3CCc4ccccc4C3)n2)cc1 (cis-trans isomerization)
c1ccc(CC/[NH+]=c2\nc(NCCN3CCCC3)[nH]c(N3CCc4ccccc4C3)n2)cc1 (3D coordinates assigned)
c1ccc(CC/[NH+]=c2\nc(NCCN3CCCC3)[nH]c(N3CCc4ccccc4C3)n2)cc1 (nonaromatic ring conformer: 73.12508540169439 kcal/mol)

>  <smiles>  (77) 
c1ccc(CCNc2nc(NCCN3CCCC3)nc(N3CCc4ccccc4C3)n2)cc1

>  <score_type>  (77) 
oracle

>  <origin>  (77) 
autodockgpu

>  <m_score__min__energy>  (77) 
-9.9900000000000002

>  <m_primary>  (77) 
energy

>  <meeko>  (77) 
{"free_energy": -8.65, "intermolecular_energy": -11.33, "internal_energy": -2.13, "cluster_size": 12, "cluster_id": 1, "rank_in_cluster": 6}

>  <energy>  (77) 
-8.93

>  <cluster_rmsd>  (77) 
0.0

>  <rmsd>  (77) 
271.31

>  <cluster>  (77) 
3

$$$$
FPFWJFTVWFQHMH-FSECZMGHNA-O
     RDKit          3D

 67 71  0  0  0  0  0  0  0  0999 V2000
  141.3521   70.9294  229.4102 H   0  0  0  0  0  0  0  0  0  0  0  0
  141.1010   70.8900  228.3400 C   0  0  0  0  0  0  0  0  0  0  0  0
  140.4900   69.7500  227.8070 C   0  0  0  0  0  0  0  0  0  0  0  0
  140.2595   68.8948  228.4592 H   0  0  0  0  0  0  0  0  0  0  0  0
  140.1720   69.6960  226.4470 C   0  0  0  0  0  0  0  0  0  0  0  0
  139.6869   68.7994  226.0338 H   0  0  0  0  0  0  0  0  0  0  0  0
  140.4690   70.7820  225.6040 C   0  0  0  0  0  0  0  0  0  0  0  0
  140.1280   70.7190  224.1360 C   0  0  0  0  0  0  0  0  0  0  0  0
  140.9338   71.1984  223.5608 H   0  0  0  0  0  0  0  0  0  0  0  0
  140.0199   69.6620  223.8514 H   0  0  0  0  0  0  0  0  0  0  0  0
  138.8070   71.4360  223.8360 C   0  0  0  0  0  0  0  0  0  0  0  0
  137.9717   70.7390  223.9987 H   0  0  0  0  0  0  0  0  0  0  0  0
  138.7129   72.3035  224.5058 H   0  0  0  0  0  0  0  0  0  0  0  0
  138.7810   71.9040  222.4480 N   0  0  0  0  0  0  0  0  0  0  0  0
  138.0670   71.4800  221.8110 H   0  0  0  0  0  0  0  0  0  0  0  0
  139.6000   72.8000  221.9690 C   0  0  0  0  0  0  0  0  0  0  0  0
  139.2470   74.1120  221.9870 N   0  0  0  0  0  0  0  0  0  0  0  0
  140.0780   75.0590  221.4810 C   0  0  0  0  0  0  0  0  0  0  0  0
  139.6760   76.4400  221.4980 N   0  0  0  0  0  0  0  0  0  0  0  0
  139.7400   77.2410  222.7240 C   0  0  0  0  0  0  0  0  0  0  0  0
  140.0080   76.5894  223.5688 H   0  0  0  0  0  0  0  0  0  0  0  0
  138.7573   77.7033  222.8991 H   0  0  0  0  0  0  0  0  0  0  0  0
  140.7750   78.3300  222.5890 C   0  0  0  0  0  0  0  0  0  0  0  0
  141.2070   79.0120  223.7380 C   0  0  0  0  0  0  0  0  0  0  0  0
  140.8247   78.7150  224.7257 H   0  0  0  0  0  0  0  0  0  0  0  0
  142.1190   80.0650  223.6350 C   0  0  0  0  0  0  0  0  0  0  0  0
  142.4563   80.5900  224.5408 H   0  0  0  0  0  0  0  0  0  0  0  0
  142.6030   80.4520  222.3840 C   0  0  0  0  0  0  0  0  0  0  0  0
  143.3293   81.2744  222.3065 H   0  0  0  0  0  0  0  0  0  0  0  0
  142.1660   79.7960  221.2300 C   0  0  0  0  0  0  0  0  0  0  0  0
  142.5475   80.1087  220.2468 H   0  0  0  0  0  0  0  0  0  0  0  0
  141.2430   78.7400  221.3160 C   0  0  0  0  0  0  0  0  0  0  0  0
  140.8540   78.0000  220.0540 C   0  0  0  0  0  0  0  0  0  0  0  0
  141.6735   77.3221  219.7732 H   0  0  0  0  0  0  0  0  0  0  0  0
  140.6665   78.7459  219.2676 H   0  0  0  0  0  0  0  0  0  0  0  0
  139.5760   77.1790  220.2400 C   0  0  0  0  0  0  0  0  0  0  0  0
  139.4636   76.4735  219.4036 H   0  0  0  0  0  0  0  0  0  0  0  0
  138.7011   77.8453  220.2637 H   0  0  0  0  0  0  0  0  0  0  0  0
  141.2670   74.6860  220.9280 N   0  0  0  0  0  0  0  0  0  0  0  0
  141.8980   75.4020  220.5010 H   0  0  0  0  0  0  0  0  0  0  0  0
  141.6340   73.3760  220.9130 C   0  0  0  0  0  0  0  0  0  0  0  0
  142.8820   72.9880  220.3170 N   0  0  0  0  0  0  0  0  0  0  0  0
  142.8630   72.4390  219.4280 H   0  0  0  0  0  0  0  0  0  0  0  0
  144.1760   73.4920  220.7780 C   0  0  0  0  0  0  0  0  0  0  0  0
  144.1485   73.6204  221.8701 H   0  0  0  0  0  0  0  0  0  0  0  0
  144.9612   72.7713  220.5060 H   0  0  0  0  0  0  0  0  0  0  0  0
  144.4810   74.8410  220.1160 C   0  0  0  0  0  0  0  0  0  0  0  0
  144.5335   75.6184  220.8924 H   0  0  0  0  0  0  0  0  0  0  0  0
  145.4405   74.7600  219.5842 H   0  0  0  0  0  0  0  0  0  0  0  0
  143.4330   75.2040  219.1400 N   0  0  0  0  0  0  0  0  0  0  0  0
  143.6930   74.6370  217.8060 C   0  0  0  0  0  0  0  0  0  0  0  0
  144.7109   74.2216  217.7701 H   0  0  0  0  0  0  0  0  0  0  0  0
  142.9760   73.8312  217.5899 H   0  0  0  0  0  0  0  0  0  0  0  0
  143.5550   75.7540  216.7770 C   0  0  0  0  0  0  0  0  0  0  0  0
  144.5420   76.0430  216.3867 H   0  0  0  0  0  0  0  0  0  0  0  0
  142.9504   75.4438  215.9120 H   0  0  0  0  0  0  0  0  0  0  0  0
  142.9240   76.9030  217.5230 C   0  0  0  0  0  0  0  0  0  0  0  0
  143.3242   77.8650  217.1704 H   0  0  0  0  0  0  0  0  0  0  0  0
  141.8349   76.9552  217.3775 H   0  0  0  0  0  0  0  0  0  0  0  0
  143.3080   76.6570  218.9670 C   0  0  0  0  0  0  0  0  0  0  0  0
  144.2668   77.1474  219.1911 H   0  0  0  0  0  0  0  0  0  0  0  0
  142.5492   77.0683  219.6490 H   0  0  0  0  0  0  0  0  0  0  0  0
  140.7990   72.4410  221.4370 N   0  0  0  0  0  0  0  0  0  0  0  0
  141.0910   71.9220  226.1460 C   0  0  0  0  0  0  0  0  0  0  0  0
  141.3413   72.7715  225.4935 H   0  0  0  0  0  0  0  0  0  0  0  0
  141.3930   71.9800  227.5130 C   0  0  0  0  0  0  0  0  0  0  0  0
  141.8594   72.8821  227.9357 H   0  0  0  0  0  0  0  0  0  0  0  0
  1  2  1  0
  2  3  2  0
  3  4  1  0
  3  5  1  0
  5  6  1  0
  5  7  2  0
  7  8  1  0
  8  9  1  0
  8 10  1  0
  8 11  1  0
 11 12  1  0
 11 13  1  0
 11 14  1  0
 14 15  1  0
 14 16  2  0
 16 17  1  0
 17 18  2  0
 18 19  1  0
 19 20  1  0
 20 21  1  0
 20 22  1  0
 20 23  1  0
 23 24  2  0
 24 25  1  0
 24 26  1  0
 26 27  1  0
 26 28  2  0
 28 29  1  0
 28 30  1  0
 30 31  1  0
 30 32  2  0
 32 33  1  0
 33 34  1  0
 33 35  1  0
 33 36  1  0
 36 37  1  0
 36 38  1  0
 18 39  1  0
 39 40  1  0
 39 41  1  0
 41 42  1  0
 42 43  1  0
 42 44  1  0
 44 45  1  0
 44 46  1  0
 44 47  1  0
 47 48  1  0
 47 49  1  0
 47 50  1  0
 50 51  1  0
 51 52  1  0
 51 53  1  0
 51 54  1  0
 54 55  1  0
 54 56  1  0
 54 57  1  0
 57 58  1  0
 57 59  1  0
 57 60  1  0
 60 61  1  0
 60 62  1  0
 41 63  2  0
  7 64  1  0
 64 65  1  0
 64 66  2  0
 66 67  1  0
 66  2  1  0
 63 16  1  0
 36 19  1  0
 60 50  1  0
 32 23  1  0
M  CHG  1  14   1
M  END
>  <UniqueID>  (78) 
671

>  <SMILES>  (78) 
c1ccc(CC/[NH+]=c2\nc(NCCN3CCCC3)[nH]c(N3CCc4ccccc4C3)n2)cc1

>  <Energy>  (78) 
73.12508540169439

>  <Genealogy>  (78) 
c1ccc(CC[NH2+]c2nc(NCCN3CCCC3)nc(N3CCc4ccccc4C3)n2)cc1 (protonated)
c1ccc(CC[NH+]=c2nc(NCCN3CCCC3)[nH]c(N3CCc4ccccc4C3)n2)cc1 (tautomer)
c1ccc(CC/[NH+]=c2\nc(NCCN3CCCC3)[nH]c(N3CCc4ccccc4C3)n2)cc1 (cis-trans isomerization)
c1ccc(CC/[NH+]=c2\nc(NCCN3CCCC3)[nH]c(N3CCc4ccccc4C3)n2)cc1 (3D coordinates assigned)
c1ccc(CC/[NH+]=c2\nc(NCCN3CCCC3)[nH]c(N3CCc4ccccc4C3)n2)cc1 (nonaromatic ring conformer: 73.12508540169439 kcal/mol)

>  <smiles>  (78) 
c1ccc(CCNc2nc(NCCN3CCCC3)nc(N3CCc4ccccc4C3)n2)cc1

>  <score_type>  (78) 
oracle

>  <origin>  (78) 
autodockgpu

>  <m_score__min__energy>  (78) 
-9.9900000000000002

>  <m_primary>  (78) 
energy

>  <meeko>  (78) 
{"free_energy": -8.3, "intermolecular_energy": -10.98, "internal_energy": -2.18, "cluster_size": 12, "cluster_id": 1, "rank_in_cluster": 8}

>  <energy>  (78) 
-8.79

>  <cluster_rmsd>  (78) 
0.0

>  <rmsd>  (78) 
270.85

>  <cluster>  (78) 
4

$$$$
FPFWJFTVWFQHMH-FSECZMGHNA-O
     RDKit          3D

 67 71  0  0  0  0  0  0  0  0999 V2000
  141.6167   71.6580  229.0510 H   0  0  0  0  0  0  0  0  0  0  0  0
  141.1310   71.4090  228.0960 C   0  0  0  0  0  0  0  0  0  0  0  0
  140.2750   70.3060  228.0140 C   0  0  0  0  0  0  0  0  0  0  0  0
  140.0859   69.6901  228.9056 H   0  0  0  0  0  0  0  0  0  0  0  0
  139.6590   69.9850  226.8000 C   0  0  0  0  0  0  0  0  0  0  0  0
  138.9826   69.1195  226.7416 H   0  0  0  0  0  0  0  0  0  0  0  0
  139.9000   70.7630  225.6540 C   0  0  0  0  0  0  0  0  0  0  0  0
  139.2370   70.4120  224.3450 C   0  0  0  0  0  0  0  0  0  0  0  0
  139.1677   69.3174  224.2613 H   0  0  0  0  0  0  0  0  0  0  0  0
  138.2366   70.8692  224.3305 H   0  0  0  0  0  0  0  0  0  0  0  0
  140.0320   70.9540  223.1510 C   0  0  0  0  0  0  0  0  0  0  0  0
  141.1035   70.9545  223.3997 H   0  0  0  0  0  0  0  0  0  0  0  0
  139.8459   70.3111  222.2780 H   0  0  0  0  0  0  0  0  0  0  0  0
  139.6100   72.3210  222.8320 N   0  0  0  0  0  0  0  0  0  0  0  0
  138.6500   72.6100  223.1330 H   0  0  0  0  0  0  0  0  0  0  0  0
  140.3540   73.1780  222.1880 C   0  0  0  0  0  0  0  0  0  0  0  0
  139.9480   74.4690  222.0760 N   0  0  0  0  0  0  0  0  0  0  0  0
  140.7000   75.3740  221.3980 C   0  0  0  0  0  0  0  0  0  0  0  0
  140.2430   76.7330  221.2790 N   0  0  0  0  0  0  0  0  0  0  0  0
  139.9060   77.5330  222.4610 C   0  0  0  0  0  0  0  0  0  0  0  0
  139.9487   76.8939  223.3553 H   0  0  0  0  0  0  0  0  0  0  0  0
  138.8928   77.9430  222.3371 H   0  0  0  0  0  0  0  0  0  0  0  0
  140.8790   78.6740  222.6190 C   0  0  0  0  0  0  0  0  0  0  0  0
  140.9240   79.3740  223.8350 C   0  0  0  0  0  0  0  0  0  0  0  0
  140.2867   79.0546  224.6727 H   0  0  0  0  0  0  0  0  0  0  0  0
  141.7720   80.4730  223.9890 C   0  0  0  0  0  0  0  0  0  0  0  0
  141.8036   81.0124  224.9471 H   0  0  0  0  0  0  0  0  0  0  0  0
  142.5800   80.8880  222.9280 C   0  0  0  0  0  0  0  0  0  0  0  0
  143.2550   81.7472  223.0550 H   0  0  0  0  0  0  0  0  0  0  0  0
  142.5320   80.2130  221.7050 C   0  0  0  0  0  0  0  0  0  0  0  0
  143.1680   80.5467  220.8719 H   0  0  0  0  0  0  0  0  0  0  0  0
  141.6770   79.1110  221.5320 C   0  0  0  0  0  0  0  0  0  0  0  0
  141.7100   78.3550  220.2210 C   0  0  0  0  0  0  0  0  0  0  0  0
  142.6086   77.7209  220.1994 H   0  0  0  0  0  0  0  0  0  0  0  0
  141.7228   79.0920  219.4045 H   0  0  0  0  0  0  0  0  0  0  0  0
  140.4760   77.4690  220.0380 C   0  0  0  0  0  0  0  0  0  0  0  0
  140.6469   76.7610  219.2136 H   0  0  0  0  0  0  0  0  0  0  0  0
  139.5998   78.0894  219.7985 H   0  0  0  0  0  0  0  0  0  0  0  0
  141.8610   74.9760  220.8050 N   0  0  0  0  0  0  0  0  0  0  0  0
  142.4290   75.6550  220.2480 H   0  0  0  0  0  0  0  0  0  0  0  0
  142.2810   73.6870  220.9190 C   0  0  0  0  0  0  0  0  0  0  0  0
  143.4980   73.2710  220.2800 N   0  0  0  0  0  0  0  0  0  0  0  0
  143.5180   73.1990  219.2380 H   0  0  0  0  0  0  0  0  0  0  0  0
  144.7670   73.1370  220.9960 C   0  0  0  0  0  0  0  0  0  0  0  0
  144.7881   73.8476  221.8354 H   0  0  0  0  0  0  0  0  0  0  0  0
  144.8604   72.1084  221.3745 H   0  0  0  0  0  0  0  0  0  0  0  0
  145.9380   73.4330  220.0510 C   0  0  0  0  0  0  0  0  0  0  0  0
  145.8500   74.4657  219.6824 H   0  0  0  0  0  0  0  0  0  0  0  0
  146.8778   73.2996  220.6069 H   0  0  0  0  0  0  0  0  0  0  0  0
  145.9390   72.5080  218.8990 N   0  0  0  0  0  0  0  0  0  0  0  0
  145.2200   73.0620  217.7380 C   0  0  0  0  0  0  0  0  0  0  0  0
  144.6718   73.9674  218.0374 H   0  0  0  0  0  0  0  0  0  0  0  0
  145.9321   73.3276  216.9428 H   0  0  0  0  0  0  0  0  0  0  0  0
  144.2400   72.0090  217.2350 C   0  0  0  0  0  0  0  0  0  0  0  0
  143.2067   72.2946  217.4815 H   0  0  0  0  0  0  0  0  0  0  0  0
  144.2850   71.8941  216.1419 H   0  0  0  0  0  0  0  0  0  0  0  0
  144.6230   70.7380  217.9520 C   0  0  0  0  0  0  0  0  0  0  0  0
  143.7310   70.1414  218.1938 H   0  0  0  0  0  0  0  0  0  0  0  0
  145.2684   70.0869  217.3442 H   0  0  0  0  0  0  0  0  0  0  0  0
  145.3050   71.2210  219.2130 C   0  0  0  0  0  0  0  0  0  0  0  0
  144.5642   71.3518  220.0155 H   0  0  0  0  0  0  0  0  0  0  0  0
  146.0529   70.4910  219.5562 H   0  0  0  0  0  0  0  0  0  0  0  0
  141.5260   72.7960  221.6130 N   0  0  0  0  0  0  0  0  0  0  0  0
  140.7690   71.8670  225.7430 C   0  0  0  0  0  0  0  0  0  0  0  0
  140.9767   72.4738  224.8493 H   0  0  0  0  0  0  0  0  0  0  0  0
  141.3700   72.1960  226.9640 C   0  0  0  0  0  0  0  0  0  0  0  0
  142.0301   73.0732  227.0334 H   0  0  0  0  0  0  0  0  0  0  0  0
  1  2  1  0
  2  3  2  0
  3  4  1  0
  3  5  1  0
  5  6  1  0
  5  7  2  0
  7  8  1  0
  8  9  1  0
  8 10  1  0
  8 11  1  0
 11 12  1  0
 11 13  1  0
 11 14  1  0
 14 15  1  0
 14 16  2  0
 16 17  1  0
 17 18  2  0
 18 19  1  0
 19 20  1  0
 20 21  1  0
 20 22  1  0
 20 23  1  0
 23 24  2  0
 24 25  1  0
 24 26  1  0
 26 27  1  0
 26 28  2  0
 28 29  1  0
 28 30  1  0
 30 31  1  0
 30 32  2  0
 32 33  1  0
 33 34  1  0
 33 35  1  0
 33 36  1  0
 36 37  1  0
 36 38  1  0
 18 39  1  0
 39 40  1  0
 39 41  1  0
 41 42  1  0
 42 43  1  0
 42 44  1  0
 44 45  1  0
 44 46  1  0
 44 47  1  0
 47 48  1  0
 47 49  1  0
 47 50  1  0
 50 51  1  0
 51 52  1  0
 51 53  1  0
 51 54  1  0
 54 55  1  0
 54 56  1  0
 54 57  1  0
 57 58  1  0
 57 59  1  0
 57 60  1  0
 60 61  1  0
 60 62  1  0
 41 63  2  0
  7 64  1  0
 64 65  1  0
 64 66  2  0
 66 67  1  0
 66  2  1  0
 63 16  1  0
 36 19  1  0
 60 50  1  0
 32 23  1  0
M  CHG  1  14   1
M  END
>  <UniqueID>  (79) 
671

>  <SMILES>  (79) 
c1ccc(CC/[NH+]=c2\nc(NCCN3CCCC3)[nH]c(N3CCc4ccccc4C3)n2)cc1

>  <Energy>  (79) 
73.12508540169439

>  <Genealogy>  (79) 
c1ccc(CC[NH2+]c2nc(NCCN3CCCC3)nc(N3CCc4ccccc4C3)n2)cc1 (protonated)
c1ccc(CC[NH+]=c2nc(NCCN3CCCC3)[nH]c(N3CCc4ccccc4C3)n2)cc1 (tautomer)
c1ccc(CC/[NH+]=c2\nc(NCCN3CCCC3)[nH]c(N3CCc4ccccc4C3)n2)cc1 (cis-trans isomerization)
c1ccc(CC/[NH+]=c2\nc(NCCN3CCCC3)[nH]c(N3CCc4ccccc4C3)n2)cc1 (3D coordinates assigned)
c1ccc(CC/[NH+]=c2\nc(NCCN3CCCC3)[nH]c(N3CCc4ccccc4C3)n2)cc1 (nonaromatic ring conformer: 73.12508540169439 kcal/mol)

>  <smiles>  (79) 
c1ccc(CCNc2nc(NCCN3CCCC3)nc(N3CCc4ccccc4C3)n2)cc1

>  <score_type>  (79) 
oracle

>  <origin>  (79) 
autodockgpu

>  <m_score__min__energy>  (79) 
-9.9900000000000002

>  <m_primary>  (79) 
energy

>  <meeko>  (79) 
{"free_energy": -9.99, "intermolecular_energy": -12.68, "internal_energy": -1.03, "cluster_size": 12, "cluster_id": 1, "rank_in_cluster": 1}

>  <energy>  (79) 
-7.4

>  <cluster_rmsd>  (79) 
1.9

>  <rmsd>  (79) 
270.32

>  <cluster>  (79) 
4

$$$$
FPFWJFTVWFQHMH-FSECZMGHNA-O
     RDKit          3D

 67 71  0  0  0  0  0  0  0  0999 V2000
  140.0595   70.3802  229.4102 H   0  0  0  0  0  0  0  0  0  0  0  0
  140.1920   70.5530  228.3320 C   0  0  0  0  0  0  0  0  0  0  0  0
  140.9050   71.6700  227.8860 C   0  0  0  0  0  0  0  0  0  0  0  0
  141.3345   72.3738  228.6141 H   0  0  0  0  0  0  0  0  0  0  0  0
  141.0730   71.8940  226.5160 C   0  0  0  0  0  0  0  0  0  0  0  0
  141.6390   72.7716  226.1703 H   0  0  0  0  0  0  0  0  0  0  0  0
  140.5220   71.0030  225.5780 C   0  0  0  0  0  0  0  0  0  0  0  0
  140.7000   71.2490  224.1000 C   0  0  0  0  0  0  0  0  0  0  0  0
  141.3448   72.1290  223.9591 H   0  0  0  0  0  0  0  0  0  0  0  0
  141.1569   70.3536  223.6534 H   0  0  0  0  0  0  0  0  0  0  0  0
  139.3560   71.5000  223.4070 C   0  0  0  0  0  0  0  0  0  0  0  0
  138.7924   70.5567  223.3573 H   0  0  0  0  0  0  0  0  0  0  0  0
  138.7922   72.2481  223.9836 H   0  0  0  0  0  0  0  0  0  0  0  0
  139.5670   72.0080  222.0490 N   0  0  0  0  0  0  0  0  0  0  0  0
  138.9970   71.5800  221.2820 H   0  0  0  0  0  0  0  0  0  0  0  0
  140.4260   72.9440  221.7500 C   0  0  0  0  0  0  0  0  0  0  0  0
  141.5760   72.6190  221.1040 N   0  0  0  0  0  0  0  0  0  0  0  0
  142.4900   73.5750  220.7960 C   0  0  0  0  0  0  0  0  0  0  0  0
  143.7080   73.2050  220.1260 N   0  0  0  0  0  0  0  0  0  0  0  0
  144.4190   71.9680  220.4590 C   0  0  0  0  0  0  0  0  0  0  0  0
  143.9417   71.4999  221.3325 H   0  0  0  0  0  0  0  0  0  0  0  0
  145.4680   72.2101  220.6847 H   0  0  0  0  0  0  0  0  0  0  0  0
  144.3790   71.0070  219.2970 C   0  0  0  0  0  0  0  0  0  0  0  0
  144.7310   69.6640  219.5040 C   0  0  0  0  0  0  0  0  0  0  0  0
  144.9859   69.3163  220.5160 H   0  0  0  0  0  0  0  0  0  0  0  0
  144.7600   68.7660  218.4350 C   0  0  0  0  0  0  0  0  0  0  0  0
  145.0314   67.7142  218.6086 H   0  0  0  0  0  0  0  0  0  0  0  0
  144.4450   69.2010  217.1460 C   0  0  0  0  0  0  0  0  0  0  0  0
  144.4589   68.4896  216.3071 H   0  0  0  0  0  0  0  0  0  0  0  0
  144.1120   70.5400  216.9210 C   0  0  0  0  0  0  0  0  0  0  0  0
  143.8685   70.8784  215.9031 H   0  0  0  0  0  0  0  0  0  0  0  0
  144.0860   71.4570  217.9860 C   0  0  0  0  0  0  0  0  0  0  0  0
  143.6440   72.8800  217.7180 C   0  0  0  0  0  0  0  0  0  0  0  0
  142.5491   72.8979  217.6138 H   0  0  0  0  0  0  0  0  0  0  0  0
  144.1376   73.2207  216.7959 H   0  0  0  0  0  0  0  0  0  0  0  0
  144.0480   73.8290  218.8480 C   0  0  0  0  0  0  0  0  0  0  0  0
  143.5058   74.7805  218.7444 H   0  0  0  0  0  0  0  0  0  0  0  0
  145.1289   74.0279  218.8030 H   0  0  0  0  0  0  0  0  0  0  0  0
  142.2620   74.8680  221.1610 N   0  0  0  0  0  0  0  0  0  0  0  0
  142.9750   75.6060  220.9640 H   0  0  0  0  0  0  0  0  0  0  0  0
  141.1090   75.2060  221.8010 C   0  0  0  0  0  0  0  0  0  0  0  0
  140.8800   76.5680  222.1940 N   0  0  0  0  0  0  0  0  0  0  0  0
  141.6970   77.2170  222.2520 H   0  0  0  0  0  0  0  0  0  0  0  0
  139.5420   77.1450  222.3230 C   0  0  0  0  0  0  0  0  0  0  0  0
  139.0154   77.0616  221.3608 H   0  0  0  0  0  0  0  0  0  0  0  0
  138.9879   76.5995  223.1011 H   0  0  0  0  0  0  0  0  0  0  0  0
  139.6420   78.6220  222.7200 C   0  0  0  0  0  0  0  0  0  0  0  0
  138.9312   79.2053  222.1161 H   0  0  0  0  0  0  0  0  0  0  0  0
  139.4054   78.7129  223.7904 H   0  0  0  0  0  0  0  0  0  0  0  0
  141.0070   79.1420  222.4950 N   0  0  0  0  0  0  0  0  0  0  0  0
  141.7830   79.2310  223.7440 C   0  0  0  0  0  0  0  0  0  0  0  0
  141.1191   79.0721  224.6066 H   0  0  0  0  0  0  0  0  0  0  0  0
  142.5690   78.4616  223.7577 H   0  0  0  0  0  0  0  0  0  0  0  0
  142.4060   80.6200  223.8220 C   0  0  0  0  0  0  0  0  0  0  0  0
  141.8991   81.2279  224.5859 H   0  0  0  0  0  0  0  0  0  0  0  0
  143.4686   80.5791  224.1034 H   0  0  0  0  0  0  0  0  0  0  0  0
  142.2080   81.2190  222.4520 C   0  0  0  0  0  0  0  0  0  0  0  0
  142.0087   82.2985  222.5225 H   0  0  0  0  0  0  0  0  0  0  0  0
  143.0967   81.1147  221.8122 H   0  0  0  0  0  0  0  0  0  0  0  0
  141.0050   80.4850  221.9010 C   0  0  0  0  0  0  0  0  0  0  0  0
  140.0815   81.0166  222.1740 H   0  0  0  0  0  0  0  0  0  0  0  0
  141.0516   80.4269  220.8035 H   0  0  0  0  0  0  0  0  0  0  0  0
  140.1960   74.2410  222.0880 N   0  0  0  0  0  0  0  0  0  0  0  0
  139.7980   69.8850  226.0350 C   0  0  0  0  0  0  0  0  0  0  0  0
  139.3492   69.1895  225.3105 H   0  0  0  0  0  0  0  0  0  0  0  0
  139.6470   69.6550  227.4080 C   0  0  0  0  0  0  0  0  0  0  0  0
  139.0998   68.7681  227.7601 H   0  0  0  0  0  0  0  0  0  0  0  0
  1  2  1  0
  2  3  2  0
  3  4  1  0
  3  5  1  0
  5  6  1  0
  5  7  2  0
  7  8  1  0
  8  9  1  0
  8 10  1  0
  8 11  1  0
 11 12  1  0
 11 13  1  0
 11 14  1  0
 14 15  1  0
 14 16  2  0
 16 17  1  0
 17 18  2  0
 18 19  1  0
 19 20  1  0
 20 21  1  0
 20 22  1  0
 20 23  1  0
 23 24  2  0
 24 25  1  0
 24 26  1  0
 26 27  1  0
 26 28  2  0
 28 29  1  0
 28 30  1  0
 30 31  1  0
 30 32  2  0
 32 33  1  0
 33 34  1  0
 33 35  1  0
 33 36  1  0
 36 37  1  0
 36 38  1  0
 18 39  1  0
 39 40  1  0
 39 41  1  0
 41 42  1  0
 42 43  1  0
 42 44  1  0
 44 45  1  0
 44 46  1  0
 44 47  1  0
 47 48  1  0
 47 49  1  0
 47 50  1  0
 50 51  1  0
 51 52  1  0
 51 53  1  0
 51 54  1  0
 54 55  1  0
 54 56  1  0
 54 57  1  0
 57 58  1  0
 57 59  1  0
 57 60  1  0
 60 61  1  0
 60 62  1  0
 41 63  2  0
  7 64  1  0
 64 65  1  0
 64 66  2  0
 66 67  1  0
 66  2  1  0
 63 16  1  0
 36 19  1  0
 60 50  1  0
 32 23  1  0
M  CHG  1  14   1
M  END
>  <UniqueID>  (80) 
671

>  <SMILES>  (80) 
c1ccc(CC/[NH+]=c2\nc(NCCN3CCCC3)[nH]c(N3CCc4ccccc4C3)n2)cc1

>  <Energy>  (80) 
73.12508540169439

>  <Genealogy>  (80) 
c1ccc(CC[NH2+]c2nc(NCCN3CCCC3)nc(N3CCc4ccccc4C3)n2)cc1 (protonated)
c1ccc(CC[NH+]=c2nc(NCCN3CCCC3)[nH]c(N3CCc4ccccc4C3)n2)cc1 (tautomer)
c1ccc(CC/[NH+]=c2\nc(NCCN3CCCC3)[nH]c(N3CCc4ccccc4C3)n2)cc1 (cis-trans isomerization)
c1ccc(CC/[NH+]=c2\nc(NCCN3CCCC3)[nH]c(N3CCc4ccccc4C3)n2)cc1 (3D coordinates assigned)
c1ccc(CC/[NH+]=c2\nc(NCCN3CCCC3)[nH]c(N3CCc4ccccc4C3)n2)cc1 (nonaromatic ring conformer: 73.12508540169439 kcal/mol)

>  <smiles>  (80) 
c1ccc(CCNc2nc(NCCN3CCCC3)nc(N3CCc4ccccc4C3)n2)cc1

>  <score_type>  (80) 
oracle

>  <origin>  (80) 
autodockgpu

>  <m_score__min__energy>  (80) 
-9.9900000000000002

>  <m_primary>  (80) 
energy

>  <meeko>  (80) 
{"free_energy": -8.91, "intermolecular_energy": -11.59, "internal_energy": -1.45, "cluster_size": 4, "cluster_id": 2, "rank_in_cluster": 2}

>  <energy>  (80) 
-8.13

>  <cluster_rmsd>  (80) 
0.0

>  <rmsd>  (80) 
270.21

>  <cluster>  (80) 
5

$$$$
