
     RDKit          3D

 44 47  0  0  0  0  0  0  0  0999 V2000
  140.3480   74.7500  222.0960 O   0  0  0  0  0  0  0  0  0  0  0  0
  140.2850   76.2350  221.8890 S   0  0  0  0  0  0  0  0  0  0  0  0
  141.0800   76.8900  222.9570 O   0  0  0  0  0  0  0  0  0  0  0  0
  138.5980   76.7770  221.9670 C   0  0  0  0  0  0  0  0  0  0  0  0
  138.4770   78.2530  222.0910 C   0  0  0  0  0  0  0  0  0  0  0  0
  138.7180   78.8900  223.3090 C   0  0  0  0  0  0  0  0  0  0  0  0
  138.5930   80.2610  223.3870 C   0  0  0  0  0  0  0  0  0  0  0  0
  138.8360   80.8330  224.5900 F   0  0  0  0  0  0  0  0  0  0  0  0
  138.2350   80.9680  222.2660 C   0  0  0  0  0  0  0  0  0  0  0  0
  137.9890   80.3800  221.0460 C   0  0  0  0  0  0  0  0  0  0  0  0
  138.1150   78.9970  220.9670 C   0  0  0  0  0  0  0  0  0  0  0  0
  137.8780   78.4110  219.7800 F   0  0  0  0  0  0  0  0  0  0  0  0
  141.0030   76.5880  220.3670 N   0  0  0  0  0  0  0  0  0  0  0  0
  141.3160   75.4250  219.6050 C   0  0  0  0  0  0  0  0  0  0  0  0
  142.7690   75.6120  219.1470 C   0  0  0  0  0  0  0  0  0  0  0  0
  142.9040   77.1420  219.1900 C   0  0  0  0  0  0  0  0  0  0  0  0
  142.1490   77.4270  220.4680 C   0  0  1  0  0  0  0  0  0  0  0  0
  141.7710   78.8580  220.5800 C   0  0  0  0  0  0  0  0  0  0  0  0
  141.1780   79.6740  219.6400 C   0  0  0  0  0  0  0  0  0  0  0  0
  141.0190   80.9080  220.1720 N   0  0  0  0  0  0  0  0  0  0  0  0
  141.5020   80.9080  221.4480 C   0  0  0  0  0  0  0  0  0  0  0  0
  141.5660   81.9260  222.4060 C   0  0  0  0  0  0  0  0  0  0  0  0
  142.1230   81.5970  223.6230 C   0  0  0  0  0  0  0  0  0  0  0  0
  142.5980   80.3300  223.9010 C   0  0  0  0  0  0  0  0  0  0  0  0
  142.5280   79.3210  222.9380 C   0  0  0  0  0  0  0  0  0  0  0  0
  141.9740   79.6340  221.7120 C   0  0  0  0  0  0  0  0  0  0  0  0
  138.0824   76.4571  221.0495 H   0  0  0  0  0  0  0  0  0  0  0  0
  138.1453   76.3291  222.8639 H   0  0  0  0  0  0  0  0  0  0  0  0
  139.0042   78.3056  224.1959 H   0  0  0  0  0  0  0  0  0  0  0  0
  138.1398   82.0609  222.3469 H   0  0  0  0  0  0  0  0  0  0  0  0
  137.7042   80.9796  220.1689 H   0  0  0  0  0  0  0  0  0  0  0  0
  141.2221   74.5220  220.2261 H   0  0  0  0  0  0  0  0  0  0  0  0
  140.6326   75.3005  218.7521 H   0  0  0  0  0  0  0  0  0  0  0  0
  143.4744   75.1260  219.8371 H   0  0  0  0  0  0  0  0  0  0  0  0
  142.9927   75.1675  218.1660 H   0  0  0  0  0  0  0  0  0  0  0  0
  143.9553   77.4589  219.2558 H   0  0  0  0  0  0  0  0  0  0  0  0
  142.5302   77.6688  218.2996 H   0  0  0  0  0  0  0  0  0  0  0  0
  142.7486   77.2276  221.3684 H   0  0  0  0  0  0  0  0  0  0  0  0
  140.8827   79.3716  218.6245 H   0  0  0  0  0  0  0  0  0  0  0  0
  140.5970   81.7440  219.7000 H   0  0  0  0  0  0  0  0  0  0  0  0
  141.1903   82.9387  222.1981 H   0  0  0  0  0  0  0  0  0  0  0  0
  142.1918   82.3714  224.4012 H   0  0  0  0  0  0  0  0  0  0  0  0
  143.0343   80.1144  224.8875 H   0  0  0  0  0  0  0  0  0  0  0  0
  142.9024   78.3085  223.1493 H   0  0  0  0  0  0  0  0  0  0  0  0
  1  2  2  0
  2  3  2  0
  2  4  1  0
  4  5  1  0
  5  6  2  0
  6  7  1  0
  7  8  1  0
  7  9  2  0
  9 10  1  0
 10 11  2  0
 11 12  1  0
  2 13  1  0
 13 14  1  0
 14 15  1  0
 15 16  1  0
 16 17  1  0
 17 18  1  0
 18 19  2  0
 19 20  1  0
 20 21  1  0
 21 22  2  0
 22 23  1  0
 23 24  2  0
 24 25  1  0
 25 26  2  0
 11  5  1  0
 17 13  1  0
 26 18  1  0
 26 21  1  0
  4 27  1  0
  4 28  1  0
  6 29  1  0
  9 30  1  0
 10 31  1  0
 14 32  1  0
 14 33  1  0
 15 34  1  0
 15 35  1  0
 16 36  1  0
 16 37  1  0
 17 38  1  1
 19 39  1  0
 20 40  1  0
 22 41  1  0
 23 42  1  0
 24 43  1  0
 25 44  1  0
M  END
>  <smiles>  (1) 
O=S(=O)(Cc1cc(F)ccc1F)N1CCC[C@H]1c1c[nH]c2ccccc12

>  <score_type>  (1) 
oracle

>  <origin>  (1) 
autodockgpu

>  <m_score__min__energy>  (1) 
-7.6900000000000004

>  <m_primary>  (1) 
energy

>  <meeko>  (1) 
{"free_energy": -6.39, "intermolecular_energy": -7.58, "internal_energy": -2.66, "cluster_size": 19, "cluster_id": 2, "rank_in_cluster": 7}

>  <energy>  (1) 
-7.69

>  <cluster_rmsd>  (1) 
0.0

>  <rmsd>  (1) 
270.65

>  <cluster>  (1) 
1

$$$$

     RDKit          3D

 44 47  0  0  0  0  0  0  0  0999 V2000
  140.3320   74.7600  222.1230 O   0  0  0  0  0  0  0  0  0  0  0  0
  140.2640   76.2440  221.9130 S   0  0  0  0  0  0  0  0  0  0  0  0
  141.0720   76.9040  222.9690 O   0  0  0  0  0  0  0  0  0  0  0  0
  138.5760   76.7830  222.0130 C   0  0  0  0  0  0  0  0  0  0  0  0
  138.4540   78.2600  222.1180 C   0  0  0  0  0  0  0  0  0  0  0  0
  138.7030   78.9130  223.3260 C   0  0  0  0  0  0  0  0  0  0  0  0
  138.5750   80.2850  223.3870 C   0  0  0  0  0  0  0  0  0  0  0  0
  138.8260   80.8730  224.5810 F   0  0  0  0  0  0  0  0  0  0  0  0
  138.2070   80.9770  222.2600 C   0  0  0  0  0  0  0  0  0  0  0  0
  137.9530   80.3720  221.0490 C   0  0  0  0  0  0  0  0  0  0  0  0
  138.0810   78.9890  220.9870 C   0  0  0  0  0  0  0  0  0  0  0  0
  137.8360   78.3860  219.8100 F   0  0  0  0  0  0  0  0  0  0  0  0
  140.9600   76.5950  220.3810 N   0  0  0  0  0  0  0  0  0  0  0  0
  141.2590   75.4310  219.6150 C   0  0  0  0  0  0  0  0  0  0  0  0
  142.7050   75.6140  219.1360 C   0  0  0  0  0  0  0  0  0  0  0  0
  142.8460   77.1430  219.1760 C   0  0  0  0  0  0  0  0  0  0  0  0
  142.1100   77.4310  220.4650 C   0  0  1  0  0  0  0  0  0  0  0  0
  141.7370   78.8630  220.5810 C   0  0  0  0  0  0  0  0  0  0  0  0
  141.1410   79.6830  219.6460 C   0  0  0  0  0  0  0  0  0  0  0  0
  140.9890   80.9160  220.1810 N   0  0  0  0  0  0  0  0  0  0  0  0
  141.4790   80.9120  221.4550 C   0  0  0  0  0  0  0  0  0  0  0  0
  141.5510   81.9280  222.4140 C   0  0  0  0  0  0  0  0  0  0  0  0
  142.1130   81.5950  223.6280 C   0  0  0  0  0  0  0  0  0  0  0  0
  142.5850   80.3260  223.9010 C   0  0  0  0  0  0  0  0  0  0  0  0
  142.5070   79.3190  222.9360 C   0  0  0  0  0  0  0  0  0  0  0  0
  141.9480   79.6360  221.7140 C   0  0  0  0  0  0  0  0  0  0  0  0
  138.0452   76.4488  221.1094 H   0  0  0  0  0  0  0  0  0  0  0  0
  138.1400   76.3467  222.9238 H   0  0  0  0  0  0  0  0  0  0  0  0
  138.9976   78.3408  224.2181 H   0  0  0  0  0  0  0  0  0  0  0  0
  138.1100   82.0706  222.3275 H   0  0  0  0  0  0  0  0  0  0  0  0
  137.6606   80.9595  220.1662 H   0  0  0  0  0  0  0  0  0  0  0  0
  141.1719   74.5284  220.2377 H   0  0  0  0  0  0  0  0  0  0  0  0
  140.5630   75.3080  218.7721 H   0  0  0  0  0  0  0  0  0  0  0  0
  143.4189   75.1262  219.8159 H   0  0  0  0  0  0  0  0  0  0  0  0
  142.9126   75.1687  218.1518 H   0  0  0  0  0  0  0  0  0  0  0  0
  143.8992   77.4563  219.2266 H   0  0  0  0  0  0  0  0  0  0  0  0
  142.4615   77.6708  218.2907 H   0  0  0  0  0  0  0  0  0  0  0  0
  142.7221   77.2306  221.3567 H   0  0  0  0  0  0  0  0  0  0  0  0
  140.8388   79.3835  218.6316 H   0  0  0  0  0  0  0  0  0  0  0  0
  140.5670   81.7550  219.7130 H   0  0  0  0  0  0  0  0  0  0  0  0
  141.1777   82.9423  222.2095 H   0  0  0  0  0  0  0  0  0  0  0  0
  142.1882   82.3677  224.4073 H   0  0  0  0  0  0  0  0  0  0  0  0
  143.0253   80.1068  224.8849 H   0  0  0  0  0  0  0  0  0  0  0  0
  142.8794   78.3049  223.1433 H   0  0  0  0  0  0  0  0  0  0  0  0
  1  2  2  0
  2  3  2  0
  2  4  1  0
  4  5  1  0
  5  6  2  0
  6  7  1  0
  7  8  1  0
  7  9  2  0
  9 10  1  0
 10 11  2  0
 11 12  1  0
  2 13  1  0
 13 14  1  0
 14 15  1  0
 15 16  1  0
 16 17  1  0
 17 18  1  0
 18 19  2  0
 19 20  1  0
 20 21  1  0
 21 22  2  0
 22 23  1  0
 23 24  2  0
 24 25  1  0
 25 26  2  0
 11  5  1  0
 17 13  1  0
 26 18  1  0
 26 21  1  0
  4 27  1  0
  4 28  1  0
  6 29  1  0
  9 30  1  0
 10 31  1  0
 14 32  1  0
 14 33  1  0
 15 34  1  0
 15 35  1  0
 16 36  1  0
 16 37  1  0
 17 38  1  1
 19 39  1  0
 20 40  1  0
 22 41  1  0
 23 42  1  0
 24 43  1  0
 25 44  1  0
M  END
>  <smiles>  (2) 
O=S(=O)(Cc1cc(F)ccc1F)N1CCC[C@H]1c1c[nH]c2ccccc12

>  <score_type>  (2) 
oracle

>  <origin>  (2) 
autodockgpu

>  <m_score__min__energy>  (2) 
-7.6900000000000004

>  <m_primary>  (2) 
energy

>  <meeko>  (2) 
{"free_energy": -6.39, "intermolecular_energy": -7.58, "internal_energy": -2.65, "cluster_size": 19, "cluster_id": 2, "rank_in_cluster": 6}

>  <energy>  (2) 
-6.39

>  <cluster_rmsd>  (2) 
0.0

>  <rmsd>  (2) 
271.27

>  <cluster>  (2) 
2

$$$$

     RDKit          3D

 44 47  0  0  0  0  0  0  0  0999 V2000
  140.3500   74.7490  222.1010 O   0  0  0  0  0  0  0  0  0  0  0  0
  140.2850   76.2330  221.8900 S   0  0  0  0  0  0  0  0  0  0  0  0
  141.0800   76.8930  222.9570 O   0  0  0  0  0  0  0  0  0  0  0  0
  138.5970   76.7730  221.9680 C   0  0  0  0  0  0  0  0  0  0  0  0
  138.4750   78.2490  222.0940 C   0  0  0  0  0  0  0  0  0  0  0  0
  138.7150   78.8840  223.3130 C   0  0  0  0  0  0  0  0  0  0  0  0
  138.5880   80.2550  223.3930 C   0  0  0  0  0  0  0  0  0  0  0  0
  138.8300   80.8250  224.5970 F   0  0  0  0  0  0  0  0  0  0  0  0
  138.2280   80.9640  222.2740 C   0  0  0  0  0  0  0  0  0  0  0  0
  137.9830   80.3770  221.0530 C   0  0  0  0  0  0  0  0  0  0  0  0
  138.1110   78.9950  220.9710 C   0  0  0  0  0  0  0  0  0  0  0  0
  137.8740   78.4090  219.7840 F   0  0  0  0  0  0  0  0  0  0  0  0
  141.0020   76.5830  220.3670 N   0  0  0  0  0  0  0  0  0  0  0  0
  141.3160   75.4190  219.6080 C   0  0  0  0  0  0  0  0  0  0  0  0
  142.7680   75.6060  219.1490 C   0  0  0  0  0  0  0  0  0  0  0  0
  142.9020   77.1360  219.1880 C   0  0  0  0  0  0  0  0  0  0  0  0
  142.1470   77.4240  220.4650 C   0  0  1  0  0  0  0  0  0  0  0  0
  141.7670   78.8550  220.5730 C   0  0  0  0  0  0  0  0  0  0  0  0
  141.1700   79.6680  219.6320 C   0  0  0  0  0  0  0  0  0  0  0  0
  141.0110   80.9020  220.1600 N   0  0  0  0  0  0  0  0  0  0  0  0
  141.4970   80.9070  221.4350 C   0  0  0  0  0  0  0  0  0  0  0  0
  141.5610   81.9280  222.3900 C   0  0  0  0  0  0  0  0  0  0  0  0
  142.1210   81.6040  223.6070 C   0  0  0  0  0  0  0  0  0  0  0  0
  142.5990   80.3390  223.8880 C   0  0  0  0  0  0  0  0  0  0  0  0
  142.5280   79.3270  222.9280 C   0  0  0  0  0  0  0  0  0  0  0  0
  141.9710   79.6350  221.7030 C   0  0  0  0  0  0  0  0  0  0  0  0
  138.0821   76.4539  221.0498 H   0  0  0  0  0  0  0  0  0  0  0  0
  138.1441   76.3233  222.8639 H   0  0  0  0  0  0  0  0  0  0  0  0
  139.0019   78.2986  224.1990 H   0  0  0  0  0  0  0  0  0  0  0  0
  138.1303   82.0565  222.3571 H   0  0  0  0  0  0  0  0  0  0  0  0
  137.6973   80.9777  220.1769 H   0  0  0  0  0  0  0  0  0  0  0  0
  141.2233   74.5174  220.2313 H   0  0  0  0  0  0  0  0  0  0  0  0
  140.6325   75.2919  218.7556 H   0  0  0  0  0  0  0  0  0  0  0  0
  143.4741   75.1223  219.8400 H   0  0  0  0  0  0  0  0  0  0  0  0
  142.9915   75.1593  218.1690 H   0  0  0  0  0  0  0  0  0  0  0  0
  143.9531   77.4537  219.2530 H   0  0  0  0  0  0  0  0  0  0  0  0
  142.5278   77.6601  218.2962 H   0  0  0  0  0  0  0  0  0  0  0  0
  142.7472   77.2282  221.3658 H   0  0  0  0  0  0  0  0  0  0  0  0
  140.8722   79.3622  218.6182 H   0  0  0  0  0  0  0  0  0  0  0  0
  140.5860   81.7370  219.6870 H   0  0  0  0  0  0  0  0  0  0  0  0
  141.1830   82.9394  222.1797 H   0  0  0  0  0  0  0  0  0  0  0  0
  142.1897   82.3810  224.3826 H   0  0  0  0  0  0  0  0  0  0  0  0
  143.0383   80.1272  224.8740 H   0  0  0  0  0  0  0  0  0  0  0  0
  142.9043   78.3157  223.1415 H   0  0  0  0  0  0  0  0  0  0  0  0
  1  2  2  0
  2  3  2  0
  2  4  1  0
  4  5  1  0
  5  6  2  0
  6  7  1  0
  7  8  1  0
  7  9  2  0
  9 10  1  0
 10 11  2  0
 11 12  1  0
  2 13  1  0
 13 14  1  0
 14 15  1  0
 15 16  1  0
 16 17  1  0
 17 18  1  0
 18 19  2  0
 19 20  1  0
 20 21  1  0
 21 22  2  0
 22 23  1  0
 23 24  2  0
 24 25  1  0
 25 26  2  0
 11  5  1  0
 17 13  1  0
 26 18  1  0
 26 21  1  0
  4 27  1  0
  4 28  1  0
  6 29  1  0
  9 30  1  0
 10 31  1  0
 14 32  1  0
 14 33  1  0
 15 34  1  0
 15 35  1  0
 16 36  1  0
 16 37  1  0
 17 38  1  1
 19 39  1  0
 20 40  1  0
 22 41  1  0
 23 42  1  0
 24 43  1  0
 25 44  1  0
M  END
>  <smiles>  (3) 
O=S(=O)(Cc1cc(F)ccc1F)N1CCC[C@H]1c1c[nH]c2ccccc12

>  <score_type>  (3) 
oracle

>  <origin>  (3) 
autodockgpu

>  <m_score__min__energy>  (3) 
-7.6900000000000004

>  <m_primary>  (3) 
energy

>  <meeko>  (3) 
{"free_energy": -6.39, "intermolecular_energy": -7.58, "internal_energy": -2.66, "cluster_size": 19, "cluster_id": 2, "rank_in_cluster": 8}

>  <energy>  (3) 
-6.39

>  <cluster_rmsd>  (3) 
0.02

>  <rmsd>  (3) 
271.27

>  <cluster>  (3) 
2

$$$$

     RDKit          3D

 44 47  0  0  0  0  0  0  0  0999 V2000
  140.3470   74.7450  222.0870 O   0  0  0  0  0  0  0  0  0  0  0  0
  140.2840   76.2300  221.8780 S   0  0  0  0  0  0  0  0  0  0  0  0
  141.0710   76.8870  222.9520 O   0  0  0  0  0  0  0  0  0  0  0  0
  138.5960   76.7700  221.9430 C   0  0  0  0  0  0  0  0  0  0  0  0
  138.4730   78.2450  222.0720 C   0  0  0  0  0  0  0  0  0  0  0  0
  138.7190   78.8790  223.2910 C   0  0  0  0  0  0  0  0  0  0  0  0
  138.5910   80.2490  223.3740 C   0  0  0  0  0  0  0  0  0  0  0  0
  138.8390   80.8180  224.5780 F   0  0  0  0  0  0  0  0  0  0  0  0
  138.2260   80.9600  222.2580 C   0  0  0  0  0  0  0  0  0  0  0  0
  137.9740   80.3750  221.0370 C   0  0  0  0  0  0  0  0  0  0  0  0
  138.1030   78.9930  220.9530 C   0  0  0  0  0  0  0  0  0  0  0  0
  137.8600   78.4090  219.7660 F   0  0  0  0  0  0  0  0  0  0  0  0
  141.0130   76.5820  220.3620 N   0  0  0  0  0  0  0  0  0  0  0  0
  141.3390   75.4190  219.6050 C   0  0  0  0  0  0  0  0  0  0  0  0
  142.7940   75.6120  219.1600 C   0  0  0  0  0  0  0  0  0  0  0  0
  142.9210   77.1420  219.1990 C   0  0  0  0  0  0  0  0  0  0  0  0
  142.1540   77.4270  220.4700 C   0  0  1  0  0  0  0  0  0  0  0  0
  141.7680   78.8570  220.5740 C   0  0  0  0  0  0  0  0  0  0  0  0
  141.1710   79.6650  219.6300 C   0  0  0  0  0  0  0  0  0  0  0  0
  141.0050   80.9000  220.1550 N   0  0  0  0  0  0  0  0  0  0  0  0
  141.4860   80.9090  221.4320 C   0  0  0  0  0  0  0  0  0  0  0  0
  141.5440   81.9320  222.3850 C   0  0  0  0  0  0  0  0  0  0  0  0
  142.1010   81.6130  223.6040 C   0  0  0  0  0  0  0  0  0  0  0  0
  142.5830   80.3500  223.8890 C   0  0  0  0  0  0  0  0  0  0  0  0
  142.5200   79.3360  222.9310 C   0  0  0  0  0  0  0  0  0  0  0  0
  141.9650   79.6390  221.7030 C   0  0  0  0  0  0  0  0  0  0  0  0
  138.0890   76.4535  221.0195 H   0  0  0  0  0  0  0  0  0  0  0  0
  138.1354   76.3179  222.8338 H   0  0  0  0  0  0  0  0  0  0  0  0
  139.0114   78.2926  224.1745 H   0  0  0  0  0  0  0  0  0  0  0  0
  138.1299   82.0525  222.3433 H   0  0  0  0  0  0  0  0  0  0  0  0
  137.6825   80.9767  220.1635 H   0  0  0  0  0  0  0  0  0  0  0  0
  141.2440   74.5167  220.2270 H   0  0  0  0  0  0  0  0  0  0  0  0
  140.6641   75.2896  218.7461 H   0  0  0  0  0  0  0  0  0  0  0  0
  143.4955   75.1319  219.8581 H   0  0  0  0  0  0  0  0  0  0  0  0
  143.0288   75.1656  218.1825 H   0  0  0  0  0  0  0  0  0  0  0  0
  143.9701   77.4644  219.2724 H   0  0  0  0  0  0  0  0  0  0  0  0
  142.5520   77.6642  218.3039 H   0  0  0  0  0  0  0  0  0  0  0  0
  142.7468   77.2332  221.3761 H   0  0  0  0  0  0  0  0  0  0  0  0
  140.8778   79.3558  218.6159 H   0  0  0  0  0  0  0  0  0  0  0  0
  140.5780   81.7320  219.6790 H   0  0  0  0  0  0  0  0  0  0  0  0
  141.1634   82.9417  222.1712 H   0  0  0  0  0  0  0  0  0  0  0  0
  142.1642   82.3919  224.3782 H   0  0  0  0  0  0  0  0  0  0  0  0
  143.0193   80.1418  224.8771 H   0  0  0  0  0  0  0  0  0  0  0  0
  142.9007   78.3270  223.1476 H   0  0  0  0  0  0  0  0  0  0  0  0
  1  2  2  0
  2  3  2  0
  2  4  1  0
  4  5  1  0
  5  6  2  0
  6  7  1  0
  7  8  1  0
  7  9  2  0
  9 10  1  0
 10 11  2  0
 11 12  1  0
  2 13  1  0
 13 14  1  0
 14 15  1  0
 15 16  1  0
 16 17  1  0
 17 18  1  0
 18 19  2  0
 19 20  1  0
 20 21  1  0
 21 22  2  0
 22 23  1  0
 23 24  2  0
 24 25  1  0
 25 26  2  0
 11  5  1  0
 17 13  1  0
 26 18  1  0
 26 21  1  0
  4 27  1  0
  4 28  1  0
  6 29  1  0
  9 30  1  0
 10 31  1  0
 14 32  1  0
 14 33  1  0
 15 34  1  0
 15 35  1  0
 16 36  1  0
 16 37  1  0
 17 38  1  1
 19 39  1  0
 20 40  1  0
 22 41  1  0
 23 42  1  0
 24 43  1  0
 25 44  1  0
M  END
>  <smiles>  (4) 
O=S(=O)(Cc1cc(F)ccc1F)N1CCC[C@H]1c1c[nH]c2ccccc12

>  <score_type>  (4) 
oracle

>  <origin>  (4) 
autodockgpu

>  <m_score__min__energy>  (4) 
-7.6900000000000004

>  <m_primary>  (4) 
energy

>  <meeko>  (4) 
{"free_energy": -6.38, "intermolecular_energy": -7.58, "internal_energy": -2.66, "cluster_size": 19, "cluster_id": 2, "rank_in_cluster": 11}

>  <energy>  (4) 
-6.39

>  <cluster_rmsd>  (4) 
0.02

>  <rmsd>  (4) 
271.27

>  <cluster>  (4) 
2

$$$$

     RDKit          3D

 44 47  0  0  0  0  0  0  0  0999 V2000
  140.3600   74.7390  222.0890 O   0  0  0  0  0  0  0  0  0  0  0  0
  140.2930   76.2230  221.8800 S   0  0  0  0  0  0  0  0  0  0  0  0
  141.0770   76.8830  222.9540 O   0  0  0  0  0  0  0  0  0  0  0  0
  138.6020   76.7580  221.9460 C   0  0  0  0  0  0  0  0  0  0  0  0
  138.4750   78.2320  222.0850 C   0  0  0  0  0  0  0  0  0  0  0  0
  138.7500   78.8610  223.3000 C   0  0  0  0  0  0  0  0  0  0  0  0
  138.6160   80.2300  223.3930 C   0  0  0  0  0  0  0  0  0  0  0  0
  138.8930   80.7950  224.5930 F   0  0  0  0  0  0  0  0  0  0  0  0
  138.2180   80.9440  222.2900 C   0  0  0  0  0  0  0  0  0  0  0  0
  137.9370   80.3640  221.0740 C   0  0  0  0  0  0  0  0  0  0  0  0
  138.0710   78.9830  220.9790 C   0  0  0  0  0  0  0  0  0  0  0  0
  137.8010   78.4030  219.7960 F   0  0  0  0  0  0  0  0  0  0  0  0
  141.0190   76.5780  220.3630 N   0  0  0  0  0  0  0  0  0  0  0  0
  141.3520   75.4160  219.6090 C   0  0  0  0  0  0  0  0  0  0  0  0
  142.8060   75.6160  219.1630 C   0  0  0  0  0  0  0  0  0  0  0  0
  142.9250   77.1480  219.2000 C   0  0  0  0  0  0  0  0  0  0  0  0
  142.1560   77.4300  220.4710 C   0  0  1  0  0  0  0  0  0  0  0  0
  141.7610   78.8570  220.5730 C   0  0  0  0  0  0  0  0  0  0  0  0
  141.1520   79.6580  219.6300 C   0  0  0  0  0  0  0  0  0  0  0  0
  140.9810   80.8940  220.1530 N   0  0  0  0  0  0  0  0  0  0  0  0
  141.4720   80.9110  221.4260 C   0  0  0  0  0  0  0  0  0  0  0  0
  141.5290   81.9370  222.3750 C   0  0  0  0  0  0  0  0  0  0  0  0
  142.0980   81.6260  223.5910 C   0  0  0  0  0  0  0  0  0  0  0  0
  142.5900   80.3670  223.8770 C   0  0  0  0  0  0  0  0  0  0  0  0
  142.5260   79.3490  222.9220 C   0  0  0  0  0  0  0  0  0  0  0  0
  141.9610   79.6450  221.6980 C   0  0  0  0  0  0  0  0  0  0  0  0
  138.0973   76.4465  221.0195 H   0  0  0  0  0  0  0  0  0  0  0  0
  138.1411   76.2984  222.8327 H   0  0  0  0  0  0  0  0  0  0  0  0
  139.0696   78.2721  224.1724 H   0  0  0  0  0  0  0  0  0  0  0  0
  138.1186   82.0356  222.3829 H   0  0  0  0  0  0  0  0  0  0  0  0
  137.6191   80.9685  220.2117 H   0  0  0  0  0  0  0  0  0  0  0  0
  141.2624   74.5146  220.2331 H   0  0  0  0  0  0  0  0  0  0  0  0
  140.6779   75.2811  218.7503 H   0  0  0  0  0  0  0  0  0  0  0  0
  143.5104   75.1405  219.8614 H   0  0  0  0  0  0  0  0  0  0  0  0
  143.0427   75.1695  218.1860 H   0  0  0  0  0  0  0  0  0  0  0  0
  143.9724   77.4762  219.2732 H   0  0  0  0  0  0  0  0  0  0  0  0
  142.5536   77.6673  218.3042 H   0  0  0  0  0  0  0  0  0  0  0  0
  142.7500   77.2407  221.3773 H   0  0  0  0  0  0  0  0  0  0  0  0
  140.8542   79.3437  218.6188 H   0  0  0  0  0  0  0  0  0  0  0  0
  140.5460   81.7220  219.6760 H   0  0  0  0  0  0  0  0  0  0  0  0
  141.1387   82.9429  222.1611 H   0  0  0  0  0  0  0  0  0  0  0  0
  142.1628   82.4083  224.3616 H   0  0  0  0  0  0  0  0  0  0  0  0
  143.0348   80.1648  224.8625 H   0  0  0  0  0  0  0  0  0  0  0  0
  142.9139   78.3428  223.1390 H   0  0  0  0  0  0  0  0  0  0  0  0
  1  2  2  0
  2  3  2  0
  2  4  1  0
  4  5  1  0
  5  6  2  0
  6  7  1  0
  7  8  1  0
  7  9  2  0
  9 10  1  0
 10 11  2  0
 11 12  1  0
  2 13  1  0
 13 14  1  0
 14 15  1  0
 15 16  1  0
 16 17  1  0
 17 18  1  0
 18 19  2  0
 19 20  1  0
 20 21  1  0
 21 22  2  0
 22 23  1  0
 23 24  2  0
 24 25  1  0
 25 26  2  0
 11  5  1  0
 17 13  1  0
 26 18  1  0
 26 21  1  0
  4 27  1  0
  4 28  1  0
  6 29  1  0
  9 30  1  0
 10 31  1  0
 14 32  1  0
 14 33  1  0
 15 34  1  0
 15 35  1  0
 16 36  1  0
 16 37  1  0
 17 38  1  1
 19 39  1  0
 20 40  1  0
 22 41  1  0
 23 42  1  0
 24 43  1  0
 25 44  1  0
M  END
>  <smiles>  (5) 
O=S(=O)(Cc1cc(F)ccc1F)N1CCC[C@H]1c1c[nH]c2ccccc12

>  <score_type>  (5) 
oracle

>  <origin>  (5) 
autodockgpu

>  <m_score__min__energy>  (5) 
-7.6900000000000004

>  <m_primary>  (5) 
energy

>  <meeko>  (5) 
{"free_energy": -6.38, "intermolecular_energy": -7.57, "internal_energy": -2.66, "cluster_size": 19, "cluster_id": 2, "rank_in_cluster": 16}

>  <energy>  (5) 
-6.39

>  <cluster_rmsd>  (5) 
0.01

>  <rmsd>  (5) 
271.27

>  <cluster>  (5) 
2

$$$$

     RDKit          3D

 44 47  0  0  0  0  0  0  0  0999 V2000
  140.3390   74.7640  222.1130 O   0  0  0  0  0  0  0  0  0  0  0  0
  140.2780   76.2480  221.8990 S   0  0  0  0  0  0  0  0  0  0  0  0
  141.0750   76.9080  222.9640 O   0  0  0  0  0  0  0  0  0  0  0  0
  138.5910   76.7920  221.9780 C   0  0  0  0  0  0  0  0  0  0  0  0
  138.4720   78.2680  222.0980 C   0  0  0  0  0  0  0  0  0  0  0  0
  138.7120   78.9070  223.3150 C   0  0  0  0  0  0  0  0  0  0  0  0
  138.5880   80.2780  223.3900 C   0  0  0  0  0  0  0  0  0  0  0  0
  138.8300   80.8530  224.5930 F   0  0  0  0  0  0  0  0  0  0  0  0
  138.2310   80.9840  222.2680 C   0  0  0  0  0  0  0  0  0  0  0  0
  137.9850   80.3940  221.0490 C   0  0  0  0  0  0  0  0  0  0  0  0
  138.1100   79.0110  220.9730 C   0  0  0  0  0  0  0  0  0  0  0  0
  137.8730   78.4220  219.7870 F   0  0  0  0  0  0  0  0  0  0  0  0
  140.9930   76.5940  220.3750 N   0  0  0  0  0  0  0  0  0  0  0  0
  141.3020   75.4280  219.6160 C   0  0  0  0  0  0  0  0  0  0  0  0
  142.7540   75.6100  219.1550 C   0  0  0  0  0  0  0  0  0  0  0  0
  142.8940   77.1390  219.1920 C   0  0  0  0  0  0  0  0  0  0  0  0
  142.1420   77.4310  220.4710 C   0  0  1  0  0  0  0  0  0  0  0  0
  141.7670   78.8630  220.5780 C   0  0  0  0  0  0  0  0  0  0  0  0
  141.1810   79.6800  219.6330 C   0  0  0  0  0  0  0  0  0  0  0  0
  141.0230   80.9150  220.1620 N   0  0  0  0  0  0  0  0  0  0  0  0
  141.4990   80.9150  221.4410 C   0  0  0  0  0  0  0  0  0  0  0  0
  141.5600   81.9350  222.3970 C   0  0  0  0  0  0  0  0  0  0  0  0
  142.1100   81.6070  223.6180 C   0  0  0  0  0  0  0  0  0  0  0  0
  142.5800   80.3400  223.9010 C   0  0  0  0  0  0  0  0  0  0  0  0
  142.5120   79.3290  222.9390 C   0  0  0  0  0  0  0  0  0  0  0  0
  141.9660   79.6410  221.7100 C   0  0  0  0  0  0  0  0  0  0  0  0
  138.0737   76.4701  221.0621 H   0  0  0  0  0  0  0  0  0  0  0  0
  138.1391   76.3470  222.8767 H   0  0  0  0  0  0  0  0  0  0  0  0
  138.9966   78.3241  224.2034 H   0  0  0  0  0  0  0  0  0  0  0  0
  138.1367   82.0771  222.3472 H   0  0  0  0  0  0  0  0  0  0  0  0
  137.7011   80.9921  220.1706 H   0  0  0  0  0  0  0  0  0  0  0  0
  141.2071   74.5271  220.2400 H   0  0  0  0  0  0  0  0  0  0  0  0
  140.6169   75.3026  218.7646 H   0  0  0  0  0  0  0  0  0  0  0  0
  143.4593   75.1245  219.8456 H   0  0  0  0  0  0  0  0  0  0  0  0
  142.9743   75.1617  218.1749 H   0  0  0  0  0  0  0  0  0  0  0  0
  143.9464   77.4527  219.2547 H   0  0  0  0  0  0  0  0  0  0  0  0
  142.5203   77.6638  218.3004 H   0  0  0  0  0  0  0  0  0  0  0  0
  142.7431   77.2338  221.3709 H   0  0  0  0  0  0  0  0  0  0  0  0
  140.8901   79.3769  218.6164 H   0  0  0  0  0  0  0  0  0  0  0  0
  140.6050   81.7510  219.6860 H   0  0  0  0  0  0  0  0  0  0  0  0
  141.1877   82.9481  222.1849 H   0  0  0  0  0  0  0  0  0  0  0  0
  142.1768   82.3829  224.3949 H   0  0  0  0  0  0  0  0  0  0  0  0
  143.0107   80.1251  224.8901 H   0  0  0  0  0  0  0  0  0  0  0  0
  142.8821   78.3157  223.1542 H   0  0  0  0  0  0  0  0  0  0  0  0
  1  2  2  0
  2  3  2  0
  2  4  1  0
  4  5  1  0
  5  6  2  0
  6  7  1  0
  7  8  1  0
  7  9  2  0
  9 10  1  0
 10 11  2  0
 11 12  1  0
  2 13  1  0
 13 14  1  0
 14 15  1  0
 15 16  1  0
 16 17  1  0
 17 18  1  0
 18 19  2  0
 19 20  1  0
 20 21  1  0
 21 22  2  0
 22 23  1  0
 23 24  2  0
 24 25  1  0
 25 26  2  0
 11  5  1  0
 17 13  1  0
 26 18  1  0
 26 21  1  0
  4 27  1  0
  4 28  1  0
  6 29  1  0
  9 30  1  0
 10 31  1  0
 14 32  1  0
 14 33  1  0
 15 34  1  0
 15 35  1  0
 16 36  1  0
 16 37  1  0
 17 38  1  1
 19 39  1  0
 20 40  1  0
 22 41  1  0
 23 42  1  0
 24 43  1  0
 25 44  1  0
M  END
>  <smiles>  (6) 
O=S(=O)(Cc1cc(F)ccc1F)N1CCC[C@H]1c1c[nH]c2ccccc12

>  <score_type>  (6) 
oracle

>  <origin>  (6) 
autodockgpu

>  <m_score__min__energy>  (6) 
-7.6900000000000004

>  <m_primary>  (6) 
energy

>  <meeko>  (6) 
{"free_energy": -6.39, "intermolecular_energy": -7.59, "internal_energy": -2.66, "cluster_size": 19, "cluster_id": 2, "rank_in_cluster": 1}

>  <energy>  (6) 
-6.39

>  <cluster_rmsd>  (6) 
0.02

>  <rmsd>  (6) 
271.27

>  <cluster>  (6) 
2

$$$$

     RDKit          3D

 44 47  0  0  0  0  0  0  0  0999 V2000
  140.3440   74.7570  222.1090 O   0  0  0  0  0  0  0  0  0  0  0  0
  140.2820   76.2410  221.8970 S   0  0  0  0  0  0  0  0  0  0  0  0
  141.0750   76.9010  222.9640 O   0  0  0  0  0  0  0  0  0  0  0  0
  138.5940   76.7830  221.9700 C   0  0  0  0  0  0  0  0  0  0  0  0
  138.4740   78.2590  222.0960 C   0  0  0  0  0  0  0  0  0  0  0  0
  138.7130   78.8940  223.3150 C   0  0  0  0  0  0  0  0  0  0  0  0
  138.5870   80.2650  223.3950 C   0  0  0  0  0  0  0  0  0  0  0  0
  138.8290   80.8360  224.5990 F   0  0  0  0  0  0  0  0  0  0  0  0
  138.2300   80.9750  222.2750 C   0  0  0  0  0  0  0  0  0  0  0  0
  137.9850   80.3880  221.0540 C   0  0  0  0  0  0  0  0  0  0  0  0
  138.1120   79.0050  220.9730 C   0  0  0  0  0  0  0  0  0  0  0  0
  137.8760   78.4200  219.7850 F   0  0  0  0  0  0  0  0  0  0  0  0
  141.0020   76.5900  220.3750 N   0  0  0  0  0  0  0  0  0  0  0  0
  141.3200   75.4250  219.6180 C   0  0  0  0  0  0  0  0  0  0  0  0
  142.7720   75.6120  219.1630 C   0  0  0  0  0  0  0  0  0  0  0  0
  142.9050   77.1430  219.1990 C   0  0  0  0  0  0  0  0  0  0  0  0
  142.1470   77.4310  220.4750 C   0  0  1  0  0  0  0  0  0  0  0  0
  141.7650   78.8620  220.5800 C   0  0  0  0  0  0  0  0  0  0  0  0
  141.1700   79.6730  219.6350 C   0  0  0  0  0  0  0  0  0  0  0  0
  141.0080   80.9090  220.1610 N   0  0  0  0  0  0  0  0  0  0  0  0
  141.4900   80.9150  221.4380 C   0  0  0  0  0  0  0  0  0  0  0  0
  141.5510   81.9380  222.3910 C   0  0  0  0  0  0  0  0  0  0  0  0
  142.1070   81.6160  223.6100 C   0  0  0  0  0  0  0  0  0  0  0  0
  142.5850   80.3520  223.8950 C   0  0  0  0  0  0  0  0  0  0  0  0
  142.5180   79.3380  222.9360 C   0  0  0  0  0  0  0  0  0  0  0  0
  141.9650   79.6440  221.7090 C   0  0  0  0  0  0  0  0  0  0  0  0
  138.0815   76.4648  221.0502 H   0  0  0  0  0  0  0  0  0  0  0  0
  138.1375   76.3335  222.8642 H   0  0  0  0  0  0  0  0  0  0  0  0
  138.9984   78.3084  224.2014 H   0  0  0  0  0  0  0  0  0  0  0  0
  138.1350   82.0678  222.3576 H   0  0  0  0  0  0  0  0  0  0  0  0
  137.7002   80.9885  220.1775 H   0  0  0  0  0  0  0  0  0  0  0  0
  141.2263   74.5241  220.2422 H   0  0  0  0  0  0  0  0  0  0  0  0
  140.6392   75.2967  218.7635 H   0  0  0  0  0  0  0  0  0  0  0  0
  143.4765   75.1303  219.8570 H   0  0  0  0  0  0  0  0  0  0  0  0
  142.9985   75.1634  218.1845 H   0  0  0  0  0  0  0  0  0  0  0  0
  143.9557   77.4619  219.2653 H   0  0  0  0  0  0  0  0  0  0  0  0
  142.5326   77.6658  218.3057 H   0  0  0  0  0  0  0  0  0  0  0  0
  142.7456   77.2356  221.3769 H   0  0  0  0  0  0  0  0  0  0  0  0
  140.8758   79.3651  218.6208 H   0  0  0  0  0  0  0  0  0  0  0  0
  140.5850   81.7420  219.6850 H   0  0  0  0  0  0  0  0  0  0  0  0
  141.1738   82.9490  222.1776 H   0  0  0  0  0  0  0  0  0  0  0  0
  142.1725   82.3943  224.3846 H   0  0  0  0  0  0  0  0  0  0  0  0
  143.0211   80.1423  224.8829 H   0  0  0  0  0  0  0  0  0  0  0  0
  142.8943   78.3272  223.1522 H   0  0  0  0  0  0  0  0  0  0  0  0
  1  2  2  0
  2  3  2  0
  2  4  1  0
  4  5  1  0
  5  6  2  0
  6  7  1  0
  7  8  1  0
  7  9  2  0
  9 10  1  0
 10 11  2  0
 11 12  1  0
  2 13  1  0
 13 14  1  0
 14 15  1  0
 15 16  1  0
 16 17  1  0
 17 18  1  0
 18 19  2  0
 19 20  1  0
 20 21  1  0
 21 22  2  0
 22 23  1  0
 23 24  2  0
 24 25  1  0
 25 26  2  0
 11  5  1  0
 17 13  1  0
 26 18  1  0
 26 21  1  0
  4 27  1  0
  4 28  1  0
  6 29  1  0
  9 30  1  0
 10 31  1  0
 14 32  1  0
 14 33  1  0
 15 34  1  0
 15 35  1  0
 16 36  1  0
 16 37  1  0
 17 38  1  1
 19 39  1  0
 20 40  1  0
 22 41  1  0
 23 42  1  0
 24 43  1  0
 25 44  1  0
M  END
>  <smiles>  (7) 
O=S(=O)(Cc1cc(F)ccc1F)N1CCC[C@H]1c1c[nH]c2ccccc12

>  <score_type>  (7) 
oracle

>  <origin>  (7) 
autodockgpu

>  <m_score__min__energy>  (7) 
-7.6900000000000004

>  <m_primary>  (7) 
energy

>  <meeko>  (7) 
{"free_energy": -6.39, "intermolecular_energy": -7.58, "internal_energy": -2.66, "cluster_size": 19, "cluster_id": 2, "rank_in_cluster": 4}

>  <energy>  (7) 
-6.39

>  <cluster_rmsd>  (7) 
0.03

>  <rmsd>  (7) 
271.27

>  <cluster>  (7) 
2

$$$$

     RDKit          3D

 44 47  0  0  0  0  0  0  0  0999 V2000
  140.3540   74.7390  222.0810 O   0  0  0  0  0  0  0  0  0  0  0  0
  140.2980   76.2240  221.8710 S   0  0  0  0  0  0  0  0  0  0  0  0
  141.0840   76.8780  222.9480 O   0  0  0  0  0  0  0  0  0  0  0  0
  138.6120   76.7710  221.9310 C   0  0  0  0  0  0  0  0  0  0  0  0
  138.4950   78.2460  222.0640 C   0  0  0  0  0  0  0  0  0  0  0  0
  138.7490   78.8760  223.2830 C   0  0  0  0  0  0  0  0  0  0  0  0
  138.6260   80.2470  223.3700 C   0  0  0  0  0  0  0  0  0  0  0  0
  138.8820   80.8120  224.5740 F   0  0  0  0  0  0  0  0  0  0  0  0
  138.2570   80.9610  222.2560 C   0  0  0  0  0  0  0  0  0  0  0  0
  137.9980   80.3800  221.0360 C   0  0  0  0  0  0  0  0  0  0  0  0
  138.1220   78.9980  220.9480 C   0  0  0  0  0  0  0  0  0  0  0  0
  137.8710   78.4170  219.7610 F   0  0  0  0  0  0  0  0  0  0  0  0
  141.0330   76.5730  220.3570 N   0  0  0  0  0  0  0  0  0  0  0  0
  141.3570   75.4090  219.6020 C   0  0  0  0  0  0  0  0  0  0  0  0
  142.8150   75.5960  219.1620 C   0  0  0  0  0  0  0  0  0  0  0  0
  142.9480   77.1260  219.2010 C   0  0  0  0  0  0  0  0  0  0  0  0
  142.1770   77.4140  220.4690 C   0  0  1  0  0  0  0  0  0  0  0  0
  141.7960   78.8450  220.5720 C   0  0  0  0  0  0  0  0  0  0  0  0
  141.2040   79.6550  219.6260 C   0  0  0  0  0  0  0  0  0  0  0  0
  141.0410   80.8910  220.1500 N   0  0  0  0  0  0  0  0  0  0  0  0
  141.5190   80.8990  221.4280 C   0  0  0  0  0  0  0  0  0  0  0  0
  141.5780   81.9220  222.3810 C   0  0  0  0  0  0  0  0  0  0  0  0
  142.1310   81.6010  223.6020 C   0  0  0  0  0  0  0  0  0  0  0  0
  142.6080   80.3370  223.8880 C   0  0  0  0  0  0  0  0  0  0  0  0
  142.5430   79.3220  222.9300 C   0  0  0  0  0  0  0  0  0  0  0  0
  141.9930   79.6270  221.7010 C   0  0  0  0  0  0  0  0  0  0  0  0
  138.1073   76.4595  221.0046 H   0  0  0  0  0  0  0  0  0  0  0  0
  138.1459   76.3182  222.8185 H   0  0  0  0  0  0  0  0  0  0  0  0
  139.0437   78.2864  224.1637 H   0  0  0  0  0  0  0  0  0  0  0  0
  138.1638   82.0535  222.3438 H   0  0  0  0  0  0  0  0  0  0  0  0
  137.7046   80.9846  220.1652 H   0  0  0  0  0  0  0  0  0  0  0  0
  141.2561   74.5074  220.2240 H   0  0  0  0  0  0  0  0  0  0  0  0
  140.6847   75.2820  218.7407 H   0  0  0  0  0  0  0  0  0  0  0  0
  143.5121   75.1133  219.8628 H   0  0  0  0  0  0  0  0  0  0  0  0
  143.0516   75.1483  218.1855 H   0  0  0  0  0  0  0  0  0  0  0  0
  143.9981   77.4443  219.2785 H   0  0  0  0  0  0  0  0  0  0  0  0
  142.5848   77.6495  218.3043 H   0  0  0  0  0  0  0  0  0  0  0  0
  142.7659   77.2180  221.3772 H   0  0  0  0  0  0  0  0  0  0  0  0
  140.9121   79.3463  218.6113 H   0  0  0  0  0  0  0  0  0  0  0  0
  140.6190   81.7240  219.6720 H   0  0  0  0  0  0  0  0  0  0  0  0
  141.2014   82.9330  222.1661 H   0  0  0  0  0  0  0  0  0  0  0  0
  142.1947   82.3796  224.3764 H   0  0  0  0  0  0  0  0  0  0  0  0
  143.0421   80.1278  224.8768 H   0  0  0  0  0  0  0  0  0  0  0  0
  142.9184   78.3113  223.1482 H   0  0  0  0  0  0  0  0  0  0  0  0
  1  2  2  0
  2  3  2  0
  2  4  1  0
  4  5  1  0
  5  6  2  0
  6  7  1  0
  7  8  1  0
  7  9  2  0
  9 10  1  0
 10 11  2  0
 11 12  1  0
  2 13  1  0
 13 14  1  0
 14 15  1  0
 15 16  1  0
 16 17  1  0
 17 18  1  0
 18 19  2  0
 19 20  1  0
 20 21  1  0
 21 22  2  0
 22 23  1  0
 23 24  2  0
 24 25  1  0
 25 26  2  0
 11  5  1  0
 17 13  1  0
 26 18  1  0
 26 21  1  0
  4 27  1  0
  4 28  1  0
  6 29  1  0
  9 30  1  0
 10 31  1  0
 14 32  1  0
 14 33  1  0
 15 34  1  0
 15 35  1  0
 16 36  1  0
 16 37  1  0
 17 38  1  1
 19 39  1  0
 20 40  1  0
 22 41  1  0
 23 42  1  0
 24 43  1  0
 25 44  1  0
M  END
>  <smiles>  (8) 
O=S(=O)(Cc1cc(F)ccc1F)N1CCC[C@H]1c1c[nH]c2ccccc12

>  <score_type>  (8) 
oracle

>  <origin>  (8) 
autodockgpu

>  <m_score__min__energy>  (8) 
-7.6900000000000004

>  <m_primary>  (8) 
energy

>  <meeko>  (8) 
{"free_energy": -6.38, "intermolecular_energy": -7.57, "internal_energy": -2.66, "cluster_size": 19, "cluster_id": 2, "rank_in_cluster": 17}

>  <energy>  (8) 
-6.39

>  <cluster_rmsd>  (8) 
0.02

>  <rmsd>  (8) 
271.27

>  <cluster>  (8) 
2

$$$$

     RDKit          3D

 44 47  0  0  0  0  0  0  0  0999 V2000
  140.3530   74.7420  222.0890 O   0  0  0  0  0  0  0  0  0  0  0  0
  140.2840   76.2270  221.8800 S   0  0  0  0  0  0  0  0  0  0  0  0
  141.0760   76.8880  222.9480 O   0  0  0  0  0  0  0  0  0  0  0  0
  138.5940   76.7610  221.9560 C   0  0  0  0  0  0  0  0  0  0  0  0
  138.4670   78.2360  222.0860 C   0  0  0  0  0  0  0  0  0  0  0  0
  138.7210   78.8700  223.3030 C   0  0  0  0  0  0  0  0  0  0  0  0
  138.5890   80.2400  223.3870 C   0  0  0  0  0  0  0  0  0  0  0  0
  138.8450   80.8100  224.5890 F   0  0  0  0  0  0  0  0  0  0  0  0
  138.2120   80.9500  222.2740 C   0  0  0  0  0  0  0  0  0  0  0  0
  137.9520   80.3640  221.0550 C   0  0  0  0  0  0  0  0  0  0  0  0
  138.0850   78.9820  220.9700 C   0  0  0  0  0  0  0  0  0  0  0  0
  137.8350   78.3980  219.7850 F   0  0  0  0  0  0  0  0  0  0  0  0
  141.0010   76.5810  220.3580 N   0  0  0  0  0  0  0  0  0  0  0  0
  141.3240   75.4190  219.5990 C   0  0  0  0  0  0  0  0  0  0  0  0
  142.7750   75.6140  219.1430 C   0  0  0  0  0  0  0  0  0  0  0  0
  142.9000   77.1450  219.1820 C   0  0  0  0  0  0  0  0  0  0  0  0
  142.1420   77.4280  220.4580 C   0  0  1  0  0  0  0  0  0  0  0  0
  141.7530   78.8570  220.5650 C   0  0  0  0  0  0  0  0  0  0  0  0
  141.1480   79.6650  219.6250 C   0  0  0  0  0  0  0  0  0  0  0  0
  140.9830   80.8990  220.1520 N   0  0  0  0  0  0  0  0  0  0  0  0
  141.4730   80.9090  221.4260 C   0  0  0  0  0  0  0  0  0  0  0  0
  141.5350   81.9310  222.3790 C   0  0  0  0  0  0  0  0  0  0  0  0
  142.1010   81.6120  223.5940 C   0  0  0  0  0  0  0  0  0  0  0  0
  142.5870   80.3510  223.8750 C   0  0  0  0  0  0  0  0  0  0  0  0
  142.5190   79.3370  222.9170 C   0  0  0  0  0  0  0  0  0  0  0  0
  141.9560   79.6400  221.6930 C   0  0  0  0  0  0  0  0  0  0  0  0
  138.0821   76.4429  221.0358 H   0  0  0  0  0  0  0  0  0  0  0  0
  138.1406   76.3071  222.8495 H   0  0  0  0  0  0  0  0  0  0  0  0
  139.0226   78.2844  224.1839 H   0  0  0  0  0  0  0  0  0  0  0  0
  138.1126   82.0421  222.3602 H   0  0  0  0  0  0  0  0  0  0  0  0
  137.6513   80.9646  220.1839 H   0  0  0  0  0  0  0  0  0  0  0  0
  141.2353   74.5167  220.2219 H   0  0  0  0  0  0  0  0  0  0  0  0
  140.6431   75.2887  218.7449 H   0  0  0  0  0  0  0  0  0  0  0  0
  143.4825   75.1345  219.8354 H   0  0  0  0  0  0  0  0  0  0  0  0
  143.0030   75.1683  218.1635 H   0  0  0  0  0  0  0  0  0  0  0  0
  143.9491   77.4690  219.2481 H   0  0  0  0  0  0  0  0  0  0  0  0
  142.5238   77.6671  218.2899 H   0  0  0  0  0  0  0  0  0  0  0  0
  142.7423   77.2350  221.3593 H   0  0  0  0  0  0  0  0  0  0  0  0
  140.8488   79.3560  218.6126 H   0  0  0  0  0  0  0  0  0  0  0  0
  140.5520   81.7300  219.6790 H   0  0  0  0  0  0  0  0  0  0  0  0
  141.1507   82.9400  222.1687 H   0  0  0  0  0  0  0  0  0  0  0  0
  142.1680   82.3905  224.3682 H   0  0  0  0  0  0  0  0  0  0  0  0
  143.0308   80.1434  224.8599 H   0  0  0  0  0  0  0  0  0  0  0  0
  142.9020   78.3283  223.1309 H   0  0  0  0  0  0  0  0  0  0  0  0
  1  2  2  0
  2  3  2  0
  2  4  1  0
  4  5  1  0
  5  6  2  0
  6  7  1  0
  7  8  1  0
  7  9  2  0
  9 10  1  0
 10 11  2  0
 11 12  1  0
  2 13  1  0
 13 14  1  0
 14 15  1  0
 15 16  1  0
 16 17  1  0
 17 18  1  0
 18 19  2  0
 19 20  1  0
 20 21  1  0
 21 22  2  0
 22 23  1  0
 23 24  2  0
 24 25  1  0
 25 26  2  0
 11  5  1  0
 17 13  1  0
 26 18  1  0
 26 21  1  0
  4 27  1  0
  4 28  1  0
  6 29  1  0
  9 30  1  0
 10 31  1  0
 14 32  1  0
 14 33  1  0
 15 34  1  0
 15 35  1  0
 16 36  1  0
 16 37  1  0
 17 38  1  1
 19 39  1  0
 20 40  1  0
 22 41  1  0
 23 42  1  0
 24 43  1  0
 25 44  1  0
M  END
>  <smiles>  (9) 
O=S(=O)(Cc1cc(F)ccc1F)N1CCC[C@H]1c1c[nH]c2ccccc12

>  <score_type>  (9) 
oracle

>  <origin>  (9) 
autodockgpu

>  <m_score__min__energy>  (9) 
-7.6900000000000004

>  <m_primary>  (9) 
energy

>  <meeko>  (9) 
{"free_energy": -6.38, "intermolecular_energy": -7.58, "internal_energy": -2.66, "cluster_size": 19, "cluster_id": 2, "rank_in_cluster": 12}

>  <energy>  (9) 
-6.39

>  <cluster_rmsd>  (9) 
0.02

>  <rmsd>  (9) 
271.27

>  <cluster>  (9) 
2

$$$$

     RDKit          3D

 44 47  0  0  0  0  0  0  0  0999 V2000
  140.3410   74.7430  222.0660 O   0  0  0  0  0  0  0  0  0  0  0  0
  140.2820   76.2290  221.8660 S   0  0  0  0  0  0  0  0  0  0  0  0
  141.0710   76.8790  222.9430 O   0  0  0  0  0  0  0  0  0  0  0  0
  138.5940   76.7730  221.9360 C   0  0  0  0  0  0  0  0  0  0  0  0
  138.4750   78.2480  222.0720 C   0  0  0  0  0  0  0  0  0  0  0  0
  138.7110   78.8740  223.2970 C   0  0  0  0  0  0  0  0  0  0  0  0
  138.5870   80.2440  223.3870 C   0  0  0  0  0  0  0  0  0  0  0  0
  138.8240   80.8050  224.5960 F   0  0  0  0  0  0  0  0  0  0  0  0
  138.2350   80.9620  222.2710 C   0  0  0  0  0  0  0  0  0  0  0  0
  137.9940   80.3850  221.0440 C   0  0  0  0  0  0  0  0  0  0  0  0
  138.1190   79.0030  220.9530 C   0  0  0  0  0  0  0  0  0  0  0  0
  137.8870   78.4270  219.7610 F   0  0  0  0  0  0  0  0  0  0  0  0
  141.0090   76.5890  220.3510 N   0  0  0  0  0  0  0  0  0  0  0  0
  141.3280   75.4300  219.5850 C   0  0  0  0  0  0  0  0  0  0  0  0
  142.7830   75.6180  219.1390 C   0  0  0  0  0  0  0  0  0  0  0  0
  142.9190   77.1470  219.1890 C   0  0  0  0  0  0  0  0  0  0  0  0
  142.1560   77.4270  220.4630 C   0  0  1  0  0  0  0  0  0  0  0  0
  141.7770   78.8580  220.5790 C   0  0  0  0  0  0  0  0  0  0  0  0
  141.1880   79.6780  219.6400 C   0  0  0  0  0  0  0  0  0  0  0  0
  141.0260   80.9090  220.1750 N   0  0  0  0  0  0  0  0  0  0  0  0
  141.5030   80.9040  221.4530 C   0  0  0  0  0  0  0  0  0  0  0  0
  141.5630   81.9190  222.4160 C   0  0  0  0  0  0  0  0  0  0  0  0
  142.1140   81.5850  223.6340 C   0  0  0  0  0  0  0  0  0  0  0  0
  142.5880   80.3180  223.9100 C   0  0  0  0  0  0  0  0  0  0  0  0
  142.5220   79.3120  222.9420 C   0  0  0  0  0  0  0  0  0  0  0  0
  141.9740   79.6300  221.7150 C   0  0  0  0  0  0  0  0  0  0  0  0
  138.0848   76.4620  221.0118 H   0  0  0  0  0  0  0  0  0  0  0  0
  138.1335   76.3178  222.8252 H   0  0  0  0  0  0  0  0  0  0  0  0
  138.9925   78.2813  224.1799 H   0  0  0  0  0  0  0  0  0  0  0  0
  138.1406   82.0542  222.3616 H   0  0  0  0  0  0  0  0  0  0  0  0
  137.7139   80.9928  220.1710 H   0  0  0  0  0  0  0  0  0  0  0  0
  141.2291   74.5237  220.2006 H   0  0  0  0  0  0  0  0  0  0  0  0
  140.6512   75.3108  218.7261 H   0  0  0  0  0  0  0  0  0  0  0  0
  143.4829   75.1288  219.8323 H   0  0  0  0  0  0  0  0  0  0  0  0
  143.0135   75.1775  218.1578 H   0  0  0  0  0  0  0  0  0  0  0  0
  143.9701   77.4627  219.2630 H   0  0  0  0  0  0  0  0  0  0  0  0
  142.5516   77.6779  218.2984 H   0  0  0  0  0  0  0  0  0  0  0  0
  142.7504   77.2233  221.3659 H   0  0  0  0  0  0  0  0  0  0  0  0
  140.8974   79.3794  218.6220 H   0  0  0  0  0  0  0  0  0  0  0  0
  140.6060   81.7480  219.7040 H   0  0  0  0  0  0  0  0  0  0  0  0
  141.1888   82.9327  222.2103 H   0  0  0  0  0  0  0  0  0  0  0  0
  142.1786   82.3565  224.4154 H   0  0  0  0  0  0  0  0  0  0  0  0
  143.0201   80.0990  224.8976 H   0  0  0  0  0  0  0  0  0  0  0  0
  142.8950   78.2985  223.1510 H   0  0  0  0  0  0  0  0  0  0  0  0
  1  2  2  0
  2  3  2  0
  2  4  1  0
  4  5  1  0
  5  6  2  0
  6  7  1  0
  7  8  1  0
  7  9  2  0
  9 10  1  0
 10 11  2  0
 11 12  1  0
  2 13  1  0
 13 14  1  0
 14 15  1  0
 15 16  1  0
 16 17  1  0
 17 18  1  0
 18 19  2  0
 19 20  1  0
 20 21  1  0
 21 22  2  0
 22 23  1  0
 23 24  2  0
 24 25  1  0
 25 26  2  0
 11  5  1  0
 17 13  1  0
 26 18  1  0
 26 21  1  0
  4 27  1  0
  4 28  1  0
  6 29  1  0
  9 30  1  0
 10 31  1  0
 14 32  1  0
 14 33  1  0
 15 34  1  0
 15 35  1  0
 16 36  1  0
 16 37  1  0
 17 38  1  1
 19 39  1  0
 20 40  1  0
 22 41  1  0
 23 42  1  0
 24 43  1  0
 25 44  1  0
M  END
>  <smiles>  (10) 
O=S(=O)(Cc1cc(F)ccc1F)N1CCC[C@H]1c1c[nH]c2ccccc12

>  <score_type>  (10) 
oracle

>  <origin>  (10) 
autodockgpu

>  <m_score__min__energy>  (10) 
-7.6900000000000004

>  <m_primary>  (10) 
energy

>  <meeko>  (10) 
{"free_energy": -6.38, "intermolecular_energy": -7.57, "internal_energy": -2.66, "cluster_size": 19, "cluster_id": 2, "rank_in_cluster": 15}

>  <energy>  (10) 
-6.39

>  <cluster_rmsd>  (10) 
0.03

>  <rmsd>  (10) 
271.28

>  <cluster>  (10) 
2

$$$$

     RDKit          3D

 44 47  0  0  0  0  0  0  0  0999 V2000
  140.3500   74.7500  222.1200 O   0  0  0  0  0  0  0  0  0  0  0  0
  140.2820   76.2340  221.9080 S   0  0  0  0  0  0  0  0  0  0  0  0
  141.0830   76.8960  222.9690 O   0  0  0  0  0  0  0  0  0  0  0  0
  138.5940   76.7720  221.9960 C   0  0  0  0  0  0  0  0  0  0  0  0
  138.4710   78.2480  222.1130 C   0  0  0  0  0  0  0  0  0  0  0  0
  138.7270   78.8930  223.3230 C   0  0  0  0  0  0  0  0  0  0  0  0
  138.5980   80.2640  223.3950 C   0  0  0  0  0  0  0  0  0  0  0  0
  138.8570   80.8450  224.5910 F   0  0  0  0  0  0  0  0  0  0  0  0
  138.2210   80.9640  222.2750 C   0  0  0  0  0  0  0  0  0  0  0  0
  137.9590   80.3680  221.0620 C   0  0  0  0  0  0  0  0  0  0  0  0
  138.0890   78.9850  220.9900 C   0  0  0  0  0  0  0  0  0  0  0  0
  137.8360   78.3900  219.8100 F   0  0  0  0  0  0  0  0  0  0  0  0
  140.9880   76.5840  220.3800 N   0  0  0  0  0  0  0  0  0  0  0  0
  141.3000   75.4190  219.6200 C   0  0  0  0  0  0  0  0  0  0  0  0
  142.7490   75.6080  219.1520 C   0  0  0  0  0  0  0  0  0  0  0  0
  142.8800   77.1390  219.1880 C   0  0  0  0  0  0  0  0  0  0  0  0
  142.1330   77.4260  220.4700 C   0  0  1  0  0  0  0  0  0  0  0  0
  141.7510   78.8570  220.5790 C   0  0  0  0  0  0  0  0  0  0  0  0
  141.1580   79.6710  219.6370 C   0  0  0  0  0  0  0  0  0  0  0  0
  140.9950   80.9040  220.1660 N   0  0  0  0  0  0  0  0  0  0  0  0
  141.4750   80.9070  221.4430 C   0  0  0  0  0  0  0  0  0  0  0  0
  141.5350   81.9270  222.4000 C   0  0  0  0  0  0  0  0  0  0  0  0
  142.0900   81.6010  223.6190 C   0  0  0  0  0  0  0  0  0  0  0  0
  142.5670   80.3360  223.9000 C   0  0  0  0  0  0  0  0  0  0  0  0
  142.5020   79.3250  222.9380 C   0  0  0  0  0  0  0  0  0  0  0  0
  141.9500   79.6350  221.7110 C   0  0  0  0  0  0  0  0  0  0  0  0
  138.0722   76.4460  221.0842 H   0  0  0  0  0  0  0  0  0  0  0  0
  138.1489   76.3276  222.8985 H   0  0  0  0  0  0  0  0  0  0  0  0
  139.0282   78.3149  224.2091 H   0  0  0  0  0  0  0  0  0  0  0  0
  138.1234   82.0570  222.3512 H   0  0  0  0  0  0  0  0  0  0  0  0
  137.6591   80.9612  220.1856 H   0  0  0  0  0  0  0  0  0  0  0  0
  141.2127   74.5180  220.2449 H   0  0  0  0  0  0  0  0  0  0  0  0
  140.6117   75.2898  218.7717 H   0  0  0  0  0  0  0  0  0  0  0  0
  143.4602   75.1267  219.8394 H   0  0  0  0  0  0  0  0  0  0  0  0
  142.9676   75.1602  218.1714 H   0  0  0  0  0  0  0  0  0  0  0  0
  143.9308   77.4592  219.2454 H   0  0  0  0  0  0  0  0  0  0  0  0
  142.4988   77.6615  218.2982 H   0  0  0  0  0  0  0  0  0  0  0  0
  142.7395   77.2309  221.3667 H   0  0  0  0  0  0  0  0  0  0  0  0
  140.8655   79.3666  218.6212 H   0  0  0  0  0  0  0  0  0  0  0  0
  140.5720   81.7390  219.6920 H   0  0  0  0  0  0  0  0  0  0  0  0
  141.1579   82.9387  222.1896 H   0  0  0  0  0  0  0  0  0  0  0  0
  142.1552   82.3768  224.3961 H   0  0  0  0  0  0  0  0  0  0  0  0
  143.0011   80.1229  224.8880 H   0  0  0  0  0  0  0  0  0  0  0  0
  142.8787   78.3138  223.1514 H   0  0  0  0  0  0  0  0  0  0  0  0
  1  2  2  0
  2  3  2  0
  2  4  1  0
  4  5  1  0
  5  6  2  0
  6  7  1  0
  7  8  1  0
  7  9  2  0
  9 10  1  0
 10 11  2  0
 11 12  1  0
  2 13  1  0
 13 14  1  0
 14 15  1  0
 15 16  1  0
 16 17  1  0
 17 18  1  0
 18 19  2  0
 19 20  1  0
 20 21  1  0
 21 22  2  0
 22 23  1  0
 23 24  2  0
 24 25  1  0
 25 26  2  0
 11  5  1  0
 17 13  1  0
 26 18  1  0
 26 21  1  0
  4 27  1  0
  4 28  1  0
  6 29  1  0
  9 30  1  0
 10 31  1  0
 14 32  1  0
 14 33  1  0
 15 34  1  0
 15 35  1  0
 16 36  1  0
 16 37  1  0
 17 38  1  1
 19 39  1  0
 20 40  1  0
 22 41  1  0
 23 42  1  0
 24 43  1  0
 25 44  1  0
M  END
>  <smiles>  (11) 
O=S(=O)(Cc1cc(F)ccc1F)N1CCC[C@H]1c1c[nH]c2ccccc12

>  <score_type>  (11) 
oracle

>  <origin>  (11) 
autodockgpu

>  <m_score__min__energy>  (11) 
-7.6900000000000004

>  <m_primary>  (11) 
energy

>  <meeko>  (11) 
{"free_energy": -6.39, "intermolecular_energy": -7.58, "internal_energy": -2.65, "cluster_size": 19, "cluster_id": 2, "rank_in_cluster": 3}

>  <energy>  (11) 
-6.38

>  <cluster_rmsd>  (11) 
0.05

>  <rmsd>  (11) 
271.29

>  <cluster>  (11) 
2

$$$$

     RDKit          3D

 44 47  0  0  0  0  0  0  0  0999 V2000
  140.3550   74.7760  222.1630 O   0  0  0  0  0  0  0  0  0  0  0  0
  140.2870   76.2590  221.9400 S   0  0  0  0  0  0  0  0  0  0  0  0
  141.1010   76.9280  222.9850 O   0  0  0  0  0  0  0  0  0  0  0  0
  138.6010   76.8000  222.0420 C   0  0  0  0  0  0  0  0  0  0  0  0
  138.4800   78.2770  222.1440 C   0  0  0  0  0  0  0  0  0  0  0  0
  138.7510   78.9360  223.3440 C   0  0  0  0  0  0  0  0  0  0  0  0
  138.6240   80.3070  223.4020 C   0  0  0  0  0  0  0  0  0  0  0  0
  138.8960   80.9010  224.5890 F   0  0  0  0  0  0  0  0  0  0  0  0
  138.2370   80.9960  222.2790 C   0  0  0  0  0  0  0  0  0  0  0  0
  137.9610   80.3860  221.0760 C   0  0  0  0  0  0  0  0  0  0  0  0
  138.0880   79.0020  221.0170 C   0  0  0  0  0  0  0  0  0  0  0  0
  137.8220   78.3950  219.8470 F   0  0  0  0  0  0  0  0  0  0  0  0
  140.9760   76.5940  220.4010 N   0  0  0  0  0  0  0  0  0  0  0  0
  141.2730   75.4230  219.6450 C   0  0  0  0  0  0  0  0  0  0  0  0
  142.7160   75.6020  219.1580 C   0  0  0  0  0  0  0  0  0  0  0  0
  142.8550   77.1320  219.1820 C   0  0  0  0  0  0  0  0  0  0  0  0
  142.1260   77.4320  220.4710 C   0  0  1  0  0  0  0  0  0  0  0  0
  141.7520   78.8650  220.5750 C   0  0  0  0  0  0  0  0  0  0  0  0
  141.1370   79.6710  219.6400 C   0  0  0  0  0  0  0  0  0  0  0  0
  140.9930   80.9110  220.1600 N   0  0  0  0  0  0  0  0  0  0  0  0
  141.5060   80.9250  221.4240 C   0  0  0  0  0  0  0  0  0  0  0  0
  141.5940   81.9550  222.3680 C   0  0  0  0  0  0  0  0  0  0  0  0
  142.1800   81.6390  223.5760 C   0  0  0  0  0  0  0  0  0  0  0  0
  142.6590   80.3750  223.8570 C   0  0  0  0  0  0  0  0  0  0  0  0
  142.5650   79.3550  222.9080 C   0  0  0  0  0  0  0  0  0  0  0  0
  141.9830   79.6540  221.6920 C   0  0  0  0  0  0  0  0  0  0  0  0
  138.0682   76.4643  221.1401 H   0  0  0  0  0  0  0  0  0  0  0  0
  138.1667   76.3664  222.9549 H   0  0  0  0  0  0  0  0  0  0  0  0
  139.0623   78.3678  224.2330 H   0  0  0  0  0  0  0  0  0  0  0  0
  138.1428   82.0900  222.3438 H   0  0  0  0  0  0  0  0  0  0  0  0
  137.6523   80.9699  220.1964 H   0  0  0  0  0  0  0  0  0  0  0  0
  141.1893   74.5265  220.2769 H   0  0  0  0  0  0  0  0  0  0  0  0
  140.5735   75.2915  218.8063 H   0  0  0  0  0  0  0  0  0  0  0  0
  143.4334   75.1219  219.8397 H   0  0  0  0  0  0  0  0  0  0  0  0
  142.9200   75.1467  218.1777 H   0  0  0  0  0  0  0  0  0  0  0  0
  143.9080   77.4472  219.2239 H   0  0  0  0  0  0  0  0  0  0  0  0
  142.4650   77.6502  218.2936 H   0  0  0  0  0  0  0  0  0  0  0  0
  142.7430   77.2411  221.3614 H   0  0  0  0  0  0  0  0  0  0  0  0
  140.8162   79.3567  218.6359 H   0  0  0  0  0  0  0  0  0  0  0  0
  140.5610   81.7430  219.6880 H   0  0  0  0  0  0  0  0  0  0  0  0
  141.2148   82.9658  222.1569 H   0  0  0  0  0  0  0  0  0  0  0  0
  142.2689   82.4223  224.3432 H   0  0  0  0  0  0  0  0  0  0  0  0
  143.1180   80.1700  224.8354 H   0  0  0  0  0  0  0  0  0  0  0  0
  142.9429   78.3445  223.1225 H   0  0  0  0  0  0  0  0  0  0  0  0
  1  2  2  0
  2  3  2  0
  2  4  1  0
  4  5  1  0
  5  6  2  0
  6  7  1  0
  7  8  1  0
  7  9  2  0
  9 10  1  0
 10 11  2  0
 11 12  1  0
  2 13  1  0
 13 14  1  0
 14 15  1  0
 15 16  1  0
 16 17  1  0
 17 18  1  0
 18 19  2  0
 19 20  1  0
 20 21  1  0
 21 22  2  0
 22 23  1  0
 23 24  2  0
 24 25  1  0
 25 26  2  0
 11  5  1  0
 17 13  1  0
 26 18  1  0
 26 21  1  0
  4 27  1  0
  4 28  1  0
  6 29  1  0
  9 30  1  0
 10 31  1  0
 14 32  1  0
 14 33  1  0
 15 34  1  0
 15 35  1  0
 16 36  1  0
 16 37  1  0
 17 38  1  1
 19 39  1  0
 20 40  1  0
 22 41  1  0
 23 42  1  0
 24 43  1  0
 25 44  1  0
M  END
>  <smiles>  (12) 
O=S(=O)(Cc1cc(F)ccc1F)N1CCC[C@H]1c1c[nH]c2ccccc12

>  <score_type>  (12) 
oracle

>  <origin>  (12) 
autodockgpu

>  <m_score__min__energy>  (12) 
-7.6900000000000004

>  <m_primary>  (12) 
energy

>  <meeko>  (12) 
{"free_energy": -6.38, "intermolecular_energy": -7.58, "internal_energy": -2.66, "cluster_size": 19, "cluster_id": 2, "rank_in_cluster": 10}

>  <energy>  (12) 
-6.38

>  <cluster_rmsd>  (12) 
0.03

>  <rmsd>  (12) 
271.26

>  <cluster>  (12) 
2

$$$$

     RDKit          3D

 44 47  0  0  0  0  0  0  0  0999 V2000
  140.3610   74.7370  222.0720 O   0  0  0  0  0  0  0  0  0  0  0  0
  140.2940   76.2220  221.8700 S   0  0  0  0  0  0  0  0  0  0  0  0
  141.0760   76.8780  222.9480 O   0  0  0  0  0  0  0  0  0  0  0  0
  138.6030   76.7560  221.9350 C   0  0  0  0  0  0  0  0  0  0  0  0
  138.4750   78.2310  222.0690 C   0  0  0  0  0  0  0  0  0  0  0  0
  138.7180   78.8610  223.2900 C   0  0  0  0  0  0  0  0  0  0  0  0
  138.5850   80.2300  223.3780 C   0  0  0  0  0  0  0  0  0  0  0  0
  138.8300   80.7960  224.5840 F   0  0  0  0  0  0  0  0  0  0  0  0
  138.2180   80.9440  222.2640 C   0  0  0  0  0  0  0  0  0  0  0  0
  137.9690   80.3620  221.0410 C   0  0  0  0  0  0  0  0  0  0  0  0
  138.1030   78.9810  220.9520 C   0  0  0  0  0  0  0  0  0  0  0  0
  137.8630   78.4010  219.7630 F   0  0  0  0  0  0  0  0  0  0  0  0
  141.0230   76.5840  220.3560 N   0  0  0  0  0  0  0  0  0  0  0  0
  141.3520   75.4260  219.5940 C   0  0  0  0  0  0  0  0  0  0  0  0
  142.8070   75.6240  219.1500 C   0  0  0  0  0  0  0  0  0  0  0  0
  142.9310   77.1540  219.1980 C   0  0  0  0  0  0  0  0  0  0  0  0
  142.1620   77.4310  220.4690 C   0  0  1  0  0  0  0  0  0  0  0  0
  141.7730   78.8590  220.5810 C   0  0  0  0  0  0  0  0  0  0  0  0
  141.1740   79.6710  219.6400 C   0  0  0  0  0  0  0  0  0  0  0  0
  141.0050   80.9030  220.1720 N   0  0  0  0  0  0  0  0  0  0  0  0
  141.4870   80.9070  221.4480 C   0  0  0  0  0  0  0  0  0  0  0  0
  141.5420   81.9250  222.4070 C   0  0  0  0  0  0  0  0  0  0  0  0
  142.1000   81.6010  223.6240 C   0  0  0  0  0  0  0  0  0  0  0  0
  142.5840   80.3380  223.9030 C   0  0  0  0  0  0  0  0  0  0  0  0
  142.5230   79.3280  222.9400 C   0  0  0  0  0  0  0  0  0  0  0  0
  141.9680   79.6370  221.7130 C   0  0  0  0  0  0  0  0  0  0  0  0
  138.0981   76.4410  221.0099 H   0  0  0  0  0  0  0  0  0  0  0  0
  138.1428   76.2991  222.8236 H   0  0  0  0  0  0  0  0  0  0  0  0
  139.0121   78.2723  224.1715 H   0  0  0  0  0  0  0  0  0  0  0  0
  138.1179   82.0358  222.3530 H   0  0  0  0  0  0  0  0  0  0  0  0
  137.6758   80.9656  220.1694 H   0  0  0  0  0  0  0  0  0  0  0  0
  141.2589   74.5206  220.2117 H   0  0  0  0  0  0  0  0  0  0  0  0
  140.6777   75.2995  218.7342 H   0  0  0  0  0  0  0  0  0  0  0  0
  143.5094   75.1411  219.8453 H   0  0  0  0  0  0  0  0  0  0  0  0
  143.0427   75.1836  218.1700 H   0  0  0  0  0  0  0  0  0  0  0  0
  143.9795   77.4778  219.2747 H   0  0  0  0  0  0  0  0  0  0  0  0
  142.5621   77.6803  218.3053 H   0  0  0  0  0  0  0  0  0  0  0  0
  142.7547   77.2339  221.3745 H   0  0  0  0  0  0  0  0  0  0  0  0
  140.8819   79.3665  218.6241 H   0  0  0  0  0  0  0  0  0  0  0  0
  140.5770   81.7360  219.6990 H   0  0  0  0  0  0  0  0  0  0  0  0
  141.1583   82.9347  222.1989 H   0  0  0  0  0  0  0  0  0  0  0  0
  142.1624   82.3763  224.4018 H   0  0  0  0  0  0  0  0  0  0  0  0
  143.0205   80.1260  224.8902 H   0  0  0  0  0  0  0  0  0  0  0  0
  142.9048   78.3184  223.1519 H   0  0  0  0  0  0  0  0  0  0  0  0
  1  2  2  0
  2  3  2  0
  2  4  1  0
  4  5  1  0
  5  6  2  0
  6  7  1  0
  7  8  1  0
  7  9  2  0
  9 10  1  0
 10 11  2  0
 11 12  1  0
  2 13  1  0
 13 14  1  0
 14 15  1  0
 15 16  1  0
 16 17  1  0
 17 18  1  0
 18 19  2  0
 19 20  1  0
 20 21  1  0
 21 22  2  0
 22 23  1  0
 23 24  2  0
 24 25  1  0
 25 26  2  0
 11  5  1  0
 17 13  1  0
 26 18  1  0
 26 21  1  0
  4 27  1  0
  4 28  1  0
  6 29  1  0
  9 30  1  0
 10 31  1  0
 14 32  1  0
 14 33  1  0
 15 34  1  0
 15 35  1  0
 16 36  1  0
 16 37  1  0
 17 38  1  1
 19 39  1  0
 20 40  1  0
 22 41  1  0
 23 42  1  0
 24 43  1  0
 25 44  1  0
M  END
>  <smiles>  (13) 
O=S(=O)(Cc1cc(F)ccc1F)N1CCC[C@H]1c1c[nH]c2ccccc12

>  <score_type>  (13) 
oracle

>  <origin>  (13) 
autodockgpu

>  <m_score__min__energy>  (13) 
-7.6900000000000004

>  <m_primary>  (13) 
energy

>  <meeko>  (13) 
{"free_energy": -6.38, "intermolecular_energy": -7.57, "internal_energy": -2.66, "cluster_size": 19, "cluster_id": 2, "rank_in_cluster": 19}

>  <energy>  (13) 
-6.38

>  <cluster_rmsd>  (13) 
0.03

>  <rmsd>  (13) 
271.26

>  <cluster>  (13) 
2

$$$$

     RDKit          3D

 44 47  0  0  0  0  0  0  0  0999 V2000
  140.3480   74.7600  222.1030 O   0  0  0  0  0  0  0  0  0  0  0  0
  140.2870   76.2440  221.8900 S   0  0  0  0  0  0  0  0  0  0  0  0
  141.0830   76.9030  222.9560 O   0  0  0  0  0  0  0  0  0  0  0  0
  138.6000   76.7890  221.9660 C   0  0  0  0  0  0  0  0  0  0  0  0
  138.4820   78.2650  222.0910 C   0  0  0  0  0  0  0  0  0  0  0  0
  138.7310   78.9020  223.3070 C   0  0  0  0  0  0  0  0  0  0  0  0
  138.6080   80.2730  223.3860 C   0  0  0  0  0  0  0  0  0  0  0  0
  138.8590   80.8450  224.5870 F   0  0  0  0  0  0  0  0  0  0  0  0
  138.2420   80.9810  222.2670 C   0  0  0  0  0  0  0  0  0  0  0  0
  137.9880   80.3930  221.0490 C   0  0  0  0  0  0  0  0  0  0  0  0
  138.1130   79.0100  220.9690 C   0  0  0  0  0  0  0  0  0  0  0  0
  137.8670   78.4230  219.7840 F   0  0  0  0  0  0  0  0  0  0  0  0
  141.0050   76.5910  220.3670 N   0  0  0  0  0  0  0  0  0  0  0  0
  141.3180   75.4250  219.6090 C   0  0  0  0  0  0  0  0  0  0  0  0
  142.7700   75.6090  219.1510 C   0  0  0  0  0  0  0  0  0  0  0  0
  142.9070   77.1390  219.1880 C   0  0  0  0  0  0  0  0  0  0  0  0
  142.1520   77.4290  220.4650 C   0  0  1  0  0  0  0  0  0  0  0  0
  141.7750   78.8610  220.5700 C   0  0  0  0  0  0  0  0  0  0  0  0
  141.1830   79.6750  219.6270 C   0  0  0  0  0  0  0  0  0  0  0  0
  141.0240   80.9100  220.1530 N   0  0  0  0  0  0  0  0  0  0  0  0
  141.5050   80.9150  221.4300 C   0  0  0  0  0  0  0  0  0  0  0  0
  141.5680   81.9360  222.3850 C   0  0  0  0  0  0  0  0  0  0  0  0
  142.1230   81.6120  223.6040 C   0  0  0  0  0  0  0  0  0  0  0  0
  142.5970   80.3460  223.8870 C   0  0  0  0  0  0  0  0  0  0  0  0
  142.5280   79.3330  222.9280 C   0  0  0  0  0  0  0  0  0  0  0  0
  141.9760   79.6420  221.7000 C   0  0  0  0  0  0  0  0  0  0  0  0
  138.0852   76.4708  221.0475 H   0  0  0  0  0  0  0  0  0  0  0  0
  138.1450   76.3411  222.8617 H   0  0  0  0  0  0  0  0  0  0  0  0
  139.0220   78.3174  224.1922 H   0  0  0  0  0  0  0  0  0  0  0  0
  138.1471   82.0738  222.3488 H   0  0  0  0  0  0  0  0  0  0  0  0
  137.6977   80.9927  220.1737 H   0  0  0  0  0  0  0  0  0  0  0  0
  141.2234   74.5242  220.2332 H   0  0  0  0  0  0  0  0  0  0  0  0
  140.6349   75.2982  218.7562 H   0  0  0  0  0  0  0  0  0  0  0  0
  143.4748   75.1249  219.8431 H   0  0  0  0  0  0  0  0  0  0  0  0
  142.9932   75.1607  218.1716 H   0  0  0  0  0  0  0  0  0  0  0  0
  143.9587   77.4549  219.2528 H   0  0  0  0  0  0  0  0  0  0  0  0
  142.5343   77.6631  218.2956 H   0  0  0  0  0  0  0  0  0  0  0  0
  142.7509   77.2320  221.3664 H   0  0  0  0  0  0  0  0  0  0  0  0
  140.8883   79.3691  218.6123 H   0  0  0  0  0  0  0  0  0  0  0  0
  140.6030   81.7450  219.6780 H   0  0  0  0  0  0  0  0  0  0  0  0
  141.1927   82.9480  222.1729 H   0  0  0  0  0  0  0  0  0  0  0  0
  142.1909   82.3894  224.3793 H   0  0  0  0  0  0  0  0  0  0  0  0
  143.0320   80.1340  224.8748 H   0  0  0  0  0  0  0  0  0  0  0  0
  142.9014   78.3211  223.1437 H   0  0  0  0  0  0  0  0  0  0  0  0
  1  2  2  0
  2  3  2  0
  2  4  1  0
  4  5  1  0
  5  6  2  0
  6  7  1  0
  7  8  1  0
  7  9  2  0
  9 10  1  0
 10 11  2  0
 11 12  1  0
  2 13  1  0
 13 14  1  0
 14 15  1  0
 15 16  1  0
 16 17  1  0
 17 18  1  0
 18 19  2  0
 19 20  1  0
 20 21  1  0
 21 22  2  0
 22 23  1  0
 23 24  2  0
 24 25  1  0
 25 26  2  0
 11  5  1  0
 17 13  1  0
 26 18  1  0
 26 21  1  0
  4 27  1  0
  4 28  1  0
  6 29  1  0
  9 30  1  0
 10 31  1  0
 14 32  1  0
 14 33  1  0
 15 34  1  0
 15 35  1  0
 16 36  1  0
 16 37  1  0
 17 38  1  1
 19 39  1  0
 20 40  1  0
 22 41  1  0
 23 42  1  0
 24 43  1  0
 25 44  1  0
M  END
>  <smiles>  (14) 
O=S(=O)(Cc1cc(F)ccc1F)N1CCC[C@H]1c1c[nH]c2ccccc12

>  <score_type>  (14) 
oracle

>  <origin>  (14) 
autodockgpu

>  <m_score__min__energy>  (14) 
-7.6900000000000004

>  <m_primary>  (14) 
energy

>  <meeko>  (14) 
{"free_energy": -6.39, "intermolecular_energy": -7.58, "internal_energy": -2.66, "cluster_size": 19, "cluster_id": 2, "rank_in_cluster": 5}

>  <energy>  (14) 
-6.38

>  <cluster_rmsd>  (14) 
0.03

>  <rmsd>  (14) 
271.27

>  <cluster>  (14) 
2

$$$$

     RDKit          3D

 44 47  0  0  0  0  0  0  0  0999 V2000
  136.3120   68.4750  222.9660 O   0  0  0  0  0  0  0  0  0  0  0  0
  136.1790   69.5520  224.0030 S   0  0  0  0  0  0  0  0  0  0  0  0
  136.0880   68.9070  225.3380 O   0  0  0  0  0  0  0  0  0  0  0  0
  134.7170   70.5060  223.6880 C   0  0  0  0  0  0  0  0  0  0  0  0
  134.2610   71.2630  224.8830 C   0  0  0  0  0  0  0  0  0  0  0  0
  134.4280   72.6470  224.9580 C   0  0  0  0  0  0  0  0  0  0  0  0
  133.9960   73.3160  226.0840 C   0  0  0  0  0  0  0  0  0  0  0  0
  134.1800   74.6570  226.1110 F   0  0  0  0  0  0  0  0  0  0  0  0
  133.4120   72.6070  227.1050 C   0  0  0  0  0  0  0  0  0  0  0  0
  133.2280   71.2430  227.0710 C   0  0  0  0  0  0  0  0  0  0  0  0
  133.6630   70.5680  225.9360 C   0  0  0  0  0  0  0  0  0  0  0  0
  133.4890   69.2360  225.8900 F   0  0  0  0  0  0  0  0  0  0  0  0
  137.6000   70.5180  223.9490 N   0  0  0  0  0  0  0  0  0  0  0  0
  137.5450   71.5520  222.9700 C   0  0  0  0  0  0  0  0  0  0  0  0
  138.8580   71.4440  222.1840 C   0  0  0  0  0  0  0  0  0  0  0  0
  139.7690   70.7550  223.2110 C   0  0  0  0  0  0  0  0  0  0  0  0
  138.7910   69.7550  223.7860 C   0  0  1  0  0  0  0  0  0  0  0  0
  139.2650   69.1980  225.0770 C   0  0  0  0  0  0  0  0  0  0  0  0
  139.2100   67.8970  225.5330 C   0  0  0  0  0  0  0  0  0  0  0  0
  139.7570   67.8450  226.7690 N   0  0  0  0  0  0  0  0  0  0  0  0
  140.1680   69.0960  227.1270 C   0  0  0  0  0  0  0  0  0  0  0  0
  140.7880   69.5610  228.2920 C   0  0  0  0  0  0  0  0  0  0  0  0
  141.0800   70.9060  228.3440 C   0  0  0  0  0  0  0  0  0  0  0  0
  140.7850   71.7680  227.3060 C   0  0  0  0  0  0  0  0  0  0  0  0
  140.1670   71.2930  226.1470 C   0  0  0  0  0  0  0  0  0  0  0  0
  139.8660   69.9470  226.0790 C   0  0  0  0  0  0  0  0  0  0  0  0
  134.9296   71.2198  222.8785 H   0  0  0  0  0  0  0  0  0  0  0  0
  133.9152   69.8058  223.4107 H   0  0  0  0  0  0  0  0  0  0  0  0
  134.8982   73.1970  224.1295 H   0  0  0  0  0  0  0  0  0  0  0  0
  133.0739   73.1571  227.9956 H   0  0  0  0  0  0  0  0  0  0  0  0
  132.7557   70.7086  227.9084 H   0  0  0  0  0  0  0  0  0  0  0  0
  136.6839   71.4032  222.3019 H   0  0  0  0  0  0  0  0  0  0  0  0
  137.4261   72.5437  223.4308 H   0  0  0  0  0  0  0  0  0  0  0  0
  138.7360   70.8309  221.2789 H   0  0  0  0  0  0  0  0  0  0  0  0
  139.2425   72.4065  221.8156 H   0  0  0  0  0  0  0  0  0  0  0  0
  140.6265   70.2603  222.7314 H   0  0  0  0  0  0  0  0  0  0  0  0
  140.2360   71.4271  223.9460 H   0  0  0  0  0  0  0  0  0  0  0  0
  138.6523   68.8759  223.1395 H   0  0  0  0  0  0  0  0  0  0  0  0
  138.7903   67.0425  224.9820 H   0  0  0  0  0  0  0  0  0  0  0  0
  139.8590   66.9940  227.3740 H   0  0  0  0  0  0  0  0  0  0  0  0
  141.0303   68.8854  229.1256 H   0  0  0  0  0  0  0  0  0  0  0  0
  141.5659   71.3083  229.2451 H   0  0  0  0  0  0  0  0  0  0  0  0
  141.0383   72.8349  227.3926 H   0  0  0  0  0  0  0  0  0  0  0  0
  139.9274   71.9703  225.3140 H   0  0  0  0  0  0  0  0  0  0  0  0
  1  2  2  0
  2  3  2  0
  2  4  1  0
  4  5  1  0
  5  6  2  0
  6  7  1  0
  7  8  1  0
  7  9  2  0
  9 10  1  0
 10 11  2  0
 11 12  1  0
  2 13  1  0
 13 14  1  0
 14 15  1  0
 15 16  1  0
 16 17  1  0
 17 18  1  0
 18 19  2  0
 19 20  1  0
 20 21  1  0
 21 22  2  0
 22 23  1  0
 23 24  2  0
 24 25  1  0
 25 26  2  0
 11  5  1  0
 17 13  1  0
 26 18  1  0
 26 21  1  0
  4 27  1  0
  4 28  1  0
  6 29  1  0
  9 30  1  0
 10 31  1  0
 14 32  1  0
 14 33  1  0
 15 34  1  0
 15 35  1  0
 16 36  1  0
 16 37  1  0
 17 38  1  6
 19 39  1  0
 20 40  1  0
 22 41  1  0
 23 42  1  0
 24 43  1  0
 25 44  1  0
M  END
>  <smiles>  (15) 
O=S(=O)(Cc1cc(F)ccc1F)N1CCC[C@H]1c1c[nH]c2ccccc12

>  <score_type>  (15) 
oracle

>  <origin>  (15) 
autodockgpu

>  <m_score__min__energy>  (15) 
-7.6900000000000004

>  <m_primary>  (15) 
energy

>  <meeko>  (15) 
{"free_energy": -7.69, "intermolecular_energy": -8.88, "internal_energy": -1.37, "cluster_size": 1, "cluster_id": 1, "rank_in_cluster": 1}

>  <energy>  (15) 
-6.38

>  <cluster_rmsd>  (15) 
0.04

>  <rmsd>  (15) 
271.26

>  <cluster>  (15) 
2

$$$$

     RDKit          3D

 44 47  0  0  0  0  0  0  0  0999 V2000
  140.3560   74.7410  222.0830 O   0  0  0  0  0  0  0  0  0  0  0  0
  140.2900   76.2260  221.8780 S   0  0  0  0  0  0  0  0  0  0  0  0
  141.0780   76.8820  222.9520 O   0  0  0  0  0  0  0  0  0  0  0  0
  138.6010   76.7620  221.9490 C   0  0  0  0  0  0  0  0  0  0  0  0
  138.4750   78.2370  222.0820 C   0  0  0  0  0  0  0  0  0  0  0  0
  138.7260   78.8680  223.3010 C   0  0  0  0  0  0  0  0  0  0  0  0
  138.5960   80.2380  223.3880 C   0  0  0  0  0  0  0  0  0  0  0  0
  138.8490   80.8050  224.5920 F   0  0  0  0  0  0  0  0  0  0  0  0
  138.2220   80.9510  222.2760 C   0  0  0  0  0  0  0  0  0  0  0  0
  137.9650   80.3680  221.0550 C   0  0  0  0  0  0  0  0  0  0  0  0
  138.0970   78.9860  220.9670 C   0  0  0  0  0  0  0  0  0  0  0  0
  137.8490   78.4050  219.7800 F   0  0  0  0  0  0  0  0  0  0  0  0
  141.0140   76.5840  220.3610 N   0  0  0  0  0  0  0  0  0  0  0  0
  141.3380   75.4240  219.5990 C   0  0  0  0  0  0  0  0  0  0  0  0
  142.7920   75.6180  219.1500 C   0  0  0  0  0  0  0  0  0  0  0  0
  142.9200   77.1490  219.1950 C   0  0  0  0  0  0  0  0  0  0  0  0
  142.1560   77.4290  220.4690 C   0  0  1  0  0  0  0  0  0  0  0  0
  141.7700   78.8580  220.5800 C   0  0  0  0  0  0  0  0  0  0  0  0
  141.1740   79.6710  219.6390 C   0  0  0  0  0  0  0  0  0  0  0  0
  141.0080   80.9040  220.1700 N   0  0  0  0  0  0  0  0  0  0  0  0
  141.4880   80.9060  221.4470 C   0  0  0  0  0  0  0  0  0  0  0  0
  141.5440   81.9250  222.4060 C   0  0  0  0  0  0  0  0  0  0  0  0
  142.1000   81.5990  223.6240 C   0  0  0  0  0  0  0  0  0  0  0  0
  142.5810   80.3350  223.9030 C   0  0  0  0  0  0  0  0  0  0  0  0
  142.5190   79.3260  222.9400 C   0  0  0  0  0  0  0  0  0  0  0  0
  141.9660   79.6350  221.7130 C   0  0  0  0  0  0  0  0  0  0  0  0
  138.0921   76.4466  221.0262 H   0  0  0  0  0  0  0  0  0  0  0  0
  138.1439   76.3067  222.8400 H   0  0  0  0  0  0  0  0  0  0  0  0
  139.0239   78.2799  224.1815 H   0  0  0  0  0  0  0  0  0  0  0  0
  138.1226   82.0429  222.3647 H   0  0  0  0  0  0  0  0  0  0  0  0
  137.6673   80.9709  220.1844 H   0  0  0  0  0  0  0  0  0  0  0  0
  141.2448   74.5196  220.2181 H   0  0  0  0  0  0  0  0  0  0  0  0
  140.6606   75.2981  218.7415 H   0  0  0  0  0  0  0  0  0  0  0  0
  143.4955   75.1346  219.8438 H   0  0  0  0  0  0  0  0  0  0  0  0
  143.0234   75.1754  218.1699 H   0  0  0  0  0  0  0  0  0  0  0  0
  143.9694   77.4706  219.2674 H   0  0  0  0  0  0  0  0  0  0  0  0
  142.5493   77.6751  218.3029 H   0  0  0  0  0  0  0  0  0  0  0  0
  142.7516   77.2316  221.3725 H   0  0  0  0  0  0  0  0  0  0  0  0
  140.8815   79.3667  218.6232 H   0  0  0  0  0  0  0  0  0  0  0  0
  140.5820   81.7380  219.6970 H   0  0  0  0  0  0  0  0  0  0  0  0
  141.1630   82.9356  222.1973 H   0  0  0  0  0  0  0  0  0  0  0  0
  142.1630   82.3738  224.4023 H   0  0  0  0  0  0  0  0  0  0  0  0
  143.0159   80.1217  224.8906 H   0  0  0  0  0  0  0  0  0  0  0  0
  142.8990   78.3158  223.1522 H   0  0  0  0  0  0  0  0  0  0  0  0
  1  2  2  0
  2  3  2  0
  2  4  1  0
  4  5  1  0
  5  6  2  0
  6  7  1  0
  7  8  1  0
  7  9  2  0
  9 10  1  0
 10 11  2  0
 11 12  1  0
  2 13  1  0
 13 14  1  0
 14 15  1  0
 15 16  1  0
 16 17  1  0
 17 18  1  0
 18 19  2  0
 19 20  1  0
 20 21  1  0
 21 22  2  0
 22 23  1  0
 23 24  2  0
 24 25  1  0
 25 26  2  0
 11  5  1  0
 17 13  1  0
 26 18  1  0
 26 21  1  0
  4 27  1  0
  4 28  1  0
  6 29  1  0
  9 30  1  0
 10 31  1  0
 14 32  1  0
 14 33  1  0
 15 34  1  0
 15 35  1  0
 16 36  1  0
 16 37  1  0
 17 38  1  1
 19 39  1  0
 20 40  1  0
 22 41  1  0
 23 42  1  0
 24 43  1  0
 25 44  1  0
M  END
>  <smiles>  (16) 
O=S(=O)(Cc1cc(F)ccc1F)N1CCC[C@H]1c1c[nH]c2ccccc12

>  <score_type>  (16) 
oracle

>  <origin>  (16) 
autodockgpu

>  <m_score__min__energy>  (16) 
-7.6900000000000004

>  <m_primary>  (16) 
energy

>  <meeko>  (16) 
{"free_energy": -6.38, "intermolecular_energy": -7.58, "internal_energy": -2.66, "cluster_size": 19, "cluster_id": 2, "rank_in_cluster": 13}

>  <energy>  (16) 
-6.38

>  <cluster_rmsd>  (16) 
0.03

>  <rmsd>  (16) 
271.27

>  <cluster>  (16) 
2

$$$$

     RDKit          3D

 44 47  0  0  0  0  0  0  0  0999 V2000
  140.3570   74.7350  222.0850 O   0  0  0  0  0  0  0  0  0  0  0  0
  140.2880   76.2200  221.8760 S   0  0  0  0  0  0  0  0  0  0  0  0
  141.0730   76.8810  222.9490 O   0  0  0  0  0  0  0  0  0  0  0  0
  138.5970   76.7530  221.9430 C   0  0  0  0  0  0  0  0  0  0  0  0
  138.4680   78.2280  222.0710 C   0  0  0  0  0  0  0  0  0  0  0  0
  138.7190   78.8640  223.2880 C   0  0  0  0  0  0  0  0  0  0  0  0
  138.5850   80.2340  223.3710 C   0  0  0  0  0  0  0  0  0  0  0  0
  138.8370   80.8050  224.5720 F   0  0  0  0  0  0  0  0  0  0  0  0
  138.2100   80.9420  222.2560 C   0  0  0  0  0  0  0  0  0  0  0  0
  137.9540   80.3540  221.0370 C   0  0  0  0  0  0  0  0  0  0  0  0
  138.0880   78.9730  220.9530 C   0  0  0  0  0  0  0  0  0  0  0  0
  137.8420   78.3870  219.7680 F   0  0  0  0  0  0  0  0  0  0  0  0
  141.0140   76.5750  220.3590 N   0  0  0  0  0  0  0  0  0  0  0  0
  141.3410   75.4140  219.6010 C   0  0  0  0  0  0  0  0  0  0  0  0
  142.7950   75.6100  219.1530 C   0  0  0  0  0  0  0  0  0  0  0  0
  142.9190   77.1400  219.1940 C   0  0  0  0  0  0  0  0  0  0  0  0
  142.1540   77.4220  220.4670 C   0  0  1  0  0  0  0  0  0  0  0  0
  141.7650   78.8510  220.5730 C   0  0  0  0  0  0  0  0  0  0  0  0
  141.1660   79.6600  219.6300 C   0  0  0  0  0  0  0  0  0  0  0  0
  140.9970   80.8940  220.1570 N   0  0  0  0  0  0  0  0  0  0  0  0
  141.4790   80.9020  221.4330 C   0  0  0  0  0  0  0  0  0  0  0  0
  141.5340   81.9240  222.3880 C   0  0  0  0  0  0  0  0  0  0  0  0
  142.0930   81.6030  223.6070 C   0  0  0  0  0  0  0  0  0  0  0  0
  142.5770   80.3410  223.8900 C   0  0  0  0  0  0  0  0  0  0  0  0
  142.5150   79.3280  222.9300 C   0  0  0  0  0  0  0  0  0  0  0  0
  141.9600   79.6330  221.7030 C   0  0  0  0  0  0  0  0  0  0  0  0
  138.0900   76.4336  221.0205 H   0  0  0  0  0  0  0  0  0  0  0  0
  138.1396   76.2996  222.8347 H   0  0  0  0  0  0  0  0  0  0  0  0
  139.0200   78.2796  224.1700 H   0  0  0  0  0  0  0  0  0  0  0  0
  138.1089   82.0341  222.3405 H   0  0  0  0  0  0  0  0  0  0  0  0
  137.6553   80.9536  220.1645 H   0  0  0  0  0  0  0  0  0  0  0  0
  141.2491   74.5111  220.2226 H   0  0  0  0  0  0  0  0  0  0  0  0
  140.6647   75.2841  218.7432 H   0  0  0  0  0  0  0  0  0  0  0  0
  143.4989   75.1302  219.8489 H   0  0  0  0  0  0  0  0  0  0  0  0
  143.0286   75.1652  218.1744 H   0  0  0  0  0  0  0  0  0  0  0  0
  143.9677   77.4643  219.2658 H   0  0  0  0  0  0  0  0  0  0  0  0
  142.5471   77.6626  218.3004 H   0  0  0  0  0  0  0  0  0  0  0  0
  142.7487   77.2283  221.3719 H   0  0  0  0  0  0  0  0  0  0  0  0
  140.8736   79.3519  218.6153 H   0  0  0  0  0  0  0  0  0  0  0  0
  140.5690   81.7260  219.6820 H   0  0  0  0  0  0  0  0  0  0  0  0
  141.1504   82.9330  222.1765 H   0  0  0  0  0  0  0  0  0  0  0  0
  142.1557   82.3807  224.3824 H   0  0  0  0  0  0  0  0  0  0  0  0
  143.0141   80.1321  224.8776 H   0  0  0  0  0  0  0  0  0  0  0  0
  142.8964   78.3189  223.1449 H   0  0  0  0  0  0  0  0  0  0  0  0
  1  2  2  0
  2  3  2  0
  2  4  1  0
  4  5  1  0
  5  6  2  0
  6  7  1  0
  7  8  1  0
  7  9  2  0
  9 10  1  0
 10 11  2  0
 11 12  1  0
  2 13  1  0
 13 14  1  0
 14 15  1  0
 15 16  1  0
 16 17  1  0
 17 18  1  0
 18 19  2  0
 19 20  1  0
 20 21  1  0
 21 22  2  0
 22 23  1  0
 23 24  2  0
 24 25  1  0
 25 26  2  0
 11  5  1  0
 17 13  1  0
 26 18  1  0
 26 21  1  0
  4 27  1  0
  4 28  1  0
  6 29  1  0
  9 30  1  0
 10 31  1  0
 14 32  1  0
 14 33  1  0
 15 34  1  0
 15 35  1  0
 16 36  1  0
 16 37  1  0
 17 38  1  1
 19 39  1  0
 20 40  1  0
 22 41  1  0
 23 42  1  0
 24 43  1  0
 25 44  1  0
M  END
>  <smiles>  (17) 
O=S(=O)(Cc1cc(F)ccc1F)N1CCC[C@H]1c1c[nH]c2ccccc12

>  <score_type>  (17) 
oracle

>  <origin>  (17) 
autodockgpu

>  <m_score__min__energy>  (17) 
-7.6900000000000004

>  <m_primary>  (17) 
energy

>  <meeko>  (17) 
{"free_energy": -6.38, "intermolecular_energy": -7.57, "internal_energy": -2.66, "cluster_size": 19, "cluster_id": 2, "rank_in_cluster": 14}

>  <energy>  (17) 
-6.38

>  <cluster_rmsd>  (17) 
0.05

>  <rmsd>  (17) 
271.26

>  <cluster>  (17) 
2

$$$$

     RDKit          3D

 44 47  0  0  0  0  0  0  0  0999 V2000
  140.3650   74.7460  222.0950 O   0  0  0  0  0  0  0  0  0  0  0  0
  140.3010   76.2310  221.8850 S   0  0  0  0  0  0  0  0  0  0  0  0
  141.0900   76.8900  222.9560 O   0  0  0  0  0  0  0  0  0  0  0  0
  138.6120   76.7700  221.9540 C   0  0  0  0  0  0  0  0  0  0  0  0
  138.4890   78.2450  222.0840 C   0  0  0  0  0  0  0  0  0  0  0  0
  138.7300   78.8770  223.3050 C   0  0  0  0  0  0  0  0  0  0  0  0
  138.6020   80.2480  223.3890 C   0  0  0  0  0  0  0  0  0  0  0  0
  138.8450   80.8150  224.5950 F   0  0  0  0  0  0  0  0  0  0  0  0
  138.2410   80.9600  222.2720 C   0  0  0  0  0  0  0  0  0  0  0  0
  137.9940   80.3760  221.0490 C   0  0  0  0  0  0  0  0  0  0  0  0
  138.1230   78.9940  220.9640 C   0  0  0  0  0  0  0  0  0  0  0  0
  137.8860   78.4120  219.7760 F   0  0  0  0  0  0  0  0  0  0  0  0
  141.0250   76.5820  220.3660 N   0  0  0  0  0  0  0  0  0  0  0  0
  141.3460   75.4190  219.6080 C   0  0  0  0  0  0  0  0  0  0  0  0
  142.8000   75.6090  219.1580 C   0  0  0  0  0  0  0  0  0  0  0  0
  142.9310   77.1390  219.1980 C   0  0  0  0  0  0  0  0  0  0  0  0
  142.1680   77.4250  220.4710 C   0  0  1  0  0  0  0  0  0  0  0  0
  141.7850   78.8550  220.5770 C   0  0  0  0  0  0  0  0  0  0  0  0
  141.1920   79.6670  219.6330 C   0  0  0  0  0  0  0  0  0  0  0  0
  141.0270   80.9010  220.1600 N   0  0  0  0  0  0  0  0  0  0  0  0
  141.5050   80.9070  221.4380 C   0  0  0  0  0  0  0  0  0  0  0  0
  141.5620   81.9280  222.3930 C   0  0  0  0  0  0  0  0  0  0  0  0
  142.1160   81.6050  223.6130 C   0  0  0  0  0  0  0  0  0  0  0  0
  142.5940   80.3400  223.8970 C   0  0  0  0  0  0  0  0  0  0  0  0
  142.5310   79.3280  222.9370 C   0  0  0  0  0  0  0  0  0  0  0  0
  141.9810   79.6350  221.7080 C   0  0  0  0  0  0  0  0  0  0  0  0
  138.1031   76.4538  221.0315 H   0  0  0  0  0  0  0  0  0  0  0  0
  138.1534   76.3171  222.8453 H   0  0  0  0  0  0  0  0  0  0  0  0
  139.0183   78.2893  224.1890 H   0  0  0  0  0  0  0  0  0  0  0  0
  138.1440   82.0523  222.3580 H   0  0  0  0  0  0  0  0  0  0  0  0
  137.7063   80.9786  220.1749 H   0  0  0  0  0  0  0  0  0  0  0  0
  141.2513   74.5168  220.2302 H   0  0  0  0  0  0  0  0  0  0  0  0
  140.6679   75.2912  218.7513 H   0  0  0  0  0  0  0  0  0  0  0  0
  143.5028   75.1265  219.8532 H   0  0  0  0  0  0  0  0  0  0  0  0
  143.0302   75.1630  218.1792 H   0  0  0  0  0  0  0  0  0  0  0  0
  143.9811   77.4586  219.2691 H   0  0  0  0  0  0  0  0  0  0  0  0
  142.5611   77.6628  218.3042 H   0  0  0  0  0  0  0  0  0  0  0  0
  142.7631   77.2298  221.3753 H   0  0  0  0  0  0  0  0  0  0  0  0
  140.9009   79.3607  218.6174 H   0  0  0  0  0  0  0  0  0  0  0  0
  140.6040   81.7350  219.6840 H   0  0  0  0  0  0  0  0  0  0  0  0
  141.1833   82.9387  222.1806 H   0  0  0  0  0  0  0  0  0  0  0  0
  142.1799   82.3824  224.3887 H   0  0  0  0  0  0  0  0  0  0  0  0
  143.0270   80.1288  224.8859 H   0  0  0  0  0  0  0  0  0  0  0  0
  142.9079   78.3174  223.1530 H   0  0  0  0  0  0  0  0  0  0  0  0
  1  2  2  0
  2  3  2  0
  2  4  1  0
  4  5  1  0
  5  6  2  0
  6  7  1  0
  7  8  1  0
  7  9  2  0
  9 10  1  0
 10 11  2  0
 11 12  1  0
  2 13  1  0
 13 14  1  0
 14 15  1  0
 15 16  1  0
 16 17  1  0
 17 18  1  0
 18 19  2  0
 19 20  1  0
 20 21  1  0
 21 22  2  0
 22 23  1  0
 23 24  2  0
 24 25  1  0
 25 26  2  0
 11  5  1  0
 17 13  1  0
 26 18  1  0
 26 21  1  0
  4 27  1  0
  4 28  1  0
  6 29  1  0
  9 30  1  0
 10 31  1  0
 14 32  1  0
 14 33  1  0
 15 34  1  0
 15 35  1  0
 16 36  1  0
 16 37  1  0
 17 38  1  1
 19 39  1  0
 20 40  1  0
 22 41  1  0
 23 42  1  0
 24 43  1  0
 25 44  1  0
M  END
>  <smiles>  (18) 
O=S(=O)(Cc1cc(F)ccc1F)N1CCC[C@H]1c1c[nH]c2ccccc12

>  <score_type>  (18) 
oracle

>  <origin>  (18) 
autodockgpu

>  <m_score__min__energy>  (18) 
-7.6900000000000004

>  <m_primary>  (18) 
energy

>  <meeko>  (18) 
{"free_energy": -6.39, "intermolecular_energy": -7.58, "internal_energy": -2.65, "cluster_size": 19, "cluster_id": 2, "rank_in_cluster": 9}

>  <energy>  (18) 
-6.38

>  <cluster_rmsd>  (18) 
0.04

>  <rmsd>  (18) 
271.27

>  <cluster>  (18) 
2

$$$$

     RDKit          3D

 44 47  0  0  0  0  0  0  0  0999 V2000
  140.3300   74.7650  222.0990 O   0  0  0  0  0  0  0  0  0  0  0  0
  140.2770   76.2500  221.8870 S   0  0  0  0  0  0  0  0  0  0  0  0
  141.0740   76.9040  222.9540 O   0  0  0  0  0  0  0  0  0  0  0  0
  138.5920   76.8020  221.9620 C   0  0  0  0  0  0  0  0  0  0  0  0
  138.4800   78.2780  222.0840 C   0  0  0  0  0  0  0  0  0  0  0  0
  138.7270   78.9160  223.3010 C   0  0  0  0  0  0  0  0  0  0  0  0
  138.6090   80.2870  223.3770 C   0  0  0  0  0  0  0  0  0  0  0  0
  138.8570   80.8600  224.5800 F   0  0  0  0  0  0  0  0  0  0  0  0
  138.2530   80.9960  222.2560 C   0  0  0  0  0  0  0  0  0  0  0  0
  138.0020   80.4070  221.0370 C   0  0  0  0  0  0  0  0  0  0  0  0
  138.1200   79.0240  220.9600 C   0  0  0  0  0  0  0  0  0  0  0  0
  137.8780   78.4370  219.7740 F   0  0  0  0  0  0  0  0  0  0  0  0
  140.9970   76.5940  220.3650 N   0  0  0  0  0  0  0  0  0  0  0  0
  141.3120   75.4270  219.6100 C   0  0  0  0  0  0  0  0  0  0  0  0
  142.7650   75.6100  219.1540 C   0  0  0  0  0  0  0  0  0  0  0  0
  142.9020   77.1400  219.1890 C   0  0  0  0  0  0  0  0  0  0  0  0
  142.1450   77.4330  220.4640 C   0  0  1  0  0  0  0  0  0  0  0  0
  141.7670   78.8650  220.5670 C   0  0  0  0  0  0  0  0  0  0  0  0
  141.1770   79.6770  219.6210 C   0  0  0  0  0  0  0  0  0  0  0  0
  141.0180   80.9130  220.1460 N   0  0  0  0  0  0  0  0  0  0  0  0
  141.4970   80.9190  221.4230 C   0  0  0  0  0  0  0  0  0  0  0  0
  141.5590   81.9420  222.3760 C   0  0  0  0  0  0  0  0  0  0  0  0
  142.1120   81.6190  223.5970 C   0  0  0  0  0  0  0  0  0  0  0  0
  142.5850   80.3540  223.8830 C   0  0  0  0  0  0  0  0  0  0  0  0
  142.5170   79.3400  222.9250 C   0  0  0  0  0  0  0  0  0  0  0  0
  141.9670   79.6460  221.6960 C   0  0  0  0  0  0  0  0  0  0  0  0
  138.0758   76.4841  221.0441 H   0  0  0  0  0  0  0  0  0  0  0  0
  138.1352   76.3577  222.8586 H   0  0  0  0  0  0  0  0  0  0  0  0
  139.0123   78.3316  224.1882 H   0  0  0  0  0  0  0  0  0  0  0  0
  138.1639   82.0895  222.3360 H   0  0  0  0  0  0  0  0  0  0  0  0
  137.7194   81.0068  220.1593 H   0  0  0  0  0  0  0  0  0  0  0  0
  141.2164   74.5275  220.2359 H   0  0  0  0  0  0  0  0  0  0  0  0
  140.6307   75.2987  218.7560 H   0  0  0  0  0  0  0  0  0  0  0  0
  143.4686   75.1269  219.8480 H   0  0  0  0  0  0  0  0  0  0  0  0
  142.9898   75.1602  218.1757 H   0  0  0  0  0  0  0  0  0  0  0  0
  143.9536   77.4558  219.2551 H   0  0  0  0  0  0  0  0  0  0  0  0
  142.5305   77.6624  218.2951 H   0  0  0  0  0  0  0  0  0  0  0  0
  142.7431   77.2382  221.3664 H   0  0  0  0  0  0  0  0  0  0  0  0
  140.8840   79.3697  218.6063 H   0  0  0  0  0  0  0  0  0  0  0  0
  140.5970   81.7470  219.6680 H   0  0  0  0  0  0  0  0  0  0  0  0
  141.1850   82.9540  222.1615 H   0  0  0  0  0  0  0  0  0  0  0  0
  142.1787   82.3975  224.3713 H   0  0  0  0  0  0  0  0  0  0  0  0
  143.0183   80.1433  224.8719 H   0  0  0  0  0  0  0  0  0  0  0  0
  142.8902   78.3284  223.1429 H   0  0  0  0  0  0  0  0  0  0  0  0
  1  2  2  0
  2  3  2  0
  2  4  1  0
  4  5  1  0
  5  6  2  0
  6  7  1  0
  7  8  1  0
  7  9  2  0
  9 10  1  0
 10 11  2  0
 11 12  1  0
  2 13  1  0
 13 14  1  0
 14 15  1  0
 15 16  1  0
 16 17  1  0
 17 18  1  0
 18 19  2  0
 19 20  1  0
 20 21  1  0
 21 22  2  0
 22 23  1  0
 23 24  2  0
 24 25  1  0
 25 26  2  0
 11  5  1  0
 17 13  1  0
 26 18  1  0
 26 21  1  0
  4 27  1  0
  4 28  1  0
  6 29  1  0
  9 30  1  0
 10 31  1  0
 14 32  1  0
 14 33  1  0
 15 34  1  0
 15 35  1  0
 16 36  1  0
 16 37  1  0
 17 38  1  1
 19 39  1  0
 20 40  1  0
 22 41  1  0
 23 42  1  0
 24 43  1  0
 25 44  1  0
M  END
>  <smiles>  (19) 
O=S(=O)(Cc1cc(F)ccc1F)N1CCC[C@H]1c1c[nH]c2ccccc12

>  <score_type>  (19) 
oracle

>  <origin>  (19) 
autodockgpu

>  <m_score__min__energy>  (19) 
-7.6900000000000004

>  <m_primary>  (19) 
energy

>  <meeko>  (19) 
{"free_energy": -6.39, "intermolecular_energy": -7.58, "internal_energy": -2.65, "cluster_size": 19, "cluster_id": 2, "rank_in_cluster": 2}

>  <energy>  (19) 
-6.38

>  <cluster_rmsd>  (19) 
0.06

>  <rmsd>  (19) 
271.25

>  <cluster>  (19) 
2

$$$$

     RDKit          3D

 44 47  0  0  0  0  0  0  0  0999 V2000
  140.3820   74.7220  222.0900 O   0  0  0  0  0  0  0  0  0  0  0  0
  140.3000   76.2050  221.8790 S   0  0  0  0  0  0  0  0  0  0  0  0
  141.0800   76.8750  222.9500 O   0  0  0  0  0  0  0  0  0  0  0  0
  138.6050   76.7240  221.9450 C   0  0  0  0  0  0  0  0  0  0  0  0
  138.4630   78.1970  222.0780 C   0  0  0  0  0  0  0  0  0  0  0  0
  138.7160   78.8320  223.2950 C   0  0  0  0  0  0  0  0  0  0  0  0
  138.5710   80.2010  223.3820 C   0  0  0  0  0  0  0  0  0  0  0  0
  138.8260   80.7710  224.5830 F   0  0  0  0  0  0  0  0  0  0  0  0
  138.1810   80.9080  222.2710 C   0  0  0  0  0  0  0  0  0  0  0  0
  137.9220   80.3210  221.0530 C   0  0  0  0  0  0  0  0  0  0  0  0
  138.0690   78.9410  220.9650 C   0  0  0  0  0  0  0  0  0  0  0  0
  137.8190   78.3550  219.7800 F   0  0  0  0  0  0  0  0  0  0  0  0
  141.0220   76.5650  220.3610 N   0  0  0  0  0  0  0  0  0  0  0  0
  141.3590   75.4040  219.6050 C   0  0  0  0  0  0  0  0  0  0  0  0
  142.8120   75.6130  219.1560 C   0  0  0  0  0  0  0  0  0  0  0  0
  142.9220   77.1450  219.1940 C   0  0  0  0  0  0  0  0  0  0  0  0
  142.1540   77.4220  220.4660 C   0  0  1  0  0  0  0  0  0  0  0  0
  141.7520   78.8470  220.5700 C   0  0  0  0  0  0  0  0  0  0  0  0
  141.1350   79.6460  219.6290 C   0  0  0  0  0  0  0  0  0  0  0  0
  140.9600   80.8810  220.1520 N   0  0  0  0  0  0  0  0  0  0  0  0
  141.4550   80.8990  221.4240 C   0  0  0  0  0  0  0  0  0  0  0  0
  141.5100   81.9260  222.3730 C   0  0  0  0  0  0  0  0  0  0  0  0
  142.0830   81.6170  223.5870 C   0  0  0  0  0  0  0  0  0  0  0  0
  142.5830   80.3610  223.8710 C   0  0  0  0  0  0  0  0  0  0  0  0
  142.5220   79.3430  222.9170 C   0  0  0  0  0  0  0  0  0  0  0  0
  141.9520   79.6360  221.6940 C   0  0  0  0  0  0  0  0  0  0  0  0
  138.1023   76.4037  221.0205 H   0  0  0  0  0  0  0  0  0  0  0  0
  138.1502   76.2639  222.8346 H   0  0  0  0  0  0  0  0  0  0  0  0
  139.0271   78.2480  224.1737 H   0  0  0  0  0  0  0  0  0  0  0  0
  138.0699   81.9988  222.3589 H   0  0  0  0  0  0  0  0  0  0  0  0
  137.6112   80.9197  220.1841 H   0  0  0  0  0  0  0  0  0  0  0  0
  141.2756   74.5018  220.2287 H   0  0  0  0  0  0  0  0  0  0  0  0
  140.6835   75.2653  218.7480 H   0  0  0  0  0  0  0  0  0  0  0  0
  143.5205   75.1411  219.8527 H   0  0  0  0  0  0  0  0  0  0  0  0
  143.0495   75.1686  218.1782 H   0  0  0  0  0  0  0  0  0  0  0  0
  143.9676   77.4792  219.2655 H   0  0  0  0  0  0  0  0  0  0  0  0
  142.5458   77.6625  218.2992 H   0  0  0  0  0  0  0  0  0  0  0  0
  142.7511   77.2349  221.3707 H   0  0  0  0  0  0  0  0  0  0  0  0
  140.8347   79.3302  218.6190 H   0  0  0  0  0  0  0  0  0  0  0  0
  140.5190   81.7060  219.6780 H   0  0  0  0  0  0  0  0  0  0  0  0
  141.1152   82.9304  222.1601 H   0  0  0  0  0  0  0  0  0  0  0  0
  142.1446   82.3988  224.3583 H   0  0  0  0  0  0  0  0  0  0  0  0
  143.0321   80.1614  224.8551 H   0  0  0  0  0  0  0  0  0  0  0  0
  142.9158   78.3389  223.1332 H   0  0  0  0  0  0  0  0  0  0  0  0
  1  2  2  0
  2  3  2  0
  2  4  1  0
  4  5  1  0
  5  6  2  0
  6  7  1  0
  7  8  1  0
  7  9  2  0
  9 10  1  0
 10 11  2  0
 11 12  1  0
  2 13  1  0
 13 14  1  0
 14 15  1  0
 15 16  1  0
 16 17  1  0
 17 18  1  0
 18 19  2  0
 19 20  1  0
 20 21  1  0
 21 22  2  0
 22 23  1  0
 23 24  2  0
 24 25  1  0
 25 26  2  0
 11  5  1  0
 17 13  1  0
 26 18  1  0
 26 21  1  0
  4 27  1  0
  4 28  1  0
  6 29  1  0
  9 30  1  0
 10 31  1  0
 14 32  1  0
 14 33  1  0
 15 34  1  0
 15 35  1  0
 16 36  1  0
 16 37  1  0
 17 38  1  1
 19 39  1  0
 20 40  1  0
 22 41  1  0
 23 42  1  0
 24 43  1  0
 25 44  1  0
M  END
>  <smiles>  (20) 
O=S(=O)(Cc1cc(F)ccc1F)N1CCC[C@H]1c1c[nH]c2ccccc12

>  <score_type>  (20) 
oracle

>  <origin>  (20) 
autodockgpu

>  <m_score__min__energy>  (20) 
-7.6900000000000004

>  <m_primary>  (20) 
energy

>  <meeko>  (20) 
{"free_energy": -6.38, "intermolecular_energy": -7.57, "internal_energy": -2.66, "cluster_size": 19, "cluster_id": 2, "rank_in_cluster": 18}

>  <energy>  (20) 
-6.38

>  <cluster_rmsd>  (20) 
0.04

>  <rmsd>  (20) 
271.26

>  <cluster>  (20) 
2

$$$$
