
     RDKit          3D

 40 43  0  0  0  0  0  0  0  0999 V2000
  139.1750   67.6840  225.3530 O   0  0  0  0  0  0  0  0  0  0  0  0
  139.5010   68.8770  225.1090 C   0  0  0  0  0  0  0  0  0  0  0  0
  140.0790   69.5780  226.1330 C   0  0  0  0  0  0  0  0  0  0  0  0
  140.2960   69.0130  227.3700 C   0  0  0  0  0  0  0  0  0  0  0  0
  140.8920   69.8140  228.3440 C   0  0  0  0  0  0  0  0  0  0  0  0
  141.2430   71.1280  228.0550 C   0  0  0  0  0  0  0  0  0  0  0  0
  141.8150   71.8810  229.0050 F   0  0  0  0  0  0  0  0  0  0  0  0
  141.0230   71.6910  226.8100 C   0  0  0  0  0  0  0  0  0  0  0  0
  140.4350   70.8750  225.8710 C   0  0  0  0  0  0  0  0  0  0  0  0
  140.2030   71.3590  224.6670 N   0  0  0  0  0  0  0  0  0  0  0  0
  139.6260   70.6860  223.6190 C   0  0  0  0  0  0  0  0  0  0  0  0
  139.5110   71.4510  222.4180 C   0  0  0  0  0  0  0  0  0  0  0  0
  138.7690   72.4600  222.0940 C   0  0  0  0  0  0  0  0  0  0  0  0
  139.3180   73.8350  222.0120 C   0  0  0  0  0  0  0  0  0  0  0  0
  138.5720   75.0170  221.9440 C   0  0  0  0  0  0  0  0  0  0  0  0
  139.4650   76.0760  221.8790 C   0  0  0  0  0  0  0  0  0  0  0  0
  140.7160   75.4720  221.9130 C   0  0  0  0  0  0  0  0  0  0  0  0
  140.5740   74.1810  221.9890 O   0  0  0  0  0  0  0  0  0  0  0  0
  139.2770   69.4310  223.8610 N   0  0  0  0  0  0  0  0  0  0  0  0
  138.6230   68.5300  222.9450 C   0  0  0  0  0  0  0  0  0  0  0  0
  137.1580   68.5190  223.1110 C   0  0  0  0  0  0  0  0  0  0  0  0
  136.2270   67.9140  222.3470 C   0  0  0  0  0  0  0  0  0  0  0  0
  134.8460   67.9780  222.5980 C   0  0  0  0  0  0  0  0  0  0  0  0
  134.4200   68.7020  223.6890 C   0  0  0  0  0  0  0  0  0  0  0  0
  135.4030   69.3060  224.4460 C   0  0  0  0  0  0  0  0  0  0  0  0
  136.6960   69.2320  224.1910 N   0  0  0  0  0  0  0  0  0  0  0  0
  140.0108   67.9719  227.5814 H   0  0  0  0  0  0  0  0  0  0  0  0
  141.0854   69.4039  229.3462 H   0  0  0  0  0  0  0  0  0  0  0  0
  141.3021   72.7308  226.5842 H   0  0  0  0  0  0  0  0  0  0  0  0
  140.1831   71.1178  221.6135 H   0  0  0  0  0  0  0  0  0  0  0  0
  137.7042   72.2938  221.8738 H   0  0  0  0  0  0  0  0  0  0  0  0
  137.4746   75.0925  221.9424 H   0  0  0  0  0  0  0  0  0  0  0  0
  139.2353   77.1498  221.8151 H   0  0  0  0  0  0  0  0  0  0  0  0
  141.6784   76.0037  221.8806 H   0  0  0  0  0  0  0  0  0  0  0  0
  138.8589   68.8404  221.9164 H   0  0  0  0  0  0  0  0  0  0  0  0
  138.9903   67.5149  223.1562 H   0  0  0  0  0  0  0  0  0  0  0  0
  136.5684   67.3360  221.4756 H   0  0  0  0  0  0  0  0  0  0  0  0
  134.1267   67.4651  221.9426 H   0  0  0  0  0  0  0  0  0  0  0  0
  133.3538   68.7939  223.9434 H   0  0  0  0  0  0  0  0  0  0  0  0
  135.0871   69.8898  225.3231 H   0  0  0  0  0  0  0  0  0  0  0  0
  1  2  2  0
  2  3  1  0
  3  4  2  0
  4  5  1  0
  5  6  2  0
  6  7  1  0
  6  8  1  0
  8  9  2  0
  9 10  1  0
 10 11  2  0
 11 12  1  0
 12 13  2  0
 13 14  1  0
 14 15  2  0
 15 16  1  0
 16 17  2  0
 17 18  1  0
 11 19  1  0
 19 20  1  0
 20 21  1  0
 21 22  2  0
 22 23  1  0
 23 24  2  0
 24 25  1  0
 25 26  2  0
 19  2  1  0
 26 21  1  0
  9  3  1  0
 18 14  1  0
  4 27  1  0
  5 28  1  0
  8 29  1  0
 12 30  1  0
 13 31  1  0
 15 32  1  0
 16 33  1  0
 17 34  1  0
 20 35  1  0
 20 36  1  0
 22 37  1  0
 23 38  1  0
 24 39  1  0
 25 40  1  0
M  END
>  <smiles>  (1) 
O=c1c2ccc(F)cc2nc(/C=C/c2ccco2)n1Cc1ccccn1

>  <score_type>  (1) 
oracle

>  <origin>  (1) 
autodockgpu

>  <m_score__min__energy>  (1) 
-7.2599999999999998

>  <m_primary>  (1) 
energy

>  <meeko>  (1) 
{"free_energy": -7.11, "intermolecular_energy": -8.6, "internal_energy": -1.08, "cluster_size": 14, "cluster_id": 1, "rank_in_cluster": 6}

>  <energy>  (1) 
-7.26

>  <cluster_rmsd>  (1) 
0.0

>  <rmsd>  (1) 
271.97

>  <cluster>  (1) 
1

$$$$

     RDKit          3D

 40 43  0  0  0  0  0  0  0  0999 V2000
  138.8520   67.6120  225.5270 O   0  0  0  0  0  0  0  0  0  0  0  0
  139.1120   68.8230  225.2910 C   0  0  0  0  0  0  0  0  0  0  0  0
  139.8210   69.4970  226.2490 C   0  0  0  0  0  0  0  0  0  0  0  0
  140.2310   68.8890  227.4130 C   0  0  0  0  0  0  0  0  0  0  0  0
  140.9470   69.6660  228.3240 C   0  0  0  0  0  0  0  0  0  0  0  0
  141.2230   71.0000  228.0460 C   0  0  0  0  0  0  0  0  0  0  0  0
  141.9120   71.7290  228.9340 F   0  0  0  0  0  0  0  0  0  0  0  0
  140.8080   71.6070  226.8730 C   0  0  0  0  0  0  0  0  0  0  0  0
  140.1050   70.8140  225.9960 C   0  0  0  0  0  0  0  0  0  0  0  0
  139.6850   71.3400  224.8620 N   0  0  0  0  0  0  0  0  0  0  0  0
  138.9740   70.6950  223.8810 C   0  0  0  0  0  0  0  0  0  0  0  0
  138.6640   71.5050  222.7460 C   0  0  0  0  0  0  0  0  0  0  0  0
  139.3050   71.7500  221.6490 C   0  0  0  0  0  0  0  0  0  0  0  0
  140.1530   72.9560  221.4960 C   0  0  0  0  0  0  0  0  0  0  0  0
  141.3700   73.0260  220.8080 C   0  0  0  0  0  0  0  0  0  0  0  0
  141.8360   74.3280  220.9040 C   0  0  0  0  0  0  0  0  0  0  0  0
  140.8660   74.9840  221.6540 C   0  0  0  0  0  0  0  0  0  0  0  0
  139.9200   74.1480  221.9690 O   0  0  0  0  0  0  0  0  0  0  0  0
  138.6930   69.4210  224.1160 N   0  0  0  0  0  0  0  0  0  0  0  0
  137.9300   68.5410  223.2670 C   0  0  0  0  0  0  0  0  0  0  0  0
  138.7710   67.8270  222.2890 C   0  0  0  0  0  0  0  0  0  0  0  0
  139.0160   66.5050  222.1940 C   0  0  0  0  0  0  0  0  0  0  0  0
  139.8480   65.9310  221.2170 C   0  0  0  0  0  0  0  0  0  0  0  0
  140.4470   66.7710  220.3050 C   0  0  0  0  0  0  0  0  0  0  0  0
  140.1720   68.1170  220.4360 C   0  0  0  0  0  0  0  0  0  0  0  0
  139.3850   68.6330  221.3620 N   0  0  0  0  0  0  0  0  0  0  0  0
  140.0034   67.8324  227.6172 H   0  0  0  0  0  0  0  0  0  0  0  0
  141.2952   69.2207  229.2676 H   0  0  0  0  0  0  0  0  0  0  0  0
  141.0277   72.6625  226.6549 H   0  0  0  0  0  0  0  0  0  0  0  0
  137.6943   72.0192  222.8184 H   0  0  0  0  0  0  0  0  0  0  0  0
  139.2184   71.0454  220.8087 H   0  0  0  0  0  0  0  0  0  0  0  0
  141.8676   72.1962  220.2847 H   0  0  0  0  0  0  0  0  0  0  0  0
  142.7619   74.7468  220.4829 H   0  0  0  0  0  0  0  0  0  0  0  0
  140.8941   76.0465  221.9375 H   0  0  0  0  0  0  0  0  0  0  0  0
  137.4170   67.8001  223.8978 H   0  0  0  0  0  0  0  0  0  0  0  0
  137.2151   69.1586  222.7036 H   0  0  0  0  0  0  0  0  0  0  0  0
  138.5368   65.8359  222.9238 H   0  0  0  0  0  0  0  0  0  0  0  0
  140.0154   64.8444  221.1821 H   0  0  0  0  0  0  0  0  0  0  0  0
  141.1095   66.3894  219.5141 H   0  0  0  0  0  0  0  0  0  0  0  0
  140.6408   68.8076  219.7195 H   0  0  0  0  0  0  0  0  0  0  0  0
  1  2  2  0
  2  3  1  0
  3  4  2  0
  4  5  1  0
  5  6  2  0
  6  7  1  0
  6  8  1  0
  8  9  2  0
  9 10  1  0
 10 11  2  0
 11 12  1  0
 12 13  2  0
 13 14  1  0
 14 15  2  0
 15 16  1  0
 16 17  2  0
 17 18  1  0
 11 19  1  0
 19 20  1  0
 20 21  1  0
 21 22  2  0
 22 23  1  0
 23 24  2  0
 24 25  1  0
 25 26  2  0
 19  2  1  0
 26 21  1  0
  9  3  1  0
 18 14  1  0
  4 27  1  0
  5 28  1  0
  8 29  1  0
 12 30  1  0
 13 31  1  0
 15 32  1  0
 16 33  1  0
 17 34  1  0
 20 35  1  0
 20 36  1  0
 22 37  1  0
 23 38  1  0
 24 39  1  0
 25 40  1  0
M  END
>  <smiles>  (2) 
O=c1c2ccc(F)cc2nc(/C=C/c2ccco2)n1Cc1ccccn1

>  <score_type>  (2) 
oracle

>  <origin>  (2) 
autodockgpu

>  <m_score__min__energy>  (2) 
-7.2599999999999998

>  <m_primary>  (2) 
energy

>  <meeko>  (2) 
{"free_energy": -7.07, "intermolecular_energy": -8.56, "internal_energy": -1.15, "cluster_size": 14, "cluster_id": 1, "rank_in_cluster": 10}

>  <energy>  (2) 
-7.24

>  <cluster_rmsd>  (2) 
0.17

>  <rmsd>  (2) 
271.98

>  <cluster>  (2) 
1

$$$$

     RDKit          3D

 40 43  0  0  0  0  0  0  0  0999 V2000
  139.2070   67.5040  225.3900 O   0  0  0  0  0  0  0  0  0  0  0  0
  139.3340   68.7490  225.2360 C   0  0  0  0  0  0  0  0  0  0  0  0
  139.9670   69.4310  226.2400 C   0  0  0  0  0  0  0  0  0  0  0  0
  140.4430   68.7950  227.3640 C   0  0  0  0  0  0  0  0  0  0  0  0
  141.0730   69.5830  228.3280 C   0  0  0  0  0  0  0  0  0  0  0  0
  141.2020   70.9540  228.1400 C   0  0  0  0  0  0  0  0  0  0  0  0
  141.8110   71.6920  229.0780 F   0  0  0  0  0  0  0  0  0  0  0  0
  140.7220   71.5890  227.0080 C   0  0  0  0  0  0  0  0  0  0  0  0
  140.1070   70.7850  226.0770 C   0  0  0  0  0  0  0  0  0  0  0  0
  139.6310   71.3370  224.9780 N   0  0  0  0  0  0  0  0  0  0  0  0
  138.9910   70.6850  223.9530 C   0  0  0  0  0  0  0  0  0  0  0  0
  138.5940   71.5300  222.8720 C   0  0  0  0  0  0  0  0  0  0  0  0
  139.1290   71.7860  221.7220 C   0  0  0  0  0  0  0  0  0  0  0  0
  140.0930   72.8970  221.5420 C   0  0  0  0  0  0  0  0  0  0  0  0
  141.3210   72.8240  220.8750 C   0  0  0  0  0  0  0  0  0  0  0  0
  141.9090   74.0780  220.9330 C   0  0  0  0  0  0  0  0  0  0  0  0
  140.9960   74.8520  221.6390 C   0  0  0  0  0  0  0  0  0  0  0  0
  139.9680   74.1230  221.9660 O   0  0  0  0  0  0  0  0  0  0  0  0
  138.8500   69.3750  224.1010 N   0  0  0  0  0  0  0  0  0  0  0  0
  138.1850   68.4760  223.1920 C   0  0  0  0  0  0  0  0  0  0  0  0
  136.7160   68.5610  223.2850 C   0  0  0  0  0  0  0  0  0  0  0  0
  135.7960   68.3340  222.3260 C   0  0  0  0  0  0  0  0  0  0  0  0
  134.4100   68.4540  222.5270 C   0  0  0  0  0  0  0  0  0  0  0  0
  133.9680   68.8240  223.7770 C   0  0  0  0  0  0  0  0  0  0  0  0
  134.9400   69.0470  224.7310 C   0  0  0  0  0  0  0  0  0  0  0  0
  136.2380   68.9280  224.5190 N   0  0  0  0  0  0  0  0  0  0  0  0
  140.3312   67.7088  227.4971 H   0  0  0  0  0  0  0  0  0  0  0  0
  141.4697   69.1165  229.2418 H   0  0  0  0  0  0  0  0  0  0  0  0
  140.8263   72.6742  226.8613 H   0  0  0  0  0  0  0  0  0  0  0  0
  137.6510   72.0670  223.0519 H   0  0  0  0  0  0  0  0  0  0  0  0
  138.8614   71.1630  220.8558 H   0  0  0  0  0  0  0  0  0  0  0  0
  141.7440   71.9313  220.3912 H   0  0  0  0  0  0  0  0  0  0  0  0
  142.8777   74.3895  220.5153 H   0  0  0  0  0  0  0  0  0  0  0  0
  141.1224   75.9169  221.8840 H   0  0  0  0  0  0  0  0  0  0  0  0
  138.4881   68.7257  222.1645 H   0  0  0  0  0  0  0  0  0  0  0  0
  138.4776   67.4509  223.4631 H   0  0  0  0  0  0  0  0  0  0  0  0
  136.1508   68.0375  221.3279 H   0  0  0  0  0  0  0  0  0  0  0  0
  133.7000   68.2581  221.7100 H   0  0  0  0  0  0  0  0  0  0  0  0
  132.8974   68.9359  224.0034 H   0  0  0  0  0  0  0  0  0  0  0  0
  134.6108   69.3444  225.7376 H   0  0  0  0  0  0  0  0  0  0  0  0
  1  2  2  0
  2  3  1  0
  3  4  2  0
  4  5  1  0
  5  6  2  0
  6  7  1  0
  6  8  1  0
  8  9  2  0
  9 10  1  0
 10 11  2  0
 11 12  1  0
 12 13  2  0
 13 14  1  0
 14 15  2  0
 15 16  1  0
 16 17  2  0
 17 18  1  0
 11 19  1  0
 19 20  1  0
 20 21  1  0
 21 22  2  0
 22 23  1  0
 23 24  2  0
 24 25  1  0
 25 26  2  0
 19  2  1  0
 26 21  1  0
  9  3  1  0
 18 14  1  0
  4 27  1  0
  5 28  1  0
  8 29  1  0
 12 30  1  0
 13 31  1  0
 15 32  1  0
 16 33  1  0
 17 34  1  0
 20 35  1  0
 20 36  1  0
 22 37  1  0
 23 38  1  0
 24 39  1  0
 25 40  1  0
M  END
>  <smiles>  (3) 
O=c1c2ccc(F)cc2nc(/C=C/c2ccco2)n1Cc1ccccn1

>  <score_type>  (3) 
oracle

>  <origin>  (3) 
autodockgpu

>  <m_score__min__energy>  (3) 
-7.2599999999999998

>  <m_primary>  (3) 
energy

>  <meeko>  (3) 
{"free_energy": -6.98, "intermolecular_energy": -8.47, "internal_energy": -1.11, "cluster_size": 14, "cluster_id": 1, "rank_in_cluster": 14}

>  <energy>  (3) 
-7.22

>  <cluster_rmsd>  (3) 
0.57

>  <rmsd>  (3) 
271.91

>  <cluster>  (3) 
1

$$$$

     RDKit          3D

 40 43  0  0  0  0  0  0  0  0999 V2000
  139.1860   67.7330  225.3340 O   0  0  0  0  0  0  0  0  0  0  0  0
  139.4910   68.9370  225.1180 C   0  0  0  0  0  0  0  0  0  0  0  0
  140.0800   69.6170  226.1490 C   0  0  0  0  0  0  0  0  0  0  0  0
  140.3290   69.0220  227.3650 C   0  0  0  0  0  0  0  0  0  0  0  0
  140.9330   69.8040  228.3500 C   0  0  0  0  0  0  0  0  0  0  0  0
  141.2600   71.1300  228.0910 C   0  0  0  0  0  0  0  0  0  0  0  0
  141.8400   71.8640  229.0510 F   0  0  0  0  0  0  0  0  0  0  0  0
  141.0080   71.7240  226.8670 C   0  0  0  0  0  0  0  0  0  0  0  0
  140.4120   70.9260  225.9170 C   0  0  0  0  0  0  0  0  0  0  0  0
  140.1490   71.4400  224.7320 N   0  0  0  0  0  0  0  0  0  0  0  0
  139.5610   70.7890  223.6760 C   0  0  0  0  0  0  0  0  0  0  0  0
  139.4110   71.5850  222.5000 C   0  0  0  0  0  0  0  0  0  0  0  0
  140.2670   72.0710  221.6610 C   0  0  0  0  0  0  0  0  0  0  0  0
  140.5560   73.5240  221.5970 C   0  0  0  0  0  0  0  0  0  0  0  0
  141.5580   74.1320  220.8320 C   0  0  0  0  0  0  0  0  0  0  0  0
  141.4900   75.4980  221.0570 C   0  0  0  0  0  0  0  0  0  0  0  0
  140.4400   75.6460  221.9560 C   0  0  0  0  0  0  0  0  0  0  0  0
  139.9380   74.4780  222.2340 O   0  0  0  0  0  0  0  0  0  0  0  0
  139.2340   69.5220  223.8910 N   0  0  0  0  0  0  0  0  0  0  0  0
  138.5740   68.6380  222.9620 C   0  0  0  0  0  0  0  0  0  0  0  0
  137.1130   68.6040  223.1540 C   0  0  0  0  0  0  0  0  0  0  0  0
  136.3660   69.2650  224.0610 C   0  0  0  0  0  0  0  0  0  0  0  0
  134.9680   69.1500  224.1580 C   0  0  0  0  0  0  0  0  0  0  0  0
  134.3260   68.3120  223.2730 C   0  0  0  0  0  0  0  0  0  0  0  0
  135.1260   67.6550  222.3600 C   0  0  0  0  0  0  0  0  0  0  0  0
  136.4380   67.7790  222.2880 N   0  0  0  0  0  0  0  0  0  0  0  0
  140.0623   67.9715  227.5528 H   0  0  0  0  0  0  0  0  0  0  0  0
  141.1515   69.3691  229.3365 H   0  0  0  0  0  0  0  0  0  0  0  0
  141.2689   72.7733  226.6648 H   0  0  0  0  0  0  0  0  0  0  0  0
  138.3660   71.8326  222.2617 H   0  0  0  0  0  0  0  0  0  0  0  0
  140.7941   71.3891  220.9775 H   0  0  0  0  0  0  0  0  0  0  0  0
  142.2713   73.6181  220.1709 H   0  0  0  0  0  0  0  0  0  0  0  0
  142.1230   76.2859  220.6229 H   0  0  0  0  0  0  0  0  0  0  0  0
  140.0878   76.6029  222.3687 H   0  0  0  0  0  0  0  0  0  0  0  0
  138.7872   68.9795  221.9383 H   0  0  0  0  0  0  0  0  0  0  0  0
  138.9574   67.6222  223.1383 H   0  0  0  0  0  0  0  0  0  0  0  0
  136.8805   69.9337  224.7668 H   0  0  0  0  0  0  0  0  0  0  0  0
  134.4043   69.7119  224.9173 H   0  0  0  0  0  0  0  0  0  0  0  0
  133.2349   68.1739  223.2928 H   0  0  0  0  0  0  0  0  0  0  0  0
  134.6358   66.9809  221.6422 H   0  0  0  0  0  0  0  0  0  0  0  0
  1  2  2  0
  2  3  1  0
  3  4  2  0
  4  5  1  0
  5  6  2  0
  6  7  1  0
  6  8  1  0
  8  9  2  0
  9 10  1  0
 10 11  2  0
 11 12  1  0
 12 13  2  0
 13 14  1  0
 14 15  2  0
 15 16  1  0
 16 17  2  0
 17 18  1  0
 11 19  1  0
 19 20  1  0
 20 21  1  0
 21 22  2  0
 22 23  1  0
 23 24  2  0
 24 25  1  0
 25 26  2  0
 19  2  1  0
 26 21  1  0
  9  3  1  0
 18 14  1  0
  4 27  1  0
  5 28  1  0
  8 29  1  0
 12 30  1  0
 13 31  1  0
 15 32  1  0
 16 33  1  0
 17 34  1  0
 20 35  1  0
 20 36  1  0
 22 37  1  0
 23 38  1  0
 24 39  1  0
 25 40  1  0
M  END
>  <smiles>  (4) 
O=c1c2ccc(F)cc2nc(/C=C/c2ccco2)n1Cc1ccccn1

>  <score_type>  (4) 
oracle

>  <origin>  (4) 
autodockgpu

>  <m_score__min__energy>  (4) 
-7.2599999999999998

>  <m_primary>  (4) 
energy

>  <meeko>  (4) 
{"free_energy": -7.22, "intermolecular_energy": -8.71, "internal_energy": -0.95, "cluster_size": 14, "cluster_id": 1, "rank_in_cluster": 3}

>  <energy>  (4) 
-7.22

>  <cluster_rmsd>  (4) 
0.11

>  <rmsd>  (4) 
271.96

>  <cluster>  (4) 
1

$$$$

     RDKit          3D

 40 43  0  0  0  0  0  0  0  0999 V2000
  139.1880   67.7600  225.3210 O   0  0  0  0  0  0  0  0  0  0  0  0
  139.5320   68.9510  225.0920 C   0  0  0  0  0  0  0  0  0  0  0  0
  140.1110   69.6340  226.1260 C   0  0  0  0  0  0  0  0  0  0  0  0
  140.3120   69.0550  227.3580 C   0  0  0  0  0  0  0  0  0  0  0  0
  140.9110   69.8380  228.3450 C   0  0  0  0  0  0  0  0  0  0  0  0
  141.2810   71.1500  228.0720 C   0  0  0  0  0  0  0  0  0  0  0  0
  141.8560   71.8860  229.0340 F   0  0  0  0  0  0  0  0  0  0  0  0
  141.0770   71.7290  226.8310 C   0  0  0  0  0  0  0  0  0  0  0  0
  140.4850   70.9300  225.8800 C   0  0  0  0  0  0  0  0  0  0  0  0
  140.2680   71.4290  224.6790 N   0  0  0  0  0  0  0  0  0  0  0  0
  139.6890   70.7740  223.6200 C   0  0  0  0  0  0  0  0  0  0  0  0
  139.5920   71.5520  222.4270 C   0  0  0  0  0  0  0  0  0  0  0  0
  138.8550   72.5650  222.1030 C   0  0  0  0  0  0  0  0  0  0  0  0
  139.4160   73.9320  221.9900 C   0  0  0  0  0  0  0  0  0  0  0  0
  138.6820   75.1190  221.8840 C   0  0  0  0  0  0  0  0  0  0  0  0
  139.5840   76.1680  221.7990 C   0  0  0  0  0  0  0  0  0  0  0  0
  140.8290   75.5550  221.8590 C   0  0  0  0  0  0  0  0  0  0  0  0
  140.6760   74.2670  221.9670 O   0  0  0  0  0  0  0  0  0  0  0  0
  139.3230   69.5210  223.8480 N   0  0  0  0  0  0  0  0  0  0  0  0
  138.6640   68.6380  222.9180 C   0  0  0  0  0  0  0  0  0  0  0  0
  137.2010   68.6150  223.0990 C   0  0  0  0  0  0  0  0  0  0  0  0
  136.4490   69.3100  223.9760 C   0  0  0  0  0  0  0  0  0  0  0  0
  135.0500   69.2020  224.0660 C   0  0  0  0  0  0  0  0  0  0  0  0
  134.4130   68.3340  223.2070 C   0  0  0  0  0  0  0  0  0  0  0  0
  135.2170   67.6420  222.3250 C   0  0  0  0  0  0  0  0  0  0  0  0
  136.5310   67.7600  222.2580 N   0  0  0  0  0  0  0  0  0  0  0  0
  140.0121   68.0155  227.5568 H   0  0  0  0  0  0  0  0  0  0  0  0
  141.0915   69.4152  229.3443 H   0  0  0  0  0  0  0  0  0  0  0  0
  141.3711   72.7673  226.6177 H   0  0  0  0  0  0  0  0  0  0  0  0
  140.2760   71.2276  221.6289 H   0  0  0  0  0  0  0  0  0  0  0  0
  137.7843   72.4074  221.9063 H   0  0  0  0  0  0  0  0  0  0  0  0
  137.5854   75.2042  221.8706 H   0  0  0  0  0  0  0  0  0  0  0  0
  139.3639   77.2417  221.7053 H   0  0  0  0  0  0  0  0  0  0  0  0
  141.7960   76.0779  221.8210 H   0  0  0  0  0  0  0  0  0  0  0  0
  138.8873   68.9737  221.8946 H   0  0  0  0  0  0  0  0  0  0  0  0
  139.0389   67.6203  223.1015 H   0  0  0  0  0  0  0  0  0  0  0  0
  136.9600   70.0022  224.6614 H   0  0  0  0  0  0  0  0  0  0  0  0
  134.4818   69.7925  224.7998 H   0  0  0  0  0  0  0  0  0  0  0  0
  133.3213   68.1997  223.2234 H   0  0  0  0  0  0  0  0  0  0  0  0
  134.7299   66.9432  221.6290 H   0  0  0  0  0  0  0  0  0  0  0  0
  1  2  2  0
  2  3  1  0
  3  4  2  0
  4  5  1  0
  5  6  2  0
  6  7  1  0
  6  8  1  0
  8  9  2  0
  9 10  1  0
 10 11  2  0
 11 12  1  0
 12 13  2  0
 13 14  1  0
 14 15  2  0
 15 16  1  0
 16 17  2  0
 17 18  1  0
 11 19  1  0
 19 20  1  0
 20 21  1  0
 21 22  2  0
 22 23  1  0
 23 24  2  0
 24 25  1  0
 25 26  2  0
 19  2  1  0
 26 21  1  0
  9  3  1  0
 18 14  1  0
  4 27  1  0
  5 28  1  0
  8 29  1  0
 12 30  1  0
 13 31  1  0
 15 32  1  0
 16 33  1  0
 17 34  1  0
 20 35  1  0
 20 36  1  0
 22 37  1  0
 23 38  1  0
 24 39  1  0
 25 40  1  0
M  END
>  <smiles>  (5) 
O=c1c2ccc(F)cc2nc(/C=C/c2ccco2)n1Cc1ccccn1

>  <score_type>  (5) 
oracle

>  <origin>  (5) 
autodockgpu

>  <m_score__min__energy>  (5) 
-7.2599999999999998

>  <m_primary>  (5) 
energy

>  <meeko>  (5) 
{"free_energy": -7.09, "intermolecular_energy": -8.58, "internal_energy": -1.0, "cluster_size": 14, "cluster_id": 1, "rank_in_cluster": 7}

>  <energy>  (5) 
-7.11

>  <cluster_rmsd>  (5) 
0.59

>  <rmsd>  (5) 
271.92

>  <cluster>  (5) 
1

$$$$

     RDKit          3D

 40 43  0  0  0  0  0  0  0  0999 V2000
  138.6800   76.9380  222.3820 O   0  0  0  0  0  0  0  0  0  0  0  0
  139.8210   77.2160  221.9250 C   0  0  0  0  0  0  0  0  0  0  0  0
  140.4330   78.3300  222.4350 C   0  0  0  0  0  0  0  0  0  0  0  0
  139.8370   79.1100  223.3990 C   0  0  0  0  0  0  0  0  0  0  0  0
  140.5460   80.2230  223.8520 C   0  0  0  0  0  0  0  0  0  0  0  0
  141.8030   80.5130  223.3340 C   0  0  0  0  0  0  0  0  0  0  0  0
  142.4670   81.5870  223.7820 F   0  0  0  0  0  0  0  0  0  0  0  0
  142.3990   79.7250  222.3640 C   0  0  0  0  0  0  0  0  0  0  0  0
  141.6740   78.6350  221.9400 C   0  0  0  0  0  0  0  0  0  0  0  0
  142.1930   77.8490  221.0180 N   0  0  0  0  0  0  0  0  0  0  0  0
  141.6090   76.7270  220.4840 C   0  0  0  0  0  0  0  0  0  0  0  0
  142.4070   76.0520  219.5100 C   0  0  0  0  0  0  0  0  0  0  0  0
  143.6680   75.7710  219.4590 C   0  0  0  0  0  0  0  0  0  0  0  0
  144.2280   74.5730  220.1300 C   0  0  0  0  0  0  0  0  0  0  0  0
  145.4550   74.5000  220.7990 C   0  0  0  0  0  0  0  0  0  0  0  0
  145.5980   73.2080  221.2800 C   0  0  0  0  0  0  0  0  0  0  0  0
  144.4370   72.5610  220.8730 C   0  0  0  0  0  0  0  0  0  0  0  0
  143.6830   73.3920  220.2140 O   0  0  0  0  0  0  0  0  0  0  0  0
  140.4080   76.4230  220.9550 N   0  0  0  0  0  0  0  0  0  0  0  0
  139.5740   75.3250  220.5330 C   0  0  0  0  0  0  0  0  0  0  0  0
  140.1180   74.0140  220.9340 C   0  0  0  0  0  0  0  0  0  0  0  0
  140.5810   73.0190  220.1520 C   0  0  0  0  0  0  0  0  0  0  0  0
  141.0730   71.7990  220.6470 C   0  0  0  0  0  0  0  0  0  0  0  0
  141.0800   71.6110  222.0110 C   0  0  0  0  0  0  0  0  0  0  0  0
  140.5970   72.6520  222.7770 C   0  0  0  0  0  0  0  0  0  0  0  0
  140.1400   73.7910  222.2890 N   0  0  0  0  0  0  0  0  0  0  0  0
  138.8410   78.8658  223.7968 H   0  0  0  0  0  0  0  0  0  0  0  0
  140.1082   80.8742  224.6229 H   0  0  0  0  0  0  0  0  0  0  0  0
  143.3940   79.9568  221.9561 H   0  0  0  0  0  0  0  0  0  0  0  0
  141.8390   75.7043  218.6345 H   0  0  0  0  0  0  0  0  0  0  0  0
  144.3432   76.4382  218.9032 H   0  0  0  0  0  0  0  0  0  0  0  0
  146.1768   75.3210  220.9212 H   0  0  0  0  0  0  0  0  0  0  0  0
  146.4387   72.7899  221.8532 H   0  0  0  0  0  0  0  0  0  0  0  0
  144.1930   71.5079  221.0768 H   0  0  0  0  0  0  0  0  0  0  0  0
  138.5777   75.4458  220.9832 H   0  0  0  0  0  0  0  0  0  0  0  0
  139.5272   75.3448  219.4342 H   0  0  0  0  0  0  0  0  0  0  0  0
  140.5734   73.1705  219.0625 H   0  0  0  0  0  0  0  0  0  0  0  0
  141.4413   71.0181  219.9654 H   0  0  0  0  0  0  0  0  0  0  0  0
  141.4509   70.6806  222.4657 H   0  0  0  0  0  0  0  0  0  0  0  0
  140.5922   72.5245  223.8696 H   0  0  0  0  0  0  0  0  0  0  0  0
  1  2  2  0
  2  3  1  0
  3  4  2  0
  4  5  1  0
  5  6  2  0
  6  7  1  0
  6  8  1  0
  8  9  2  0
  9 10  1  0
 10 11  2  0
 11 12  1  0
 12 13  2  0
 13 14  1  0
 14 15  2  0
 15 16  1  0
 16 17  2  0
 17 18  1  0
 11 19  1  0
 19 20  1  0
 20 21  1  0
 21 22  2  0
 22 23  1  0
 23 24  2  0
 24 25  1  0
 25 26  2  0
 19  2  1  0
 26 21  1  0
  9  3  1  0
 18 14  1  0
  4 27  1  0
  5 28  1  0
  8 29  1  0
 12 30  1  0
 13 31  1  0
 15 32  1  0
 16 33  1  0
 17 34  1  0
 20 35  1  0
 20 36  1  0
 22 37  1  0
 23 38  1  0
 24 39  1  0
 25 40  1  0
M  END
>  <smiles>  (6) 
O=c1c2ccc(F)cc2nc(/C=C/c2ccco2)n1Cc1ccccn1

>  <score_type>  (6) 
oracle

>  <origin>  (6) 
autodockgpu

>  <m_score__min__energy>  (6) 
-7.2599999999999998

>  <m_primary>  (6) 
energy

>  <meeko>  (6) 
{"free_energy": -6.29, "intermolecular_energy": -7.78, "internal_energy": -1.54, "cluster_size": 3, "cluster_id": 4, "rank_in_cluster": 3}

>  <energy>  (6) 
-7.11

>  <cluster_rmsd>  (6) 
0.59

>  <rmsd>  (6) 
271.9

>  <cluster>  (6) 
1

$$$$

     RDKit          3D

 40 43  0  0  0  0  0  0  0  0999 V2000
  139.1820   67.3680  225.4170 O   0  0  0  0  0  0  0  0  0  0  0  0
  139.3440   68.5890  225.1520 C   0  0  0  0  0  0  0  0  0  0  0  0
  139.9590   69.3510  226.1080 C   0  0  0  0  0  0  0  0  0  0  0  0
  140.3820   68.8150  227.3030 C   0  0  0  0  0  0  0  0  0  0  0  0
  140.9980   69.6770  228.2110 C   0  0  0  0  0  0  0  0  0  0  0  0
  141.1660   71.0220  227.8980 C   0  0  0  0  0  0  0  0  0  0  0  0
  141.7600   71.8330  228.7830 F   0  0  0  0  0  0  0  0  0  0  0  0
  140.7390   71.5560  226.6950 C   0  0  0  0  0  0  0  0  0  0  0  0
  140.1360   70.6790  225.8220 C   0  0  0  0  0  0  0  0  0  0  0  0
  139.7110   71.1340  224.6600 N   0  0  0  0  0  0  0  0  0  0  0  0
  139.0900   70.4000  223.6790 C   0  0  0  0  0  0  0  0  0  0  0  0
  138.7500   71.1470  222.5100 C   0  0  0  0  0  0  0  0  0  0  0  0
  138.6360   72.4160  222.2880 C   0  0  0  0  0  0  0  0  0  0  0  0
  139.7910   73.2380  221.8540 C   0  0  0  0  0  0  0  0  0  0  0  0
  140.8740   72.7960  221.0860 C   0  0  0  0  0  0  0  0  0  0  0  0
  141.7290   73.8730  220.9030 C   0  0  0  0  0  0  0  0  0  0  0  0
  141.1110   74.9190  221.5770 C   0  0  0  0  0  0  0  0  0  0  0  0
  139.9980   74.4990  222.1060 O   0  0  0  0  0  0  0  0  0  0  0  0
  138.9130   69.1140  223.9460 N   0  0  0  0  0  0  0  0  0  0  0  0
  138.2570   68.1460  223.1020 C   0  0  0  0  0  0  0  0  0  0  0  0
  139.0870   67.7420  221.9530 C   0  0  0  0  0  0  0  0  0  0  0  0
  139.8800   68.5050  221.1750 C   0  0  0  0  0  0  0  0  0  0  0  0
  140.6260   68.0090  220.0920 C   0  0  0  0  0  0  0  0  0  0  0  0
  140.5410   66.6640  219.8110 C   0  0  0  0  0  0  0  0  0  0  0  0
  139.7200   65.9160  220.6310 C   0  0  0  0  0  0  0  0  0  0  0  0
  139.0280   66.4040  221.6440 N   0  0  0  0  0  0  0  0  0  0  0  0
  140.2400   67.7488  227.5333 H   0  0  0  0  0  0  0  0  0  0  0  0
  141.3523   69.2914  229.1784 H   0  0  0  0  0  0  0  0  0  0  0  0
  140.8736   72.6200  226.4504 H   0  0  0  0  0  0  0  0  0  0  0  0
  138.5456   70.5222  221.6281 H   0  0  0  0  0  0  0  0  0  0  0  0
  137.6567   72.8979  222.4247 H   0  0  0  0  0  0  0  0  0  0  0  0
  141.0210   71.7775  220.6972 H   0  0  0  0  0  0  0  0  0  0  0  0
  142.6798   73.8941  220.3502 H   0  0  0  0  0  0  0  0  0  0  0  0
  141.5020   75.9444  221.6521 H   0  0  0  0  0  0  0  0  0  0  0  0
  138.0275   67.2532  223.7022 H   0  0  0  0  0  0  0  0  0  0  0  0
  137.3437   68.6137  222.7056 H   0  0  0  0  0  0  0  0  0  0  0  0
  139.9474   69.5794  221.4010 H   0  0  0  0  0  0  0  0  0  0  0  0
  141.2586   68.6754  219.4872 H   0  0  0  0  0  0  0  0  0  0  0  0
  141.0973   66.2097  218.9779 H   0  0  0  0  0  0  0  0  0  0  0  0
  139.6366   64.8385  220.4261 H   0  0  0  0  0  0  0  0  0  0  0  0
  1  2  2  0
  2  3  1  0
  3  4  2  0
  4  5  1  0
  5  6  2  0
  6  7  1  0
  6  8  1  0
  8  9  2  0
  9 10  1  0
 10 11  2  0
 11 12  1  0
 12 13  2  0
 13 14  1  0
 14 15  2  0
 15 16  1  0
 16 17  2  0
 17 18  1  0
 11 19  1  0
 19 20  1  0
 20 21  1  0
 21 22  2  0
 22 23  1  0
 23 24  2  0
 24 25  1  0
 25 26  2  0
 19  2  1  0
 26 21  1  0
  9  3  1  0
 18 14  1  0
  4 27  1  0
  5 28  1  0
  8 29  1  0
 12 30  1  0
 13 31  1  0
 15 32  1  0
 16 33  1  0
 17 34  1  0
 20 35  1  0
 20 36  1  0
 22 37  1  0
 23 38  1  0
 24 39  1  0
 25 40  1  0
M  END
>  <smiles>  (7) 
O=c1c2ccc(F)cc2nc(/C=C/c2ccco2)n1Cc1ccccn1

>  <score_type>  (7) 
oracle

>  <origin>  (7) 
autodockgpu

>  <m_score__min__energy>  (7) 
-7.2599999999999998

>  <m_primary>  (7) 
energy

>  <meeko>  (7) 
{"free_energy": -7.06, "intermolecular_energy": -8.56, "internal_energy": -1.03, "cluster_size": 2, "cluster_id": 2, "rank_in_cluster": 1}

>  <energy>  (7) 
-7.09

>  <cluster_rmsd>  (7) 
0.82

>  <rmsd>  (7) 
271.88

>  <cluster>  (7) 
1

$$$$

     RDKit          3D

 40 43  0  0  0  0  0  0  0  0999 V2000
  139.1990   67.4190  225.4690 O   0  0  0  0  0  0  0  0  0  0  0  0
  139.4550   68.6170  225.1730 C   0  0  0  0  0  0  0  0  0  0  0  0
  140.0320   69.3820  226.1500 C   0  0  0  0  0  0  0  0  0  0  0  0
  140.3210   68.8740  227.3960 C   0  0  0  0  0  0  0  0  0  0  0  0
  140.9090   69.7380  228.3200 C   0  0  0  0  0  0  0  0  0  0  0  0
  141.1820   71.0560  227.9740 C   0  0  0  0  0  0  0  0  0  0  0  0
  141.7480   71.8700  228.8770 F   0  0  0  0  0  0  0  0  0  0  0  0
  140.8900   71.5630  226.7200 C   0  0  0  0  0  0  0  0  0  0  0  0
  140.3120   70.6850  225.8320 C   0  0  0  0  0  0  0  0  0  0  0  0
  140.0130   71.1140  224.6210 N   0  0  0  0  0  0  0  0  0  0  0  0
  139.4340   70.3760  223.6180 C   0  0  0  0  0  0  0  0  0  0  0  0
  139.2380   71.0910  222.3970 C   0  0  0  0  0  0  0  0  0  0  0  0
  138.9470   72.3260  222.1470 C   0  0  0  0  0  0  0  0  0  0  0  0
  139.9870   73.3080  221.7560 C   0  0  0  0  0  0  0  0  0  0  0  0
  141.1340   73.0370  221.0010 C   0  0  0  0  0  0  0  0  0  0  0  0
  141.8380   74.2240  220.8620 C   0  0  0  0  0  0  0  0  0  0  0  0
  141.0710   75.1590  221.5470 C   0  0  0  0  0  0  0  0  0  0  0  0
  140.0170   74.5790  222.0430 O   0  0  0  0  0  0  0  0  0  0  0  0
  139.1590   69.1140  223.9160 N   0  0  0  0  0  0  0  0  0  0  0  0
  138.5200   68.1500  223.0560 C   0  0  0  0  0  0  0  0  0  0  0  0
  137.0560   68.3190  223.0050 C   0  0  0  0  0  0  0  0  0  0  0  0
  136.2020   67.9820  222.0180 C   0  0  0  0  0  0  0  0  0  0  0  0
  134.8150   68.1990  222.0750 C   0  0  0  0  0  0  0  0  0  0  0  0
  134.3000   68.7910  223.2070 C   0  0  0  0  0  0  0  0  0  0  0  0
  135.2060   69.1220  224.1930 C   0  0  0  0  0  0  0  0  0  0  0  0
  136.5060   68.9070  224.1180 N   0  0  0  0  0  0  0  0  0  0  0  0
  140.0972   67.8281  227.6531 H   0  0  0  0  0  0  0  0  0  0  0  0
  141.1579   69.3741  229.3278 H   0  0  0  0  0  0  0  0  0  0  0  0
  141.1072   72.6067  226.4489 H   0  0  0  0  0  0  0  0  0  0  0  0
  139.3577   70.4718  221.4957 H   0  0  0  0  0  0  0  0  0  0  0  0
  137.9009   72.6566  222.2265 H   0  0  0  0  0  0  0  0  0  0  0  0
  141.4249   72.0584  220.5914 H   0  0  0  0  0  0  0  0  0  0  0  0
  142.7871   74.3880  220.3307 H   0  0  0  0  0  0  0  0  0  0  0  0
  141.3172   76.2258  221.6535 H   0  0  0  0  0  0  0  0  0  0  0  0
  138.9234   68.2630  222.0389 H   0  0  0  0  0  0  0  0  0  0  0  0
  138.7262   67.1499  223.4651 H   0  0  0  0  0  0  0  0  0  0  0  0
  136.6153   67.5093  221.1148 H   0  0  0  0  0  0  0  0  0  0  0  0
  134.1605   67.9051  221.2412 H   0  0  0  0  0  0  0  0  0  0  0  0
  133.2238   68.9892  223.3188 H   0  0  0  0  0  0  0  0  0  0  0  0
  134.8180   69.5984  225.1054 H   0  0  0  0  0  0  0  0  0  0  0  0
  1  2  2  0
  2  3  1  0
  3  4  2  0
  4  5  1  0
  5  6  2  0
  6  7  1  0
  6  8  1  0
  8  9  2  0
  9 10  1  0
 10 11  2  0
 11 12  1  0
 12 13  2  0
 13 14  1  0
 14 15  2  0
 15 16  1  0
 16 17  2  0
 17 18  1  0
 11 19  1  0
 19 20  1  0
 20 21  1  0
 21 22  2  0
 22 23  1  0
 23 24  2  0
 24 25  1  0
 25 26  2  0
 19  2  1  0
 26 21  1  0
  9  3  1  0
 18 14  1  0
  4 27  1  0
  5 28  1  0
  8 29  1  0
 12 30  1  0
 13 31  1  0
 15 32  1  0
 16 33  1  0
 17 34  1  0
 20 35  1  0
 20 36  1  0
 22 37  1  0
 23 38  1  0
 24 39  1  0
 25 40  1  0
M  END
>  <smiles>  (8) 
O=c1c2ccc(F)cc2nc(/C=C/c2ccco2)n1Cc1ccccn1

>  <score_type>  (8) 
oracle

>  <origin>  (8) 
autodockgpu

>  <m_score__min__energy>  (8) 
-7.2599999999999998

>  <m_primary>  (8) 
energy

>  <meeko>  (8) 
{"free_energy": -7.07, "intermolecular_energy": -8.57, "internal_energy": -1.12, "cluster_size": 14, "cluster_id": 1, "rank_in_cluster": 9}

>  <energy>  (8) 
-7.08

>  <cluster_rmsd>  (8) 
0.45

>  <rmsd>  (8) 
271.78

>  <cluster>  (8) 
1

$$$$

     RDKit          3D

 40 43  0  0  0  0  0  0  0  0999 V2000
  139.1790   67.7220  225.3180 O   0  0  0  0  0  0  0  0  0  0  0  0
  139.4950   68.9210  225.0880 C   0  0  0  0  0  0  0  0  0  0  0  0
  140.0830   69.6100  226.1140 C   0  0  0  0  0  0  0  0  0  0  0  0
  140.3200   69.0290  227.3390 C   0  0  0  0  0  0  0  0  0  0  0  0
  140.9240   69.8190  228.3170 C   0  0  0  0  0  0  0  0  0  0  0  0
  141.2630   71.1390  228.0430 C   0  0  0  0  0  0  0  0  0  0  0  0
  141.8430   71.8810  228.9970 F   0  0  0  0  0  0  0  0  0  0  0  0
  141.0220   71.7200  226.8100 C   0  0  0  0  0  0  0  0  0  0  0  0
  140.4260   70.9140  225.8670 C   0  0  0  0  0  0  0  0  0  0  0  0
  140.1740   71.4140  224.6740 N   0  0  0  0  0  0  0  0  0  0  0  0
  139.5870   70.7540  223.6230 C   0  0  0  0  0  0  0  0  0  0  0  0
  139.4500   71.5360  222.4360 C   0  0  0  0  0  0  0  0  0  0  0  0
  138.7640   72.5990  222.1660 C   0  0  0  0  0  0  0  0  0  0  0  0
  139.4130   73.9180  221.9730 C   0  0  0  0  0  0  0  0  0  0  0  0
  138.7580   75.1370  221.7670 C   0  0  0  0  0  0  0  0  0  0  0  0
  139.7270   76.1200  221.6330 C   0  0  0  0  0  0  0  0  0  0  0  0
  140.9300   75.4350  221.7660 C   0  0  0  0  0  0  0  0  0  0  0  0
  140.6920   74.1700  221.9590 O   0  0  0  0  0  0  0  0  0  0  0  0
  139.2500   69.4930  223.8520 N   0  0  0  0  0  0  0  0  0  0  0  0
  138.5880   68.6020  222.9310 C   0  0  0  0  0  0  0  0  0  0  0  0
  137.1250   68.5920  223.1060 C   0  0  0  0  0  0  0  0  0  0  0  0
  136.3750   69.2870  223.9840 C   0  0  0  0  0  0  0  0  0  0  0  0
  134.9750   69.1920  224.0670 C   0  0  0  0  0  0  0  0  0  0  0  0
  134.3330   68.3370  223.1990 C   0  0  0  0  0  0  0  0  0  0  0  0
  135.1350   67.6440  222.3150 C   0  0  0  0  0  0  0  0  0  0  0  0
  136.4500   67.7500  222.2550 N   0  0  0  0  0  0  0  0  0  0  0  0
  140.0440   67.9831  227.5388 H   0  0  0  0  0  0  0  0  0  0  0  0
  141.1332   69.3953  229.3103 H   0  0  0  0  0  0  0  0  0  0  0  0
  141.2911   72.7649  226.5963 H   0  0  0  0  0  0  0  0  0  0  0  0
  140.0420   71.1624  221.5875 H   0  0  0  0  0  0  0  0  0  0  0  0
  137.6703   72.5223  222.0772 H   0  0  0  0  0  0  0  0  0  0  0  0
  137.6695   75.2885  221.7198 H   0  0  0  0  0  0  0  0  0  0  0  0
  139.5781   77.1962  221.4608 H   0  0  0  0  0  0  0  0  0  0  0  0
  141.9293   75.8921  221.7158 H   0  0  0  0  0  0  0  0  0  0  0  0
  138.8179   68.9222  221.9041 H   0  0  0  0  0  0  0  0  0  0  0  0
  138.9546   67.5841  223.1299 H   0  0  0  0  0  0  0  0  0  0  0  0
  136.8891   69.9693  224.6770 H   0  0  0  0  0  0  0  0  0  0  0  0
  134.4095   69.7826  224.8028 H   0  0  0  0  0  0  0  0  0  0  0  0
  133.2400   68.2131  223.2097 H   0  0  0  0  0  0  0  0  0  0  0  0
  134.6446   66.9553  221.6113 H   0  0  0  0  0  0  0  0  0  0  0  0
  1  2  2  0
  2  3  1  0
  3  4  2  0
  4  5  1  0
  5  6  2  0
  6  7  1  0
  6  8  1  0
  8  9  2  0
  9 10  1  0
 10 11  2  0
 11 12  1  0
 12 13  2  0
 13 14  1  0
 14 15  2  0
 15 16  1  0
 16 17  2  0
 17 18  1  0
 11 19  1  0
 19 20  1  0
 20 21  1  0
 21 22  2  0
 22 23  1  0
 23 24  2  0
 24 25  1  0
 25 26  2  0
 19  2  1  0
 26 21  1  0
  9  3  1  0
 18 14  1  0
  4 27  1  0
  5 28  1  0
  8 29  1  0
 12 30  1  0
 13 31  1  0
 15 32  1  0
 16 33  1  0
 17 34  1  0
 20 35  1  0
 20 36  1  0
 22 37  1  0
 23 38  1  0
 24 39  1  0
 25 40  1  0
M  END
>  <smiles>  (9) 
O=c1c2ccc(F)cc2nc(/C=C/c2ccco2)n1Cc1ccccn1

>  <score_type>  (9) 
oracle

>  <origin>  (9) 
autodockgpu

>  <m_score__min__energy>  (9) 
-7.2599999999999998

>  <m_primary>  (9) 
energy

>  <meeko>  (9) 
{"free_energy": -7.06, "intermolecular_energy": -8.55, "internal_energy": -1.0, "cluster_size": 14, "cluster_id": 1, "rank_in_cluster": 11}

>  <energy>  (9) 
-7.07

>  <cluster_rmsd>  (9) 
0.46

>  <rmsd>  (9) 
271.77

>  <cluster>  (9) 
1

$$$$

     RDKit          3D

 40 43  0  0  0  0  0  0  0  0999 V2000
  139.2030   67.6750  225.3380 O   0  0  0  0  0  0  0  0  0  0  0  0
  139.4760   68.8890  225.1320 C   0  0  0  0  0  0  0  0  0  0  0  0
  140.0640   69.5710  226.1630 C   0  0  0  0  0  0  0  0  0  0  0  0
  140.3470   68.9680  227.3670 C   0  0  0  0  0  0  0  0  0  0  0  0
  140.9470   69.7520  228.3520 C   0  0  0  0  0  0  0  0  0  0  0  0
  141.2380   71.0890  228.1040 C   0  0  0  0  0  0  0  0  0  0  0  0
  141.8150   71.8250  229.0640 F   0  0  0  0  0  0  0  0  0  0  0  0
  140.9520   71.6920  226.8910 C   0  0  0  0  0  0  0  0  0  0  0  0
  140.3610   70.8910  225.9420 C   0  0  0  0  0  0  0  0  0  0  0  0
  140.0670   71.4120  224.7670 N   0  0  0  0  0  0  0  0  0  0  0  0
  139.4780   70.7590  223.7130 C   0  0  0  0  0  0  0  0  0  0  0  0
  139.2900   71.5660  222.5490 C   0  0  0  0  0  0  0  0  0  0  0  0
  140.1100   72.0010  221.6480 C   0  0  0  0  0  0  0  0  0  0  0  0
  140.5290   73.4220  221.5980 C   0  0  0  0  0  0  0  0  0  0  0  0
  141.5900   73.9430  220.8490 C   0  0  0  0  0  0  0  0  0  0  0  0
  141.6420   75.3080  221.0820 C   0  0  0  0  0  0  0  0  0  0  0  0
  140.5980   75.5440  221.9690 C   0  0  0  0  0  0  0  0  0  0  0  0
  139.9900   74.4240  222.2340 O   0  0  0  0  0  0  0  0  0  0  0  0
  139.1860   69.4830  223.9160 N   0  0  0  0  0  0  0  0  0  0  0  0
  138.5320   68.5940  222.9880 C   0  0  0  0  0  0  0  0  0  0  0  0
  137.0700   68.5610  223.1690 C   0  0  0  0  0  0  0  0  0  0  0  0
  136.1340   68.0030  222.3750 C   0  0  0  0  0  0  0  0  0  0  0  0
  134.7550   68.0400  222.6450 C   0  0  0  0  0  0  0  0  0  0  0  0
  134.3370   68.6840  223.7880 C   0  0  0  0  0  0  0  0  0  0  0  0
  135.3250   69.2420  224.5740 C   0  0  0  0  0  0  0  0  0  0  0  0
  136.6160   69.1950  224.3000 N   0  0  0  0  0  0  0  0  0  0  0  0
  140.1093   67.9090  227.5456 H   0  0  0  0  0  0  0  0  0  0  0  0
  141.1912   69.3108  229.3296 H   0  0  0  0  0  0  0  0  0  0  0  0
  141.1839   72.7498  226.6976 H   0  0  0  0  0  0  0  0  0  0  0  0
  138.2473   71.8773  222.3880 H   0  0  0  0  0  0  0  0  0  0  0  0
  140.5064   71.2986  220.9000 H   0  0  0  0  0  0  0  0  0  0  0  0
  142.2625   73.3712  220.1926 H   0  0  0  0  0  0  0  0  0  0  0  0
  142.3485   76.0385  220.6610 H   0  0  0  0  0  0  0  0  0  0  0  0
  140.3273   76.5264  222.3833 H   0  0  0  0  0  0  0  0  0  0  0  0
  138.7527   68.9294  221.9639 H   0  0  0  0  0  0  0  0  0  0  0  0
  138.9136   67.5792  223.1738 H   0  0  0  0  0  0  0  0  0  0  0  0
  136.4692   67.4886  221.4623 H   0  0  0  0  0  0  0  0  0  0  0  0
  134.0315   67.5686  221.9636 H   0  0  0  0  0  0  0  0  0  0  0  0
  133.2732   68.7502  224.0600 H   0  0  0  0  0  0  0  0  0  0  0  0
  135.0154   69.7620  225.4926 H   0  0  0  0  0  0  0  0  0  0  0  0
  1  2  2  0
  2  3  1  0
  3  4  2  0
  4  5  1  0
  5  6  2  0
  6  7  1  0
  6  8  1  0
  8  9  2  0
  9 10  1  0
 10 11  2  0
 11 12  1  0
 12 13  2  0
 13 14  1  0
 14 15  2  0
 15 16  1  0
 16 17  2  0
 17 18  1  0
 11 19  1  0
 19 20  1  0
 20 21  1  0
 21 22  2  0
 22 23  1  0
 23 24  2  0
 24 25  1  0
 25 26  2  0
 19  2  1  0
 26 21  1  0
  9  3  1  0
 18 14  1  0
  4 27  1  0
  5 28  1  0
  8 29  1  0
 12 30  1  0
 13 31  1  0
 15 32  1  0
 16 33  1  0
 17 34  1  0
 20 35  1  0
 20 36  1  0
 22 37  1  0
 23 38  1  0
 24 39  1  0
 25 40  1  0
M  END
>  <smiles>  (10) 
O=c1c2ccc(F)cc2nc(/C=C/c2ccco2)n1Cc1ccccn1

>  <score_type>  (10) 
oracle

>  <origin>  (10) 
autodockgpu

>  <m_score__min__energy>  (10) 
-7.2599999999999998

>  <m_primary>  (10) 
energy

>  <meeko>  (10) 
{"free_energy": -7.22, "intermolecular_energy": -8.71, "internal_energy": -1.02, "cluster_size": 14, "cluster_id": 1, "rank_in_cluster": 4}

>  <energy>  (10) 
-7.07

>  <cluster_rmsd>  (10) 
1.89

>  <rmsd>  (10) 
271.8

>  <cluster>  (10) 
1

$$$$

     RDKit          3D

 40 43  0  0  0  0  0  0  0  0999 V2000
  138.6350   77.1220  222.4620 O   0  0  0  0  0  0  0  0  0  0  0  0
  139.7850   77.3520  222.0000 C   0  0  0  0  0  0  0  0  0  0  0  0
  140.4310   78.4610  222.4790 C   0  0  0  0  0  0  0  0  0  0  0  0
  139.8570   79.2860  223.4180 C   0  0  0  0  0  0  0  0  0  0  0  0
  140.6000   80.3900  223.8400 C   0  0  0  0  0  0  0  0  0  0  0  0
  141.8660   80.6260  223.3170 C   0  0  0  0  0  0  0  0  0  0  0  0
  142.5620   81.6920  223.7350 F   0  0  0  0  0  0  0  0  0  0  0  0
  142.4380   79.7930  222.3710 C   0  0  0  0  0  0  0  0  0  0  0  0
  141.6810   78.7130  221.9770 C   0  0  0  0  0  0  0  0  0  0  0  0
  142.1770   77.8850  221.0800 N   0  0  0  0  0  0  0  0  0  0  0  0
  141.5590   76.7670  220.5770 C   0  0  0  0  0  0  0  0  0  0  0  0
  142.3360   76.0400  219.6250 C   0  0  0  0  0  0  0  0  0  0  0  0
  143.6040   75.7950  219.5390 C   0  0  0  0  0  0  0  0  0  0  0  0
  144.2070   74.5860  220.1500 C   0  0  0  0  0  0  0  0  0  0  0  0
  145.4520   74.5170  220.7840 C   0  0  0  0  0  0  0  0  0  0  0  0
  145.6370   73.2110  221.2120 C   0  0  0  0  0  0  0  0  0  0  0  0
  144.4810   72.5530  220.8100 C   0  0  0  0  0  0  0  0  0  0  0  0
  143.6910   73.3910  220.2020 O   0  0  0  0  0  0  0  0  0  0  0  0
  140.3490   76.5130  221.0550 N   0  0  0  0  0  0  0  0  0  0  0  0
  139.4820   75.4300  220.6630 C   0  0  0  0  0  0  0  0  0  0  0  0
  140.0500   74.1070  220.9800 C   0  0  0  0  0  0  0  0  0  0  0  0
  140.5380   73.1750  220.1380 C   0  0  0  0  0  0  0  0  0  0  0  0
  141.0520   71.9350  220.5560 C   0  0  0  0  0  0  0  0  0  0  0  0
  141.0550   71.6580  221.9040 C   0  0  0  0  0  0  0  0  0  0  0  0
  140.5460   72.6370  222.7330 C   0  0  0  0  0  0  0  0  0  0  0  0
  140.0690   73.7960  222.3190 N   0  0  0  0  0  0  0  0  0  0  0  0
  138.8532   79.0841  223.8201 H   0  0  0  0  0  0  0  0  0  0  0  0
  140.1813   81.0768  224.5904 H   0  0  0  0  0  0  0  0  0  0  0  0
  143.4396   79.9831  221.9580 H   0  0  0  0  0  0  0  0  0  0  0  0
  141.7429   75.6043  218.8074 H   0  0  0  0  0  0  0  0  0  0  0  0
  144.2509   76.5018  218.9988 H   0  0  0  0  0  0  0  0  0  0  0  0
  146.1580   75.3497  220.9189 H   0  0  0  0  0  0  0  0  0  0  0  0
  146.5015   72.7916  221.7475 H   0  0  0  0  0  0  0  0  0  0  0  0
  144.2661   71.4876  220.9794 H   0  0  0  0  0  0  0  0  0  0  0  0
  138.5230   75.5375  221.1909 H   0  0  0  0  0  0  0  0  0  0  0  0
  139.3524   75.4846  219.5720 H   0  0  0  0  0  0  0  0  0  0  0  0
  140.5340   73.3974  219.0607 H   0  0  0  0  0  0  0  0  0  0  0  0
  141.4401   71.2080  219.8274 H   0  0  0  0  0  0  0  0  0  0  0  0
  141.4422   70.7074  222.2995 H   0  0  0  0  0  0  0  0  0  0  0  0
  140.5372   72.4374  223.8147 H   0  0  0  0  0  0  0  0  0  0  0  0
  1  2  2  0
  2  3  1  0
  3  4  2  0
  4  5  1  0
  5  6  2  0
  6  7  1  0
  6  8  1  0
  8  9  2  0
  9 10  1  0
 10 11  2  0
 11 12  1  0
 12 13  2  0
 13 14  1  0
 14 15  2  0
 15 16  1  0
 16 17  2  0
 17 18  1  0
 11 19  1  0
 19 20  1  0
 20 21  1  0
 21 22  2  0
 22 23  1  0
 23 24  2  0
 24 25  1  0
 25 26  2  0
 19  2  1  0
 26 21  1  0
  9  3  1  0
 18 14  1  0
  4 27  1  0
  5 28  1  0
  8 29  1  0
 12 30  1  0
 13 31  1  0
 15 32  1  0
 16 33  1  0
 17 34  1  0
 20 35  1  0
 20 36  1  0
 22 37  1  0
 23 38  1  0
 24 39  1  0
 25 40  1  0
M  END
>  <smiles>  (11) 
O=c1c2ccc(F)cc2nc(/C=C/c2ccco2)n1Cc1ccccn1

>  <score_type>  (11) 
oracle

>  <origin>  (11) 
autodockgpu

>  <m_score__min__energy>  (11) 
-7.2599999999999998

>  <m_primary>  (11) 
energy

>  <meeko>  (11) 
{"free_energy": -6.41, "intermolecular_energy": -7.9, "internal_energy": -1.49, "cluster_size": 3, "cluster_id": 4, "rank_in_cluster": 2}

>  <energy>  (11) 
-7.06

>  <cluster_rmsd>  (11) 
0.81

>  <rmsd>  (11) 
271.84

>  <cluster>  (11) 
1

$$$$

     RDKit          3D

 40 43  0  0  0  0  0  0  0  0999 V2000
  140.7410   72.2320  224.0940 O   0  0  0  0  0  0  0  0  0  0  0  0
  140.0490   71.1960  224.2890 C   0  0  0  0  0  0  0  0  0  0  0  0
  140.1460   70.6150  225.5250 C   0  0  0  0  0  0  0  0  0  0  0  0
  140.9550   71.1320  226.5100 C   0  0  0  0  0  0  0  0  0  0  0  0
  140.9810   70.4640  227.7340 C   0  0  0  0  0  0  0  0  0  0  0  0
  140.2110   69.3220  227.9280 C   0  0  0  0  0  0  0  0  0  0  0  0
  140.2500   68.6950  229.1110 F   0  0  0  0  0  0  0  0  0  0  0  0
  139.3990   68.8060  226.9330 C   0  0  0  0  0  0  0  0  0  0  0  0
  139.3950   69.4890  225.7390 C   0  0  0  0  0  0  0  0  0  0  0  0
  138.6380   69.0420  224.7560 N   0  0  0  0  0  0  0  0  0  0  0  0
  138.5180   69.5980  223.5060 C   0  0  0  0  0  0  0  0  0  0  0  0
  137.6110   68.9150  222.6410 C   0  0  0  0  0  0  0  0  0  0  0  0
  136.3220   68.8040  222.6400 C   0  0  0  0  0  0  0  0  0  0  0  0
  135.5240   68.9900  223.8760 C   0  0  0  0  0  0  0  0  0  0  0  0
  135.5120   70.1310  224.6860 C   0  0  0  0  0  0  0  0  0  0  0  0
  134.6370   69.8960  225.7350 C   0  0  0  0  0  0  0  0  0  0  0  0
  134.1600   68.6110  225.5020 C   0  0  0  0  0  0  0  0  0  0  0  0
  134.7030   68.1350  224.4190 O   0  0  0  0  0  0  0  0  0  0  0  0
  139.2400   70.6880  223.2880 N   0  0  0  0  0  0  0  0  0  0  0  0
  139.3200   71.4310  222.0560 C   0  0  0  0  0  0  0  0  0  0  0  0
  138.6970   72.7640  222.1570 C   0  0  0  0  0  0  0  0  0  0  0  0
  137.3880   73.0830  222.1840 C   0  0  0  0  0  0  0  0  0  0  0  0
  136.9050   74.4000  222.2760 C   0  0  0  0  0  0  0  0  0  0  0  0
  137.8250   75.4230  222.3410 C   0  0  0  0  0  0  0  0  0  0  0  0
  139.1550   75.0550  222.3100 C   0  0  0  0  0  0  0  0  0  0  0  0
  139.5860   73.8100  222.2240 N   0  0  0  0  0  0  0  0  0  0  0  0
  141.5575   72.0363  226.3391 H   0  0  0  0  0  0  0  0  0  0  0  0
  141.6138   70.8423  228.5503 H   0  0  0  0  0  0  0  0  0  0  0  0
  138.7919   67.9019  227.0881 H   0  0  0  0  0  0  0  0  0  0  0  0
  138.1031   68.3795  221.8157 H   0  0  0  0  0  0  0  0  0  0  0  0
  135.8051   68.5657  221.6987 H   0  0  0  0  0  0  0  0  0  0  0  0
  136.0931   71.0501  224.5199 H   0  0  0  0  0  0  0  0  0  0  0  0
  134.3788   70.5722  226.5633 H   0  0  0  0  0  0  0  0  0  0  0  0
  133.4353   68.0785  226.1354 H   0  0  0  0  0  0  0  0  0  0  0  0
  140.3795   71.5565  221.7883 H   0  0  0  0  0  0  0  0  0  0  0  0
  138.7724   70.8642  221.2886 H   0  0  0  0  0  0  0  0  0  0  0  0
  136.6545   72.2650  222.1310 H   0  0  0  0  0  0  0  0  0  0  0  0
  135.8249   74.6073  222.2955 H   0  0  0  0  0  0  0  0  0  0  0  0
  137.5165   76.4763  222.4137 H   0  0  0  0  0  0  0  0  0  0  0  0
  139.9084   75.8549  222.3605 H   0  0  0  0  0  0  0  0  0  0  0  0
  1  2  2  0
  2  3  1  0
  3  4  2  0
  4  5  1  0
  5  6  2  0
  6  7  1  0
  6  8  1  0
  8  9  2  0
  9 10  1  0
 10 11  2  0
 11 12  1  0
 12 13  2  0
 13 14  1  0
 14 15  2  0
 15 16  1  0
 16 17  2  0
 17 18  1  0
 11 19  1  0
 19 20  1  0
 20 21  1  0
 21 22  2  0
 22 23  1  0
 23 24  2  0
 24 25  1  0
 25 26  2  0
 19  2  1  0
 26 21  1  0
  9  3  1  0
 18 14  1  0
  4 27  1  0
  5 28  1  0
  8 29  1  0
 12 30  1  0
 13 31  1  0
 15 32  1  0
 16 33  1  0
 17 34  1  0
 20 35  1  0
 20 36  1  0
 22 37  1  0
 23 38  1  0
 24 39  1  0
 25 40  1  0
M  END
>  <smiles>  (12) 
O=c1c2ccc(F)cc2nc(/C=C/c2ccco2)n1Cc1ccccn1

>  <score_type>  (12) 
oracle

>  <origin>  (12) 
autodockgpu

>  <m_score__min__energy>  (12) 
-7.2599999999999998

>  <m_primary>  (12) 
energy

>  <meeko>  (12) 
{"free_energy": -6.47, "intermolecular_energy": -7.96, "internal_energy": -1.31, "cluster_size": 1, "cluster_id": 3, "rank_in_cluster": 1}

>  <energy>  (12) 
-7.02

>  <cluster_rmsd>  (12) 
1.94

>  <rmsd>  (12) 
271.78

>  <cluster>  (12) 
1

$$$$

     RDKit          3D

 40 43  0  0  0  0  0  0  0  0999 V2000
  139.1980   67.4290  225.4370 O   0  0  0  0  0  0  0  0  0  0  0  0
  139.4530   68.6320  225.1580 C   0  0  0  0  0  0  0  0  0  0  0  0
  140.0070   69.3900  226.1540 C   0  0  0  0  0  0  0  0  0  0  0  0
  140.2740   68.8700  227.4000 C   0  0  0  0  0  0  0  0  0  0  0  0
  140.8390   69.7280  228.3440 C   0  0  0  0  0  0  0  0  0  0  0  0
  141.1110   71.0520  228.0170 C   0  0  0  0  0  0  0  0  0  0  0  0
  141.6540   71.8590  228.9390 F   0  0  0  0  0  0  0  0  0  0  0  0
  140.8400   71.5700  226.7620 C   0  0  0  0  0  0  0  0  0  0  0  0
  140.2840   70.6980  225.8540 C   0  0  0  0  0  0  0  0  0  0  0  0
  140.0060   71.1370  224.6430 N   0  0  0  0  0  0  0  0  0  0  0  0
  139.4510   70.4070  223.6220 C   0  0  0  0  0  0  0  0  0  0  0  0
  139.2740   71.1330  222.4040 C   0  0  0  0  0  0  0  0  0  0  0  0
  138.9680   72.3660  222.1610 C   0  0  0  0  0  0  0  0  0  0  0  0
  139.9970   73.3640  221.7840 C   0  0  0  0  0  0  0  0  0  0  0  0
  141.1550   73.1130  221.0400 C   0  0  0  0  0  0  0  0  0  0  0  0
  141.8430   74.3100  220.9120 C   0  0  0  0  0  0  0  0  0  0  0  0
  141.0550   75.2320  221.5920 C   0  0  0  0  0  0  0  0  0  0  0  0
  140.0050   74.6350  222.0750 O   0  0  0  0  0  0  0  0  0  0  0  0
  139.1780   69.1400  223.9010 N   0  0  0  0  0  0  0  0  0  0  0  0
  138.5610   68.1810  223.0190 C   0  0  0  0  0  0  0  0  0  0  0  0
  137.0920   68.3010  222.9900 C   0  0  0  0  0  0  0  0  0  0  0  0
  136.2290   67.8740  222.0470 C   0  0  0  0  0  0  0  0  0  0  0  0
  134.8370   68.0510  222.1220 C   0  0  0  0  0  0  0  0  0  0  0  0
  134.3260   68.6990  223.2240 C   0  0  0  0  0  0  0  0  0  0  0  0
  135.2410   69.1210  224.1670 C   0  0  0  0  0  0  0  0  0  0  0  0
  136.5460   68.9420  224.0760 N   0  0  0  0  0  0  0  0  0  0  0  0
  140.0510   67.8203  227.6418 H   0  0  0  0  0  0  0  0  0  0  0  0
  141.0706   69.3551  229.3526 H   0  0  0  0  0  0  0  0  0  0  0  0
  141.0565   72.6176  226.5055 H   0  0  0  0  0  0  0  0  0  0  0  0
  139.4275   70.5267  221.4991 H   0  0  0  0  0  0  0  0  0  0  0  0
  137.9171   72.6821  222.2360 H   0  0  0  0  0  0  0  0  0  0  0  0
  141.4642   72.1402  220.6300 H   0  0  0  0  0  0  0  0  0  0  0  0
  142.7952   74.4893  220.3912 H   0  0  0  0  0  0  0  0  0  0  0  0
  141.2843   76.3020  221.7043 H   0  0  0  0  0  0  0  0  0  0  0  0
  138.9476   68.3386  222.0013 H   0  0  0  0  0  0  0  0  0  0  0  0
  138.8060   67.1767  223.3949 H   0  0  0  0  0  0  0  0  0  0  0  0
  136.6384   67.3565  221.1669 H   0  0  0  0  0  0  0  0  0  0  0  0
  134.1754   67.6828  221.3241 H   0  0  0  0  0  0  0  0  0  0  0  0
  133.2465   68.8711  223.3463 H   0  0  0  0  0  0  0  0  0  0  0  0
  134.8565   69.6426  225.0559 H   0  0  0  0  0  0  0  0  0  0  0  0
  1  2  2  0
  2  3  1  0
  3  4  2  0
  4  5  1  0
  5  6  2  0
  6  7  1  0
  6  8  1  0
  8  9  2  0
  9 10  1  0
 10 11  2  0
 11 12  1  0
 12 13  2  0
 13 14  1  0
 14 15  2  0
 15 16  1  0
 16 17  2  0
 17 18  1  0
 11 19  1  0
 19 20  1  0
 20 21  1  0
 21 22  2  0
 22 23  1  0
 23 24  2  0
 24 25  1  0
 25 26  2  0
 19  2  1  0
 26 21  1  0
  9  3  1  0
 18 14  1  0
  4 27  1  0
  5 28  1  0
  8 29  1  0
 12 30  1  0
 13 31  1  0
 15 32  1  0
 16 33  1  0
 17 34  1  0
 20 35  1  0
 20 36  1  0
 22 37  1  0
 23 38  1  0
 24 39  1  0
 25 40  1  0
M  END
>  <smiles>  (13) 
O=c1c2ccc(F)cc2nc(/C=C/c2ccco2)n1Cc1ccccn1

>  <score_type>  (13) 
oracle

>  <origin>  (13) 
autodockgpu

>  <m_score__min__energy>  (13) 
-7.2599999999999998

>  <m_primary>  (13) 
energy

>  <meeko>  (13) 
{"free_energy": -7.08, "intermolecular_energy": -8.57, "internal_energy": -1.11, "cluster_size": 14, "cluster_id": 1, "rank_in_cluster": 8}

>  <energy>  (13) 
-7.01

>  <cluster_rmsd>  (13) 
0.57

>  <rmsd>  (13) 
271.73

>  <cluster>  (13) 
1

$$$$

     RDKit          3D

 40 43  0  0  0  0  0  0  0  0999 V2000
  138.6480   77.0990  222.4490 O   0  0  0  0  0  0  0  0  0  0  0  0
  139.7960   77.3360  221.9860 C   0  0  0  0  0  0  0  0  0  0  0  0
  140.4390   78.4430  222.4710 C   0  0  0  0  0  0  0  0  0  0  0  0
  139.8650   79.2600  223.4190 C   0  0  0  0  0  0  0  0  0  0  0  0
  140.6050   80.3620  223.8470 C   0  0  0  0  0  0  0  0  0  0  0  0
  141.8690   80.6070  223.3220 C   0  0  0  0  0  0  0  0  0  0  0  0
  142.5630   81.6720  223.7470 F   0  0  0  0  0  0  0  0  0  0  0  0
  142.4410   79.7830  222.3690 C   0  0  0  0  0  0  0  0  0  0  0  0
  141.6870   78.7040  221.9690 C   0  0  0  0  0  0  0  0  0  0  0  0
  142.1830   77.8850  221.0630 N   0  0  0  0  0  0  0  0  0  0  0  0
  141.5680   76.7680  220.5540 C   0  0  0  0  0  0  0  0  0  0  0  0
  142.3460   76.0510  219.5940 C   0  0  0  0  0  0  0  0  0  0  0  0
  143.6130   75.8050  219.5070 C   0  0  0  0  0  0  0  0  0  0  0  0
  144.2120   74.5860  220.1000 C   0  0  0  0  0  0  0  0  0  0  0  0
  145.4330   74.5150  220.7800 C   0  0  0  0  0  0  0  0  0  0  0  0
  145.6230   73.1980  221.1710 C   0  0  0  0  0  0  0  0  0  0  0  0
  144.4950   72.5360  220.7020 C   0  0  0  0  0  0  0  0  0  0  0  0
  143.7150   73.3810  220.0920 O   0  0  0  0  0  0  0  0  0  0  0  0
  140.3600   76.5070  221.0330 N   0  0  0  0  0  0  0  0  0  0  0  0
  139.4960   75.4230  220.6350 C   0  0  0  0  0  0  0  0  0  0  0  0
  140.0420   74.1020  220.9950 C   0  0  0  0  0  0  0  0  0  0  0  0
  140.6110   73.1780  220.1960 C   0  0  0  0  0  0  0  0  0  0  0  0
  141.0930   71.9390  220.6510 C   0  0  0  0  0  0  0  0  0  0  0  0
  140.9750   71.6530  221.9930 C   0  0  0  0  0  0  0  0  0  0  0  0
  140.3870   72.6240  222.7780 C   0  0  0  0  0  0  0  0  0  0  0  0
  139.9420   73.7830  222.3280 N   0  0  0  0  0  0  0  0  0  0  0  0
  138.8631   79.0519  223.8226 H   0  0  0  0  0  0  0  0  0  0  0  0
  140.1863   81.0412  224.6042 H   0  0  0  0  0  0  0  0  0  0  0  0
  143.4410   79.9793  221.9550 H   0  0  0  0  0  0  0  0  0  0  0  0
  141.7536   75.6264  218.7702 H   0  0  0  0  0  0  0  0  0  0  0  0
  144.2625   76.5189  218.9793 H   0  0  0  0  0  0  0  0  0  0  0  0
  146.1191   75.3535  220.9703 H   0  0  0  0  0  0  0  0  0  0  0  0
  146.4729   72.7741  221.7259 H   0  0  0  0  0  0  0  0  0  0  0  0
  144.2921   71.4621  220.8270 H   0  0  0  0  0  0  0  0  0  0  0  0
  138.5220   75.5486  221.1304 H   0  0  0  0  0  0  0  0  0  0  0  0
  139.4012   75.4573  219.5396 H   0  0  0  0  0  0  0  0  0  0  0  0
  140.7036   73.4072  219.1241 H   0  0  0  0  0  0  0  0  0  0  0  0
  141.5507   71.2193  219.9563 H   0  0  0  0  0  0  0  0  0  0  0  0
  141.3303   70.7019  222.4164 H   0  0  0  0  0  0  0  0  0  0  0  0
  140.2817   72.4181  223.8534 H   0  0  0  0  0  0  0  0  0  0  0  0
  1  2  2  0
  2  3  1  0
  3  4  2  0
  4  5  1  0
  5  6  2  0
  6  7  1  0
  6  8  1  0
  8  9  2  0
  9 10  1  0
 10 11  2  0
 11 12  1  0
 12 13  2  0
 13 14  1  0
 14 15  2  0
 15 16  1  0
 16 17  2  0
 17 18  1  0
 11 19  1  0
 19 20  1  0
 20 21  1  0
 21 22  2  0
 22 23  1  0
 23 24  2  0
 24 25  1  0
 25 26  2  0
 19  2  1  0
 26 21  1  0
  9  3  1  0
 18 14  1  0
  4 27  1  0
  5 28  1  0
  8 29  1  0
 12 30  1  0
 13 31  1  0
 15 32  1  0
 16 33  1  0
 17 34  1  0
 20 35  1  0
 20 36  1  0
 22 37  1  0
 23 38  1  0
 24 39  1  0
 25 40  1  0
M  END
>  <smiles>  (14) 
O=c1c2ccc(F)cc2nc(/C=C/c2ccco2)n1Cc1ccccn1

>  <score_type>  (14) 
oracle

>  <origin>  (14) 
autodockgpu

>  <m_score__min__energy>  (14) 
-7.2599999999999998

>  <m_primary>  (14) 
energy

>  <meeko>  (14) 
{"free_energy": -6.44, "intermolecular_energy": -7.93, "internal_energy": -1.46, "cluster_size": 3, "cluster_id": 4, "rank_in_cluster": 1}

>  <energy>  (14) 
-6.98

>  <cluster_rmsd>  (14) 
0.58

>  <rmsd>  (14) 
271.83

>  <cluster>  (14) 
1

$$$$

     RDKit          3D

 40 43  0  0  0  0  0  0  0  0999 V2000
  139.2090   67.3860  225.3380 O   0  0  0  0  0  0  0  0  0  0  0  0
  139.2310   68.6290  225.1310 C   0  0  0  0  0  0  0  0  0  0  0  0
  139.8560   69.3990  226.0750 C   0  0  0  0  0  0  0  0  0  0  0  0
  140.4320   68.8490  227.1970 C   0  0  0  0  0  0  0  0  0  0  0  0
  141.0430   69.7230  228.0970 C   0  0  0  0  0  0  0  0  0  0  0  0
  141.0560   71.0910  227.8500 C   0  0  0  0  0  0  0  0  0  0  0  0
  141.6480   71.9120  228.7270 F   0  0  0  0  0  0  0  0  0  0  0  0
  140.4750   71.6390  226.7190 C   0  0  0  0  0  0  0  0  0  0  0  0
  139.8810   70.7510  225.8520 C   0  0  0  0  0  0  0  0  0  0  0  0
  139.3120   71.2180  224.7580 N   0  0  0  0  0  0  0  0  0  0  0  0
  138.6780   70.4770  223.7920 C   0  0  0  0  0  0  0  0  0  0  0  0
  138.1660   71.2430  222.7010 C   0  0  0  0  0  0  0  0  0  0  0  0
  138.3460   72.4710  222.3370 C   0  0  0  0  0  0  0  0  0  0  0  0
  139.6790   72.9730  221.9260 C   0  0  0  0  0  0  0  0  0  0  0  0
  140.7200   72.2070  221.3890 C   0  0  0  0  0  0  0  0  0  0  0  0
  141.7870   73.0570  221.1440 C   0  0  0  0  0  0  0  0  0  0  0  0
  141.3310   74.3050  221.5500 C   0  0  0  0  0  0  0  0  0  0  0  0
  140.1120   74.2010  221.9920 O   0  0  0  0  0  0  0  0  0  0  0  0
  138.6470   69.1680  223.9980 N   0  0  0  0  0  0  0  0  0  0  0  0
  138.0120   68.1830  223.1590 C   0  0  0  0  0  0  0  0  0  0  0  0
  138.8500   67.7920  222.0110 C   0  0  0  0  0  0  0  0  0  0  0  0
  139.6380   68.5670  221.2390 C   0  0  0  0  0  0  0  0  0  0  0  0
  140.3930   68.0830  220.1560 C   0  0  0  0  0  0  0  0  0  0  0  0
  140.3220   66.7390  219.8690 C   0  0  0  0  0  0  0  0  0  0  0  0
  139.5050   65.9790  220.6810 C   0  0  0  0  0  0  0  0  0  0  0  0
  138.8050   66.4550  221.6940 N   0  0  0  0  0  0  0  0  0  0  0  0
  140.4117   67.7641  227.3773 H   0  0  0  0  0  0  0  0  0  0  0  0
  141.5171   69.3272  229.0072 H   0  0  0  0  0  0  0  0  0  0  0  0
  140.4876   72.7217  226.5248 H   0  0  0  0  0  0  0  0  0  0  0  0
  137.4876   70.6800  222.0432 H   0  0  0  0  0  0  0  0  0  0  0  0
  137.4886   73.1601  222.3323 H   0  0  0  0  0  0  0  0  0  0  0  0
  140.6957   71.1243  221.1960 H   0  0  0  0  0  0  0  0  0  0  0  0
  142.7710   72.8016  220.7237 H   0  0  0  0  0  0  0  0  0  0  0  0
  141.9118   75.2381  221.5046 H   0  0  0  0  0  0  0  0  0  0  0  0
  137.8021   67.2880  223.7631 H   0  0  0  0  0  0  0  0  0  0  0  0
  137.0886   68.6292  222.7611 H   0  0  0  0  0  0  0  0  0  0  0  0
  139.6936   69.6411  221.4699 H   0  0  0  0  0  0  0  0  0  0  0  0
  141.0213   68.7581  219.5564 H   0  0  0  0  0  0  0  0  0  0  0  0
  140.8866   66.2940  219.0364 H   0  0  0  0  0  0  0  0  0  0  0  0
  139.4320   64.9020  220.4695 H   0  0  0  0  0  0  0  0  0  0  0  0
  1  2  2  0
  2  3  1  0
  3  4  2  0
  4  5  1  0
  5  6  2  0
  6  7  1  0
  6  8  1  0
  8  9  2  0
  9 10  1  0
 10 11  2  0
 11 12  1  0
 12 13  2  0
 13 14  1  0
 14 15  2  0
 15 16  1  0
 16 17  2  0
 17 18  1  0
 11 19  1  0
 19 20  1  0
 20 21  1  0
 21 22  2  0
 22 23  1  0
 23 24  2  0
 24 25  1  0
 25 26  2  0
 19  2  1  0
 26 21  1  0
  9  3  1  0
 18 14  1  0
  4 27  1  0
  5 28  1  0
  8 29  1  0
 12 30  1  0
 13 31  1  0
 15 32  1  0
 16 33  1  0
 17 34  1  0
 20 35  1  0
 20 36  1  0
 22 37  1  0
 23 38  1  0
 24 39  1  0
 25 40  1  0
M  END
>  <smiles>  (15) 
O=c1c2ccc(F)cc2nc(/C=C/c2ccco2)n1Cc1ccccn1

>  <score_type>  (15) 
oracle

>  <origin>  (15) 
autodockgpu

>  <m_score__min__energy>  (15) 
-7.2599999999999998

>  <m_primary>  (15) 
energy

>  <meeko>  (15) 
{"free_energy": -6.85, "intermolecular_energy": -8.34, "internal_energy": -1.26, "cluster_size": 2, "cluster_id": 2, "rank_in_cluster": 2}

>  <energy>  (15) 
-7.06

>  <cluster_rmsd>  (15) 
0.0

>  <rmsd>  (15) 
271.69

>  <cluster>  (15) 
2

$$$$

     RDKit          3D

 40 43  0  0  0  0  0  0  0  0999 V2000
  139.2090   67.7390  225.2840 O   0  0  0  0  0  0  0  0  0  0  0  0
  139.5610   68.9290  225.0590 C   0  0  0  0  0  0  0  0  0  0  0  0
  140.1180   69.6140  226.1050 C   0  0  0  0  0  0  0  0  0  0  0  0
  140.2870   69.0380  227.3440 C   0  0  0  0  0  0  0  0  0  0  0  0
  140.8650   69.8230  228.3420 C   0  0  0  0  0  0  0  0  0  0  0  0
  141.2460   71.1330  228.0730 C   0  0  0  0  0  0  0  0  0  0  0  0
  141.7990   71.8700  229.0460 F   0  0  0  0  0  0  0  0  0  0  0  0
  141.0730   71.7070  226.8260 C   0  0  0  0  0  0  0  0  0  0  0  0
  140.5020   70.9070  225.8640 C   0  0  0  0  0  0  0  0  0  0  0  0
  140.3140   71.4020  224.6560 N   0  0  0  0  0  0  0  0  0  0  0  0
  139.7600   70.7460  223.5860 C   0  0  0  0  0  0  0  0  0  0  0  0
  139.6940   71.5200  222.3870 C   0  0  0  0  0  0  0  0  0  0  0  0
  140.6020   72.1050  221.6760 C   0  0  0  0  0  0  0  0  0  0  0  0
  140.7150   73.5820  221.6190 C   0  0  0  0  0  0  0  0  0  0  0  0
  141.6560   74.3090  220.8800 C   0  0  0  0  0  0  0  0  0  0  0  0
  141.4180   75.6570  221.1030 C   0  0  0  0  0  0  0  0  0  0  0  0
  140.3350   75.6740  221.9740 C   0  0  0  0  0  0  0  0  0  0  0  0
  139.9700   74.4530  222.2400 O   0  0  0  0  0  0  0  0  0  0  0  0
  139.3840   69.4940  223.8090 N   0  0  0  0  0  0  0  0  0  0  0  0
  138.7450   68.6100  222.8660 C   0  0  0  0  0  0  0  0  0  0  0  0
  137.2840   68.5420  223.0560 C   0  0  0  0  0  0  0  0  0  0  0  0
  136.3740   67.8450  222.3470 C   0  0  0  0  0  0  0  0  0  0  0  0
  134.9940   67.8600  222.6150 C   0  0  0  0  0  0  0  0  0  0  0  0
  134.5480   68.6340  223.6630 C   0  0  0  0  0  0  0  0  0  0  0  0
  135.5100   69.3320  224.3630 C   0  0  0  0  0  0  0  0  0  0  0  0
  136.8030   69.3020  224.0940 N   0  0  0  0  0  0  0  0  0  0  0  0
  139.9786   68.0003  227.5392 H   0  0  0  0  0  0  0  0  0  0  0  0
  141.0202   69.4035  229.3469 H   0  0  0  0  0  0  0  0  0  0  0  0
  141.3748   72.7437  226.6161 H   0  0  0  0  0  0  0  0  0  0  0  0
  138.6744   71.6418  221.9926 H   0  0  0  0  0  0  0  0  0  0  0  0
  141.3087   71.4908  221.0986 H   0  0  0  0  0  0  0  0  0  0  0  0
  142.4429   73.8868  220.2378 H   0  0  0  0  0  0  0  0  0  0  0  0
  141.9624   76.5169  220.6856 H   0  0  0  0  0  0  0  0  0  0  0  0
  139.8592   76.5803  222.3768 H   0  0  0  0  0  0  0  0  0  0  0  0
  138.9519   68.9713  221.8478 H   0  0  0  0  0  0  0  0  0  0  0  0
  139.1503   67.6002  223.0270 H   0  0  0  0  0  0  0  0  0  0  0  0
  136.7321   67.2282  221.5095 H   0  0  0  0  0  0  0  0  0  0  0  0
  134.2919   67.2714  222.0062 H   0  0  0  0  0  0  0  0  0  0  0  0
  133.4819   68.6925  223.9277 H   0  0  0  0  0  0  0  0  0  0  0  0
  135.1771   69.9576  225.2044 H   0  0  0  0  0  0  0  0  0  0  0  0
  1  2  2  0
  2  3  1  0
  3  4  2  0
  4  5  1  0
  5  6  2  0
  6  7  1  0
  6  8  1  0
  8  9  2  0
  9 10  1  0
 10 11  2  0
 11 12  1  0
 12 13  2  0
 13 14  1  0
 14 15  2  0
 15 16  1  0
 16 17  2  0
 17 18  1  0
 11 19  1  0
 19 20  1  0
 20 21  1  0
 21 22  2  0
 22 23  1  0
 23 24  2  0
 24 25  1  0
 25 26  2  0
 19  2  1  0
 26 21  1  0
  9  3  1  0
 18 14  1  0
  4 27  1  0
  5 28  1  0
  8 29  1  0
 12 30  1  0
 13 31  1  0
 15 32  1  0
 16 33  1  0
 17 34  1  0
 20 35  1  0
 20 36  1  0
 22 37  1  0
 23 38  1  0
 24 39  1  0
 25 40  1  0
M  END
>  <smiles>  (16) 
O=c1c2ccc(F)cc2nc(/C=C/c2ccco2)n1Cc1ccccn1

>  <score_type>  (16) 
oracle

>  <origin>  (16) 
autodockgpu

>  <m_score__min__energy>  (16) 
-7.2599999999999998

>  <m_primary>  (16) 
energy

>  <meeko>  (16) 
{"free_energy": -7.24, "intermolecular_energy": -8.73, "internal_energy": -1.0, "cluster_size": 14, "cluster_id": 1, "rank_in_cluster": 2}

>  <energy>  (16) 
-6.85

>  <cluster_rmsd>  (16) 
0.36

>  <rmsd>  (16) 
271.62

>  <cluster>  (16) 
2

$$$$

     RDKit          3D

 40 43  0  0  0  0  0  0  0  0999 V2000
  139.1980   67.7190  225.3370 O   0  0  0  0  0  0  0  0  0  0  0  0
  139.5040   68.9230  225.1200 C   0  0  0  0  0  0  0  0  0  0  0  0
  140.0870   69.6050  226.1530 C   0  0  0  0  0  0  0  0  0  0  0  0
  140.3290   69.0130  227.3710 C   0  0  0  0  0  0  0  0  0  0  0  0
  140.9270   69.7970  228.3580 C   0  0  0  0  0  0  0  0  0  0  0  0
  141.2560   71.1220  228.0980 C   0  0  0  0  0  0  0  0  0  0  0  0
  141.8300   71.8580  229.0590 F   0  0  0  0  0  0  0  0  0  0  0  0
  141.0100   71.7140  226.8710 C   0  0  0  0  0  0  0  0  0  0  0  0
  140.4200   70.9140  225.9200 C   0  0  0  0  0  0  0  0  0  0  0  0
  140.1630   71.4250  224.7320 N   0  0  0  0  0  0  0  0  0  0  0  0
  139.5810   70.7720  223.6750 C   0  0  0  0  0  0  0  0  0  0  0  0
  139.4370   71.5650  222.4960 C   0  0  0  0  0  0  0  0  0  0  0  0
  140.2990   72.0620  221.6690 C   0  0  0  0  0  0  0  0  0  0  0  0
  140.5700   73.5180  221.6070 C   0  0  0  0  0  0  0  0  0  0  0  0
  141.5540   74.1410  220.8320 C   0  0  0  0  0  0  0  0  0  0  0  0
  141.4730   75.5060  221.0630 C   0  0  0  0  0  0  0  0  0  0  0  0
  140.4330   75.6370  221.9750 C   0  0  0  0  0  0  0  0  0  0  0  0
  139.9480   74.4620  222.2550 O   0  0  0  0  0  0  0  0  0  0  0  0
  139.2540   69.5050  223.8900 N   0  0  0  0  0  0  0  0  0  0  0  0
  138.5990   68.6190  222.9600 C   0  0  0  0  0  0  0  0  0  0  0  0
  137.1370   68.5860  223.1430 C   0  0  0  0  0  0  0  0  0  0  0  0
  136.2000   68.0270  222.3510 C   0  0  0  0  0  0  0  0  0  0  0  0
  134.8220   68.0630  222.6230 C   0  0  0  0  0  0  0  0  0  0  0  0
  134.4050   68.7090  223.7660 C   0  0  0  0  0  0  0  0  0  0  0  0
  135.3940   69.2680  224.5500 C   0  0  0  0  0  0  0  0  0  0  0  0
  136.6840   69.2200  224.2750 N   0  0  0  0  0  0  0  0  0  0  0  0
  140.0615   67.9628  227.5593 H   0  0  0  0  0  0  0  0  0  0  0  0
  141.1391   69.3643  229.3468 H   0  0  0  0  0  0  0  0  0  0  0  0
  141.2711   72.7631  226.6683 H   0  0  0  0  0  0  0  0  0  0  0  0
  138.3924   71.7981  222.2422 H   0  0  0  0  0  0  0  0  0  0  0  0
  140.8451   71.3864  220.9942 H   0  0  0  0  0  0  0  0  0  0  0  0
  142.2648   73.6382  220.1597 H   0  0  0  0  0  0  0  0  0  0  0  0
  142.0911   76.3032  220.6243 H   0  0  0  0  0  0  0  0  0  0  0  0
  140.0745   76.5879  222.3959 H   0  0  0  0  0  0  0  0  0  0  0  0
  138.8185   68.9575  221.9367 H   0  0  0  0  0  0  0  0  0  0  0  0
  138.9807   67.6035  223.1419 H   0  0  0  0  0  0  0  0  0  0  0  0
  136.5340   67.5124  221.4380 H   0  0  0  0  0  0  0  0  0  0  0  0
  134.0979   67.5896  221.9436 H   0  0  0  0  0  0  0  0  0  0  0  0
  133.3415   68.7757  224.0391 H   0  0  0  0  0  0  0  0  0  0  0  0
  135.0856   69.7898  225.4679 H   0  0  0  0  0  0  0  0  0  0  0  0
  1  2  2  0
  2  3  1  0
  3  4  2  0
  4  5  1  0
  5  6  2  0
  6  7  1  0
  6  8  1  0
  8  9  2  0
  9 10  1  0
 10 11  2  0
 11 12  1  0
 12 13  2  0
 13 14  1  0
 14 15  2  0
 15 16  1  0
 16 17  2  0
 17 18  1  0
 11 19  1  0
 19 20  1  0
 20 21  1  0
 21 22  2  0
 22 23  1  0
 23 24  2  0
 24 25  1  0
 25 26  2  0
 19  2  1  0
 26 21  1  0
  9  3  1  0
 18 14  1  0
  4 27  1  0
  5 28  1  0
  8 29  1  0
 12 30  1  0
 13 31  1  0
 15 32  1  0
 16 33  1  0
 17 34  1  0
 20 35  1  0
 20 36  1  0
 22 37  1  0
 23 38  1  0
 24 39  1  0
 25 40  1  0
M  END
>  <smiles>  (17) 
O=c1c2ccc(F)cc2nc(/C=C/c2ccco2)n1Cc1ccccn1

>  <score_type>  (17) 
oracle

>  <origin>  (17) 
autodockgpu

>  <m_score__min__energy>  (17) 
-7.2599999999999998

>  <m_primary>  (17) 
energy

>  <meeko>  (17) 
{"free_energy": -7.26, "intermolecular_energy": -8.75, "internal_energy": -1.01, "cluster_size": 14, "cluster_id": 1, "rank_in_cluster": 1}

>  <energy>  (17) 
-6.47

>  <cluster_rmsd>  (17) 
0.0

>  <rmsd>  (17) 
271.63

>  <cluster>  (17) 
3

$$$$

     RDKit          3D

 40 43  0  0  0  0  0  0  0  0999 V2000
  139.1730   67.4040  225.4360 O   0  0  0  0  0  0  0  0  0  0  0  0
  139.3320   68.6290  225.1810 C   0  0  0  0  0  0  0  0  0  0  0  0
  139.9390   69.3840  226.1480 C   0  0  0  0  0  0  0  0  0  0  0  0
  140.3570   68.8400  227.3400 C   0  0  0  0  0  0  0  0  0  0  0  0
  140.9650   69.6970  228.2580 C   0  0  0  0  0  0  0  0  0  0  0  0
  141.1300   71.0450  227.9580 C   0  0  0  0  0  0  0  0  0  0  0  0
  141.7170   71.8510  228.8520 F   0  0  0  0  0  0  0  0  0  0  0  0
  140.7080   71.5870  226.7560 C   0  0  0  0  0  0  0  0  0  0  0  0
  140.1130   70.7160  225.8730 C   0  0  0  0  0  0  0  0  0  0  0  0
  139.6920   71.1780  224.7130 N   0  0  0  0  0  0  0  0  0  0  0  0
  139.0800   70.4510  223.7220 C   0  0  0  0  0  0  0  0  0  0  0  0
  138.7430   71.2050  222.5580 C   0  0  0  0  0  0  0  0  0  0  0  0
  138.6530   72.4770  222.3380 C   0  0  0  0  0  0  0  0  0  0  0  0
  139.8250   73.2790  221.9150 C   0  0  0  0  0  0  0  0  0  0  0  0
  140.9490   72.8000  221.2320 C   0  0  0  0  0  0  0  0  0  0  0  0
  141.8080   73.8690  221.0290 C   0  0  0  0  0  0  0  0  0  0  0  0
  141.1510   74.9500  221.6050 C   0  0  0  0  0  0  0  0  0  0  0  0
  140.0140   74.5550  222.1010 O   0  0  0  0  0  0  0  0  0  0  0  0
  138.9060   69.1620  223.9780 N   0  0  0  0  0  0  0  0  0  0  0  0
  138.2580   68.1980  223.1230 C   0  0  0  0  0  0  0  0  0  0  0  0
  136.7990   68.3950  223.0520 C   0  0  0  0  0  0  0  0  0  0  0  0
  135.9650   68.1600  222.0190 C   0  0  0  0  0  0  0  0  0  0  0  0
  134.5800   68.3940  222.0620 C   0  0  0  0  0  0  0  0  0  0  0  0
  134.0450   68.8920  223.2290 C   0  0  0  0  0  0  0  0  0  0  0  0
  134.9300   69.1180  224.2630 C   0  0  0  0  0  0  0  0  0  0  0  0
  136.2290   68.8900  224.2000 N   0  0  0  0  0  0  0  0  0  0  0  0
  140.2175   67.7715  227.5609 H   0  0  0  0  0  0  0  0  0  0  0  0
  141.3156   69.3045  229.2239 H   0  0  0  0  0  0  0  0  0  0  0  0
  140.8409   72.6532  226.5205 H   0  0  0  0  0  0  0  0  0  0  0  0
  138.5159   70.5852  221.6780 H   0  0  0  0  0  0  0  0  0  0  0  0
  137.6813   72.9758  222.4684 H   0  0  0  0  0  0  0  0  0  0  0  0
  141.1201   71.7612  220.9133 H   0  0  0  0  0  0  0  0  0  0  0  0
  142.7865   73.8631  220.5266 H   0  0  0  0  0  0  0  0  0  0  0  0
  141.5331   75.9810  221.6368 H   0  0  0  0  0  0  0  0  0  0  0  0
  138.6757   68.2888  222.1094 H   0  0  0  0  0  0  0  0  0  0  0  0
  138.4395   67.1998  223.5482 H   0  0  0  0  0  0  0  0  0  0  0  0
  136.3940   67.7617  221.0877 H   0  0  0  0  0  0  0  0  0  0  0  0
  133.9427   68.1857  221.1900 H   0  0  0  0  0  0  0  0  0  0  0  0
  132.9694   69.0986  223.3314 H   0  0  0  0  0  0  0  0  0  0  0  0
  134.5253   69.5158  225.2053 H   0  0  0  0  0  0  0  0  0  0  0  0
  1  2  2  0
  2  3  1  0
  3  4  2  0
  4  5  1  0
  5  6  2  0
  6  7  1  0
  6  8  1  0
  8  9  2  0
  9 10  1  0
 10 11  2  0
 11 12  1  0
 12 13  2  0
 13 14  1  0
 14 15  2  0
 15 16  1  0
 16 17  2  0
 17 18  1  0
 11 19  1  0
 19 20  1  0
 20 21  1  0
 21 22  2  0
 22 23  1  0
 23 24  2  0
 24 25  1  0
 25 26  2  0
 19  2  1  0
 26 21  1  0
  9  3  1  0
 18 14  1  0
  4 27  1  0
  5 28  1  0
  8 29  1  0
 12 30  1  0
 13 31  1  0
 15 32  1  0
 16 33  1  0
 17 34  1  0
 20 35  1  0
 20 36  1  0
 22 37  1  0
 23 38  1  0
 24 39  1  0
 25 40  1  0
M  END
>  <smiles>  (18) 
O=c1c2ccc(F)cc2nc(/C=C/c2ccco2)n1Cc1ccccn1

>  <score_type>  (18) 
oracle

>  <origin>  (18) 
autodockgpu

>  <m_score__min__energy>  (18) 
-7.2599999999999998

>  <m_primary>  (18) 
energy

>  <meeko>  (18) 
{"free_energy": -7.01, "intermolecular_energy": -8.5, "internal_energy": -1.15, "cluster_size": 14, "cluster_id": 1, "rank_in_cluster": 13}

>  <energy>  (18) 
-6.44

>  <cluster_rmsd>  (18) 
0.0

>  <rmsd>  (18) 
272.36

>  <cluster>  (18) 
4

$$$$

     RDKit          3D

 40 43  0  0  0  0  0  0  0  0999 V2000
  139.1890   67.7020  225.3440 O   0  0  0  0  0  0  0  0  0  0  0  0
  139.5240   68.8930  225.1010 C   0  0  0  0  0  0  0  0  0  0  0  0
  140.0970   69.5920  226.1290 C   0  0  0  0  0  0  0  0  0  0  0  0
  140.3000   69.0290  227.3680 C   0  0  0  0  0  0  0  0  0  0  0  0
  140.8920   69.8280  228.3460 C   0  0  0  0  0  0  0  0  0  0  0  0
  141.2540   71.1390  228.0580 C   0  0  0  0  0  0  0  0  0  0  0  0
  141.8210   71.8900  229.0120 F   0  0  0  0  0  0  0  0  0  0  0  0
  141.0470   71.7020  226.8100 C   0  0  0  0  0  0  0  0  0  0  0  0
  140.4630   70.8870  225.8680 C   0  0  0  0  0  0  0  0  0  0  0  0
  140.2430   71.3700  224.6610 N   0  0  0  0  0  0  0  0  0  0  0  0
  139.6710   70.6990  223.6090 C   0  0  0  0  0  0  0  0  0  0  0  0
  139.5710   71.4630  222.4060 C   0  0  0  0  0  0  0  0  0  0  0  0
  138.8220   72.4620  222.0680 C   0  0  0  0  0  0  0  0  0  0  0  0
  139.3500   73.8460  222.0110 C   0  0  0  0  0  0  0  0  0  0  0  0
  138.5870   75.0190  221.9680 C   0  0  0  0  0  0  0  0  0  0  0  0
  139.4630   76.0920  221.9220 C   0  0  0  0  0  0  0  0  0  0  0  0
  140.7230   75.5060  221.9420 C   0  0  0  0  0  0  0  0  0  0  0  0
  140.6010   74.2120  221.9930 O   0  0  0  0  0  0  0  0  0  0  0  0
  139.3140   69.4460  223.8510 N   0  0  0  0  0  0  0  0  0  0  0  0
  138.6620   68.5480  222.9300 C   0  0  0  0  0  0  0  0  0  0  0  0
  137.1970   68.5350  223.0930 C   0  0  0  0  0  0  0  0  0  0  0  0
  136.2690   67.9230  222.3310 C   0  0  0  0  0  0  0  0  0  0  0  0
  134.8870   67.9860  222.5780 C   0  0  0  0  0  0  0  0  0  0  0  0
  134.4570   68.7160  223.6630 C   0  0  0  0  0  0  0  0  0  0  0  0
  135.4370   69.3270  224.4190 C   0  0  0  0  0  0  0  0  0  0  0  0
  136.7310   69.2540  224.1680 N   0  0  0  0  0  0  0  0  0  0  0  0
  140.0070   67.9899  227.5788 H   0  0  0  0  0  0  0  0  0  0  0  0
  141.0735   69.4186  229.3507 H   0  0  0  0  0  0  0  0  0  0  0  0
  141.3328   72.7401  226.5849 H   0  0  0  0  0  0  0  0  0  0  0  0
  140.2640   71.1396  221.6153 H   0  0  0  0  0  0  0  0  0  0  0  0
  137.7667   72.2800  221.8165 H   0  0  0  0  0  0  0  0  0  0  0  0
  137.4886   75.0784  221.9703 H   0  0  0  0  0  0  0  0  0  0  0  0
  139.2170   77.1633  221.8794 H   0  0  0  0  0  0  0  0  0  0  0  0
  141.6772   76.0527  221.9183 H   0  0  0  0  0  0  0  0  0  0  0  0
  138.8995   68.8628  221.9031 H   0  0  0  0  0  0  0  0  0  0  0  0
  139.0296   67.5323  223.1380 H   0  0  0  0  0  0  0  0  0  0  0  0
  136.6137   67.3397  221.4645 H   0  0  0  0  0  0  0  0  0  0  0  0
  134.1704   67.4676  221.9240 H   0  0  0  0  0  0  0  0  0  0  0  0
  133.3899   68.8075  223.9140 H   0  0  0  0  0  0  0  0  0  0  0  0
  135.1175   69.9158  225.2915 H   0  0  0  0  0  0  0  0  0  0  0  0
  1  2  2  0
  2  3  1  0
  3  4  2  0
  4  5  1  0
  5  6  2  0
  6  7  1  0
  6  8  1  0
  8  9  2  0
  9 10  1  0
 10 11  2  0
 11 12  1  0
 12 13  2  0
 13 14  1  0
 14 15  2  0
 15 16  1  0
 16 17  2  0
 17 18  1  0
 11 19  1  0
 19 20  1  0
 20 21  1  0
 21 22  2  0
 22 23  1  0
 23 24  2  0
 24 25  1  0
 25 26  2  0
 19  2  1  0
 26 21  1  0
  9  3  1  0
 18 14  1  0
  4 27  1  0
  5 28  1  0
  8 29  1  0
 12 30  1  0
 13 31  1  0
 15 32  1  0
 16 33  1  0
 17 34  1  0
 20 35  1  0
 20 36  1  0
 22 37  1  0
 23 38  1  0
 24 39  1  0
 25 40  1  0
M  END
>  <smiles>  (19) 
O=c1c2ccc(F)cc2nc(/C=C/c2ccco2)n1Cc1ccccn1

>  <score_type>  (19) 
oracle

>  <origin>  (19) 
autodockgpu

>  <m_score__min__energy>  (19) 
-7.2599999999999998

>  <m_primary>  (19) 
energy

>  <meeko>  (19) 
{"free_energy": -7.11, "intermolecular_energy": -8.6, "internal_energy": -1.09, "cluster_size": 14, "cluster_id": 1, "rank_in_cluster": 5}

>  <energy>  (19) 
-6.41

>  <cluster_rmsd>  (19) 
0.07

>  <rmsd>  (19) 
272.37

>  <cluster>  (19) 
4

$$$$

     RDKit          3D

 40 43  0  0  0  0  0  0  0  0999 V2000
  138.9380   67.5410  225.4260 O   0  0  0  0  0  0  0  0  0  0  0  0
  139.1520   68.7680  225.2310 C   0  0  0  0  0  0  0  0  0  0  0  0
  139.8420   69.4350  226.2070 C   0  0  0  0  0  0  0  0  0  0  0  0
  140.2830   68.8030  227.3480 C   0  0  0  0  0  0  0  0  0  0  0  0
  140.9770   69.5730  228.2810 C   0  0  0  0  0  0  0  0  0  0  0  0
  141.2020   70.9250  228.0470 C   0  0  0  0  0  0  0  0  0  0  0  0
  141.8710   71.6480  228.9550 F   0  0  0  0  0  0  0  0  0  0  0  0
  140.7570   71.5570  226.8980 C   0  0  0  0  0  0  0  0  0  0  0  0
  140.0770   70.7690  225.9980 C   0  0  0  0  0  0  0  0  0  0  0  0
  139.6300   71.3180  224.8860 N   0  0  0  0  0  0  0  0  0  0  0  0
  138.9360   70.6810  223.8870 C   0  0  0  0  0  0  0  0  0  0  0  0
  138.5890   71.5170  222.7830 C   0  0  0  0  0  0  0  0  0  0  0  0
  139.1690   71.7510  221.6500 C   0  0  0  0  0  0  0  0  0  0  0  0
  140.1220   72.8740  221.4800 C   0  0  0  0  0  0  0  0  0  0  0  0
  141.3280   72.8310  220.7720 C   0  0  0  0  0  0  0  0  0  0  0  0
  141.9140   74.0850  220.8580 C   0  0  0  0  0  0  0  0  0  0  0  0
  141.0210   74.8280  221.6210 C   0  0  0  0  0  0  0  0  0  0  0  0
  140.0070   74.0820  221.9540 O   0  0  0  0  0  0  0  0  0  0  0  0
  138.7030   69.3910  224.0800 N   0  0  0  0  0  0  0  0  0  0  0  0
  137.9660   68.5120  223.2050 C   0  0  0  0  0  0  0  0  0  0  0  0
  138.8380   67.7980  222.2540 C   0  0  0  0  0  0  0  0  0  0  0  0
  139.0790   66.4760  222.1620 C   0  0  0  0  0  0  0  0  0  0  0  0
  139.9420   65.9020  221.2120 C   0  0  0  0  0  0  0  0  0  0  0  0
  140.5770   66.7420  220.3250 C   0  0  0  0  0  0  0  0  0  0  0  0
  140.3040   68.0890  220.4530 C   0  0  0  0  0  0  0  0  0  0  0  0
  139.4880   68.6060  221.3530 N   0  0  0  0  0  0  0  0  0  0  0  0
  140.0953   67.7324  227.5171 H   0  0  0  0  0  0  0  0  0  0  0  0
  141.3482   69.1085  229.2065 H   0  0  0  0  0  0  0  0  0  0  0  0
  140.9367   72.6268  226.7154 H   0  0  0  0  0  0  0  0  0  0  0  0
  137.6474   72.0684  222.9222 H   0  0  0  0  0  0  0  0  0  0  0  0
  138.9493   71.1000  220.7910 H   0  0  0  0  0  0  0  0  0  0  0  0
  141.7380   71.9587  220.2420 H   0  0  0  0  0  0  0  0  0  0  0  0
  142.8680   74.4161  220.4218 H   0  0  0  0  0  0  0  0  0  0  0  0
  141.1508   75.8839  221.9006 H   0  0  0  0  0  0  0  0  0  0  0  0
  137.4319   67.7711  223.8180 H   0  0  0  0  0  0  0  0  0  0  0  0
  137.2702   69.1309  222.6195 H   0  0  0  0  0  0  0  0  0  0  0  0
  138.5710   65.8063  222.8716 H   0  0  0  0  0  0  0  0  0  0  0  0
  140.1049   64.8147  221.1784 H   0  0  0  0  0  0  0  0  0  0  0  0
  141.2647   66.3603  219.5559 H   0  0  0  0  0  0  0  0  0  0  0  0
  140.8011   68.7801  219.7564 H   0  0  0  0  0  0  0  0  0  0  0  0
  1  2  2  0
  2  3  1  0
  3  4  2  0
  4  5  1  0
  5  6  2  0
  6  7  1  0
  6  8  1  0
  8  9  2  0
  9 10  1  0
 10 11  2  0
 11 12  1  0
 12 13  2  0
 13 14  1  0
 14 15  2  0
 15 16  1  0
 16 17  2  0
 17 18  1  0
 11 19  1  0
 19 20  1  0
 20 21  1  0
 21 22  2  0
 22 23  1  0
 23 24  2  0
 24 25  1  0
 25 26  2  0
 19  2  1  0
 26 21  1  0
  9  3  1  0
 18 14  1  0
  4 27  1  0
  5 28  1  0
  8 29  1  0
 12 30  1  0
 13 31  1  0
 15 32  1  0
 16 33  1  0
 17 34  1  0
 20 35  1  0
 20 36  1  0
 22 37  1  0
 23 38  1  0
 24 39  1  0
 25 40  1  0
M  END
>  <smiles>  (20) 
O=c1c2ccc(F)cc2nc(/C=C/c2ccco2)n1Cc1ccccn1

>  <score_type>  (20) 
oracle

>  <origin>  (20) 
autodockgpu

>  <m_score__min__energy>  (20) 
-7.2599999999999998

>  <m_primary>  (20) 
energy

>  <meeko>  (20) 
{"free_energy": -7.02, "intermolecular_energy": -8.51, "internal_energy": -1.19, "cluster_size": 14, "cluster_id": 1, "rank_in_cluster": 12}

>  <energy>  (20) 
-6.29

>  <cluster_rmsd>  (20) 
0.13

>  <rmsd>  (20) 
272.34

>  <cluster>  (20) 
4

$$$$
