
     RDKit          3D

 52 55  0  0  1  0  0  0  0  0999 V2000
  140.5660   73.9640  222.1830 O   0  0  0  0  0  0  0  0  0  0  0  0
  139.8570   72.9150  222.1370 C   0  0  0  0  0  0  0  0  0  0  0  0
  138.9940   72.7350  221.0380 N   0  0  0  0  0  0  0  0  0  0  0  0
  138.9590   73.7610  220.0130 C   0  0  0  0  0  0  0  0  0  0  0  0
  140.0800   73.5610  219.0310 C   0  0  0  0  0  0  0  0  0  0  0  0
  140.2160   72.4880  218.3860 O   0  0  0  0  0  0  0  0  0  0  0  0
  141.0080   74.6250  218.8370 N   0  0  0  0  0  0  0  0  0  0  0  0
  140.9170   75.3410  217.5750 C   0  0  0  0  0  0  0  0  0  0  0  0
  141.2970   76.7830  217.6770 C   0  0  0  0  0  0  0  0  0  0  0  0
  142.6130   76.9190  218.3700 C   0  0  0  0  0  0  0  0  0  0  0  0
  142.4320   76.3970  219.7710 C   0  0  0  0  0  0  0  0  0  0  0  0
  141.9700   74.9670  219.8300 C   0  0  2  0  0  0  0  0  0  0  0  0
  143.1730   74.1220  219.8630 C   0  0  0  0  0  0  0  0  0  0  0  0
  144.3330   74.5170  220.4830 C   0  0  0  0  0  0  0  0  0  0  0  0
  145.4770   73.7280  220.5210 C   0  0  0  0  0  0  0  0  0  0  0  0
  145.4730   72.4910  219.9180 C   0  0  0  0  0  0  0  0  0  0  0  0
  146.5880   71.6480  219.9200 O   0  0  0  0  0  0  0  0  0  0  0  0
  144.3240   72.0640  219.2870 C   0  0  0  0  0  0  0  0  0  0  0  0
  143.1980   72.8620  219.2600 C   0  0  0  0  0  0  0  0  0  0  0  0
  139.9410   71.9170  223.2050 C   0  0  0  0  0  0  0  0  0  0  0  0
  139.5150   70.6240  222.9500 C   0  0  0  0  0  0  0  0  0  0  0  0
  139.5900   69.6790  223.9520 C   0  0  0  0  0  0  0  0  0  0  0  0
  140.0830   69.9910  225.2030 C   0  0  0  0  0  0  0  0  0  0  0  0
  140.1470   69.0260  226.1870 C   0  0  0  0  0  0  0  0  0  0  0  0
  140.6500   69.3990  227.4200 C   0  0  0  0  0  0  0  0  0  0  0  0
  140.7320   68.1750  228.6700 Cl  0  0  0  0  0  0  0  0  0  0  0  0
  141.0690   70.7020  227.6450 C   0  0  0  0  0  0  0  0  0  0  0  0
  141.0070   71.6730  226.6660 C   0  0  0  0  0  0  0  0  0  0  0  0
  140.5060   71.3050  225.4320 C   0  0  0  0  0  0  0  0  0  0  0  0
  140.4190   72.2110  224.4300 N   0  0  0  0  0  0  0  0  0  0  0  0
  138.4050   71.8760  220.9880 H   0  0  0  0  0  0  0  0  0  0  0  0
  137.9977   73.7088  219.4809 H   0  0  0  0  0  0  0  0  0  0  0  0
  139.0746   74.7454  220.4901 H   0  0  0  0  0  0  0  0  0  0  0  0
  141.5869   74.8552  216.8503 H   0  0  0  0  0  0  0  0  0  0  0  0
  139.8638   75.3062  217.2593 H   0  0  0  0  0  0  0  0  0  0  0  0
  141.3717   77.2119  216.6668 H   0  0  0  0  0  0  0  0  0  0  0  0
  140.5288   77.3178  218.2548 H   0  0  0  0  0  0  0  0  0  0  0  0
  143.3790   76.3302  217.8440 H   0  0  0  0  0  0  0  0  0  0  0  0
  142.9420   77.9686  218.3828 H   0  0  0  0  0  0  0  0  0  0  0  0
  143.3954   76.4724  220.2965 H   0  0  0  0  0  0  0  0  0  0  0  0
  141.6473   77.0073  220.2418 H   0  0  0  0  0  0  0  0  0  0  0  0
  141.3911   74.7919  220.7488 H   0  0  0  0  0  0  0  0  0  0  0  0
  144.3581   75.5022  220.9716 H   0  0  0  0  0  0  0  0  0  0  0  0
  146.3816   74.0910  221.0309 H   0  0  0  0  0  0  0  0  0  0  0  0
  146.9130   71.2500  220.7980 H   0  0  0  0  0  0  0  0  0  0  0  0
  144.3043   71.0777  218.8003 H   0  0  0  0  0  0  0  0  0  0  0  0
  142.2952   72.4956  218.7494 H   0  0  0  0  0  0  0  0  0  0  0  0
  139.1211   70.3536  221.9592 H   0  0  0  0  0  0  0  0  0  0  0  0
  139.2490   68.6530  223.7494 H   0  0  0  0  0  0  0  0  0  0  0  0
  139.8098   67.9963  225.9974 H   0  0  0  0  0  0  0  0  0  0  0  0
  141.4636   70.9703  228.6361 H   0  0  0  0  0  0  0  0  0  0  0  0
  141.3440   72.7018  226.8610 H   0  0  0  0  0  0  0  0  0  0  0  0
  1  2  2  0
  2  3  1  0
  3  4  1  0
  4  5  1  0
  5  6  2  0
  5  7  1  0
  7  8  1  0
  8  9  1  0
  9 10  1  0
 10 11  1  0
 11 12  1  0
 12 13  1  0
 13 14  2  0
 14 15  1  0
 15 16  2  0
 16 17  1  0
 16 18  1  0
 18 19  2  0
  2 20  1  0
 20 21  2  0
 21 22  1  0
 22 23  2  0
 23 24  1  0
 24 25  2  0
 25 26  1  0
 25 27  1  0
 27 28  2  0
 28 29  1  0
 29 30  2  0
 12  7  1  0
 19 13  1  0
 30 20  1  0
 29 23  1  0
  3 31  1  0
  4 32  1  0
  4 33  1  0
  8 34  1  0
  8 35  1  0
  9 36  1  0
  9 37  1  0
 10 38  1  0
 10 39  1  0
 11 40  1  0
 11 41  1  0
 12 42  1  1
 14 43  1  0
 15 44  1  0
 17 45  1  0
 18 46  1  0
 19 47  1  0
 21 48  1  0
 22 49  1  0
 24 50  1  0
 27 51  1  0
 28 52  1  0
M  END
>  <smiles>  (1) 
O=C(NCC(=O)N1CCCCC1c1ccc(O)cc1)c1ccc2cc(Cl)ccc2n1

>  <score_type>  (1) 
oracle

>  <origin>  (1) 
autodockgpu

>  <m_score__min__energy>  (1) 
-9.0500000000000007

>  <m_primary>  (1) 
energy

>  <meeko>  (1) 
{"free_energy": -8.11, "intermolecular_energy": -9.9, "internal_energy": -1.62, "cluster_size": 7, "cluster_id": 3, "rank_in_cluster": 5}

>  <energy>  (1) 
-9.05

>  <cluster_rmsd>  (1) 
0.0

>  <rmsd>  (1) 
271.77

>  <cluster>  (1) 
1

$$$$

     RDKit          3D

 52 55  0  0  1  0  0  0  0  0999 V2000
  140.0550   72.1400  220.7920 O   0  0  0  0  0  0  0  0  0  0  0  0
  139.6250   72.4490  221.9430 C   0  0  0  0  0  0  0  0  0  0  0  0
  138.9980   73.7010  222.1120 N   0  0  0  0  0  0  0  0  0  0  0  0
  138.8790   74.5730  220.9590 C   0  0  0  0  0  0  0  0  0  0  0  0
  139.4880   75.9170  221.2530 C   0  0  0  0  0  0  0  0  0  0  0  0
  138.8650   76.8040  221.8930 O   0  0  0  0  0  0  0  0  0  0  0  0
  140.8090   76.1780  220.7860 N   0  0  0  0  0  0  0  0  0  0  0  0
  141.7500   75.0730  220.8570 C   0  0  0  0  0  0  0  0  0  0  0  0
  142.7770   75.0910  219.7710 C   0  0  0  0  0  0  0  0  0  0  0  0
  143.4130   76.4410  219.6880 C   0  0  0  0  0  0  0  0  0  0  0  0
  142.3320   77.4180  219.3080 C   0  0  0  0  0  0  0  0  0  0  0  0
  141.1810   77.4550  220.2760 C   0  0  2  0  0  0  0  0  0  0  0  0
  141.4970   78.4730  221.2890 C   0  0  0  0  0  0  0  0  0  0  0  0
  141.8620   79.7540  220.9560 C   0  0  0  0  0  0  0  0  0  0  0  0
  142.1630   80.7260  221.9030 C   0  0  0  0  0  0  0  0  0  0  0  0
  142.1000   80.4160  223.2430 C   0  0  0  0  0  0  0  0  0  0  0  0
  142.3880   81.3450  224.2450 O   0  0  0  0  0  0  0  0  0  0  0  0
  141.7360   79.1380  223.6110 C   0  0  0  0  0  0  0  0  0  0  0  0
  141.4410   78.1870  222.6550 C   0  0  0  0  0  0  0  0  0  0  0  0
  139.7780   71.5220  223.0650 C   0  0  0  0  0  0  0  0  0  0  0  0
  139.3980   70.2000  222.8990 C   0  0  0  0  0  0  0  0  0  0  0  0
  139.5390   69.3200  223.9520 C   0  0  0  0  0  0  0  0  0  0  0  0
  140.0520   69.7260  225.1680 C   0  0  0  0  0  0  0  0  0  0  0  0
  140.1830   68.8240  226.2040 C   0  0  0  0  0  0  0  0  0  0  0  0
  140.7040   69.2900  227.3970 C   0  0  0  0  0  0  0  0  0  0  0  0
  140.8700   68.1470  228.7140 Cl  0  0  0  0  0  0  0  0  0  0  0  0
  141.0760   70.6190  227.5320 C   0  0  0  0  0  0  0  0  0  0  0  0
  140.9480   71.5270  226.5000 C   0  0  0  0  0  0  0  0  0  0  0  0
  140.4290   71.0670  225.3060 C   0  0  0  0  0  0  0  0  0  0  0  0
  140.2780   71.9060  224.2560 N   0  0  0  0  0  0  0  0  0  0  0  0
  138.6410   73.9670  223.0540 H   0  0  0  0  0  0  0  0  0  0  0  0
  139.4011   74.1175  220.1046 H   0  0  0  0  0  0  0  0  0  0  0  0
  137.8133   74.7082  220.7222 H   0  0  0  0  0  0  0  0  0  0  0  0
  142.2680   75.1191  221.8263 H   0  0  0  0  0  0  0  0  0  0  0  0
  141.1693   74.1465  220.7366 H   0  0  0  0  0  0  0  0  0  0  0  0
  143.5489   74.3379  219.9877 H   0  0  0  0  0  0  0  0  0  0  0  0
  142.2903   74.8627  218.8113 H   0  0  0  0  0  0  0  0  0  0  0  0
  143.8440   76.7154  220.6621 H   0  0  0  0  0  0  0  0  0  0  0  0
  144.2240   76.4463  218.9448 H   0  0  0  0  0  0  0  0  0  0  0  0
  142.7752   78.4235  219.2572 H   0  0  0  0  0  0  0  0  0  0  0  0
  141.9268   77.0878  218.3401 H   0  0  0  0  0  0  0  0  0  0  0  0
  140.2567   77.7492  219.7572 H   0  0  0  0  0  0  0  0  0  0  0  0
  141.9188   80.0235  219.8910 H   0  0  0  0  0  0  0  0  0  0  0  0
  142.4503   81.7385  221.5832 H   0  0  0  0  0  0  0  0  0  0  0  0
  141.6510   81.6420  224.8810 H   0  0  0  0  0  0  0  0  0  0  0  0
  141.6801   78.8736  224.6773 H   0  0  0  0  0  0  0  0  0  0  0  0
  141.1537   77.1755  222.9780 H   0  0  0  0  0  0  0  0  0  0  0  0
  138.9883   69.8558  221.9379 H   0  0  0  0  0  0  0  0  0  0  0  0
  139.2358   68.2709  223.8199 H   0  0  0  0  0  0  0  0  0  0  0  0
  139.8838   67.7722  226.0851 H   0  0  0  0  0  0  0  0  0  0  0  0
  141.4868   70.9611  228.4934 H   0  0  0  0  0  0  0  0  0  0  0  0
  141.2483   72.5779  226.6243 H   0  0  0  0  0  0  0  0  0  0  0  0
  1  2  2  0
  2  3  1  0
  3  4  1  0
  4  5  1  0
  5  6  2  0
  5  7  1  0
  7  8  1  0
  8  9  1  0
  9 10  1  0
 10 11  1  0
 11 12  1  0
 12 13  1  0
 13 14  2  0
 14 15  1  0
 15 16  2  0
 16 17  1  0
 16 18  1  0
 18 19  2  0
  2 20  1  0
 20 21  2  0
 21 22  1  0
 22 23  2  0
 23 24  1  0
 24 25  2  0
 25 26  1  0
 25 27  1  0
 27 28  2  0
 28 29  1  0
 29 30  2  0
 12  7  1  0
 19 13  1  0
 30 20  1  0
 29 23  1  0
  3 31  1  0
  4 32  1  0
  4 33  1  0
  8 34  1  0
  8 35  1  0
  9 36  1  0
  9 37  1  0
 10 38  1  0
 10 39  1  0
 11 40  1  0
 11 41  1  0
 12 42  1  6
 14 43  1  0
 15 44  1  0
 17 45  1  0
 18 46  1  0
 19 47  1  0
 21 48  1  0
 22 49  1  0
 24 50  1  0
 27 51  1  0
 28 52  1  0
M  END
>  <smiles>  (2) 
O=C(NCC(=O)N1CCCCC1c1ccc(O)cc1)c1ccc2cc(Cl)ccc2n1

>  <score_type>  (2) 
oracle

>  <origin>  (2) 
autodockgpu

>  <m_score__min__energy>  (2) 
-9.0500000000000007

>  <m_primary>  (2) 
energy

>  <meeko>  (2) 
{"free_energy": -8.91, "intermolecular_energy": -10.7, "internal_energy": -1.49, "cluster_size": 4, "cluster_id": 1, "rank_in_cluster": 2}

>  <energy>  (2) 
-8.91

>  <cluster_rmsd>  (2) 
0.42

>  <rmsd>  (2) 
271.6

>  <cluster>  (2) 
1

$$$$

     RDKit          3D

 52 55  0  0  1  0  0  0  0  0999 V2000
  139.3060   70.9750  221.0470 O   0  0  0  0  0  0  0  0  0  0  0  0
  139.0850   71.6370  222.1040 C   0  0  0  0  0  0  0  0  0  0  0  0
  138.3410   72.8310  222.0060 N   0  0  0  0  0  0  0  0  0  0  0  0
  137.8670   73.2420  220.6980 C   0  0  0  0  0  0  0  0  0  0  0  0
  139.0060   73.7640  219.8670 C   0  0  0  0  0  0  0  0  0  0  0  0
  139.3360   73.2280  218.7770 O   0  0  0  0  0  0  0  0  0  0  0  0
  139.7250   74.9000  220.3420 N   0  0  0  0  0  0  0  0  0  0  0  0
  139.3040   76.1930  219.8290 C   0  0  0  0  0  0  0  0  0  0  0  0
  139.4920   77.3120  220.8030 C   0  0  0  0  0  0  0  0  0  0  0  0
  140.8820   77.2880  221.3510 C   0  0  0  0  0  0  0  0  0  0  0  0
  141.0370   75.9950  222.1090 C   0  0  0  0  0  0  0  0  0  0  0  0
  140.7960   74.7690  221.2710 C   0  0  2  0  0  0  0  0  0  0  0  0
  142.0910   74.3770  220.6930 C   0  0  0  0  0  0  0  0  0  0  0  0
  142.6270   73.1260  220.8700 C   0  0  0  0  0  0  0  0  0  0  0  0
  143.8500   72.7430  220.3290 C   0  0  0  0  0  0  0  0  0  0  0  0
  144.5740   73.6400  219.5770 C   0  0  0  0  0  0  0  0  0  0  0  0
  145.8070   73.3200  219.0040 O   0  0  0  0  0  0  0  0  0  0  0  0
  144.0620   74.9050  219.3790 C   0  0  0  0  0  0  0  0  0  0  0  0
  142.8470   75.2660  219.9260 C   0  0  0  0  0  0  0  0  0  0  0  0
  139.5930   71.1660  223.3930 C   0  0  0  0  0  0  0  0  0  0  0  0
  140.4760   71.9660  224.1000 C   0  0  0  0  0  0  0  0  0  0  0  0
  140.9590   71.5280  225.3150 C   0  0  0  0  0  0  0  0  0  0  0  0
  140.5810   70.3110  225.8450 C   0  0  0  0  0  0  0  0  0  0  0  0
  141.0800   69.8980  227.0640 C   0  0  0  0  0  0  0  0  0  0  0  0
  140.6650   68.6690  227.5430 C   0  0  0  0  0  0  0  0  0  0  0  0
  141.2970   68.1420  229.0900 Cl  0  0  0  0  0  0  0  0  0  0  0  0
  139.7790   67.8900  226.8130 C   0  0  0  0  0  0  0  0  0  0  0  0
  139.2770   68.2970  225.5940 C   0  0  0  0  0  0  0  0  0  0  0  0
  139.6880   69.5240  225.1100 C   0  0  0  0  0  0  0  0  0  0  0  0
  139.2320   69.9800  223.9210 N   0  0  0  0  0  0  0  0  0  0  0  0
  138.1530   73.3850  222.8680 H   0  0  0  0  0  0  0  0  0  0  0  0
  137.4134   72.3786  220.1893 H   0  0  0  0  0  0  0  0  0  0  0  0
  137.1220   74.0414  220.8239 H   0  0  0  0  0  0  0  0  0  0  0  0
  139.8897   76.4163  218.9251 H   0  0  0  0  0  0  0  0  0  0  0  0
  138.2260   76.1229  219.6214 H   0  0  0  0  0  0  0  0  0  0  0  0
  139.3185   78.2711  220.2931 H   0  0  0  0  0  0  0  0  0  0  0  0
  138.7769   77.1931  221.6303 H   0  0  0  0  0  0  0  0  0  0  0  0
  141.6123   77.3338  220.5296 H   0  0  0  0  0  0  0  0  0  0  0  0
  141.0583   78.1514  222.0094 H   0  0  0  0  0  0  0  0  0  0  0  0
  142.0610   75.9471  222.5078 H   0  0  0  0  0  0  0  0  0  0  0  0
  140.2762   75.9954  222.9035 H   0  0  0  0  0  0  0  0  0  0  0  0
  140.4255   73.9454  221.8989 H   0  0  0  0  0  0  0  0  0  0  0  0
  142.0641   72.3931  221.4666 H   0  0  0  0  0  0  0  0  0  0  0  0
  144.2367   71.7278  220.5014 H   0  0  0  0  0  0  0  0  0  0  0  0
  146.4060   74.0640  218.6550 H   0  0  0  0  0  0  0  0  0  0  0  0
  144.6273   75.6336  218.7793 H   0  0  0  0  0  0  0  0  0  0  0  0
  142.4636   76.2824  219.7528 H   0  0  0  0  0  0  0  0  0  0  0  0
  140.7885   72.9404  223.6963 H   0  0  0  0  0  0  0  0  0  0  0  0
  141.6616   72.1630  225.8746 H   0  0  0  0  0  0  0  0  0  0  0  0
  141.7825   70.5240  227.6338 H   0  0  0  0  0  0  0  0  0  0  0  0
  139.4667   66.9166  227.2191 H   0  0  0  0  0  0  0  0  0  0  0  0
  138.5749   67.6673  225.0279 H   0  0  0  0  0  0  0  0  0  0  0  0
  1  2  2  0
  2  3  1  0
  3  4  1  0
  4  5  1  0
  5  6  2  0
  5  7  1  0
  7  8  1  0
  8  9  1  0
  9 10  1  0
 10 11  1  0
 11 12  1  0
 12 13  1  0
 13 14  2  0
 14 15  1  0
 15 16  2  0
 16 17  1  0
 16 18  1  0
 18 19  2  0
  2 20  1  0
 20 21  2  0
 21 22  1  0
 22 23  2  0
 23 24  1  0
 24 25  2  0
 25 26  1  0
 25 27  1  0
 27 28  2  0
 28 29  1  0
 29 30  2  0
 12  7  1  0
 19 13  1  0
 30 20  1  0
 29 23  1  0
  3 31  1  0
  4 32  1  0
  4 33  1  0
  8 34  1  0
  8 35  1  0
  9 36  1  0
  9 37  1  0
 10 38  1  0
 10 39  1  0
 11 40  1  0
 11 41  1  0
 12 42  1  1
 14 43  1  0
 15 44  1  0
 17 45  1  0
 18 46  1  0
 19 47  1  0
 21 48  1  0
 22 49  1  0
 24 50  1  0
 27 51  1  0
 28 52  1  0
M  END
>  <smiles>  (3) 
O=C(NCC(=O)N1CCCCC1c1ccc(O)cc1)c1ccc2cc(Cl)ccc2n1

>  <score_type>  (3) 
oracle

>  <origin>  (3) 
autodockgpu

>  <m_score__min__energy>  (3) 
-9.0500000000000007

>  <m_primary>  (3) 
energy

>  <meeko>  (3) 
{"free_energy": -8.1, "intermolecular_energy": -9.89, "internal_energy": -1.8, "cluster_size": 7, "cluster_id": 3, "rank_in_cluster": 6}

>  <energy>  (3) 
-8.82

>  <cluster_rmsd>  (3) 
0.5

>  <rmsd>  (3) 
271.69

>  <cluster>  (3) 
1

$$$$

     RDKit          3D

 52 55  0  0  1  0  0  0  0  0999 V2000
  140.9510   72.2790  221.0220 O   0  0  0  0  0  0  0  0  0  0  0  0
  140.1900   72.5010  222.0100 C   0  0  0  0  0  0  0  0  0  0  0  0
  139.3820   73.6550  221.9890 N   0  0  0  0  0  0  0  0  0  0  0  0
  139.4630   74.5330  220.8380 C   0  0  0  0  0  0  0  0  0  0  0  0
  140.6800   75.4130  220.9350 C   0  0  0  0  0  0  0  0  0  0  0  0
  141.1100   75.8350  222.0400 O   0  0  0  0  0  0  0  0  0  0  0  0
  141.3530   75.7710  219.7310 N   0  0  0  0  0  0  0  0  0  0  0  0
  140.5450   75.8110  218.5240 C   0  0  0  0  0  0  0  0  0  0  0  0
  141.0020   76.8310  217.5310 C   0  0  0  0  0  0  0  0  0  0  0  0
  142.4690   76.6880  217.2870 C   0  0  0  0  0  0  0  0  0  0  0  0
  143.1660   76.9780  218.5900 C   0  0  0  0  0  0  0  0  0  0  0  0
  142.7450   76.0740  219.7170 C   0  0  2  0  0  0  0  0  0  0  0  0
  143.6460   74.9110  219.7000 C   0  0  0  0  0  0  0  0  0  0  0  0
  143.4070   73.8070  218.9200 C   0  0  0  0  0  0  0  0  0  0  0  0
  144.2510   72.7020  218.8940 C   0  0  0  0  0  0  0  0  0  0  0  0
  145.3830   72.6890  219.6770 C   0  0  0  0  0  0  0  0  0  0  0  0
  146.2720   71.6120  219.6980 O   0  0  0  0  0  0  0  0  0  0  0  0
  145.6520   73.7830  220.4720 C   0  0  0  0  0  0  0  0  0  0  0  0
  144.8010   74.8710  220.4840 C   0  0  0  0  0  0  0  0  0  0  0  0
  140.1550   71.5730  223.1420 C   0  0  0  0  0  0  0  0  0  0  0  0
  139.6170   70.3100  222.9580 C   0  0  0  0  0  0  0  0  0  0  0  0
  139.5810   69.4300  224.0200 C   0  0  0  0  0  0  0  0  0  0  0  0
  140.0710   69.7790  225.2620 C   0  0  0  0  0  0  0  0  0  0  0  0
  140.0230   68.8780  226.3070 C   0  0  0  0  0  0  0  0  0  0  0  0
  140.5290   69.2860  227.5270 C   0  0  0  0  0  0  0  0  0  0  0  0
  140.4690   68.1440  228.8550 Cl  0  0  0  0  0  0  0  0  0  0  0  0
  141.0630   70.5560  227.6810 C   0  0  0  0  0  0  0  0  0  0  0  0
  141.1140   71.4620  226.6400 C   0  0  0  0  0  0  0  0  0  0  0  0
  140.6100   71.0600  225.4190 C   0  0  0  0  0  0  0  0  0  0  0  0
  140.6310   71.9020  224.3590 N   0  0  0  0  0  0  0  0  0  0  0  0
  138.7510   73.8490  222.7960 H   0  0  0  0  0  0  0  0  0  0  0  0
  139.5264   73.9261  219.9228 H   0  0  0  0  0  0  0  0  0  0  0  0
  138.5649   75.1675  220.8089 H   0  0  0  0  0  0  0  0  0  0  0  0
  140.5828   74.8204  218.0473 H   0  0  0  0  0  0  0  0  0  0  0  0
  139.5254   76.0907  218.8276 H   0  0  0  0  0  0  0  0  0  0  0  0
  140.4599   76.6862  216.5849 H   0  0  0  0  0  0  0  0  0  0  0  0
  140.7992   77.8365  217.9282 H   0  0  0  0  0  0  0  0  0  0  0  0
  142.6983   75.6642  216.9563 H   0  0  0  0  0  0  0  0  0  0  0  0
  142.8042   77.3812  216.5014 H   0  0  0  0  0  0  0  0  0  0  0  0
  144.2491   76.8613  218.4376 H   0  0  0  0  0  0  0  0  0  0  0  0
  142.8903   78.0025  218.8803 H   0  0  0  0  0  0  0  0  0  0  0  0
  142.8541   76.5912  220.6817 H   0  0  0  0  0  0  0  0  0  0  0  0
  142.5074   73.7958  218.2870 H   0  0  0  0  0  0  0  0  0  0  0  0
  144.0149   71.8418  218.2503 H   0  0  0  0  0  0  0  0  0  0  0  0
  146.5910   71.2430  220.5910 H   0  0  0  0  0  0  0  0  0  0  0  0
  146.5531   73.7894  221.1029 H   0  0  0  0  0  0  0  0  0  0  0  0
  145.0397   75.7296  221.1289 H   0  0  0  0  0  0  0  0  0  0  0  0
  139.2226   70.0117  221.9754 H   0  0  0  0  0  0  0  0  0  0  0  0
  139.1521   68.4277  223.8735 H   0  0  0  0  0  0  0  0  0  0  0  0
  139.5977   67.8723  226.1737 H   0  0  0  0  0  0  0  0  0  0  0  0
  141.4588   70.8515  228.6639 H   0  0  0  0  0  0  0  0  0  0  0  0
  141.5403   72.4666  226.7784 H   0  0  0  0  0  0  0  0  0  0  0  0
  1  2  2  0
  2  3  1  0
  3  4  1  0
  4  5  1  0
  5  6  2  0
  5  7  1  0
  7  8  1  0
  8  9  1  0
  9 10  1  0
 10 11  1  0
 11 12  1  0
 12 13  1  0
 13 14  2  0
 14 15  1  0
 15 16  2  0
 16 17  1  0
 16 18  1  0
 18 19  2  0
  2 20  1  0
 20 21  2  0
 21 22  1  0
 22 23  2  0
 23 24  1  0
 24 25  2  0
 25 26  1  0
 25 27  1  0
 27 28  2  0
 28 29  1  0
 29 30  2  0
 12  7  1  0
 19 13  1  0
 30 20  1  0
 29 23  1  0
  3 31  1  0
  4 32  1  0
  4 33  1  0
  8 34  1  0
  8 35  1  0
  9 36  1  0
  9 37  1  0
 10 38  1  0
 10 39  1  0
 11 40  1  0
 11 41  1  0
 12 42  1  1
 14 43  1  0
 15 44  1  0
 17 45  1  0
 18 46  1  0
 19 47  1  0
 21 48  1  0
 22 49  1  0
 24 50  1  0
 27 51  1  0
 28 52  1  0
M  END
>  <smiles>  (4) 
O=C(NCC(=O)N1CCCCC1c1ccc(O)cc1)c1ccc2cc(Cl)ccc2n1

>  <score_type>  (4) 
oracle

>  <origin>  (4) 
autodockgpu

>  <m_score__min__energy>  (4) 
-9.0500000000000007

>  <m_primary>  (4) 
energy

>  <meeko>  (4) 
{"free_energy": -8.86, "intermolecular_energy": -10.65, "internal_energy": -1.6, "cluster_size": 7, "cluster_id": 3, "rank_in_cluster": 1}

>  <energy>  (4) 
-8.53

>  <cluster_rmsd>  (4) 
0.96

>  <rmsd>  (4) 
271.71

>  <cluster>  (4) 
1

$$$$

     RDKit          3D

 52 55  0  0  1  0  0  0  0  0999 V2000
  138.4560   71.1790  220.6920 O   0  0  0  0  0  0  0  0  0  0  0  0
  138.4980   71.7340  221.8300 C   0  0  0  0  0  0  0  0  0  0  0  0
  138.1370   73.0930  221.9280 N   0  0  0  0  0  0  0  0  0  0  0  0
  137.7380   73.7890  220.7200 C   0  0  0  0  0  0  0  0  0  0  0  0
  138.9490   74.2510  219.9560 C   0  0  0  0  0  0  0  0  0  0  0  0
  139.2960   73.7150  218.8720 O   0  0  0  0  0  0  0  0  0  0  0  0
  139.7150   75.3280  220.4900 N   0  0  0  0  0  0  0  0  0  0  0  0
  139.3550   76.6630  220.0420 C   0  0  0  0  0  0  0  0  0  0  0  0
  139.5890   77.7220  221.0700 C   0  0  0  0  0  0  0  0  0  0  0  0
  140.9730   77.6080  221.6210 C   0  0  0  0  0  0  0  0  0  0  0  0
  141.0660   76.2740  222.3130 C   0  0  0  0  0  0  0  0  0  0  0  0
  140.7750   75.1030  221.4150 C   0  0  2  0  0  0  0  0  0  0  0  0
  142.0530   74.6830  220.8210 C   0  0  0  0  0  0  0  0  0  0  0  0
  142.8540   75.5430  220.1120 C   0  0  0  0  0  0  0  0  0  0  0  0
  144.0650   75.1590  219.5470 C   0  0  0  0  0  0  0  0  0  0  0  0
  144.5040   73.8630  219.6900 C   0  0  0  0  0  0  0  0  0  0  0  0
  145.7100   73.4120  219.1490 O   0  0  0  0  0  0  0  0  0  0  0  0
  143.7240   72.9730  220.3980 C   0  0  0  0  0  0  0  0  0  0  0  0
  142.5240   73.3740  220.9520 C   0  0  0  0  0  0  0  0  0  0  0  0
  138.9100   70.9730  223.0110 C   0  0  0  0  0  0  0  0  0  0  0  0
  138.5920   69.6280  223.0870 C   0  0  0  0  0  0  0  0  0  0  0  0
  138.9770   68.9040  224.1970 C   0  0  0  0  0  0  0  0  0  0  0  0
  139.6750   69.4900  225.2330 C   0  0  0  0  0  0  0  0  0  0  0  0
  140.0480   68.7430  226.3310 C   0  0  0  0  0  0  0  0  0  0  0  0
  140.7450   69.3860  227.3370 C   0  0  0  0  0  0  0  0  0  0  0  0
  141.2200   68.4390  228.7320 Cl  0  0  0  0  0  0  0  0  0  0  0  0
  141.0510   70.7350  227.2320 C   0  0  0  0  0  0  0  0  0  0  0  0
  140.6800   71.4880  226.1370 C   0  0  0  0  0  0  0  0  0  0  0  0
  139.9840   70.8510  225.1290 C   0  0  0  0  0  0  0  0  0  0  0  0
  139.5920   71.5350  224.0290 N   0  0  0  0  0  0  0  0  0  0  0  0
  138.1680   73.5610  222.8590 H   0  0  0  0  0  0  0  0  0  0  0  0
  137.1485   73.1087  220.0878 H   0  0  0  0  0  0  0  0  0  0  0  0
  137.1348   74.6663  220.9966 H   0  0  0  0  0  0  0  0  0  0  0  0
  139.9539   76.9043  219.1515 H   0  0  0  0  0  0  0  0  0  0  0  0
  138.2757   76.6521  219.8298 H   0  0  0  0  0  0  0  0  0  0  0  0
  139.4623   78.7120  220.6075 H   0  0  0  0  0  0  0  0  0  0  0  0
  138.8649   77.5948  221.8882 H   0  0  0  0  0  0  0  0  0  0  0  0
  141.7093   77.6621  220.8056 H   0  0  0  0  0  0  0  0  0  0  0  0
  141.1836   78.4284  222.3228 H   0  0  0  0  0  0  0  0  0  0  0  0
  142.0848   76.1604  222.7119 H   0  0  0  0  0  0  0  0  0  0  0  0
  140.3014   76.2692  223.1038 H   0  0  0  0  0  0  0  0  0  0  0  0
  140.3658   74.2668  222.0010 H   0  0  0  0  0  0  0  0  0  0  0  0
  142.5226   76.5842  219.9849 H   0  0  0  0  0  0  0  0  0  0  0  0
  144.6696   75.8884  218.9880 H   0  0  0  0  0  0  0  0  0  0  0  0
  146.3400   74.0760  218.7050 H   0  0  0  0  0  0  0  0  0  0  0  0
  144.0609   71.9333  220.5228 H   0  0  0  0  0  0  0  0  0  0  0  0
  141.9225   72.6427  221.5118 H   0  0  0  0  0  0  0  0  0  0  0  0
  138.0380   69.1411  222.2709 H   0  0  0  0  0  0  0  0  0  0  0  0
  138.7217   67.8357  224.2572 H   0  0  0  0  0  0  0  0  0  0  0  0
  139.7997   67.6738  226.4036 H   0  0  0  0  0  0  0  0  0  0  0  0
  141.6072   71.2198  228.0478 H   0  0  0  0  0  0  0  0  0  0  0  0
  140.9297   72.5572  226.0695 H   0  0  0  0  0  0  0  0  0  0  0  0
  1  2  2  0
  2  3  1  0
  3  4  1  0
  4  5  1  0
  5  6  2  0
  5  7  1  0
  7  8  1  0
  8  9  1  0
  9 10  1  0
 10 11  1  0
 11 12  1  0
 12 13  1  0
 13 14  2  0
 14 15  1  0
 15 16  2  0
 16 17  1  0
 16 18  1  0
 18 19  2  0
  2 20  1  0
 20 21  2  0
 21 22  1  0
 22 23  2  0
 23 24  1  0
 24 25  2  0
 25 26  1  0
 25 27  1  0
 27 28  2  0
 28 29  1  0
 29 30  2  0
 12  7  1  0
 19 13  1  0
 30 20  1  0
 29 23  1  0
  3 31  1  0
  4 32  1  0
  4 33  1  0
  8 34  1  0
  8 35  1  0
  9 36  1  0
  9 37  1  0
 10 38  1  0
 10 39  1  0
 11 40  1  0
 11 41  1  0
 12 42  1  1
 14 43  1  0
 15 44  1  0
 17 45  1  0
 18 46  1  0
 19 47  1  0
 21 48  1  0
 22 49  1  0
 24 50  1  0
 27 51  1  0
 28 52  1  0
M  END
>  <smiles>  (5) 
O=C(NCC(=O)N1CCCCC1c1ccc(O)cc1)c1ccc2cc(Cl)ccc2n1

>  <score_type>  (5) 
oracle

>  <origin>  (5) 
autodockgpu

>  <m_score__min__energy>  (5) 
-9.0500000000000007

>  <m_primary>  (5) 
energy

>  <meeko>  (5) 
{"free_energy": -7.88, "intermolecular_energy": -9.67, "internal_energy": -1.75, "cluster_size": 7, "cluster_id": 3, "rank_in_cluster": 7}

>  <energy>  (5) 
-9.01

>  <cluster_rmsd>  (5) 
0.0

>  <rmsd>  (5) 
271.11

>  <cluster>  (5) 
2

$$$$

     RDKit          3D

 52 55  0  0  1  0  0  0  0  0999 V2000
  139.9210   71.7230  220.8600 O   0  0  0  0  0  0  0  0  0  0  0  0
  139.8190   72.1940  222.0320 C   0  0  0  0  0  0  0  0  0  0  0  0
  139.6190   73.5810  222.1820 N   0  0  0  0  0  0  0  0  0  0  0  0
  139.5410   74.4000  220.9880 C   0  0  0  0  0  0  0  0  0  0  0  0
  140.4850   75.5670  221.0900 C   0  0  0  0  0  0  0  0  0  0  0  0
  140.6540   76.1940  222.1680 O   0  0  0  0  0  0  0  0  0  0  0  0
  141.2010   75.9610  219.9220 N   0  0  0  0  0  0  0  0  0  0  0  0
  140.4310   76.0640  218.6940 C   0  0  0  0  0  0  0  0  0  0  0  0
  140.9350   77.1150  217.7580 C   0  0  0  0  0  0  0  0  0  0  0  0
  142.4060   76.9570  217.5520 C   0  0  0  0  0  0  0  0  0  0  0  0
  143.0670   77.1820  218.8870 C   0  0  0  0  0  0  0  0  0  0  0  0
  142.5970   76.2410  219.9630 C   0  0  2  0  0  0  0  0  0  0  0  0
  143.4790   75.0640  219.9260 C   0  0  0  0  0  0  0  0  0  0  0  0
  143.1000   73.8780  219.3490 C   0  0  0  0  0  0  0  0  0  0  0  0
  143.9240   72.7580  219.3070 C   0  0  0  0  0  0  0  0  0  0  0  0
  145.1820   72.8170  219.8610 C   0  0  0  0  0  0  0  0  0  0  0  0
  146.0600   71.7300  219.8520 O   0  0  0  0  0  0  0  0  0  0  0  0
  145.5950   73.9950  220.4470 C   0  0  0  0  0  0  0  0  0  0  0  0
  144.7610   75.0950  220.4790 C   0  0  0  0  0  0  0  0  0  0  0  0
  139.9070   71.3110  223.1950 C   0  0  0  0  0  0  0  0  0  0  0  0
  139.4650   70.0030  223.0800 C   0  0  0  0  0  0  0  0  0  0  0  0
  139.5450   69.1650  224.1730 C   0  0  0  0  0  0  0  0  0  0  0  0
  140.0570   69.5990  225.3790 C   0  0  0  0  0  0  0  0  0  0  0  0
  140.1250   68.7390  226.4560 C   0  0  0  0  0  0  0  0  0  0  0  0
  140.6470   69.2320  227.6380 C   0  0  0  0  0  0  0  0  0  0  0  0
  140.7340   68.1420  229.0060 Cl  0  0  0  0  0  0  0  0  0  0  0  0
  141.0820   70.5460  227.7230 C   0  0  0  0  0  0  0  0  0  0  0  0
  141.0160   71.4120  226.6500 C   0  0  0  0  0  0  0  0  0  0  0  0
  140.4960   70.9250  225.4670 C   0  0  0  0  0  0  0  0  0  0  0  0
  140.4040   71.7230  224.3780 N   0  0  0  0  0  0  0  0  0  0  0  0
  139.5340   73.9810  223.1410 H   0  0  0  0  0  0  0  0  0  0  0  0
  139.8107   73.7911  220.1125 H   0  0  0  0  0  0  0  0  0  0  0  0
  138.5141   74.7799  220.8823 H   0  0  0  0  0  0  0  0  0  0  0  0
  140.4670   75.0930  218.1785 H   0  0  0  0  0  0  0  0  0  0  0  0
  139.4073   76.3491  218.9781 H   0  0  0  0  0  0  0  0  0  0  0  0
  140.4198   77.0181  216.7909 H   0  0  0  0  0  0  0  0  0  0  0  0
  140.7367   78.1069  218.1903 H   0  0  0  0  0  0  0  0  0  0  0  0
  142.6291   75.9438  217.1865 H   0  0  0  0  0  0  0  0  0  0  0  0
  142.7762   77.6754  216.8058 H   0  0  0  0  0  0  0  0  0  0  0  0
  144.1523   77.0528  218.7629 H   0  0  0  0  0  0  0  0  0  0  0  0
  142.7986   78.1986  219.2104 H   0  0  0  0  0  0  0  0  0  0  0  0
  142.6846   76.7176  220.9505 H   0  0  0  0  0  0  0  0  0  0  0  0
  142.0986   73.8098  218.8990 H   0  0  0  0  0  0  0  0  0  0  0  0
  143.5716   71.8299  218.8333 H   0  0  0  0  0  0  0  0  0  0  0  0
  146.2690   71.2470  220.7230 H   0  0  0  0  0  0  0  0  0  0  0  0
  146.5984   74.0590  220.8932 H   0  0  0  0  0  0  0  0  0  0  0  0
  145.1163   76.0217  220.9534 H   0  0  0  0  0  0  0  0  0  0  0  0
  139.0547   69.6366  222.1274 H   0  0  0  0  0  0  0  0  0  0  0  0
  139.1926   68.1270  224.0812 H   0  0  0  0  0  0  0  0  0  0  0  0
  139.7765   67.6986  226.3772 H   0  0  0  0  0  0  0  0  0  0  0  0
  141.4929   70.9100  228.6762 H   0  0  0  0  0  0  0  0  0  0  0  0
  141.3648   72.4518  226.7342 H   0  0  0  0  0  0  0  0  0  0  0  0
  1  2  2  0
  2  3  1  0
  3  4  1  0
  4  5  1  0
  5  6  2  0
  5  7  1  0
  7  8  1  0
  8  9  1  0
  9 10  1  0
 10 11  1  0
 11 12  1  0
 12 13  1  0
 13 14  2  0
 14 15  1  0
 15 16  2  0
 16 17  1  0
 16 18  1  0
 18 19  2  0
  2 20  1  0
 20 21  2  0
 21 22  1  0
 22 23  2  0
 23 24  1  0
 24 25  2  0
 25 26  1  0
 25 27  1  0
 27 28  2  0
 28 29  1  0
 29 30  2  0
 12  7  1  0
 19 13  1  0
 30 20  1  0
 29 23  1  0
  3 31  1  0
  4 32  1  0
  4 33  1  0
  8 34  1  0
  8 35  1  0
  9 36  1  0
  9 37  1  0
 10 38  1  0
 10 39  1  0
 11 40  1  0
 11 41  1  0
 12 42  1  1
 14 43  1  0
 15 44  1  0
 17 45  1  0
 18 46  1  0
 19 47  1  0
 21 48  1  0
 22 49  1  0
 24 50  1  0
 27 51  1  0
 28 52  1  0
M  END
>  <smiles>  (6) 
O=C(NCC(=O)N1CCCCC1c1ccc(O)cc1)c1ccc2cc(Cl)ccc2n1

>  <score_type>  (6) 
oracle

>  <origin>  (6) 
autodockgpu

>  <m_score__min__energy>  (6) 
-9.0500000000000007

>  <m_primary>  (6) 
energy

>  <meeko>  (6) 
{"free_energy": -8.54, "intermolecular_energy": -10.33, "internal_energy": -1.7, "cluster_size": 7, "cluster_id": 3, "rank_in_cluster": 3}

>  <energy>  (6) 
-8.98

>  <cluster_rmsd>  (6) 
0.12

>  <rmsd>  (6) 
271.08

>  <cluster>  (6) 
2

$$$$

     RDKit          3D

 52 55  0  0  1  0  0  0  0  0999 V2000
  139.6160   72.3670  220.8590 O   0  0  0  0  0  0  0  0  0  0  0  0
  139.6020   72.7460  222.0680 C   0  0  0  0  0  0  0  0  0  0  0  0
  139.4190   74.1170  222.3390 N   0  0  0  0  0  0  0  0  0  0  0  0
  139.2570   75.0260  221.2190 C   0  0  0  0  0  0  0  0  0  0  0  0
  138.5620   76.2840  221.6620 C   0  0  0  0  0  0  0  0  0  0  0  0
  137.3070   76.3800  221.6800 O   0  0  0  0  0  0  0  0  0  0  0  0
  139.3620   77.3920  222.0680 N   0  0  0  0  0  0  0  0  0  0  0  0
  138.6480   78.5910  222.4730 C   0  0  0  0  0  0  0  0  0  0  0  0
  139.3570   79.3800  223.5270 C   0  0  0  0  0  0  0  0  0  0  0  0
  140.7780   79.6120  223.1280 C   0  0  0  0  0  0  0  0  0  0  0  0
  141.4410   78.2630  223.0470 C   0  0  0  0  0  0  0  0  0  0  0  0
  140.7850   77.3210  222.0750 C   0  0  2  0  0  0  0  0  0  0  0  0
  141.4350   77.5190  220.7710 C   0  0  0  0  0  0  0  0  0  0  0  0
  141.3280   78.6930  220.0670 C   0  0  0  0  0  0  0  0  0  0  0  0
  141.9380   78.8940  218.8330 C   0  0  0  0  0  0  0  0  0  0  0  0
  142.6890   77.8870  218.2720 C   0  0  0  0  0  0  0  0  0  0  0  0
  143.3290   78.0220  217.0370 O   0  0  0  0  0  0  0  0  0  0  0  0
  142.8170   76.6950  218.9540 C   0  0  0  0  0  0  0  0  0  0  0  0
  142.2030   76.5150  220.1780 C   0  0  0  0  0  0  0  0  0  0  0  0
  139.7720   71.7770  223.1510 C   0  0  0  0  0  0  0  0  0  0  0  0
  139.4130   70.4570  222.9320 C   0  0  0  0  0  0  0  0  0  0  0  0
  139.5700   69.5370  223.9490 C   0  0  0  0  0  0  0  0  0  0  0  0
  140.0780   69.9020  225.1790 C   0  0  0  0  0  0  0  0  0  0  0  0
  140.2240   68.9610  226.1780 C   0  0  0  0  0  0  0  0  0  0  0  0
  140.7390   69.3870  227.3890 C   0  0  0  0  0  0  0  0  0  0  0  0
  140.9260   68.1940  228.6580 Cl  0  0  0  0  0  0  0  0  0  0  0  0
  141.0900   70.7150  227.5780 C   0  0  0  0  0  0  0  0  0  0  0  0
  140.9450   71.6610  226.5830 C   0  0  0  0  0  0  0  0  0  0  0  0
  140.4320   71.2420  225.3720 C   0  0  0  0  0  0  0  0  0  0  0  0
  140.2660   72.1210  224.3560 N   0  0  0  0  0  0  0  0  0  0  0  0
  139.4060   74.4430  223.3290 H   0  0  0  0  0  0  0  0  0  0  0  0
  140.2471   75.2822  220.8138 H   0  0  0  0  0  0  0  0  0  0  0  0
  138.6480   74.5349  220.4457 H   0  0  0  0  0  0  0  0  0  0  0  0
  138.5144   79.2320  221.5891 H   0  0  0  0  0  0  0  0  0  0  0  0
  137.6884   78.2668  222.9021 H   0  0  0  0  0  0  0  0  0  0  0  0
  138.8529   80.3491  223.6564 H   0  0  0  0  0  0  0  0  0  0  0  0
  139.3363   78.8173  224.4720 H   0  0  0  0  0  0  0  0  0  0  0  0
  140.8182   80.1116  222.1488 H   0  0  0  0  0  0  0  0  0  0  0  0
  141.2894   80.2563  223.8583 H   0  0  0  0  0  0  0  0  0  0  0  0
  142.4863   78.4085  222.7370 H   0  0  0  0  0  0  0  0  0  0  0  0
  141.3569   77.8046  224.0434 H   0  0  0  0  0  0  0  0  0  0  0  0
  140.9400   76.2787  222.3906 H   0  0  0  0  0  0  0  0  0  0  0  0
  140.7331   79.5116  220.4983 H   0  0  0  0  0  0  0  0  0  0  0  0
  141.8204   79.8536  218.3082 H   0  0  0  0  0  0  0  0  0  0  0  0
  143.6950   78.9300  216.7590 H   0  0  0  0  0  0  0  0  0  0  0  0
  143.4138   75.8799  218.5189 H   0  0  0  0  0  0  0  0  0  0  0  0
  142.3223   75.5542  220.7001 H   0  0  0  0  0  0  0  0  0  0  0  0
  139.0072   70.1454  221.9582 H   0  0  0  0  0  0  0  0  0  0  0  0
  139.2837   68.4893  223.7750 H   0  0  0  0  0  0  0  0  0  0  0  0
  139.9411   67.9103  226.0170 H   0  0  0  0  0  0  0  0  0  0  0  0
  141.4970   71.0247  228.5519 H   0  0  0  0  0  0  0  0  0  0  0  0
  141.2281   72.7109  226.7493 H   0  0  0  0  0  0  0  0  0  0  0  0
  1  2  2  0
  2  3  1  0
  3  4  1  0
  4  5  1  0
  5  6  2  0
  5  7  1  0
  7  8  1  0
  8  9  1  0
  9 10  1  0
 10 11  1  0
 11 12  1  0
 12 13  1  0
 13 14  2  0
 14 15  1  0
 15 16  2  0
 16 17  1  0
 16 18  1  0
 18 19  2  0
  2 20  1  0
 20 21  2  0
 21 22  1  0
 22 23  2  0
 23 24  1  0
 24 25  2  0
 25 26  1  0
 25 27  1  0
 27 28  2  0
 28 29  1  0
 29 30  2  0
 12  7  1  0
 19 13  1  0
 30 20  1  0
 29 23  1  0
  3 31  1  0
  4 32  1  0
  4 33  1  0
  8 34  1  0
  8 35  1  0
  9 36  1  0
  9 37  1  0
 10 38  1  0
 10 39  1  0
 11 40  1  0
 11 41  1  0
 12 42  1  1
 14 43  1  0
 15 44  1  0
 17 45  1  0
 18 46  1  0
 19 47  1  0
 21 48  1  0
 22 49  1  0
 24 50  1  0
 27 51  1  0
 28 52  1  0
M  END
>  <smiles>  (7) 
O=C(NCC(=O)N1CCCCC1c1ccc(O)cc1)c1ccc2cc(Cl)ccc2n1

>  <score_type>  (7) 
oracle

>  <origin>  (7) 
autodockgpu

>  <m_score__min__energy>  (7) 
-9.0500000000000007

>  <m_primary>  (7) 
energy

>  <meeko>  (7) 
{"free_energy": -8.98, "intermolecular_energy": -10.77, "internal_energy": -1.45, "cluster_size": 3, "cluster_id": 2, "rank_in_cluster": 2}

>  <energy>  (7) 
-8.75

>  <cluster_rmsd>  (7) 
0.34

>  <rmsd>  (7) 
270.97

>  <cluster>  (7) 
2

$$$$

     RDKit          3D

 52 55  0  0  1  0  0  0  0  0999 V2000
  136.5450   77.5940  222.7220 O   0  0  0  0  0  0  0  0  0  0  0  0
  136.6260   76.3960  223.1230 C   0  0  0  0  0  0  0  0  0  0  0  0
  137.7360   75.6260  222.7190 N   0  0  0  0  0  0  0  0  0  0  0  0
  138.7290   76.2450  221.8620 C   0  0  0  0  0  0  0  0  0  0  0  0
  139.9500   75.3730  221.7590 C   0  0  0  0  0  0  0  0  0  0  0  0
  139.9960   74.2280  222.2810 O   0  0  0  0  0  0  0  0  0  0  0  0
  141.0790   75.8710  221.0470 N   0  0  0  0  0  0  0  0  0  0  0  0
  142.1850   74.9470  220.8590 C   0  0  0  0  0  0  0  0  0  0  0  0
  142.9400   75.1690  219.5870 C   0  0  0  0  0  0  0  0  0  0  0  0
  143.3100   76.6110  219.4550 C   0  0  0  0  0  0  0  0  0  0  0  0
  142.0260   77.3920  219.3630 C   0  0  0  0  0  0  0  0  0  0  0  0
  141.1170   77.2050  220.5470 C   0  0  2  0  0  0  0  0  0  0  0  0
  141.4670   78.2400  221.5320 C   0  0  0  0  0  0  0  0  0  0  0  0
  141.4430   78.0070  222.8840 C   0  0  0  0  0  0  0  0  0  0  0  0
  141.7720   78.9760  223.8260 C   0  0  0  0  0  0  0  0  0  0  0  0
  142.1420   80.2340  223.4080 C   0  0  0  0  0  0  0  0  0  0  0  0
  142.4860   81.2530  224.3000 O   0  0  0  0  0  0  0  0  0  0  0  0
  142.1770   80.5010  222.0560 C   0  0  0  0  0  0  0  0  0  0  0  0
  141.8460   79.5240  221.1370 C   0  0  0  0  0  0  0  0  0  0  0  0
  135.5880   75.8320  223.9870 C   0  0  0  0  0  0  0  0  0  0  0  0
  134.6670   76.6840  224.5730 C   0  0  0  0  0  0  0  0  0  0  0  0
  133.6860   76.1600  225.3890 C   0  0  0  0  0  0  0  0  0  0  0  0
  133.6000   74.8040  225.6340 C   0  0  0  0  0  0  0  0  0  0  0  0
  132.6070   74.3070  226.4540 C   0  0  0  0  0  0  0  0  0  0  0  0
  132.5730   72.9400  226.6610 C   0  0  0  0  0  0  0  0  0  0  0  0
  131.3140   72.3070  227.7020 Cl  0  0  0  0  0  0  0  0  0  0  0  0
  133.5080   72.1120  226.0600 C   0  0  0  0  0  0  0  0  0  0  0  0
  134.5040   72.6030  225.2390 C   0  0  0  0  0  0  0  0  0  0  0  0
  134.5430   73.9670  225.0280 C   0  0  0  0  0  0  0  0  0  0  0  0
  135.4940   74.5100  224.2340 N   0  0  0  0  0  0  0  0  0  0  0  0
  137.8140   74.6390  223.0420 H   0  0  0  0  0  0  0  0  0  0  0  0
  138.3019   76.3904  220.8588 H   0  0  0  0  0  0  0  0  0  0  0  0
  139.0184   77.2144  222.2939 H   0  0  0  0  0  0  0  0  0  0  0  0
  142.8821   75.0626  221.7020 H   0  0  0  0  0  0  0  0  0  0  0  0
  141.7556   73.9356  220.8074 H   0  0  0  0  0  0  0  0  0  0  0  0
  143.8546   74.5579  219.5953 H   0  0  0  0  0  0  0  0  0  0  0  0
  142.3052   74.8806  218.7362 H   0  0  0  0  0  0  0  0  0  0  0  0
  143.8860   76.9346  220.3345 H   0  0  0  0  0  0  0  0  0  0  0  0
  143.9323   76.7750  218.5629 H   0  0  0  0  0  0  0  0  0  0  0  0
  142.2747   78.4604  219.2817 H   0  0  0  0  0  0  0  0  0  0  0  0
  141.4853   77.0180  218.4810 H   0  0  0  0  0  0  0  0  0  0  0  0
  140.0680   77.3441  220.2468 H   0  0  0  0  0  0  0  0  0  0  0  0
  141.1501   77.0080  223.2392 H   0  0  0  0  0  0  0  0  0  0  0  0
  141.7367   78.7381  224.8994 H   0  0  0  0  0  0  0  0  0  0  0  0
  142.8560   82.1300  223.9410 H   0  0  0  0  0  0  0  0  0  0  0  0
  142.4712   81.5013  221.7056 H   0  0  0  0  0  0  0  0  0  0  0  0
  141.8821   79.7647  220.0642 H   0  0  0  0  0  0  0  0  0  0  0  0
  134.7172   77.7675  224.3897 H   0  0  0  0  0  0  0  0  0  0  0  0
  132.9557   76.8379  225.8551 H   0  0  0  0  0  0  0  0  0  0  0  0
  131.8699   74.9737  226.9254 H   0  0  0  0  0  0  0  0  0  0  0  0
  133.4550   71.0286  226.2429 H   0  0  0  0  0  0  0  0  0  0  0  0
  135.2392   71.9322  224.7704 H   0  0  0  0  0  0  0  0  0  0  0  0
  1  2  2  0
  2  3  1  0
  3  4  1  0
  4  5  1  0
  5  6  2  0
  5  7  1  0
  7  8  1  0
  8  9  1  0
  9 10  1  0
 10 11  1  0
 11 12  1  0
 12 13  1  0
 13 14  2  0
 14 15  1  0
 15 16  2  0
 16 17  1  0
 16 18  1  0
 18 19  2  0
  2 20  1  0
 20 21  2  0
 21 22  1  0
 22 23  2  0
 23 24  1  0
 24 25  2  0
 25 26  1  0
 25 27  1  0
 27 28  2  0
 28 29  1  0
 29 30  2  0
 12  7  1  0
 19 13  1  0
 30 20  1  0
 29 23  1  0
  3 31  1  0
  4 32  1  0
  4 33  1  0
  8 34  1  0
  8 35  1  0
  9 36  1  0
  9 37  1  0
 10 38  1  0
 10 39  1  0
 11 40  1  0
 11 41  1  0
 12 42  1  6
 14 43  1  0
 15 44  1  0
 17 45  1  0
 18 46  1  0
 19 47  1  0
 21 48  1  0
 22 49  1  0
 24 50  1  0
 27 51  1  0
 28 52  1  0
M  END
>  <smiles>  (8) 
O=C(NCC(=O)N1CCCCC1c1ccc(O)cc1)c1ccc2cc(Cl)ccc2n1

>  <score_type>  (8) 
oracle

>  <origin>  (8) 
autodockgpu

>  <m_score__min__energy>  (8) 
-9.0500000000000007

>  <m_primary>  (8) 
energy

>  <meeko>  (8) 
{"free_energy": -7.89, "intermolecular_energy": -9.67, "internal_energy": -1.85, "cluster_size": 4, "cluster_id": 4, "rank_in_cluster": 2}

>  <energy>  (8) 
-8.86

>  <cluster_rmsd>  (8) 
0.0

>  <rmsd>  (8) 
270.76

>  <cluster>  (8) 
3

$$$$

     RDKit          3D

 52 55  0  0  1  0  0  0  0  0999 V2000
  138.0760   73.7750  220.7410 O   0  0  0  0  0  0  0  0  0  0  0  0
  137.9700   74.4710  221.7940 C   0  0  0  0  0  0  0  0  0  0  0  0
  136.9630   74.1360  222.7210 N   0  0  0  0  0  0  0  0  0  0  0  0
  136.0970   73.0110  222.4230 C   0  0  0  0  0  0  0  0  0  0  0  0
  136.6640   71.7440  223.0030 C   0  0  0  0  0  0  0  0  0  0  0  0
  136.0710   71.1040  223.9100 O   0  0  0  0  0  0  0  0  0  0  0  0
  137.9110   71.2700  222.5020 N   0  0  0  0  0  0  0  0  0  0  0  0
  137.8690   70.5470  221.2420 C   0  0  0  0  0  0  0  0  0  0  0  0
  139.1000   70.7210  220.4120 C   0  0  0  0  0  0  0  0  0  0  0  0
  140.3180   70.4550  221.2360 C   0  0  0  0  0  0  0  0  0  0  0  0
  140.3520   71.4950  222.3240 C   0  0  0  0  0  0  0  0  0  0  0  0
  139.1310   71.4960  223.2020 C   0  0  2  0  0  0  0  0  0  0  0  0
  139.3990   70.5770  224.3190 C   0  0  0  0  0  0  0  0  0  0  0  0
  138.8760   69.3090  224.3700 C   0  0  0  0  0  0  0  0  0  0  0  0
  139.1220   68.4300  225.4200 C   0  0  0  0  0  0  0  0  0  0  0  0
  139.9230   68.8250  226.4670 C   0  0  0  0  0  0  0  0  0  0  0  0
  140.2110   67.9930  227.5510 O   0  0  0  0  0  0  0  0  0  0  0  0
  140.4640   70.0930  226.4460 C   0  0  0  0  0  0  0  0  0  0  0  0
  140.2080   70.9510  225.3940 C   0  0  0  0  0  0  0  0  0  0  0  0
  138.8770   75.5940  222.0340 C   0  0  0  0  0  0  0  0  0  0  0  0
  140.2200   75.4500  221.7280 C   0  0  0  0  0  0  0  0  0  0  0  0
  141.0810   76.5040  221.9520 C   0  0  0  0  0  0  0  0  0  0  0  0
  140.6340   77.7020  222.4730 C   0  0  0  0  0  0  0  0  0  0  0  0
  141.5180   78.7400  222.6870 C   0  0  0  0  0  0  0  0  0  0  0  0
  141.0110   79.9150  223.2110 C   0  0  0  0  0  0  0  0  0  0  0  0
  142.1310   81.2350  223.4830 Cl  0  0  0  0  0  0  0  0  0  0  0  0
  139.6610   80.0300  223.5070 C   0  0  0  0  0  0  0  0  0  0  0  0
  138.7720   78.9950  223.2960 C   0  0  0  0  0  0  0  0  0  0  0  0
  139.2730   77.8200  222.7730 C   0  0  0  0  0  0  0  0  0  0  0  0
  138.4530   76.7680  222.5430 N   0  0  0  0  0  0  0  0  0  0  0  0
  136.8650   74.7010  223.5920 H   0  0  0  0  0  0  0  0  0  0  0  0
  135.1026   73.1945  222.8561 H   0  0  0  0  0  0  0  0  0  0  0  0
  136.0195   72.9000  221.3314 H   0  0  0  0  0  0  0  0  0  0  0  0
  137.7445   69.4759  221.4594 H   0  0  0  0  0  0  0  0  0  0  0  0
  137.0283   70.9562  220.6626 H   0  0  0  0  0  0  0  0  0  0  0  0
  139.0716   70.0170  219.5673 H   0  0  0  0  0  0  0  0  0  0  0  0
  139.1380   71.7545  220.0374 H   0  0  0  0  0  0  0  0  0  0  0  0
  140.2627   69.4489  221.6773 H   0  0  0  0  0  0  0  0  0  0  0  0
  141.2270   70.5044  220.6185 H   0  0  0  0  0  0  0  0  0  0  0  0
  141.2329   71.3074  222.9555 H   0  0  0  0  0  0  0  0  0  0  0  0
  140.3903   72.4761  221.8279 H   0  0  0  0  0  0  0  0  0  0  0  0
  138.9541   72.5030  223.6077 H   0  0  0  0  0  0  0  0  0  0  0  0
  138.2332   68.9725  223.5432 H   0  0  0  0  0  0  0  0  0  0  0  0
  138.6781   67.4236  225.4133 H   0  0  0  0  0  0  0  0  0  0  0  0
  140.0330   66.9940  227.4770 H   0  0  0  0  0  0  0  0  0  0  0  0
  141.1060   70.4248  227.2753 H   0  0  0  0  0  0  0  0  0  0  0  0
  140.6537   71.9566  225.4034 H   0  0  0  0  0  0  0  0  0  0  0  0
  140.5963   74.5044  221.3105 H   0  0  0  0  0  0  0  0  0  0  0  0
  142.1477   76.3876  221.7101 H   0  0  0  0  0  0  0  0  0  0  0  0
  142.5870   78.6364  222.4494 H   0  0  0  0  0  0  0  0  0  0  0  0
  139.2863   80.9767  223.9235 H   0  0  0  0  0  0  0  0  0  0  0  0
  137.7039   79.1028  223.5358 H   0  0  0  0  0  0  0  0  0  0  0  0
  1  2  2  0
  2  3  1  0
  3  4  1  0
  4  5  1  0
  5  6  2  0
  5  7  1  0
  7  8  1  0
  8  9  1  0
  9 10  1  0
 10 11  1  0
 11 12  1  0
 12 13  1  0
 13 14  2  0
 14 15  1  0
 15 16  2  0
 16 17  1  0
 16 18  1  0
 18 19  2  0
  2 20  1  0
 20 21  2  0
 21 22  1  0
 22 23  2  0
 23 24  1  0
 24 25  2  0
 25 26  1  0
 25 27  1  0
 27 28  2  0
 28 29  1  0
 29 30  2  0
 12  7  1  0
 19 13  1  0
 30 20  1  0
 29 23  1  0
  3 31  1  0
  4 32  1  0
  4 33  1  0
  8 34  1  0
  8 35  1  0
  9 36  1  0
  9 37  1  0
 10 38  1  0
 10 39  1  0
 11 40  1  0
 11 41  1  0
 12 42  1  1
 14 43  1  0
 15 44  1  0
 17 45  1  0
 18 46  1  0
 19 47  1  0
 21 48  1  0
 22 49  1  0
 24 50  1  0
 27 51  1  0
 28 52  1  0
M  END
>  <smiles>  (9) 
O=C(NCC(=O)N1CCCCC1c1ccc(O)cc1)c1ccc2cc(Cl)ccc2n1

>  <score_type>  (9) 
oracle

>  <origin>  (9) 
autodockgpu

>  <m_score__min__energy>  (9) 
-9.0500000000000007

>  <m_primary>  (9) 
energy

>  <meeko>  (9) 
{"free_energy": -7.34, "intermolecular_energy": -9.13, "internal_energy": -1.98, "cluster_size": 1, "cluster_id": 5, "rank_in_cluster": 1}

>  <energy>  (9) 
-8.76

>  <cluster_rmsd>  (9) 
0.18

>  <rmsd>  (9) 
270.73

>  <cluster>  (9) 
3

$$$$

     RDKit          3D

 52 55  0  0  1  0  0  0  0  0999 V2000
  139.7200   72.5140  220.8590 O   0  0  0  0  0  0  0  0  0  0  0  0
  139.6010   72.8700  222.0690 C   0  0  0  0  0  0  0  0  0  0  0  0
  139.3010   74.2190  222.3450 N   0  0  0  0  0  0  0  0  0  0  0  0
  139.1460   75.1330  221.2300 C   0  0  0  0  0  0  0  0  0  0  0  0
  138.4980   76.4120  221.6860 C   0  0  0  0  0  0  0  0  0  0  0  0
  137.2470   76.5520  221.7130 O   0  0  0  0  0  0  0  0  0  0  0  0
  139.3390   77.4880  222.0960 N   0  0  0  0  0  0  0  0  0  0  0  0
  138.6720   78.7150  222.4940 C   0  0  0  0  0  0  0  0  0  0  0  0
  139.4050   79.4770  223.5520 C   0  0  0  0  0  0  0  0  0  0  0  0
  140.8360   79.6510  223.1610 C   0  0  0  0  0  0  0  0  0  0  0  0
  141.4460   78.2760  223.0880 C   0  0  0  0  0  0  0  0  0  0  0  0
  140.7580   77.3590  222.1130 C   0  0  2  0  0  0  0  0  0  0  0  0
  141.4250   77.5290  220.8130 C   0  0  0  0  0  0  0  0  0  0  0  0
  142.1170   76.5130  220.2030 C   0  0  0  0  0  0  0  0  0  0  0  0
  142.7520   76.6590  218.9740 C   0  0  0  0  0  0  0  0  0  0  0  0
  142.6970   77.8680  218.3190 C   0  0  0  0  0  0  0  0  0  0  0  0
  143.3110   78.0830  217.0820 O   0  0  0  0  0  0  0  0  0  0  0  0
  142.0090   78.9100  218.9040 C   0  0  0  0  0  0  0  0  0  0  0  0
  141.3860   78.7440  220.1250 C   0  0  0  0  0  0  0  0  0  0  0  0
  139.7710   71.8960  223.1480 C   0  0  0  0  0  0  0  0  0  0  0  0
  139.4270   70.5740  222.9190 C   0  0  0  0  0  0  0  0  0  0  0  0
  139.5840   69.6500  223.9320 C   0  0  0  0  0  0  0  0  0  0  0  0
  140.0790   70.0130  225.1690 C   0  0  0  0  0  0  0  0  0  0  0  0
  140.2260   69.0680  226.1630 C   0  0  0  0  0  0  0  0  0  0  0  0
  140.7270   69.4920  227.3810 C   0  0  0  0  0  0  0  0  0  0  0  0
  140.9140   68.2940  228.6450 Cl  0  0  0  0  0  0  0  0  0  0  0  0
  141.0630   70.8230  227.5800 C   0  0  0  0  0  0  0  0  0  0  0  0
  140.9180   71.7730  226.5890 C   0  0  0  0  0  0  0  0  0  0  0  0
  140.4190   71.3550  225.3710 C   0  0  0  0  0  0  0  0  0  0  0  0
  140.2530   72.2380  224.3590 N   0  0  0  0  0  0  0  0  0  0  0  0
  139.2020   74.5250  223.3360 H   0  0  0  0  0  0  0  0  0  0  0  0
  140.1357   75.3591  220.8065 H   0  0  0  0  0  0  0  0  0  0  0  0
  138.5075   74.6615  220.4684 H   0  0  0  0  0  0  0  0  0  0  0  0
  138.5706   79.3592  221.6082 H   0  0  0  0  0  0  0  0  0  0  0  0
  137.6973   78.4306  222.9171 H   0  0  0  0  0  0  0  0  0  0  0  0
  138.9392   80.4656  223.6770 H   0  0  0  0  0  0  0  0  0  0  0  0
  139.3557   78.9177  224.4979 H   0  0  0  0  0  0  0  0  0  0  0  0
  140.9017   80.1454  222.1806 H   0  0  0  0  0  0  0  0  0  0  0  0
  141.3682   80.2768  223.8925 H   0  0  0  0  0  0  0  0  0  0  0  0
  142.4983   78.3788  222.7846 H   0  0  0  0  0  0  0  0  0  0  0  0
  141.3384   77.8237  224.0849 H   0  0  0  0  0  0  0  0  0  0  0  0
  140.8674   76.3118  222.4313 H   0  0  0  0  0  0  0  0  0  0  0  0
  142.1721   75.5380  220.7093 H   0  0  0  0  0  0  0  0  0  0  0  0
  143.2951   75.8127  218.5281 H   0  0  0  0  0  0  0  0  0  0  0  0
  143.6520   79.0120  216.8470 H   0  0  0  0  0  0  0  0  0  0  0  0
  141.9560   79.8827  218.3931 H   0  0  0  0  0  0  0  0  0  0  0  0
  140.8438   79.5923  220.5683 H   0  0  0  0  0  0  0  0  0  0  0  0
  139.0328   70.2638  221.9400 H   0  0  0  0  0  0  0  0  0  0  0  0
  139.3086   68.6007  223.7500 H   0  0  0  0  0  0  0  0  0  0  0  0
  139.9548   68.0155  225.9935 H   0  0  0  0  0  0  0  0  0  0  0  0
  141.4578   71.1315  228.5593 H   0  0  0  0  0  0  0  0  0  0  0  0
  141.1900   72.8245  226.7631 H   0  0  0  0  0  0  0  0  0  0  0  0
  1  2  2  0
  2  3  1  0
  3  4  1  0
  4  5  1  0
  5  6  2  0
  5  7  1  0
  7  8  1  0
  8  9  1  0
  9 10  1  0
 10 11  1  0
 11 12  1  0
 12 13  1  0
 13 14  2  0
 14 15  1  0
 15 16  2  0
 16 17  1  0
 16 18  1  0
 18 19  2  0
  2 20  1  0
 20 21  2  0
 21 22  1  0
 22 23  2  0
 23 24  1  0
 24 25  2  0
 25 26  1  0
 25 27  1  0
 27 28  2  0
 28 29  1  0
 29 30  2  0
 12  7  1  0
 19 13  1  0
 30 20  1  0
 29 23  1  0
  3 31  1  0
  4 32  1  0
  4 33  1  0
  8 34  1  0
  8 35  1  0
  9 36  1  0
  9 37  1  0
 10 38  1  0
 10 39  1  0
 11 40  1  0
 11 41  1  0
 12 42  1  1
 14 43  1  0
 15 44  1  0
 17 45  1  0
 18 46  1  0
 19 47  1  0
 21 48  1  0
 22 49  1  0
 24 50  1  0
 27 51  1  0
 28 52  1  0
M  END
>  <smiles>  (10) 
O=C(NCC(=O)N1CCCCC1c1ccc(O)cc1)c1ccc2cc(Cl)ccc2n1

>  <score_type>  (10) 
oracle

>  <origin>  (10) 
autodockgpu

>  <m_score__min__energy>  (10) 
-9.0500000000000007

>  <m_primary>  (10) 
energy

>  <meeko>  (10) 
{"free_energy": -9.01, "intermolecular_energy": -10.8, "internal_energy": -1.45, "cluster_size": 3, "cluster_id": 2, "rank_in_cluster": 1}

>  <energy>  (10) 
-8.54

>  <cluster_rmsd>  (10) 
0.41

>  <rmsd>  (10) 
270.83

>  <cluster>  (10) 
3

$$$$

     RDKit          3D

 52 55  0  0  1  0  0  0  0  0999 V2000
  136.5620   77.6150  222.7070 O   0  0  0  0  0  0  0  0  0  0  0  0
  136.6410   76.4200  223.1210 C   0  0  0  0  0  0  0  0  0  0  0  0
  137.7440   75.6410  222.7170 N   0  0  0  0  0  0  0  0  0  0  0  0
  138.7340   76.2470  221.8480 C   0  0  0  0  0  0  0  0  0  0  0  0
  139.9370   75.3520  221.7190 C   0  0  0  0  0  0  0  0  0  0  0  0
  139.9670   74.2000  222.2270 O   0  0  0  0  0  0  0  0  0  0  0  0
  141.0670   75.8370  220.9990 N   0  0  0  0  0  0  0  0  0  0  0  0
  142.1730   74.9100  220.8300 C   0  0  0  0  0  0  0  0  0  0  0  0
  142.9290   75.1080  219.5550 C   0  0  0  0  0  0  0  0  0  0  0  0
  143.2990   76.5470  219.3950 C   0  0  0  0  0  0  0  0  0  0  0  0
  142.0140   77.3250  219.2870 C   0  0  0  0  0  0  0  0  0  0  0  0
  141.1040   77.1610  220.4730 C   0  0  2  0  0  0  0  0  0  0  0  0
  141.4520   78.2150  221.4380 C   0  0  0  0  0  0  0  0  0  0  0  0
  141.8230   79.4770  221.0460 C   0  0  0  0  0  0  0  0  0  0  0  0
  142.1540   80.4830  221.9470 C   0  0  0  0  0  0  0  0  0  0  0  0
  142.1160   80.2280  223.2990 C   0  0  0  0  0  0  0  0  0  0  0  0
  142.4360   81.1920  224.2570 O   0  0  0  0  0  0  0  0  0  0  0  0
  141.7470   78.9690  223.7260 C   0  0  0  0  0  0  0  0  0  0  0  0
  141.4220   77.9840  222.8150 C   0  0  0  0  0  0  0  0  0  0  0  0
  135.6060   75.8700  223.9980 C   0  0  0  0  0  0  0  0  0  0  0  0
  134.6850   76.7310  224.5710 C   0  0  0  0  0  0  0  0  0  0  0  0
  133.7070   76.2200  225.3990 C   0  0  0  0  0  0  0  0  0  0  0  0
  133.6240   74.8680  225.6680 C   0  0  0  0  0  0  0  0  0  0  0  0
  132.6340   74.3840  226.4990 C   0  0  0  0  0  0  0  0  0  0  0  0
  132.6020   73.0210  226.7310 C   0  0  0  0  0  0  0  0  0  0  0  0
  131.3480   72.4050  227.7870 Cl  0  0  0  0  0  0  0  0  0  0  0  0
  133.5380   72.1840  226.1420 C   0  0  0  0  0  0  0  0  0  0  0  0
  134.5300   72.6620  225.3100 C   0  0  0  0  0  0  0  0  0  0  0  0
  134.5660   74.0220  225.0750 C   0  0  0  0  0  0  0  0  0  0  0  0
  135.5140   74.5530  224.2680 N   0  0  0  0  0  0  0  0  0  0  0  0
  137.8200   74.6570  223.0510 H   0  0  0  0  0  0  0  0  0  0  0  0
  138.2933   76.4075  220.8530 H   0  0  0  0  0  0  0  0  0  0  0  0
  139.0489   77.2078  222.2814 H   0  0  0  0  0  0  0  0  0  0  0  0
  142.8692   75.0418  221.6714 H   0  0  0  0  0  0  0  0  0  0  0  0
  141.7440   73.8976  220.7974 H   0  0  0  0  0  0  0  0  0  0  0  0
  143.8437   74.4974  219.5759 H   0  0  0  0  0  0  0  0  0  0  0  0
  142.2947   74.8034  218.7095 H   0  0  0  0  0  0  0  0  0  0  0  0
  143.8744   76.8880  220.2683 H   0  0  0  0  0  0  0  0  0  0  0  0
  143.9222   76.6940  218.5006 H   0  0  0  0  0  0  0  0  0  0  0  0
  142.2620   78.3918  219.1849 H   0  0  0  0  0  0  0  0  0  0  0  0
  141.4744   76.9328  218.4124 H   0  0  0  0  0  0  0  0  0  0  0  0
  140.0553   77.2939  220.1689 H   0  0  0  0  0  0  0  0  0  0  0  0
  141.8602   79.7028  219.9701 H   0  0  0  0  0  0  0  0  0  0  0  0
  142.4451   81.4786  221.5808 H   0  0  0  0  0  0  0  0  0  0  0  0
  142.2970   82.1770  224.0430 H   0  0  0  0  0  0  0  0  0  0  0  0
  141.7114   78.7479  224.8030 H   0  0  0  0  0  0  0  0  0  0  0  0
  141.1313   76.9894  223.1840 H   0  0  0  0  0  0  0  0  0  0  0  0
  134.7328   77.8111  224.3680 H   0  0  0  0  0  0  0  0  0  0  0  0
  132.9770   76.9048  225.8552 H   0  0  0  0  0  0  0  0  0  0  0  0
  131.8971   75.0580  226.9601 H   0  0  0  0  0  0  0  0  0  0  0  0
  133.4881   71.1040  226.3446 H   0  0  0  0  0  0  0  0  0  0  0  0
  135.2649   71.9844  224.8510 H   0  0  0  0  0  0  0  0  0  0  0  0
  1  2  2  0
  2  3  1  0
  3  4  1  0
  4  5  1  0
  5  6  2  0
  5  7  1  0
  7  8  1  0
  8  9  1  0
  9 10  1  0
 10 11  1  0
 11 12  1  0
 12 13  1  0
 13 14  2  0
 14 15  1  0
 15 16  2  0
 16 17  1  0
 16 18  1  0
 18 19  2  0
  2 20  1  0
 20 21  2  0
 21 22  1  0
 22 23  2  0
 23 24  1  0
 24 25  2  0
 25 26  1  0
 25 27  1  0
 27 28  2  0
 28 29  1  0
 29 30  2  0
 12  7  1  0
 19 13  1  0
 30 20  1  0
 29 23  1  0
  3 31  1  0
  4 32  1  0
  4 33  1  0
  8 34  1  0
  8 35  1  0
  9 36  1  0
  9 37  1  0
 10 38  1  0
 10 39  1  0
 11 40  1  0
 11 41  1  0
 12 42  1  6
 14 43  1  0
 15 44  1  0
 17 45  1  0
 18 46  1  0
 19 47  1  0
 21 48  1  0
 22 49  1  0
 24 50  1  0
 27 51  1  0
 28 52  1  0
M  END
>  <smiles>  (11) 
O=C(NCC(=O)N1CCCCC1c1ccc(O)cc1)c1ccc2cc(Cl)ccc2n1

>  <score_type>  (11) 
oracle

>  <origin>  (11) 
autodockgpu

>  <m_score__min__energy>  (11) 
-9.0500000000000007

>  <m_primary>  (11) 
energy

>  <meeko>  (11) 
{"free_energy": -7.85, "intermolecular_energy": -9.64, "internal_energy": -1.86, "cluster_size": 4, "cluster_id": 4, "rank_in_cluster": 4}

>  <energy>  (11) 
-8.43

>  <cluster_rmsd>  (11) 
0.85

>  <rmsd>  (11) 
270.68

>  <cluster>  (11) 
3

$$$$

     RDKit          3D

 52 55  0  0  1  0  0  0  0  0999 V2000
  136.5720   77.6040  222.7440 O   0  0  0  0  0  0  0  0  0  0  0  0
  136.6440   76.3980  223.1270 C   0  0  0  0  0  0  0  0  0  0  0  0
  137.7460   75.6260  222.7090 N   0  0  0  0  0  0  0  0  0  0  0  0
  138.7430   76.2500  221.8600 C   0  0  0  0  0  0  0  0  0  0  0  0
  139.9640   75.3780  221.7570 C   0  0  0  0  0  0  0  0  0  0  0  0
  140.0180   74.2420  222.2970 O   0  0  0  0  0  0  0  0  0  0  0  0
  141.0850   75.8670  221.0240 N   0  0  0  0  0  0  0  0  0  0  0  0
  142.1950   74.9460  220.8480 C   0  0  0  0  0  0  0  0  0  0  0  0
  142.9370   75.1430  219.5650 C   0  0  0  0  0  0  0  0  0  0  0  0
  143.2980   76.5830  219.3970 C   0  0  0  0  0  0  0  0  0  0  0  0
  142.0070   77.3540  219.2980 C   0  0  0  0  0  0  0  0  0  0  0  0
  141.1090   77.1890  220.4940 C   0  0  2  0  0  0  0  0  0  0  0  0
  141.4610   78.2480  221.4510 C   0  0  0  0  0  0  0  0  0  0  0  0
  141.8250   79.5100  221.0520 C   0  0  0  0  0  0  0  0  0  0  0  0
  142.1600   80.5210  221.9460 C   0  0  0  0  0  0  0  0  0  0  0  0
  142.1320   80.2710  223.2990 C   0  0  0  0  0  0  0  0  0  0  0  0
  142.4550   81.2410  224.2510 O   0  0  0  0  0  0  0  0  0  0  0  0
  141.7690   79.0130  223.7340 C   0  0  0  0  0  0  0  0  0  0  0  0
  141.4410   78.0230  222.8300 C   0  0  0  0  0  0  0  0  0  0  0  0
  135.6030   75.8300  223.9850 C   0  0  0  0  0  0  0  0  0  0  0  0
  134.6800   76.6790  224.5730 C   0  0  0  0  0  0  0  0  0  0  0  0
  133.6960   76.1510  225.3820 C   0  0  0  0  0  0  0  0  0  0  0  0
  133.6080   74.7940  225.6190 C   0  0  0  0  0  0  0  0  0  0  0  0
  132.6130   74.2920  226.4330 C   0  0  0  0  0  0  0  0  0  0  0  0
  132.5770   72.9240  226.6320 C   0  0  0  0  0  0  0  0  0  0  0  0
  131.3150   72.2850  227.6660 Cl  0  0  0  0  0  0  0  0  0  0  0  0
  133.5150   72.0990  226.0290 C   0  0  0  0  0  0  0  0  0  0  0  0
  134.5130   72.5940  225.2150 C   0  0  0  0  0  0  0  0  0  0  0  0
  134.5530   73.9590  225.0120 C   0  0  0  0  0  0  0  0  0  0  0  0
  135.5070   74.5070  224.2230 N   0  0  0  0  0  0  0  0  0  0  0  0
  137.8170   74.6330  223.0170 H   0  0  0  0  0  0  0  0  0  0  0  0
  138.3203   76.4017  220.8559 H   0  0  0  0  0  0  0  0  0  0  0  0
  139.0309   77.2166  222.2990 H   0  0  0  0  0  0  0  0  0  0  0  0
  142.8986   75.0857  221.6819 H   0  0  0  0  0  0  0  0  0  0  0  0
  141.7719   73.9309  220.8240 H   0  0  0  0  0  0  0  0  0  0  0  0
  143.8549   74.5369  219.5787 H   0  0  0  0  0  0  0  0  0  0  0  0
  142.2960   74.8322  218.7268 H   0  0  0  0  0  0  0  0  0  0  0  0
  143.8794   76.9300  220.2639 H   0  0  0  0  0  0  0  0  0  0  0  0
  143.9125   76.7305  218.4966 H   0  0  0  0  0  0  0  0  0  0  0  0
  142.2480   78.4218  219.1897 H   0  0  0  0  0  0  0  0  0  0  0  0
  141.4614   76.9559  218.4298 H   0  0  0  0  0  0  0  0  0  0  0  0
  140.0563   77.3150  220.2009 H   0  0  0  0  0  0  0  0  0  0  0  0
  141.8530   79.7318  219.9750 H   0  0  0  0  0  0  0  0  0  0  0  0
  142.4460   81.5157  221.5736 H   0  0  0  0  0  0  0  0  0  0  0  0
  141.7090   81.7400  224.7310 H   0  0  0  0  0  0  0  0  0  0  0  0
  141.7407   78.7969  224.8122 H   0  0  0  0  0  0  0  0  0  0  0  0
  141.1559   77.0292  223.2055 H   0  0  0  0  0  0  0  0  0  0  0  0
  134.7314   77.7635  224.3964 H   0  0  0  0  0  0  0  0  0  0  0  0
  132.9644   76.8267  225.8492 H   0  0  0  0  0  0  0  0  0  0  0  0
  131.8750   74.9562  226.9065 H   0  0  0  0  0  0  0  0  0  0  0  0
  133.4614   71.0146  226.2056 H   0  0  0  0  0  0  0  0  0  0  0  0
  135.2496   71.9257  224.7451 H   0  0  0  0  0  0  0  0  0  0  0  0
  1  2  2  0
  2  3  1  0
  3  4  1  0
  4  5  1  0
  5  6  2  0
  5  7  1  0
  7  8  1  0
  8  9  1  0
  9 10  1  0
 10 11  1  0
 11 12  1  0
 12 13  1  0
 13 14  2  0
 14 15  1  0
 15 16  2  0
 16 17  1  0
 16 18  1  0
 18 19  2  0
  2 20  1  0
 20 21  2  0
 21 22  1  0
 22 23  2  0
 23 24  1  0
 24 25  2  0
 25 26  1  0
 25 27  1  0
 27 28  2  0
 28 29  1  0
 29 30  2  0
 12  7  1  0
 19 13  1  0
 30 20  1  0
 29 23  1  0
  3 31  1  0
  4 32  1  0
  4 33  1  0
  8 34  1  0
  8 35  1  0
  9 36  1  0
  9 37  1  0
 10 38  1  0
 10 39  1  0
 11 40  1  0
 11 41  1  0
 12 42  1  6
 14 43  1  0
 15 44  1  0
 17 45  1  0
 18 46  1  0
 19 47  1  0
 21 48  1  0
 22 49  1  0
 24 50  1  0
 27 51  1  0
 28 52  1  0
M  END
>  <smiles>  (12) 
O=C(NCC(=O)N1CCCCC1c1ccc(O)cc1)c1ccc2cc(Cl)ccc2n1

>  <score_type>  (12) 
oracle

>  <origin>  (12) 
autodockgpu

>  <m_score__min__energy>  (12) 
-9.0500000000000007

>  <m_primary>  (12) 
energy

>  <meeko>  (12) 
{"free_energy": -7.87, "intermolecular_energy": -9.66, "internal_energy": -1.84, "cluster_size": 4, "cluster_id": 4, "rank_in_cluster": 3}

>  <energy>  (12) 
-8.11

>  <cluster_rmsd>  (12) 
1.08

>  <rmsd>  (12) 
270.44

>  <cluster>  (12) 
3

$$$$

     RDKit          3D

 52 55  0  0  1  0  0  0  0  0999 V2000
  140.6510   72.5350  220.8470 O   0  0  0  0  0  0  0  0  0  0  0  0
  140.2470   72.9130  221.9860 C   0  0  0  0  0  0  0  0  0  0  0  0
  139.8710   74.2610  222.1530 N   0  0  0  0  0  0  0  0  0  0  0  0
  139.9660   75.1490  221.0100 C   0  0  0  0  0  0  0  0  0  0  0  0
  141.4050   75.4810  220.7210 C   0  0  0  0  0  0  0  0  0  0  0  0
  142.3500   74.7570  221.1310 O   0  0  0  0  0  0  0  0  0  0  0  0
  141.6900   76.6520  219.9610 N   0  0  0  0  0  0  0  0  0  0  0  0
  142.7630   76.5460  218.9870 C   0  0  0  0  0  0  0  0  0  0  0  0
  142.5630   77.4080  217.7820 C   0  0  0  0  0  0  0  0  0  0  0  0
  142.2420   78.8070  218.1970 C   0  0  0  0  0  0  0  0  0  0  0  0
  140.9350   78.7590  218.9440 C   0  0  0  0  0  0  0  0  0  0  0  0
  140.9580   77.8600  220.1500 C   0  0  2  0  0  0  0  0  0  0  0  0
  141.3760   78.6810  221.2960 C   0  0  0  0  0  0  0  0  0  0  0  0
  141.3810   78.2010  222.5820 C   0  0  0  0  0  0  0  0  0  0  0  0
  141.7750   78.9670  223.6740 C   0  0  0  0  0  0  0  0  0  0  0  0
  142.1830   80.2680  223.4840 C   0  0  0  0  0  0  0  0  0  0  0  0
  142.5920   81.0910  224.5360 O   0  0  0  0  0  0  0  0  0  0  0  0
  142.1900   80.7800  222.2030 C   0  0  0  0  0  0  0  0  0  0  0  0
  141.7950   80.0030  221.1320 C   0  0  0  0  0  0  0  0  0  0  0  0
  140.1760   71.9640  223.0990 C   0  0  0  0  0  0  0  0  0  0  0  0
  139.5960   70.7240  222.8860 C   0  0  0  0  0  0  0  0  0  0  0  0
  139.5250   69.8250  223.9300 C   0  0  0  0  0  0  0  0  0  0  0  0
  140.0190   70.1320  225.1820 C   0  0  0  0  0  0  0  0  0  0  0  0
  139.9350   69.2130  226.2080 C   0  0  0  0  0  0  0  0  0  0  0  0
  140.4470   69.5780  227.4390 C   0  0  0  0  0  0  0  0  0  0  0  0
  140.3410   68.4130  228.7430 Cl  0  0  0  0  0  0  0  0  0  0  0  0
  141.0220   70.8270  227.6210 C   0  0  0  0  0  0  0  0  0  0  0  0
  141.1090   71.7510  226.5990 C   0  0  0  0  0  0  0  0  0  0  0  0
  140.5990   71.3920  225.3670 C   0  0  0  0  0  0  0  0  0  0  0  0
  140.6540   72.2530  224.3250 N   0  0  0  0  0  0  0  0  0  0  0  0
  139.5380   74.5850  223.0860 H   0  0  0  0  0  0  0  0  0  0  0  0
  139.5241   74.6568  220.1311 H   0  0  0  0  0  0  0  0  0  0  0  0
  139.4238   76.0792  221.2351 H   0  0  0  0  0  0  0  0  0  0  0  0
  143.7047   76.8406  219.4732 H   0  0  0  0  0  0  0  0  0  0  0  0
  142.7814   75.5028  218.6386 H   0  0  0  0  0  0  0  0  0  0  0  0
  143.4833   77.4097  217.1794 H   0  0  0  0  0  0  0  0  0  0  0  0
  141.7271   77.0083  217.1890 H   0  0  0  0  0  0  0  0  0  0  0  0
  143.0358   79.1982  218.8504 H   0  0  0  0  0  0  0  0  0  0  0  0
  142.1679   79.4679  217.3208 H   0  0  0  0  0  0  0  0  0  0  0  0
  140.6874   79.7782  219.2757 H   0  0  0  0  0  0  0  0  0  0  0  0
  140.1852   78.3479  218.2520 H   0  0  0  0  0  0  0  0  0  0  0  0
  139.9514   77.4636  220.3492 H   0  0  0  0  0  0  0  0  0  0  0  0
  141.0589   77.1638  222.7568 H   0  0  0  0  0  0  0  0  0  0  0  0
  141.7606   78.5350  224.6855 H   0  0  0  0  0  0  0  0  0  0  0  0
  143.4870   80.9200  224.9880 H   0  0  0  0  0  0  0  0  0  0  0  0
  142.5135   81.8175  222.0330 H   0  0  0  0  0  0  0  0  0  0  0  0
  141.8108   80.4375  220.1216 H   0  0  0  0  0  0  0  0  0  0  0  0
  139.1967   70.4593  221.8958 H   0  0  0  0  0  0  0  0  0  0  0  0
  139.0640   68.8407  223.7609 H   0  0  0  0  0  0  0  0  0  0  0  0
  139.4769   68.2252  226.0518 H   0  0  0  0  0  0  0  0  0  0  0  0
  141.4216   71.0898  228.6116 H   0  0  0  0  0  0  0  0  0  0  0  0
  141.5680   72.7376  226.7602 H   0  0  0  0  0  0  0  0  0  0  0  0
  1  2  2  0
  2  3  1  0
  3  4  1  0
  4  5  1  0
  5  6  2  0
  5  7  1  0
  7  8  1  0
  8  9  1  0
  9 10  1  0
 10 11  1  0
 11 12  1  0
 12 13  1  0
 13 14  2  0
 14 15  1  0
 15 16  2  0
 16 17  1  0
 16 18  1  0
 18 19  2  0
  2 20  1  0
 20 21  2  0
 21 22  1  0
 22 23  2  0
 23 24  1  0
 24 25  2  0
 25 26  1  0
 25 27  1  0
 27 28  2  0
 28 29  1  0
 29 30  2  0
 12  7  1  0
 19 13  1  0
 30 20  1  0
 29 23  1  0
  3 31  1  0
  4 32  1  0
  4 33  1  0
  8 34  1  0
  8 35  1  0
  9 36  1  0
  9 37  1  0
 10 38  1  0
 10 39  1  0
 11 40  1  0
 11 41  1  0
 12 42  1  1
 14 43  1  0
 15 44  1  0
 17 45  1  0
 18 46  1  0
 19 47  1  0
 21 48  1  0
 22 49  1  0
 24 50  1  0
 27 51  1  0
 28 52  1  0
M  END
>  <smiles>  (13) 
O=C(NCC(=O)N1CCCCC1c1ccc(O)cc1)c1ccc2cc(Cl)ccc2n1

>  <score_type>  (13) 
oracle

>  <origin>  (13) 
autodockgpu

>  <m_score__min__energy>  (13) 
-9.0500000000000007

>  <m_primary>  (13) 
energy

>  <meeko>  (13) 
{"free_energy": -8.53, "intermolecular_energy": -10.32, "internal_energy": -1.29, "cluster_size": 4, "cluster_id": 1, "rank_in_cluster": 4}

>  <energy>  (13) 
-8.1

>  <cluster_rmsd>  (13) 
1.62

>  <rmsd>  (13) 
270.52

>  <cluster>  (13) 
3

$$$$

     RDKit          3D

 52 55  0  0  1  0  0  0  0  0999 V2000
  140.5450   72.3710  221.1780 O   0  0  0  0  0  0  0  0  0  0  0  0
  139.8260   72.5280  222.2090 C   0  0  0  0  0  0  0  0  0  0  0  0
  138.9410   73.6240  222.2490 N   0  0  0  0  0  0  0  0  0  0  0  0
  138.8990   74.5190  221.1080 C   0  0  0  0  0  0  0  0  0  0  0  0
  139.5110   75.8470  221.4600 C   0  0  0  0  0  0  0  0  0  0  0  0
  138.9360   76.6630  222.2270 O   0  0  0  0  0  0  0  0  0  0  0  0
  140.7800   76.1760  220.9010 N   0  0  0  0  0  0  0  0  0  0  0  0
  141.7570   75.1020  220.8360 C   0  0  0  0  0  0  0  0  0  0  0  0
  142.6880   75.2100  219.6710 C   0  0  0  0  0  0  0  0  0  0  0  0
  143.2740   76.5830  219.6080 C   0  0  0  0  0  0  0  0  0  0  0  0
  142.1360   77.5410  219.3710 C   0  0  0  0  0  0  0  0  0  0  0  0
  141.0700   77.4890  220.4310 C   0  0  2  0  0  0  0  0  0  0  0  0
  141.4390   78.4650  221.4670 C   0  0  0  0  0  0  0  0  0  0  0  0
  141.4150   78.1620  222.8050 C   0  0  0  0  0  0  0  0  0  0  0  0
  141.7620   79.0750  223.7950 C   0  0  0  0  0  0  0  0  0  0  0  0
  142.1520   80.3470  223.4430 C   0  0  0  0  0  0  0  0  0  0  0  0
  142.5140   81.3120  224.3860 O   0  0  0  0  0  0  0  0  0  0  0  0
  142.1880   80.6840  222.1060 C   0  0  0  0  0  0  0  0  0  0  0  0
  141.8390   79.7620  221.1390 C   0  0  0  0  0  0  0  0  0  0  0  0
  139.9180   71.5870  223.3260 C   0  0  0  0  0  0  0  0  0  0  0  0
  139.4870   70.2840  223.1440 C   0  0  0  0  0  0  0  0  0  0  0  0
  139.5700   69.3910  224.1930 C   0  0  0  0  0  0  0  0  0  0  0  0
  140.0740   69.7680  225.4210 C   0  0  0  0  0  0  0  0  0  0  0  0
  140.1460   68.8550  226.4530 C   0  0  0  0  0  0  0  0  0  0  0  0
  140.6610   69.2910  227.6600 C   0  0  0  0  0  0  0  0  0  0  0  0
  140.7530   68.1330  228.9720 Cl  0  0  0  0  0  0  0  0  0  0  0  0
  141.0850   70.6020  227.8130 C   0  0  0  0  0  0  0  0  0  0  0  0
  141.0150   71.5210  226.7850 C   0  0  0  0  0  0  0  0  0  0  0  0
  140.5030   71.0910  225.5770 C   0  0  0  0  0  0  0  0  0  0  0  0
  140.4080   71.9430  224.5300 N   0  0  0  0  0  0  0  0  0  0  0  0
  138.3440   73.7640  223.0920 H   0  0  0  0  0  0  0  0  0  0  0  0
  139.4603   74.0707  220.2750 H   0  0  0  0  0  0  0  0  0  0  0  0
  137.8501   74.6758  220.8162 H   0  0  0  0  0  0  0  0  0  0  0  0
  142.3532   75.1177  221.7603 H   0  0  0  0  0  0  0  0  0  0  0  0
  141.1969   74.1630  220.7156 H   0  0  0  0  0  0  0  0  0  0  0  0
  143.4975   74.4736  219.7826 H   0  0  0  0  0  0  0  0  0  0  0  0
  142.1292   75.0140  218.7440 H   0  0  0  0  0  0  0  0  0  0  0  0
  143.7770   76.8222  220.5565 H   0  0  0  0  0  0  0  0  0  0  0  0
  144.0190   76.6536  218.8018 H   0  0  0  0  0  0  0  0  0  0  0  0
  142.5432   78.5623  219.3380 H   0  0  0  0  0  0  0  0  0  0  0  0
  141.6611   77.2472  218.4233 H   0  0  0  0  0  0  0  0  0  0  0  0
  140.0969   77.7766  220.0064 H   0  0  0  0  0  0  0  0  0  0  0  0
  141.1072   77.1505  223.1085 H   0  0  0  0  0  0  0  0  0  0  0  0
  141.7249   78.7818  224.8546 H   0  0  0  0  0  0  0  0  0  0  0  0
  143.3850   81.8240  224.2700 H   0  0  0  0  0  0  0  0  0  0  0  0
  142.4975   81.6964  221.8073 H   0  0  0  0  0  0  0  0  0  0  0  0
  141.8772   80.0577  220.0802 H   0  0  0  0  0  0  0  0  0  0  0  0
  139.0823   69.9635  222.1726 H   0  0  0  0  0  0  0  0  0  0  0  0
  139.2269   68.3561  224.0470 H   0  0  0  0  0  0  0  0  0  0  0  0
  139.8059   67.8174  226.3203 H   0  0  0  0  0  0  0  0  0  0  0  0
  141.4903   70.9203  228.7848 H   0  0  0  0  0  0  0  0  0  0  0  0
  141.3548   72.5580  226.9234 H   0  0  0  0  0  0  0  0  0  0  0  0
  1  2  2  0
  2  3  1  0
  3  4  1  0
  4  5  1  0
  5  6  2  0
  5  7  1  0
  7  8  1  0
  8  9  1  0
  9 10  1  0
 10 11  1  0
 11 12  1  0
 12 13  1  0
 13 14  2  0
 14 15  1  0
 15 16  2  0
 16 17  1  0
 16 18  1  0
 18 19  2  0
  2 20  1  0
 20 21  2  0
 21 22  1  0
 22 23  2  0
 23 24  1  0
 24 25  2  0
 25 26  1  0
 25 27  1  0
 27 28  2  0
 28 29  1  0
 29 30  2  0
 12  7  1  0
 19 13  1  0
 30 20  1  0
 29 23  1  0
  3 31  1  0
  4 32  1  0
  4 33  1  0
  8 34  1  0
  8 35  1  0
  9 36  1  0
  9 37  1  0
 10 38  1  0
 10 39  1  0
 11 40  1  0
 11 41  1  0
 12 42  1  6
 14 43  1  0
 15 44  1  0
 17 45  1  0
 18 46  1  0
 19 47  1  0
 21 48  1  0
 22 49  1  0
 24 50  1  0
 27 51  1  0
 28 52  1  0
M  END
>  <smiles>  (14) 
O=C(NCC(=O)N1CCCCC1c1ccc(O)cc1)c1ccc2cc(Cl)ccc2n1

>  <score_type>  (14) 
oracle

>  <origin>  (14) 
autodockgpu

>  <m_score__min__energy>  (14) 
-9.0500000000000007

>  <m_primary>  (14) 
energy

>  <meeko>  (14) 
{"free_energy": -9.05, "intermolecular_energy": -10.84, "internal_energy": -1.42, "cluster_size": 4, "cluster_id": 1, "rank_in_cluster": 1}

>  <energy>  (14) 
-7.88

>  <cluster_rmsd>  (14) 
1.65

>  <rmsd>  (14) 
270.48

>  <cluster>  (14) 
3

$$$$

     RDKit          3D

 52 55  0  0  1  0  0  0  0  0999 V2000
  140.3260   77.9870  218.4300 O   0  0  0  0  0  0  0  0  0  0  0  0
  141.5600   77.8520  218.6820 C   0  0  0  0  0  0  0  0  0  0  0  0
  142.3100   79.0030  218.9990 N   0  0  0  0  0  0  0  0  0  0  0  0
  141.6310   80.2840  219.0200 C   0  0  0  0  0  0  0  0  0  0  0  0
  140.5990   80.3130  220.1140 C   0  0  0  0  0  0  0  0  0  0  0  0
  139.3830   80.5330  219.8760 O   0  0  0  0  0  0  0  0  0  0  0  0
  141.0280   80.0850  221.4540 N   0  0  0  0  0  0  0  0  0  0  0  0
  142.3960   80.4580  221.7680 C   0  0  0  0  0  0  0  0  0  0  0  0
  142.5830   80.9120  223.1800 C   0  0  0  0  0  0  0  0  0  0  0  0
  141.9810   79.9210  224.1230 C   0  0  0  0  0  0  0  0  0  0  0  0
  140.5010   79.8900  223.8470 C   0  0  0  0  0  0  0  0  0  0  0  0
  140.1550   79.5220  222.4290 C   0  0  2  0  0  0  0  0  0  0  0  0
  140.0130   78.0590  222.3820 C   0  0  0  0  0  0  0  0  0  0  0  0
  141.0460   77.2310  222.0200 C   0  0  0  0  0  0  0  0  0  0  0  0
  140.9250   75.8460  221.9720 C   0  0  0  0  0  0  0  0  0  0  0  0
  139.7270   75.2540  222.2980 C   0  0  0  0  0  0  0  0  0  0  0  0
  139.5380   73.8700  222.2720 O   0  0  0  0  0  0  0  0  0  0  0  0
  138.6690   76.0580  222.6680 C   0  0  0  0  0  0  0  0  0  0  0  0
  138.8090   77.4310  222.7090 C   0  0  0  0  0  0  0  0  0  0  0  0
  142.1840   76.5290  218.6430 C   0  0  0  0  0  0  0  0  0  0  0  0
  141.8050   75.6370  217.6530 C   0  0  0  0  0  0  0  0  0  0  0  0
  142.3890   74.3880  217.6100 C   0  0  0  0  0  0  0  0  0  0  0  0
  143.3430   74.0060  218.5320 C   0  0  0  0  0  0  0  0  0  0  0  0
  143.9100   72.7500  218.4650 C   0  0  0  0  0  0  0  0  0  0  0  0
  144.8600   72.4250  219.4160 C   0  0  0  0  0  0  0  0  0  0  0  0
  145.5820   70.8300  219.3340 Cl  0  0  0  0  0  0  0  0  0  0  0  0
  145.2190   73.3390  220.3950 C   0  0  0  0  0  0  0  0  0  0  0  0
  144.6550   74.5960  220.4680 C   0  0  0  0  0  0  0  0  0  0  0  0
  143.7060   74.9270  219.5210 C   0  0  0  0  0  0  0  0  0  0  0  0
  143.1160   76.1440  219.5370 N   0  0  0  0  0  0  0  0  0  0  0  0
  143.3260   78.9050  219.2070 H   0  0  0  0  0  0  0  0  0  0  0  0
  142.3677   81.0818  219.1955 H   0  0  0  0  0  0  0  0  0  0  0  0
  141.1300   80.4380  218.0529 H   0  0  0  0  0  0  0  0  0  0  0  0
  143.0430   79.5854  221.5946 H   0  0  0  0  0  0  0  0  0  0  0  0
  142.6562   81.3070  221.1188 H   0  0  0  0  0  0  0  0  0  0  0  0
  143.6581   81.0087  223.3916 H   0  0  0  0  0  0  0  0  0  0  0  0
  142.0858   81.8840  223.3141 H   0  0  0  0  0  0  0  0  0  0  0  0
  142.4174   78.9256  223.9536 H   0  0  0  0  0  0  0  0  0  0  0  0
  142.1788   80.2041  225.1674 H   0  0  0  0  0  0  0  0  0  0  0  0
  140.0382   79.1527  224.5194 H   0  0  0  0  0  0  0  0  0  0  0  0
  140.1224   80.9090  224.0150 H   0  0  0  0  0  0  0  0  0  0  0  0
  139.1969   79.9781  222.1392 H   0  0  0  0  0  0  0  0  0  0  0  0
  142.0134   77.6830  221.7559 H   0  0  0  0  0  0  0  0  0  0  0  0
  141.7840   75.2267  221.6745 H   0  0  0  0  0  0  0  0  0  0  0  0
  138.8110   73.4530  222.8480 H   0  0  0  0  0  0  0  0  0  0  0  0
  137.7043   75.6008  222.9330 H   0  0  0  0  0  0  0  0  0  0  0  0
  137.9483   78.0475  223.0075 H   0  0  0  0  0  0  0  0  0  0  0  0
  141.0464   75.9217  216.9091 H   0  0  0  0  0  0  0  0  0  0  0  0
  142.0878   73.6805  216.8234 H   0  0  0  0  0  0  0  0  0  0  0  0
  143.6171   72.0333  217.6836 H   0  0  0  0  0  0  0  0  0  0  0  0
  145.9782   73.0525  221.1377 H   0  0  0  0  0  0  0  0  0  0  0  0
  144.9505   75.3087  221.2521 H   0  0  0  0  0  0  0  0  0  0  0  0
  1  2  2  0
  2  3  1  0
  3  4  1  0
  4  5  1  0
  5  6  2  0
  5  7  1  0
  7  8  1  0
  8  9  1  0
  9 10  1  0
 10 11  1  0
 11 12  1  0
 12 13  1  0
 13 14  2  0
 14 15  1  0
 15 16  2  0
 16 17  1  0
 16 18  1  0
 18 19  2  0
  2 20  1  0
 20 21  2  0
 21 22  1  0
 22 23  2  0
 23 24  1  0
 24 25  2  0
 25 26  1  0
 25 27  1  0
 27 28  2  0
 28 29  1  0
 29 30  2  0
 12  7  1  0
 19 13  1  0
 30 20  1  0
 29 23  1  0
  3 31  1  0
  4 32  1  0
  4 33  1  0
  8 34  1  0
  8 35  1  0
  9 36  1  0
  9 37  1  0
 10 38  1  0
 10 39  1  0
 11 40  1  0
 11 41  1  0
 12 42  1  6
 14 43  1  0
 15 44  1  0
 17 45  1  0
 18 46  1  0
 19 47  1  0
 21 48  1  0
 22 49  1  0
 24 50  1  0
 27 51  1  0
 28 52  1  0
M  END
>  <smiles>  (15) 
O=C(NCC(=O)N1CCCCC1c1ccc(O)cc1)c1ccc2cc(Cl)ccc2n1

>  <score_type>  (15) 
oracle

>  <origin>  (15) 
autodockgpu

>  <m_score__min__energy>  (15) 
-9.0500000000000007

>  <m_primary>  (15) 
energy

>  <meeko>  (15) 
{"free_energy": -7.22, "intermolecular_energy": -9.01, "internal_energy": -2.35, "cluster_size": 1, "cluster_id": 6, "rank_in_cluster": 1}

>  <energy>  (15) 
-7.89

>  <cluster_rmsd>  (15) 
0.0

>  <rmsd>  (15) 
271.07

>  <cluster>  (15) 
4

$$$$

     RDKit          3D

 52 55  0  0  1  0  0  0  0  0999 V2000
  139.1620   71.7470  221.0070 O   0  0  0  0  0  0  0  0  0  0  0  0
  139.3620   72.2200  222.1650 C   0  0  0  0  0  0  0  0  0  0  0  0
  139.3520   73.6200  222.3300 N   0  0  0  0  0  0  0  0  0  0  0  0
  139.1130   74.4490  221.1640 C   0  0  0  0  0  0  0  0  0  0  0  0
  139.6310   75.8420  221.3970 C   0  0  0  0  0  0  0  0  0  0  0  0
  139.0060   76.6750  222.1040 O   0  0  0  0  0  0  0  0  0  0  0  0
  140.8670   76.2150  220.7920 N   0  0  0  0  0  0  0  0  0  0  0  0
  141.8730   75.1720  220.6800 C   0  0  0  0  0  0  0  0  0  0  0  0
  142.7540   75.3190  219.4810 C   0  0  0  0  0  0  0  0  0  0  0  0
  143.2950   76.7090  219.4080 C   0  0  0  0  0  0  0  0  0  0  0  0
  142.1200   77.6330  219.2240 C   0  0  0  0  0  0  0  0  0  0  0  0
  141.0970   77.5400  220.3230 C   0  0  2  0  0  0  0  0  0  0  0  0
  141.4770   78.5190  221.3530 C   0  0  0  0  0  0  0  0  0  0  0  0
  141.8580   79.8010  221.0440 C   0  0  0  0  0  0  0  0  0  0  0  0
  142.2190   80.7370  222.0080 C   0  0  0  0  0  0  0  0  0  0  0  0
  142.2000   80.3870  223.3390 C   0  0  0  0  0  0  0  0  0  0  0  0
  142.5490   81.2770  224.3570 O   0  0  0  0  0  0  0  0  0  0  0  0
  141.8200   79.1060  223.6830 C   0  0  0  0  0  0  0  0  0  0  0  0
  141.4660   78.1920  222.7110 C   0  0  0  0  0  0  0  0  0  0  0  0
  139.5970   71.3260  223.3000 C   0  0  0  0  0  0  0  0  0  0  0  0
  139.2790   69.9830  223.1730 C   0  0  0  0  0  0  0  0  0  0  0  0
  139.4980   69.1340  224.2390 C   0  0  0  0  0  0  0  0  0  0  0  0
  140.0270   69.5920  225.4290 C   0  0  0  0  0  0  0  0  0  0  0  0
  140.2350   68.7210  226.4780 C   0  0  0  0  0  0  0  0  0  0  0  0
  140.7670   69.2380  227.6450 C   0  0  0  0  0  0  0  0  0  0  0  0
  141.0320   68.1340  228.9790 Cl  0  0  0  0  0  0  0  0  0  0  0  0
  141.0760   70.5870  227.7410 C   0  0  0  0  0  0  0  0  0  0  0  0
  140.8700   71.4640  226.6960 C   0  0  0  0  0  0  0  0  0  0  0  0
  140.3380   70.9530  225.5280 C   0  0  0  0  0  0  0  0  0  0  0  0
  140.1120   71.7610  224.4660 N   0  0  0  0  0  0  0  0  0  0  0  0
  139.5160   74.0210  223.2770 H   0  0  0  0  0  0  0  0  0  0  0  0
  139.6278   74.0111  220.2961 H   0  0  0  0  0  0  0  0  0  0  0  0
  138.0303   74.4973  220.9759 H   0  0  0  0  0  0  0  0  0  0  0  0
  142.5038   75.1985  221.5808 H   0  0  0  0  0  0  0  0  0  0  0  0
  141.3380   74.2168  220.5731 H   0  0  0  0  0  0  0  0  0  0  0  0
  143.5893   74.6070  219.5540 H   0  0  0  0  0  0  0  0  0  0  0  0
  142.1652   75.1142  218.5747 H   0  0  0  0  0  0  0  0  0  0  0  0
  143.8271   76.9561  220.3385 H   0  0  0  0  0  0  0  0  0  0  0  0
  144.0057   76.8090  218.5744 H   0  0  0  0  0  0  0  0  0  0  0  0
  142.4943   78.6666  219.1851 H   0  0  0  0  0  0  0  0  0  0  0  0
  141.6182   77.3318  218.2926 H   0  0  0  0  0  0  0  0  0  0  0  0
  140.0996   77.8005  219.9392 H   0  0  0  0  0  0  0  0  0  0  0  0
  141.8789   80.1020  219.9862 H   0  0  0  0  0  0  0  0  0  0  0  0
  142.5182   81.7521  221.7078 H   0  0  0  0  0  0  0  0  0  0  0  0
  141.8360   81.8770  224.7650 H   0  0  0  0  0  0  0  0  0  0  0  0
  141.7989   78.8101  224.7423 H   0  0  0  0  0  0  0  0  0  0  0  0
  141.1669   77.1778  223.0143 H   0  0  0  0  0  0  0  0  0  0  0  0
  138.8568   69.5980  222.2331 H   0  0  0  0  0  0  0  0  0  0  0  0
  139.2453   68.0682  224.1380 H   0  0  0  0  0  0  0  0  0  0  0  0
  139.9865   67.6531  226.3894 H   0  0  0  0  0  0  0  0  0  0  0  0
  141.4992   70.9701  228.6813 H   0  0  0  0  0  0  0  0  0  0  0  0
  141.1202   72.5311  226.7895 H   0  0  0  0  0  0  0  0  0  0  0  0
  1  2  2  0
  2  3  1  0
  3  4  1  0
  4  5  1  0
  5  6  2  0
  5  7  1  0
  7  8  1  0
  8  9  1  0
  9 10  1  0
 10 11  1  0
 11 12  1  0
 12 13  1  0
 13 14  2  0
 14 15  1  0
 15 16  2  0
 16 17  1  0
 16 18  1  0
 18 19  2  0
  2 20  1  0
 20 21  2  0
 21 22  1  0
 22 23  2  0
 23 24  1  0
 24 25  2  0
 25 26  1  0
 25 27  1  0
 27 28  2  0
 28 29  1  0
 29 30  2  0
 12  7  1  0
 19 13  1  0
 30 20  1  0
 29 23  1  0
  3 31  1  0
  4 32  1  0
  4 33  1  0
  8 34  1  0
  8 35  1  0
  9 36  1  0
  9 37  1  0
 10 38  1  0
 10 39  1  0
 11 40  1  0
 11 41  1  0
 12 42  1  6
 14 43  1  0
 15 44  1  0
 17 45  1  0
 18 46  1  0
 19 47  1  0
 21 48  1  0
 22 49  1  0
 24 50  1  0
 27 51  1  0
 28 52  1  0
M  END
>  <smiles>  (16) 
O=C(NCC(=O)N1CCCCC1c1ccc(O)cc1)c1ccc2cc(Cl)ccc2n1

>  <score_type>  (16) 
oracle

>  <origin>  (16) 
autodockgpu

>  <m_score__min__energy>  (16) 
-9.0500000000000007

>  <m_primary>  (16) 
energy

>  <meeko>  (16) 
{"free_energy": -8.82, "intermolecular_energy": -10.61, "internal_energy": -1.49, "cluster_size": 4, "cluster_id": 1, "rank_in_cluster": 3}

>  <energy>  (16) 
-7.89

>  <cluster_rmsd>  (16) 
0.22

>  <rmsd>  (16) 
271.06

>  <cluster>  (16) 
4

$$$$

     RDKit          3D

 52 55  0  0  1  0  0  0  0  0999 V2000
  140.9990   72.3480  221.2680 O   0  0  0  0  0  0  0  0  0  0  0  0
  140.1730   72.5150  222.2130 C   0  0  0  0  0  0  0  0  0  0  0  0
  139.2900   73.6120  222.1470 N   0  0  0  0  0  0  0  0  0  0  0  0
  139.3720   74.4950  221.0000 C   0  0  0  0  0  0  0  0  0  0  0  0
  140.5060   75.4690  221.1680 C   0  0  0  0  0  0  0  0  0  0  0  0
  141.0130   75.7110  222.2940 O   0  0  0  0  0  0  0  0  0  0  0  0
  141.0100   76.1280  220.0090 N   0  0  0  0  0  0  0  0  0  0  0  0
  140.0500   76.4050  218.9540 C   0  0  0  0  0  0  0  0  0  0  0  0
  140.3550   77.6480  218.1810 C   0  0  0  0  0  0  0  0  0  0  0  0
  141.7800   77.6380  217.7320 C   0  0  0  0  0  0  0  0  0  0  0  0
  142.6350   77.6530  218.9710 C   0  0  0  0  0  0  0  0  0  0  0  0
  142.3820   76.4930  219.8960 C   0  0  2  0  0  0  0  0  0  0  0  0
  143.2950   75.4120  219.4960 C   0  0  0  0  0  0  0  0  0  0  0  0
  143.4270   75.0060  218.1920 C   0  0  0  0  0  0  0  0  0  0  0  0
  144.2870   73.9850  217.8000 C   0  0  0  0  0  0  0  0  0  0  0  0
  145.0500   73.3360  218.7430 C   0  0  0  0  0  0  0  0  0  0  0  0
  145.9340   72.3040  218.4180 O   0  0  0  0  0  0  0  0  0  0  0  0
  144.9410   73.7210  220.0630 C   0  0  0  0  0  0  0  0  0  0  0  0
  144.0820   74.7370  220.4320 C   0  0  0  0  0  0  0  0  0  0  0  0
  140.1420   71.5850  223.3440 C   0  0  0  0  0  0  0  0  0  0  0  0
  139.6030   70.3230  223.1590 C   0  0  0  0  0  0  0  0  0  0  0  0
  139.5700   69.4410  224.2200 C   0  0  0  0  0  0  0  0  0  0  0  0
  140.0640   69.7880  225.4610 C   0  0  0  0  0  0  0  0  0  0  0  0
  140.0190   68.8860  226.5050 C   0  0  0  0  0  0  0  0  0  0  0  0
  140.5290   69.2910  227.7250 C   0  0  0  0  0  0  0  0  0  0  0  0
  140.4730   68.1480  229.0510 Cl  0  0  0  0  0  0  0  0  0  0  0  0
  141.0630   70.5620  227.8780 C   0  0  0  0  0  0  0  0  0  0  0  0
  141.1110   71.4690  226.8390 C   0  0  0  0  0  0  0  0  0  0  0  0
  140.6030   71.0700  225.6190 C   0  0  0  0  0  0  0  0  0  0  0  0
  140.6210   71.9120  224.5600 N   0  0  0  0  0  0  0  0  0  0  0  0
  138.6050   73.7600  222.9190 H   0  0  0  0  0  0  0  0  0  0  0  0
  139.5400   73.8961  220.0928 H   0  0  0  0  0  0  0  0  0  0  0  0
  138.4297   75.0559  220.9135 H   0  0  0  0  0  0  0  0  0  0  0  0
  140.0438   75.5542  218.2568 H   0  0  0  0  0  0  0  0  0  0  0  0
  139.0733   76.5559  219.4369 H   0  0  0  0  0  0  0  0  0  0  0  0
  139.6969   77.6997  217.3011 H   0  0  0  0  0  0  0  0  0  0  0  0
  140.1875   78.5229  218.8263 H   0  0  0  0  0  0  0  0  0  0  0  0
  141.9839   76.7310  217.1439 H   0  0  0  0  0  0  0  0  0  0  0  0
  141.9963   78.5095  217.0967 H   0  0  0  0  0  0  0  0  0  0  0  0
  143.6911   77.6284  218.6642 H   0  0  0  0  0  0  0  0  0  0  0  0
  142.3798   78.5678  219.5261 H   0  0  0  0  0  0  0  0  0  0  0  0
  142.6063   76.7770  220.9348 H   0  0  0  0  0  0  0  0  0  0  0  0
  142.8256   75.5107  217.4215 H   0  0  0  0  0  0  0  0  0  0  0  0
  144.3566   73.6979  216.7404 H   0  0  0  0  0  0  0  0  0  0  0  0
  145.5900   71.4900  217.9140 H   0  0  0  0  0  0  0  0  0  0  0  0
  145.5447   73.2133  220.8297 H   0  0  0  0  0  0  0  0  0  0  0  0
  144.0156   75.0227  221.4922 H   0  0  0  0  0  0  0  0  0  0  0  0
  139.2054   70.0267  222.1771 H   0  0  0  0  0  0  0  0  0  0  0  0
  139.1404   68.4391  224.0732 H   0  0  0  0  0  0  0  0  0  0  0  0
  139.5926   67.8808  226.3713 H   0  0  0  0  0  0  0  0  0  0  0  0
  141.4614   70.8567  228.8600 H   0  0  0  0  0  0  0  0  0  0  0  0
  141.5383   72.4730  226.9779 H   0  0  0  0  0  0  0  0  0  0  0  0
  1  2  2  0
  2  3  1  0
  3  4  1  0
  4  5  1  0
  5  6  2  0
  5  7  1  0
  7  8  1  0
  8  9  1  0
  9 10  1  0
 10 11  1  0
 11 12  1  0
 12 13  1  0
 13 14  2  0
 14 15  1  0
 15 16  2  0
 16 17  1  0
 16 18  1  0
 18 19  2  0
  2 20  1  0
 20 21  2  0
 21 22  1  0
 22 23  2  0
 23 24  1  0
 24 25  2  0
 25 26  1  0
 25 27  1  0
 27 28  2  0
 28 29  1  0
 29 30  2  0
 12  7  1  0
 19 13  1  0
 30 20  1  0
 29 23  1  0
  3 31  1  0
  4 32  1  0
  4 33  1  0
  8 34  1  0
  8 35  1  0
  9 36  1  0
  9 37  1  0
 10 38  1  0
 10 39  1  0
 11 40  1  0
 11 41  1  0
 12 42  1  1
 14 43  1  0
 15 44  1  0
 17 45  1  0
 18 46  1  0
 19 47  1  0
 21 48  1  0
 22 49  1  0
 24 50  1  0
 27 51  1  0
 28 52  1  0
M  END
>  <smiles>  (17) 
O=C(NCC(=O)N1CCCCC1c1ccc(O)cc1)c1ccc2cc(Cl)ccc2n1

>  <score_type>  (17) 
oracle

>  <origin>  (17) 
autodockgpu

>  <m_score__min__energy>  (17) 
-9.0500000000000007

>  <m_primary>  (17) 
energy

>  <meeko>  (17) 
{"free_energy": -8.43, "intermolecular_energy": -10.22, "internal_energy": -1.46, "cluster_size": 7, "cluster_id": 3, "rank_in_cluster": 4}

>  <energy>  (17) 
-7.87

>  <cluster_rmsd>  (17) 
0.09

>  <rmsd>  (17) 
271.03

>  <cluster>  (17) 
4

$$$$

     RDKit          3D

 52 55  0  0  1  0  0  0  0  0999 V2000
  139.2090   72.0700  220.8450 O   0  0  0  0  0  0  0  0  0  0  0  0
  139.4120   72.5040  222.0170 C   0  0  0  0  0  0  0  0  0  0  0  0
  139.4100   73.8980  222.2270 N   0  0  0  0  0  0  0  0  0  0  0  0
  139.1780   74.7660  221.0890 C   0  0  0  0  0  0  0  0  0  0  0  0
  138.4930   76.0320  221.5260 C   0  0  0  0  0  0  0  0  0  0  0  0
  137.2400   76.1520  221.5070 O   0  0  0  0  0  0  0  0  0  0  0  0
  139.3000   77.1190  221.9710 N   0  0  0  0  0  0  0  0  0  0  0  0
  138.5960   78.3170  222.3950 C   0  0  0  0  0  0  0  0  0  0  0  0
  139.2980   79.0710  223.4790 C   0  0  0  0  0  0  0  0  0  0  0  0
  140.7270   79.2940  223.1070 C   0  0  0  0  0  0  0  0  0  0  0  0
  141.3750   77.9380  223.0030 C   0  0  0  0  0  0  0  0  0  0  0  0
  140.7220   77.0290  221.9990 C   0  0  2  0  0  0  0  0  0  0  0  0
  141.3950   77.2510  220.7100 C   0  0  0  0  0  0  0  0  0  0  0  0
  142.2620   76.3360  220.1660 C   0  0  0  0  0  0  0  0  0  0  0  0
  142.9050   76.5330  218.9490 C   0  0  0  0  0  0  0  0  0  0  0  0
  142.6780   77.6890  218.2370 C   0  0  0  0  0  0  0  0  0  0  0  0
  143.2890   77.9490  217.0080 O   0  0  0  0  0  0  0  0  0  0  0  0
  141.8110   78.6280  218.7550 C   0  0  0  0  0  0  0  0  0  0  0  0
  141.1830   78.4130  219.9660 C   0  0  0  0  0  0  0  0  0  0  0  0
  139.6410   71.5730  223.1230 C   0  0  0  0  0  0  0  0  0  0  0  0
  139.3330   70.2340  222.9470 C   0  0  0  0  0  0  0  0  0  0  0  0
  139.5450   69.3500  223.9850 C   0  0  0  0  0  0  0  0  0  0  0  0
  140.0600   69.7690  225.1950 C   0  0  0  0  0  0  0  0  0  0  0  0
  140.2630   68.8630  226.2160 C   0  0  0  0  0  0  0  0  0  0  0  0
  140.7810   69.3430  227.4050 C   0  0  0  0  0  0  0  0  0  0  0  0
  141.0390   68.1940  228.7020 Cl  0  0  0  0  0  0  0  0  0  0  0  0
  141.0800   70.6890  227.5510 C   0  0  0  0  0  0  0  0  0  0  0  0
  140.8790   71.6000  226.5340 C   0  0  0  0  0  0  0  0  0  0  0  0
  140.3620   71.1270  225.3450 C   0  0  0  0  0  0  0  0  0  0  0  0
  140.1420   71.9700  224.3090 N   0  0  0  0  0  0  0  0  0  0  0  0
  139.5770   74.2680  223.1870 H   0  0  0  0  0  0  0  0  0  0  0  0
  140.1420   75.0179  220.6228 H   0  0  0  0  0  0  0  0  0  0  0  0
  138.5340   74.2429  220.3668 H   0  0  0  0  0  0  0  0  0  0  0  0
  138.4845   78.9812  221.5253 H   0  0  0  0  0  0  0  0  0  0  0  0
  137.6261   77.9947  222.8018 H   0  0  0  0  0  0  0  0  0  0  0  0
  138.8041   80.0430  223.6246 H   0  0  0  0  0  0  0  0  0  0  0  0
  139.2555   78.4862  224.4097 H   0  0  0  0  0  0  0  0  0  0  0  0
  140.7882   79.8164  222.1409 H   0  0  0  0  0  0  0  0  0  0  0  0
  141.2353   79.9138  223.8603 H   0  0  0  0  0  0  0  0  0  0  0  0
  142.4266   78.0775  222.7121 H   0  0  0  0  0  0  0  0  0  0  0  0
  141.2706   77.4567  223.9866 H   0  0  0  0  0  0  0  0  0  0  0  0
  140.8581   75.9775  222.2921 H   0  0  0  0  0  0  0  0  0  0  0  0
  142.4568   75.4047  220.7180 H   0  0  0  0  0  0  0  0  0  0  0  0
  143.5920   75.7685  218.5570 H   0  0  0  0  0  0  0  0  0  0  0  0
  143.6990   78.8640  216.8360 H   0  0  0  0  0  0  0  0  0  0  0  0
  141.6179   79.5569  218.1984 H   0  0  0  0  0  0  0  0  0  0  0  0
  140.4963   79.1791  220.3554 H   0  0  0  0  0  0  0  0  0  0  0  0
  138.9236   69.8791  221.9897 H   0  0  0  0  0  0  0  0  0  0  0  0
  139.2980   68.2873  223.8450 H   0  0  0  0  0  0  0  0  0  0  0  0
  140.0215   67.7974  226.0887 H   0  0  0  0  0  0  0  0  0  0  0  0
  141.4907   71.0422  228.5084 H   0  0  0  0  0  0  0  0  0  0  0  0
  141.1221   72.6646  226.6663 H   0  0  0  0  0  0  0  0  0  0  0  0
  1  2  2  0
  2  3  1  0
  3  4  1  0
  4  5  1  0
  5  6  2  0
  5  7  1  0
  7  8  1  0
  8  9  1  0
  9 10  1  0
 10 11  1  0
 11 12  1  0
 12 13  1  0
 13 14  2  0
 14 15  1  0
 15 16  2  0
 16 17  1  0
 16 18  1  0
 18 19  2  0
  2 20  1  0
 20 21  2  0
 21 22  1  0
 22 23  2  0
 23 24  1  0
 24 25  2  0
 25 26  1  0
 25 27  1  0
 27 28  2  0
 28 29  1  0
 29 30  2  0
 12  7  1  0
 19 13  1  0
 30 20  1  0
 29 23  1  0
  3 31  1  0
  4 32  1  0
  4 33  1  0
  8 34  1  0
  8 35  1  0
  9 36  1  0
  9 37  1  0
 10 38  1  0
 10 39  1  0
 11 40  1  0
 11 41  1  0
 12 42  1  1
 14 43  1  0
 15 44  1  0
 17 45  1  0
 18 46  1  0
 19 47  1  0
 21 48  1  0
 22 49  1  0
 24 50  1  0
 27 51  1  0
 28 52  1  0
M  END
>  <smiles>  (18) 
O=C(NCC(=O)N1CCCCC1c1ccc(O)cc1)c1ccc2cc(Cl)ccc2n1

>  <score_type>  (18) 
oracle

>  <origin>  (18) 
autodockgpu

>  <m_score__min__energy>  (18) 
-9.0500000000000007

>  <m_primary>  (18) 
energy

>  <meeko>  (18) 
{"free_energy": -8.75, "intermolecular_energy": -10.54, "internal_energy": -1.51, "cluster_size": 3, "cluster_id": 2, "rank_in_cluster": 3}

>  <energy>  (18) 
-7.85

>  <cluster_rmsd>  (18) 
0.16

>  <rmsd>  (18) 
271.04

>  <cluster>  (18) 
4

$$$$

     RDKit          3D

 52 55  0  0  1  0  0  0  0  0999 V2000
  140.6080   72.1370  220.8740 O   0  0  0  0  0  0  0  0  0  0  0  0
  140.0590   72.4740  221.9640 C   0  0  0  0  0  0  0  0  0  0  0  0
  139.4530   73.7440  222.0460 N   0  0  0  0  0  0  0  0  0  0  0  0
  139.4900   74.6030  220.8780 C   0  0  0  0  0  0  0  0  0  0  0  0
  140.6440   75.5630  220.9680 C   0  0  0  0  0  0  0  0  0  0  0  0
  141.0260   76.0420  222.0670 O   0  0  0  0  0  0  0  0  0  0  0  0
  141.3140   75.9310  219.7650 N   0  0  0  0  0  0  0  0  0  0  0  0
  140.4950   76.0120  218.5670 C   0  0  0  0  0  0  0  0  0  0  0  0
  140.9650   77.0420  217.5910 C   0  0  0  0  0  0  0  0  0  0  0  0
  142.4260   76.8730  217.3290 C   0  0  0  0  0  0  0  0  0  0  0  0
  143.1410   77.1220  218.6310 C   0  0  0  0  0  0  0  0  0  0  0  0
  142.7120   76.2050  219.7440 C   0  0  2  0  0  0  0  0  0  0  0  0
  143.5870   75.0250  219.6950 C   0  0  0  0  0  0  0  0  0  0  0  0
  144.7110   74.9100  220.4750 C   0  0  0  0  0  0  0  0  0  0  0  0
  145.5480   73.7990  220.4390 C   0  0  0  0  0  0  0  0  0  0  0  0
  145.2570   72.7540  219.5930 C   0  0  0  0  0  0  0  0  0  0  0  0
  146.0540   71.6090  219.5080 O   0  0  0  0  0  0  0  0  0  0  0  0
  144.1350   72.8370  218.7960 C   0  0  0  0  0  0  0  0  0  0  0  0
  143.3170   73.9490  218.8460 C   0  0  0  0  0  0  0  0  0  0  0  0
  140.0580   71.5590  223.1070 C   0  0  0  0  0  0  0  0  0  0  0  0
  139.5320   70.2880  222.9470 C   0  0  0  0  0  0  0  0  0  0  0  0
  139.5270   69.4200  224.0200 C   0  0  0  0  0  0  0  0  0  0  0  0
  140.0360   69.7890  225.2490 C   0  0  0  0  0  0  0  0  0  0  0  0
  140.0180   68.9010  226.3040 C   0  0  0  0  0  0  0  0  0  0  0  0
  140.5420   69.3290  227.5110 C   0  0  0  0  0  0  0  0  0  0  0  0
  140.5210   68.2020  228.8520 Cl  0  0  0  0  0  0  0  0  0  0  0  0
  141.0620   70.6080  227.6400 C   0  0  0  0  0  0  0  0  0  0  0  0
  141.0820   71.5020  226.5880 C   0  0  0  0  0  0  0  0  0  0  0  0
  140.5610   71.0800  225.3810 C   0  0  0  0  0  0  0  0  0  0  0  0
  140.5510   71.9090  224.3110 N   0  0  0  0  0  0  0  0  0  0  0  0
  138.9980   74.0340  222.9380 H   0  0  0  0  0  0  0  0  0  0  0  0
  139.6037   73.9834  219.9762 H   0  0  0  0  0  0  0  0  0  0  0  0
  138.5527   75.1764  220.8277 H   0  0  0  0  0  0  0  0  0  0  0  0
  140.5070   75.0307  218.0702 H   0  0  0  0  0  0  0  0  0  0  0  0
  139.4842   76.3063  218.8858 H   0  0  0  0  0  0  0  0  0  0  0  0
  140.4108   76.9287  216.6476 H   0  0  0  0  0  0  0  0  0  0  0  0
  140.7883   78.0430  218.0114 H   0  0  0  0  0  0  0  0  0  0  0  0
  142.6303   75.8515  216.9756 H   0  0  0  0  0  0  0  0  0  0  0  0
  142.7685   77.5743  216.5538 H   0  0  0  0  0  0  0  0  0  0  0  0
  144.2200   76.9858  218.4658 H   0  0  0  0  0  0  0  0  0  0  0  0
  142.8892   78.1459  218.9443 H   0  0  0  0  0  0  0  0  0  0  0  0
  142.8414   76.7002  220.7177 H   0  0  0  0  0  0  0  0  0  0  0  0
  144.9613   75.7338  221.1597 H   0  0  0  0  0  0  0  0  0  0  0  0
  146.4381   73.7565  221.0839 H   0  0  0  0  0  0  0  0  0  0  0  0
  146.3170   71.1170  220.3590 H   0  0  0  0  0  0  0  0  0  0  0  0
  143.8889   72.0099  218.1139 H   0  0  0  0  0  0  0  0  0  0  0  0
  142.4281   73.9883  218.1992 H   0  0  0  0  0  0  0  0  0  0  0  0
  139.1227   69.9737  221.9755 H   0  0  0  0  0  0  0  0  0  0  0  0
  139.1078   68.4110  223.8930 H   0  0  0  0  0  0  0  0  0  0  0  0
  139.6021   67.8890  226.1901 H   0  0  0  0  0  0  0  0  0  0  0  0
  141.4718   70.9204  228.6118 H   0  0  0  0  0  0  0  0  0  0  0  0
  141.4978   72.5134  226.7071 H   0  0  0  0  0  0  0  0  0  0  0  0
  1  2  2  0
  2  3  1  0
  3  4  1  0
  4  5  1  0
  5  6  2  0
  5  7  1  0
  7  8  1  0
  8  9  1  0
  9 10  1  0
 10 11  1  0
 11 12  1  0
 12 13  1  0
 13 14  2  0
 14 15  1  0
 15 16  2  0
 16 17  1  0
 16 18  1  0
 18 19  2  0
  2 20  1  0
 20 21  2  0
 21 22  1  0
 22 23  2  0
 23 24  1  0
 24 25  2  0
 25 26  1  0
 25 27  1  0
 27 28  2  0
 28 29  1  0
 29 30  2  0
 12  7  1  0
 19 13  1  0
 30 20  1  0
 29 23  1  0
  3 31  1  0
  4 32  1  0
  4 33  1  0
  8 34  1  0
  8 35  1  0
  9 36  1  0
  9 37  1  0
 10 38  1  0
 10 39  1  0
 11 40  1  0
 11 41  1  0
 12 42  1  1
 14 43  1  0
 15 44  1  0
 17 45  1  0
 18 46  1  0
 19 47  1  0
 21 48  1  0
 22 49  1  0
 24 50  1  0
 27 51  1  0
 28 52  1  0
M  END
>  <smiles>  (19) 
O=C(NCC(=O)N1CCCCC1c1ccc(O)cc1)c1ccc2cc(Cl)ccc2n1

>  <score_type>  (19) 
oracle

>  <origin>  (19) 
autodockgpu

>  <m_score__min__energy>  (19) 
-9.0500000000000007

>  <m_primary>  (19) 
energy

>  <meeko>  (19) 
{"free_energy": -8.76, "intermolecular_energy": -10.55, "internal_energy": -1.59, "cluster_size": 7, "cluster_id": 3, "rank_in_cluster": 2}

>  <energy>  (19) 
-7.34

>  <cluster_rmsd>  (19) 
0.0

>  <rmsd>  (19) 
270.71

>  <cluster>  (19) 
5

$$$$

     RDKit          3D

 52 55  0  0  1  0  0  0  0  0999 V2000
  136.5330   77.5950  222.7260 O   0  0  0  0  0  0  0  0  0  0  0  0
  136.6160   76.3970  223.1270 C   0  0  0  0  0  0  0  0  0  0  0  0
  137.7260   75.6280  222.7220 N   0  0  0  0  0  0  0  0  0  0  0  0
  138.7170   76.2480  221.8630 C   0  0  0  0  0  0  0  0  0  0  0  0
  139.9530   75.3940  221.7850 C   0  0  0  0  0  0  0  0  0  0  0  0
  140.0150   74.2630  222.3350 O   0  0  0  0  0  0  0  0  0  0  0  0
  141.0770   75.8940  221.0660 N   0  0  0  0  0  0  0  0  0  0  0  0
  142.1800   74.9700  220.8650 C   0  0  0  0  0  0  0  0  0  0  0  0
  142.9240   75.1950  219.5880 C   0  0  0  0  0  0  0  0  0  0  0  0
  143.2950   76.6370  219.4580 C   0  0  0  0  0  0  0  0  0  0  0  0
  142.0100   77.4190  219.3800 C   0  0  0  0  0  0  0  0  0  0  0  0
  141.1110   77.2290  220.5700 C   0  0  2  0  0  0  0  0  0  0  0  0
  141.4700   78.2600  221.5550 C   0  0  0  0  0  0  0  0  0  0  0  0
  141.4470   78.0260  222.9070 C   0  0  0  0  0  0  0  0  0  0  0  0
  141.7850   78.9920  223.8490 C   0  0  0  0  0  0  0  0  0  0  0  0
  142.1640   80.2480  223.4330 C   0  0  0  0  0  0  0  0  0  0  0  0
  142.5160   81.2630  224.3250 O   0  0  0  0  0  0  0  0  0  0  0  0
  142.1980   80.5160  222.0800 C   0  0  0  0  0  0  0  0  0  0  0  0
  141.8580   79.5430  221.1610 C   0  0  0  0  0  0  0  0  0  0  0  0
  135.5810   75.8320  223.9940 C   0  0  0  0  0  0  0  0  0  0  0  0
  134.6700   76.6850  224.5950 C   0  0  0  0  0  0  0  0  0  0  0  0
  133.6910   76.1600  225.4130 C   0  0  0  0  0  0  0  0  0  0  0  0
  133.5970   74.8020  225.6450 C   0  0  0  0  0  0  0  0  0  0  0  0
  132.6070   74.3040  226.4680 C   0  0  0  0  0  0  0  0  0  0  0  0
  132.5650   72.9350  226.6620 C   0  0  0  0  0  0  0  0  0  0  0  0
  131.3090   72.3010  227.7070 Cl  0  0  0  0  0  0  0  0  0  0  0  0
  133.4900   72.1070  226.0460 C   0  0  0  0  0  0  0  0  0  0  0  0
  134.4830   72.5980  225.2230 C   0  0  0  0  0  0  0  0  0  0  0  0
  134.5300   73.9640  225.0250 C   0  0  0  0  0  0  0  0  0  0  0  0
  135.4790   74.5090  224.2290 N   0  0  0  0  0  0  0  0  0  0  0  0
  137.8070   74.6410  223.0450 H   0  0  0  0  0  0  0  0  0  0  0  0
  138.2964   76.3696  220.8539 H   0  0  0  0  0  0  0  0  0  0  0  0
  138.9874   77.2288  222.2812 H   0  0  0  0  0  0  0  0  0  0  0  0
  142.8845   75.0820  221.7023 H   0  0  0  0  0  0  0  0  0  0  0  0
  141.7489   73.9593  220.8134 H   0  0  0  0  0  0  0  0  0  0  0  0
  143.8377   74.5825  219.5863 H   0  0  0  0  0  0  0  0  0  0  0  0
  142.2816   74.9104  218.7416 H   0  0  0  0  0  0  0  0  0  0  0  0
  143.8790   76.9569  220.3336 H   0  0  0  0  0  0  0  0  0  0  0  0
  143.9102   76.8040  218.5616 H   0  0  0  0  0  0  0  0  0  0  0  0
  142.2586   78.4876  219.3002 H   0  0  0  0  0  0  0  0  0  0  0  0
  141.4617   77.0476  218.5017 H   0  0  0  0  0  0  0  0  0  0  0  0
  140.0596   77.3698  220.2789 H   0  0  0  0  0  0  0  0  0  0  0  0
  141.1476   77.0289  223.2620 H   0  0  0  0  0  0  0  0  0  0  0  0
  141.7495   78.7530  224.9221 H   0  0  0  0  0  0  0  0  0  0  0  0
  141.8330   81.9770  224.5680 H   0  0  0  0  0  0  0  0  0  0  0  0
  142.4989   81.5145  221.7299 H   0  0  0  0  0  0  0  0  0  0  0  0
  141.8937   79.7849  220.0885 H   0  0  0  0  0  0  0  0  0  0  0  0
  134.7266   77.7698  224.4218 H   0  0  0  0  0  0  0  0  0  0  0  0
  132.9691   76.8384  225.8911 H   0  0  0  0  0  0  0  0  0  0  0  0
  131.8784   74.9712  226.9517 H   0  0  0  0  0  0  0  0  0  0  0  0
  133.4307   71.0223  226.2188 H   0  0  0  0  0  0  0  0  0  0  0  0
  135.2099   71.9265  224.7427 H   0  0  0  0  0  0  0  0  0  0  0  0
  1  2  2  0
  2  3  1  0
  3  4  1  0
  4  5  1  0
  5  6  2  0
  5  7  1  0
  7  8  1  0
  8  9  1  0
  9 10  1  0
 10 11  1  0
 11 12  1  0
 12 13  1  0
 13 14  2  0
 14 15  1  0
 15 16  2  0
 16 17  1  0
 16 18  1  0
 18 19  2  0
  2 20  1  0
 20 21  2  0
 21 22  1  0
 22 23  2  0
 23 24  1  0
 24 25  2  0
 25 26  1  0
 25 27  1  0
 27 28  2  0
 28 29  1  0
 29 30  2  0
 12  7  1  0
 19 13  1  0
 30 20  1  0
 29 23  1  0
  3 31  1  0
  4 32  1  0
  4 33  1  0
  8 34  1  0
  8 35  1  0
  9 36  1  0
  9 37  1  0
 10 38  1  0
 10 39  1  0
 11 40  1  0
 11 41  1  0
 12 42  1  6
 14 43  1  0
 15 44  1  0
 17 45  1  0
 18 46  1  0
 19 47  1  0
 21 48  1  0
 22 49  1  0
 24 50  1  0
 27 51  1  0
 28 52  1  0
M  END
>  <smiles>  (20) 
O=C(NCC(=O)N1CCCCC1c1ccc(O)cc1)c1ccc2cc(Cl)ccc2n1

>  <score_type>  (20) 
oracle

>  <origin>  (20) 
autodockgpu

>  <m_score__min__energy>  (20) 
-9.0500000000000007

>  <m_primary>  (20) 
energy

>  <meeko>  (20) 
{"free_energy": -7.89, "intermolecular_energy": -9.68, "internal_energy": -1.85, "cluster_size": 4, "cluster_id": 4, "rank_in_cluster": 1}

>  <energy>  (20) 
-7.22

>  <cluster_rmsd>  (20) 
0.0

>  <rmsd>  (20) 
270.72

>  <cluster>  (20) 
6

$$$$

     RDKit          3D

 52 55  0  0  1  0  0  0  0  0999 V2000
  138.7940   71.2030  220.5640 O   0  0  0  0  0  0  0  0  0  0  0  0
  138.7620   71.8000  221.6940 C   0  0  0  0  0  0  0  0  0  0  0  0
  138.3770   73.1610  221.7710 N   0  0  0  0  0  0  0  0  0  0  0  0
  138.0170   73.8760  220.5550 C   0  0  0  0  0  0  0  0  0  0  0  0
  139.1520   74.5920  219.9710 C   0  0  0  0  0  0  0  0  0  0  0  0
  139.6290   74.1250  218.8860 O   0  0  0  0  0  0  0  0  0  0  0  0
  139.7740   75.7420  220.4820 N   0  0  0  0  0  0  0  0  0  0  0  0
  138.9740   76.5800  221.3750 C   0  0  0  0  0  0  0  0  0  0  0  0
  139.7100   76.6550  222.6870 C   0  0  0  0  0  0  0  0  0  0  0  0
  141.0770   77.2250  222.4720 C   0  0  0  0  0  0  0  0  0  0  0  0
  141.4130   77.4230  221.0140 C   0  0  0  0  0  0  0  0  0  0  0  0
  141.1170   76.1750  220.1980 C   0  0  1  0  0  0  0  0  0  0  0  0
  142.1680   75.1660  220.3370 C   0  0  0  0  0  0  0  0  0  0  0  0
  141.9910   73.8810  220.7950 C   0  0  0  0  0  0  0  0  0  0  0  0
  143.0220   72.9650  220.9070 C   0  0  0  0  0  0  0  0  0  0  0  0
  144.3070   73.3200  220.5520 C   0  0  0  0  0  0  0  0  0  0  0  0
  145.3650   72.4270  220.6520 O   0  0  0  0  0  0  0  0  0  0  0  0
  144.5170   74.6020  220.0880 C   0  0  0  0  0  0  0  0  0  0  0  0
  143.4810   75.5040  219.9820 C   0  0  0  0  0  0  0  0  0  0  0  0
  139.1260   71.0680  222.9030 C   0  0  0  0  0  0  0  0  0  0  0  0
  138.8280   69.7240  223.0120 C   0  0  0  0  0  0  0  0  0  0  0  0
  139.1380   68.9650  224.1200 C   0  0  0  0  0  0  0  0  0  0  0  0
  139.7780   69.5820  225.1670 C   0  0  0  0  0  0  0  0  0  0  0  0
  140.0890   68.8220  226.2730 C   0  0  0  0  0  0  0  0  0  0  0  0
  140.7320   69.4540  227.3180 C   0  0  0  0  0  0  0  0  0  0  0  0
  141.1260   68.4880  228.7230 Cl  0  0  0  0  0  0  0  0  0  0  0  0
  141.0610   70.8030  227.2710 C   0  0  0  0  0  0  0  0  0  0  0  0
  140.7210   71.5240  226.1210 C   0  0  0  0  0  0  0  0  0  0  0  0
  140.0780   70.9240  225.0580 C   0  0  0  0  0  0  0  0  0  0  0  0
  139.7540   71.6370  223.9480 N   0  0  0  0  0  0  0  0  0  0  0  0
  138.3600   73.6310  222.7210 H   0  0  0  0  0  0  0  0  0  0  0  0
  137.6395   73.1517  219.8182 H   0  0  0  0  0  0  0  0  0  0  0  0
  137.2510   74.6203  220.8183 H   0  0  0  0  0  0  0  0  0  0  0  0
  138.8611   77.5871  220.9473 H   0  0  0  0  0  0  0  0  0  0  0  0
  137.9681   76.1568  221.5133 H   0  0  0  0  0  0  0  0  0  0  0  0
  139.1515   77.2989  223.3823 H   0  0  0  0  0  0  0  0  0  0  0  0
  139.8016   75.6434  223.1093 H   0  0  0  0  0  0  0  0  0  0  0  0
  141.1340   78.1991  222.9799 H   0  0  0  0  0  0  0  0  0  0  0  0
  141.8009   76.5046  222.8806 H   0  0  0  0  0  0  0  0  0  0  0  0
  140.8148   78.2577  220.6198 H   0  0  0  0  0  0  0  0  0  0  0  0
  142.4886   77.6393  220.9347 H   0  0  0  0  0  0  0  0  0  0  0  0
  141.1433   76.3950  219.1205 H   0  0  0  0  0  0  0  0  0  0  0  0
  140.9784   73.5657  221.0870 H   0  0  0  0  0  0  0  0  0  0  0  0
  142.8165   71.9508  221.2802 H   0  0  0  0  0  0  0  0  0  0  0  0
  145.5820   71.8960  221.4860 H   0  0  0  0  0  0  0  0  0  0  0  0
  145.5320   74.9103  219.7968 H   0  0  0  0  0  0  0  0  0  0  0  0
  143.6901   76.5173  219.6085 H   0  0  0  0  0  0  0  0  0  0  0  0
  138.3165   69.2336  222.1706 H   0  0  0  0  0  0  0  0  0  0  0  0
  138.8804   67.8965  224.1644 H   0  0  0  0  0  0  0  0  0  0  0  0
  139.8348   67.7529  226.3214 H   0  0  0  0  0  0  0  0  0  0  0  0
  141.5739   71.2901  228.1134 H   0  0  0  0  0  0  0  0  0  0  0  0
  140.9720   72.5934  226.0632 H   0  0  0  0  0  0  0  0  0  0  0  0
  1  2  2  0
  2  3  1  0
  3  4  1  0
  4  5  1  0
  5  6  2  0
  5  7  1  0
  7  8  1  0
  8  9  1  0
  9 10  1  0
 10 11  1  0
 11 12  1  0
 12 13  1  0
 13 14  2  0
 14 15  1  0
 15 16  2  0
 16 17  1  0
 16 18  1  0
 18 19  2  0
  2 20  1  0
 20 21  2  0
 21 22  1  0
 22 23  2  0
 23 24  1  0
 24 25  2  0
 25 26  1  0
 25 27  1  0
 27 28  2  0
 28 29  1  0
 29 30  2  0
 12  7  1  0
 19 13  1  0
 30 20  1  0
 29 23  1  0
  3 31  1  0
  4 32  1  0
  4 33  1  0
  8 34  1  0
  8 35  1  0
  9 36  1  0
  9 37  1  0
 10 38  1  0
 10 39  1  0
 11 40  1  0
 11 41  1  0
 12 42  1  6
 14 43  1  0
 15 44  1  0
 17 45  1  0
 18 46  1  0
 19 47  1  0
 21 48  1  0
 22 49  1  0
 24 50  1  0
 27 51  1  0
 28 52  1  0
M  END
>  <smiles>  (21) 
O=C(NCC(=O)N1CCCCC1c1ccc(O)cc1)c1ccc2cc(Cl)ccc2n1

>  <score_type>  (21) 
oracle

>  <origin>  (21) 
autodockgpu

>  <m_score__min__energy>  (21) 
-8.7400000000000002

>  <m_primary>  (21) 
energy

>  <meeko>  (21) 
{"free_energy": -7.9, "intermolecular_energy": -9.69, "internal_energy": -1.72, "cluster_size": 9, "cluster_id": 1, "rank_in_cluster": 9}

>  <energy>  (21) 
-8.74

>  <cluster_rmsd>  (21) 
0.0

>  <rmsd>  (21) 
270.32

>  <cluster>  (21) 
1

$$$$

     RDKit          3D

 52 55  0  0  1  0  0  0  0  0999 V2000
  140.4030   74.1630  222.3420 O   0  0  0  0  0  0  0  0  0  0  0  0
  140.6110   74.8920  221.3120 C   0  0  0  0  0  0  0  0  0  0  0  0
  140.7390   74.2970  220.0330 N   0  0  0  0  0  0  0  0  0  0  0  0
  140.6310   72.8520  219.8970 C   0  0  0  0  0  0  0  0  0  0  0  0
  141.8930   72.2340  219.4860 C   0  0  0  0  0  0  0  0  0  0  0  0
  141.8280   71.3430  218.5790 O   0  0  0  0  0  0  0  0  0  0  0  0
  143.1730   72.5200  219.9900 N   0  0  0  0  0  0  0  0  0  0  0  0
  144.0640   71.3790  220.2020 C   0  0  0  0  0  0  0  0  0  0  0  0
  145.2920   71.6180  219.3630 C   0  0  0  0  0  0  0  0  0  0  0  0
  145.9390   72.9070  219.7620 C   0  0  0  0  0  0  0  0  0  0  0  0
  145.1270   73.6910  220.7650 C   0  0  0  0  0  0  0  0  0  0  0  0
  143.6770   73.8240  220.3280 C   0  0  1  0  0  0  0  0  0  0  0  0
  143.5010   74.8700  219.3190 C   0  0  0  0  0  0  0  0  0  0  0  0
  143.3720   74.6650  217.9660 C   0  0  0  0  0  0  0  0  0  0  0  0
  143.2070   75.6930  217.0530 C   0  0  0  0  0  0  0  0  0  0  0  0
  143.1660   77.0020  217.4840 C   0  0  0  0  0  0  0  0  0  0  0  0
  143.0030   78.0570  216.5960 O   0  0  0  0  0  0  0  0  0  0  0  0
  143.2930   77.2410  218.8360 C   0  0  0  0  0  0  0  0  0  0  0  0
  143.4560   76.2080  219.7340 C   0  0  0  0  0  0  0  0  0  0  0  0
  140.7160   76.3400  221.4670 C   0  0  0  0  0  0  0  0  0  0  0  0
  140.9080   76.8880  222.7190 C   0  0  0  0  0  0  0  0  0  0  0  0
  141.0150   78.2420  222.9470 C   0  0  0  0  0  0  0  0  0  0  0  0
  140.9270   79.0870  221.8670 C   0  0  0  0  0  0  0  0  0  0  0  0
  141.0370   80.4420  222.0960 C   0  0  0  0  0  0  0  0  0  0  0  0
  140.9470   81.2790  221.0020 C   0  0  0  0  0  0  0  0  0  0  0  0
  141.0840   82.9990  221.2930 Cl  0  0  0  0  0  0  0  0  0  0  0  0
  140.7530   80.7920  219.7150 C   0  0  0  0  0  0  0  0  0  0  0  0
  140.6500   79.4070  219.5450 C   0  0  0  0  0  0  0  0  0  0  0  0
  140.7360   78.5400  220.6150 C   0  0  0  0  0  0  0  0  0  0  0  0
  140.6340   77.1980  220.4340 N   0  0  0  0  0  0  0  0  0  0  0  0
  140.9110   74.9260  219.1970 H   0  0  0  0  0  0  0  0  0  0  0  0
  140.3290   72.4276  220.8659 H   0  0  0  0  0  0  0  0  0  0  0  0
  139.8854   72.6436  219.1155 H   0  0  0  0  0  0  0  0  0  0  0  0
  144.3402   71.3075  221.2644 H   0  0  0  0  0  0  0  0  0  0  0  0
  143.5711   70.4376  219.9176 H   0  0  0  0  0  0  0  0  0  0  0  0
  146.0025   70.7917  219.5128 H   0  0  0  0  0  0  0  0  0  0  0  0
  145.0016   71.6715  218.3034 H   0  0  0  0  0  0  0  0  0  0  0  0
  146.9211   72.6837  220.2044 H   0  0  0  0  0  0  0  0  0  0  0  0
  146.0266   73.5246  218.8560 H   0  0  0  0  0  0  0  0  0  0  0  0
  145.1617   73.1737  221.7351 H   0  0  0  0  0  0  0  0  0  0  0  0
  145.5573   74.7003  220.8431 H   0  0  0  0  0  0  0  0  0  0  0  0
  143.0494   74.1872  221.1552 H   0  0  0  0  0  0  0  0  0  0  0  0
  143.4013   73.6319  217.5894 H   0  0  0  0  0  0  0  0  0  0  0  0
  143.1084   75.4647  215.9815 H   0  0  0  0  0  0  0  0  0  0  0  0
  143.6030   78.8710  216.5670 H   0  0  0  0  0  0  0  0  0  0  0  0
  143.2637   78.2767  219.2054 H   0  0  0  0  0  0  0  0  0  0  0  0
  143.5533   76.4399  220.8049 H   0  0  0  0  0  0  0  0  0  0  0  0
  140.9793   76.2074  223.5802 H   0  0  0  0  0  0  0  0  0  0  0  0
  141.1663   78.6352  223.9631 H   0  0  0  0  0  0  0  0  0  0  0  0
  141.1903   80.8402  223.1098 H   0  0  0  0  0  0  0  0  0  0  0  0
  140.6825   81.4750  218.8556 H   0  0  0  0  0  0  0  0  0  0  0  0
  140.4969   78.9998  218.5347 H   0  0  0  0  0  0  0  0  0  0  0  0
  1  2  2  0
  2  3  1  0
  3  4  1  0
  4  5  1  0
  5  6  2  0
  5  7  1  0
  7  8  1  0
  8  9  1  0
  9 10  1  0
 10 11  1  0
 11 12  1  0
 12 13  1  0
 13 14  2  0
 14 15  1  0
 15 16  2  0
 16 17  1  0
 16 18  1  0
 18 19  2  0
  2 20  1  0
 20 21  2  0
 21 22  1  0
 22 23  2  0
 23 24  1  0
 24 25  2  0
 25 26  1  0
 25 27  1  0
 27 28  2  0
 28 29  1  0
 29 30  2  0
 12  7  1  0
 19 13  1  0
 30 20  1  0
 29 23  1  0
  3 31  1  0
  4 32  1  0
  4 33  1  0
  8 34  1  0
  8 35  1  0
  9 36  1  0
  9 37  1  0
 10 38  1  0
 10 39  1  0
 11 40  1  0
 11 41  1  0
 12 42  1  1
 14 43  1  0
 15 44  1  0
 17 45  1  0
 18 46  1  0
 19 47  1  0
 21 48  1  0
 22 49  1  0
 24 50  1  0
 27 51  1  0
 28 52  1  0
M  END
>  <smiles>  (22) 
O=C(NCC(=O)N1CCCCC1c1ccc(O)cc1)c1ccc2cc(Cl)ccc2n1

>  <score_type>  (22) 
oracle

>  <origin>  (22) 
autodockgpu

>  <m_score__min__energy>  (22) 
-8.7400000000000002

>  <m_primary>  (22) 
energy

>  <meeko>  (22) 
{"free_energy": -6.72, "intermolecular_energy": -8.51, "internal_energy": -2.5, "cluster_size": 2, "cluster_id": 5, "rank_in_cluster": 2}

>  <energy>  (22) 
-8.68

>  <cluster_rmsd>  (22) 
0.09

>  <rmsd>  (22) 
270.31

>  <cluster>  (22) 
1

$$$$

     RDKit          3D

 52 55  0  0  1  0  0  0  0  0999 V2000
  139.7850   71.5710  220.8480 O   0  0  0  0  0  0  0  0  0  0  0  0
  139.7560   72.1150  222.0040 C   0  0  0  0  0  0  0  0  0  0  0  0
  139.6240   73.5200  222.1280 N   0  0  0  0  0  0  0  0  0  0  0  0
  139.5210   74.3410  220.9310 C   0  0  0  0  0  0  0  0  0  0  0  0
  140.4020   75.5090  220.9770 C   0  0  0  0  0  0  0  0  0  0  0  0
  140.7740   75.9030  222.1290 O   0  0  0  0  0  0  0  0  0  0  0  0
  140.8800   76.2460  219.8800 N   0  0  0  0  0  0  0  0  0  0  0  0
  140.5310   77.6660  219.8410 C   0  0  0  0  0  0  0  0  0  0  0  0
  141.8240   78.4370  219.8140 C   0  0  0  0  0  0  0  0  0  0  0  0
  142.6330   78.0330  218.6210 C   0  0  0  0  0  0  0  0  0  0  0  0
  142.0320   76.8740  217.8630 C   0  0  0  0  0  0  0  0  0  0  0  0
  141.6660   75.7280  218.7930 C   0  0  1  0  0  0  0  0  0  0  0  0
  142.8340   74.9250  219.1600 C   0  0  0  0  0  0  0  0  0  0  0  0
  143.7480   75.2380  220.1380 C   0  0  0  0  0  0  0  0  0  0  0  0
  144.8370   74.4420  220.4450 C   0  0  0  0  0  0  0  0  0  0  0  0
  145.0510   73.2660  219.7570 C   0  0  0  0  0  0  0  0  0  0  0  0
  146.1340   72.4430  220.0390 O   0  0  0  0  0  0  0  0  0  0  0  0
  144.1530   72.9230  218.7690 C   0  0  0  0  0  0  0  0  0  0  0  0
  143.0720   73.7260  218.4740 C   0  0  0  0  0  0  0  0  0  0  0  0
  139.8610   71.2760  223.1940 C   0  0  0  0  0  0  0  0  0  0  0  0
  139.4310   69.9650  223.1540 C   0  0  0  0  0  0  0  0  0  0  0  0
  139.4950   69.1120  224.2340 C   0  0  0  0  0  0  0  0  0  0  0  0
  140.0160   69.5960  225.4090 C   0  0  0  0  0  0  0  0  0  0  0  0
  140.0820   68.7410  226.4880 C   0  0  0  0  0  0  0  0  0  0  0  0
  140.6070   69.2400  227.6620 C   0  0  0  0  0  0  0  0  0  0  0  0
  140.6890   68.1540  229.0320 Cl  0  0  0  0  0  0  0  0  0  0  0  0
  141.0580   70.5500  227.7700 C   0  0  0  0  0  0  0  0  0  0  0  0
  140.9660   71.3710  226.6400 C   0  0  0  0  0  0  0  0  0  0  0  0
  140.4470   70.9060  225.4500 C   0  0  0  0  0  0  0  0  0  0  0  0
  140.3650   71.7150  224.3620 N   0  0  0  0  0  0  0  0  0  0  0  0
  139.6030   73.9440  223.1000 H   0  0  0  0  0  0  0  0  0  0  0  0
  139.7919   73.7285  220.0584 H   0  0  0  0  0  0  0  0  0  0  0  0
  138.4853   74.7051  220.8626 H   0  0  0  0  0  0  0  0  0  0  0  0
  139.9415   77.8854  218.9386 H   0  0  0  0  0  0  0  0  0  0  0  0
  139.9258   77.9455  220.7160 H   0  0  0  0  0  0  0  0  0  0  0  0
  141.6056   79.5137  219.7590 H   0  0  0  0  0  0  0  0  0  0  0  0
  142.3945   78.2197  220.7290 H   0  0  0  0  0  0  0  0  0  0  0  0
  142.7085   78.8945  217.9412 H   0  0  0  0  0  0  0  0  0  0  0  0
  143.6186   77.7097  218.9872 H   0  0  0  0  0  0  0  0  0  0  0  0
  141.1243   77.2179  217.3455 H   0  0  0  0  0  0  0  0  0  0  0  0
  142.7792   76.5085  217.1432 H   0  0  0  0  0  0  0  0  0  0  0  0
  141.0274   74.9938  218.2801 H   0  0  0  0  0  0  0  0  0  0  0  0
  143.6061   76.1694  220.7057 H   0  0  0  0  0  0  0  0  0  0  0  0
  145.5337   74.7477  221.2395 H   0  0  0  0  0  0  0  0  0  0  0  0
  146.2130   71.8770  220.8740 H   0  0  0  0  0  0  0  0  0  0  0  0
  144.3019   71.9904  218.2050 H   0  0  0  0  0  0  0  0  0  0  0  0
  142.3774   73.4175  217.6788 H   0  0  0  0  0  0  0  0  0  0  0  0
  139.0155   69.5812  222.2106 H   0  0  0  0  0  0  0  0  0  0  0  0
  139.1393   68.0739  224.1575 H   0  0  0  0  0  0  0  0  0  0  0  0
  139.7298   67.7014  226.4158 H   0  0  0  0  0  0  0  0  0  0  0  0
  141.4745   70.9301  228.7145 H   0  0  0  0  0  0  0  0  0  0  0  0
  141.3161   72.4119  226.7027 H   0  0  0  0  0  0  0  0  0  0  0  0
  1  2  2  0
  2  3  1  0
  3  4  1  0
  4  5  1  0
  5  6  2  0
  5  7  1  0
  7  8  1  0
  8  9  1  0
  9 10  1  0
 10 11  1  0
 11 12  1  0
 12 13  1  0
 13 14  2  0
 14 15  1  0
 15 16  2  0
 16 17  1  0
 16 18  1  0
 18 19  2  0
  2 20  1  0
 20 21  2  0
 21 22  1  0
 22 23  2  0
 23 24  1  0
 24 25  2  0
 25 26  1  0
 25 27  1  0
 27 28  2  0
 28 29  1  0
 29 30  2  0
 12  7  1  0
 19 13  1  0
 30 20  1  0
 29 23  1  0
  3 31  1  0
  4 32  1  0
  4 33  1  0
  8 34  1  0
  8 35  1  0
  9 36  1  0
  9 37  1  0
 10 38  1  0
 10 39  1  0
 11 40  1  0
 11 41  1  0
 12 42  1  6
 14 43  1  0
 15 44  1  0
 17 45  1  0
 18 46  1  0
 19 47  1  0
 21 48  1  0
 22 49  1  0
 24 50  1  0
 27 51  1  0
 28 52  1  0
M  END
>  <smiles>  (23) 
O=C(NCC(=O)N1CCCCC1c1ccc(O)cc1)c1ccc2cc(Cl)ccc2n1

>  <score_type>  (23) 
oracle

>  <origin>  (23) 
autodockgpu

>  <m_score__min__energy>  (23) 
-8.7400000000000002

>  <m_primary>  (23) 
energy

>  <meeko>  (23) 
{"free_energy": -8.55, "intermolecular_energy": -10.34, "internal_energy": -1.82, "cluster_size": 9, "cluster_id": 1, "rank_in_cluster": 5}

>  <energy>  (23) 
-8.66

>  <cluster_rmsd>  (23) 
0.14

>  <rmsd>  (23) 
270.33

>  <cluster>  (23) 
1

$$$$

     RDKit          3D

 52 55  0  0  1  0  0  0  0  0999 V2000
  139.0650   71.3690  220.9230 O   0  0  0  0  0  0  0  0  0  0  0  0
  139.2530   71.9420  222.0500 C   0  0  0  0  0  0  0  0  0  0  0  0
  139.2040   73.3550  222.1490 N   0  0  0  0  0  0  0  0  0  0  0  0
  138.9370   74.1500  220.9590 C   0  0  0  0  0  0  0  0  0  0  0  0
  140.0880   74.9620  220.5610 C   0  0  0  0  0  0  0  0  0  0  0  0
  139.8700   76.1970  220.3390 O   0  0  0  0  0  0  0  0  0  0  0  0
  141.4110   74.5210  220.3950 N   0  0  0  0  0  0  0  0  0  0  0  0
  141.6020   73.0910  220.1550 C   0  0  0  0  0  0  0  0  0  0  0  0
  142.3100   72.9570  218.8320 C   0  0  0  0  0  0  0  0  0  0  0  0
  143.6140   73.6890  218.8770 C   0  0  0  0  0  0  0  0  0  0  0  0
  143.8040   74.4830  220.1460 C   0  0  0  0  0  0  0  0  0  0  0  0
  142.5900   75.3440  220.4530 C   0  0  1  0  0  0  0  0  0  0  0  0
  142.5680   76.5680  219.6520 C   0  0  0  0  0  0  0  0  0  0  0  0
  142.2000   77.8150  220.1000 C   0  0  0  0  0  0  0  0  0  0  0  0
  142.1970   78.9420  219.2970 C   0  0  0  0  0  0  0  0  0  0  0  0
  142.5760   78.8520  217.9740 C   0  0  0  0  0  0  0  0  0  0  0  0
  142.5850   79.9620  217.1400 O   0  0  0  0  0  0  0  0  0  0  0  0
  142.9510   77.6140  217.4930 C   0  0  0  0  0  0  0  0  0  0  0  0
  142.9500   76.5010  218.3040 C   0  0  0  0  0  0  0  0  0  0  0  0
  139.5180   71.1290  223.2330 C   0  0  0  0  0  0  0  0  0  0  0  0
  139.2170   69.7820  223.2260 C   0  0  0  0  0  0  0  0  0  0  0  0
  139.4370   68.9490  224.3020 C   0  0  0  0  0  0  0  0  0  0  0  0
  139.9860   69.4930  225.4370 C   0  0  0  0  0  0  0  0  0  0  0  0
  140.2070   68.6580  226.5120 C   0  0  0  0  0  0  0  0  0  0  0  0
  140.7590   69.2170  227.6460 C   0  0  0  0  0  0  0  0  0  0  0  0
  141.0380   68.1580  229.0110 Cl  0  0  0  0  0  0  0  0  0  0  0  0
  141.0850   70.5670  227.7190 C   0  0  0  0  0  0  0  0  0  0  0  0
  140.8380   71.3640  226.5960 C   0  0  0  0  0  0  0  0  0  0  0  0
  140.2880   70.8390  225.4450 C   0  0  0  0  0  0  0  0  0  0  0  0
  140.0540   71.6250  224.3630 N   0  0  0  0  0  0  0  0  0  0  0  0
  139.3630   73.8030  223.0960 H   0  0  0  0  0  0  0  0  0  0  0  0
  138.6797   73.4722  220.1317 H   0  0  0  0  0  0  0  0  0  0  0  0
  138.1079   74.8344  221.1918 H   0  0  0  0  0  0  0  0  0  0  0  0
  142.2136   72.6518  220.9569 H   0  0  0  0  0  0  0  0  0  0  0  0
  140.6369   72.5634  220.1389 H   0  0  0  0  0  0  0  0  0  0  0  0
  142.4958   71.8930  218.6237 H   0  0  0  0  0  0  0  0  0  0  0  0
  141.6804   73.3863  218.0387 H   0  0  0  0  0  0  0  0  0  0  0  0
  144.4300   72.9556  218.7975 H   0  0  0  0  0  0  0  0  0  0  0  0
  143.6184   74.4027  218.0400 H   0  0  0  0  0  0  0  0  0  0  0  0
  143.9687   73.7869  220.9816 H   0  0  0  0  0  0  0  0  0  0  0  0
  144.6713   75.1460  220.0110 H   0  0  0  0  0  0  0  0  0  0  0  0
  142.6361   75.7363  221.4796 H   0  0  0  0  0  0  0  0  0  0  0  0
  141.8922   77.9221  221.1506 H   0  0  0  0  0  0  0  0  0  0  0  0
  141.8915   79.9125  219.7151 H   0  0  0  0  0  0  0  0  0  0  0  0
  143.3090   80.1540  216.4610 H   0  0  0  0  0  0  0  0  0  0  0  0
  143.2567   77.5143  216.4411 H   0  0  0  0  0  0  0  0  0  0  0  0
  143.2574   75.5324  217.8829 H   0  0  0  0  0  0  0  0  0  0  0  0
  138.7786   69.3506  222.3140 H   0  0  0  0  0  0  0  0  0  0  0  0
  139.1805   67.8805  224.2529 H   0  0  0  0  0  0  0  0  0  0  0  0
  139.9532   67.5886  226.4671 H   0  0  0  0  0  0  0  0  0  0  0  0
  141.5239   70.9953  228.6322 H   0  0  0  0  0  0  0  0  0  0  0  0
  141.0883   72.4346  226.6317 H   0  0  0  0  0  0  0  0  0  0  0  0
  1  2  2  0
  2  3  1  0
  3  4  1  0
  4  5  1  0
  5  6  2  0
  5  7  1  0
  7  8  1  0
  8  9  1  0
  9 10  1  0
 10 11  1  0
 11 12  1  0
 12 13  1  0
 13 14  2  0
 14 15  1  0
 15 16  2  0
 16 17  1  0
 16 18  1  0
 18 19  2  0
  2 20  1  0
 20 21  2  0
 21 22  1  0
 22 23  2  0
 23 24  1  0
 24 25  2  0
 25 26  1  0
 25 27  1  0
 27 28  2  0
 28 29  1  0
 29 30  2  0
 12  7  1  0
 19 13  1  0
 30 20  1  0
 29 23  1  0
  3 31  1  0
  4 32  1  0
  4 33  1  0
  8 34  1  0
  8 35  1  0
  9 36  1  0
  9 37  1  0
 10 38  1  0
 10 39  1  0
 11 40  1  0
 11 41  1  0
 12 42  1  1
 14 43  1  0
 15 44  1  0
 17 45  1  0
 18 46  1  0
 19 47  1  0
 21 48  1  0
 22 49  1  0
 24 50  1  0
 27 51  1  0
 28 52  1  0
M  END
>  <smiles>  (24) 
O=C(NCC(=O)N1CCCCC1c1ccc(O)cc1)c1ccc2cc(Cl)ccc2n1

>  <score_type>  (24) 
oracle

>  <origin>  (24) 
autodockgpu

>  <m_score__min__energy>  (24) 
-8.7400000000000002

>  <m_primary>  (24) 
energy

>  <meeko>  (24) 
{"free_energy": -7.97, "intermolecular_energy": -9.76, "internal_energy": -1.36, "cluster_size": 2, "cluster_id": 3, "rank_in_cluster": 2}

>  <energy>  (24) 
-8.64

>  <cluster_rmsd>  (24) 
0.18

>  <rmsd>  (24) 
270.31

>  <cluster>  (24) 
1

$$$$

     RDKit          3D

 52 55  0  0  1  0  0  0  0  0999 V2000
  140.1820   71.8180  220.8290 O   0  0  0  0  0  0  0  0  0  0  0  0
  139.9150   72.2940  221.9850 C   0  0  0  0  0  0  0  0  0  0  0  0
  139.5470   73.6540  222.1280 N   0  0  0  0  0  0  0  0  0  0  0  0
  139.4750   74.5070  220.9510 C   0  0  0  0  0  0  0  0  0  0  0  0
  140.5600   75.4890  220.9060 C   0  0  0  0  0  0  0  0  0  0  0  0
  141.1450   75.7490  222.0070 O   0  0  0  0  0  0  0  0  0  0  0  0
  141.0230   76.1780  219.7730 N   0  0  0  0  0  0  0  0  0  0  0  0
  140.6670   77.5940  219.6750 C   0  0  0  0  0  0  0  0  0  0  0  0
  141.9570   78.3680  219.6010 C   0  0  0  0  0  0  0  0  0  0  0  0
  142.7550   77.9150  218.4190 C   0  0  0  0  0  0  0  0  0  0  0  0
  142.1510   76.7220  217.7190 C   0  0  0  0  0  0  0  0  0  0  0  0
  141.8000   75.6170  218.7010 C   0  0  1  0  0  0  0  0  0  0  0  0
  142.9750   74.8350  219.0910 C   0  0  0  0  0  0  0  0  0  0  0  0
  143.8530   75.1540  220.1000 C   0  0  0  0  0  0  0  0  0  0  0  0
  144.9510   74.3780  220.4270 C   0  0  0  0  0  0  0  0  0  0  0  0
  145.2120   73.2180  219.7290 C   0  0  0  0  0  0  0  0  0  0  0  0
  146.3040   72.4150  220.0310 O   0  0  0  0  0  0  0  0  0  0  0  0
  144.3500   72.8690  218.7100 C   0  0  0  0  0  0  0  0  0  0  0  0
  143.2610   73.6510  218.3950 C   0  0  0  0  0  0  0  0  0  0  0  0
  139.9910   71.4230  223.1550 C   0  0  0  0  0  0  0  0  0  0  0  0
  139.5420   70.1210  223.0760 C   0  0  0  0  0  0  0  0  0  0  0  0
  139.5800   69.2390  224.1340 C   0  0  0  0  0  0  0  0  0  0  0  0
  140.0940   69.6850  225.3270 C   0  0  0  0  0  0  0  0  0  0  0  0
  140.1330   68.8020  226.3850 C   0  0  0  0  0  0  0  0  0  0  0  0
  140.6520   69.2620  227.5780 C   0  0  0  0  0  0  0  0  0  0  0  0
  140.7000   68.1410  228.9200 Cl  0  0  0  0  0  0  0  0  0  0  0  0
  141.1210   70.5630  227.7240 C   0  0  0  0  0  0  0  0  0  0  0  0
  141.0560   71.4130  226.6150 C   0  0  0  0  0  0  0  0  0  0  0  0
  140.5440   70.9860  225.4070 C   0  0  0  0  0  0  0  0  0  0  0  0
  140.4880   71.8240  224.3390 N   0  0  0  0  0  0  0  0  0  0  0  0
  139.3300   74.0220  223.0990 H   0  0  0  0  0  0  0  0  0  0  0  0
  139.5332   73.8749  220.0526 H   0  0  0  0  0  0  0  0  0  0  0  0
  138.5246   75.0591  220.9947 H   0  0  0  0  0  0  0  0  0  0  0  0
  140.0677   77.7711  218.7698 H   0  0  0  0  0  0  0  0  0  0  0  0
  140.0690   77.9095  220.5427 H   0  0  0  0  0  0  0  0  0  0  0  0
  141.7338   79.4405  219.5011 H   0  0  0  0  0  0  0  0  0  0  0  0
  142.5376   78.1932  220.5188 H   0  0  0  0  0  0  0  0  0  0  0  0
  142.8202   78.7461  217.7013 H   0  0  0  0  0  0  0  0  0  0  0  0
  143.7456   77.6115  218.7888 H   0  0  0  0  0  0  0  0  0  0  0  0
  141.2364   77.0396  217.1969 H   0  0  0  0  0  0  0  0  0  0  0  0
  142.8921   76.3282  217.0079 H   0  0  0  0  0  0  0  0  0  0  0  0
  141.1595   74.8592  218.2262 H   0  0  0  0  0  0  0  0  0  0  0  0
  143.6733   76.0732  220.6768 H   0  0  0  0  0  0  0  0  0  0  0  0
  145.6172   74.6873  221.2458 H   0  0  0  0  0  0  0  0  0  0  0  0
  146.3690   71.8330  220.8560 H   0  0  0  0  0  0  0  0  0  0  0  0
  144.5361   71.9481  218.1379 H   0  0  0  0  0  0  0  0  0  0  0  0
  142.5973   73.3387  217.5753 H   0  0  0  0  0  0  0  0  0  0  0  0
  139.1321   69.7684  222.1181 H   0  0  0  0  0  0  0  0  0  0  0  0
  139.2098   68.2088  224.0264 H   0  0  0  0  0  0  0  0  0  0  0  0
  139.7646   67.7706  226.2822 H   0  0  0  0  0  0  0  0  0  0  0  0
  141.5308   70.9132  228.6829 H   0  0  0  0  0  0  0  0  0  0  0  0
  141.4217   72.4462  226.7082 H   0  0  0  0  0  0  0  0  0  0  0  0
  1  2  2  0
  2  3  1  0
  3  4  1  0
  4  5  1  0
  5  6  2  0
  5  7  1  0
  7  8  1  0
  8  9  1  0
  9 10  1  0
 10 11  1  0
 11 12  1  0
 12 13  1  0
 13 14  2  0
 14 15  1  0
 15 16  2  0
 16 17  1  0
 16 18  1  0
 18 19  2  0
  2 20  1  0
 20 21  2  0
 21 22  1  0
 22 23  2  0
 23 24  1  0
 24 25  2  0
 25 26  1  0
 25 27  1  0
 27 28  2  0
 28 29  1  0
 29 30  2  0
 12  7  1  0
 19 13  1  0
 30 20  1  0
 29 23  1  0
  3 31  1  0
  4 32  1  0
  4 33  1  0
  8 34  1  0
  8 35  1  0
  9 36  1  0
  9 37  1  0
 10 38  1  0
 10 39  1  0
 11 40  1  0
 11 41  1  0
 12 42  1  6
 14 43  1  0
 15 44  1  0
 17 45  1  0
 18 46  1  0
 19 47  1  0
 21 48  1  0
 22 49  1  0
 24 50  1  0
 27 51  1  0
 28 52  1  0
M  END
>  <smiles>  (25) 
O=C(NCC(=O)N1CCCCC1c1ccc(O)cc1)c1ccc2cc(Cl)ccc2n1

>  <score_type>  (25) 
oracle

>  <origin>  (25) 
autodockgpu

>  <m_score__min__energy>  (25) 
-8.7400000000000002

>  <m_primary>  (25) 
energy

>  <meeko>  (25) 
{"free_energy": -8.74, "intermolecular_energy": -10.53, "internal_energy": -1.66, "cluster_size": 9, "cluster_id": 1, "rank_in_cluster": 1}

>  <energy>  (25) 
-8.55

>  <cluster_rmsd>  (25) 
0.21

>  <rmsd>  (25) 
270.32

>  <cluster>  (25) 
1

$$$$

     RDKit          3D

 52 55  0  0  1  0  0  0  0  0999 V2000
  138.1910   77.4410  222.5560 O   0  0  0  0  0  0  0  0  0  0  0  0
  139.0270   77.5660  221.5960 C   0  0  0  0  0  0  0  0  0  0  0  0
  139.0160   78.7300  220.7890 N   0  0  0  0  0  0  0  0  0  0  0  0
  138.0480   79.7830  221.0580 C   0  0  0  0  0  0  0  0  0  0  0  0
  138.6000   80.8450  221.9010 C   0  0  0  0  0  0  0  0  0  0  0  0
  137.8900   81.8940  222.0410 O   0  0  0  0  0  0  0  0  0  0  0  0
  139.8340   80.8320  222.5720 N   0  0  0  0  0  0  0  0  0  0  0  0
  139.8810   80.1130  223.8450 C   0  0  0  0  0  0  0  0  0  0  0  0
  140.9300   79.0410  223.7070 C   0  0  0  0  0  0  0  0  0  0  0  0
  142.2500   79.6610  223.3720 C   0  0  0  0  0  0  0  0  0  0  0  0
  142.1580   81.1440  223.1090 C   0  0  0  0  0  0  0  0  0  0  0  0
  141.0440   81.4700  222.1280 C   0  0  1  0  0  0  0  0  0  0  0  0
  141.4420   81.2160  220.7420 C   0  0  0  0  0  0  0  0  0  0  0  0
  141.8290   80.0010  220.2290 C   0  0  0  0  0  0  0  0  0  0  0  0
  142.1970   79.8160  218.9070 C   0  0  0  0  0  0  0  0  0  0  0  0
  142.1860   80.8790  218.0290 C   0  0  0  0  0  0  0  0  0  0  0  0
  142.5490   80.7290  216.6970 O   0  0  0  0  0  0  0  0  0  0  0  0
  141.8020   82.1120  218.5140 C   0  0  0  0  0  0  0  0  0  0  0  0
  141.4390   82.2820  219.8320 C   0  0  0  0  0  0  0  0  0  0  0  0
  139.9910   76.5000  221.3410 C   0  0  0  0  0  0  0  0  0  0  0  0
  139.7520   75.2250  221.8150 C   0  0  0  0  0  0  0  0  0  0  0  0
  140.6130   74.1680  221.6170 C   0  0  0  0  0  0  0  0  0  0  0  0
  141.7670   74.3990  220.9080 C   0  0  0  0  0  0  0  0  0  0  0  0
  142.6260   73.3400  220.7080 C   0  0  0  0  0  0  0  0  0  0  0  0
  143.7810   73.5860  219.9940 C   0  0  0  0  0  0  0  0  0  0  0  0
  144.8720   72.2410  219.7420 Cl  0  0  0  0  0  0  0  0  0  0  0  0
  144.0810   74.8460  219.4900 C   0  0  0  0  0  0  0  0  0  0  0  0
  143.1700   75.8810  219.7240 C   0  0  0  0  0  0  0  0  0  0  0  0
  142.0050   75.6720  220.4330 C   0  0  0  0  0  0  0  0  0  0  0  0
  141.1310   76.6870  220.6520 N   0  0  0  0  0  0  0  0  0  0  0  0
  139.7210   78.8070  220.0010 H   0  0  0  0  0  0  0  0  0  0  0  0
  137.7278   80.2215  220.1014 H   0  0  0  0  0  0  0  0  0  0  0  0
  137.2020   79.3318  221.5972 H   0  0  0  0  0  0  0  0  0  0  0  0
  140.1504   80.8026  224.6586 H   0  0  0  0  0  0  0  0  0  0  0  0
  138.9010   79.6746  224.0846 H   0  0  0  0  0  0  0  0  0  0  0  0
  141.0158   78.4903  224.6553 H   0  0  0  0  0  0  0  0  0  0  0  0
  140.6390   78.3508  222.9015 H   0  0  0  0  0  0  0  0  0  0  0  0
  142.9377   79.4970  224.2147 H   0  0  0  0  0  0  0  0  0  0  0  0
  142.6103   79.1858  222.4477 H   0  0  0  0  0  0  0  0  0  0  0  0
  141.9610   81.6634  224.0584 H   0  0  0  0  0  0  0  0  0  0  0  0
  143.1107   81.4754  222.6703 H   0  0  0  0  0  0  0  0  0  0  0  0
  140.8318   82.5493  222.1181 H   0  0  0  0  0  0  0  0  0  0  0  0
  141.8473   79.1316  220.9027 H   0  0  0  0  0  0  0  0  0  0  0  0
  142.4990   78.8181  218.5563 H   0  0  0  0  0  0  0  0  0  0  0  0
  143.2950   80.1250  216.3770 H   0  0  0  0  0  0  0  0  0  0  0  0
  141.7853   82.9769  217.8346 H   0  0  0  0  0  0  0  0  0  0  0  0
  141.1386   83.2815  220.1796 H   0  0  0  0  0  0  0  0  0  0  0  0
  138.8258   75.0441  222.3801 H   0  0  0  0  0  0  0  0  0  0  0  0
  140.3834   73.1685  222.0148 H   0  0  0  0  0  0  0  0  0  0  0  0
  142.3999   72.3382  221.1019 H   0  0  0  0  0  0  0  0  0  0  0  0
  145.0073   75.0239  218.9240 H   0  0  0  0  0  0  0  0  0  0  0  0
  143.3875   76.8860  219.3333 H   0  0  0  0  0  0  0  0  0  0  0  0
  1  2  2  0
  2  3  1  0
  3  4  1  0
  4  5  1  0
  5  6  2  0
  5  7  1  0
  7  8  1  0
  8  9  1  0
  9 10  1  0
 10 11  1  0
 11 12  1  0
 12 13  1  0
 13 14  2  0
 14 15  1  0
 15 16  2  0
 16 17  1  0
 16 18  1  0
 18 19  2  0
  2 20  1  0
 20 21  2  0
 21 22  1  0
 22 23  2  0
 23 24  1  0
 24 25  2  0
 25 26  1  0
 25 27  1  0
 27 28  2  0
 28 29  1  0
 29 30  2  0
 12  7  1  0
 19 13  1  0
 30 20  1  0
 29 23  1  0
  3 31  1  0
  4 32  1  0
  4 33  1  0
  8 34  1  0
  8 35  1  0
  9 36  1  0
  9 37  1  0
 10 38  1  0
 10 39  1  0
 11 40  1  0
 11 41  1  0
 12 42  1  6
 14 43  1  0
 15 44  1  0
 17 45  1  0
 18 46  1  0
 19 47  1  0
 21 48  1  0
 22 49  1  0
 24 50  1  0
 27 51  1  0
 28 52  1  0
M  END
>  <smiles>  (26) 
O=C(NCC(=O)N1CCCCC1c1ccc(O)cc1)c1ccc2cc(Cl)ccc2n1

>  <score_type>  (26) 
oracle

>  <origin>  (26) 
autodockgpu

>  <m_score__min__energy>  (26) 
-8.7400000000000002

>  <m_primary>  (26) 
energy

>  <meeko>  (26) 
{"free_energy": -7.09, "intermolecular_energy": -8.88, "internal_energy": -2.49, "cluster_size": 5, "cluster_id": 4, "rank_in_cluster": 5}

>  <energy>  (26) 
-8.46

>  <cluster_rmsd>  (26) 
0.35

>  <rmsd>  (26) 
270.33

>  <cluster>  (26) 
1

$$$$

     RDKit          3D

 52 55  0  0  1  0  0  0  0  0999 V2000
  140.9250   72.9920  222.3640 O   0  0  0  0  0  0  0  0  0  0  0  0
  140.4020   73.7730  221.4980 C   0  0  0  0  0  0  0  0  0  0  0  0
  140.3120   73.3760  220.1410 N   0  0  0  0  0  0  0  0  0  0  0  0
  140.8190   72.0720  219.7390 C   0  0  0  0  0  0  0  0  0  0  0  0
  142.1670   72.1480  219.1720 C   0  0  0  0  0  0  0  0  0  0  0  0
  142.2880   71.8560  217.9380 O   0  0  0  0  0  0  0  0  0  0  0  0
  143.3450   72.5060  219.8480 N   0  0  0  0  0  0  0  0  0  0  0  0
  144.3540   71.4600  220.0080 C   0  0  0  0  0  0  0  0  0  0  0  0
  145.6130   71.9580  219.3480 C   0  0  0  0  0  0  0  0  0  0  0  0
  146.0450   73.2440  219.9800 C   0  0  0  0  0  0  0  0  0  0  0  0
  145.0460   73.7770  220.9800 C   0  0  0  0  0  0  0  0  0  0  0  0
  143.6390   73.7990  220.4060 C   0  0  1  0  0  0  0  0  0  0  0  0
  143.4230   74.9500  219.5270 C   0  0  0  0  0  0  0  0  0  0  0  0
  143.6960   74.9940  218.1800 C   0  0  0  0  0  0  0  0  0  0  0  0
  143.4720   76.1110  217.3940 C   0  0  0  0  0  0  0  0  0  0  0  0
  142.9500   77.2580  217.9530 C   0  0  0  0  0  0  0  0  0  0  0  0
  142.7130   78.3970  217.1950 O   0  0  0  0  0  0  0  0  0  0  0  0
  142.6650   77.2470  219.3030 C   0  0  0  0  0  0  0  0  0  0  0  0
  142.8930   76.1270  220.0730 C   0  0  0  0  0  0  0  0  0  0  0  0
  139.8970   75.0770  221.9190 C   0  0  0  0  0  0  0  0  0  0  0  0
  138.5380   75.3140  221.9490 C   0  0  0  0  0  0  0  0  0  0  0  0
  137.9850   76.5160  222.3340 C   0  0  0  0  0  0  0  0  0  0  0  0
  138.8360   77.5280  222.7070 C   0  0  0  0  0  0  0  0  0  0  0  0
  138.2820   78.7290  223.0930 C   0  0  0  0  0  0  0  0  0  0  0  0
  139.1480   79.7370  223.4650 C   0  0  0  0  0  0  0  0  0  0  0  0
  138.4440   81.2630  223.9540 Cl  0  0  0  0  0  0  0  0  0  0  0  0
  140.5270   79.5640  223.4560 C   0  0  0  0  0  0  0  0  0  0  0  0
  141.0310   78.3220  223.0560 C   0  0  0  0  0  0  0  0  0  0  0  0
  140.1950   77.2910  222.6770 C   0  0  0  0  0  0  0  0  0  0  0  0
  140.6990   76.0910  222.2910 N   0  0  0  0  0  0  0  0  0  0  0  0
  139.8730   74.0430  219.4450 H   0  0  0  0  0  0  0  0  0  0  0  0
  140.8432   71.4151  220.6210 H   0  0  0  0  0  0  0  0  0  0  0  0
  140.1494   71.6771  218.9607 H   0  0  0  0  0  0  0  0  0  0  0  0
  144.5366   71.2715  221.0762 H   0  0  0  0  0  0  0  0  0  0  0  0
  144.0180   70.5173  219.5515 H   0  0  0  0  0  0  0  0  0  0  0  0
  146.4086   71.2077  219.4671 H   0  0  0  0  0  0  0  0  0  0  0  0
  145.4187   72.1273  218.2786 H   0  0  0  0  0  0  0  0  0  0  0  0
  147.0019   73.0765  220.4961 H   0  0  0  0  0  0  0  0  0  0  0  0
  146.1357   73.9902  219.1769 H   0  0  0  0  0  0  0  0  0  0  0  0
  145.0574   73.1350  221.8732 H   0  0  0  0  0  0  0  0  0  0  0  0
  145.3304   74.8086  221.2348 H   0  0  0  0  0  0  0  0  0  0  0  0
  142.8941   73.9641  221.1984 H   0  0  0  0  0  0  0  0  0  0  0  0
  144.1138   74.0954  217.7027 H   0  0  0  0  0  0  0  0  0  0  0  0
  143.7111   76.0835  216.3206 H   0  0  0  0  0  0  0  0  0  0  0  0
  143.4360   79.0330  216.8860 H   0  0  0  0  0  0  0  0  0  0  0  0
  142.2478   78.1495  219.7737 H   0  0  0  0  0  0  0  0  0  0  0  0
  142.6523   76.1577  221.1459 H   0  0  0  0  0  0  0  0  0  0  0  0
  137.8605   74.5007  221.6499 H   0  0  0  0  0  0  0  0  0  0  0  0
  136.8946   76.6609  222.3424 H   0  0  0  0  0  0  0  0  0  0  0  0
  137.1923   78.8785  223.1042 H   0  0  0  0  0  0  0  0  0  0  0  0
  141.2020   80.3796  223.7546 H   0  0  0  0  0  0  0  0  0  0  0  0
  142.1194   78.1631  223.0432 H   0  0  0  0  0  0  0  0  0  0  0  0
  1  2  2  0
  2  3  1  0
  3  4  1  0
  4  5  1  0
  5  6  2  0
  5  7  1  0
  7  8  1  0
  8  9  1  0
  9 10  1  0
 10 11  1  0
 11 12  1  0
 12 13  1  0
 13 14  2  0
 14 15  1  0
 15 16  2  0
 16 17  1  0
 16 18  1  0
 18 19  2  0
  2 20  1  0
 20 21  2  0
 21 22  1  0
 22 23  2  0
 23 24  1  0
 24 25  2  0
 25 26  1  0
 25 27  1  0
 27 28  2  0
 28 29  1  0
 29 30  2  0
 12  7  1  0
 19 13  1  0
 30 20  1  0
 29 23  1  0
  3 31  1  0
  4 32  1  0
  4 33  1  0
  8 34  1  0
  8 35  1  0
  9 36  1  0
  9 37  1  0
 10 38  1  0
 10 39  1  0
 11 40  1  0
 11 41  1  0
 12 42  1  1
 14 43  1  0
 15 44  1  0
 17 45  1  0
 18 46  1  0
 19 47  1  0
 21 48  1  0
 22 49  1  0
 24 50  1  0
 27 51  1  0
 28 52  1  0
M  END
>  <smiles>  (27) 
O=C(NCC(=O)N1CCCCC1c1ccc(O)cc1)c1ccc2cc(Cl)ccc2n1

>  <score_type>  (27) 
oracle

>  <origin>  (27) 
autodockgpu

>  <m_score__min__energy>  (27) 
-8.7400000000000002

>  <m_primary>  (27) 
energy

>  <meeko>  (27) 
{"free_energy": -7.12, "intermolecular_energy": -8.91, "internal_energy": -2.17, "cluster_size": 2, "cluster_id": 5, "rank_in_cluster": 1}

>  <energy>  (27) 
-8.39

>  <cluster_rmsd>  (27) 
0.44

>  <rmsd>  (27) 
270.38

>  <cluster>  (27) 
1

$$$$

     RDKit          3D

 52 55  0  0  1  0  0  0  0  0999 V2000
  140.3710   72.4750  220.7280 O   0  0  0  0  0  0  0  0  0  0  0  0
  140.0880   72.8950  221.9020 C   0  0  0  0  0  0  0  0  0  0  0  0
  139.7820   74.2620  222.1140 N   0  0  0  0  0  0  0  0  0  0  0  0
  139.7900   75.1840  220.9890 C   0  0  0  0  0  0  0  0  0  0  0  0
  140.8000   76.2340  221.1340 C   0  0  0  0  0  0  0  0  0  0  0  0
  141.9690   75.9700  220.7030 O   0  0  0  0  0  0  0  0  0  0  0  0
  140.6160   77.5050  221.7030 N   0  0  0  0  0  0  0  0  0  0  0  0
  141.0490   77.6720  223.0900 C   0  0  0  0  0  0  0  0  0  0  0  0
  142.0770   78.7730  223.1010 C   0  0  0  0  0  0  0  0  0  0  0  0
  141.4810   80.0310  222.5520 C   0  0  0  0  0  0  0  0  0  0  0  0
  140.0920   79.8350  221.9970 C   0  0  0  0  0  0  0  0  0  0  0  0
  140.0300   78.6460  221.0520 C   0  0  1  0  0  0  0  0  0  0  0  0
  140.5510   78.9730  219.7230 C   0  0  0  0  0  0  0  0  0  0  0  0
  139.7930   79.2830  218.6180 C   0  0  0  0  0  0  0  0  0  0  0  0
  140.3380   79.5850  217.3830 C   0  0  0  0  0  0  0  0  0  0  0  0
  141.7060   79.5880  217.2100 C   0  0  0  0  0  0  0  0  0  0  0  0
  142.2860   79.8860  215.9850 O   0  0  0  0  0  0  0  0  0  0  0  0
  142.4950   79.2820  218.3000 C   0  0  0  0  0  0  0  0  0  0  0  0
  141.9390   78.9830  219.5240 C   0  0  0  0  0  0  0  0  0  0  0  0
  140.0840   71.9560  223.0190 C   0  0  0  0  0  0  0  0  0  0  0  0
  139.5610   70.6890  222.8540 C   0  0  0  0  0  0  0  0  0  0  0  0
  139.5200   69.7470  223.8590 C   0  0  0  0  0  0  0  0  0  0  0  0
  140.0280   70.0920  225.0870 C   0  0  0  0  0  0  0  0  0  0  0  0
  139.9890   69.1480  226.0910 C   0  0  0  0  0  0  0  0  0  0  0  0
  140.5030   69.5080  227.3200 C   0  0  0  0  0  0  0  0  0  0  0  0
  140.4510   68.3100  228.5950 Cl  0  0  0  0  0  0  0  0  0  0  0  0
  141.0440   70.7670  227.5530 C   0  0  0  0  0  0  0  0  0  0  0  0
  141.0570   71.6820  226.4950 C   0  0  0  0  0  0  0  0  0  0  0  0
  140.5520   71.3570  225.2530 C   0  0  0  0  0  0  0  0  0  0  0  0
  140.5720   72.2570  224.2360 N   0  0  0  0  0  0  0  0  0  0  0  0
  139.5500   74.5830  223.0980 H   0  0  0  0  0  0  0  0  0  0  0  0
  139.9991   74.6174  220.0696 H   0  0  0  0  0  0  0  0  0  0  0  0
  138.8044   75.6706  220.9477 H   0  0  0  0  0  0  0  0  0  0  0  0
  140.1925   77.9485  223.7224 H   0  0  0  0  0  0  0  0  0  0  0  0
  141.4718   76.7363  223.4846 H   0  0  0  0  0  0  0  0  0  0  0  0
  142.4124   78.9487  224.1338 H   0  0  0  0  0  0  0  0  0  0  0  0
  142.9332   78.4756  222.4778 H   0  0  0  0  0  0  0  0  0  0  0  0
  141.4334   80.7770  223.3590 H   0  0  0  0  0  0  0  0  0  0  0  0
  142.1221   80.3624  221.7218 H   0  0  0  0  0  0  0  0  0  0  0  0
  139.3950   79.6650  222.8309 H   0  0  0  0  0  0  0  0  0  0  0  0
  139.8163   80.7380  221.4326 H   0  0  0  0  0  0  0  0  0  0  0  0
  138.9872   78.3707  220.8357 H   0  0  0  0  0  0  0  0  0  0  0  0
  138.6979   79.2912  218.7216 H   0  0  0  0  0  0  0  0  0  0  0  0
  139.6779   79.8236  216.5361 H   0  0  0  0  0  0  0  0  0  0  0  0
  143.2830   79.9870  215.8390 H   0  0  0  0  0  0  0  0  0  0  0  0
  143.5894   79.2768  218.1891 H   0  0  0  0  0  0  0  0  0  0  0  0
  142.6021   78.7455  220.3689 H   0  0  0  0  0  0  0  0  0  0  0  0
  139.1556   70.4171  221.8683 H   0  0  0  0  0  0  0  0  0  0  0  0
  139.0931   68.7487  223.6827 H   0  0  0  0  0  0  0  0  0  0  0  0
  139.5650   68.1476  225.9192 H   0  0  0  0  0  0  0  0  0  0  0  0
  141.4497   71.0357  228.5395 H   0  0  0  0  0  0  0  0  0  0  0  0
  141.4799   72.6844  226.6572 H   0  0  0  0  0  0  0  0  0  0  0  0
  1  2  2  0
  2  3  1  0
  3  4  1  0
  4  5  1  0
  5  6  2  0
  5  7  1  0
  7  8  1  0
  8  9  1  0
  9 10  1  0
 10 11  1  0
 11 12  1  0
 12 13  1  0
 13 14  2  0
 14 15  1  0
 15 16  2  0
 16 17  1  0
 16 18  1  0
 18 19  2  0
  2 20  1  0
 20 21  2  0
 21 22  1  0
 22 23  2  0
 23 24  1  0
 24 25  2  0
 25 26  1  0
 25 27  1  0
 27 28  2  0
 28 29  1  0
 29 30  2  0
 12  7  1  0
 19 13  1  0
 30 20  1  0
 29 23  1  0
  3 31  1  0
  4 32  1  0
  4 33  1  0
  8 34  1  0
  8 35  1  0
  9 36  1  0
  9 37  1  0
 10 38  1  0
 10 39  1  0
 11 40  1  0
 11 41  1  0
 12 42  1  6
 14 43  1  0
 15 44  1  0
 17 45  1  0
 18 46  1  0
 19 47  1  0
 21 48  1  0
 22 49  1  0
 24 50  1  0
 27 51  1  0
 28 52  1  0
M  END
>  <smiles>  (28) 
O=C(NCC(=O)N1CCCCC1c1ccc(O)cc1)c1ccc2cc(Cl)ccc2n1

>  <score_type>  (28) 
oracle

>  <origin>  (28) 
autodockgpu

>  <m_score__min__energy>  (28) 
-8.7400000000000002

>  <m_primary>  (28) 
energy

>  <meeko>  (28) 
{"free_energy": -8.0, "intermolecular_energy": -9.79, "internal_energy": -1.37, "cluster_size": 2, "cluster_id": 2, "rank_in_cluster": 2}

>  <energy>  (28) 
-8.28

>  <cluster_rmsd>  (28) 
1.14

>  <rmsd>  (28) 
270.08

>  <cluster>  (28) 
1

$$$$

     RDKit          3D

 52 55  0  0  1  0  0  0  0  0999 V2000
  138.3770   76.6930  222.7100 O   0  0  0  0  0  0  0  0  0  0  0  0
  139.2140   76.9040  221.7680 C   0  0  0  0  0  0  0  0  0  0  0  0
  139.1700   78.1150  221.0330 N   0  0  0  0  0  0  0  0  0  0  0  0
  138.1660   79.1170  221.3590 C   0  0  0  0  0  0  0  0  0  0  0  0
  138.7460   80.3010  221.9960 C   0  0  0  0  0  0  0  0  0  0  0  0
  138.0360   81.3590  221.9960 O   0  0  0  0  0  0  0  0  0  0  0  0
  140.0070   80.3950  222.6070 N   0  0  0  0  0  0  0  0  0  0  0  0
  140.1930   79.6430  223.8480 C   0  0  0  0  0  0  0  0  0  0  0  0
  141.3380   78.6920  223.6200 C   0  0  0  0  0  0  0  0  0  0  0  0
  142.5690   79.4580  223.2480 C   0  0  0  0  0  0  0  0  0  0  0  0
  142.3110   80.9310  223.0460 C   0  0  0  0  0  0  0  0  0  0  0  0
  141.1210   81.1710  222.1320 C   0  0  1  0  0  0  0  0  0  0  0  0
  141.4720   81.0060  220.7200 C   0  0  0  0  0  0  0  0  0  0  0  0
  141.8300   79.8240  220.1150 C   0  0  0  0  0  0  0  0  0  0  0  0
  142.1540   79.7240  218.7730 C   0  0  0  0  0  0  0  0  0  0  0  0
  142.1270   80.8440  217.9680 C   0  0  0  0  0  0  0  0  0  0  0  0
  142.4450   80.7790  216.6180 O   0  0  0  0  0  0  0  0  0  0  0  0
  141.7710   82.0450  218.5450 C   0  0  0  0  0  0  0  0  0  0  0  0
  141.4510   82.1300  219.8820 C   0  0  0  0  0  0  0  0  0  0  0  0
  140.2140   75.8880  221.4550 C   0  0  0  0  0  0  0  0  0  0  0  0
  139.9770   74.5660  221.7730 C   0  0  0  0  0  0  0  0  0  0  0  0
  140.8710   73.5500  221.5110 C   0  0  0  0  0  0  0  0  0  0  0  0
  142.0580   73.8750  220.9010 C   0  0  0  0  0  0  0  0  0  0  0  0
  142.9500   72.8590  220.6390 C   0  0  0  0  0  0  0  0  0  0  0  0
  144.1380   73.2000  220.0250 C   0  0  0  0  0  0  0  0  0  0  0  0
  145.2720   71.9080  219.6930 Cl  0  0  0  0  0  0  0  0  0  0  0  0
  144.4390   74.5120  219.6790 C   0  0  0  0  0  0  0  0  0  0  0  0
  143.4930   75.5010  219.9710 C   0  0  0  0  0  0  0  0  0  0  0  0
  142.2950   75.1970  220.5820 C   0  0  0  0  0  0  0  0  0  0  0  0
  141.3870   76.1680  220.8590 N   0  0  0  0  0  0  0  0  0  0  0  0
  139.8770   78.2630  220.2570 H   0  0  0  0  0  0  0  0  0  0  0  0
  137.6612   79.4261  220.4318 H   0  0  0  0  0  0  0  0  0  0  0  0
  137.4596   78.6650  222.0708 H   0  0  0  0  0  0  0  0  0  0  0  0
  140.4312   80.3298  224.6736 H   0  0  0  0  0  0  0  0  0  0  0  0
  139.2768   79.0966  224.1166 H   0  0  0  0  0  0  0  0  0  0  0  0
  141.5276   78.1217  224.5413 H   0  0  0  0  0  0  0  0  0  0  0  0
  141.0793   78.0025  222.8029 H   0  0  0  0  0  0  0  0  0  0  0  0
  143.3112   79.3395  224.0512 H   0  0  0  0  0  0  0  0  0  0  0  0
  142.9301   79.0539  222.2907 H   0  0  0  0  0  0  0  0  0  0  0  0
  142.1101   81.3953  224.0228 H   0  0  0  0  0  0  0  0  0  0  0  0
  143.2009   81.3745  222.5754 H   0  0  0  0  0  0  0  0  0  0  0  0
  140.7989   82.2219  222.1742 H   0  0  0  0  0  0  0  0  0  0  0  0
  141.8604   78.9117  220.7288 H   0  0  0  0  0  0  0  0  0  0  0  0
  142.4337   78.7490  218.3473 H   0  0  0  0  0  0  0  0  0  0  0  0
  143.3020   80.3810  216.2560 H   0  0  0  0  0  0  0  0  0  0  0  0
  141.7420   82.9532  217.9251 H   0  0  0  0  0  0  0  0  0  0  0  0
  141.1713   83.1066  220.3040 H   0  0  0  0  0  0  0  0  0  0  0  0
  139.0250   74.3098  222.2610 H   0  0  0  0  0  0  0  0  0  0  0  0
  140.6405   72.5093  221.7825 H   0  0  0  0  0  0  0  0  0  0  0  0
  142.7244   71.8167  220.9085 H   0  0  0  0  0  0  0  0  0  0  0  0
  145.3916   74.7652  219.1906 H   0  0  0  0  0  0  0  0  0  0  0  0
  143.7105   76.5464  219.7066 H   0  0  0  0  0  0  0  0  0  0  0  0
  1  2  2  0
  2  3  1  0
  3  4  1  0
  4  5  1  0
  5  6  2  0
  5  7  1  0
  7  8  1  0
  8  9  1  0
  9 10  1  0
 10 11  1  0
 11 12  1  0
 12 13  1  0
 13 14  2  0
 14 15  1  0
 15 16  2  0
 16 17  1  0
 16 18  1  0
 18 19  2  0
  2 20  1  0
 20 21  2  0
 21 22  1  0
 22 23  2  0
 23 24  1  0
 24 25  2  0
 25 26  1  0
 25 27  1  0
 27 28  2  0
 28 29  1  0
 29 30  2  0
 12  7  1  0
 19 13  1  0
 30 20  1  0
 29 23  1  0
  3 31  1  0
  4 32  1  0
  4 33  1  0
  8 34  1  0
  8 35  1  0
  9 36  1  0
  9 37  1  0
 10 38  1  0
 10 39  1  0
 11 40  1  0
 11 41  1  0
 12 42  1  6
 14 43  1  0
 15 44  1  0
 17 45  1  0
 18 46  1  0
 19 47  1  0
 21 48  1  0
 22 49  1  0
 24 50  1  0
 27 51  1  0
 28 52  1  0
M  END
>  <smiles>  (29) 
O=C(NCC(=O)N1CCCCC1c1ccc(O)cc1)c1ccc2cc(Cl)ccc2n1

>  <score_type>  (29) 
oracle

>  <origin>  (29) 
autodockgpu

>  <m_score__min__energy>  (29) 
-8.7400000000000002

>  <m_primary>  (29) 
energy

>  <meeko>  (29) 
{"free_energy": -7.24, "intermolecular_energy": -9.03, "internal_energy": -2.35, "cluster_size": 5, "cluster_id": 4, "rank_in_cluster": 3}

>  <energy>  (29) 
-7.9

>  <cluster_rmsd>  (29) 
1.4

>  <rmsd>  (29) 
270.16

>  <cluster>  (29) 
1

$$$$

     RDKit          3D

 52 55  0  0  1  0  0  0  0  0999 V2000
  139.6420   71.8310  220.7710 O   0  0  0  0  0  0  0  0  0  0  0  0
  139.7200   72.3470  221.9380 C   0  0  0  0  0  0  0  0  0  0  0  0
  139.6720   73.7540  222.0990 N   0  0  0  0  0  0  0  0  0  0  0  0
  139.5320   74.6080  220.9290 C   0  0  0  0  0  0  0  0  0  0  0  0
  140.5470   75.6610  220.8820 C   0  0  0  0  0  0  0  0  0  0  0  0
  140.9980   76.0740  222.0000 O   0  0  0  0  0  0  0  0  0  0  0  0
  141.0760   76.2690  219.7320 N   0  0  0  0  0  0  0  0  0  0  0  0
  140.8060   77.6970  219.5600 C   0  0  0  0  0  0  0  0  0  0  0  0
  142.1410   78.3910  219.4840 C   0  0  0  0  0  0  0  0  0  0  0  0
  142.9380   77.8390  218.3450 C   0  0  0  0  0  0  0  0  0  0  0  0
  142.2820   76.6510  217.6840 C   0  0  0  0  0  0  0  0  0  0  0  0
  141.8440   75.6140  218.7060 C   0  0  1  0  0  0  0  0  0  0  0  0
  142.9610   74.7860  219.1610 C   0  0  0  0  0  0  0  0  0  0  0  0
  143.3110   74.5580  220.4710 C   0  0  0  0  0  0  0  0  0  0  0  0
  144.3800   73.7640  220.8470 C   0  0  0  0  0  0  0  0  0  0  0  0
  145.1590   73.1520  219.8880 C   0  0  0  0  0  0  0  0  0  0  0  0
  146.2390   72.3480  220.2290 O   0  0  0  0  0  0  0  0  0  0  0  0
  144.8350   73.3600  218.5630 C   0  0  0  0  0  0  0  0  0  0  0  0
  143.7670   74.1530  218.2040 C   0  0  0  0  0  0  0  0  0  0  0  0
  139.8580   71.4760  223.1000 C   0  0  0  0  0  0  0  0  0  0  0  0
  139.4890   70.1480  223.0150 C   0  0  0  0  0  0  0  0  0  0  0  0
  139.5890   69.2640  224.0670 C   0  0  0  0  0  0  0  0  0  0  0  0
  140.0830   69.7320  225.2600 C   0  0  0  0  0  0  0  0  0  0  0  0
  140.1840   68.8460  226.3110 C   0  0  0  0  0  0  0  0  0  0  0  0
  140.6830   69.3300  227.5030 C   0  0  0  0  0  0  0  0  0  0  0  0
  140.8100   68.2040  228.8370 Cl  0  0  0  0  0  0  0  0  0  0  0  0
  141.0730   70.6550  227.6550 C   0  0  0  0  0  0  0  0  0  0  0  0
  140.9480   71.5070  226.5520 C   0  0  0  0  0  0  0  0  0  0  0  0
  140.4540   71.0580  225.3450 C   0  0  0  0  0  0  0  0  0  0  0  0
  140.3390   71.8980  224.2840 N   0  0  0  0  0  0  0  0  0  0  0  0
  139.7380   74.1540  223.0780 H   0  0  0  0  0  0  0  0  0  0  0  0
  139.6248   73.9874  220.0256 H   0  0  0  0  0  0  0  0  0  0  0  0
  138.5468   75.0942  220.9847 H   0  0  0  0  0  0  0  0  0  0  0  0
  140.2392   77.8654  218.6324 H   0  0  0  0  0  0  0  0  0  0  0  0
  140.2075   78.0871  220.3964 H   0  0  0  0  0  0  0  0  0  0  0  0
  141.9835   79.4688  219.3303 H   0  0  0  0  0  0  0  0  0  0  0  0
  142.6891   78.2253  220.4232 H   0  0  0  0  0  0  0  0  0  0  0  0
  143.0679   78.6307  217.5925 H   0  0  0  0  0  0  0  0  0  0  0  0
  143.9004   77.4970  218.7535 H   0  0  0  0  0  0  0  0  0  0  0  0
  141.3999   76.9957  217.1244 H   0  0  0  0  0  0  0  0  0  0  0  0
  143.0154   76.1829  217.0110 H   0  0  0  0  0  0  0  0  0  0  0  0
  141.1717   74.8727  218.2495 H   0  0  0  0  0  0  0  0  0  0  0  0
  142.7099   75.0315  221.2612 H   0  0  0  0  0  0  0  0  0  0  0  0
  144.6089   73.6207  221.9133 H   0  0  0  0  0  0  0  0  0  0  0  0
  146.3490   71.8980  221.1280 H   0  0  0  0  0  0  0  0  0  0  0  0
  145.4410   72.8836  217.7783 H   0  0  0  0  0  0  0  0  0  0  0  0
  143.5403   74.2934  217.1368 H   0  0  0  0  0  0  0  0  0  0  0  0
  139.0947   69.7767  222.0576 H   0  0  0  0  0  0  0  0  0  0  0  0
  139.2821   68.2137  223.9547 H   0  0  0  0  0  0  0  0  0  0  0  0
  139.8789   67.7946  226.2038 H   0  0  0  0  0  0  0  0  0  0  0  0
  141.4680   71.0230  228.6134 H   0  0  0  0  0  0  0  0  0  0  0  0
  141.2509   72.5599  226.6499 H   0  0  0  0  0  0  0  0  0  0  0  0
  1  2  2  0
  2  3  1  0
  3  4  1  0
  4  5  1  0
  5  6  2  0
  5  7  1  0
  7  8  1  0
  8  9  1  0
  9 10  1  0
 10 11  1  0
 11 12  1  0
 12 13  1  0
 13 14  2  0
 14 15  1  0
 15 16  2  0
 16 17  1  0
 16 18  1  0
 18 19  2  0
  2 20  1  0
 20 21  2  0
 21 22  1  0
 22 23  2  0
 23 24  1  0
 24 25  2  0
 25 26  1  0
 25 27  1  0
 27 28  2  0
 28 29  1  0
 29 30  2  0
 12  7  1  0
 19 13  1  0
 30 20  1  0
 29 23  1  0
  3 31  1  0
  4 32  1  0
  4 33  1  0
  8 34  1  0
  8 35  1  0
  9 36  1  0
  9 37  1  0
 10 38  1  0
 10 39  1  0
 11 40  1  0
 11 41  1  0
 12 42  1  6
 14 43  1  0
 15 44  1  0
 17 45  1  0
 18 46  1  0
 19 47  1  0
 21 48  1  0
 22 49  1  0
 24 50  1  0
 27 51  1  0
 28 52  1  0
M  END
>  <smiles>  (30) 
O=C(NCC(=O)N1CCCCC1c1ccc(O)cc1)c1ccc2cc(Cl)ccc2n1

>  <score_type>  (30) 
oracle

>  <origin>  (30) 
autodockgpu

>  <m_score__min__energy>  (30) 
-8.7400000000000002

>  <m_primary>  (30) 
energy

>  <meeko>  (30) 
{"free_energy": -8.46, "intermolecular_energy": -10.25, "internal_energy": -1.72, "cluster_size": 9, "cluster_id": 1, "rank_in_cluster": 6}

>  <energy>  (30) 
-8.46

>  <cluster_rmsd>  (30) 
0.0

>  <rmsd>  (30) 
270.48

>  <cluster>  (30) 
2

$$$$

     RDKit          3D

 52 55  0  0  1  0  0  0  0  0999 V2000
  139.8910   71.7870  220.8080 O   0  0  0  0  0  0  0  0  0  0  0  0
  139.8110   72.2980  221.9770 C   0  0  0  0  0  0  0  0  0  0  0  0
  139.6240   73.6940  222.1330 N   0  0  0  0  0  0  0  0  0  0  0  0
  139.5230   74.5430  220.9550 C   0  0  0  0  0  0  0  0  0  0  0  0
  140.5860   75.5480  220.8980 C   0  0  0  0  0  0  0  0  0  0  0  0
  141.1430   75.8580  222.0000 O   0  0  0  0  0  0  0  0  0  0  0  0
  141.0570   76.2100  219.7520 N   0  0  0  0  0  0  0  0  0  0  0  0
  140.7300   77.6310  219.6350 C   0  0  0  0  0  0  0  0  0  0  0  0
  142.0360   78.3760  219.5410 C   0  0  0  0  0  0  0  0  0  0  0  0
  142.8160   77.8890  218.3600 C   0  0  0  0  0  0  0  0  0  0  0  0
  142.1820   76.6990  217.6820 C   0  0  0  0  0  0  0  0  0  0  0  0
  141.8140   75.6160  218.6830 C   0  0  1  0  0  0  0  0  0  0  0  0
  142.9740   74.8150  219.0770 C   0  0  0  0  0  0  0  0  0  0  0  0
  143.8220   75.0900  220.1240 C   0  0  0  0  0  0  0  0  0  0  0  0
  144.9070   74.2970  220.4530 C   0  0  0  0  0  0  0  0  0  0  0  0
  145.1860   73.1650  219.7180 C   0  0  0  0  0  0  0  0  0  0  0  0
  146.2670   72.3470  220.0200 O   0  0  0  0  0  0  0  0  0  0  0  0
  144.3550   72.8600  218.6600 C   0  0  0  0  0  0  0  0  0  0  0  0
  143.2780   73.6590  218.3440 C   0  0  0  0  0  0  0  0  0  0  0  0
  139.9130   71.4320  223.1470 C   0  0  0  0  0  0  0  0  0  0  0  0
  139.4950   70.1190  223.0720 C   0  0  0  0  0  0  0  0  0  0  0  0
  139.5580   69.2400  224.1320 C   0  0  0  0  0  0  0  0  0  0  0  0
  140.0670   69.7000  225.3220 C   0  0  0  0  0  0  0  0  0  0  0  0
  140.1320   68.8200  226.3800 C   0  0  0  0  0  0  0  0  0  0  0  0
  140.6450   69.2950  227.5700 C   0  0  0  0  0  0  0  0  0  0  0  0
  140.7260   68.1770  228.9140 Cl  0  0  0  0  0  0  0  0  0  0  0  0
  141.0840   70.6060  227.7120 C   0  0  0  0  0  0  0  0  0  0  0  0
  140.9940   71.4530  226.6020 C   0  0  0  0  0  0  0  0  0  0  0  0
  140.4870   71.0120  225.3970 C   0  0  0  0  0  0  0  0  0  0  0  0
  140.4060   71.8460  224.3290 N   0  0  0  0  0  0  0  0  0  0  0  0
  139.5610   74.0910  223.1140 H   0  0  0  0  0  0  0  0  0  0  0  0
  139.5865   73.9105  220.0573 H   0  0  0  0  0  0  0  0  0  0  0  0
  138.5614   75.0747  221.0065 H   0  0  0  0  0  0  0  0  0  0  0  0
  140.1284   77.8072  218.7311 H   0  0  0  0  0  0  0  0  0  0  0  0
  140.1443   77.9722  220.5014 H   0  0  0  0  0  0  0  0  0  0  0  0
  141.8351   79.4515  219.4272 H   0  0  0  0  0  0  0  0  0  0  0  0
  142.6192   78.2018  220.4572 H   0  0  0  0  0  0  0  0  0  0  0  0
  142.8934   78.7079  217.6297 H   0  0  0  0  0  0  0  0  0  0  0  0
  143.8027   77.5702  218.7273 H   0  0  0  0  0  0  0  0  0  0  0  0
  141.2709   77.0283  217.1611 H   0  0  0  0  0  0  0  0  0  0  0  0
  142.9098   76.2789  216.9722 H   0  0  0  0  0  0  0  0  0  0  0  0
  141.1541   74.8653  218.2236 H   0  0  0  0  0  0  0  0  0  0  0  0
  143.6278   75.9865  220.7311 H   0  0  0  0  0  0  0  0  0  0  0  0
  145.5487   74.5708  221.3035 H   0  0  0  0  0  0  0  0  0  0  0  0
  146.3650   71.8350  220.8870 H   0  0  0  0  0  0  0  0  0  0  0  0
  144.5560   71.9620  218.0573 H   0  0  0  0  0  0  0  0  0  0  0  0
  142.6386   73.3823  217.4927 H   0  0  0  0  0  0  0  0  0  0  0  0
  139.0903   69.7547  222.1162 H   0  0  0  0  0  0  0  0  0  0  0  0
  139.2111   68.2013  224.0280 H   0  0  0  0  0  0  0  0  0  0  0  0
  139.7886   67.7798  226.2803 H   0  0  0  0  0  0  0  0  0  0  0  0
  141.4901   70.9669  228.6685 H   0  0  0  0  0  0  0  0  0  0  0  0
  141.3354   72.4948  226.6921 H   0  0  0  0  0  0  0  0  0  0  0  0
  1  2  2  0
  2  3  1  0
  3  4  1  0
  4  5  1  0
  5  6  2  0
  5  7  1  0
  7  8  1  0
  8  9  1  0
  9 10  1  0
 10 11  1  0
 11 12  1  0
 12 13  1  0
 13 14  2  0
 14 15  1  0
 15 16  2  0
 16 17  1  0
 16 18  1  0
 18 19  2  0
  2 20  1  0
 20 21  2  0
 21 22  1  0
 22 23  2  0
 23 24  1  0
 24 25  2  0
 25 26  1  0
 25 27  1  0
 27 28  2  0
 28 29  1  0
 29 30  2  0
 12  7  1  0
 19 13  1  0
 30 20  1  0
 29 23  1  0
  3 31  1  0
  4 32  1  0
  4 33  1  0
  8 34  1  0
  8 35  1  0
  9 36  1  0
  9 37  1  0
 10 38  1  0
 10 39  1  0
 11 40  1  0
 11 41  1  0
 12 42  1  6
 14 43  1  0
 15 44  1  0
 17 45  1  0
 18 46  1  0
 19 47  1  0
 21 48  1  0
 22 49  1  0
 24 50  1  0
 27 51  1  0
 28 52  1  0
M  END
>  <smiles>  (31) 
O=C(NCC(=O)N1CCCCC1c1ccc(O)cc1)c1ccc2cc(Cl)ccc2n1

>  <score_type>  (31) 
oracle

>  <origin>  (31) 
autodockgpu

>  <m_score__min__energy>  (31) 
-8.7400000000000002

>  <m_primary>  (31) 
energy

>  <meeko>  (31) 
{"free_energy": -8.68, "intermolecular_energy": -10.47, "internal_energy": -1.72, "cluster_size": 9, "cluster_id": 1, "rank_in_cluster": 2}

>  <energy>  (31) 
-8.0

>  <cluster_rmsd>  (31) 
1.73

>  <rmsd>  (31) 
270.48

>  <cluster>  (31) 
2

$$$$

     RDKit          3D

 52 55  0  0  1  0  0  0  0  0999 V2000
  140.4020   72.4830  220.7180 O   0  0  0  0  0  0  0  0  0  0  0  0
  140.1100   72.8950  221.8920 C   0  0  0  0  0  0  0  0  0  0  0  0
  139.7900   74.2580  222.1110 N   0  0  0  0  0  0  0  0  0  0  0  0
  139.7950   75.1860  220.9900 C   0  0  0  0  0  0  0  0  0  0  0  0
  139.2610   76.5000  221.3520 C   0  0  0  0  0  0  0  0  0  0  0  0
  137.9980   76.5900  221.4850 O   0  0  0  0  0  0  0  0  0  0  0  0
  139.9970   77.6770  221.5660 N   0  0  0  0  0  0  0  0  0  0  0  0
  140.0010   78.2110  222.9280 C   0  0  0  0  0  0  0  0  0  0  0  0
  141.4380   78.2640  223.3760 C   0  0  0  0  0  0  0  0  0  0  0  0
  142.2300   79.1250  222.4430 C   0  0  0  0  0  0  0  0  0  0  0  0
  141.4410   79.5740  221.2380 C   0  0  0  0  0  0  0  0  0  0  0  0
  140.7310   78.4090  220.5680 C   0  0  1  0  0  0  0  0  0  0  0  0
  141.6360   77.6270  219.7250 C   0  0  0  0  0  0  0  0  0  0  0  0
  142.4390   76.5950  220.1500 C   0  0  0  0  0  0  0  0  0  0  0  0
  143.2790   75.8870  219.3080 C   0  0  0  0  0  0  0  0  0  0  0  0
  143.3420   76.2020  217.9670 C   0  0  0  0  0  0  0  0  0  0  0  0
  144.1730   75.5130  217.0940 O   0  0  0  0  0  0  0  0  0  0  0  0
  142.5480   77.2320  217.5080 C   0  0  0  0  0  0  0  0  0  0  0  0
  141.7160   77.9280  218.3570 C   0  0  0  0  0  0  0  0  0  0  0  0
  140.1090   71.9490  223.0040 C   0  0  0  0  0  0  0  0  0  0  0  0
  139.5960   70.6800  222.8300 C   0  0  0  0  0  0  0  0  0  0  0  0
  139.5590   69.7320  223.8290 C   0  0  0  0  0  0  0  0  0  0  0  0
  140.0610   70.0730  225.0620 C   0  0  0  0  0  0  0  0  0  0  0  0
  140.0240   69.1240  226.0600 C   0  0  0  0  0  0  0  0  0  0  0  0
  140.5320   69.4800  227.2930 C   0  0  0  0  0  0  0  0  0  0  0  0
  140.4850   68.2740  228.5610 Cl  0  0  0  0  0  0  0  0  0  0  0  0
  141.0630   70.7420  227.5350 C   0  0  0  0  0  0  0  0  0  0  0  0
  141.0730   71.6630  226.4820 C   0  0  0  0  0  0  0  0  0  0  0  0
  140.5740   71.3410  225.2360 C   0  0  0  0  0  0  0  0  0  0  0  0
  140.5910   72.2470  224.2240 N   0  0  0  0  0  0  0  0  0  0  0  0
  139.5510   74.5710  223.0950 H   0  0  0  0  0  0  0  0  0  0  0  0
  140.8299   75.3098  220.6383 H   0  0  0  0  0  0  0  0  0  0  0  0
  139.1500   74.7664  220.2039 H   0  0  0  0  0  0  0  0  0  0  0  0
  139.5643   79.2205  222.9392 H   0  0  0  0  0  0  0  0  0  0  0  0
  139.4035   77.5773  223.5998 H   0  0  0  0  0  0  0  0  0  0  0  0
  141.4884   78.6839  224.3915 H   0  0  0  0  0  0  0  0  0  0  0  0
  141.8563   77.2466  223.3736 H   0  0  0  0  0  0  0  0  0  0  0  0
  142.5687   80.0163  222.9916 H   0  0  0  0  0  0  0  0  0  0  0  0
  143.0735   78.5216  222.0764 H   0  0  0  0  0  0  0  0  0  0  0  0
  140.6913   80.3129  221.5573 H   0  0  0  0  0  0  0  0  0  0  0  0
  142.1414   80.0132  220.5124 H   0  0  0  0  0  0  0  0  0  0  0  0
  139.9846   78.7678  219.8440 H   0  0  0  0  0  0  0  0  0  0  0  0
  142.4125   76.3177  221.2141 H   0  0  0  0  0  0  0  0  0  0  0  0
  143.8979   75.0711  219.7096 H   0  0  0  0  0  0  0  0  0  0  0  0
  145.1800   75.4760  217.1800 H   0  0  0  0  0  0  0  0  0  0  0  0
  142.5798   77.5032  216.4424 H   0  0  0  0  0  0  0  0  0  0  0  0
  141.0974   78.7421  217.9513 H   0  0  0  0  0  0  0  0  0  0  0  0
  139.1954   70.4110  221.8415 H   0  0  0  0  0  0  0  0  0  0  0  0
  139.1400   68.7317  223.6451 H   0  0  0  0  0  0  0  0  0  0  0  0
  139.6062   68.1223  225.8813 H   0  0  0  0  0  0  0  0  0  0  0  0
  141.4631   71.0082  228.5245 H   0  0  0  0  0  0  0  0  0  0  0  0
  141.4883   72.6675  226.6510 H   0  0  0  0  0  0  0  0  0  0  0  0
  1  2  2  0
  2  3  1  0
  3  4  1  0
  4  5  1  0
  5  6  2  0
  5  7  1  0
  7  8  1  0
  8  9  1  0
  9 10  1  0
 10 11  1  0
 11 12  1  0
 12 13  1  0
 13 14  2  0
 14 15  1  0
 15 16  2  0
 16 17  1  0
 16 18  1  0
 18 19  2  0
  2 20  1  0
 20 21  2  0
 21 22  1  0
 22 23  2  0
 23 24  1  0
 24 25  2  0
 25 26  1  0
 25 27  1  0
 27 28  2  0
 28 29  1  0
 29 30  2  0
 12  7  1  0
 19 13  1  0
 30 20  1  0
 29 23  1  0
  3 31  1  0
  4 32  1  0
  4 33  1  0
  8 34  1  0
  8 35  1  0
  9 36  1  0
  9 37  1  0
 10 38  1  0
 10 39  1  0
 11 40  1  0
 11 41  1  0
 12 42  1  6
 14 43  1  0
 15 44  1  0
 17 45  1  0
 18 46  1  0
 19 47  1  0
 21 48  1  0
 22 49  1  0
 24 50  1  0
 27 51  1  0
 28 52  1  0
M  END
>  <smiles>  (32) 
O=C(NCC(=O)N1CCCCC1c1ccc(O)cc1)c1ccc2cc(Cl)ccc2n1

>  <score_type>  (32) 
oracle

>  <origin>  (32) 
autodockgpu

>  <m_score__min__energy>  (32) 
-8.7400000000000002

>  <m_primary>  (32) 
energy

>  <meeko>  (32) 
{"free_energy": -8.46, "intermolecular_energy": -10.25, "internal_energy": -1.41, "cluster_size": 2, "cluster_id": 2, "rank_in_cluster": 1}

>  <energy>  (32) 
-8.33

>  <cluster_rmsd>  (32) 
0.0

>  <rmsd>  (32) 
269.98

>  <cluster>  (32) 
3

$$$$

     RDKit          3D

 52 55  0  0  1  0  0  0  0  0999 V2000
  140.0490   73.7370  222.3080 O   0  0  0  0  0  0  0  0  0  0  0  0
  140.0020   72.4740  222.1200 C   0  0  0  0  0  0  0  0  0  0  0  0
  139.9000   71.9520  220.8060 N   0  0  0  0  0  0  0  0  0  0  0  0
  139.8500   72.8640  219.6730 C   0  0  0  0  0  0  0  0  0  0  0  0
  141.1580   73.0430  219.0420 C   0  0  0  0  0  0  0  0  0  0  0  0
  141.1800   73.0920  217.7690 O   0  0  0  0  0  0  0  0  0  0  0  0
  142.3970   73.1640  219.6930 N   0  0  0  0  0  0  0  0  0  0  0  0
  143.2290   71.9620  219.7500 C   0  0  0  0  0  0  0  0  0  0  0  0
  144.5330   72.2970  219.0750 C   0  0  0  0  0  0  0  0  0  0  0  0
  145.1830   73.4530  219.7680 C   0  0  0  0  0  0  0  0  0  0  0  0
  144.3110   74.0700  220.8350 C   0  0  0  0  0  0  0  0  0  0  0  0
  142.9110   74.3540  220.3170 C   0  0  1  0  0  0  0  0  0  0  0  0
  142.8590   75.5800  219.5200 C   0  0  0  0  0  0  0  0  0  0  0  0
  143.3380   75.7250  218.2390 C   0  0  0  0  0  0  0  0  0  0  0  0
  143.2630   76.9110  217.5290 C   0  0  0  0  0  0  0  0  0  0  0  0
  142.6850   78.0250  218.0990 C   0  0  0  0  0  0  0  0  0  0  0  0
  142.5930   79.2300  217.4150 O   0  0  0  0  0  0  0  0  0  0  0  0
  142.1940   77.9120  219.3830 C   0  0  0  0  0  0  0  0  0  0  0  0
  142.2750   76.7260  220.0780 C   0  0  0  0  0  0  0  0  0  0  0  0
  140.0550   71.5750  223.2680 C   0  0  0  0  0  0  0  0  0  0  0  0
  139.5930   70.2790  223.1520 C   0  0  0  0  0  0  0  0  0  0  0  0
  139.6080   69.3720  224.1890 C   0  0  0  0  0  0  0  0  0  0  0  0
  140.1120   69.7830  225.3990 C   0  0  0  0  0  0  0  0  0  0  0  0
  140.1280   68.8740  226.4350 C   0  0  0  0  0  0  0  0  0  0  0  0
  140.6380   69.3000  227.6450 C   0  0  0  0  0  0  0  0  0  0  0  0
  140.6570   68.1450  228.9600 Cl  0  0  0  0  0  0  0  0  0  0  0  0
  141.1190   70.5910  227.8280 C   0  0  0  0  0  0  0  0  0  0  0  0
  141.0770   71.4680  226.7400 C   0  0  0  0  0  0  0  0  0  0  0  0
  140.5750   71.0770  225.5150 C   0  0  0  0  0  0  0  0  0  0  0  0
  140.5420   71.9400  224.4680 N   0  0  0  0  0  0  0  0  0  0  0  0
  139.8640   70.9000  220.6800 H   0  0  0  0  0  0  0  0  0  0  0  0
  139.1498   72.4614  218.9262 H   0  0  0  0  0  0  0  0  0  0  0  0
  139.5212   73.8449  220.0467 H   0  0  0  0  0  0  0  0  0  0  0  0
  143.4081   71.6758  220.7969 H   0  0  0  0  0  0  0  0  0  0  0  0
  142.7333   71.1172  219.2493 H   0  0  0  0  0  0  0  0  0  0  0  0
  145.2007   71.4239  219.1177 H   0  0  0  0  0  0  0  0  0  0  0  0
  144.3392   72.5660  218.0261 H   0  0  0  0  0  0  0  0  0  0  0  0
  146.1141   73.1017  220.2366 H   0  0  0  0  0  0  0  0  0  0  0  0
  145.3705   74.2271  219.0093 H   0  0  0  0  0  0  0  0  0  0  0  0
  144.2430   73.3763  221.6860 H   0  0  0  0  0  0  0  0  0  0  0  0
  144.7649   75.0239  221.1416 H   0  0  0  0  0  0  0  0  0  0  0  0
  142.2243   74.5829  221.1453 H   0  0  0  0  0  0  0  0  0  0  0  0
  143.8042   74.8546  217.7541 H   0  0  0  0  0  0  0  0  0  0  0  0
  143.6659   76.9646  216.5069 H   0  0  0  0  0  0  0  0  0  0  0  0
  143.3270   79.6060  216.8280 H   0  0  0  0  0  0  0  0  0  0  0  0
  141.7286   78.7865  219.8612 H   0  0  0  0  0  0  0  0  0  0  0  0
  141.8702   76.6763  221.0996 H   0  0  0  0  0  0  0  0  0  0  0  0
  139.1920   69.9536  222.1808 H   0  0  0  0  0  0  0  0  0  0  0  0
  139.2276   68.3490  224.0521 H   0  0  0  0  0  0  0  0  0  0  0  0
  139.7494   67.8497  226.3029 H   0  0  0  0  0  0  0  0  0  0  0  0
  141.5208   70.9132  228.8000 H   0  0  0  0  0  0  0  0  0  0  0  0
  141.4530   72.4944  226.8631 H   0  0  0  0  0  0  0  0  0  0  0  0
  1  2  2  0
  2  3  1  0
  3  4  1  0
  4  5  1  0
  5  6  2  0
  5  7  1  0
  7  8  1  0
  8  9  1  0
  9 10  1  0
 10 11  1  0
 11 12  1  0
 12 13  1  0
 13 14  2  0
 14 15  1  0
 15 16  2  0
 16 17  1  0
 16 18  1  0
 18 19  2  0
  2 20  1  0
 20 21  2  0
 21 22  1  0
 22 23  2  0
 23 24  1  0
 24 25  2  0
 25 26  1  0
 25 27  1  0
 27 28  2  0
 28 29  1  0
 29 30  2  0
 12  7  1  0
 19 13  1  0
 30 20  1  0
 29 23  1  0
  3 31  1  0
  4 32  1  0
  4 33  1  0
  8 34  1  0
  8 35  1  0
  9 36  1  0
  9 37  1  0
 10 38  1  0
 10 39  1  0
 11 40  1  0
 11 41  1  0
 12 42  1  1
 14 43  1  0
 15 44  1  0
 17 45  1  0
 18 46  1  0
 19 47  1  0
 21 48  1  0
 22 49  1  0
 24 50  1  0
 27 51  1  0
 28 52  1  0
M  END
>  <smiles>  (33) 
O=C(NCC(=O)N1CCCCC1c1ccc(O)cc1)c1ccc2cc(Cl)ccc2n1

>  <score_type>  (33) 
oracle

>  <origin>  (33) 
autodockgpu

>  <m_score__min__energy>  (33) 
-8.7400000000000002

>  <m_primary>  (33) 
energy

>  <meeko>  (33) 
{"free_energy": -8.33, "intermolecular_energy": -10.12, "internal_energy": -1.6, "cluster_size": 2, "cluster_id": 3, "rank_in_cluster": 1}

>  <energy>  (33) 
-7.97

>  <cluster_rmsd>  (33) 
1.43

>  <rmsd>  (33) 
270.02

>  <cluster>  (33) 
3

$$$$

     RDKit          3D

 52 55  0  0  1  0  0  0  0  0999 V2000
  138.3980   76.8320  222.7110 O   0  0  0  0  0  0  0  0  0  0  0  0
  139.2260   77.0130  221.7530 C   0  0  0  0  0  0  0  0  0  0  0  0
  139.1920   78.2120  220.9990 N   0  0  0  0  0  0  0  0  0  0  0  0
  138.2100   79.2360  221.3210 C   0  0  0  0  0  0  0  0  0  0  0  0
  138.7910   80.3490  222.0740 C   0  0  0  0  0  0  0  0  0  0  0  0
  138.0580   81.3790  222.2340 O   0  0  0  0  0  0  0  0  0  0  0  0
  140.0750   80.4030  222.6400 N   0  0  0  0  0  0  0  0  0  0  0  0
  140.2950   79.6040  223.8460 C   0  0  0  0  0  0  0  0  0  0  0  0
  141.4160   78.6450  223.5400 C   0  0  0  0  0  0  0  0  0  0  0  0
  142.6440   79.4060  223.1490 C   0  0  0  0  0  0  0  0  0  0  0  0
  142.4030   80.8890  223.0100 C   0  0  0  0  0  0  0  0  0  0  0  0
  141.1830   81.1790  222.1500 C   0  0  1  0  0  0  0  0  0  0  0  0
  141.4780   81.0600  220.7210 C   0  0  0  0  0  0  0  0  0  0  0  0
  141.4530   82.0880  219.8080 C   0  0  0  0  0  0  0  0  0  0  0  0
  141.7410   81.9200  218.4650 C   0  0  0  0  0  0  0  0  0  0  0  0
  142.0750   80.6730  217.9790 C   0  0  0  0  0  0  0  0  0  0  0  0
  142.3690   80.4680  216.6370 O   0  0  0  0  0  0  0  0  0  0  0  0
  142.1100   79.6200  218.8690 C   0  0  0  0  0  0  0  0  0  0  0  0
  141.8200   79.8020  220.2040 C   0  0  0  0  0  0  0  0  0  0  0  0
  140.2050   75.9750  221.4450 C   0  0  0  0  0  0  0  0  0  0  0  0
  139.9450   74.6610  221.7790 C   0  0  0  0  0  0  0  0  0  0  0  0
  140.8180   73.6260  221.5220 C   0  0  0  0  0  0  0  0  0  0  0  0
  142.0060   73.9220  220.9000 C   0  0  0  0  0  0  0  0  0  0  0  0
  142.8770   72.8860  220.6430 C   0  0  0  0  0  0  0  0  0  0  0  0
  144.0670   73.1980  220.0170 C   0  0  0  0  0  0  0  0  0  0  0  0
  145.1730   71.8810  219.6920 Cl  0  0  0  0  0  0  0  0  0  0  0  0
  144.3900   74.5000  219.6550 C   0  0  0  0  0  0  0  0  0  0  0  0
  143.4650   75.5100  219.9420 C   0  0  0  0  0  0  0  0  0  0  0  0
  142.2650   75.2350  220.5660 C   0  0  0  0  0  0  0  0  0  0  0  0
  141.3780   76.2260  220.8370 N   0  0  0  0  0  0  0  0  0  0  0  0
  139.8910   78.3350  220.2110 H   0  0  0  0  0  0  0  0  0  0  0  0
  137.7864   79.6264  220.3839 H   0  0  0  0  0  0  0  0  0  0  0  0
  137.4362   78.7726  221.9507 H   0  0  0  0  0  0  0  0  0  0  0  0
  140.5749   80.2568  224.6859 H   0  0  0  0  0  0  0  0  0  0  0  0
  139.3810   79.0619  224.1302 H   0  0  0  0  0  0  0  0  0  0  0  0
  141.6312   78.0386  224.4322 H   0  0  0  0  0  0  0  0  0  0  0  0
  141.1157   77.9897  222.7090 H   0  0  0  0  0  0  0  0  0  0  0  0
  143.4139   79.2472  223.9184 H   0  0  0  0  0  0  0  0  0  0  0  0
  142.9617   79.0320  222.1645 H   0  0  0  0  0  0  0  0  0  0  0  0
  142.2460   81.3205  224.0096 H   0  0  0  0  0  0  0  0  0  0  0  0
  143.2819   81.3365  222.5229 H   0  0  0  0  0  0  0  0  0  0  0  0
  140.8796   82.2324  222.2408 H   0  0  0  0  0  0  0  0  0  0  0  0
  141.1907   83.0954  220.1634 H   0  0  0  0  0  0  0  0  0  0  0  0
  141.7035   82.7827  217.7835 H   0  0  0  0  0  0  0  0  0  0  0  0
  143.2940   80.2530  216.2870 H   0  0  0  0  0  0  0  0  0  0  0  0
  142.3744   78.6157  218.5064 H   0  0  0  0  0  0  0  0  0  0  0  0
  141.8578   78.9370  220.8825 H   0  0  0  0  0  0  0  0  0  0  0  0
  138.9917   74.4280  222.2760 H   0  0  0  0  0  0  0  0  0  0  0  0
  140.5704   72.5928  221.8068 H   0  0  0  0  0  0  0  0  0  0  0  0
  142.6337   71.8511  220.9255 H   0  0  0  0  0  0  0  0  0  0  0  0
  145.3440   74.7298  219.1579 H   0  0  0  0  0  0  0  0  0  0  0  0
  143.6998   76.5480  219.6636 H   0  0  0  0  0  0  0  0  0  0  0  0
  1  2  2  0
  2  3  1  0
  3  4  1  0
  4  5  1  0
  5  6  2  0
  5  7  1  0
  7  8  1  0
  8  9  1  0
  9 10  1  0
 10 11  1  0
 11 12  1  0
 12 13  1  0
 13 14  2  0
 14 15  1  0
 15 16  2  0
 16 17  1  0
 16 18  1  0
 18 19  2  0
  2 20  1  0
 20 21  2  0
 21 22  1  0
 22 23  2  0
 23 24  1  0
 24 25  2  0
 25 26  1  0
 25 27  1  0
 27 28  2  0
 28 29  1  0
 29 30  2  0
 12  7  1  0
 19 13  1  0
 30 20  1  0
 29 23  1  0
  3 31  1  0
  4 32  1  0
  4 33  1  0
  8 34  1  0
  8 35  1  0
  9 36  1  0
  9 37  1  0
 10 38  1  0
 10 39  1  0
 11 40  1  0
 11 41  1  0
 12 42  1  6
 14 43  1  0
 15 44  1  0
 17 45  1  0
 18 46  1  0
 19 47  1  0
 21 48  1  0
 22 49  1  0
 24 50  1  0
 27 51  1  0
 28 52  1  0
M  END
>  <smiles>  (34) 
O=C(NCC(=O)N1CCCCC1c1ccc(O)cc1)c1ccc2cc(Cl)ccc2n1

>  <score_type>  (34) 
oracle

>  <origin>  (34) 
autodockgpu

>  <m_score__min__energy>  (34) 
-8.7400000000000002

>  <m_primary>  (34) 
energy

>  <meeko>  (34) 
{"free_energy": -7.27, "intermolecular_energy": -9.06, "internal_energy": -2.34, "cluster_size": 5, "cluster_id": 4, "rank_in_cluster": 2}

>  <energy>  (34) 
-7.27

>  <cluster_rmsd>  (34) 
0.0

>  <rmsd>  (34) 
270.49

>  <cluster>  (34) 
4

$$$$

     RDKit          3D

 52 55  0  0  1  0  0  0  0  0999 V2000
  139.8150   71.7740  220.8090 O   0  0  0  0  0  0  0  0  0  0  0  0
  139.7730   72.2900  221.9780 C   0  0  0  0  0  0  0  0  0  0  0  0
  139.6160   73.6890  222.1340 N   0  0  0  0  0  0  0  0  0  0  0  0
  139.5030   74.5360  220.9560 C   0  0  0  0  0  0  0  0  0  0  0  0
  140.5440   75.5630  220.9040 C   0  0  0  0  0  0  0  0  0  0  0  0
  141.0720   75.9020  222.0130 O   0  0  0  0  0  0  0  0  0  0  0  0
  141.0230   76.2190  219.7580 N   0  0  0  0  0  0  0  0  0  0  0  0
  140.6980   77.6400  219.6310 C   0  0  0  0  0  0  0  0  0  0  0  0
  142.0040   78.3840  219.5420 C   0  0  0  0  0  0  0  0  0  0  0  0
  142.7930   77.8900  218.3700 C   0  0  0  0  0  0  0  0  0  0  0  0
  142.1640   76.6960  217.6940 C   0  0  0  0  0  0  0  0  0  0  0  0
  141.7880   75.6190  218.6980 C   0  0  1  0  0  0  0  0  0  0  0  0
  142.9460   74.8200  219.1050 C   0  0  0  0  0  0  0  0  0  0  0  0
  143.5720   74.8790  220.3270 C   0  0  0  0  0  0  0  0  0  0  0  0
  144.6660   74.1000  220.6600 C   0  0  0  0  0  0  0  0  0  0  0  0
  145.1830   73.2050  219.7470 C   0  0  0  0  0  0  0  0  0  0  0  0
  146.2800   72.4080  220.0470 O   0  0  0  0  0  0  0  0  0  0  0  0
  144.5770   73.1210  218.5110 C   0  0  0  0  0  0  0  0  0  0  0  0
  143.4890   73.9040  218.1930 C   0  0  0  0  0  0  0  0  0  0  0  0
  139.8870   71.4250  223.1480 C   0  0  0  0  0  0  0  0  0  0  0  0
  139.4910   70.1050  223.0720 C   0  0  0  0  0  0  0  0  0  0  0  0
  139.5670   69.2270  224.1310 C   0  0  0  0  0  0  0  0  0  0  0  0
  140.0640   69.6950  225.3230 C   0  0  0  0  0  0  0  0  0  0  0  0
  140.1410   68.8160  226.3820 C   0  0  0  0  0  0  0  0  0  0  0  0
  140.6420   69.3000  227.5730 C   0  0  0  0  0  0  0  0  0  0  0  0
  140.7390   68.1830  228.9170 Cl  0  0  0  0  0  0  0  0  0  0  0  0
  141.0580   70.6180  227.7170 C   0  0  0  0  0  0  0  0  0  0  0  0
  140.9560   71.4640  226.6060 C   0  0  0  0  0  0  0  0  0  0  0  0
  140.4600   71.0140  225.4000 C   0  0  0  0  0  0  0  0  0  0  0  0
  140.3680   71.8470  224.3310 N   0  0  0  0  0  0  0  0  0  0  0  0
  139.5840   74.0900  223.1150 H   0  0  0  0  0  0  0  0  0  0  0  0
  139.5843   73.9052  220.0585 H   0  0  0  0  0  0  0  0  0  0  0  0
  138.5302   75.0473  221.0033 H   0  0  0  0  0  0  0  0  0  0  0  0
  140.1028   77.8116  218.7220 H   0  0  0  0  0  0  0  0  0  0  0  0
  140.1070   77.9860  220.4918 H   0  0  0  0  0  0  0  0  0  0  0  0
  141.8039   79.4588  219.4200 H   0  0  0  0  0  0  0  0  0  0  0  0
  142.5804   78.2153  220.4636 H   0  0  0  0  0  0  0  0  0  0  0  0
  142.8762   78.7046  217.6355 H   0  0  0  0  0  0  0  0  0  0  0  0
  143.7767   77.5732  218.7467 H   0  0  0  0  0  0  0  0  0  0  0  0
  141.2570   77.0225  217.1641 H   0  0  0  0  0  0  0  0  0  0  0  0
  142.8974   76.2717  216.9925 H   0  0  0  0  0  0  0  0  0  0  0  0
  141.1310   74.8659  218.2384 H   0  0  0  0  0  0  0  0  0  0  0  0
  143.1834   75.5816  221.0789 H   0  0  0  0  0  0  0  0  0  0  0  0
  145.1245   74.1948  221.6554 H   0  0  0  0  0  0  0  0  0  0  0  0
  146.3550   71.8380  220.8800 H   0  0  0  0  0  0  0  0  0  0  0  0
  144.9700   72.4151  217.7645 H   0  0  0  0  0  0  0  0  0  0  0  0
  143.0338   73.8079  217.1962 H   0  0  0  0  0  0  0  0  0  0  0  0
  139.0938   69.7345  222.1155 H   0  0  0  0  0  0  0  0  0  0  0  0
  139.2394   68.1823  224.0251 H   0  0  0  0  0  0  0  0  0  0  0  0
  139.8159   67.7700  226.2816 H   0  0  0  0  0  0  0  0  0  0  0  0
  141.4553   70.9855  228.6746 H   0  0  0  0  0  0  0  0  0  0  0  0
  141.2788   72.5116  226.6969 H   0  0  0  0  0  0  0  0  0  0  0  0
  1  2  2  0
  2  3  1  0
  3  4  1  0
  4  5  1  0
  5  6  2  0
  5  7  1  0
  7  8  1  0
  8  9  1  0
  9 10  1  0
 10 11  1  0
 11 12  1  0
 12 13  1  0
 13 14  2  0
 14 15  1  0
 15 16  2  0
 16 17  1  0
 16 18  1  0
 18 19  2  0
  2 20  1  0
 20 21  2  0
 21 22  1  0
 22 23  2  0
 23 24  1  0
 24 25  2  0
 25 26  1  0
 25 27  1  0
 27 28  2  0
 28 29  1  0
 29 30  2  0
 12  7  1  0
 19 13  1  0
 30 20  1  0
 29 23  1  0
  3 31  1  0
  4 32  1  0
  4 33  1  0
  8 34  1  0
  8 35  1  0
  9 36  1  0
  9 37  1  0
 10 38  1  0
 10 39  1  0
 11 40  1  0
 11 41  1  0
 12 42  1  6
 14 43  1  0
 15 44  1  0
 17 45  1  0
 18 46  1  0
 19 47  1  0
 21 48  1  0
 22 49  1  0
 24 50  1  0
 27 51  1  0
 28 52  1  0
M  END
>  <smiles>  (35) 
O=C(NCC(=O)N1CCCCC1c1ccc(O)cc1)c1ccc2cc(Cl)ccc2n1

>  <score_type>  (35) 
oracle

>  <origin>  (35) 
autodockgpu

>  <m_score__min__energy>  (35) 
-8.7400000000000002

>  <m_primary>  (35) 
energy

>  <meeko>  (35) 
{"free_energy": -8.64, "intermolecular_energy": -10.43, "internal_energy": -1.72, "cluster_size": 9, "cluster_id": 1, "rank_in_cluster": 4}

>  <energy>  (35) 
-7.27

>  <cluster_rmsd>  (35) 
0.04

>  <rmsd>  (35) 
270.48

>  <cluster>  (35) 
4

$$$$

     RDKit          3D

 52 55  0  0  1  0  0  0  0  0999 V2000
  138.4630   76.7140  222.8820 O   0  0  0  0  0  0  0  0  0  0  0  0
  139.2270   76.8900  221.8720 C   0  0  0  0  0  0  0  0  0  0  0  0
  139.1190   78.0680  221.0930 N   0  0  0  0  0  0  0  0  0  0  0  0
  138.1340   79.0780  221.4510 C   0  0  0  0  0  0  0  0  0  0  0  0
  138.7500   80.3000  221.9710 C   0  0  0  0  0  0  0  0  0  0  0  0
  138.0660   81.3710  221.8830 O   0  0  0  0  0  0  0  0  0  0  0  0
  140.0210   80.4170  222.5560 N   0  0  0  0  0  0  0  0  0  0  0  0
  140.2160   79.7480  223.8430 C   0  0  0  0  0  0  0  0  0  0  0  0
  141.3450   78.7680  223.6640 C   0  0  0  0  0  0  0  0  0  0  0  0
  142.5800   79.4890  223.2240 C   0  0  0  0  0  0  0  0  0  0  0  0
  142.3390   80.9490  222.9260 C   0  0  0  0  0  0  0  0  0  0  0  0
  141.1390   81.1430  222.0140 C   0  0  1  0  0  0  0  0  0  0  0  0
  141.4660   80.8770  220.6120 C   0  0  0  0  0  0  0  0  0  0  0  0
  141.8030   79.6530  220.0840 C   0  0  0  0  0  0  0  0  0  0  0  0
  142.1050   79.4580  218.7480 C   0  0  0  0  0  0  0  0  0  0  0  0
  142.0770   80.5200  217.8690 C   0  0  0  0  0  0  0  0  0  0  0  0
  142.3740   80.3600  216.5220 O   0  0  0  0  0  0  0  0  0  0  0  0
  141.7420   81.7620  218.3670 C   0  0  0  0  0  0  0  0  0  0  0  0
  141.4440   81.9420  219.7000 C   0  0  0  0  0  0  0  0  0  0  0  0
  140.2090   75.8660  221.5290 C   0  0  0  0  0  0  0  0  0  0  0  0
  139.9480   74.5390  221.8050 C   0  0  0  0  0  0  0  0  0  0  0  0
  140.8250   73.5170  221.5120 C   0  0  0  0  0  0  0  0  0  0  0  0
  142.0180   73.8400  220.9140 C   0  0  0  0  0  0  0  0  0  0  0  0
  142.8930   72.8160  220.6210 C   0  0  0  0  0  0  0  0  0  0  0  0
  144.0880   73.1550  220.0190 C   0  0  0  0  0  0  0  0  0  0  0  0
  145.1980   71.8550  219.6480 Cl  0  0  0  0  0  0  0  0  0  0  0  0
  144.4120   74.4720  219.7150 C   0  0  0  0  0  0  0  0  0  0  0  0
  143.4830   75.4690  220.0360 C   0  0  0  0  0  0  0  0  0  0  0  0
  142.2790   75.1660  220.6370 C   0  0  0  0  0  0  0  0  0  0  0  0
  141.3880   76.1440  220.9430 N   0  0  0  0  0  0  0  0  0  0  0  0
  139.7650   78.1880  220.2620 H   0  0  0  0  0  0  0  0  0  0  0  0
  137.5471   79.3317  220.5559 H   0  0  0  0  0  0  0  0  0  0  0  0
  137.4983   78.6593  222.2451 H   0  0  0  0  0  0  0  0  0  0  0  0
  140.4754   80.4857  224.6166 H   0  0  0  0  0  0  0  0  0  0  0  0
  139.2970   79.2339  224.1610 H   0  0  0  0  0  0  0  0  0  0  0  0
  141.5407   78.2586  224.6191 H   0  0  0  0  0  0  0  0  0  0  0  0
  141.0651   78.0288  222.8990 H   0  0  0  0  0  0  0  0  0  0  0  0
  143.3323   79.4144  224.0230 H   0  0  0  0  0  0  0  0  0  0  0  0
  142.9212   79.0159  222.2914 H   0  0  0  0  0  0  0  0  0  0  0  0
  142.1585   81.4813  223.8716 H   0  0  0  0  0  0  0  0  0  0  0  0
  143.2278   81.3471  222.4146 H   0  0  0  0  0  0  0  0  0  0  0  0
  140.8326   82.1992  221.9892 H   0  0  0  0  0  0  0  0  0  0  0  0
  141.8341   78.7844  220.7583 H   0  0  0  0  0  0  0  0  0  0  0  0
  142.3681   78.4531  218.3861 H   0  0  0  0  0  0  0  0  0  0  0  0
  143.3140   80.3430  216.1470 H   0  0  0  0  0  0  0  0  0  0  0  0
  141.7122   82.6257  217.6864 H   0  0  0  0  0  0  0  0  0  0  0  0
  141.1817   82.9483  220.0586 H   0  0  0  0  0  0  0  0  0  0  0  0
  138.9908   74.2841  222.2834 H   0  0  0  0  0  0  0  0  0  0  0  0
  140.5763   72.4723  221.7504 H   0  0  0  0  0  0  0  0  0  0  0  0
  142.6486   71.7699  220.8576 H   0  0  0  0  0  0  0  0  0  0  0  0
  145.3700   74.7235  219.2364 H   0  0  0  0  0  0  0  0  0  0  0  0
  143.7186   76.5180  219.8036 H   0  0  0  0  0  0  0  0  0  0  0  0
  1  2  2  0
  2  3  1  0
  3  4  1  0
  4  5  1  0
  5  6  2  0
  5  7  1  0
  7  8  1  0
  8  9  1  0
  9 10  1  0
 10 11  1  0
 11 12  1  0
 12 13  1  0
 13 14  2  0
 14 15  1  0
 15 16  2  0
 16 17  1  0
 16 18  1  0
 18 19  2  0
  2 20  1  0
 20 21  2  0
 21 22  1  0
 22 23  2  0
 23 24  1  0
 24 25  2  0
 25 26  1  0
 25 27  1  0
 27 28  2  0
 28 29  1  0
 29 30  2  0
 12  7  1  0
 19 13  1  0
 30 20  1  0
 29 23  1  0
  3 31  1  0
  4 32  1  0
  4 33  1  0
  8 34  1  0
  8 35  1  0
  9 36  1  0
  9 37  1  0
 10 38  1  0
 10 39  1  0
 11 40  1  0
 11 41  1  0
 12 42  1  6
 14 43  1  0
 15 44  1  0
 17 45  1  0
 18 46  1  0
 19 47  1  0
 21 48  1  0
 22 49  1  0
 24 50  1  0
 27 51  1  0
 28 52  1  0
M  END
>  <smiles>  (36) 
O=C(NCC(=O)N1CCCCC1c1ccc(O)cc1)c1ccc2cc(Cl)ccc2n1

>  <score_type>  (36) 
oracle

>  <origin>  (36) 
autodockgpu

>  <m_score__min__energy>  (36) 
-8.7400000000000002

>  <m_primary>  (36) 
energy

>  <meeko>  (36) 
{"free_energy": -7.17, "intermolecular_energy": -8.96, "internal_energy": -2.36, "cluster_size": 5, "cluster_id": 4, "rank_in_cluster": 4}

>  <energy>  (36) 
-7.24

>  <cluster_rmsd>  (36) 
0.11

>  <rmsd>  (36) 
270.48

>  <cluster>  (36) 
4

$$$$

     RDKit          3D

 52 55  0  0  1  0  0  0  0  0999 V2000
  138.3700   76.8110  222.6880 O   0  0  0  0  0  0  0  0  0  0  0  0
  139.2150   76.9980  221.7470 C   0  0  0  0  0  0  0  0  0  0  0  0
  139.1970   78.2030  221.0020 N   0  0  0  0  0  0  0  0  0  0  0  0
  138.2120   79.2270  221.3150 C   0  0  0  0  0  0  0  0  0  0  0  0
  138.7850   80.3390  222.0770 C   0  0  0  0  0  0  0  0  0  0  0  0
  138.0510   81.3680  222.2310 O   0  0  0  0  0  0  0  0  0  0  0  0
  140.0640   80.3910  222.6550 N   0  0  0  0  0  0  0  0  0  0  0  0
  140.2750   79.5800  223.8540 C   0  0  0  0  0  0  0  0  0  0  0  0
  141.4030   78.6290  223.5500 C   0  0  0  0  0  0  0  0  0  0  0  0
  142.6320   79.3990  223.1780 C   0  0  0  0  0  0  0  0  0  0  0  0
  142.3850   80.8830  223.0530 C   0  0  0  0  0  0  0  0  0  0  0  0
  141.1730   81.1770  222.1850 C   0  0  1  0  0  0  0  0  0  0  0  0
  141.4820   81.0740  220.7580 C   0  0  0  0  0  0  0  0  0  0  0  0
  141.4650   82.1120  219.8560 C   0  0  0  0  0  0  0  0  0  0  0  0
  141.7660   81.9600  218.5140 C   0  0  0  0  0  0  0  0  0  0  0  0
  142.1070   80.7190  218.0170 C   0  0  0  0  0  0  0  0  0  0  0  0
  142.4150   80.5300  216.6760 O   0  0  0  0  0  0  0  0  0  0  0  0
  142.1350   79.6570  218.8960 C   0  0  0  0  0  0  0  0  0  0  0  0
  141.8320   79.8230  220.2300 C   0  0  0  0  0  0  0  0  0  0  0  0
  140.1970   75.9600  221.4470 C   0  0  0  0  0  0  0  0  0  0  0  0
  139.9390   74.6470  221.7870 C   0  0  0  0  0  0  0  0  0  0  0  0
  140.8140   73.6120  221.5390 C   0  0  0  0  0  0  0  0  0  0  0  0
  142.0040   73.9080  220.9190 C   0  0  0  0  0  0  0  0  0  0  0  0
  142.8770   72.8720  220.6690 C   0  0  0  0  0  0  0  0  0  0  0  0
  144.0690   73.1830  220.0450 C   0  0  0  0  0  0  0  0  0  0  0  0
  145.1780   71.8670  219.7300 Cl  0  0  0  0  0  0  0  0  0  0  0  0
  144.3900   74.4840  219.6770 C   0  0  0  0  0  0  0  0  0  0  0  0
  143.4620   75.4940  219.9560 C   0  0  0  0  0  0  0  0  0  0  0  0
  142.2620   75.2190  220.5770 C   0  0  0  0  0  0  0  0  0  0  0  0
  141.3720   76.2100  220.8410 N   0  0  0  0  0  0  0  0  0  0  0  0
  139.9100   78.3310  220.2280 H   0  0  0  0  0  0  0  0  0  0  0  0
  137.7991   79.6194  220.3739 H   0  0  0  0  0  0  0  0  0  0  0  0
  137.4312   78.7627  221.9353 H   0  0  0  0  0  0  0  0  0  0  0  0
  140.5433   80.2249  224.7038 H   0  0  0  0  0  0  0  0  0  0  0  0
  139.3604   79.0309  224.1223 H   0  0  0  0  0  0  0  0  0  0  0  0
  141.6121   78.0152  224.4385 H   0  0  0  0  0  0  0  0  0  0  0  0
  141.1137   77.9805  222.7099 H   0  0  0  0  0  0  0  0  0  0  0  0
  143.3958   79.2351  223.9525 H   0  0  0  0  0  0  0  0  0  0  0  0
  142.9607   79.0368  222.1927 H   0  0  0  0  0  0  0  0  0  0  0  0
  142.2162   81.3025  224.0557 H   0  0  0  0  0  0  0  0  0  0  0  0
  143.2664   81.3399  222.5794 H   0  0  0  0  0  0  0  0  0  0  0  0
  140.8647   82.2282  222.2847 H   0  0  0  0  0  0  0  0  0  0  0  0
  141.1983   83.1151  220.2203 H   0  0  0  0  0  0  0  0  0  0  0  0
  141.7334   82.8303  217.8421 H   0  0  0  0  0  0  0  0  0  0  0  0
  143.3240   80.2390  216.3390 H   0  0  0  0  0  0  0  0  0  0  0  0
  142.4046   78.6572  218.5249 H   0  0  0  0  0  0  0  0  0  0  0  0
  141.8656   78.9504  220.8989 H   0  0  0  0  0  0  0  0  0  0  0  0
  138.9845   74.4150  222.2820 H   0  0  0  0  0  0  0  0  0  0  0  0
  140.5674   72.5799  221.8286 H   0  0  0  0  0  0  0  0  0  0  0  0
  142.6342   71.8380  220.9551 H   0  0  0  0  0  0  0  0  0  0  0  0
  145.3448   74.7132  219.1813 H   0  0  0  0  0  0  0  0  0  0  0  0
  143.6954   76.5311  219.6733 H   0  0  0  0  0  0  0  0  0  0  0  0
  1  2  2  0
  2  3  1  0
  3  4  1  0
  4  5  1  0
  5  6  2  0
  5  7  1  0
  7  8  1  0
  8  9  1  0
  9 10  1  0
 10 11  1  0
 11 12  1  0
 12 13  1  0
 13 14  2  0
 14 15  1  0
 15 16  2  0
 16 17  1  0
 16 18  1  0
 18 19  2  0
  2 20  1  0
 20 21  2  0
 21 22  1  0
 22 23  2  0
 23 24  1  0
 24 25  2  0
 25 26  1  0
 25 27  1  0
 27 28  2  0
 28 29  1  0
 29 30  2  0
 12  7  1  0
 19 13  1  0
 30 20  1  0
 29 23  1  0
  3 31  1  0
  4 32  1  0
  4 33  1  0
  8 34  1  0
  8 35  1  0
  9 36  1  0
  9 37  1  0
 10 38  1  0
 10 39  1  0
 11 40  1  0
 11 41  1  0
 12 42  1  6
 14 43  1  0
 15 44  1  0
 17 45  1  0
 18 46  1  0
 19 47  1  0
 21 48  1  0
 22 49  1  0
 24 50  1  0
 27 51  1  0
 28 52  1  0
M  END
>  <smiles>  (37) 
O=C(NCC(=O)N1CCCCC1c1ccc(O)cc1)c1ccc2cc(Cl)ccc2n1

>  <score_type>  (37) 
oracle

>  <origin>  (37) 
autodockgpu

>  <m_score__min__energy>  (37) 
-8.7400000000000002

>  <m_primary>  (37) 
energy

>  <meeko>  (37) 
{"free_energy": -7.27, "intermolecular_energy": -9.06, "internal_energy": -2.33, "cluster_size": 5, "cluster_id": 4, "rank_in_cluster": 1}

>  <energy>  (37) 
-7.17

>  <cluster_rmsd>  (37) 
0.18

>  <rmsd>  (37) 
270.44

>  <cluster>  (37) 
4

$$$$

     RDKit          3D

 52 55  0  0  1  0  0  0  0  0999 V2000
  139.7750   71.6710  220.8390 O   0  0  0  0  0  0  0  0  0  0  0  0
  139.7520   72.1990  222.0030 C   0  0  0  0  0  0  0  0  0  0  0  0
  139.6100   73.6010  222.1470 N   0  0  0  0  0  0  0  0  0  0  0  0
  139.4890   74.4370  220.9610 C   0  0  0  0  0  0  0  0  0  0  0  0
  140.4950   75.5010  220.9240 C   0  0  0  0  0  0  0  0  0  0  0  0
  141.0090   75.8450  222.0370 O   0  0  0  0  0  0  0  0  0  0  0  0
  140.9520   76.1860  219.7860 N   0  0  0  0  0  0  0  0  0  0  0  0
  140.5650   77.5910  219.6660 C   0  0  0  0  0  0  0  0  0  0  0  0
  141.8380   78.3940  219.5930 C   0  0  0  0  0  0  0  0  0  0  0  0
  142.6560   77.9440  218.4230 C   0  0  0  0  0  0  0  0  0  0  0  0
  142.0860   76.7280  217.7340 C   0  0  0  0  0  0  0  0  0  0  0  0
  141.7510   75.6280  218.7280 C   0  0  1  0  0  0  0  0  0  0  0  0
  142.9400   74.8780  219.1370 C   0  0  0  0  0  0  0  0  0  0  0  0
  143.8400   75.2660  220.1010 C   0  0  0  0  0  0  0  0  0  0  0  0
  144.9510   74.5170  220.4500 C   0  0  0  0  0  0  0  0  0  0  0  0
  145.2010   73.3150  219.8220 C   0  0  0  0  0  0  0  0  0  0  0  0
  146.3060   72.5390  220.1470 O   0  0  0  0  0  0  0  0  0  0  0  0
  144.3160   72.8970  218.8500 C   0  0  0  0  0  0  0  0  0  0  0  0
  143.2150   73.6530  218.5130 C   0  0  0  0  0  0  0  0  0  0  0  0
  139.8730   71.3450  223.1810 C   0  0  0  0  0  0  0  0  0  0  0  0
  139.4750   70.0250  223.1190 C   0  0  0  0  0  0  0  0  0  0  0  0
  139.5570   69.1570  224.1870 C   0  0  0  0  0  0  0  0  0  0  0  0
  140.0630   69.6360  225.3710 C   0  0  0  0  0  0  0  0  0  0  0  0
  140.1460   68.7670  226.4370 C   0  0  0  0  0  0  0  0  0  0  0  0
  140.6560   69.2600  227.6200 C   0  0  0  0  0  0  0  0  0  0  0  0
  140.7600   68.1560  228.9740 Cl  0  0  0  0  0  0  0  0  0  0  0  0
  141.0750   70.5790  227.7480 C   0  0  0  0  0  0  0  0  0  0  0  0
  140.9670   71.4150  226.6310 C   0  0  0  0  0  0  0  0  0  0  0  0
  140.4620   70.9550  225.4320 C   0  0  0  0  0  0  0  0  0  0  0  0
  140.3630   71.7780  224.3560 N   0  0  0  0  0  0  0  0  0  0  0  0
  139.5930   74.0120  223.1240 H   0  0  0  0  0  0  0  0  0  0  0  0
  139.6103   73.8048  220.0690 H   0  0  0  0  0  0  0  0  0  0  0  0
  138.4976   74.9129  220.9853 H   0  0  0  0  0  0  0  0  0  0  0  0
  139.9701   77.7423  218.7532 H   0  0  0  0  0  0  0  0  0  0  0  0
  139.9521   77.9040  220.5242 H   0  0  0  0  0  0  0  0  0  0  0  0
  141.5912   79.4597  219.4775 H   0  0  0  0  0  0  0  0  0  0  0  0
  142.4147   78.2447  220.5178 H   0  0  0  0  0  0  0  0  0  0  0  0
  142.7076   78.7669  217.6948 H   0  0  0  0  0  0  0  0  0  0  0  0
  143.6502   77.6685  218.8047 H   0  0  0  0  0  0  0  0  0  0  0  0
  141.1693   77.0174  217.1993 H   0  0  0  0  0  0  0  0  0  0  0  0
  142.8427   76.3419  217.0352 H   0  0  0  0  0  0  0  0  0  0  0  0
  141.1313   74.8494  218.2592 H   0  0  0  0  0  0  0  0  0  0  0  0
  143.6688   76.2198  220.6215 H   0  0  0  0  0  0  0  0  0  0  0  0
  145.6357   74.8816  221.2299 H   0  0  0  0  0  0  0  0  0  0  0  0
  146.3080   71.8310  220.8710 H   0  0  0  0  0  0  0  0  0  0  0  0
  144.4929   71.9417  218.3342 H   0  0  0  0  0  0  0  0  0  0  0  0
  142.5325   73.2854  217.7326 H   0  0  0  0  0  0  0  0  0  0  0  0
  139.0716   69.6459  222.1685 H   0  0  0  0  0  0  0  0  0  0  0  0
  139.2270   68.1118  224.0938 H   0  0  0  0  0  0  0  0  0  0  0  0
  139.8183   67.7207  226.3481 H   0  0  0  0  0  0  0  0  0  0  0  0
  141.4796   70.9547  228.6994 H   0  0  0  0  0  0  0  0  0  0  0  0
  141.2921   72.4628  226.7106 H   0  0  0  0  0  0  0  0  0  0  0  0
  1  2  2  0
  2  3  1  0
  3  4  1  0
  4  5  1  0
  5  6  2  0
  5  7  1  0
  7  8  1  0
  8  9  1  0
  9 10  1  0
 10 11  1  0
 11 12  1  0
 12 13  1  0
 13 14  2  0
 14 15  1  0
 15 16  2  0
 16 17  1  0
 16 18  1  0
 18 19  2  0
  2 20  1  0
 20 21  2  0
 21 22  1  0
 22 23  2  0
 23 24  1  0
 24 25  2  0
 25 26  1  0
 25 27  1  0
 27 28  2  0
 28 29  1  0
 29 30  2  0
 12  7  1  0
 19 13  1  0
 30 20  1  0
 29 23  1  0
  3 31  1  0
  4 32  1  0
  4 33  1  0
  8 34  1  0
  8 35  1  0
  9 36  1  0
  9 37  1  0
 10 38  1  0
 10 39  1  0
 11 40  1  0
 11 41  1  0
 12 42  1  6
 14 43  1  0
 15 44  1  0
 17 45  1  0
 18 46  1  0
 19 47  1  0
 21 48  1  0
 22 49  1  0
 24 50  1  0
 27 51  1  0
 28 52  1  0
M  END
>  <smiles>  (38) 
O=C(NCC(=O)N1CCCCC1c1ccc(O)cc1)c1ccc2cc(Cl)ccc2n1

>  <score_type>  (38) 
oracle

>  <origin>  (38) 
autodockgpu

>  <m_score__min__energy>  (38) 
-8.7400000000000002

>  <m_primary>  (38) 
energy

>  <meeko>  (38) 
{"free_energy": -8.66, "intermolecular_energy": -10.45, "internal_energy": -1.75, "cluster_size": 9, "cluster_id": 1, "rank_in_cluster": 3}

>  <energy>  (38) 
-7.09

>  <cluster_rmsd>  (38) 
0.49

>  <rmsd>  (38) 
270.46

>  <cluster>  (38) 
4

$$$$

     RDKit          3D

 52 55  0  0  1  0  0  0  0  0999 V2000
  140.3270   73.9650  222.2400 O   0  0  0  0  0  0  0  0  0  0  0  0
  139.7010   72.8520  222.1840 C   0  0  0  0  0  0  0  0  0  0  0  0
  138.8650   72.5600  221.0770 N   0  0  0  0  0  0  0  0  0  0  0  0
  138.7250   73.5350  220.0050 C   0  0  0  0  0  0  0  0  0  0  0  0
  140.0120   73.9020  219.4130 C   0  0  0  0  0  0  0  0  0  0  0  0
  140.6910   72.9620  218.8860 O   0  0  0  0  0  0  0  0  0  0  0  0
  140.5810   75.1850  219.3660 N   0  0  0  0  0  0  0  0  0  0  0  0
  139.8010   76.2710  219.9580 C   0  0  0  0  0  0  0  0  0  0  0  0
  140.6490   76.8820  221.0430 C   0  0  0  0  0  0  0  0  0  0  0  0
  141.9360   77.3790  220.4630 C   0  0  0  0  0  0  0  0  0  0  0  0
  142.1150   77.0050  219.0120 C   0  0  0  0  0  0  0  0  0  0  0  0
  141.8490   75.5270  218.7780 C   0  0  1  0  0  0  0  0  0  0  0  0
  142.9900   74.6970  219.1660 C   0  0  0  0  0  0  0  0  0  0  0  0
  143.3880   74.4320  220.4560 C   0  0  0  0  0  0  0  0  0  0  0  0
  144.4780   73.6370  220.7680 C   0  0  0  0  0  0  0  0  0  0  0  0
  145.2270   73.0640  219.7620 C   0  0  0  0  0  0  0  0  0  0  0  0
  146.3270   72.2620  220.0390 O   0  0  0  0  0  0  0  0  0  0  0  0
  144.8540   73.3100  218.4580 C   0  0  0  0  0  0  0  0  0  0  0  0
  143.7670   74.1030  218.1620 C   0  0  0  0  0  0  0  0  0  0  0  0
  139.8540   71.8870  223.2670 C   0  0  0  0  0  0  0  0  0  0  0  0
  139.4970   70.5680  223.0710 C   0  0  0  0  0  0  0  0  0  0  0  0
  139.6110   69.5980  224.0440 C   0  0  0  0  0  0  0  0  0  0  0  0
  140.1070   69.9680  225.2700 C   0  0  0  0  0  0  0  0  0  0  0  0
  140.2220   68.9980  226.2410 C   0  0  0  0  0  0  0  0  0  0  0  0
  140.7220   69.3830  227.4680 C   0  0  0  0  0  0  0  0  0  0  0  0
  140.8670   68.1500  228.7010 Cl  0  0  0  0  0  0  0  0  0  0  0  0
  141.1000   70.6950  227.7310 C   0  0  0  0  0  0  0  0  0  0  0  0
  140.9600   71.6370  226.7050 C   0  0  0  0  0  0  0  0  0  0  0  0
  140.4650   71.2860  225.4660 C   0  0  0  0  0  0  0  0  0  0  0  0
  140.3360   72.2120  224.4810 N   0  0  0  0  0  0  0  0  0  0  0  0
  138.3590   71.6300  221.0560 H   0  0  0  0  0  0  0  0  0  0  0  0
  138.0842   73.1072  219.2199 H   0  0  0  0  0  0  0  0  0  0  0  0
  138.2821   74.4453  220.4354 H   0  0  0  0  0  0  0  0  0  0  0  0
  139.5638   77.0258  219.1938 H   0  0  0  0  0  0  0  0  0  0  0  0
  138.8517   75.8947  220.3669 H   0  0  0  0  0  0  0  0  0  0  0  0
  140.1064   77.7223  221.5006 H   0  0  0  0  0  0  0  0  0  0  0  0
  140.8655   76.1201  221.8063 H   0  0  0  0  0  0  0  0  0  0  0  0
  141.9575   78.4756  220.5471 H   0  0  0  0  0  0  0  0  0  0  0  0
  142.7539   76.9065  221.0268 H   0  0  0  0  0  0  0  0  0  0  0  0
  141.4145   77.5946  218.4024 H   0  0  0  0  0  0  0  0  0  0  0  0
  143.1566   77.2161  218.7284 H   0  0  0  0  0  0  0  0  0  0  0  0
  141.7536   75.3096  217.7039 H   0  0  0  0  0  0  0  0  0  0  0  0
  142.8110   74.8741  221.2816 H   0  0  0  0  0  0  0  0  0  0  0  0
  144.7468   73.4623  221.8202 H   0  0  0  0  0  0  0  0  0  0  0  0
  146.4010   71.6630  220.8510 H   0  0  0  0  0  0  0  0  0  0  0  0
  145.4357   72.8644  217.6376 H   0  0  0  0  0  0  0  0  0  0  0  0
  143.5015   74.2748  217.1084 H   0  0  0  0  0  0  0  0  0  0  0  0
  139.1009   70.2757  222.0873 H   0  0  0  0  0  0  0  0  0  0  0  0
  139.3134   68.5581  223.8442 H   0  0  0  0  0  0  0  0  0  0  0  0
  139.9266   67.9565  226.0458 H   0  0  0  0  0  0  0  0  0  0  0  0
  141.4970   70.9839  228.7153 H   0  0  0  0  0  0  0  0  0  0  0  0
  141.2514   72.6813  226.8910 H   0  0  0  0  0  0  0  0  0  0  0  0
  1  2  2  0
  2  3  1  0
  3  4  1  0
  4  5  1  0
  5  6  2  0
  5  7  1  0
  7  8  1  0
  8  9  1  0
  9 10  1  0
 10 11  1  0
 11 12  1  0
 12 13  1  0
 13 14  2  0
 14 15  1  0
 15 16  2  0
 16 17  1  0
 16 18  1  0
 18 19  2  0
  2 20  1  0
 20 21  2  0
 21 22  1  0
 22 23  2  0
 23 24  1  0
 24 25  2  0
 25 26  1  0
 25 27  1  0
 27 28  2  0
 28 29  1  0
 29 30  2  0
 12  7  1  0
 19 13  1  0
 30 20  1  0
 29 23  1  0
  3 31  1  0
  4 32  1  0
  4 33  1  0
  8 34  1  0
  8 35  1  0
  9 36  1  0
  9 37  1  0
 10 38  1  0
 10 39  1  0
 11 40  1  0
 11 41  1  0
 12 42  1  6
 14 43  1  0
 15 44  1  0
 17 45  1  0
 18 46  1  0
 19 47  1  0
 21 48  1  0
 22 49  1  0
 24 50  1  0
 27 51  1  0
 28 52  1  0
M  END
>  <smiles>  (39) 
O=C(NCC(=O)N1CCCCC1c1ccc(O)cc1)c1ccc2cc(Cl)ccc2n1

>  <score_type>  (39) 
oracle

>  <origin>  (39) 
autodockgpu

>  <m_score__min__energy>  (39) 
-8.7400000000000002

>  <m_primary>  (39) 
energy

>  <meeko>  (39) 
{"free_energy": -8.28, "intermolecular_energy": -10.07, "internal_energy": -1.62, "cluster_size": 9, "cluster_id": 1, "rank_in_cluster": 8}

>  <energy>  (39) 
-7.12

>  <cluster_rmsd>  (39) 
0.0

>  <rmsd>  (39) 
269.8

>  <cluster>  (39) 
5

$$$$

     RDKit          3D

 52 55  0  0  1  0  0  0  0  0999 V2000
  139.5150   71.7930  220.8560 O   0  0  0  0  0  0  0  0  0  0  0  0
  139.5920   72.3070  222.0240 C   0  0  0  0  0  0  0  0  0  0  0  0
  139.5050   73.7110  222.1920 N   0  0  0  0  0  0  0  0  0  0  0  0
  139.3270   74.5650  221.0270 C   0  0  0  0  0  0  0  0  0  0  0  0
  140.2100   75.7330  221.0500 C   0  0  0  0  0  0  0  0  0  0  0  0
  140.5080   76.2050  222.1950 O   0  0  0  0  0  0  0  0  0  0  0  0
  140.7630   76.3900  219.9390 N   0  0  0  0  0  0  0  0  0  0  0  0
  140.4960   77.8240  219.8260 C   0  0  0  0  0  0  0  0  0  0  0  0
  141.8310   78.5210  219.8090 C   0  0  0  0  0  0  0  0  0  0  0  0
  142.6530   78.0180  218.6630 C   0  0  0  0  0  0  0  0  0  0  0  0
  142.0110   76.8610  217.9370 C   0  0  0  0  0  0  0  0  0  0  0  0
  141.5520   75.7810  218.9020 C   0  0  1  0  0  0  0  0  0  0  0  0
  142.6600   74.9320  219.3440 C   0  0  0  0  0  0  0  0  0  0  0  0
  142.7580   73.5750  219.1480 C   0  0  0  0  0  0  0  0  0  0  0  0
  143.8310   72.8190  219.5880 C   0  0  0  0  0  0  0  0  0  0  0  0
  144.8740   73.4200  220.2590 C   0  0  0  0  0  0  0  0  0  0  0  0
  145.9660   72.6920  220.7140 O   0  0  0  0  0  0  0  0  0  0  0  0
  144.8060   74.7810  220.4710 C   0  0  0  0  0  0  0  0  0  0  0  0
  143.7320   75.5220  220.0280 C   0  0  0  0  0  0  0  0  0  0  0  0
  139.7710   71.4350  223.1810 C   0  0  0  0  0  0  0  0  0  0  0  0
  139.4290   70.1000  223.0980 C   0  0  0  0  0  0  0  0  0  0  0  0
  139.5670   69.2150  224.1450 C   0  0  0  0  0  0  0  0  0  0  0  0
  140.0730   69.6910  225.3300 C   0  0  0  0  0  0  0  0  0  0  0  0
  140.2120   68.8040  226.3760 C   0  0  0  0  0  0  0  0  0  0  0  0
  140.7210   69.2950  227.5610 C   0  0  0  0  0  0  0  0  0  0  0  0
  140.8960   68.1690  228.8890 Cl  0  0  0  0  0  0  0  0  0  0  0  0
  141.0840   70.6280  227.7100 C   0  0  0  0  0  0  0  0  0  0  0  0
  140.9210   71.4810  226.6130 C   0  0  0  0  0  0  0  0  0  0  0  0
  140.4150   71.0240  225.4130 C   0  0  0  0  0  0  0  0  0  0  0  0
  140.2630   71.8640  224.3570 N   0  0  0  0  0  0  0  0  0  0  0  0
  139.5720   74.1100  223.1720 H   0  0  0  0  0  0  0  0  0  0  0  0
  139.5421   73.9775  220.1223 H   0  0  0  0  0  0  0  0  0  0  0  0
  138.2891   74.9294  221.0341 H   0  0  0  0  0  0  0  0  0  0  0  0
  139.9484   78.0340  218.8954 H   0  0  0  0  0  0  0  0  0  0  0  0
  139.8804   78.1759  220.6669 H   0  0  0  0  0  0  0  0  0  0  0  0
  141.6756   79.6044  219.6988 H   0  0  0  0  0  0  0  0  0  0  0  0
  142.3592   78.3156  220.7517 H   0  0  0  0  0  0  0  0  0  0  0  0
  142.7991   78.8418  217.9488 H   0  0  0  0  0  0  0  0  0  0  0  0
  143.6064   77.6575  219.0765 H   0  0  0  0  0  0  0  0  0  0  0  0
  141.1408   77.2308  217.3749 H   0  0  0  0  0  0  0  0  0  0  0  0
  142.7585   76.4223  217.2596 H   0  0  0  0  0  0  0  0  0  0  0  0
  140.8896   75.0613  218.3987 H   0  0  0  0  0  0  0  0  0  0  0  0
  141.9428   73.0641  218.6147 H   0  0  0  0  0  0  0  0  0  0  0  0
  143.8512   71.7351  219.4014 H   0  0  0  0  0  0  0  0  0  0  0  0
  145.8950   71.7990  221.1840 H   0  0  0  0  0  0  0  0  0  0  0  0
  145.6254   75.2851  221.0043 H   0  0  0  0  0  0  0  0  0  0  0  0
  143.7154   76.6057  220.2162 H   0  0  0  0  0  0  0  0  0  0  0  0
  139.0254   69.7233  222.1466 H   0  0  0  0  0  0  0  0  0  0  0  0
  139.2805   68.1587  224.0352 H   0  0  0  0  0  0  0  0  0  0  0  0
  139.9284   67.7465  226.2703 H   0  0  0  0  0  0  0  0  0  0  0  0
  141.4877   71.0017  228.6626 H   0  0  0  0  0  0  0  0  0  0  0  0
  141.2026   72.5400  226.7091 H   0  0  0  0  0  0  0  0  0  0  0  0
  1  2  2  0
  2  3  1  0
  3  4  1  0
  4  5  1  0
  5  6  2  0
  5  7  1  0
  7  8  1  0
  8  9  1  0
  9 10  1  0
 10 11  1  0
 11 12  1  0
 12 13  1  0
 13 14  2  0
 14 15  1  0
 15 16  2  0
 16 17  1  0
 16 18  1  0
 18 19  2  0
  2 20  1  0
 20 21  2  0
 21 22  1  0
 22 23  2  0
 23 24  1  0
 24 25  2  0
 25 26  1  0
 25 27  1  0
 27 28  2  0
 28 29  1  0
 29 30  2  0
 12  7  1  0
 19 13  1  0
 30 20  1  0
 29 23  1  0
  3 31  1  0
  4 32  1  0
  4 33  1  0
  8 34  1  0
  8 35  1  0
  9 36  1  0
  9 37  1  0
 10 38  1  0
 10 39  1  0
 11 40  1  0
 11 41  1  0
 12 42  1  6
 14 43  1  0
 15 44  1  0
 17 45  1  0
 18 46  1  0
 19 47  1  0
 21 48  1  0
 22 49  1  0
 24 50  1  0
 27 51  1  0
 28 52  1  0
M  END
>  <smiles>  (40) 
O=C(NCC(=O)N1CCCCC1c1ccc(O)cc1)c1ccc2cc(Cl)ccc2n1

>  <score_type>  (40) 
oracle

>  <origin>  (40) 
autodockgpu

>  <m_score__min__energy>  (40) 
-8.7400000000000002

>  <m_primary>  (40) 
energy

>  <meeko>  (40) 
{"free_energy": -8.39, "intermolecular_energy": -10.18, "internal_energy": -1.82, "cluster_size": 9, "cluster_id": 1, "rank_in_cluster": 7}

>  <energy>  (40) 
-6.72

>  <cluster_rmsd>  (40) 
1.59

>  <rmsd>  (40) 
269.7

>  <cluster>  (40) 
5

$$$$
