MZUVVVBFQHRAFD-JMWNCHMZNA-O
     RDKit          3D

 51 54  0  0  0  0  0  0  0  0999 V2000
  138.6524   78.1501  223.9675 H   0  0  0  0  0  0  0  0  0  0  0  0
  139.3220   78.2620  223.1020 C   0  0  0  0  0  0  0  0  0  0  0  0
  139.1240   77.4710  222.0400 C   0  0  0  0  0  0  0  0  0  0  0  0
  138.1803   77.5426  221.4794 H   0  0  0  0  0  0  0  0  0  0  0  0
  140.1570   76.5010  221.6090 C   0  0  0  0  0  0  0  0  0  0  0  0
  139.9710   75.1970  221.9490 N   0  0  0  0  0  0  0  0  0  0  0  0
  140.8480   74.2310  221.5940 C   0  0  0  0  0  0  0  0  0  0  0  0
  140.6160   72.9030  221.9710 C   0  0  0  0  0  0  0  0  0  0  0  0
  139.7222   72.6463  222.5585 H   0  0  0  0  0  0  0  0  0  0  0  0
  141.5200   71.9030  221.6010 C   0  0  0  0  0  0  0  0  0  0  0  0
  141.3384   70.8601  221.8998 H   0  0  0  0  0  0  0  0  0  0  0  0
  142.6540   72.2270  220.8520 C   0  0  0  0  0  0  0  0  0  0  0  0
  143.3631   71.4380  220.5612 H   0  0  0  0  0  0  0  0  0  0  0  0
  142.8900   73.5520  220.4710 C   0  0  0  0  0  0  0  0  0  0  0  0
  143.7828   73.8026  219.8792 H   0  0  0  0  0  0  0  0  0  0  0  0
  141.9860   74.5660  220.8440 C   0  0  0  0  0  0  0  0  0  0  0  0
  142.1720   75.9100  220.4820 C   0  0  0  0  0  0  0  0  0  0  0  0
  143.1760   76.2280  219.7840 O   0  0  0  0  0  0  0  0  0  0  0  0
  141.2660   76.8720  220.8730 N   0  0  0  0  0  0  0  0  0  0  0  0
  141.4490   78.2610  220.3910 C   0  0  0  0  0  0  0  0  0  0  0  0
  140.7028   78.9100  220.8727 H   0  0  0  0  0  0  0  0  0  0  0  0
  142.4676   78.5887  220.6462 H   0  0  0  0  0  0  0  0  0  0  0  0
  141.2770   78.3430  218.8700 C   0  0  0  0  0  0  0  0  0  0  0  0
  140.9852   77.3560  218.4819 H   0  0  0  0  0  0  0  0  0  0  0  0
  140.4964   79.0806  218.6323 H   0  0  0  0  0  0  0  0  0  0  0  0
  142.5520   78.7610  218.2420 N   0  0  0  0  0  0  0  0  0  0  0  0
  142.8890   77.9940  217.0270 C   0  0  0  0  0  0  0  0  0  0  0  0
  143.9602   78.1210  216.8118 H   0  0  0  0  0  0  0  0  0  0  0  0
  142.6447   76.9375  217.2116 H   0  0  0  0  0  0  0  0  0  0  0  0
  142.0770   78.4660  215.8080 C   0  0  0  0  0  0  0  0  0  0  0  0
  142.4309   77.9349  214.9121 H   0  0  0  0  0  0  0  0  0  0  0  0
  141.0139   78.2490  215.9889 H   0  0  0  0  0  0  0  0  0  0  0  0
  142.2320   79.9130  215.6020 N   0  0  0  0  0  0  0  0  0  0  0  0
  141.6280   80.2070  214.8000 H   0  0  0  0  0  0  0  0  0  0  0  0
  143.2280   80.1320  215.3640 H   0  0  0  0  0  0  0  0  0  0  0  0
  141.8300   80.6610  216.8000 C   0  0  0  0  0  0  0  0  0  0  0  0
  141.9933   81.7350  216.6269 H   0  0  0  0  0  0  0  0  0  0  0  0
  140.7663   80.4641  216.9996 H   0  0  0  0  0  0  0  0  0  0  0  0
  142.6520   80.2160  218.0190 C   0  0  0  0  0  0  0  0  0  0  0  0
  143.7070   80.4797  217.8533 H   0  0  0  0  0  0  0  0  0  0  0  0
  142.2530   80.7276  218.9073 H   0  0  0  0  0  0  0  0  0  0  0  0
  140.3960   79.2800  223.1720 C   0  0  0  0  0  0  0  0  0  0  0  0
  141.6490   79.0170  223.7570 C   0  0  0  0  0  0  0  0  0  0  0  0
  141.8668   78.0235  224.1760 H   0  0  0  0  0  0  0  0  0  0  0  0
  142.6140   80.0260  223.8020 C   0  0  0  0  0  0  0  0  0  0  0  0
  143.5960   79.8260  224.2556 H   0  0  0  0  0  0  0  0  0  0  0  0
  142.3430   81.2540  223.2870 N   0  0  0  0  0  0  0  0  0  0  0  0
  141.1410   81.5400  222.7210 C   0  0  0  0  0  0  0  0  0  0  0  0
  140.9517   82.5426  222.3098 H   0  0  0  0  0  0  0  0  0  0  0  0
  140.1460   80.5620  222.6610 C   0  0  0  0  0  0  0  0  0  0  0  0
  139.1686   80.7965  222.2141 H   0  0  0  0  0  0  0  0  0  0  0  0
  1  2  1  0
  2  3  2  0
  3  4  1  0
  3  5  1  0
  5  6  2  0
  6  7  1  0
  7  8  2  0
  8  9  1  0
  8 10  1  0
 10 11  1  0
 10 12  2  0
 12 13  1  0
 12 14  1  0
 14 15  1  0
 14 16  2  0
 16 17  1  0
 17 18  2  0
 17 19  1  0
 19 20  1  0
 20 21  1  0
 20 22  1  0
 20 23  1  0
 23 24  1  0
 23 25  1  0
 23 26  1  0
 26 27  1  0
 27 28  1  0
 27 29  1  0
 27 30  1  0
 30 31  1  0
 30 32  1  0
 30 33  1  0
 33 34  1  0
 33 35  1  0
 33 36  1  0
 36 37  1  0
 36 38  1  0
 36 39  1  0
 39 40  1  0
 39 41  1  0
  2 42  1  0
 42 43  2  0
 43 44  1  0
 43 45  1  0
 45 46  1  0
 45 47  2  0
 47 48  1  0
 48 49  1  0
 48 50  2  0
 50 51  1  0
 19  5  1  0
 39 26  1  0
 50 42  1  0
 16  7  1  0
M  CHG  1  33   1
M  END
>  <UniqueID>  (1) 
609

>  <SMILES>  (1) 
O=c1c2ccccc2nc(/C=C/c2ccncc2)n1CCN1CC[NH2+]CC1

>  <Energy>  (1) 
69.44841695418637

>  <Genealogy>  (1) 
O=c1c2ccccc2nc(/C=C/c2ccncc2)n1CCN1CC[NH2+]CC1 (protonated)
O=c1c2ccccc2nc(/C=C/c2ccncc2)n1CCN1CC[NH2+]CC1 (cis-trans isomerization)
O=c1c2ccccc2nc(/C=C/c2ccncc2)n1CCN1CC[NH2+]CC1 (3D coordinates assigned)
O=c1c2ccccc2nc(/C=C/c2ccncc2)n1CCN1CC[NH2+]CC1 (nonaromatic ring conformer: 69.44841695418637 kcal/mol)

>  <smiles>  (1) 
O=c1c2ccccc2nc(/C=C/c2ccncc2)n1CCN1CCNCC1

>  <score_type>  (1) 
oracle

>  <origin>  (1) 
autodockgpu

>  <m_score__min__energy>  (1) 
-7.2800000000000002

>  <m_primary>  (1) 
energy

>  <meeko>  (1) 
{"free_energy": -7.28, "intermolecular_energy": -9.07, "internal_energy": -1.24, "cluster_size": 16, "cluster_id": 1, "rank_in_cluster": 3}

>  <energy>  (1) 
-7.28

>  <cluster_rmsd>  (1) 
0.0

>  <rmsd>  (1) 
270.63

>  <cluster>  (1) 
1

$$$$
MZUVVVBFQHRAFD-JMWNCHMZNA-O
     RDKit          3D

 51 54  0  0  0  0  0  0  0  0999 V2000
  143.8913   80.3153  222.9529 H   0  0  0  0  0  0  0  0  0  0  0  0
  142.8160   80.1680  222.7740 C   0  0  0  0  0  0  0  0  0  0  0  0
  142.2060   79.1430  223.3820 C   0  0  0  0  0  0  0  0  0  0  0  0
  142.7981   78.4437  223.9906 H   0  0  0  0  0  0  0  0  0  0  0  0
  140.7450   78.9370  223.2470 C   0  0  0  0  0  0  0  0  0  0  0  0
  139.9270   79.8470  223.8410 N   0  0  0  0  0  0  0  0  0  0  0  0
  138.5810   79.7580  223.7660 C   0  0  0  0  0  0  0  0  0  0  0  0
  137.7800   80.7180  224.3980 C   0  0  0  0  0  0  0  0  0  0  0  0
  138.2471   81.5420  224.9573 H   0  0  0  0  0  0  0  0  0  0  0  0
  136.3870   80.6290  224.3180 C   0  0  0  0  0  0  0  0  0  0  0  0
  135.7588   81.3822  224.8160 H   0  0  0  0  0  0  0  0  0  0  0  0
  135.7920   79.5840  223.6060 C   0  0  0  0  0  0  0  0  0  0  0  0
  134.6958   79.5164  223.5441 H   0  0  0  0  0  0  0  0  0  0  0  0
  136.5870   78.6240  222.9720 C   0  0  0  0  0  0  0  0  0  0  0  0
  136.1151   77.8042  222.4106 H   0  0  0  0  0  0  0  0  0  0  0  0
  137.9910   78.7050  223.0510 C   0  0  0  0  0  0  0  0  0  0  0  0
  138.8350   77.7710  222.4270 C   0  0  0  0  0  0  0  0  0  0  0  0
  138.3250   76.8300  221.7560 O   0  0  0  0  0  0  0  0  0  0  0  0
  140.2040   77.8830  222.5350 N   0  0  0  0  0  0  0  0  0  0  0  0
  141.0590   76.9330  221.7840 C   0  0  0  0  0  0  0  0  0  0  0  0
  141.7789   76.4722  222.4764 H   0  0  0  0  0  0  0  0  0  0  0  0
  140.4150   76.1653  221.3303 H   0  0  0  0  0  0  0  0  0  0  0  0
  141.8260   77.6490  220.6670 C   0  0  0  0  0  0  0  0  0  0  0  0
  141.7321   78.7370  220.7988 H   0  0  0  0  0  0  0  0  0  0  0  0
  142.8866   77.3607  220.7119 H   0  0  0  0  0  0  0  0  0  0  0  0
  141.2690   77.2630  219.3490 N   0  0  0  0  0  0  0  0  0  0  0  0
  140.8800   78.4160  218.5130 C   0  0  0  0  0  0  0  0  0  0  0  0
  140.1972   78.0688  217.7235 H   0  0  0  0  0  0  0  0  0  0  0  0
  140.3911   79.1582  219.1612 H   0  0  0  0  0  0  0  0  0  0  0  0
  142.1000   79.0850  217.8570 C   0  0  0  0  0  0  0  0  0  0  0  0
  141.7534   79.8725  217.1716 H   0  0  0  0  0  0  0  0  0  0  0  0
  142.7324   79.5141  218.6482 H   0  0  0  0  0  0  0  0  0  0  0  0
  142.8940   78.1060  217.1020 N   0  0  0  0  0  0  0  0  0  0  0  0
  143.7400   78.5840  216.7130 H   0  0  0  0  0  0  0  0  0  0  0  0
  142.3280   77.7330  216.3030 H   0  0  0  0  0  0  0  0  0  0  0  0
  143.3260   77.0000  217.9660 C   0  0  0  0  0  0  0  0  0  0  0  0
  143.8835   76.2676  217.3637 H   0  0  0  0  0  0  0  0  0  0  0  0
  143.9664   77.4035  218.7641 H   0  0  0  0  0  0  0  0  0  0  0  0
  142.1140   76.3080  218.6070 C   0  0  0  0  0  0  0  0  0  0  0  0
  141.5112   75.8393  217.8152 H   0  0  0  0  0  0  0  0  0  0  0  0
  142.4855   75.5552  219.3178 H   0  0  0  0  0  0  0  0  0  0  0  0
  142.1180   81.1140  221.8730 C   0  0  0  0  0  0  0  0  0  0  0  0
  141.4490   82.2570  222.3500 C   0  0  0  0  0  0  0  0  0  0  0  0
  141.4385   82.4832  223.4264 H   0  0  0  0  0  0  0  0  0  0  0  0
  140.7980   83.1030  221.4470 C   0  0  0  0  0  0  0  0  0  0  0  0
  140.2751   83.9987  221.8133 H   0  0  0  0  0  0  0  0  0  0  0  0
  140.8100   82.8210  220.1180 N   0  0  0  0  0  0  0  0  0  0  0  0
  141.4420   81.7220  219.6280 C   0  0  0  0  0  0  0  0  0  0  0  0
  141.4360   81.5214  218.5465 H   0  0  0  0  0  0  0  0  0  0  0  0
  142.0990   80.8470  220.4960 C   0  0  0  0  0  0  0  0  0  0  0  0
  142.6001   79.9510  220.1009 H   0  0  0  0  0  0  0  0  0  0  0  0
  1  2  1  0
  2  3  2  0
  3  4  1  0
  3  5  1  0
  5  6  2  0
  6  7  1  0
  7  8  2  0
  8  9  1  0
  8 10  1  0
 10 11  1  0
 10 12  2  0
 12 13  1  0
 12 14  1  0
 14 15  1  0
 14 16  2  0
 16 17  1  0
 17 18  2  0
 17 19  1  0
 19 20  1  0
 20 21  1  0
 20 22  1  0
 20 23  1  0
 23 24  1  0
 23 25  1  0
 23 26  1  0
 26 27  1  0
 27 28  1  0
 27 29  1  0
 27 30  1  0
 30 31  1  0
 30 32  1  0
 30 33  1  0
 33 34  1  0
 33 35  1  0
 33 36  1  0
 36 37  1  0
 36 38  1  0
 36 39  1  0
 39 40  1  0
 39 41  1  0
  2 42  1  0
 42 43  2  0
 43 44  1  0
 43 45  1  0
 45 46  1  0
 45 47  2  0
 47 48  1  0
 48 49  1  0
 48 50  2  0
 50 51  1  0
 19  5  1  0
 39 26  1  0
 50 42  1  0
 16  7  1  0
M  CHG  1  33   1
M  END
>  <UniqueID>  (2) 
609

>  <SMILES>  (2) 
O=c1c2ccccc2nc(/C=C/c2ccncc2)n1CCN1CC[NH2+]CC1

>  <Energy>  (2) 
69.44841695418637

>  <Genealogy>  (2) 
O=c1c2ccccc2nc(/C=C/c2ccncc2)n1CCN1CC[NH2+]CC1 (protonated)
O=c1c2ccccc2nc(/C=C/c2ccncc2)n1CCN1CC[NH2+]CC1 (cis-trans isomerization)
O=c1c2ccccc2nc(/C=C/c2ccncc2)n1CCN1CC[NH2+]CC1 (3D coordinates assigned)
O=c1c2ccccc2nc(/C=C/c2ccncc2)n1CCN1CC[NH2+]CC1 (nonaromatic ring conformer: 69.44841695418637 kcal/mol)

>  <smiles>  (2) 
O=c1c2ccccc2nc(/C=C/c2ccncc2)n1CCN1CCNCC1

>  <score_type>  (2) 
oracle

>  <origin>  (2) 
autodockgpu

>  <m_score__min__energy>  (2) 
-7.2800000000000002

>  <m_primary>  (2) 
energy

>  <meeko>  (2) 
{"free_energy": -6.38, "intermolecular_energy": -8.17, "internal_energy": -1.51, "cluster_size": 1, "cluster_id": 3, "rank_in_cluster": 1}

>  <energy>  (2) 
-7.28

>  <cluster_rmsd>  (2) 
0.04

>  <rmsd>  (2) 
270.61

>  <cluster>  (2) 
1

$$$$
MZUVVVBFQHRAFD-JMWNCHMZNA-O
     RDKit          3D

 51 54  0  0  0  0  0  0  0  0999 V2000
  138.5780   78.1815  223.9678 H   0  0  0  0  0  0  0  0  0  0  0  0
  139.2500   78.2840  223.1030 C   0  0  0  0  0  0  0  0  0  0  0  0
  139.0630   77.4730  222.0540 C   0  0  0  0  0  0  0  0  0  0  0  0
  138.1071   77.5014  221.5104 H   0  0  0  0  0  0  0  0  0  0  0  0
  140.1250   76.5380  221.6150 C   0  0  0  0  0  0  0  0  0  0  0  0
  139.9880   75.2290  221.9580 N   0  0  0  0  0  0  0  0  0  0  0  0
  140.8930   74.2940  221.5950 C   0  0  0  0  0  0  0  0  0  0  0  0
  140.7110   72.9590  221.9760 C   0  0  0  0  0  0  0  0  0  0  0  0
  139.8323   72.6726  222.5725 H   0  0  0  0  0  0  0  0  0  0  0  0
  141.6450   71.9900  221.5990 C   0  0  0  0  0  0  0  0  0  0  0  0
  141.5012   70.9419  221.9003 H   0  0  0  0  0  0  0  0  0  0  0  0
  142.7610   72.3510  220.8400 C   0  0  0  0  0  0  0  0  0  0  0  0
  143.4941   71.5862  220.5438 H   0  0  0  0  0  0  0  0  0  0  0  0
  142.9480   73.6830  220.4560 C   0  0  0  0  0  0  0  0  0  0  0  0
  143.8269   73.9634  219.8569 H   0  0  0  0  0  0  0  0  0  0  0  0
  142.0130   74.6660  220.8350 C   0  0  0  0  0  0  0  0  0  0  0  0
  142.1490   76.0160  220.4700 C   0  0  0  0  0  0  0  0  0  0  0  0
  143.1350   76.3670  219.7630 O   0  0  0  0  0  0  0  0  0  0  0  0
  141.2150   76.9460  220.8680 N   0  0  0  0  0  0  0  0  0  0  0  0
  141.3450   78.3410  220.3840 C   0  0  0  0  0  0  0  0  0  0  0  0
  140.5598   78.9571  220.8465 H   0  0  0  0  0  0  0  0  0  0  0  0
  142.3414   78.7167  220.6598 H   0  0  0  0  0  0  0  0  0  0  0  0
  141.2020   78.4080  218.8590 C   0  0  0  0  0  0  0  0  0  0  0  0
  140.9065   77.4199  218.4764 H   0  0  0  0  0  0  0  0  0  0  0  0
  140.4342   79.1515  218.5990 H   0  0  0  0  0  0  0  0  0  0  0  0
  142.4920   78.8050  218.2500 N   0  0  0  0  0  0  0  0  0  0  0  0
  142.8480   78.0130  217.0560 C   0  0  0  0  0  0  0  0  0  0  0  0
  143.9244   78.1278  216.8608 H   0  0  0  0  0  0  0  0  0  0  0  0
  142.5915   76.9619  217.2546 H   0  0  0  0  0  0  0  0  0  0  0  0
  142.0650   78.4690  215.8120 C   0  0  0  0  0  0  0  0  0  0  0  0
  142.4328   77.9187  214.9334 H   0  0  0  0  0  0  0  0  0  0  0  0
  140.9967   78.2637  215.9749 H   0  0  0  0  0  0  0  0  0  0  0  0
  142.2360   79.9100  215.5830 N   0  0  0  0  0  0  0  0  0  0  0  0
  141.6510   80.1940  214.7630 H   0  0  0  0  0  0  0  0  0  0  0  0
  143.2380   80.1170  215.3610 H   0  0  0  0  0  0  0  0  0  0  0  0
  141.8150   80.6840  216.7580 C   0  0  0  0  0  0  0  0  0  0  0  0
  141.9909   81.7532  216.5683 H   0  0  0  0  0  0  0  0  0  0  0  0
  140.7457   80.4999  216.9388 H   0  0  0  0  0  0  0  0  0  0  0  0
  142.6080   80.2550  218.0020 C   0  0  0  0  0  0  0  0  0  0  0  0
  143.6683   80.5075  217.8535 H   0  0  0  0  0  0  0  0  0  0  0  0
  142.1945   80.7859  218.8722 H   0  0  0  0  0  0  0  0  0  0  0  0
  140.3150   79.3120  223.1590 C   0  0  0  0  0  0  0  0  0  0  0  0
  140.1390   80.6100  222.6440 C   0  0  0  0  0  0  0  0  0  0  0  0
  139.1811   80.8985  222.1867 H   0  0  0  0  0  0  0  0  0  0  0  0
  141.1880   81.5300  222.7170 C   0  0  0  0  0  0  0  0  0  0  0  0
  141.0549   82.5470  222.3194 H   0  0  0  0  0  0  0  0  0  0  0  0
  142.3720   81.1710  223.2780 N   0  0  0  0  0  0  0  0  0  0  0  0
  142.5750   79.9240  223.7770 C   0  0  0  0  0  0  0  0  0  0  0  0
  143.5445   79.6637  224.2267 H   0  0  0  0  0  0  0  0  0  0  0  0
  141.5550   78.9720  223.7200 C   0  0  0  0  0  0  0  0  0  0  0  0
  141.7233   77.9588  224.1137 H   0  0  0  0  0  0  0  0  0  0  0  0
  1  2  1  0
  2  3  2  0
  3  4  1  0
  3  5  1  0
  5  6  2  0
  6  7  1  0
  7  8  2  0
  8  9  1  0
  8 10  1  0
 10 11  1  0
 10 12  2  0
 12 13  1  0
 12 14  1  0
 14 15  1  0
 14 16  2  0
 16 17  1  0
 17 18  2  0
 17 19  1  0
 19 20  1  0
 20 21  1  0
 20 22  1  0
 20 23  1  0
 23 24  1  0
 23 25  1  0
 23 26  1  0
 26 27  1  0
 27 28  1  0
 27 29  1  0
 27 30  1  0
 30 31  1  0
 30 32  1  0
 30 33  1  0
 33 34  1  0
 33 35  1  0
 33 36  1  0
 36 37  1  0
 36 38  1  0
 36 39  1  0
 39 40  1  0
 39 41  1  0
  2 42  1  0
 42 43  2  0
 43 44  1  0
 43 45  1  0
 45 46  1  0
 45 47  2  0
 47 48  1  0
 48 49  1  0
 48 50  2  0
 50 51  1  0
 19  5  1  0
 39 26  1  0
 50 42  1  0
 16  7  1  0
M  CHG  1  33   1
M  END
>  <UniqueID>  (3) 
609

>  <SMILES>  (3) 
O=c1c2ccccc2nc(/C=C/c2ccncc2)n1CCN1CC[NH2+]CC1

>  <Energy>  (3) 
69.44841695418637

>  <Genealogy>  (3) 
O=c1c2ccccc2nc(/C=C/c2ccncc2)n1CCN1CC[NH2+]CC1 (protonated)
O=c1c2ccccc2nc(/C=C/c2ccncc2)n1CCN1CC[NH2+]CC1 (cis-trans isomerization)
O=c1c2ccccc2nc(/C=C/c2ccncc2)n1CCN1CC[NH2+]CC1 (3D coordinates assigned)
O=c1c2ccccc2nc(/C=C/c2ccncc2)n1CCN1CC[NH2+]CC1 (nonaromatic ring conformer: 69.44841695418637 kcal/mol)

>  <smiles>  (3) 
O=c1c2ccccc2nc(/C=C/c2ccncc2)n1CCN1CCNCC1

>  <score_type>  (3) 
oracle

>  <origin>  (3) 
autodockgpu

>  <m_score__min__energy>  (3) 
-7.2800000000000002

>  <m_primary>  (3) 
energy

>  <meeko>  (3) 
{"free_energy": -7.26, "intermolecular_energy": -9.05, "internal_energy": -1.25, "cluster_size": 16, "cluster_id": 1, "rank_in_cluster": 8}

>  <energy>  (3) 
-7.28

>  <cluster_rmsd>  (3) 
0.07

>  <rmsd>  (3) 
270.63

>  <cluster>  (3) 
1

$$$$
MZUVVVBFQHRAFD-JMWNCHMZNA-O
     RDKit          3D

 51 54  0  0  0  0  0  0  0  0999 V2000
  138.6010   78.1718  223.9656 H   0  0  0  0  0  0  0  0  0  0  0  0
  139.2770   78.2670  223.1030 C   0  0  0  0  0  0  0  0  0  0  0  0
  139.0790   77.4640  222.0500 C   0  0  0  0  0  0  0  0  0  0  0  0
  138.1251   77.5104  221.5042 H   0  0  0  0  0  0  0  0  0  0  0  0
  140.1270   76.5140  221.6100 C   0  0  0  0  0  0  0  0  0  0  0  0
  139.9710   75.2080  221.9530 N   0  0  0  0  0  0  0  0  0  0  0  0
  140.8620   74.2580  221.5900 C   0  0  0  0  0  0  0  0  0  0  0  0
  140.6600   72.9260  221.9710 C   0  0  0  0  0  0  0  0  0  0  0  0
  139.7775   72.6526  222.5681 H   0  0  0  0  0  0  0  0  0  0  0  0
  141.5790   71.9440  221.5930 C   0  0  0  0  0  0  0  0  0  0  0  0
  141.4198   70.8981  221.8942 H   0  0  0  0  0  0  0  0  0  0  0  0
  142.7000   72.2880  220.8330 C   0  0  0  0  0  0  0  0  0  0  0  0
  143.4217   71.5124  220.5369 H   0  0  0  0  0  0  0  0  0  0  0  0
  142.9060   73.6170  220.4480 C   0  0  0  0  0  0  0  0  0  0  0  0
  143.7880   73.8841  219.8474 H   0  0  0  0  0  0  0  0  0  0  0  0
  141.9860   74.6140  220.8280 C   0  0  0  0  0  0  0  0  0  0  0  0
  142.1410   75.9610  220.4620 C   0  0  0  0  0  0  0  0  0  0  0  0
  143.1320   76.2980  219.7540 O   0  0  0  0  0  0  0  0  0  0  0  0
  141.2220   76.9050  220.8620 N   0  0  0  0  0  0  0  0  0  0  0  0
  141.3720   78.2980  220.3760 C   0  0  0  0  0  0  0  0  0  0  0  0
  140.5971   78.9261  220.8398 H   0  0  0  0  0  0  0  0  0  0  0  0
  142.3748   78.6582  220.6491 H   0  0  0  0  0  0  0  0  0  0  0  0
  141.2270   78.3670  218.8520 C   0  0  0  0  0  0  0  0  0  0  0  0
  140.9552   77.3735  218.4659 H   0  0  0  0  0  0  0  0  0  0  0  0
  140.4415   79.0929  218.5950 H   0  0  0  0  0  0  0  0  0  0  0  0
  142.5070   78.7970  218.2440 N   0  0  0  0  0  0  0  0  0  0  0  0
  142.8810   78.0200  217.0450 C   0  0  0  0  0  0  0  0  0  0  0  0
  143.9543   78.1610  216.8499 H   0  0  0  0  0  0  0  0  0  0  0  0
  142.6496   76.9620  217.2375 H   0  0  0  0  0  0  0  0  0  0  0  0
  142.0870   78.4650  215.8050 C   0  0  0  0  0  0  0  0  0  0  0  0
  142.4664   77.9280  214.9231 H   0  0  0  0  0  0  0  0  0  0  0  0
  141.0239   78.2348  215.9685 H   0  0  0  0  0  0  0  0  0  0  0  0
  142.2240   79.9100  215.5830 N   0  0  0  0  0  0  0  0  0  0  0  0
  141.6320   80.1850  214.7650 H   0  0  0  0  0  0  0  0  0  0  0  0
  143.2210   80.1420  215.3620 H   0  0  0  0  0  0  0  0  0  0  0  0
  141.7860   80.6680  216.7630 C   0  0  0  0  0  0  0  0  0  0  0  0
  141.9372   81.7420  216.5793 H   0  0  0  0  0  0  0  0  0  0  0  0
  140.7213   80.4588  216.9435 H   0  0  0  0  0  0  0  0  0  0  0  0
  142.5900   80.2500  218.0040 C   0  0  0  0  0  0  0  0  0  0  0  0
  143.6441   80.5272  217.8558 H   0  0  0  0  0  0  0  0  0  0  0  0
  142.1656   80.7666  218.8775 H   0  0  0  0  0  0  0  0  0  0  0  0
  140.3590   79.2770  223.1670 C   0  0  0  0  0  0  0  0  0  0  0  0
  141.6070   79.0090  223.7590 C   0  0  0  0  0  0  0  0  0  0  0  0
  141.8143   78.0175  224.1879 H   0  0  0  0  0  0  0  0  0  0  0  0
  142.5820   80.0100  223.7990 C   0  0  0  0  0  0  0  0  0  0  0  0
  143.5603   79.8057  224.2586 H   0  0  0  0  0  0  0  0  0  0  0  0
  142.3230   81.2350  223.2710 N   0  0  0  0  0  0  0  0  0  0  0  0
  141.1260   81.5260  222.6970 C   0  0  0  0  0  0  0  0  0  0  0  0
  140.9475   82.5262  222.2753 H   0  0  0  0  0  0  0  0  0  0  0  0
  140.1220   80.5560  222.6420 C   0  0  0  0  0  0  0  0  0  0  0  0
  139.1487   80.7945  222.1884 H   0  0  0  0  0  0  0  0  0  0  0  0
  1  2  1  0
  2  3  2  0
  3  4  1  0
  3  5  1  0
  5  6  2  0
  6  7  1  0
  7  8  2  0
  8  9  1  0
  8 10  1  0
 10 11  1  0
 10 12  2  0
 12 13  1  0
 12 14  1  0
 14 15  1  0
 14 16  2  0
 16 17  1  0
 17 18  2  0
 17 19  1  0
 19 20  1  0
 20 21  1  0
 20 22  1  0
 20 23  1  0
 23 24  1  0
 23 25  1  0
 23 26  1  0
 26 27  1  0
 27 28  1  0
 27 29  1  0
 27 30  1  0
 30 31  1  0
 30 32  1  0
 30 33  1  0
 33 34  1  0
 33 35  1  0
 33 36  1  0
 36 37  1  0
 36 38  1  0
 36 39  1  0
 39 40  1  0
 39 41  1  0
  2 42  1  0
 42 43  2  0
 43 44  1  0
 43 45  1  0
 45 46  1  0
 45 47  2  0
 47 48  1  0
 48 49  1  0
 48 50  2  0
 50 51  1  0
 19  5  1  0
 39 26  1  0
 50 42  1  0
 16  7  1  0
M  CHG  1  33   1
M  END
>  <UniqueID>  (4) 
609

>  <SMILES>  (4) 
O=c1c2ccccc2nc(/C=C/c2ccncc2)n1CCN1CC[NH2+]CC1

>  <Energy>  (4) 
69.44841695418637

>  <Genealogy>  (4) 
O=c1c2ccccc2nc(/C=C/c2ccncc2)n1CCN1CC[NH2+]CC1 (protonated)
O=c1c2ccccc2nc(/C=C/c2ccncc2)n1CCN1CC[NH2+]CC1 (cis-trans isomerization)
O=c1c2ccccc2nc(/C=C/c2ccncc2)n1CCN1CC[NH2+]CC1 (3D coordinates assigned)
O=c1c2ccccc2nc(/C=C/c2ccncc2)n1CCN1CC[NH2+]CC1 (nonaromatic ring conformer: 69.44841695418637 kcal/mol)

>  <smiles>  (4) 
O=c1c2ccccc2nc(/C=C/c2ccncc2)n1CCN1CCNCC1

>  <score_type>  (4) 
oracle

>  <origin>  (4) 
autodockgpu

>  <m_score__min__energy>  (4) 
-7.2800000000000002

>  <m_primary>  (4) 
energy

>  <meeko>  (4) 
{"free_energy": -7.28, "intermolecular_energy": -9.07, "internal_energy": -1.24, "cluster_size": 16, "cluster_id": 1, "rank_in_cluster": 2}

>  <energy>  (4) 
-7.28

>  <cluster_rmsd>  (4) 
0.05

>  <rmsd>  (4) 
270.62

>  <cluster>  (4) 
1

$$$$
MZUVVVBFQHRAFD-JMWNCHMZNA-O
     RDKit          3D

 51 54  0  0  0  0  0  0  0  0999 V2000
  140.3162   74.3780  222.3436 H   0  0  0  0  0  0  0  0  0  0  0  0
  140.5650   75.0990  221.5510 C   0  0  0  0  0  0  0  0  0  0  0  0
  139.6940   76.0820  221.2910 C   0  0  0  0  0  0  0  0  0  0  0  0
  138.7042   75.8345  220.8799 H   0  0  0  0  0  0  0  0  0  0  0  0
  140.0440   77.4980  221.5490 C   0  0  0  0  0  0  0  0  0  0  0  0
  140.9330   77.7500  222.5470 N   0  0  0  0  0  0  0  0  0  0  0  0
  141.3290   79.0050  222.8550 C   0  0  0  0  0  0  0  0  0  0  0  0
  142.2430   79.2160  223.8940 C   0  0  0  0  0  0  0  0  0  0  0  0
  142.6366   78.3600  224.4617 H   0  0  0  0  0  0  0  0  0  0  0  0
  142.6560   80.5130  224.2110 C   0  0  0  0  0  0  0  0  0  0  0  0
  143.3726   80.6773  225.0292 H   0  0  0  0  0  0  0  0  0  0  0  0
  142.1590   81.6010  223.4890 C   0  0  0  0  0  0  0  0  0  0  0  0
  142.4861   82.6209  223.7395 H   0  0  0  0  0  0  0  0  0  0  0  0
  141.2470   81.3970  222.4490 C   0  0  0  0  0  0  0  0  0  0  0  0
  140.8598   82.2564  221.8819 H   0  0  0  0  0  0  0  0  0  0  0  0
  140.8230   80.0930  222.1260 C   0  0  0  0  0  0  0  0  0  0  0  0
  139.9150   79.8320  221.0870 C   0  0  0  0  0  0  0  0  0  0  0  0
  139.4680   80.7950  220.4020 O   0  0  0  0  0  0  0  0  0  0  0  0
  139.5210   78.5420  220.8100 N   0  0  0  0  0  0  0  0  0  0  0  0
  138.6350   78.3010  219.6460 C   0  0  0  0  0  0  0  0  0  0  0  0
  138.3113   77.2497  219.6521 H   0  0  0  0  0  0  0  0  0  0  0  0
  137.7670   78.9724  219.7218 H   0  0  0  0  0  0  0  0  0  0  0  0
  139.3640   78.5930  218.3300 C   0  0  0  0  0  0  0  0  0  0  0  0
  138.8075   78.1403  217.4961 H   0  0  0  0  0  0  0  0  0  0  0  0
  139.4291   79.6814  218.1848 H   0  0  0  0  0  0  0  0  0  0  0  0
  140.7310   78.0230  218.3760 N   0  0  0  0  0  0  0  0  0  0  0  0
  141.1260   77.3380  217.1290 C   0  0  0  0  0  0  0  0  0  0  0  0
  141.9812   76.6793  217.3404 H   0  0  0  0  0  0  0  0  0  0  0  0
  140.2618   76.7613  216.7678 H   0  0  0  0  0  0  0  0  0  0  0  0
  141.5270   78.3370  216.0290 C   0  0  0  0  0  0  0  0  0  0  0  0
  141.9048   77.7811  215.1583 H   0  0  0  0  0  0  0  0  0  0  0  0
  140.6419   78.9291  215.7531 H   0  0  0  0  0  0  0  0  0  0  0  0
  142.5730   79.2520  216.5060 N   0  0  0  0  0  0  0  0  0  0  0  0
  142.7840   79.9470  215.7530 H   0  0  0  0  0  0  0  0  0  0  0  0
  143.4470   78.7120  216.7120 H   0  0  0  0  0  0  0  0  0  0  0  0
  142.1360   79.9710  217.7090 C   0  0  0  0  0  0  0  0  0  0  0  0
  142.9539   80.6169  218.0610 H   0  0  0  0  0  0  0  0  0  0  0  0
  141.2529   80.5771  217.4583 H   0  0  0  0  0  0  0  0  0  0  0  0
  141.7580   78.9830  218.8230 C   0  0  0  0  0  0  0  0  0  0  0  0
  142.6573   78.4272  219.1267 H   0  0  0  0  0  0  0  0  0  0  0  0
  141.3463   79.5578  219.6657 H   0  0  0  0  0  0  0  0  0  0  0  0
  141.8460   74.9320  220.8270 C   0  0  0  0  0  0  0  0  0  0  0  0
  142.4580   75.9860  220.1220 C   0  0  0  0  0  0  0  0  0  0  0  0
  141.9920   76.9822  220.1018 H   0  0  0  0  0  0  0  0  0  0  0  0
  143.6610   75.7590  219.4480 C   0  0  0  0  0  0  0  0  0  0  0  0
  144.1449   76.5793  218.8976 H   0  0  0  0  0  0  0  0  0  0  0  0
  144.2340   74.5280  219.4710 N   0  0  0  0  0  0  0  0  0  0  0  0
  143.6650   73.4890  220.1370 C   0  0  0  0  0  0  0  0  0  0  0  0
  144.1540   72.5037  220.1389 H   0  0  0  0  0  0  0  0  0  0  0  0
  142.4600   73.6710  220.8190 C   0  0  0  0  0  0  0  0  0  0  0  0
  141.9935   72.8273  221.3487 H   0  0  0  0  0  0  0  0  0  0  0  0
  1  2  1  0
  2  3  2  0
  3  4  1  0
  3  5  1  0
  5  6  2  0
  6  7  1  0
  7  8  2  0
  8  9  1  0
  8 10  1  0
 10 11  1  0
 10 12  2  0
 12 13  1  0
 12 14  1  0
 14 15  1  0
 14 16  2  0
 16 17  1  0
 17 18  2  0
 17 19  1  0
 19 20  1  0
 20 21  1  0
 20 22  1  0
 20 23  1  0
 23 24  1  0
 23 25  1  0
 23 26  1  0
 26 27  1  0
 27 28  1  0
 27 29  1  0
 27 30  1  0
 30 31  1  0
 30 32  1  0
 30 33  1  0
 33 34  1  0
 33 35  1  0
 33 36  1  0
 36 37  1  0
 36 38  1  0
 36 39  1  0
 39 40  1  0
 39 41  1  0
  2 42  1  0
 42 43  2  0
 43 44  1  0
 43 45  1  0
 45 46  1  0
 45 47  2  0
 47 48  1  0
 48 49  1  0
 48 50  2  0
 50 51  1  0
 19  5  1  0
 39 26  1  0
 50 42  1  0
 16  7  1  0
M  CHG  1  33   1
M  END
>  <UniqueID>  (5) 
609

>  <SMILES>  (5) 
O=c1c2ccccc2nc(/C=C/c2ccncc2)n1CCN1CC[NH2+]CC1

>  <Energy>  (5) 
69.44841695418637

>  <Genealogy>  (5) 
O=c1c2ccccc2nc(/C=C/c2ccncc2)n1CCN1CC[NH2+]CC1 (protonated)
O=c1c2ccccc2nc(/C=C/c2ccncc2)n1CCN1CC[NH2+]CC1 (cis-trans isomerization)
O=c1c2ccccc2nc(/C=C/c2ccncc2)n1CCN1CC[NH2+]CC1 (3D coordinates assigned)
O=c1c2ccccc2nc(/C=C/c2ccncc2)n1CCN1CC[NH2+]CC1 (nonaromatic ring conformer: 69.44841695418637 kcal/mol)

>  <smiles>  (5) 
O=c1c2ccccc2nc(/C=C/c2ccncc2)n1CCN1CCNCC1

>  <score_type>  (5) 
oracle

>  <origin>  (5) 
autodockgpu

>  <m_score__min__energy>  (5) 
-7.2800000000000002

>  <m_primary>  (5) 
energy

>  <meeko>  (5) 
{"free_energy": -6.51, "intermolecular_energy": -8.3, "internal_energy": -1.68, "cluster_size": 3, "cluster_id": 2, "rank_in_cluster": 2}

>  <energy>  (5) 
-7.27

>  <cluster_rmsd>  (5) 
0.04

>  <rmsd>  (5) 
270.62

>  <cluster>  (5) 
1

$$$$
MZUVVVBFQHRAFD-JMWNCHMZNA-O
     RDKit          3D

 51 54  0  0  0  0  0  0  0  0999 V2000
  138.6625   78.1321  223.9764 H   0  0  0  0  0  0  0  0  0  0  0  0
  139.3070   78.2780  223.0970 C   0  0  0  0  0  0  0  0  0  0  0  0
  139.1150   77.4900  222.0320 C   0  0  0  0  0  0  0  0  0  0  0  0
  138.1723   77.5592  221.4695 H   0  0  0  0  0  0  0  0  0  0  0  0
  140.1540   76.5260  221.6000 C   0  0  0  0  0  0  0  0  0  0  0  0
  139.9790   75.2220  221.9440 N   0  0  0  0  0  0  0  0  0  0  0  0
  140.8610   74.2620  221.5880 C   0  0  0  0  0  0  0  0  0  0  0  0
  140.6400   72.9330  221.9700 C   0  0  0  0  0  0  0  0  0  0  0  0
  139.7505   72.6716  222.5620 H   0  0  0  0  0  0  0  0  0  0  0  0
  141.5500   71.9380  221.5990 C   0  0  0  0  0  0  0  0  0  0  0  0
  141.3767   70.8946  221.9011 H   0  0  0  0  0  0  0  0  0  0  0  0
  142.6790   72.2680  220.8450 C   0  0  0  0  0  0  0  0  0  0  0  0
  143.3926   71.4833  220.5534 H   0  0  0  0  0  0  0  0  0  0  0  0
  142.9040   73.5940  220.4600 C   0  0  0  0  0  0  0  0  0  0  0  0
  143.7932   73.8497  219.8650 H   0  0  0  0  0  0  0  0  0  0  0  0
  141.9940   74.6020  220.8330 C   0  0  0  0  0  0  0  0  0  0  0  0
  142.1680   75.9470  220.4670 C   0  0  0  0  0  0  0  0  0  0  0  0
  143.1680   76.2700  219.7650 O   0  0  0  0  0  0  0  0  0  0  0  0
  141.2580   76.9030  220.8590 N   0  0  0  0  0  0  0  0  0  0  0  0
  141.4290   78.2930  220.3730 C   0  0  0  0  0  0  0  0  0  0  0  0
  140.6679   78.9341  220.8416 H   0  0  0  0  0  0  0  0  0  0  0  0
  142.4394   78.6359  220.6404 H   0  0  0  0  0  0  0  0  0  0  0  0
  141.2760   78.3650  218.8490 C   0  0  0  0  0  0  0  0  0  0  0  0
  141.0058   77.3715  218.4619 H   0  0  0  0  0  0  0  0  0  0  0  0
  140.4866   79.0885  218.5973 H   0  0  0  0  0  0  0  0  0  0  0  0
  142.5520   78.8010  218.2360 N   0  0  0  0  0  0  0  0  0  0  0  0
  142.9240   78.0260  217.0360 C   0  0  0  0  0  0  0  0  0  0  0  0
  143.9959   78.1717  216.8364 H   0  0  0  0  0  0  0  0  0  0  0  0
  142.6978   76.9671  217.2297 H   0  0  0  0  0  0  0  0  0  0  0  0
  142.1230   78.4670  215.7990 C   0  0  0  0  0  0  0  0  0  0  0  0
  142.5018   77.9322  214.9156 H   0  0  0  0  0  0  0  0  0  0  0  0
  141.0617   78.2312  215.9662 H   0  0  0  0  0  0  0  0  0  0  0  0
  142.2520   79.9130  215.5770 N   0  0  0  0  0  0  0  0  0  0  0  0
  141.6550   80.1850  214.7610 H   0  0  0  0  0  0  0  0  0  0  0  0
  143.2470   80.1490  215.3520 H   0  0  0  0  0  0  0  0  0  0  0  0
  141.8150   80.6680  216.7580 C   0  0  0  0  0  0  0  0  0  0  0  0
  141.9594   81.7428  216.5735 H   0  0  0  0  0  0  0  0  0  0  0  0
  140.7523   80.4525  216.9428 H   0  0  0  0  0  0  0  0  0  0  0  0
  142.6260   80.2550  217.9960 C   0  0  0  0  0  0  0  0  0  0  0  0
  143.6780   80.5382  217.8439 H   0  0  0  0  0  0  0  0  0  0  0  0
  142.2022   80.7693  218.8711 H   0  0  0  0  0  0  0  0  0  0  0  0
  140.3420   79.3360  223.1530 C   0  0  0  0  0  0  0  0  0  0  0  0
  140.1360   80.6220  222.6190 C   0  0  0  0  0  0  0  0  0  0  0  0
  139.1759   80.8782  222.1473 H   0  0  0  0  0  0  0  0  0  0  0  0
  141.1590   81.5710  222.6920 C   0  0  0  0  0  0  0  0  0  0  0  0
  141.0030   82.5784  222.2788 H   0  0  0  0  0  0  0  0  0  0  0  0
  142.3460   81.2530  223.2720 N   0  0  0  0  0  0  0  0  0  0  0  0
  142.5770   80.0180  223.7910 C   0  0  0  0  0  0  0  0  0  0  0  0
  143.5474   79.7901  224.2562 H   0  0  0  0  0  0  0  0  0  0  0  0
  141.5830   79.0380  223.7340 C   0  0  0  0  0  0  0  0  0  0  0  0
  141.7733   78.0351  224.1438 H   0  0  0  0  0  0  0  0  0  0  0  0
  1  2  1  0
  2  3  2  0
  3  4  1  0
  3  5  1  0
  5  6  2  0
  6  7  1  0
  7  8  2  0
  8  9  1  0
  8 10  1  0
 10 11  1  0
 10 12  2  0
 12 13  1  0
 12 14  1  0
 14 15  1  0
 14 16  2  0
 16 17  1  0
 17 18  2  0
 17 19  1  0
 19 20  1  0
 20 21  1  0
 20 22  1  0
 20 23  1  0
 23 24  1  0
 23 25  1  0
 23 26  1  0
 26 27  1  0
 27 28  1  0
 27 29  1  0
 27 30  1  0
 30 31  1  0
 30 32  1  0
 30 33  1  0
 33 34  1  0
 33 35  1  0
 33 36  1  0
 36 37  1  0
 36 38  1  0
 36 39  1  0
 39 40  1  0
 39 41  1  0
  2 42  1  0
 42 43  2  0
 43 44  1  0
 43 45  1  0
 45 46  1  0
 45 47  2  0
 47 48  1  0
 48 49  1  0
 48 50  2  0
 50 51  1  0
 19  5  1  0
 39 26  1  0
 50 42  1  0
 16  7  1  0
M  CHG  1  33   1
M  END
>  <UniqueID>  (6) 
609

>  <SMILES>  (6) 
O=c1c2ccccc2nc(/C=C/c2ccncc2)n1CCN1CC[NH2+]CC1

>  <Energy>  (6) 
69.44841695418637

>  <Genealogy>  (6) 
O=c1c2ccccc2nc(/C=C/c2ccncc2)n1CCN1CC[NH2+]CC1 (protonated)
O=c1c2ccccc2nc(/C=C/c2ccncc2)n1CCN1CC[NH2+]CC1 (cis-trans isomerization)
O=c1c2ccccc2nc(/C=C/c2ccncc2)n1CCN1CC[NH2+]CC1 (3D coordinates assigned)
O=c1c2ccccc2nc(/C=C/c2ccncc2)n1CCN1CC[NH2+]CC1 (nonaromatic ring conformer: 69.44841695418637 kcal/mol)

>  <smiles>  (6) 
O=c1c2ccccc2nc(/C=C/c2ccncc2)n1CCN1CCNCC1

>  <score_type>  (6) 
oracle

>  <origin>  (6) 
autodockgpu

>  <m_score__min__energy>  (6) 
-7.2800000000000002

>  <m_primary>  (6) 
energy

>  <meeko>  (6) 
{"free_energy": -7.28, "intermolecular_energy": -9.06, "internal_energy": -1.24, "cluster_size": 16, "cluster_id": 1, "rank_in_cluster": 4}

>  <energy>  (6) 
-7.27

>  <cluster_rmsd>  (6) 
0.06

>  <rmsd>  (6) 
270.62

>  <cluster>  (6) 
1

$$$$
MZUVVVBFQHRAFD-JMWNCHMZNA-O
     RDKit          3D

 51 54  0  0  0  0  0  0  0  0999 V2000
  138.7080   78.1068  223.9690 H   0  0  0  0  0  0  0  0  0  0  0  0
  139.3430   78.2820  223.0880 C   0  0  0  0  0  0  0  0  0  0  0  0
  139.1530   77.5160  222.0060 C   0  0  0  0  0  0  0  0  0  0  0  0
  138.2305   77.6276  221.4174 H   0  0  0  0  0  0  0  0  0  0  0  0
  140.1690   76.5200  221.5910 C   0  0  0  0  0  0  0  0  0  0  0  0
  139.9400   75.2200  221.9170 N   0  0  0  0  0  0  0  0  0  0  0  0
  140.7970   74.2330  221.5740 C   0  0  0  0  0  0  0  0  0  0  0  0
  140.5200   72.9090  221.9360 C   0  0  0  0  0  0  0  0  0  0  0  0
  139.6066   72.6735  222.5018 H   0  0  0  0  0  0  0  0  0  0  0  0
  141.4030   71.8870  221.5790 C   0  0  0  0  0  0  0  0  0  0  0  0
  141.1852   70.8476  221.8656 H   0  0  0  0  0  0  0  0  0  0  0  0
  142.5630   72.1840  220.8580 C   0  0  0  0  0  0  0  0  0  0  0  0
  143.2565   71.3774  220.5778 H   0  0  0  0  0  0  0  0  0  0  0  0
  142.8440   73.5040  220.4920 C   0  0  0  0  0  0  0  0  0  0  0  0
  143.7565   73.7334  219.9222 H   0  0  0  0  0  0  0  0  0  0  0  0
  141.9600   74.5410  220.8520 C   0  0  0  0  0  0  0  0  0  0  0  0
  142.1910   75.8820  220.5040 C   0  0  0  0  0  0  0  0  0  0  0  0
  143.2190   76.1760  219.8310 O   0  0  0  0  0  0  0  0  0  0  0  0
  141.3040   76.8650  220.8820 N   0  0  0  0  0  0  0  0  0  0  0  0
  141.5360   78.2530  220.4150 C   0  0  0  0  0  0  0  0  0  0  0  0
  140.8371   78.9277  220.9310 H   0  0  0  0  0  0  0  0  0  0  0  0
  142.5764   78.5296  220.6411 H   0  0  0  0  0  0  0  0  0  0  0  0
  141.3180   78.3670  218.9020 C   0  0  0  0  0  0  0  0  0  0  0  0
  140.9930   77.3937  218.5057 H   0  0  0  0  0  0  0  0  0  0  0  0
  140.5463   79.1252  218.7028 H   0  0  0  0  0  0  0  0  0  0  0  0
  142.5810   78.7700  218.2410 N   0  0  0  0  0  0  0  0  0  0  0  0
  142.8630   78.0200  217.0020 C   0  0  0  0  0  0  0  0  0  0  0  0
  143.9294   78.1287  216.7552 H   0  0  0  0  0  0  0  0  0  0  0  0
  142.6018   76.9655  217.1745 H   0  0  0  0  0  0  0  0  0  0  0  0
  142.0240   78.5320  215.8190 C   0  0  0  0  0  0  0  0  0  0  0  0
  142.3380   78.0105  214.9028 H   0  0  0  0  0  0  0  0  0  0  0  0
  140.9627   78.3343  216.0303 H   0  0  0  0  0  0  0  0  0  0  0  0
  142.2030   79.9780  215.6340 N   0  0  0  0  0  0  0  0  0  0  0  0
  141.5800   80.3000  214.8570 H   0  0  0  0  0  0  0  0  0  0  0  0
  143.1950   80.1810  215.3680 H   0  0  0  0  0  0  0  0  0  0  0  0
  141.8540   80.7120  216.8580 C   0  0  0  0  0  0  0  0  0  0  0  0
  142.0340   81.7855  216.6994 H   0  0  0  0  0  0  0  0  0  0  0  0
  140.7932   80.5337  217.0879 H   0  0  0  0  0  0  0  0  0  0  0  0
  142.7050   80.2270  218.0410 C   0  0  0  0  0  0  0  0  0  0  0  0
  143.7595   80.4716  217.8456 H   0  0  0  0  0  0  0  0  0  0  0  0
  142.3459   80.7300  218.9510 H   0  0  0  0  0  0  0  0  0  0  0  0
  140.3640   79.3530  223.1600 C   0  0  0  0  0  0  0  0  0  0  0  0
  140.1520   80.6360  222.6210 C   0  0  0  0  0  0  0  0  0  0  0  0
  139.1974   80.8797  222.1318 H   0  0  0  0  0  0  0  0  0  0  0  0
  141.1610   81.5980  222.7110 C   0  0  0  0  0  0  0  0  0  0  0  0
  140.9999   82.6029  222.2936 H   0  0  0  0  0  0  0  0  0  0  0  0
  142.3410   81.2950  223.3130 N   0  0  0  0  0  0  0  0  0  0  0  0
  142.5780   80.0630  223.8370 C   0  0  0  0  0  0  0  0  0  0  0  0
  143.5427   79.8475  224.3197 H   0  0  0  0  0  0  0  0  0  0  0  0
  141.5980   79.0710  223.7630 C   0  0  0  0  0  0  0  0  0  0  0  0
  141.7937   78.0707  224.1768 H   0  0  0  0  0  0  0  0  0  0  0  0
  1  2  1  0
  2  3  2  0
  3  4  1  0
  3  5  1  0
  5  6  2  0
  6  7  1  0
  7  8  2  0
  8  9  1  0
  8 10  1  0
 10 11  1  0
 10 12  2  0
 12 13  1  0
 12 14  1  0
 14 15  1  0
 14 16  2  0
 16 17  1  0
 17 18  2  0
 17 19  1  0
 19 20  1  0
 20 21  1  0
 20 22  1  0
 20 23  1  0
 23 24  1  0
 23 25  1  0
 23 26  1  0
 26 27  1  0
 27 28  1  0
 27 29  1  0
 27 30  1  0
 30 31  1  0
 30 32  1  0
 30 33  1  0
 33 34  1  0
 33 35  1  0
 33 36  1  0
 36 37  1  0
 36 38  1  0
 36 39  1  0
 39 40  1  0
 39 41  1  0
  2 42  1  0
 42 43  2  0
 43 44  1  0
 43 45  1  0
 45 46  1  0
 45 47  2  0
 47 48  1  0
 48 49  1  0
 48 50  2  0
 50 51  1  0
 19  5  1  0
 39 26  1  0
 50 42  1  0
 16  7  1  0
M  CHG  1  33   1
M  END
>  <UniqueID>  (7) 
609

>  <SMILES>  (7) 
O=c1c2ccccc2nc(/C=C/c2ccncc2)n1CCN1CC[NH2+]CC1

>  <Energy>  (7) 
69.44841695418637

>  <Genealogy>  (7) 
O=c1c2ccccc2nc(/C=C/c2ccncc2)n1CCN1CC[NH2+]CC1 (protonated)
O=c1c2ccccc2nc(/C=C/c2ccncc2)n1CCN1CC[NH2+]CC1 (cis-trans isomerization)
O=c1c2ccccc2nc(/C=C/c2ccncc2)n1CCN1CC[NH2+]CC1 (3D coordinates assigned)
O=c1c2ccccc2nc(/C=C/c2ccncc2)n1CCN1CC[NH2+]CC1 (nonaromatic ring conformer: 69.44841695418637 kcal/mol)

>  <smiles>  (7) 
O=c1c2ccccc2nc(/C=C/c2ccncc2)n1CCN1CCNCC1

>  <score_type>  (7) 
oracle

>  <origin>  (7) 
autodockgpu

>  <m_score__min__energy>  (7) 
-7.2800000000000002

>  <m_primary>  (7) 
energy

>  <meeko>  (7) 
{"free_energy": -7.23, "intermolecular_energy": -9.02, "internal_energy": -1.24, "cluster_size": 16, "cluster_id": 1, "rank_in_cluster": 13}

>  <energy>  (7) 
-7.26

>  <cluster_rmsd>  (7) 
0.28

>  <rmsd>  (7) 
270.64

>  <cluster>  (7) 
1

$$$$
MZUVVVBFQHRAFD-JMWNCHMZNA-O
     RDKit          3D

 51 54  0  0  0  0  0  0  0  0999 V2000
  138.4156   78.2554  223.9153 H   0  0  0  0  0  0  0  0  0  0  0  0
  139.1450   78.2650  223.0920 C   0  0  0  0  0  0  0  0  0  0  0  0
  138.9570   77.4230  222.0670 C   0  0  0  0  0  0  0  0  0  0  0  0
  137.9840   77.4017  221.5544 H   0  0  0  0  0  0  0  0  0  0  0  0
  140.0410   76.5200  221.6140 C   0  0  0  0  0  0  0  0  0  0  0  0
  139.9490   75.2090  221.9630 N   0  0  0  0  0  0  0  0  0  0  0  0
  140.8780   74.3010  221.5900 C   0  0  0  0  0  0  0  0  0  0  0  0
  140.7430   72.9630  221.9770 C   0  0  0  0  0  0  0  0  0  0  0  0
  139.8823   72.6515  222.5870 H   0  0  0  0  0  0  0  0  0  0  0  0
  141.7010   72.0220  221.5890 C   0  0  0  0  0  0  0  0  0  0  0  0
  141.5951   70.9712  221.8964 H   0  0  0  0  0  0  0  0  0  0  0  0
  142.7930   72.4150  220.8110 C   0  0  0  0  0  0  0  0  0  0  0  0
  143.5445   71.6722  220.5052 H   0  0  0  0  0  0  0  0  0  0  0  0
  142.9330   73.7510  220.4200 C   0  0  0  0  0  0  0  0  0  0  0  0
  143.7934   74.0568  219.8067 H   0  0  0  0  0  0  0  0  0  0  0  0
  141.9730   74.7050  220.8110 C   0  0  0  0  0  0  0  0  0  0  0  0
  142.0610   76.0570  220.4390 C   0  0  0  0  0  0  0  0  0  0  0  0
  143.0250   76.4360  219.7160 O   0  0  0  0  0  0  0  0  0  0  0  0
  141.1050   76.9590  220.8500 N   0  0  0  0  0  0  0  0  0  0  0  0
  141.1850   78.3560  220.3580 C   0  0  0  0  0  0  0  0  0  0  0  0
  140.3647   78.9405  220.8000 H   0  0  0  0  0  0  0  0  0  0  0  0
  142.1587   78.7754  220.6511 H   0  0  0  0  0  0  0  0  0  0  0  0
  141.0710   78.4080  218.8310 C   0  0  0  0  0  0  0  0  0  0  0  0
  140.7303   77.4313  218.4569 H   0  0  0  0  0  0  0  0  0  0  0  0
  140.3477   79.1868  218.5474 H   0  0  0  0  0  0  0  0  0  0  0  0
  142.3910   78.7280  218.2390 N   0  0  0  0  0  0  0  0  0  0  0  0
  142.6170   78.0970  216.9240 C   0  0  0  0  0  0  0  0  0  0  0  0
  143.6953   78.1032  216.7068 H   0  0  0  0  0  0  0  0  0  0  0  0
  142.2280   77.0690  216.9669 H   0  0  0  0  0  0  0  0  0  0  0  0
  141.8780   78.8410  215.7980 C   0  0  0  0  0  0  0  0  0  0  0  0
  142.1532   78.3949  214.8309 H   0  0  0  0  0  0  0  0  0  0  0  0
  140.7953   78.7506  215.9697 H   0  0  0  0  0  0  0  0  0  0  0  0
  142.2330   80.2660  215.7880 N   0  0  0  0  0  0  0  0  0  0  0  0
  141.6760   80.7490  215.0460 H   0  0  0  0  0  0  0  0  0  0  0  0
  143.2500   80.3760  215.5620 H   0  0  0  0  0  0  0  0  0  0  0  0
  141.9410   80.8910  217.0850 C   0  0  0  0  0  0  0  0  0  0  0  0
  142.2533   81.9453  217.0566 H   0  0  0  0  0  0  0  0  0  0  0  0
  140.8604   80.8189  217.2778 H   0  0  0  0  0  0  0  0  0  0  0  0
  142.6940   80.1720  218.2140 C   0  0  0  0  0  0  0  0  0  0  0  0
  143.7753   80.3068  218.0636 H   0  0  0  0  0  0  0  0  0  0  0  0
  142.3720   80.6065  219.1719 H   0  0  0  0  0  0  0  0  0  0  0  0
  140.2840   79.2080  223.1740 C   0  0  0  0  0  0  0  0  0  0  0  0
  141.5360   78.8360  223.6990 C   0  0  0  0  0  0  0  0  0  0  0  0
  141.7024   77.8100  224.0590 H   0  0  0  0  0  0  0  0  0  0  0  0
  142.5660   79.7780  223.7600 C   0  0  0  0  0  0  0  0  0  0  0  0
  143.5474   79.4924  224.1665 H   0  0  0  0  0  0  0  0  0  0  0  0
  142.3580   81.0470  223.3180 N   0  0  0  0  0  0  0  0  0  0  0  0
  141.1590   81.4370  222.8120 C   0  0  0  0  0  0  0  0  0  0  0  0
  141.0215   82.4700  222.4600 H   0  0  0  0  0  0  0  0  0  0  0  0
  140.1010   80.5290  222.7380 C   0  0  0  0  0  0  0  0  0  0  0  0
  139.1269   80.8483  222.3391 H   0  0  0  0  0  0  0  0  0  0  0  0
  1  2  1  0
  2  3  2  0
  3  4  1  0
  3  5  1  0
  5  6  2  0
  6  7  1  0
  7  8  2  0
  8  9  1  0
  8 10  1  0
 10 11  1  0
 10 12  2  0
 12 13  1  0
 12 14  1  0
 14 15  1  0
 14 16  2  0
 16 17  1  0
 17 18  2  0
 17 19  1  0
 19 20  1  0
 20 21  1  0
 20 22  1  0
 20 23  1  0
 23 24  1  0
 23 25  1  0
 23 26  1  0
 26 27  1  0
 27 28  1  0
 27 29  1  0
 27 30  1  0
 30 31  1  0
 30 32  1  0
 30 33  1  0
 33 34  1  0
 33 35  1  0
 33 36  1  0
 36 37  1  0
 36 38  1  0
 36 39  1  0
 39 40  1  0
 39 41  1  0
  2 42  1  0
 42 43  2  0
 43 44  1  0
 43 45  1  0
 45 46  1  0
 45 47  2  0
 47 48  1  0
 48 49  1  0
 48 50  2  0
 50 51  1  0
 19  5  1  0
 39 26  1  0
 50 42  1  0
 16  7  1  0
M  CHG  1  33   1
M  END
>  <UniqueID>  (8) 
609

>  <SMILES>  (8) 
O=c1c2ccccc2nc(/C=C/c2ccncc2)n1CCN1CC[NH2+]CC1

>  <Energy>  (8) 
69.44841695418637

>  <Genealogy>  (8) 
O=c1c2ccccc2nc(/C=C/c2ccncc2)n1CCN1CC[NH2+]CC1 (protonated)
O=c1c2ccccc2nc(/C=C/c2ccncc2)n1CCN1CC[NH2+]CC1 (cis-trans isomerization)
O=c1c2ccccc2nc(/C=C/c2ccncc2)n1CCN1CC[NH2+]CC1 (3D coordinates assigned)
O=c1c2ccccc2nc(/C=C/c2ccncc2)n1CCN1CC[NH2+]CC1 (nonaromatic ring conformer: 69.44841695418637 kcal/mol)

>  <smiles>  (8) 
O=c1c2ccccc2nc(/C=C/c2ccncc2)n1CCN1CCNCC1

>  <score_type>  (8) 
oracle

>  <origin>  (8) 
autodockgpu

>  <m_score__min__energy>  (8) 
-7.2800000000000002

>  <m_primary>  (8) 
energy

>  <meeko>  (8) 
{"free_energy": -7.23, "intermolecular_energy": -9.02, "internal_energy": -1.23, "cluster_size": 16, "cluster_id": 1, "rank_in_cluster": 12}

>  <energy>  (8) 
-7.26

>  <cluster_rmsd>  (8) 
0.05

>  <rmsd>  (8) 
270.63

>  <cluster>  (8) 
1

$$$$
MZUVVVBFQHRAFD-JMWNCHMZNA-O
     RDKit          3D

 51 54  0  0  0  0  0  0  0  0999 V2000
  138.5688   78.1858  223.9521 H   0  0  0  0  0  0  0  0  0  0  0  0
  139.2570   78.2790  223.0990 C   0  0  0  0  0  0  0  0  0  0  0  0
  139.0730   77.4750  222.0450 C   0  0  0  0  0  0  0  0  0  0  0  0
  138.1194   77.5080  221.4977 H   0  0  0  0  0  0  0  0  0  0  0  0
  140.1360   76.5410  221.6050 C   0  0  0  0  0  0  0  0  0  0  0  0
  140.0020   75.2330  221.9520 N   0  0  0  0  0  0  0  0  0  0  0  0
  140.9090   74.2980  221.5900 C   0  0  0  0  0  0  0  0  0  0  0  0
  140.7300   72.9640  221.9750 C   0  0  0  0  0  0  0  0  0  0  0  0
  139.8532   72.6776  222.5744 H   0  0  0  0  0  0  0  0  0  0  0  0
  141.6650   71.9960  221.5980 C   0  0  0  0  0  0  0  0  0  0  0  0
  141.5248   70.9484  221.9028 H   0  0  0  0  0  0  0  0  0  0  0  0
  142.7780   72.3580  220.8340 C   0  0  0  0  0  0  0  0  0  0  0  0
  143.5118   71.5941  220.5372 H   0  0  0  0  0  0  0  0  0  0  0  0
  142.9610   73.6890  220.4460 C   0  0  0  0  0  0  0  0  0  0  0  0
  143.8376   73.9696  219.8437 H   0  0  0  0  0  0  0  0  0  0  0  0
  142.0250   74.6710  220.8250 C   0  0  0  0  0  0  0  0  0  0  0  0
  142.1570   76.0190  220.4560 C   0  0  0  0  0  0  0  0  0  0  0  0
  143.1410   76.3710  219.7450 O   0  0  0  0  0  0  0  0  0  0  0  0
  141.2230   76.9490  220.8540 N   0  0  0  0  0  0  0  0  0  0  0  0
  141.3490   78.3430  220.3650 C   0  0  0  0  0  0  0  0  0  0  0  0
  140.5822   78.9650  220.8500 H   0  0  0  0  0  0  0  0  0  0  0  0
  142.3560   78.7110  220.6110 H   0  0  0  0  0  0  0  0  0  0  0  0
  141.1620   78.4110  218.8450 C   0  0  0  0  0  0  0  0  0  0  0  0
  140.7774   77.4469  218.4809 H   0  0  0  0  0  0  0  0  0  0  0  0
  140.4468   79.2108  218.6025 H   0  0  0  0  0  0  0  0  0  0  0  0
  142.4600   78.7010  218.1920 N   0  0  0  0  0  0  0  0  0  0  0  0
  142.5810   78.1210  216.8390 C   0  0  0  0  0  0  0  0  0  0  0  0
  143.6442   78.0905  216.5587 H   0  0  0  0  0  0  0  0  0  0  0  0
  142.1481   77.1100  216.8610 H   0  0  0  0  0  0  0  0  0  0  0  0
  141.8140   78.9460  215.7920 C   0  0  0  0  0  0  0  0  0  0  0  0
  142.0132   78.5329  214.7922 H   0  0  0  0  0  0  0  0  0  0  0  0
  140.7398   78.8943  216.0234 H   0  0  0  0  0  0  0  0  0  0  0  0
  142.2320   80.3540  215.8220 N   0  0  0  0  0  0  0  0  0  0  0  0
  141.6560   80.8930  215.1350 H   0  0  0  0  0  0  0  0  0  0  0  0
  143.2380   80.4300  215.5410 H   0  0  0  0  0  0  0  0  0  0  0  0
  142.0420   80.9310  217.1590 C   0  0  0  0  0  0  0  0  0  0  0  0
  142.3991   81.9714  217.1576 H   0  0  0  0  0  0  0  0  0  0  0  0
  140.9719   80.8958  217.4112 H   0  0  0  0  0  0  0  0  0  0  0  0
  142.8250   80.1300  218.2110 C   0  0  0  0  0  0  0  0  0  0  0  0
  143.9010   80.2258  218.0037 H   0  0  0  0  0  0  0  0  0  0  0  0
  142.5771   80.5339  219.2037 H   0  0  0  0  0  0  0  0  0  0  0  0
  140.3390   79.2880  223.1770 C   0  0  0  0  0  0  0  0  0  0  0  0
  141.5880   79.0110  223.7640 C   0  0  0  0  0  0  0  0  0  0  0  0
  141.7961   78.0135  224.1782 H   0  0  0  0  0  0  0  0  0  0  0  0
  142.5620   80.0120  223.8170 C   0  0  0  0  0  0  0  0  0  0  0  0
  143.5414   79.8010  224.2711 H   0  0  0  0  0  0  0  0  0  0  0  0
  142.3020   81.2450  223.3090 N   0  0  0  0  0  0  0  0  0  0  0  0
  141.1040   81.5440  222.7430 C   0  0  0  0  0  0  0  0  0  0  0  0
  140.9240   82.5509  222.3382 H   0  0  0  0  0  0  0  0  0  0  0  0
  140.1000   80.5750  222.6740 C   0  0  0  0  0  0  0  0  0  0  0  0
  139.1255   80.8207  222.2267 H   0  0  0  0  0  0  0  0  0  0  0  0
  1  2  1  0
  2  3  2  0
  3  4  1  0
  3  5  1  0
  5  6  2  0
  6  7  1  0
  7  8  2  0
  8  9  1  0
  8 10  1  0
 10 11  1  0
 10 12  2  0
 12 13  1  0
 12 14  1  0
 14 15  1  0
 14 16  2  0
 16 17  1  0
 17 18  2  0
 17 19  1  0
 19 20  1  0
 20 21  1  0
 20 22  1  0
 20 23  1  0
 23 24  1  0
 23 25  1  0
 23 26  1  0
 26 27  1  0
 27 28  1  0
 27 29  1  0
 27 30  1  0
 30 31  1  0
 30 32  1  0
 30 33  1  0
 33 34  1  0
 33 35  1  0
 33 36  1  0
 36 37  1  0
 36 38  1  0
 36 39  1  0
 39 40  1  0
 39 41  1  0
  2 42  1  0
 42 43  2  0
 43 44  1  0
 43 45  1  0
 45 46  1  0
 45 47  2  0
 47 48  1  0
 48 49  1  0
 48 50  2  0
 50 51  1  0
 19  5  1  0
 39 26  1  0
 50 42  1  0
 16  7  1  0
M  CHG  1  33   1
M  END
>  <UniqueID>  (9) 
609

>  <SMILES>  (9) 
O=c1c2ccccc2nc(/C=C/c2ccncc2)n1CCN1CC[NH2+]CC1

>  <Energy>  (9) 
69.44841695418637

>  <Genealogy>  (9) 
O=c1c2ccccc2nc(/C=C/c2ccncc2)n1CCN1CC[NH2+]CC1 (protonated)
O=c1c2ccccc2nc(/C=C/c2ccncc2)n1CCN1CC[NH2+]CC1 (cis-trans isomerization)
O=c1c2ccccc2nc(/C=C/c2ccncc2)n1CCN1CC[NH2+]CC1 (3D coordinates assigned)
O=c1c2ccccc2nc(/C=C/c2ccncc2)n1CCN1CC[NH2+]CC1 (nonaromatic ring conformer: 69.44841695418637 kcal/mol)

>  <smiles>  (9) 
O=c1c2ccccc2nc(/C=C/c2ccncc2)n1CCN1CCNCC1

>  <score_type>  (9) 
oracle

>  <origin>  (9) 
autodockgpu

>  <m_score__min__energy>  (9) 
-7.2800000000000002

>  <m_primary>  (9) 
energy

>  <meeko>  (9) 
{"free_energy": -7.25, "intermolecular_energy": -9.04, "internal_energy": -1.25, "cluster_size": 16, "cluster_id": 1, "rank_in_cluster": 10}

>  <energy>  (9) 
-7.25

>  <cluster_rmsd>  (9) 
0.24

>  <rmsd>  (9) 
270.65

>  <cluster>  (9) 
1

$$$$
MZUVVVBFQHRAFD-JMWNCHMZNA-O
     RDKit          3D

 51 54  0  0  0  0  0  0  0  0999 V2000
  138.6550   78.1208  223.9719 H   0  0  0  0  0  0  0  0  0  0  0  0
  139.3020   78.2650  223.0940 C   0  0  0  0  0  0  0  0  0  0  0  0
  139.1140   77.4740  222.0300 C   0  0  0  0  0  0  0  0  0  0  0  0
  138.1698   77.5346  221.4690 H   0  0  0  0  0  0  0  0  0  0  0  0
  140.1610   76.5180  221.5980 C   0  0  0  0  0  0  0  0  0  0  0  0
  139.9950   75.2130  221.9390 N   0  0  0  0  0  0  0  0  0  0  0  0
  140.8840   74.2590  221.5820 C   0  0  0  0  0  0  0  0  0  0  0  0
  140.6730   72.9280  221.9610 C   0  0  0  0  0  0  0  0  0  0  0  0
  139.7851   72.6588  222.5519 H   0  0  0  0  0  0  0  0  0  0  0  0
  141.5900   71.9410  221.5890 C   0  0  0  0  0  0  0  0  0  0  0  0
  141.4234   70.8955  221.8878 H   0  0  0  0  0  0  0  0  0  0  0  0
  142.7180   72.2810  220.8380 C   0  0  0  0  0  0  0  0  0  0  0  0
  143.4381   71.5022  220.5464 H   0  0  0  0  0  0  0  0  0  0  0  0
  142.9340   73.6090  220.4560 C   0  0  0  0  0  0  0  0  0  0  0  0
  143.8220   73.8722  219.8626 H   0  0  0  0  0  0  0  0  0  0  0  0
  142.0160   74.6100  220.8300 C   0  0  0  0  0  0  0  0  0  0  0  0
  142.1810   75.9570  220.4670 C   0  0  0  0  0  0  0  0  0  0  0  0
  143.1800   76.2890  219.7670 O   0  0  0  0  0  0  0  0  0  0  0  0
  141.2630   76.9050  220.8590 N   0  0  0  0  0  0  0  0  0  0  0  0
  141.4250   78.2970  220.3760 C   0  0  0  0  0  0  0  0  0  0  0  0
  140.6638   78.9334  220.8509 H   0  0  0  0  0  0  0  0  0  0  0  0
  142.4355   78.6435  220.6384 H   0  0  0  0  0  0  0  0  0  0  0  0
  141.2630   78.3730  218.8540 C   0  0  0  0  0  0  0  0  0  0  0  0
  140.9824   77.3824  218.4668 H   0  0  0  0  0  0  0  0  0  0  0  0
  140.4778   79.1031  218.6084 H   0  0  0  0  0  0  0  0  0  0  0  0
  142.5390   78.8000  218.2340 N   0  0  0  0  0  0  0  0  0  0  0  0
  142.8950   78.0270  217.0270 C   0  0  0  0  0  0  0  0  0  0  0  0
  143.9667   78.1638  216.8201 H   0  0  0  0  0  0  0  0  0  0  0  0
  142.6603   76.9693  217.2174 H   0  0  0  0  0  0  0  0  0  0  0  0
  142.0890   78.4810  215.7980 C   0  0  0  0  0  0  0  0  0  0  0  0
  142.4564   77.9470  214.9093 H   0  0  0  0  0  0  0  0  0  0  0  0
  141.0268   78.2540  215.9716 H   0  0  0  0  0  0  0  0  0  0  0  0
  142.2300   79.9280  215.5820 N   0  0  0  0  0  0  0  0  0  0  0  0
  141.6300   80.2090  214.7720 H   0  0  0  0  0  0  0  0  0  0  0  0
  143.2260   80.1550  215.3510 H   0  0  0  0  0  0  0  0  0  0  0  0
  141.8100   80.6810  216.7700 C   0  0  0  0  0  0  0  0  0  0  0  0
  141.9638   81.7552  216.5897 H   0  0  0  0  0  0  0  0  0  0  0  0
  140.7467   80.4747  216.9619 H   0  0  0  0  0  0  0  0  0  0  0  0
  142.6260   80.2540  218.0000 C   0  0  0  0  0  0  0  0  0  0  0  0
  143.6797   80.5272  217.8413 H   0  0  0  0  0  0  0  0  0  0  0  0
  142.2140   80.7685  218.8806 H   0  0  0  0  0  0  0  0  0  0  0  0
  140.3360   79.3240  223.1500 C   0  0  0  0  0  0  0  0  0  0  0  0
  140.1260   80.6140  222.6270 C   0  0  0  0  0  0  0  0  0  0  0  0
  139.1626   80.8730  222.1636 H   0  0  0  0  0  0  0  0  0  0  0  0
  141.1480   81.5630  222.7000 C   0  0  0  0  0  0  0  0  0  0  0  0
  140.9887   82.5730  222.2943 H   0  0  0  0  0  0  0  0  0  0  0  0
  142.3390   81.2420  223.2710 N   0  0  0  0  0  0  0  0  0  0  0  0
  142.5740   80.0040  223.7800 C   0  0  0  0  0  0  0  0  0  0  0  0
  143.5472   79.7741  224.2382 H   0  0  0  0  0  0  0  0  0  0  0  0
  141.5810   79.0230  223.7220 C   0  0  0  0  0  0  0  0  0  0  0  0
  141.7748   78.0175  224.1237 H   0  0  0  0  0  0  0  0  0  0  0  0
  1  2  1  0
  2  3  2  0
  3  4  1  0
  3  5  1  0
  5  6  2  0
  6  7  1  0
  7  8  2  0
  8  9  1  0
  8 10  1  0
 10 11  1  0
 10 12  2  0
 12 13  1  0
 12 14  1  0
 14 15  1  0
 14 16  2  0
 16 17  1  0
 17 18  2  0
 17 19  1  0
 19 20  1  0
 20 21  1  0
 20 22  1  0
 20 23  1  0
 23 24  1  0
 23 25  1  0
 23 26  1  0
 26 27  1  0
 27 28  1  0
 27 29  1  0
 27 30  1  0
 30 31  1  0
 30 32  1  0
 30 33  1  0
 33 34  1  0
 33 35  1  0
 33 36  1  0
 36 37  1  0
 36 38  1  0
 36 39  1  0
 39 40  1  0
 39 41  1  0
  2 42  1  0
 42 43  2  0
 43 44  1  0
 43 45  1  0
 45 46  1  0
 45 47  2  0
 47 48  1  0
 48 49  1  0
 48 50  2  0
 50 51  1  0
 19  5  1  0
 39 26  1  0
 50 42  1  0
 16  7  1  0
M  CHG  1  33   1
M  END
>  <UniqueID>  (10) 
609

>  <SMILES>  (10) 
O=c1c2ccccc2nc(/C=C/c2ccncc2)n1CCN1CC[NH2+]CC1

>  <Energy>  (10) 
69.44841695418637

>  <Genealogy>  (10) 
O=c1c2ccccc2nc(/C=C/c2ccncc2)n1CCN1CC[NH2+]CC1 (protonated)
O=c1c2ccccc2nc(/C=C/c2ccncc2)n1CCN1CC[NH2+]CC1 (cis-trans isomerization)
O=c1c2ccccc2nc(/C=C/c2ccncc2)n1CCN1CC[NH2+]CC1 (3D coordinates assigned)
O=c1c2ccccc2nc(/C=C/c2ccncc2)n1CCN1CC[NH2+]CC1 (nonaromatic ring conformer: 69.44841695418637 kcal/mol)

>  <smiles>  (10) 
O=c1c2ccccc2nc(/C=C/c2ccncc2)n1CCN1CCNCC1

>  <score_type>  (10) 
oracle

>  <origin>  (10) 
autodockgpu

>  <m_score__min__energy>  (10) 
-7.2800000000000002

>  <m_primary>  (10) 
energy

>  <meeko>  (10) 
{"free_energy": -7.27, "intermolecular_energy": -9.06, "internal_energy": -1.24, "cluster_size": 16, "cluster_id": 1, "rank_in_cluster": 5}

>  <energy>  (10) 
-7.25

>  <cluster_rmsd>  (10) 
0.23

>  <rmsd>  (10) 
270.68

>  <cluster>  (10) 
1

$$$$
MZUVVVBFQHRAFD-JMWNCHMZNA-O
     RDKit          3D

 51 54  0  0  0  0  0  0  0  0999 V2000
  139.7127   74.7010  219.7746 H   0  0  0  0  0  0  0  0  0  0  0  0
  140.3630   75.1020  220.5660 C   0  0  0  0  0  0  0  0  0  0  0  0
  139.8010   75.8220  221.5460 C   0  0  0  0  0  0  0  0  0  0  0  0
  139.0937   75.3388  222.2361 H   0  0  0  0  0  0  0  0  0  0  0  0
  140.1180   77.2590  221.7140 C   0  0  0  0  0  0  0  0  0  0  0  0
  140.9780   77.5960  222.7120 N   0  0  0  0  0  0  0  0  0  0  0  0
  141.3430   78.8780  222.9410 C   0  0  0  0  0  0  0  0  0  0  0  0
  142.2280   79.1770  223.9840 C   0  0  0  0  0  0  0  0  0  0  0  0
  142.6236   78.3697  224.6179 H   0  0  0  0  0  0  0  0  0  0  0  0
  142.6090   80.5010  224.2200 C   0  0  0  0  0  0  0  0  0  0  0  0
  143.3029   80.7353  225.0408 H   0  0  0  0  0  0  0  0  0  0  0  0
  142.1090   81.5270  223.4140 C   0  0  0  0  0  0  0  0  0  0  0  0
  142.4108   82.5681  223.6012 H   0  0  0  0  0  0  0  0  0  0  0  0
  141.2260   81.2340  222.3700 C   0  0  0  0  0  0  0  0  0  0  0  0
  140.8361   82.0445  221.7367 H   0  0  0  0  0  0  0  0  0  0  0  0
  140.8350   79.9020  222.1280 C   0  0  0  0  0  0  0  0  0  0  0  0
  139.9570   79.5530  221.0890 C   0  0  0  0  0  0  0  0  0  0  0  0
  139.5080   80.4570  220.3300 O   0  0  0  0  0  0  0  0  0  0  0  0
  139.5940   78.2390  220.8930 N   0  0  0  0  0  0  0  0  0  0  0  0
  138.7400   77.9010  219.7280 C   0  0  0  0  0  0  0  0  0  0  0  0
  138.5502   76.8175  219.7233 H   0  0  0  0  0  0  0  0  0  0  0  0
  137.7948   78.4572  219.8129 H   0  0  0  0  0  0  0  0  0  0  0  0
  139.4230   78.2960  218.4140 C   0  0  0  0  0  0  0  0  0  0  0  0
  138.8537   77.8829  217.5683 H   0  0  0  0  0  0  0  0  0  0  0  0
  139.4569   79.3929  218.3387 H   0  0  0  0  0  0  0  0  0  0  0  0
  140.8040   77.7620  218.3840 N   0  0  0  0  0  0  0  0  0  0  0  0
  141.1910   77.2010  217.0750 C   0  0  0  0  0  0  0  0  0  0  0  0
  142.0668   76.5496  217.2119 H   0  0  0  0  0  0  0  0  0  0  0  0
  140.3347   76.6351  216.6794 H   0  0  0  0  0  0  0  0  0  0  0  0
  141.5440   78.3030  216.0620 C   0  0  0  0  0  0  0  0  0  0  0  0
  141.9178   77.8366  215.1386 H   0  0  0  0  0  0  0  0  0  0  0  0
  140.6389   78.8932  215.8563 H   0  0  0  0  0  0  0  0  0  0  0  0
  142.5760   79.2000  216.5990 N   0  0  0  0  0  0  0  0  0  0  0  0
  142.7540   79.9650  215.9070 H   0  0  0  0  0  0  0  0  0  0  0  0
  143.4680   78.6680  216.7400 H   0  0  0  0  0  0  0  0  0  0  0  0
  142.1450   79.7980  217.8690 C   0  0  0  0  0  0  0  0  0  0  0  0
  142.9530   80.4323  218.2624 H   0  0  0  0  0  0  0  0  0  0  0  0
  141.2419   80.3996  217.6889 H   0  0  0  0  0  0  0  0  0  0  0  0
  141.8150   78.7060  218.8970 C   0  0  0  0  0  0  0  0  0  0  0  0
  142.7341   78.1501  219.1342 H   0  0  0  0  0  0  0  0  0  0  0  0
  141.4060   79.1923  219.7949 H   0  0  0  0  0  0  0  0  0  0  0  0
  141.8150   74.8180  220.4930 C   0  0  0  0  0  0  0  0  0  0  0  0
  142.3590   73.5710  220.8520 C   0  0  0  0  0  0  0  0  0  0  0  0
  141.7013   72.7578  221.1928 H   0  0  0  0  0  0  0  0  0  0  0  0
  143.7400   73.3720  220.7730 C   0  0  0  0  0  0  0  0  0  0  0  0
  144.1708   72.3987  221.0506 H   0  0  0  0  0  0  0  0  0  0  0  0
  144.5520   74.3780  220.3540 N   0  0  0  0  0  0  0  0  0  0  0  0
  144.0570   75.5950  220.0050 C   0  0  0  0  0  0  0  0  0  0  0  0
  144.7388   76.3891  219.6664 H   0  0  0  0  0  0  0  0  0  0  0  0
  142.6830   75.8380  220.0760 C   0  0  0  0  0  0  0  0  0  0  0  0
  142.2830   76.8264  219.8057 H   0  0  0  0  0  0  0  0  0  0  0  0
  1  2  1  0
  2  3  2  0
  3  4  1  0
  3  5  1  0
  5  6  2  0
  6  7  1  0
  7  8  2  0
  8  9  1  0
  8 10  1  0
 10 11  1  0
 10 12  2  0
 12 13  1  0
 12 14  1  0
 14 15  1  0
 14 16  2  0
 16 17  1  0
 17 18  2  0
 17 19  1  0
 19 20  1  0
 20 21  1  0
 20 22  1  0
 20 23  1  0
 23 24  1  0
 23 25  1  0
 23 26  1  0
 26 27  1  0
 27 28  1  0
 27 29  1  0
 27 30  1  0
 30 31  1  0
 30 32  1  0
 30 33  1  0
 33 34  1  0
 33 35  1  0
 33 36  1  0
 36 37  1  0
 36 38  1  0
 36 39  1  0
 39 40  1  0
 39 41  1  0
  2 42  1  0
 42 43  2  0
 43 44  1  0
 43 45  1  0
 45 46  1  0
 45 47  2  0
 47 48  1  0
 48 49  1  0
 48 50  2  0
 50 51  1  0
 19  5  1  0
 39 26  1  0
 50 42  1  0
 16  7  1  0
M  CHG  1  33   1
M  END
>  <UniqueID>  (11) 
609

>  <SMILES>  (11) 
O=c1c2ccccc2nc(/C=C/c2ccncc2)n1CCN1CC[NH2+]CC1

>  <Energy>  (11) 
69.44841695418637

>  <Genealogy>  (11) 
O=c1c2ccccc2nc(/C=C/c2ccncc2)n1CCN1CC[NH2+]CC1 (protonated)
O=c1c2ccccc2nc(/C=C/c2ccncc2)n1CCN1CC[NH2+]CC1 (cis-trans isomerization)
O=c1c2ccccc2nc(/C=C/c2ccncc2)n1CCN1CC[NH2+]CC1 (3D coordinates assigned)
O=c1c2ccccc2nc(/C=C/c2ccncc2)n1CCN1CC[NH2+]CC1 (nonaromatic ring conformer: 69.44841695418637 kcal/mol)

>  <smiles>  (11) 
O=c1c2ccccc2nc(/C=C/c2ccncc2)n1CCN1CCNCC1

>  <score_type>  (11) 
oracle

>  <origin>  (11) 
autodockgpu

>  <m_score__min__energy>  (11) 
-7.2800000000000002

>  <m_primary>  (11) 
energy

>  <meeko>  (11) 
{"free_energy": -6.51, "intermolecular_energy": -8.3, "internal_energy": -1.64, "cluster_size": 3, "cluster_id": 2, "rank_in_cluster": 1}

>  <energy>  (11) 
-7.25

>  <cluster_rmsd>  (11) 
0.22

>  <rmsd>  (11) 
270.66

>  <cluster>  (11) 
1

$$$$
MZUVVVBFQHRAFD-JMWNCHMZNA-O
     RDKit          3D

 51 54  0  0  0  0  0  0  0  0999 V2000
  138.6870   78.1441  223.9683 H   0  0  0  0  0  0  0  0  0  0  0  0
  139.3460   78.2660  223.0960 C   0  0  0  0  0  0  0  0  0  0  0  0
  139.1360   77.4860  222.0280 C   0  0  0  0  0  0  0  0  0  0  0  0
  138.1955   77.5790  221.4651 H   0  0  0  0  0  0  0  0  0  0  0  0
  140.1520   76.5000  221.5940 C   0  0  0  0  0  0  0  0  0  0  0  0
  139.9530   75.2010  221.9450 N   0  0  0  0  0  0  0  0  0  0  0  0
  140.8130   74.2210  221.5880 C   0  0  0  0  0  0  0  0  0  0  0  0
  140.5670   72.8990  221.9770 C   0  0  0  0  0  0  0  0  0  0  0  0
  139.6759   72.6586  222.5754 H   0  0  0  0  0  0  0  0  0  0  0  0
  141.4540   71.8840  221.6050 C   0  0  0  0  0  0  0  0  0  0  0  0
  141.2616   70.8457  221.9130 H   0  0  0  0  0  0  0  0  0  0  0  0
  142.5850   72.1880  220.8420 C   0  0  0  0  0  0  0  0  0  0  0  0
  143.2808   71.3879  220.5492 H   0  0  0  0  0  0  0  0  0  0  0  0
  142.8340   73.5070  220.4500 C   0  0  0  0  0  0  0  0  0  0  0  0
  143.7244   73.7421  219.8484 H   0  0  0  0  0  0  0  0  0  0  0  0
  141.9470   74.5350  220.8240 C   0  0  0  0  0  0  0  0  0  0  0  0
  142.1470   75.8750  220.4500 C   0  0  0  0  0  0  0  0  0  0  0  0
  143.1480   76.1740  219.7400 O   0  0  0  0  0  0  0  0  0  0  0  0
  141.2590   76.8510  220.8440 N   0  0  0  0  0  0  0  0  0  0  0  0
  141.4550   78.2340  220.3500 C   0  0  0  0  0  0  0  0  0  0  0  0
  140.7303   78.8981  220.8437 H   0  0  0  0  0  0  0  0  0  0  0  0
  142.4843   78.5455  220.5815 H   0  0  0  0  0  0  0  0  0  0  0  0
  141.2520   78.3110  218.8320 C   0  0  0  0  0  0  0  0  0  0  0  0
  140.9111   77.3338  218.4592 H   0  0  0  0  0  0  0  0  0  0  0  0
  140.4972   79.0783  218.6052 H   0  0  0  0  0  0  0  0  0  0  0  0
  142.5290   78.6710  218.1720 N   0  0  0  0  0  0  0  0  0  0  0  0
  142.6710   78.1060  216.8160 C   0  0  0  0  0  0  0  0  0  0  0  0
  143.7325   78.1321  216.5288 H   0  0  0  0  0  0  0  0  0  0  0  0
  142.2916   77.0737  216.8343 H   0  0  0  0  0  0  0  0  0  0  0  0
  141.8550   78.8970  215.7790 C   0  0  0  0  0  0  0  0  0  0  0  0
  142.0677   78.5004  214.7753 H   0  0  0  0  0  0  0  0  0  0  0  0
  140.7865   78.7891  216.0173 H   0  0  0  0  0  0  0  0  0  0  0  0
  142.2010   80.3240  215.8150 N   0  0  0  0  0  0  0  0  0  0  0  0
  141.5930   80.8380  215.1350 H   0  0  0  0  0  0  0  0  0  0  0  0
  143.2000   80.4540  215.5280 H   0  0  0  0  0  0  0  0  0  0  0  0
  141.9910   80.8830  217.1570 C   0  0  0  0  0  0  0  0  0  0  0  0
  142.2949   81.9402  217.1599 H   0  0  0  0  0  0  0  0  0  0  0  0
  140.9258   80.7927  217.4162 H   0  0  0  0  0  0  0  0  0  0  0  0
  142.8210   80.1160  218.1980 C   0  0  0  0  0  0  0  0  0  0  0  0
  143.8893   80.2676  217.9839 H   0  0  0  0  0  0  0  0  0  0  0  0
  142.5600   80.5004  219.1950 H   0  0  0  0  0  0  0  0  0  0  0  0
  140.4190   79.2840  223.1640 C   0  0  0  0  0  0  0  0  0  0  0  0
  141.6650   79.0290  223.7670 C   0  0  0  0  0  0  0  0  0  0  0  0
  141.8772   78.0412  224.2019 H   0  0  0  0  0  0  0  0  0  0  0  0
  142.6310   80.0380  223.8100 C   0  0  0  0  0  0  0  0  0  0  0  0
  143.6073   79.8434  224.2780 H   0  0  0  0  0  0  0  0  0  0  0  0
  142.3670   81.2590  223.2750 N   0  0  0  0  0  0  0  0  0  0  0  0
  141.1720   81.5370  222.6910 C   0  0  0  0  0  0  0  0  0  0  0  0
  140.9885   82.5337  222.2632 H   0  0  0  0  0  0  0  0  0  0  0  0
  140.1760   80.5590  222.6330 C   0  0  0  0  0  0  0  0  0  0  0  0
  139.2039   80.7884  222.1721 H   0  0  0  0  0  0  0  0  0  0  0  0
  1  2  1  0
  2  3  2  0
  3  4  1  0
  3  5  1  0
  5  6  2  0
  6  7  1  0
  7  8  2  0
  8  9  1  0
  8 10  1  0
 10 11  1  0
 10 12  2  0
 12 13  1  0
 12 14  1  0
 14 15  1  0
 14 16  2  0
 16 17  1  0
 17 18  2  0
 17 19  1  0
 19 20  1  0
 20 21  1  0
 20 22  1  0
 20 23  1  0
 23 24  1  0
 23 25  1  0
 23 26  1  0
 26 27  1  0
 27 28  1  0
 27 29  1  0
 27 30  1  0
 30 31  1  0
 30 32  1  0
 30 33  1  0
 33 34  1  0
 33 35  1  0
 33 36  1  0
 36 37  1  0
 36 38  1  0
 36 39  1  0
 39 40  1  0
 39 41  1  0
  2 42  1  0
 42 43  2  0
 43 44  1  0
 43 45  1  0
 45 46  1  0
 45 47  2  0
 47 48  1  0
 48 49  1  0
 48 50  2  0
 50 51  1  0
 19  5  1  0
 39 26  1  0
 50 42  1  0
 16  7  1  0
M  CHG  1  33   1
M  END
>  <UniqueID>  (12) 
609

>  <SMILES>  (12) 
O=c1c2ccccc2nc(/C=C/c2ccncc2)n1CCN1CC[NH2+]CC1

>  <Energy>  (12) 
69.44841695418637

>  <Genealogy>  (12) 
O=c1c2ccccc2nc(/C=C/c2ccncc2)n1CCN1CC[NH2+]CC1 (protonated)
O=c1c2ccccc2nc(/C=C/c2ccncc2)n1CCN1CC[NH2+]CC1 (cis-trans isomerization)
O=c1c2ccccc2nc(/C=C/c2ccncc2)n1CCN1CC[NH2+]CC1 (3D coordinates assigned)
O=c1c2ccccc2nc(/C=C/c2ccncc2)n1CCN1CC[NH2+]CC1 (nonaromatic ring conformer: 69.44841695418637 kcal/mol)

>  <smiles>  (12) 
O=c1c2ccccc2nc(/C=C/c2ccncc2)n1CCN1CCNCC1

>  <score_type>  (12) 
oracle

>  <origin>  (12) 
autodockgpu

>  <m_score__min__energy>  (12) 
-7.2800000000000002

>  <m_primary>  (12) 
energy

>  <meeko>  (12) 
{"free_energy": -7.25, "intermolecular_energy": -9.04, "internal_energy": -1.24, "cluster_size": 16, "cluster_id": 1, "rank_in_cluster": 9}

>  <energy>  (12) 
-7.23

>  <cluster_rmsd>  (12) 
0.22

>  <rmsd>  (12) 
270.64

>  <cluster>  (12) 
1

$$$$
MZUVVVBFQHRAFD-JMWNCHMZNA-O
     RDKit          3D

 51 54  0  0  0  0  0  0  0  0999 V2000
  139.6901   74.8810  219.6145 H   0  0  0  0  0  0  0  0  0  0  0  0
  140.3110   75.3020  220.4190 C   0  0  0  0  0  0  0  0  0  0  0  0
  139.7090   76.0170  221.3780 C   0  0  0  0  0  0  0  0  0  0  0  0
  138.9406   75.5423  222.0059 H   0  0  0  0  0  0  0  0  0  0  0  0
  140.0620   77.4370  221.6060 C   0  0  0  0  0  0  0  0  0  0  0  0
  140.9410   77.7110  222.6060 N   0  0  0  0  0  0  0  0  0  0  0  0
  141.3390   78.9710  222.8870 C   0  0  0  0  0  0  0  0  0  0  0  0
  142.2430   79.2040  223.9310 C   0  0  0  0  0  0  0  0  0  0  0  0
  142.6267   78.3608  224.5241 H   0  0  0  0  0  0  0  0  0  0  0  0
  142.6580   80.5070  224.2200 C   0  0  0  0  0  0  0  0  0  0  0  0
  143.3671   80.6885  225.0411 H   0  0  0  0  0  0  0  0  0  0  0  0
  142.1730   81.5790  223.4670 C   0  0  0  0  0  0  0  0  0  0  0  0
  142.5017   82.6034  223.6960 H   0  0  0  0  0  0  0  0  0  0  0  0
  141.2700   81.3530  222.4220 C   0  0  0  0  0  0  0  0  0  0  0  0
  140.8917   82.1996  221.8302 H   0  0  0  0  0  0  0  0  0  0  0  0
  140.8450   80.0430  222.1270 C   0  0  0  0  0  0  0  0  0  0  0  0
  139.9460   79.7600  221.0850 C   0  0  0  0  0  0  0  0  0  0  0  0
  139.5100   80.7070  220.3720 O   0  0  0  0  0  0  0  0  0  0  0  0
  139.5500   78.4650  220.8350 N   0  0  0  0  0  0  0  0  0  0  0  0
  138.6750   78.1990  219.6690 C   0  0  0  0  0  0  0  0  0  0  0  0
  138.4000   77.1340  219.6613 H   0  0  0  0  0  0  0  0  0  0  0  0
  137.7770   78.8285  219.7542 H   0  0  0  0  0  0  0  0  0  0  0  0
  139.3890   78.5420  218.3560 C   0  0  0  0  0  0  0  0  0  0  0  0
  138.8377   78.0983  217.5139 H   0  0  0  0  0  0  0  0  0  0  0  0
  139.4281   79.6350  218.2388 H   0  0  0  0  0  0  0  0  0  0  0  0
  140.7690   78.0030  218.3790 N   0  0  0  0  0  0  0  0  0  0  0  0
  141.1710   77.3580  217.1130 C   0  0  0  0  0  0  0  0  0  0  0  0
  142.0426   76.7142  217.3025 H   0  0  0  0  0  0  0  0  0  0  0  0
  140.3182   76.7700  216.7430 H   0  0  0  0  0  0  0  0  0  0  0  0
  141.5410   78.3930  216.0370 C   0  0  0  0  0  0  0  0  0  0  0  0
  141.9250   77.8680  215.1499 H   0  0  0  0  0  0  0  0  0  0  0  0
  140.6405   78.9714  215.7830 H   0  0  0  0  0  0  0  0  0  0  0  0
  142.5690   79.3200  216.5290 N   0  0  0  0  0  0  0  0  0  0  0  0
  142.7590   80.0380  215.7920 H   0  0  0  0  0  0  0  0  0  0  0  0
  143.4570   78.7960  216.7160 H   0  0  0  0  0  0  0  0  0  0  0  0
  142.1240   79.9990  217.7520 C   0  0  0  0  0  0  0  0  0  0  0  0
  142.9293   80.6546  218.1148 H   0  0  0  0  0  0  0  0  0  0  0  0
  141.2257   80.5907  217.5219 H   0  0  0  0  0  0  0  0  0  0  0  0
  141.7760   78.9750  218.8440 C   0  0  0  0  0  0  0  0  0  0  0  0
  142.6899   78.4330  219.1287 H   0  0  0  0  0  0  0  0  0  0  0  0
  141.3566   79.5189  219.7032 H   0  0  0  0  0  0  0  0  0  0  0  0
  141.7700   75.0490  220.3860 C   0  0  0  0  0  0  0  0  0  0  0  0
  142.6900   75.9970  219.9000 C   0  0  0  0  0  0  0  0  0  0  0  0
  142.3381   76.9735  219.5358 H   0  0  0  0  0  0  0  0  0  0  0  0
  144.0530   75.6900  219.8830 C   0  0  0  0  0  0  0  0  0  0  0  0
  144.7771   76.4274  219.5063 H   0  0  0  0  0  0  0  0  0  0  0  0
  144.4860   74.4820  220.3310 N   0  0  0  0  0  0  0  0  0  0  0  0
  143.6220   73.5440  220.8000 C   0  0  0  0  0  0  0  0  0  0  0  0
  144.0028   72.5758  221.1572 H   0  0  0  0  0  0  0  0  0  0  0  0
  142.2510   73.8080  220.8290 C   0  0  0  0  0  0  0  0  0  0  0  0
  141.5501   73.0448  221.1982 H   0  0  0  0  0  0  0  0  0  0  0  0
  1  2  1  0
  2  3  2  0
  3  4  1  0
  3  5  1  0
  5  6  2  0
  6  7  1  0
  7  8  2  0
  8  9  1  0
  8 10  1  0
 10 11  1  0
 10 12  2  0
 12 13  1  0
 12 14  1  0
 14 15  1  0
 14 16  2  0
 16 17  1  0
 17 18  2  0
 17 19  1  0
 19 20  1  0
 20 21  1  0
 20 22  1  0
 20 23  1  0
 23 24  1  0
 23 25  1  0
 23 26  1  0
 26 27  1  0
 27 28  1  0
 27 29  1  0
 27 30  1  0
 30 31  1  0
 30 32  1  0
 30 33  1  0
 33 34  1  0
 33 35  1  0
 33 36  1  0
 36 37  1  0
 36 38  1  0
 36 39  1  0
 39 40  1  0
 39 41  1  0
  2 42  1  0
 42 43  2  0
 43 44  1  0
 43 45  1  0
 45 46  1  0
 45 47  2  0
 47 48  1  0
 48 49  1  0
 48 50  2  0
 50 51  1  0
 19  5  1  0
 39 26  1  0
 50 42  1  0
 16  7  1  0
M  CHG  1  33   1
M  END
>  <UniqueID>  (13) 
609

>  <SMILES>  (13) 
O=c1c2ccccc2nc(/C=C/c2ccncc2)n1CCN1CC[NH2+]CC1

>  <Energy>  (13) 
69.44841695418637

>  <Genealogy>  (13) 
O=c1c2ccccc2nc(/C=C/c2ccncc2)n1CCN1CC[NH2+]CC1 (protonated)
O=c1c2ccccc2nc(/C=C/c2ccncc2)n1CCN1CC[NH2+]CC1 (cis-trans isomerization)
O=c1c2ccccc2nc(/C=C/c2ccncc2)n1CCN1CC[NH2+]CC1 (3D coordinates assigned)
O=c1c2ccccc2nc(/C=C/c2ccncc2)n1CCN1CC[NH2+]CC1 (nonaromatic ring conformer: 69.44841695418637 kcal/mol)

>  <smiles>  (13) 
O=c1c2ccccc2nc(/C=C/c2ccncc2)n1CCN1CCNCC1

>  <score_type>  (13) 
oracle

>  <origin>  (13) 
autodockgpu

>  <m_score__min__energy>  (13) 
-7.2800000000000002

>  <m_primary>  (13) 
energy

>  <meeko>  (13) 
{"free_energy": -6.4, "intermolecular_energy": -8.19, "internal_energy": -1.69, "cluster_size": 3, "cluster_id": 2, "rank_in_cluster": 3}

>  <energy>  (13) 
-7.23

>  <cluster_rmsd>  (13) 
0.12

>  <rmsd>  (13) 
270.63

>  <cluster>  (13) 
1

$$$$
MZUVVVBFQHRAFD-JMWNCHMZNA-O
     RDKit          3D

 51 54  0  0  0  0  0  0  0  0999 V2000
  138.5995   78.1818  223.9511 H   0  0  0  0  0  0  0  0  0  0  0  0
  139.2810   78.2780  223.0930 C   0  0  0  0  0  0  0  0  0  0  0  0
  139.0940   77.4720  222.0410 C   0  0  0  0  0  0  0  0  0  0  0  0
  138.1422   77.5103  221.4909 H   0  0  0  0  0  0  0  0  0  0  0  0
  140.1510   76.5290  221.6070 C   0  0  0  0  0  0  0  0  0  0  0  0
  140.0020   75.2220  221.9490 N   0  0  0  0  0  0  0  0  0  0  0  0
  140.9020   74.2790  221.5910 C   0  0  0  0  0  0  0  0  0  0  0  0
  140.7080   72.9460  221.9710 C   0  0  0  0  0  0  0  0  0  0  0  0
  139.8245   72.6664  222.5636 H   0  0  0  0  0  0  0  0  0  0  0  0
  141.6360   71.9700  221.5980 C   0  0  0  0  0  0  0  0  0  0  0  0
  141.4830   70.9230  221.8986 H   0  0  0  0  0  0  0  0  0  0  0  0
  142.7590   72.3230  220.8430 C   0  0  0  0  0  0  0  0  0  0  0  0
  143.4878   71.5529  220.5500 H   0  0  0  0  0  0  0  0  0  0  0  0
  142.9570   73.6530  220.4600 C   0  0  0  0  0  0  0  0  0  0  0  0
  143.8405   73.9271  219.8648 H   0  0  0  0  0  0  0  0  0  0  0  0
  142.0270   74.6430  220.8350 C   0  0  0  0  0  0  0  0  0  0  0  0
  142.1750   75.9920  220.4700 C   0  0  0  0  0  0  0  0  0  0  0  0
  143.1670   76.3360  219.7680 O   0  0  0  0  0  0  0  0  0  0  0  0
  141.2460   76.9290  220.8650 N   0  0  0  0  0  0  0  0  0  0  0  0
  141.3890   78.3230  220.3810 C   0  0  0  0  0  0  0  0  0  0  0  0
  140.6172   78.9487  220.8529 H   0  0  0  0  0  0  0  0  0  0  0  0
  142.3933   78.6850  220.6461 H   0  0  0  0  0  0  0  0  0  0  0  0
  141.2300   78.3940  218.8580 C   0  0  0  0  0  0  0  0  0  0  0  0
  140.9337   77.4061  218.4755 H   0  0  0  0  0  0  0  0  0  0  0  0
  140.4571   79.1357  218.6081 H   0  0  0  0  0  0  0  0  0  0  0  0
  142.5130   78.7970  218.2370 N   0  0  0  0  0  0  0  0  0  0  0  0
  142.8490   78.0250  217.0240 C   0  0  0  0  0  0  0  0  0  0  0  0
  143.9228   78.1399  216.8150 H   0  0  0  0  0  0  0  0  0  0  0  0
  142.5923   76.9712  217.2075 H   0  0  0  0  0  0  0  0  0  0  0  0
  142.0490   78.5060  215.8000 C   0  0  0  0  0  0  0  0  0  0  0  0
  142.4015   77.9702  214.9063 H   0  0  0  0  0  0  0  0  0  0  0  0
  140.9825   78.3016  215.9753 H   0  0  0  0  0  0  0  0  0  0  0  0
  142.2220   79.9510  215.5940 N   0  0  0  0  0  0  0  0  0  0  0  0
  141.6260   80.2510  214.7880 H   0  0  0  0  0  0  0  0  0  0  0  0
  143.2220   80.1580  215.3610 H   0  0  0  0  0  0  0  0  0  0  0  0
  141.8220   80.7050  216.7890 C   0  0  0  0  0  0  0  0  0  0  0  0
  141.9996   81.7767  216.6163 H   0  0  0  0  0  0  0  0  0  0  0  0
  140.7547   80.5220  216.9825 H   0  0  0  0  0  0  0  0  0  0  0  0
  142.6320   80.2500  218.0130 C   0  0  0  0  0  0  0  0  0  0  0  0
  143.6911   80.5003  217.8527 H   0  0  0  0  0  0  0  0  0  0  0  0
  142.2342   80.7670  218.8987 H   0  0  0  0  0  0  0  0  0  0  0  0
  140.3580   79.2930  223.1620 C   0  0  0  0  0  0  0  0  0  0  0  0
  141.6040   79.0330  223.7630 C   0  0  0  0  0  0  0  0  0  0  0  0
  141.8134   78.0439  224.1964 H   0  0  0  0  0  0  0  0  0  0  0  0
  142.5730   80.0380  223.8060 C   0  0  0  0  0  0  0  0  0  0  0  0
  143.5494   79.8395  224.2721 H   0  0  0  0  0  0  0  0  0  0  0  0
  142.3120   81.2610  223.2730 N   0  0  0  0  0  0  0  0  0  0  0  0
  141.1170   81.5440  222.6920 C   0  0  0  0  0  0  0  0  0  0  0  0
  140.9357   82.5424  222.2674 H   0  0  0  0  0  0  0  0  0  0  0  0
  140.1190   80.5700  222.6330 C   0  0  0  0  0  0  0  0  0  0  0  0
  139.1475   80.8032  222.1728 H   0  0  0  0  0  0  0  0  0  0  0  0
  1  2  1  0
  2  3  2  0
  3  4  1  0
  3  5  1  0
  5  6  2  0
  6  7  1  0
  7  8  2  0
  8  9  1  0
  8 10  1  0
 10 11  1  0
 10 12  2  0
 12 13  1  0
 12 14  1  0
 14 15  1  0
 14 16  2  0
 16 17  1  0
 17 18  2  0
 17 19  1  0
 19 20  1  0
 20 21  1  0
 20 22  1  0
 20 23  1  0
 23 24  1  0
 23 25  1  0
 23 26  1  0
 26 27  1  0
 27 28  1  0
 27 29  1  0
 27 30  1  0
 30 31  1  0
 30 32  1  0
 30 33  1  0
 33 34  1  0
 33 35  1  0
 33 36  1  0
 36 37  1  0
 36 38  1  0
 36 39  1  0
 39 40  1  0
 39 41  1  0
  2 42  1  0
 42 43  2  0
 43 44  1  0
 43 45  1  0
 45 46  1  0
 45 47  2  0
 47 48  1  0
 48 49  1  0
 48 50  2  0
 50 51  1  0
 19  5  1  0
 39 26  1  0
 50 42  1  0
 16  7  1  0
M  CHG  1  33   1
M  END
>  <UniqueID>  (14) 
609

>  <SMILES>  (14) 
O=c1c2ccccc2nc(/C=C/c2ccncc2)n1CCN1CC[NH2+]CC1

>  <Energy>  (14) 
69.44841695418637

>  <Genealogy>  (14) 
O=c1c2ccccc2nc(/C=C/c2ccncc2)n1CCN1CC[NH2+]CC1 (protonated)
O=c1c2ccccc2nc(/C=C/c2ccncc2)n1CCN1CC[NH2+]CC1 (cis-trans isomerization)
O=c1c2ccccc2nc(/C=C/c2ccncc2)n1CCN1CC[NH2+]CC1 (3D coordinates assigned)
O=c1c2ccccc2nc(/C=C/c2ccncc2)n1CCN1CC[NH2+]CC1 (nonaromatic ring conformer: 69.44841695418637 kcal/mol)

>  <smiles>  (14) 
O=c1c2ccccc2nc(/C=C/c2ccncc2)n1CCN1CCNCC1

>  <score_type>  (14) 
oracle

>  <origin>  (14) 
autodockgpu

>  <m_score__min__energy>  (14) 
-7.2800000000000002

>  <m_primary>  (14) 
energy

>  <meeko>  (14) 
{"free_energy": -7.28, "intermolecular_energy": -9.07, "internal_energy": -1.24, "cluster_size": 16, "cluster_id": 1, "rank_in_cluster": 1}

>  <energy>  (14) 
-7.22

>  <cluster_rmsd>  (14) 
0.23

>  <rmsd>  (14) 
270.71

>  <cluster>  (14) 
1

$$$$
MZUVVVBFQHRAFD-JMWNCHMZNA-O
     RDKit          3D

 51 54  0  0  0  0  0  0  0  0999 V2000
  138.5318   78.2448  223.9268 H   0  0  0  0  0  0  0  0  0  0  0  0
  139.2500   78.2930  223.0950 C   0  0  0  0  0  0  0  0  0  0  0  0
  139.0770   77.4640  222.0580 C   0  0  0  0  0  0  0  0  0  0  0  0
  138.1136   77.4539  221.5271 H   0  0  0  0  0  0  0  0  0  0  0  0
  140.1640   76.5600  221.6150 C   0  0  0  0  0  0  0  0  0  0  0  0
  140.0640   75.2480  221.9590 N   0  0  0  0  0  0  0  0  0  0  0  0
  140.9950   74.3380  221.5940 C   0  0  0  0  0  0  0  0  0  0  0  0
  140.8510   72.9990  221.9770 C   0  0  0  0  0  0  0  0  0  0  0  0
  139.9827   72.6889  222.5768 H   0  0  0  0  0  0  0  0  0  0  0  0
  141.8110   72.0560  221.5970 C   0  0  0  0  0  0  0  0  0  0  0  0
  141.6983   71.0044  221.8993 H   0  0  0  0  0  0  0  0  0  0  0  0
  142.9140   72.4490  220.8330 C   0  0  0  0  0  0  0  0  0  0  0  0
  143.6673   71.7052  220.5340 H   0  0  0  0  0  0  0  0  0  0  0  0
  143.0620   73.7850  220.4480 C   0  0  0  0  0  0  0  0  0  0  0  0
  143.9307   74.0901  219.8461 H   0  0  0  0  0  0  0  0  0  0  0  0
  142.1000   74.7410  220.8300 C   0  0  0  0  0  0  0  0  0  0  0  0
  142.1970   76.0940  220.4630 C   0  0  0  0  0  0  0  0  0  0  0  0
  143.1710   76.4720  219.7530 O   0  0  0  0  0  0  0  0  0  0  0  0
  141.2380   76.9980  220.8650 N   0  0  0  0  0  0  0  0  0  0  0  0
  141.3280   78.3950  220.3780 C   0  0  0  0  0  0  0  0  0  0  0  0
  140.5401   78.9944  220.8576 H   0  0  0  0  0  0  0  0  0  0  0  0
  142.3224   78.7908  220.6319 H   0  0  0  0  0  0  0  0  0  0  0  0
  141.1510   78.4600  218.8570 C   0  0  0  0  0  0  0  0  0  0  0  0
  140.7331   77.5083  218.4970 H   0  0  0  0  0  0  0  0  0  0  0  0
  140.4668   79.2838  218.6058 H   0  0  0  0  0  0  0  0  0  0  0  0
  142.4620   78.6980  218.2090 N   0  0  0  0  0  0  0  0  0  0  0  0
  142.5810   78.0770  216.8750 C   0  0  0  0  0  0  0  0  0  0  0  0
  143.6457   78.0117  216.6066 H   0  0  0  0  0  0  0  0  0  0  0  0
  142.1224   77.0782  216.9212 H   0  0  0  0  0  0  0  0  0  0  0  0
  141.8450   78.8910  215.7970 C   0  0  0  0  0  0  0  0  0  0  0  0
  142.0426   78.4443  214.8114 H   0  0  0  0  0  0  0  0  0  0  0  0
  140.7678   78.8734  216.0190 H   0  0  0  0  0  0  0  0  0  0  0  0
  142.2990   80.2880  215.7910 N   0  0  0  0  0  0  0  0  0  0  0  0
  141.7430   80.8220  215.0840 H   0  0  0  0  0  0  0  0  0  0  0  0
  143.3100   80.3300  215.5180 H   0  0  0  0  0  0  0  0  0  0  0  0
  142.1120   80.9080  217.1090 C   0  0  0  0  0  0  0  0  0  0  0  0
  142.4965   81.9383  217.0816 H   0  0  0  0  0  0  0  0  0  0  0  0
  141.0391   80.9083  217.3515 H   0  0  0  0  0  0  0  0  0  0  0  0
  142.8640   80.1170  218.1910 C   0  0  0  0  0  0  0  0  0  0  0  0
  143.9440   80.1789  217.9917 H   0  0  0  0  0  0  0  0  0  0  0  0
  142.6175   80.5553  219.1693 H   0  0  0  0  0  0  0  0  0  0  0  0
  140.3590   79.2720  223.1800 C   0  0  0  0  0  0  0  0  0  0  0  0
  141.6040   78.9550  223.7550 C   0  0  0  0  0  0  0  0  0  0  0  0
  141.7884   77.9464  224.1534 H   0  0  0  0  0  0  0  0  0  0  0  0
  142.6040   79.9280  223.8170 C   0  0  0  0  0  0  0  0  0  0  0  0
  143.5794   79.6852  224.2638 H   0  0  0  0  0  0  0  0  0  0  0  0
  142.3740   81.1750  223.3260 N   0  0  0  0  0  0  0  0  0  0  0  0
  141.1810   81.5130  222.7710 C   0  0  0  0  0  0  0  0  0  0  0  0
  141.0253   82.5296  222.3808 H   0  0  0  0  0  0  0  0  0  0  0  0
  140.1520   80.5720  222.6950 C   0  0  0  0  0  0  0  0  0  0  0  0
  139.1821   80.8492  222.2562 H   0  0  0  0  0  0  0  0  0  0  0  0
  1  2  1  0
  2  3  2  0
  3  4  1  0
  3  5  1  0
  5  6  2  0
  6  7  1  0
  7  8  2  0
  8  9  1  0
  8 10  1  0
 10 11  1  0
 10 12  2  0
 12 13  1  0
 12 14  1  0
 14 15  1  0
 14 16  2  0
 16 17  1  0
 17 18  2  0
 17 19  1  0
 19 20  1  0
 20 21  1  0
 20 22  1  0
 20 23  1  0
 23 24  1  0
 23 25  1  0
 23 26  1  0
 26 27  1  0
 27 28  1  0
 27 29  1  0
 27 30  1  0
 30 31  1  0
 30 32  1  0
 30 33  1  0
 33 34  1  0
 33 35  1  0
 33 36  1  0
 36 37  1  0
 36 38  1  0
 36 39  1  0
 39 40  1  0
 39 41  1  0
  2 42  1  0
 42 43  2  0
 43 44  1  0
 43 45  1  0
 45 46  1  0
 45 47  2  0
 47 48  1  0
 48 49  1  0
 48 50  2  0
 50 51  1  0
 19  5  1  0
 39 26  1  0
 50 42  1  0
 16  7  1  0
M  CHG  1  33   1
M  END
>  <UniqueID>  (15) 
609

>  <SMILES>  (15) 
O=c1c2ccccc2nc(/C=C/c2ccncc2)n1CCN1CC[NH2+]CC1

>  <Energy>  (15) 
69.44841695418637

>  <Genealogy>  (15) 
O=c1c2ccccc2nc(/C=C/c2ccncc2)n1CCN1CC[NH2+]CC1 (protonated)
O=c1c2ccccc2nc(/C=C/c2ccncc2)n1CCN1CC[NH2+]CC1 (cis-trans isomerization)
O=c1c2ccccc2nc(/C=C/c2ccncc2)n1CCN1CC[NH2+]CC1 (3D coordinates assigned)
O=c1c2ccccc2nc(/C=C/c2ccncc2)n1CCN1CC[NH2+]CC1 (nonaromatic ring conformer: 69.44841695418637 kcal/mol)

>  <smiles>  (15) 
O=c1c2ccccc2nc(/C=C/c2ccncc2)n1CCN1CCNCC1

>  <score_type>  (15) 
oracle

>  <origin>  (15) 
autodockgpu

>  <m_score__min__energy>  (15) 
-7.2800000000000002

>  <m_primary>  (15) 
energy

>  <meeko>  (15) 
{"free_energy": -7.22, "intermolecular_energy": -9.01, "internal_energy": -1.24, "cluster_size": 16, "cluster_id": 1, "rank_in_cluster": 14}

>  <energy>  (15) 
-6.79

>  <cluster_rmsd>  (15) 
0.75

>  <rmsd>  (15) 
270.63

>  <cluster>  (15) 
1

$$$$
MZUVVVBFQHRAFD-JMWNCHMZNA-O
     RDKit          3D

 51 54  0  0  0  0  0  0  0  0999 V2000
  139.0098   78.0243  223.9616 H   0  0  0  0  0  0  0  0  0  0  0  0
  139.5970   78.2140  223.0510 C   0  0  0  0  0  0  0  0  0  0  0  0
  139.3580   77.4570  221.9730 C   0  0  0  0  0  0  0  0  0  0  0  0
  138.5052   77.6965  221.3208 H   0  0  0  0  0  0  0  0  0  0  0  0
  140.2250   76.3020  221.6460 C   0  0  0  0  0  0  0  0  0  0  0  0
  139.7760   75.0660  221.9900 N   0  0  0  0  0  0  0  0  0  0  0  0
  140.4850   73.9450  221.7250 C   0  0  0  0  0  0  0  0  0  0  0  0
  139.9830   72.6940  222.1020 C   0  0  0  0  0  0  0  0  0  0  0  0
  139.0130   72.6232  222.6160 H   0  0  0  0  0  0  0  0  0  0  0  0
  140.7130   71.5350  221.8260 C   0  0  0  0  0  0  0  0  0  0  0  0
  140.3189   70.5527  222.1258 H   0  0  0  0  0  0  0  0  0  0  0  0
  141.9440   71.6230  221.1690 C   0  0  0  0  0  0  0  0  0  0  0  0
  142.5165   70.7093  220.9514 H   0  0  0  0  0  0  0  0  0  0  0  0
  142.4490   72.8700  220.7880 C   0  0  0  0  0  0  0  0  0  0  0  0
  143.4168   72.9350  220.2693 H   0  0  0  0  0  0  0  0  0  0  0  0
  141.7210   74.0430  221.0670 C   0  0  0  0  0  0  0  0  0  0  0  0
  142.1790   75.3190  220.7010 C   0  0  0  0  0  0  0  0  0  0  0  0
  143.2770   75.4270  220.0850 O   0  0  0  0  0  0  0  0  0  0  0  0
  141.4390   76.4410  220.9990 N   0  0  0  0  0  0  0  0  0  0  0  0
  141.9130   77.7590  220.5120 C   0  0  0  0  0  0  0  0  0  0  0  0
  141.1397   78.5155  220.7112 H   0  0  0  0  0  0  0  0  0  0  0  0
  142.8449   78.0128  221.0385 H   0  0  0  0  0  0  0  0  0  0  0  0
  142.1980   77.7180  219.0070 C   0  0  0  0  0  0  0  0  0  0  0  0
  143.1864   78.1591  218.8106 H   0  0  0  0  0  0  0  0  0  0  0  0
  142.1828   76.6732  218.6633 H   0  0  0  0  0  0  0  0  0  0  0  0
  141.1630   78.4870  218.2780 N   0  0  0  0  0  0  0  0  0  0  0  0
  141.2900   79.9490  218.4420 C   0  0  0  0  0  0  0  0  0  0  0  0
  140.3371   80.4226  218.1633 H   0  0  0  0  0  0  0  0  0  0  0  0
  141.5413   80.1544  219.4930 H   0  0  0  0  0  0  0  0  0  0  0  0
  142.4100   80.5280  217.5610 C   0  0  0  0  0  0  0  0  0  0  0  0
  142.4020   81.6249  217.6437 H   0  0  0  0  0  0  0  0  0  0  0  0
  143.3725   80.1225  217.9062 H   0  0  0  0  0  0  0  0  0  0  0  0
  142.2210   80.1510  216.1540 N   0  0  0  0  0  0  0  0  0  0  0  0
  143.0250   80.5170  215.5940 H   0  0  0  0  0  0  0  0  0  0  0  0
  141.3390   80.5820  215.7880 H   0  0  0  0  0  0  0  0  0  0  0  0
  142.1620   78.6910  216.0040 C   0  0  0  0  0  0  0  0  0  0  0  0
  141.9818   78.4433  214.9475 H   0  0  0  0  0  0  0  0  0  0  0  0
  143.1180   78.2617  216.3383 H   0  0  0  0  0  0  0  0  0  0  0  0
  141.0300   78.1040  216.8600 C   0  0  0  0  0  0  0  0  0  0  0  0
  140.0667   78.4745  216.4796 H   0  0  0  0  0  0  0  0  0  0  0  0
  141.0844   77.0073  216.7947 H   0  0  0  0  0  0  0  0  0  0  0  0
  140.6110   79.2940  223.0820 C   0  0  0  0  0  0  0  0  0  0  0  0
  140.4330   80.5160  222.4060 C   0  0  0  0  0  0  0  0  0  0  0  0
  139.5114   80.7036  221.8356 H   0  0  0  0  0  0  0  0  0  0  0  0
  141.4340   81.4890  222.4640 C   0  0  0  0  0  0  0  0  0  0  0  0
  141.2993   82.4471  221.9406 H   0  0  0  0  0  0  0  0  0  0  0  0
  142.5740   81.2540  223.1660 N   0  0  0  0  0  0  0  0  0  0  0  0
  142.7770   80.0820  223.8230 C   0  0  0  0  0  0  0  0  0  0  0  0
  143.7090   79.9215  224.3848 H   0  0  0  0  0  0  0  0  0  0  0  0
  141.8040   79.0810  223.7860 C   0  0  0  0  0  0  0  0  0  0  0  0
  141.9735   78.1277  224.3081 H   0  0  0  0  0  0  0  0  0  0  0  0
  1  2  1  0
  2  3  2  0
  3  4  1  0
  3  5  1  0
  5  6  2  0
  6  7  1  0
  7  8  2  0
  8  9  1  0
  8 10  1  0
 10 11  1  0
 10 12  2  0
 12 13  1  0
 12 14  1  0
 14 15  1  0
 14 16  2  0
 16 17  1  0
 17 18  2  0
 17 19  1  0
 19 20  1  0
 20 21  1  0
 20 22  1  0
 20 23  1  0
 23 24  1  0
 23 25  1  0
 23 26  1  0
 26 27  1  0
 27 28  1  0
 27 29  1  0
 27 30  1  0
 30 31  1  0
 30 32  1  0
 30 33  1  0
 33 34  1  0
 33 35  1  0
 33 36  1  0
 36 37  1  0
 36 38  1  0
 36 39  1  0
 39 40  1  0
 39 41  1  0
  2 42  1  0
 42 43  2  0
 43 44  1  0
 43 45  1  0
 45 46  1  0
 45 47  2  0
 47 48  1  0
 48 49  1  0
 48 50  2  0
 50 51  1  0
 19  5  1  0
 39 26  1  0
 50 42  1  0
 16  7  1  0
M  CHG  1  33   1
M  END
>  <UniqueID>  (16) 
609

>  <SMILES>  (16) 
O=c1c2ccccc2nc(/C=C/c2ccncc2)n1CCN1CC[NH2+]CC1

>  <Energy>  (16) 
69.44841695418637

>  <Genealogy>  (16) 
O=c1c2ccccc2nc(/C=C/c2ccncc2)n1CCN1CC[NH2+]CC1 (protonated)
O=c1c2ccccc2nc(/C=C/c2ccncc2)n1CCN1CC[NH2+]CC1 (cis-trans isomerization)
O=c1c2ccccc2nc(/C=C/c2ccncc2)n1CCN1CC[NH2+]CC1 (3D coordinates assigned)
O=c1c2ccccc2nc(/C=C/c2ccncc2)n1CCN1CC[NH2+]CC1 (nonaromatic ring conformer: 69.44841695418637 kcal/mol)

>  <smiles>  (16) 
O=c1c2ccccc2nc(/C=C/c2ccncc2)n1CCN1CCNCC1

>  <score_type>  (16) 
oracle

>  <origin>  (16) 
autodockgpu

>  <m_score__min__energy>  (16) 
-7.2800000000000002

>  <m_primary>  (16) 
energy

>  <meeko>  (16) 
{"free_energy": -6.79, "intermolecular_energy": -8.58, "internal_energy": -1.2, "cluster_size": 16, "cluster_id": 1, "rank_in_cluster": 15}

>  <energy>  (16) 
-6.54

>  <cluster_rmsd>  (16) 
1.98

>  <rmsd>  (16) 
270.35

>  <cluster>  (16) 
1

$$$$
MZUVVVBFQHRAFD-JMWNCHMZNA-O
     RDKit          3D

 51 54  0  0  0  0  0  0  0  0999 V2000
  140.7970   76.1729  223.5101 H   0  0  0  0  0  0  0  0  0  0  0  0
  140.8850   76.7150  222.5570 C   0  0  0  0  0  0  0  0  0  0  0  0
  140.4930   76.0960  221.4360 C   0  0  0  0  0  0  0  0  0  0  0  0
  139.4197   76.0111  221.2107 H   0  0  0  0  0  0  0  0  0  0  0  0
  141.4840   75.5240  220.4950 C   0  0  0  0  0  0  0  0  0  0  0  0
  142.5660   74.8980  221.0310 N   0  0  0  0  0  0  0  0  0  0  0  0
  143.5210   74.3310  220.2610 C   0  0  0  0  0  0  0  0  0  0  0  0
  144.6190   73.7020  220.8590 C   0  0  0  0  0  0  0  0  0  0  0  0
  144.7054   73.6719  221.9552 H   0  0  0  0  0  0  0  0  0  0  0  0
  145.6060   73.1120  220.0640 C   0  0  0  0  0  0  0  0  0  0  0  0
  146.4697   72.6199  220.5350 H   0  0  0  0  0  0  0  0  0  0  0  0
  145.4960   73.1470  218.6710 C   0  0  0  0  0  0  0  0  0  0  0  0
  146.2727   72.6802  218.0475 H   0  0  0  0  0  0  0  0  0  0  0  0
  144.4010   73.7740  218.0680 C   0  0  0  0  0  0  0  0  0  0  0  0
  144.3178   73.7989  216.9714 H   0  0  0  0  0  0  0  0  0  0  0  0
  143.4040   74.3740  218.8630 C   0  0  0  0  0  0  0  0  0  0  0  0
  142.2810   75.0090  218.3090 C   0  0  0  0  0  0  0  0  0  0  0  0
  142.1430   75.0350  217.0530 O   0  0  0  0  0  0  0  0  0  0  0  0
  141.3330   75.5900  219.1230 N   0  0  0  0  0  0  0  0  0  0  0  0
  140.1170   76.1670  218.5020 C   0  0  0  0  0  0  0  0  0  0  0  0
  140.1405   75.9748  217.4192 H   0  0  0  0  0  0  0  0  0  0  0  0
  139.2337   75.6962  218.9583 H   0  0  0  0  0  0  0  0  0  0  0  0
  140.0420   77.6790  218.7410 C   0  0  0  0  0  0  0  0  0  0  0  0
  139.0343   77.9431  219.0942 H   0  0  0  0  0  0  0  0  0  0  0  0
  140.7872   77.9639  219.4982 H   0  0  0  0  0  0  0  0  0  0  0  0
  140.3260   78.4020  217.4800 N   0  0  0  0  0  0  0  0  0  0  0  0
  140.4970   79.8570  217.6600 C   0  0  0  0  0  0  0  0  0  0  0  0
  140.3771   80.3528  216.6854 H   0  0  0  0  0  0  0  0  0  0  0  0
  139.7380   80.2042  218.3765 H   0  0  0  0  0  0  0  0  0  0  0  0
  141.8850   80.2040  218.2280 C   0  0  0  0  0  0  0  0  0  0  0  0
  142.0009   81.2976  218.2523 H   0  0  0  0  0  0  0  0  0  0  0  0
  141.9636   79.7862  219.2425 H   0  0  0  0  0  0  0  0  0  0  0  0
  142.9510   79.6260  217.3990 N   0  0  0  0  0  0  0  0  0  0  0  0
  143.8760   79.8380  217.8410 H   0  0  0  0  0  0  0  0  0  0  0  0
  142.9330   80.0610  216.4460 H   0  0  0  0  0  0  0  0  0  0  0  0
  142.8000   78.1700  217.2850 C   0  0  0  0  0  0  0  0  0  0  0  0
  143.5896   77.7752  216.6288 H   0  0  0  0  0  0  0  0  0  0  0  0
  142.8807   77.7261  218.2882 H   0  0  0  0  0  0  0  0  0  0  0  0
  141.4280   77.8120  216.6950 C   0  0  0  0  0  0  0  0  0  0  0  0
  141.3736   78.1905  215.6636 H   0  0  0  0  0  0  0  0  0  0  0  0
  141.3190   76.7177  216.7192 H   0  0  0  0  0  0  0  0  0  0  0  0
  141.4310   78.0920  222.5800 C   0  0  0  0  0  0  0  0  0  0  0  0
  141.6640   78.8320  221.4050 C   0  0  0  0  0  0  0  0  0  0  0  0
  141.4309   78.3970  220.4219 H   0  0  0  0  0  0  0  0  0  0  0  0
  142.1930   80.1220  221.4950 C   0  0  0  0  0  0  0  0  0  0  0  0
  142.3743   80.7059  220.5805 H   0  0  0  0  0  0  0  0  0  0  0  0
  142.4840   80.6570  222.7100 N   0  0  0  0  0  0  0  0  0  0  0  0
  142.2770   79.9650  223.8620 C   0  0  0  0  0  0  0  0  0  0  0  0
  142.5207   80.4252  224.8309 H   0  0  0  0  0  0  0  0  0  0  0  0
  141.7550   78.6700  223.8160 C   0  0  0  0  0  0  0  0  0  0  0  0
  141.5985   78.1051  224.7468 H   0  0  0  0  0  0  0  0  0  0  0  0
  1  2  1  0
  2  3  2  0
  3  4  1  0
  3  5  1  0
  5  6  2  0
  6  7  1  0
  7  8  2  0
  8  9  1  0
  8 10  1  0
 10 11  1  0
 10 12  2  0
 12 13  1  0
 12 14  1  0
 14 15  1  0
 14 16  2  0
 16 17  1  0
 17 18  2  0
 17 19  1  0
 19 20  1  0
 20 21  1  0
 20 22  1  0
 20 23  1  0
 23 24  1  0
 23 25  1  0
 23 26  1  0
 26 27  1  0
 27 28  1  0
 27 29  1  0
 27 30  1  0
 30 31  1  0
 30 32  1  0
 30 33  1  0
 33 34  1  0
 33 35  1  0
 33 36  1  0
 36 37  1  0
 36 38  1  0
 36 39  1  0
 39 40  1  0
 39 41  1  0
  2 42  1  0
 42 43  2  0
 43 44  1  0
 43 45  1  0
 45 46  1  0
 45 47  2  0
 47 48  1  0
 48 49  1  0
 48 50  2  0
 50 51  1  0
 19  5  1  0
 39 26  1  0
 50 42  1  0
 16  7  1  0
M  CHG  1  33   1
M  END
>  <UniqueID>  (17) 
609

>  <SMILES>  (17) 
O=c1c2ccccc2nc(/C=C/c2ccncc2)n1CCN1CC[NH2+]CC1

>  <Energy>  (17) 
69.44841695418637

>  <Genealogy>  (17) 
O=c1c2ccccc2nc(/C=C/c2ccncc2)n1CCN1CC[NH2+]CC1 (protonated)
O=c1c2ccccc2nc(/C=C/c2ccncc2)n1CCN1CC[NH2+]CC1 (cis-trans isomerization)
O=c1c2ccccc2nc(/C=C/c2ccncc2)n1CCN1CC[NH2+]CC1 (3D coordinates assigned)
O=c1c2ccccc2nc(/C=C/c2ccncc2)n1CCN1CC[NH2+]CC1 (nonaromatic ring conformer: 69.44841695418637 kcal/mol)

>  <smiles>  (17) 
O=c1c2ccccc2nc(/C=C/c2ccncc2)n1CCN1CCNCC1

>  <score_type>  (17) 
oracle

>  <origin>  (17) 
autodockgpu

>  <m_score__min__energy>  (17) 
-7.2800000000000002

>  <m_primary>  (17) 
energy

>  <meeko>  (17) 
{"free_energy": -6.54, "intermolecular_energy": -8.33, "internal_energy": -1.45, "cluster_size": 16, "cluster_id": 1, "rank_in_cluster": 16}

>  <energy>  (17) 
-6.51

>  <cluster_rmsd>  (17) 
0.0

>  <rmsd>  (17) 
270.63

>  <cluster>  (17) 
2

$$$$
MZUVVVBFQHRAFD-JMWNCHMZNA-O
     RDKit          3D

 51 54  0  0  0  0  0  0  0  0999 V2000
  138.7077   78.2392  223.9459 H   0  0  0  0  0  0  0  0  0  0  0  0
  139.3830   78.2670  223.0780 C   0  0  0  0  0  0  0  0  0  0  0  0
  139.1420   77.4330  222.0590 C   0  0  0  0  0  0  0  0  0  0  0  0
  138.1649   77.4617  221.5545 H   0  0  0  0  0  0  0  0  0  0  0  0
  140.1720   76.4720  221.6010 C   0  0  0  0  0  0  0  0  0  0  0  0
  140.0240   75.1720  221.9710 N   0  0  0  0  0  0  0  0  0  0  0  0
  140.9010   74.2150  221.5940 C   0  0  0  0  0  0  0  0  0  0  0  0
  140.7090   72.8900  222.0040 C   0  0  0  0  0  0  0  0  0  0  0  0
  139.8462   72.6297  222.6347 H   0  0  0  0  0  0  0  0  0  0  0  0
  141.6120   71.8980  221.6130 C   0  0  0  0  0  0  0  0  0  0  0  0
  141.4610   70.8578  221.9374 H   0  0  0  0  0  0  0  0  0  0  0  0
  142.7080   72.2280  220.8090 C   0  0  0  0  0  0  0  0  0  0  0  0
  143.4175   71.4459  220.5009 H   0  0  0  0  0  0  0  0  0  0  0  0
  142.9040   73.5490  220.3960 C   0  0  0  0  0  0  0  0  0  0  0  0
  143.7663   73.8038  219.7623 H   0  0  0  0  0  0  0  0  0  0  0  0
  141.9990   74.5550  220.7900 C   0  0  0  0  0  0  0  0  0  0  0  0
  142.1460   75.8950  220.3970 C   0  0  0  0  0  0  0  0  0  0  0  0
  143.1130   76.2170  219.6510 O   0  0  0  0  0  0  0  0  0  0  0  0
  141.2420   76.8480  220.8100 N   0  0  0  0  0  0  0  0  0  0  0  0
  141.3790   78.2320  220.2970 C   0  0  0  0  0  0  0  0  0  0  0  0
  140.6099   78.8659  220.7625 H   0  0  0  0  0  0  0  0  0  0  0  0
  142.3850   78.6003  220.5467 H   0  0  0  0  0  0  0  0  0  0  0  0
  141.2080   78.2730  218.7740 C   0  0  0  0  0  0  0  0  0  0  0  0
  140.8643   77.2904  218.4187 H   0  0  0  0  0  0  0  0  0  0  0  0
  140.4664   79.0422  218.5127 H   0  0  0  0  0  0  0  0  0  0  0  0
  142.5010   78.6030  218.1320 N   0  0  0  0  0  0  0  0  0  0  0  0
  142.6320   78.0670  216.7630 C   0  0  0  0  0  0  0  0  0  0  0  0
  143.6959   78.0618  216.4834 H   0  0  0  0  0  0  0  0  0  0  0  0
  142.2147   77.0493  216.7538 H   0  0  0  0  0  0  0  0  0  0  0  0
  141.8530   78.9110  215.7400 C   0  0  0  0  0  0  0  0  0  0  0  0
  142.0596   78.5313  214.7285 H   0  0  0  0  0  0  0  0  0  0  0  0
  140.7795   78.8355  215.9681 H   0  0  0  0  0  0  0  0  0  0  0  0
  142.2490   80.3240  215.8130 N   0  0  0  0  0  0  0  0  0  0  0  0
  141.6640   80.8750  215.1430 H   0  0  0  0  0  0  0  0  0  0  0  0
  143.2540   80.4250  215.5360 H   0  0  0  0  0  0  0  0  0  0  0  0
  142.0490   80.8570  217.1670 C   0  0  0  0  0  0  0  0  0  0  0  0
  142.3894   81.9026  217.1977 H   0  0  0  0  0  0  0  0  0  0  0  0
  140.9794   80.7970  217.4169 H   0  0  0  0  0  0  0  0  0  0  0  0
  142.8440   80.0370  218.1950 C   0  0  0  0  0  0  0  0  0  0  0  0
  143.9185   80.1558  217.9918 H   0  0  0  0  0  0  0  0  0  0  0  0
  142.5896   80.4067  219.1993 H   0  0  0  0  0  0  0  0  0  0  0  0
  140.5130   79.2260  223.0970 C   0  0  0  0  0  0  0  0  0  0  0  0
  141.8200   78.8440  223.4530 C   0  0  0  0  0  0  0  0  0  0  0  0
  142.0379   77.7996  223.7208 H   0  0  0  0  0  0  0  0  0  0  0  0
  142.8390   79.8000  223.4640 C   0  0  0  0  0  0  0  0  0  0  0  0
  143.8629   79.5075  223.7397 H   0  0  0  0  0  0  0  0  0  0  0  0
  142.5680   81.0900  223.1350 N   0  0  0  0  0  0  0  0  0  0  0  0
  141.3150   81.4900  222.7930 C   0  0  0  0  0  0  0  0  0  0  0  0
  141.1267   82.5414  222.5300 H   0  0  0  0  0  0  0  0  0  0  0  0
  140.2660   80.5680  222.7750 C   0  0  0  0  0  0  0  0  0  0  0  0
  139.2495   80.8937  222.5091 H   0  0  0  0  0  0  0  0  0  0  0  0
  1  2  1  0
  2  3  2  0
  3  4  1  0
  3  5  1  0
  5  6  2  0
  6  7  1  0
  7  8  2  0
  8  9  1  0
  8 10  1  0
 10 11  1  0
 10 12  2  0
 12 13  1  0
 12 14  1  0
 14 15  1  0
 14 16  2  0
 16 17  1  0
 17 18  2  0
 17 19  1  0
 19 20  1  0
 20 21  1  0
 20 22  1  0
 20 23  1  0
 23 24  1  0
 23 25  1  0
 23 26  1  0
 26 27  1  0
 27 28  1  0
 27 29  1  0
 27 30  1  0
 30 31  1  0
 30 32  1  0
 30 33  1  0
 33 34  1  0
 33 35  1  0
 33 36  1  0
 36 37  1  0
 36 38  1  0
 36 39  1  0
 39 40  1  0
 39 41  1  0
  2 42  1  0
 42 43  2  0
 43 44  1  0
 43 45  1  0
 45 46  1  0
 45 47  2  0
 47 48  1  0
 48 49  1  0
 48 50  2  0
 50 51  1  0
 19  5  1  0
 39 26  1  0
 50 42  1  0
 16  7  1  0
M  CHG  1  33   1
M  END
>  <UniqueID>  (18) 
609

>  <SMILES>  (18) 
O=c1c2ccccc2nc(/C=C/c2ccncc2)n1CCN1CC[NH2+]CC1

>  <Energy>  (18) 
69.44841695418637

>  <Genealogy>  (18) 
O=c1c2ccccc2nc(/C=C/c2ccncc2)n1CCN1CC[NH2+]CC1 (protonated)
O=c1c2ccccc2nc(/C=C/c2ccncc2)n1CCN1CC[NH2+]CC1 (cis-trans isomerization)
O=c1c2ccccc2nc(/C=C/c2ccncc2)n1CCN1CC[NH2+]CC1 (3D coordinates assigned)
O=c1c2ccccc2nc(/C=C/c2ccncc2)n1CCN1CC[NH2+]CC1 (nonaromatic ring conformer: 69.44841695418637 kcal/mol)

>  <smiles>  (18) 
O=c1c2ccccc2nc(/C=C/c2ccncc2)n1CCN1CCNCC1

>  <score_type>  (18) 
oracle

>  <origin>  (18) 
autodockgpu

>  <m_score__min__energy>  (18) 
-7.2800000000000002

>  <m_primary>  (18) 
energy

>  <meeko>  (18) 
{"free_energy": -7.26, "intermolecular_energy": -9.05, "internal_energy": -1.22, "cluster_size": 16, "cluster_id": 1, "rank_in_cluster": 7}

>  <energy>  (18) 
-6.51

>  <cluster_rmsd>  (18) 
0.39

>  <rmsd>  (18) 
270.6

>  <cluster>  (18) 
2

$$$$
MZUVVVBFQHRAFD-JMWNCHMZNA-O
     RDKit          3D

 51 54  0  0  0  0  0  0  0  0999 V2000
  138.6455   78.1152  223.9741 H   0  0  0  0  0  0  0  0  0  0  0  0
  139.2990   78.2530  223.1000 C   0  0  0  0  0  0  0  0  0  0  0  0
  139.1100   77.4630  222.0360 C   0  0  0  0  0  0  0  0  0  0  0  0
  138.1671   77.5276  221.4732 H   0  0  0  0  0  0  0  0  0  0  0  0
  140.1530   76.5030  221.6060 C   0  0  0  0  0  0  0  0  0  0  0  0
  139.9790   75.1980  221.9430 N   0  0  0  0  0  0  0  0  0  0  0  0
  140.8650   74.2400  221.5880 C   0  0  0  0  0  0  0  0  0  0  0  0
  140.6450   72.9090  221.9630 C   0  0  0  0  0  0  0  0  0  0  0  0
  139.7528   72.6431  222.5489 H   0  0  0  0  0  0  0  0  0  0  0  0
  141.5590   71.9180  221.5930 C   0  0  0  0  0  0  0  0  0  0  0  0
  141.3866   70.8729  221.8899 H   0  0  0  0  0  0  0  0  0  0  0  0
  142.6920   72.2540  220.8460 C   0  0  0  0  0  0  0  0  0  0  0  0
  143.4090   71.4722  220.5548 H   0  0  0  0  0  0  0  0  0  0  0  0
  142.9160   73.5820  220.4680 C   0  0  0  0  0  0  0  0  0  0  0  0
  143.8080   73.8423  219.8793 H   0  0  0  0  0  0  0  0  0  0  0  0
  142.0010   74.5870  220.8400 C   0  0  0  0  0  0  0  0  0  0  0  0
  142.1750   75.9330  220.4800 C   0  0  0  0  0  0  0  0  0  0  0  0
  143.1780   76.2620  219.7850 O   0  0  0  0  0  0  0  0  0  0  0  0
  141.2600   76.8860  220.8720 N   0  0  0  0  0  0  0  0  0  0  0  0
  141.4310   78.2780  220.3920 C   0  0  0  0  0  0  0  0  0  0  0  0
  140.6783   78.9195  220.8736 H   0  0  0  0  0  0  0  0  0  0  0  0
  142.4461   78.6149  220.6490 H   0  0  0  0  0  0  0  0  0  0  0  0
  141.2600   78.3600  218.8710 C   0  0  0  0  0  0  0  0  0  0  0  0
  140.9662   77.3736  218.4828 H   0  0  0  0  0  0  0  0  0  0  0  0
  140.4811   79.0992  218.6324 H   0  0  0  0  0  0  0  0  0  0  0  0
  142.5370   78.7750  218.2440 N   0  0  0  0  0  0  0  0  0  0  0  0
  142.8780   78.0010  217.0340 C   0  0  0  0  0  0  0  0  0  0  0  0
  143.9498   78.1273  216.8211 H   0  0  0  0  0  0  0  0  0  0  0  0
  142.6338   76.9454  217.2238 H   0  0  0  0  0  0  0  0  0  0  0  0
  142.0690   78.4660  215.8100 C   0  0  0  0  0  0  0  0  0  0  0  0
  142.4254   77.9298  214.9181 H   0  0  0  0  0  0  0  0  0  0  0  0
  141.0055   78.2499  215.9895 H   0  0  0  0  0  0  0  0  0  0  0  0
  142.2240   79.9110  215.5960 N   0  0  0  0  0  0  0  0  0  0  0  0
  141.6230   80.2010  214.7910 H   0  0  0  0  0  0  0  0  0  0  0  0
  143.2210   80.1290  215.3600 H   0  0  0  0  0  0  0  0  0  0  0  0
  141.8190   80.6660  216.7890 C   0  0  0  0  0  0  0  0  0  0  0  0
  141.9826   81.7390  216.6102 H   0  0  0  0  0  0  0  0  0  0  0  0
  140.7549   80.4703  216.9872 H   0  0  0  0  0  0  0  0  0  0  0  0
  142.6380   80.2280  218.0120 C   0  0  0  0  0  0  0  0  0  0  0  0
  143.6935   80.4901  217.8467 H   0  0  0  0  0  0  0  0  0  0  0  0
  142.2373   80.7452  218.8963 H   0  0  0  0  0  0  0  0  0  0  0  0
  140.3420   79.3030  223.1620 C   0  0  0  0  0  0  0  0  0  0  0  0
  140.1460   80.5950  222.6380 C   0  0  0  0  0  0  0  0  0  0  0  0
  139.1875   80.8619  222.1689 H   0  0  0  0  0  0  0  0  0  0  0  0
  141.1750   81.5360  222.7170 C   0  0  0  0  0  0  0  0  0  0  0  0
  141.0253   82.5481  222.3130 H   0  0  0  0  0  0  0  0  0  0  0  0
  142.3610   81.2040  223.2920 N   0  0  0  0  0  0  0  0  0  0  0  0
  142.5830   79.9630  223.8010 C   0  0  0  0  0  0  0  0  0  0  0  0
  143.5523   79.7241  224.2630 H   0  0  0  0  0  0  0  0  0  0  0  0
  141.5820   78.9910  223.7380 C   0  0  0  0  0  0  0  0  0  0  0  0
  141.7658   77.9834  224.1392 H   0  0  0  0  0  0  0  0  0  0  0  0
  1  2  1  0
  2  3  2  0
  3  4  1  0
  3  5  1  0
  5  6  2  0
  6  7  1  0
  7  8  2  0
  8  9  1  0
  8 10  1  0
 10 11  1  0
 10 12  2  0
 12 13  1  0
 12 14  1  0
 14 15  1  0
 14 16  2  0
 16 17  1  0
 17 18  2  0
 17 19  1  0
 19 20  1  0
 20 21  1  0
 20 22  1  0
 20 23  1  0
 23 24  1  0
 23 25  1  0
 23 26  1  0
 26 27  1  0
 27 28  1  0
 27 29  1  0
 27 30  1  0
 30 31  1  0
 30 32  1  0
 30 33  1  0
 33 34  1  0
 33 35  1  0
 33 36  1  0
 36 37  1  0
 36 38  1  0
 36 39  1  0
 39 40  1  0
 39 41  1  0
  2 42  1  0
 42 43  2  0
 43 44  1  0
 43 45  1  0
 45 46  1  0
 45 47  2  0
 47 48  1  0
 48 49  1  0
 48 50  2  0
 50 51  1  0
 19  5  1  0
 39 26  1  0
 50 42  1  0
 16  7  1  0
M  CHG  1  33   1
M  END
>  <UniqueID>  (19) 
609

>  <SMILES>  (19) 
O=c1c2ccccc2nc(/C=C/c2ccncc2)n1CCN1CC[NH2+]CC1

>  <Energy>  (19) 
69.44841695418637

>  <Genealogy>  (19) 
O=c1c2ccccc2nc(/C=C/c2ccncc2)n1CCN1CC[NH2+]CC1 (protonated)
O=c1c2ccccc2nc(/C=C/c2ccncc2)n1CCN1CC[NH2+]CC1 (cis-trans isomerization)
O=c1c2ccccc2nc(/C=C/c2ccncc2)n1CCN1CC[NH2+]CC1 (3D coordinates assigned)
O=c1c2ccccc2nc(/C=C/c2ccncc2)n1CCN1CC[NH2+]CC1 (nonaromatic ring conformer: 69.44841695418637 kcal/mol)

>  <smiles>  (19) 
O=c1c2ccccc2nc(/C=C/c2ccncc2)n1CCN1CCNCC1

>  <score_type>  (19) 
oracle

>  <origin>  (19) 
autodockgpu

>  <m_score__min__energy>  (19) 
-7.2800000000000002

>  <m_primary>  (19) 
energy

>  <meeko>  (19) 
{"free_energy": -7.27, "intermolecular_energy": -9.05, "internal_energy": -1.25, "cluster_size": 16, "cluster_id": 1, "rank_in_cluster": 6}

>  <energy>  (19) 
-6.4

>  <cluster_rmsd>  (19) 
0.2

>  <rmsd>  (19) 
270.62

>  <cluster>  (19) 
2

$$$$
MZUVVVBFQHRAFD-JMWNCHMZNA-O
     RDKit          3D

 51 54  0  0  0  0  0  0  0  0999 V2000
  138.6968   78.1145  223.9737 H   0  0  0  0  0  0  0  0  0  0  0  0
  139.3360   78.2640  223.0910 C   0  0  0  0  0  0  0  0  0  0  0  0
  139.1390   77.4790  222.0240 C   0  0  0  0  0  0  0  0  0  0  0  0
  138.1985   77.5578  221.4590 H   0  0  0  0  0  0  0  0  0  0  0  0
  140.1700   76.5060  221.5940 C   0  0  0  0  0  0  0  0  0  0  0  0
  139.9820   75.2030  221.9380 N   0  0  0  0  0  0  0  0  0  0  0  0
  140.8560   74.2350  221.5830 C   0  0  0  0  0  0  0  0  0  0  0  0
  140.6230   72.9080  221.9650 C   0  0  0  0  0  0  0  0  0  0  0  0
  139.7304   72.6548  222.5558 H   0  0  0  0  0  0  0  0  0  0  0  0
  141.5240   71.9050  221.5960 C   0  0  0  0  0  0  0  0  0  0  0  0
  141.3405   70.8632  221.8976 H   0  0  0  0  0  0  0  0  0  0  0  0
  142.6580   72.2250  220.8440 C   0  0  0  0  0  0  0  0  0  0  0  0
  143.3656   71.4342  220.5543 H   0  0  0  0  0  0  0  0  0  0  0  0
  142.8950   73.5490  220.4590 C   0  0  0  0  0  0  0  0  0  0  0  0
  143.7874   73.7969  219.8655 H   0  0  0  0  0  0  0  0  0  0  0  0
  141.9930   74.5650  220.8300 C   0  0  0  0  0  0  0  0  0  0  0  0
  142.1810   75.9090  220.4640 C   0  0  0  0  0  0  0  0  0  0  0  0
  143.1840   76.2230  219.7640 O   0  0  0  0  0  0  0  0  0  0  0  0
  141.2780   76.8730  220.8550 N   0  0  0  0  0  0  0  0  0  0  0  0
  141.4620   78.2610  220.3690 C   0  0  0  0  0  0  0  0  0  0  0  0
  140.7350   78.9169  220.8702 H   0  0  0  0  0  0  0  0  0  0  0  0
  142.4899   78.5790  220.5978 H   0  0  0  0  0  0  0  0  0  0  0  0
  141.2510   78.3450  218.8530 C   0  0  0  0  0  0  0  0  0  0  0  0
  140.8928   77.3741  218.4801 H   0  0  0  0  0  0  0  0  0  0  0  0
  140.5069   79.1248  218.6333 H   0  0  0  0  0  0  0  0  0  0  0  0
  142.5280   78.6870  218.1850 N   0  0  0  0  0  0  0  0  0  0  0  0
  142.6640   78.1000  216.8370 C   0  0  0  0  0  0  0  0  0  0  0  0
  143.7251   78.1150  216.5476 H   0  0  0  0  0  0  0  0  0  0  0  0
  142.2780   77.0705  216.8720 H   0  0  0  0  0  0  0  0  0  0  0  0
  141.8510   78.8800  215.7890 C   0  0  0  0  0  0  0  0  0  0  0  0
  142.0597   78.4669  214.7911 H   0  0  0  0  0  0  0  0  0  0  0  0
  140.7822   78.7822  216.0301 H   0  0  0  0  0  0  0  0  0  0  0  0
  142.2060   80.3050  215.8030 N   0  0  0  0  0  0  0  0  0  0  0  0
  141.6010   80.8120  215.1160 H   0  0  0  0  0  0  0  0  0  0  0  0
  143.2060   80.4240  215.5120 H   0  0  0  0  0  0  0  0  0  0  0  0
  142.0030   80.8860  217.1360 C   0  0  0  0  0  0  0  0  0  0  0  0
  142.3137   81.9411  217.1214 H   0  0  0  0  0  0  0  0  0  0  0  0
  140.9378   80.8059  217.3987 H   0  0  0  0  0  0  0  0  0  0  0  0
  142.8300   80.1310  218.1880 C   0  0  0  0  0  0  0  0  0  0  0  0
  143.8989   80.2722  217.9699 H   0  0  0  0  0  0  0  0  0  0  0  0
  142.5738   80.5331  219.1793 H   0  0  0  0  0  0  0  0  0  0  0  0
  140.3700   79.3230  223.1440 C   0  0  0  0  0  0  0  0  0  0  0  0
  140.1720   80.6010  222.5880 C   0  0  0  0  0  0  0  0  0  0  0  0
  139.2184   80.8499  222.0995 H   0  0  0  0  0  0  0  0  0  0  0  0
  141.1930   81.5510  222.6600 C   0  0  0  0  0  0  0  0  0  0  0  0
  141.0428   82.5517  222.2286 H   0  0  0  0  0  0  0  0  0  0  0  0
  142.3720   81.2420  223.2620 N   0  0  0  0  0  0  0  0  0  0  0  0
  142.5960   80.0150  223.8020 C   0  0  0  0  0  0  0  0  0  0  0  0
  143.5600   79.7942  224.2836 H   0  0  0  0  0  0  0  0  0  0  0  0
  141.6030   79.0340  223.7460 C   0  0  0  0  0  0  0  0  0  0  0  0
  141.7879   78.0373  224.1731 H   0  0  0  0  0  0  0  0  0  0  0  0
  1  2  1  0
  2  3  2  0
  3  4  1  0
  3  5  1  0
  5  6  2  0
  6  7  1  0
  7  8  2  0
  8  9  1  0
  8 10  1  0
 10 11  1  0
 10 12  2  0
 12 13  1  0
 12 14  1  0
 14 15  1  0
 14 16  2  0
 16 17  1  0
 17 18  2  0
 17 19  1  0
 19 20  1  0
 20 21  1  0
 20 22  1  0
 20 23  1  0
 23 24  1  0
 23 25  1  0
 23 26  1  0
 26 27  1  0
 27 28  1  0
 27 29  1  0
 27 30  1  0
 30 31  1  0
 30 32  1  0
 30 33  1  0
 33 34  1  0
 33 35  1  0
 33 36  1  0
 36 37  1  0
 36 38  1  0
 36 39  1  0
 39 40  1  0
 39 41  1  0
  2 42  1  0
 42 43  2  0
 43 44  1  0
 43 45  1  0
 45 46  1  0
 45 47  2  0
 47 48  1  0
 48 49  1  0
 48 50  2  0
 50 51  1  0
 19  5  1  0
 39 26  1  0
 50 42  1  0
 16  7  1  0
M  CHG  1  33   1
M  END
>  <UniqueID>  (20) 
609

>  <SMILES>  (20) 
O=c1c2ccccc2nc(/C=C/c2ccncc2)n1CCN1CC[NH2+]CC1

>  <Energy>  (20) 
69.44841695418637

>  <Genealogy>  (20) 
O=c1c2ccccc2nc(/C=C/c2ccncc2)n1CCN1CC[NH2+]CC1 (protonated)
O=c1c2ccccc2nc(/C=C/c2ccncc2)n1CCN1CC[NH2+]CC1 (cis-trans isomerization)
O=c1c2ccccc2nc(/C=C/c2ccncc2)n1CCN1CC[NH2+]CC1 (3D coordinates assigned)
O=c1c2ccccc2nc(/C=C/c2ccncc2)n1CCN1CC[NH2+]CC1 (nonaromatic ring conformer: 69.44841695418637 kcal/mol)

>  <smiles>  (20) 
O=c1c2ccccc2nc(/C=C/c2ccncc2)n1CCN1CCNCC1

>  <score_type>  (20) 
oracle

>  <origin>  (20) 
autodockgpu

>  <m_score__min__energy>  (20) 
-7.2800000000000002

>  <m_primary>  (20) 
energy

>  <meeko>  (20) 
{"free_energy": -7.25, "intermolecular_energy": -9.04, "internal_energy": -1.25, "cluster_size": 16, "cluster_id": 1, "rank_in_cluster": 11}

>  <energy>  (20) 
-6.38

>  <cluster_rmsd>  (20) 
0.0

>  <rmsd>  (20) 
271.24

>  <cluster>  (20) 
3

$$$$
MZUVVVBFQHRAFD-AATRIKPKNA-N
     RDKit          3D

 50 53  0  0  0  0  0  0  0  0999 V2000
  141.5543   72.0724  221.3027 H   0  0  0  0  0  0  0  0  0  0  0  0
  140.5620   72.3590  221.6810 C   0  0  0  0  0  0  0  0  0  0  0  0
  139.7310   71.3850  222.0840 C   0  0  0  0  0  0  0  0  0  0  0  0
  138.9410   71.0425  221.3995 H   0  0  0  0  0  0  0  0  0  0  0  0
  139.8440   70.7520  223.4300 C   0  0  0  0  0  0  0  0  0  0  0  0
  140.3280   71.5100  224.4520 N   0  0  0  0  0  0  0  0  0  0  0  0
  140.4450   71.0360  225.7110 C   0  0  0  0  0  0  0  0  0  0  0  0
  140.9460   71.8600  226.7260 C   0  0  0  0  0  0  0  0  0  0  0  0
  141.2509   72.8916  226.4961 H   0  0  0  0  0  0  0  0  0  0  0  0
  141.0590   71.3730  228.0310 C   0  0  0  0  0  0  0  0  0  0  0  0
  141.4520   72.0219  228.8276 H   0  0  0  0  0  0  0  0  0  0  0  0
  140.6730   70.0620  228.3250 C   0  0  0  0  0  0  0  0  0  0  0  0
  140.7636   69.6803  229.3527 H   0  0  0  0  0  0  0  0  0  0  0  0
  140.1720   69.2350  227.3150 C   0  0  0  0  0  0  0  0  0  0  0  0
  139.8685   68.2042  227.5502 H   0  0  0  0  0  0  0  0  0  0  0  0
  140.0550   69.7180  225.9980 C   0  0  0  0  0  0  0  0  0  0  0  0
  139.5590   68.9300  224.9470 C   0  0  0  0  0  0  0  0  0  0  0  0
  139.1950   67.7440  225.1870 O   0  0  0  0  0  0  0  0  0  0  0  0
  139.4630   69.4430  223.6710 N   0  0  0  0  0  0  0  0  0  0  0  0
  138.9290   68.5830  222.5910 C   0  0  0  0  0  0  0  0  0  0  0  0
  139.0988   69.0784  221.6237 H   0  0  0  0  0  0  0  0  0  0  0  0
  139.4493   67.6148  222.6340 H   0  0  0  0  0  0  0  0  0  0  0  0
  137.4250   68.3270  222.7620 C   0  0  0  0  0  0  0  0  0  0  0  0
  137.0615   67.7225  221.9179 H   0  0  0  0  0  0  0  0  0  0  0  0
  137.2585   67.7915  223.7083 H   0  0  0  0  0  0  0  0  0  0  0  0
  136.6850   69.6120  222.7980 N   0  0  0  0  0  0  0  0  0  0  0  0
  135.3560   69.5340  222.1430 C   0  0  0  0  0  0  0  0  0  0  0  0
  135.1277   70.5128  221.6960 H   0  0  0  0  0  0  0  0  0  0  0  0
  135.4092   68.7384  221.3853 H   0  0  0  0  0  0  0  0  0  0  0  0
  134.2220   69.1640  223.1210 C   0  0  0  0  0  0  0  0  0  0  0  0
  133.7229   70.0834  223.4610 H   0  0  0  0  0  0  0  0  0  0  0  0
  133.5038   68.5120  222.6023 H   0  0  0  0  0  0  0  0  0  0  0  0
  134.7580   68.4490  224.2820 N   0  0  0  0  0  0  0  0  0  0  0  0
  133.9560   68.1710  224.8940 H   0  0  0  0  0  0  0  0  0  0  0  0
  135.6510   69.3180  225.0630 C   0  0  0  0  0  0  0  0  0  0  0  0
  135.0383   69.9941  225.6774 H   0  0  0  0  0  0  0  0  0  0  0  0
  136.2867   68.6731  225.6875 H   0  0  0  0  0  0  0  0  0  0  0  0
  136.5780   70.1670  224.1630 C   0  0  0  0  0  0  0  0  0  0  0  0
  136.1740   71.1882  224.1004 H   0  0  0  0  0  0  0  0  0  0  0  0
  137.5827   70.1630  224.6108 H   0  0  0  0  0  0  0  0  0  0  0  0
  140.2150   73.8020  221.7180 C   0  0  0  0  0  0  0  0  0  0  0  0
  141.1780   74.8180  221.5640 C   0  0  0  0  0  0  0  0  0  0  0  0
  142.2344   74.5595  221.3992 H   0  0  0  0  0  0  0  0  0  0  0  0
  140.7820   76.1570  221.6220 C   0  0  0  0  0  0  0  0  0  0  0  0
  141.5285   76.9547  221.4938 H   0  0  0  0  0  0  0  0  0  0  0  0
  139.4790   76.4780  221.8360 N   0  0  0  0  0  0  0  0  0  0  0  0
  138.5300   75.5200  222.0020 C   0  0  0  0  0  0  0  0  0  0  0  0
  137.4830   75.8090  222.1761 H   0  0  0  0  0  0  0  0  0  0  0  0
  138.8810   74.1690  221.9520 C   0  0  0  0  0  0  0  0  0  0  0  0
  138.1133   73.3944  222.0957 H   0  0  0  0  0  0  0  0  0  0  0  0
  1  2  1  0
  2  3  2  0
  3  4  1  0
  3  5  1  0
  5  6  2  0
  6  7  1  0
  7  8  2  0
  8  9  1  0
  8 10  1  0
 10 11  1  0
 10 12  2  0
 12 13  1  0
 12 14  1  0
 14 15  1  0
 14 16  2  0
 16 17  1  0
 17 18  2  0
 17 19  1  0
 19 20  1  0
 20 21  1  0
 20 22  1  0
 20 23  1  0
 23 24  1  0
 23 25  1  0
 23 26  1  0
 26 27  1  0
 27 28  1  0
 27 29  1  0
 27 30  1  0
 30 31  1  0
 30 32  1  0
 30 33  1  0
 33 34  1  0
 33 35  1  0
 35 36  1  0
 35 37  1  0
 35 38  1  0
 38 39  1  0
 38 40  1  0
  2 41  1  0
 41 42  2  0
 42 43  1  0
 42 44  1  0
 44 45  1  0
 44 46  2  0
 46 47  1  0
 47 48  1  0
 47 49  2  0
 49 50  1  0
 19  5  1  0
 38 26  1  0
 49 41  1  0
 16  7  1  0
M  END
>  <UniqueID>  (21) 
610

>  <SMILES>  (21) 
O=c1c2ccccc2nc(/C=C/c2ccncc2)n1CCN1CCNCC1

>  <Energy>  (21) 
70.11114427246851

>  <Genealogy>  (21) 
O=c1c2ccccc2nc(/C=C/c2ccncc2)n1CCN1CCNCC1 (cis-trans isomerization)
O=c1c2ccccc2nc(/C=C/c2ccncc2)n1CCN1CCNCC1 (3D coordinates assigned)
O=c1c2ccccc2nc(/C=C/c2ccncc2)n1CCN1CCNCC1 (nonaromatic ring conformer: 70.11114427246851 kcal/mol)

>  <smiles>  (21) 
O=c1c2ccccc2nc(/C=C/c2ccncc2)n1CCN1CCNCC1

>  <score_type>  (21) 
oracle

>  <origin>  (21) 
autodockgpu

>  <m_score__min__energy>  (21) 
-7.1699999999999999

>  <m_primary>  (21) 
energy

>  <meeko>  (21) 
{"free_energy": -7.16, "intermolecular_energy": -8.95, "internal_energy": -1.46, "cluster_size": 18, "cluster_id": 1, "rank_in_cluster": 2}

>  <energy>  (21) 
-7.17

>  <cluster_rmsd>  (21) 
0.0

>  <rmsd>  (21) 
271.23

>  <cluster>  (21) 
1

$$$$
MZUVVVBFQHRAFD-AATRIKPKNA-N
     RDKit          3D

 50 53  0  0  0  0  0  0  0  0999 V2000
  141.5569   72.1703  221.4345 H   0  0  0  0  0  0  0  0  0  0  0  0
  140.5480   72.4580  221.7650 C   0  0  0  0  0  0  0  0  0  0  0  0
  139.7040   71.4850  222.1450 C   0  0  0  0  0  0  0  0  0  0  0  0
  138.9003   71.1797  221.4588 H   0  0  0  0  0  0  0  0  0  0  0  0
  139.8210   70.8050  223.4670 C   0  0  0  0  0  0  0  0  0  0  0  0
  140.3060   71.5260  224.5140 N   0  0  0  0  0  0  0  0  0  0  0  0
  140.4270   71.0080  225.7560 C   0  0  0  0  0  0  0  0  0  0  0  0
  140.9300   71.7950  226.7980 C   0  0  0  0  0  0  0  0  0  0  0  0
  141.2336   72.8344  226.6043 H   0  0  0  0  0  0  0  0  0  0  0  0
  141.0470   71.2620  228.0840 C   0  0  0  0  0  0  0  0  0  0  0  0
  141.4416   71.8824  228.9022 H   0  0  0  0  0  0  0  0  0  0  0  0
  140.6630   69.9410  228.3320 C   0  0  0  0  0  0  0  0  0  0  0  0
  140.7564   69.5233  229.3453 H   0  0  0  0  0  0  0  0  0  0  0  0
  140.1600   69.1490  227.2940 C   0  0  0  0  0  0  0  0  0  0  0  0
  139.8579   68.1102  227.4928 H   0  0  0  0  0  0  0  0  0  0  0  0
  140.0400   69.6800  225.9950 C   0  0  0  0  0  0  0  0  0  0  0  0
  139.5420   68.9290  224.9180 C   0  0  0  0  0  0  0  0  0  0  0  0
  139.1810   67.7350  225.1160 O   0  0  0  0  0  0  0  0  0  0  0  0
  139.4420   69.4870  223.6620 N   0  0  0  0  0  0  0  0  0  0  0  0
  138.9070   68.6660  222.5530 C   0  0  0  0  0  0  0  0  0  0  0  0
  139.0292   69.2179  221.6093 H   0  0  0  0  0  0  0  0  0  0  0  0
  139.4630   67.7172  222.5286 H   0  0  0  0  0  0  0  0  0  0  0  0
  137.4190   68.3450  222.7530 C   0  0  0  0  0  0  0  0  0  0  0  0
  137.0764   67.6895  221.9388 H   0  0  0  0  0  0  0  0  0  0  0  0
  137.2884   67.8413  223.7221 H   0  0  0  0  0  0  0  0  0  0  0  0
  136.6180   69.5940  222.7460 N   0  0  0  0  0  0  0  0  0  0  0  0
  135.2950   69.4290  222.0950 C   0  0  0  0  0  0  0  0  0  0  0  0
  135.0198   70.3796  221.6148 H   0  0  0  0  0  0  0  0  0  0  0  0
  135.3876   68.6113  221.3651 H   0  0  0  0  0  0  0  0  0  0  0  0
  134.1790   69.0380  223.0860 C   0  0  0  0  0  0  0  0  0  0  0  0
  133.6355   69.9431  223.3949 H   0  0  0  0  0  0  0  0  0  0  0  0
  133.4932   68.3349  222.5907 H   0  0  0  0  0  0  0  0  0  0  0  0
  134.7490   68.3900  224.2700 N   0  0  0  0  0  0  0  0  0  0  0  0
  133.9610   68.0950  224.8920 H   0  0  0  0  0  0  0  0  0  0  0  0
  135.5980   69.3270  225.0210 C   0  0  0  0  0  0  0  0  0  0  0  0
  134.9528   69.9929  225.6129 H   0  0  0  0  0  0  0  0  0  0  0  0
  136.2636   68.7355  225.6669 H   0  0  0  0  0  0  0  0  0  0  0  0
  136.4830   70.1890  224.0910 C   0  0  0  0  0  0  0  0  0  0  0  0
  136.0296   71.1865  223.9939 H   0  0  0  0  0  0  0  0  0  0  0  0
  137.4865   70.2491  224.5376 H   0  0  0  0  0  0  0  0  0  0  0  0
  140.1960   73.8990  221.7660 C   0  0  0  0  0  0  0  0  0  0  0  0
  141.1560   74.9160  221.5960 C   0  0  0  0  0  0  0  0  0  0  0  0
  142.2147   74.6585  221.4446 H   0  0  0  0  0  0  0  0  0  0  0  0
  140.7540   76.2540  221.6210 C   0  0  0  0  0  0  0  0  0  0  0  0
  141.4982   77.0519  221.4814 H   0  0  0  0  0  0  0  0  0  0  0  0
  139.4480   76.5740  221.8170 N   0  0  0  0  0  0  0  0  0  0  0  0
  138.5020   75.6170  221.9980 C   0  0  0  0  0  0  0  0  0  0  0  0
  137.4527   75.9060  222.1576 H   0  0  0  0  0  0  0  0  0  0  0  0
  138.8580   74.2660  221.9820 C   0  0  0  0  0  0  0  0  0  0  0  0
  138.0922   73.4920  222.1382 H   0  0  0  0  0  0  0  0  0  0  0  0
  1  2  1  0
  2  3  2  0
  3  4  1  0
  3  5  1  0
  5  6  2  0
  6  7  1  0
  7  8  2  0
  8  9  1  0
  8 10  1  0
 10 11  1  0
 10 12  2  0
 12 13  1  0
 12 14  1  0
 14 15  1  0
 14 16  2  0
 16 17  1  0
 17 18  2  0
 17 19  1  0
 19 20  1  0
 20 21  1  0
 20 22  1  0
 20 23  1  0
 23 24  1  0
 23 25  1  0
 23 26  1  0
 26 27  1  0
 27 28  1  0
 27 29  1  0
 27 30  1  0
 30 31  1  0
 30 32  1  0
 30 33  1  0
 33 34  1  0
 33 35  1  0
 35 36  1  0
 35 37  1  0
 35 38  1  0
 38 39  1  0
 38 40  1  0
  2 41  1  0
 41 42  2  0
 42 43  1  0
 42 44  1  0
 44 45  1  0
 44 46  2  0
 46 47  1  0
 47 48  1  0
 47 49  2  0
 49 50  1  0
 19  5  1  0
 38 26  1  0
 49 41  1  0
 16  7  1  0
M  END
>  <UniqueID>  (22) 
610

>  <SMILES>  (22) 
O=c1c2ccccc2nc(/C=C/c2ccncc2)n1CCN1CCNCC1

>  <Energy>  (22) 
70.11114427246851

>  <Genealogy>  (22) 
O=c1c2ccccc2nc(/C=C/c2ccncc2)n1CCN1CCNCC1 (cis-trans isomerization)
O=c1c2ccccc2nc(/C=C/c2ccncc2)n1CCN1CCNCC1 (3D coordinates assigned)
O=c1c2ccccc2nc(/C=C/c2ccncc2)n1CCN1CCNCC1 (nonaromatic ring conformer: 70.11114427246851 kcal/mol)

>  <smiles>  (22) 
O=c1c2ccccc2nc(/C=C/c2ccncc2)n1CCN1CCNCC1

>  <score_type>  (22) 
oracle

>  <origin>  (22) 
autodockgpu

>  <m_score__min__energy>  (22) 
-7.1699999999999999

>  <m_primary>  (22) 
energy

>  <meeko>  (22) 
{"free_energy": -7.17, "intermolecular_energy": -8.96, "internal_energy": -1.43, "cluster_size": 18, "cluster_id": 1, "rank_in_cluster": 1}

>  <energy>  (22) 
-7.16

>  <cluster_rmsd>  (22) 
0.09

>  <rmsd>  (22) 
271.24

>  <cluster>  (22) 
1

$$$$
MZUVVVBFQHRAFD-AATRIKPKNA-N
     RDKit          3D

 50 53  0  0  0  0  0  0  0  0999 V2000
  139.4052   73.6662  222.2347 H   0  0  0  0  0  0  0  0  0  0  0  0
  140.0310   72.7990  221.9770 C   0  0  0  0  0  0  0  0  0  0  0  0
  139.5360   71.5710  222.2000 C   0  0  0  0  0  0  0  0  0  0  0  0
  138.9898   71.0630  221.3915 H   0  0  0  0  0  0  0  0  0  0  0  0
  139.7020   70.8730  223.5070 C   0  0  0  0  0  0  0  0  0  0  0  0
  140.1830   71.5930  224.5570 N   0  0  0  0  0  0  0  0  0  0  0  0
  140.3460   71.0580  225.7870 C   0  0  0  0  0  0  0  0  0  0  0  0
  140.8420   71.8450  226.8330 C   0  0  0  0  0  0  0  0  0  0  0  0
  141.1053   72.8976  226.6518 H   0  0  0  0  0  0  0  0  0  0  0  0
  141.0030   71.2940  228.1080 C   0  0  0  0  0  0  0  0  0  0  0  0
  141.3927   71.9132  228.9294 H   0  0  0  0  0  0  0  0  0  0  0  0
  140.6690   69.9570  228.3390 C   0  0  0  0  0  0  0  0  0  0  0  0
  140.7966   69.5254  229.3427 H   0  0  0  0  0  0  0  0  0  0  0  0
  140.1730   69.1660  227.2980 C   0  0  0  0  0  0  0  0  0  0  0  0
  139.9098   68.1144  227.4846 H   0  0  0  0  0  0  0  0  0  0  0  0
  140.0100   69.7140  226.0110 C   0  0  0  0  0  0  0  0  0  0  0  0
  139.5170   68.9640  224.9300 C   0  0  0  0  0  0  0  0  0  0  0  0
  139.2000   67.7550  225.1140 O   0  0  0  0  0  0  0  0  0  0  0  0
  139.3730   69.5400  223.6860 N   0  0  0  0  0  0  0  0  0  0  0  0
  138.8440   68.7190  222.5740 C   0  0  0  0  0  0  0  0  0  0  0  0
  138.9493   69.2812  221.6344 H   0  0  0  0  0  0  0  0  0  0  0  0
  139.4166   67.7805  222.5381 H   0  0  0  0  0  0  0  0  0  0  0  0
  137.3640   68.3690  222.7810 C   0  0  0  0  0  0  0  0  0  0  0  0
  137.0299   67.7087  221.9671 H   0  0  0  0  0  0  0  0  0  0  0  0
  137.2484   67.8608  223.7497 H   0  0  0  0  0  0  0  0  0  0  0  0
  136.5390   69.6020  222.7810 N   0  0  0  0  0  0  0  0  0  0  0  0
  135.2190   69.4150  222.1290 C   0  0  0  0  0  0  0  0  0  0  0  0
  134.9254   70.3627  221.6540 H   0  0  0  0  0  0  0  0  0  0  0  0
  135.3273   68.6034  221.3945 H   0  0  0  0  0  0  0  0  0  0  0  0
  134.1110   68.9970  223.1180 C   0  0  0  0  0  0  0  0  0  0  0  0
  133.5495   69.8896  223.4310 H   0  0  0  0  0  0  0  0  0  0  0  0
  133.4398   68.2824  222.6191 H   0  0  0  0  0  0  0  0  0  0  0  0
  134.6930   68.3550  224.2990 N   0  0  0  0  0  0  0  0  0  0  0  0
  133.9110   68.0410  224.9190 H   0  0  0  0  0  0  0  0  0  0  0  0
  135.5240   69.3040  225.0540 C   0  0  0  0  0  0  0  0  0  0  0  0
  134.8663   69.9544  225.6492 H   0  0  0  0  0  0  0  0  0  0  0  0
  136.2010   68.7216  225.6963 H   0  0  0  0  0  0  0  0  0  0  0  0
  136.3930   70.1880  224.1290 C   0  0  0  0  0  0  0  0  0  0  0  0
  135.9208   71.1772  224.0370 H   0  0  0  0  0  0  0  0  0  0  0  0
  137.3950   70.2655  224.5762 H   0  0  0  0  0  0  0  0  0  0  0  0
  141.3760   73.0510  221.4020 C   0  0  0  0  0  0  0  0  0  0  0  0
  141.8000   74.3310  220.9950 C   0  0  0  0  0  0  0  0  0  0  0  0
  141.1307   75.1969  221.1056 H   0  0  0  0  0  0  0  0  0  0  0  0
  143.0760   74.4940  220.4500 C   0  0  0  0  0  0  0  0  0  0  0  0
  143.4157   75.4931  220.1395 H   0  0  0  0  0  0  0  0  0  0  0  0
  143.8990   73.4230  220.3020 N   0  0  0  0  0  0  0  0  0  0  0  0
  143.5140   72.1740  220.6720 C   0  0  0  0  0  0  0  0  0  0  0  0
  144.2013   71.3255  220.5386 H   0  0  0  0  0  0  0  0  0  0  0  0
  142.2460   71.9650  221.2220 C   0  0  0  0  0  0  0  0  0  0  0  0
  141.9311   70.9520  221.5129 H   0  0  0  0  0  0  0  0  0  0  0  0
  1  2  1  0
  2  3  2  0
  3  4  1  0
  3  5  1  0
  5  6  2  0
  6  7  1  0
  7  8  2  0
  8  9  1  0
  8 10  1  0
 10 11  1  0
 10 12  2  0
 12 13  1  0
 12 14  1  0
 14 15  1  0
 14 16  2  0
 16 17  1  0
 17 18  2  0
 17 19  1  0
 19 20  1  0
 20 21  1  0
 20 22  1  0
 20 23  1  0
 23 24  1  0
 23 25  1  0
 23 26  1  0
 26 27  1  0
 27 28  1  0
 27 29  1  0
 27 30  1  0
 30 31  1  0
 30 32  1  0
 30 33  1  0
 33 34  1  0
 33 35  1  0
 35 36  1  0
 35 37  1  0
 35 38  1  0
 38 39  1  0
 38 40  1  0
  2 41  1  0
 41 42  2  0
 42 43  1  0
 42 44  1  0
 44 45  1  0
 44 46  2  0
 46 47  1  0
 47 48  1  0
 47 49  2  0
 49 50  1  0
 19  5  1  0
 38 26  1  0
 49 41  1  0
 16  7  1  0
M  END
>  <UniqueID>  (23) 
610

>  <SMILES>  (23) 
O=c1c2ccccc2nc(/C=C/c2ccncc2)n1CCN1CCNCC1

>  <Energy>  (23) 
70.11114427246851

>  <Genealogy>  (23) 
O=c1c2ccccc2nc(/C=C/c2ccncc2)n1CCN1CCNCC1 (cis-trans isomerization)
O=c1c2ccccc2nc(/C=C/c2ccncc2)n1CCN1CCNCC1 (3D coordinates assigned)
O=c1c2ccccc2nc(/C=C/c2ccncc2)n1CCN1CCNCC1 (nonaromatic ring conformer: 70.11114427246851 kcal/mol)

>  <smiles>  (23) 
O=c1c2ccccc2nc(/C=C/c2ccncc2)n1CCN1CCNCC1

>  <score_type>  (23) 
oracle

>  <origin>  (23) 
autodockgpu

>  <m_score__min__energy>  (23) 
-7.1699999999999999

>  <m_primary>  (23) 
energy

>  <meeko>  (23) 
{"free_energy": -7.15, "intermolecular_energy": -8.94, "internal_energy": -1.43, "cluster_size": 18, "cluster_id": 1, "rank_in_cluster": 5}

>  <energy>  (23) 
-7.15

>  <cluster_rmsd>  (23) 
0.11

>  <rmsd>  (23) 
271.22

>  <cluster>  (23) 
1

$$$$
MZUVVVBFQHRAFD-AATRIKPKNA-N
     RDKit          3D

 50 53  0  0  0  0  0  0  0  0999 V2000
  141.5400   71.6037  221.1772 H   0  0  0  0  0  0  0  0  0  0  0  0
  140.6750   72.1480  221.5840 C   0  0  0  0  0  0  0  0  0  0  0  0
  139.6760   71.4350  222.1280 C   0  0  0  0  0  0  0  0  0  0  0  0
  138.7326   71.3313  221.5720 H   0  0  0  0  0  0  0  0  0  0  0  0
  139.8030   70.7790  223.4610 C   0  0  0  0  0  0  0  0  0  0  0  0
  140.2820   71.5240  224.4950 N   0  0  0  0  0  0  0  0  0  0  0  0
  140.4110   71.0290  225.7450 C   0  0  0  0  0  0  0  0  0  0  0  0
  140.9070   71.8410  226.7720 C   0  0  0  0  0  0  0  0  0  0  0  0
  141.1977   72.8803  226.5592 H   0  0  0  0  0  0  0  0  0  0  0  0
  141.0330   71.3320  228.0670 C   0  0  0  0  0  0  0  0  0  0  0  0
  141.4230   71.9709  228.8731 H   0  0  0  0  0  0  0  0  0  0  0  0
  140.6640   70.0120  228.3390 C   0  0  0  0  0  0  0  0  0  0  0  0
  140.7631   69.6138  229.3596 H   0  0  0  0  0  0  0  0  0  0  0  0
  140.1690   69.1960  227.3170 C   0  0  0  0  0  0  0  0  0  0  0  0
  139.8799   68.1573  227.5350 H   0  0  0  0  0  0  0  0  0  0  0  0
  140.0400   69.7020  226.0090 C   0  0  0  0  0  0  0  0  0  0  0  0
  139.5490   68.9260  224.9460 C   0  0  0  0  0  0  0  0  0  0  0  0
  139.2010   67.7320  225.1660 O   0  0  0  0  0  0  0  0  0  0  0  0
  139.4400   69.4610  223.6800 N   0  0  0  0  0  0  0  0  0  0  0  0
  138.9120   68.6140  222.5880 C   0  0  0  0  0  0  0  0  0  0  0  0
  139.0266   69.1496  221.6341 H   0  0  0  0  0  0  0  0  0  0  0  0
  139.4782   67.6710  222.5808 H   0  0  0  0  0  0  0  0  0  0  0  0
  137.4280   68.2800  222.7960 C   0  0  0  0  0  0  0  0  0  0  0  0
  137.0979   67.5877  222.0075 H   0  0  0  0  0  0  0  0  0  0  0  0
  137.3014   67.8137  223.7842 H   0  0  0  0  0  0  0  0  0  0  0  0
  136.6090   69.5150  222.7370 N   0  0  0  0  0  0  0  0  0  0  0  0
  135.2960   69.3080  222.0790 C   0  0  0  0  0  0  0  0  0  0  0  0
  135.0122   70.2372  221.5632 H   0  0  0  0  0  0  0  0  0  0  0  0
  135.4082   68.4670  221.3789 H   0  0  0  0  0  0  0  0  0  0  0  0
  134.1750   68.9350  223.0720 C   0  0  0  0  0  0  0  0  0  0  0  0
  133.6147   69.8420  223.3431 H   0  0  0  0  0  0  0  0  0  0  0  0
  133.5052   68.2044  222.5949 H   0  0  0  0  0  0  0  0  0  0  0  0
  134.7420   68.3380  224.2840 N   0  0  0  0  0  0  0  0  0  0  0  0
  133.9520   68.0530  224.9080 H   0  0  0  0  0  0  0  0  0  0  0  0
  135.5700   69.3140  225.0100 C   0  0  0  0  0  0  0  0  0  0  0  0
  134.9092   69.9909  225.5713 H   0  0  0  0  0  0  0  0  0  0  0  0
  136.2371   68.7557  225.6832 H   0  0  0  0  0  0  0  0  0  0  0  0
  136.4520   70.1550  224.0590 C   0  0  0  0  0  0  0  0  0  0  0  0
  135.9857   71.1419  223.9224 H   0  0  0  0  0  0  0  0  0  0  0  0
  137.4499   70.2451  224.5129 H   0  0  0  0  0  0  0  0  0  0  0  0
  140.6770   73.6300  221.5010 C   0  0  0  0  0  0  0  0  0  0  0  0
  139.6070   74.4180  221.9670 C   0  0  0  0  0  0  0  0  0  0  0  0
  138.7265   73.9420  222.4233 H   0  0  0  0  0  0  0  0  0  0  0  0
  139.6710   75.8080  221.8460 C   0  0  0  0  0  0  0  0  0  0  0  0
  138.8417   76.4286  222.2163 H   0  0  0  0  0  0  0  0  0  0  0  0
  140.7530   76.3970  221.2730 N   0  0  0  0  0  0  0  0  0  0  0  0
  141.7950   75.6630  220.8020 C   0  0  0  0  0  0  0  0  0  0  0  0
  142.6577   76.1670  220.3418 H   0  0  0  0  0  0  0  0  0  0  0  0
  141.7730   74.2690  220.9010 C   0  0  0  0  0  0  0  0  0  0  0  0
  142.6120   73.6747  220.5099 H   0  0  0  0  0  0  0  0  0  0  0  0
  1  2  1  0
  2  3  2  0
  3  4  1  0
  3  5  1  0
  5  6  2  0
  6  7  1  0
  7  8  2  0
  8  9  1  0
  8 10  1  0
 10 11  1  0
 10 12  2  0
 12 13  1  0
 12 14  1  0
 14 15  1  0
 14 16  2  0
 16 17  1  0
 17 18  2  0
 17 19  1  0
 19 20  1  0
 20 21  1  0
 20 22  1  0
 20 23  1  0
 23 24  1  0
 23 25  1  0
 23 26  1  0
 26 27  1  0
 27 28  1  0
 27 29  1  0
 27 30  1  0
 30 31  1  0
 30 32  1  0
 30 33  1  0
 33 34  1  0
 33 35  1  0
 35 36  1  0
 35 37  1  0
 35 38  1  0
 38 39  1  0
 38 40  1  0
  2 41  1  0
 41 42  2  0
 42 43  1  0
 42 44  1  0
 44 45  1  0
 44 46  2  0
 46 47  1  0
 47 48  1  0
 47 49  2  0
 49 50  1  0
 19  5  1  0
 38 26  1  0
 49 41  1  0
 16  7  1  0
M  END
>  <UniqueID>  (24) 
610

>  <SMILES>  (24) 
O=c1c2ccccc2nc(/C=C/c2ccncc2)n1CCN1CCNCC1

>  <Energy>  (24) 
70.11114427246851

>  <Genealogy>  (24) 
O=c1c2ccccc2nc(/C=C/c2ccncc2)n1CCN1CCNCC1 (cis-trans isomerization)
O=c1c2ccccc2nc(/C=C/c2ccncc2)n1CCN1CCNCC1 (3D coordinates assigned)
O=c1c2ccccc2nc(/C=C/c2ccncc2)n1CCN1CCNCC1 (nonaromatic ring conformer: 70.11114427246851 kcal/mol)

>  <smiles>  (24) 
O=c1c2ccccc2nc(/C=C/c2ccncc2)n1CCN1CCNCC1

>  <score_type>  (24) 
oracle

>  <origin>  (24) 
autodockgpu

>  <m_score__min__energy>  (24) 
-7.1699999999999999

>  <m_primary>  (24) 
energy

>  <meeko>  (24) 
{"free_energy": -7.14, "intermolecular_energy": -8.93, "internal_energy": -1.38, "cluster_size": 18, "cluster_id": 1, "rank_in_cluster": 6}

>  <energy>  (24) 
-7.15

>  <cluster_rmsd>  (24) 
1.53

>  <rmsd>  (24) 
271.3

>  <cluster>  (24) 
1

$$$$
MZUVVVBFQHRAFD-AATRIKPKNA-N
     RDKit          3D

 50 53  0  0  0  0  0  0  0  0999 V2000
  139.4449   73.6013  222.0893 H   0  0  0  0  0  0  0  0  0  0  0  0
  138.9320   72.6310  222.0160 C   0  0  0  0  0  0  0  0  0  0  0  0
  139.6630   71.5140  222.1640 C   0  0  0  0  0  0  0  0  0  0  0  0
  140.1799   71.0965  221.2873 H   0  0  0  0  0  0  0  0  0  0  0  0
  139.7970   70.8210  223.4780 C   0  0  0  0  0  0  0  0  0  0  0  0
  140.2950   71.5340  224.5250 N   0  0  0  0  0  0  0  0  0  0  0  0
  140.4320   71.0040  225.7600 C   0  0  0  0  0  0  0  0  0  0  0  0
  140.9470   71.7830  226.8030 C   0  0  0  0  0  0  0  0  0  0  0  0
  141.2464   72.8246  226.6150 H   0  0  0  0  0  0  0  0  0  0  0  0
  141.0810   71.2380  228.0830 C   0  0  0  0  0  0  0  0  0  0  0  0
  141.4842   71.8515  228.9021 H   0  0  0  0  0  0  0  0  0  0  0  0
  140.7030   69.9140  228.3230 C   0  0  0  0  0  0  0  0  0  0  0  0
  140.8109   69.4868  229.3309 H   0  0  0  0  0  0  0  0  0  0  0  0
  140.1880   69.1310  227.2850 C   0  0  0  0  0  0  0  0  0  0  0  0
  139.8897   68.0900  227.4780 H   0  0  0  0  0  0  0  0  0  0  0  0
  140.0510   69.6740  225.9930 C   0  0  0  0  0  0  0  0  0  0  0  0
  139.5400   68.9320  224.9150 C   0  0  0  0  0  0  0  0  0  0  0  0
  139.1830   67.7350  225.1060 O   0  0  0  0  0  0  0  0  0  0  0  0
  139.4240   69.5020  223.6650 N   0  0  0  0  0  0  0  0  0  0  0  0
  138.8750   68.6900  222.5560 C   0  0  0  0  0  0  0  0  0  0  0  0
  138.9566   69.2629  221.6205 H   0  0  0  0  0  0  0  0  0  0  0  0
  139.4518   67.7551  222.4977 H   0  0  0  0  0  0  0  0  0  0  0  0
  137.4020   68.3290  222.7910 C   0  0  0  0  0  0  0  0  0  0  0  0
  137.0622   67.6526  221.9929 H   0  0  0  0  0  0  0  0  0  0  0  0
  137.3059   67.8352  223.7692 H   0  0  0  0  0  0  0  0  0  0  0  0
  136.5650   69.5540  222.7840 N   0  0  0  0  0  0  0  0  0  0  0  0
  135.2490   69.3520  222.1300 C   0  0  0  0  0  0  0  0  0  0  0  0
  134.9479   70.2949  221.6502 H   0  0  0  0  0  0  0  0  0  0  0  0
  135.3667   68.5380  221.3995 H   0  0  0  0  0  0  0  0  0  0  0  0
  134.1420   68.9280  223.1180 C   0  0  0  0  0  0  0  0  0  0  0  0
  133.5717   69.8167  223.4261 H   0  0  0  0  0  0  0  0  0  0  0  0
  133.4780   68.2057  222.6206 H   0  0  0  0  0  0  0  0  0  0  0  0
  134.7280   68.2960  224.3030 N   0  0  0  0  0  0  0  0  0  0  0  0
  133.9470   67.9770  224.9230 H   0  0  0  0  0  0  0  0  0  0  0  0
  135.5480   69.2560  225.0560 C   0  0  0  0  0  0  0  0  0  0  0  0
  134.8826   69.9025  225.6471 H   0  0  0  0  0  0  0  0  0  0  0  0
  136.2291   68.6828  225.7022 H   0  0  0  0  0  0  0  0  0  0  0  0
  136.4100   70.1440  224.1300 C   0  0  0  0  0  0  0  0  0  0  0  0
  135.9285   71.1283  224.0330 H   0  0  0  0  0  0  0  0  0  0  0  0
  137.4102   70.2327  224.5792 H   0  0  0  0  0  0  0  0  0  0  0  0
  137.4700   72.6280  221.7590 C   0  0  0  0  0  0  0  0  0  0  0  0
  136.9100   72.1520  220.5580 C   0  0  0  0  0  0  0  0  0  0  0  0
  137.5592   71.7518  219.7653 H   0  0  0  0  0  0  0  0  0  0  0  0
  135.5250   72.1910  220.3790 C   0  0  0  0  0  0  0  0  0  0  0  0
  135.0822   71.8123  219.4460 H   0  0  0  0  0  0  0  0  0  0  0  0
  134.7230   72.6950  221.3530 N   0  0  0  0  0  0  0  0  0  0  0  0
  135.2340   73.1750  222.5170 C   0  0  0  0  0  0  0  0  0  0  0  0
  134.5603   73.5794  223.2868 H   0  0  0  0  0  0  0  0  0  0  0  0
  136.6130   73.1560  222.7380 C   0  0  0  0  0  0  0  0  0  0  0  0
  137.0266   73.5536  223.6765 H   0  0  0  0  0  0  0  0  0  0  0  0
  1  2  1  0
  2  3  2  0
  3  4  1  0
  3  5  1  0
  5  6  2  0
  6  7  1  0
  7  8  2  0
  8  9  1  0
  8 10  1  0
 10 11  1  0
 10 12  2  0
 12 13  1  0
 12 14  1  0
 14 15  1  0
 14 16  2  0
 16 17  1  0
 17 18  2  0
 17 19  1  0
 19 20  1  0
 20 21  1  0
 20 22  1  0
 20 23  1  0
 23 24  1  0
 23 25  1  0
 23 26  1  0
 26 27  1  0
 27 28  1  0
 27 29  1  0
 27 30  1  0
 30 31  1  0
 30 32  1  0
 30 33  1  0
 33 34  1  0
 33 35  1  0
 35 36  1  0
 35 37  1  0
 35 38  1  0
 38 39  1  0
 38 40  1  0
  2 41  1  0
 41 42  2  0
 42 43  1  0
 42 44  1  0
 44 45  1  0
 44 46  2  0
 46 47  1  0
 47 48  1  0
 47 49  2  0
 49 50  1  0
 19  5  1  0
 38 26  1  0
 49 41  1  0
 16  7  1  0
M  END
>  <UniqueID>  (25) 
610

>  <SMILES>  (25) 
O=c1c2ccccc2nc(/C=C/c2ccncc2)n1CCN1CCNCC1

>  <Energy>  (25) 
70.11114427246851

>  <Genealogy>  (25) 
O=c1c2ccccc2nc(/C=C/c2ccncc2)n1CCN1CCNCC1 (cis-trans isomerization)
O=c1c2ccccc2nc(/C=C/c2ccncc2)n1CCN1CCNCC1 (3D coordinates assigned)
O=c1c2ccccc2nc(/C=C/c2ccncc2)n1CCN1CCNCC1 (nonaromatic ring conformer: 70.11114427246851 kcal/mol)

>  <smiles>  (25) 
O=c1c2ccccc2nc(/C=C/c2ccncc2)n1CCN1CCNCC1

>  <score_type>  (25) 
oracle

>  <origin>  (25) 
autodockgpu

>  <m_score__min__energy>  (25) 
-7.1699999999999999

>  <m_primary>  (25) 
energy

>  <meeko>  (25) 
{"free_energy": -5.97, "intermolecular_energy": -7.76, "internal_energy": -2.17, "cluster_size": 18, "cluster_id": 1, "rank_in_cluster": 18}

>  <energy>  (25) 
-7.15

>  <cluster_rmsd>  (25) 
1.5

>  <rmsd>  (25) 
271.27

>  <cluster>  (25) 
1

$$$$
MZUVVVBFQHRAFD-AATRIKPKNA-N
     RDKit          3D

 50 53  0  0  0  0  0  0  0  0999 V2000
  141.0612   72.9387  221.4036 H   0  0  0  0  0  0  0  0  0  0  0  0
  140.0800   72.5840  221.7520 C   0  0  0  0  0  0  0  0  0  0  0  0
  139.9280   71.2710  221.9890 C   0  0  0  0  0  0  0  0  0  0  0  0
  139.7710   70.5916  221.1383 H   0  0  0  0  0  0  0  0  0  0  0  0
  139.9650   70.7040  223.3670 C   0  0  0  0  0  0  0  0  0  0  0  0
  140.4550   71.4880  224.3660 N   0  0  0  0  0  0  0  0  0  0  0  0
  140.5080   71.0740  225.6510 C   0  0  0  0  0  0  0  0  0  0  0  0
  141.0200   71.9230  226.6400 C   0  0  0  0  0  0  0  0  0  0  0  0
  141.3862   72.9243  226.3693 H   0  0  0  0  0  0  0  0  0  0  0  0
  141.0660   71.4990  227.9700 C   0  0  0  0  0  0  0  0  0  0  0  0
  141.4676   72.1671  228.7461 H   0  0  0  0  0  0  0  0  0  0  0  0
  140.6020   70.2260  228.3160 C   0  0  0  0  0  0  0  0  0  0  0  0
  140.6398   69.8941  229.3640 H   0  0  0  0  0  0  0  0  0  0  0  0
  140.0900   69.3740  227.3320 C   0  0  0  0  0  0  0  0  0  0  0  0
  139.7250   68.3736  227.6076 H   0  0  0  0  0  0  0  0  0  0  0  0
  140.0410   69.7950  225.9890 C   0  0  0  0  0  0  0  0  0  0  0  0
  139.5370   68.9790  224.9620 C   0  0  0  0  0  0  0  0  0  0  0  0
  139.1040   67.8280  225.2490 O   0  0  0  0  0  0  0  0  0  0  0  0
  139.5080   69.4300  223.6600 N   0  0  0  0  0  0  0  0  0  0  0  0
  138.9640   68.5440  222.6070 C   0  0  0  0  0  0  0  0  0  0  0  0
  139.1373   69.0088  221.6252 H   0  0  0  0  0  0  0  0  0  0  0  0
  139.4747   67.5723  222.6783 H   0  0  0  0  0  0  0  0  0  0  0  0
  137.4580   68.3080  222.7870 C   0  0  0  0  0  0  0  0  0  0  0  0
  137.0920   67.6640  221.9738 H   0  0  0  0  0  0  0  0  0  0  0  0
  137.2858   67.8227  223.7590 H   0  0  0  0  0  0  0  0  0  0  0  0
  136.7270   69.5980  222.7560 N   0  0  0  0  0  0  0  0  0  0  0  0
  135.4210   69.5070  222.0590 C   0  0  0  0  0  0  0  0  0  0  0  0
  135.2158   70.4720  221.5725 H   0  0  0  0  0  0  0  0  0  0  0  0
  135.4943   68.6861  221.3305 H   0  0  0  0  0  0  0  0  0  0  0  0
  134.2510   69.1770  223.0080 C   0  0  0  0  0  0  0  0  0  0  0  0
  133.7470   70.1102  223.2996 H   0  0  0  0  0  0  0  0  0  0  0  0
  133.5461   68.5127  222.4866 H   0  0  0  0  0  0  0  0  0  0  0  0
  134.7420   68.4980  224.2100 N   0  0  0  0  0  0  0  0  0  0  0  0
  133.9170   68.2460  224.8030 H   0  0  0  0  0  0  0  0  0  0  0  0
  135.6140   69.3860  224.9930 C   0  0  0  0  0  0  0  0  0  0  0  0
  134.9859   70.0860  225.5635 H   0  0  0  0  0  0  0  0  0  0  0  0
  136.2227   68.7582  225.6603 H   0  0  0  0  0  0  0  0  0  0  0  0
  136.5780   70.1990  224.0970 C   0  0  0  0  0  0  0  0  0  0  0  0
  136.1841   71.2201  223.9867 H   0  0  0  0  0  0  0  0  0  0  0  0
  137.5669   70.2037  224.5788 H   0  0  0  0  0  0  0  0  0  0  0  0
  138.9980   73.5830  221.9340 C   0  0  0  0  0  0  0  0  0  0  0  0
  139.2480   74.9670  222.0180 C   0  0  0  0  0  0  0  0  0  0  0  0
  140.2762   75.3500  221.9394 H   0  0  0  0  0  0  0  0  0  0  0  0
  138.1800   75.8500  222.2020 C   0  0  0  0  0  0  0  0  0  0  0  0
  138.3678   76.9323  222.2596 H   0  0  0  0  0  0  0  0  0  0  0  0
  136.9110   75.3770  222.3100 N   0  0  0  0  0  0  0  0  0  0  0  0
  136.6400   74.0480  222.2470 C   0  0  0  0  0  0  0  0  0  0  0  0
  135.6025   73.6946  222.3402 H   0  0  0  0  0  0  0  0  0  0  0  0
  137.6760   73.1280  222.0640 C   0  0  0  0  0  0  0  0  0  0  0  0
  137.4565   72.0509  222.0219 H   0  0  0  0  0  0  0  0  0  0  0  0
  1  2  1  0
  2  3  2  0
  3  4  1  0
  3  5  1  0
  5  6  2  0
  6  7  1  0
  7  8  2  0
  8  9  1  0
  8 10  1  0
 10 11  1  0
 10 12  2  0
 12 13  1  0
 12 14  1  0
 14 15  1  0
 14 16  2  0
 16 17  1  0
 17 18  2  0
 17 19  1  0
 19 20  1  0
 20 21  1  0
 20 22  1  0
 20 23  1  0
 23 24  1  0
 23 25  1  0
 23 26  1  0
 26 27  1  0
 27 28  1  0
 27 29  1  0
 27 30  1  0
 30 31  1  0
 30 32  1  0
 30 33  1  0
 33 34  1  0
 33 35  1  0
 35 36  1  0
 35 37  1  0
 35 38  1  0
 38 39  1  0
 38 40  1  0
  2 41  1  0
 41 42  2  0
 42 43  1  0
 42 44  1  0
 44 45  1  0
 44 46  2  0
 46 47  1  0
 47 48  1  0
 47 49  2  0
 49 50  1  0
 19  5  1  0
 38 26  1  0
 49 41  1  0
 16  7  1  0
M  END
>  <UniqueID>  (26) 
610

>  <SMILES>  (26) 
O=c1c2ccccc2nc(/C=C/c2ccncc2)n1CCN1CCNCC1

>  <Energy>  (26) 
70.11114427246851

>  <Genealogy>  (26) 
O=c1c2ccccc2nc(/C=C/c2ccncc2)n1CCN1CCNCC1 (cis-trans isomerization)
O=c1c2ccccc2nc(/C=C/c2ccncc2)n1CCN1CCNCC1 (3D coordinates assigned)
O=c1c2ccccc2nc(/C=C/c2ccncc2)n1CCN1CCNCC1 (nonaromatic ring conformer: 70.11114427246851 kcal/mol)

>  <smiles>  (26) 
O=c1c2ccccc2nc(/C=C/c2ccncc2)n1CCN1CCNCC1

>  <score_type>  (26) 
oracle

>  <origin>  (26) 
autodockgpu

>  <m_score__min__energy>  (26) 
-7.1699999999999999

>  <m_primary>  (26) 
energy

>  <meeko>  (26) 
{"free_energy": -6.65, "intermolecular_energy": -8.44, "internal_energy": -1.77, "cluster_size": 18, "cluster_id": 1, "rank_in_cluster": 17}

>  <energy>  (26) 
-7.14

>  <cluster_rmsd>  (26) 
0.52

>  <rmsd>  (26) 
271.24

>  <cluster>  (26) 
1

$$$$
MZUVVVBFQHRAFD-AATRIKPKNA-N
     RDKit          3D

 50 53  0  0  0  0  0  0  0  0999 V2000
  137.9055   72.6500  221.9640 H   0  0  0  0  0  0  0  0  0  0  0  0
  139.0040   72.6790  222.0130 C   0  0  0  0  0  0  0  0  0  0  0  0
  139.6630   71.5180  222.1610 C   0  0  0  0  0  0  0  0  0  0  0  0
  140.1242   71.0519  221.2778 H   0  0  0  0  0  0  0  0  0  0  0  0
  139.7900   70.8400  223.4830 C   0  0  0  0  0  0  0  0  0  0  0  0
  140.2790   71.5650  224.5260 N   0  0  0  0  0  0  0  0  0  0  0  0
  140.4100   71.0490  225.7670 C   0  0  0  0  0  0  0  0  0  0  0  0
  140.9160   71.8410  226.8050 C   0  0  0  0  0  0  0  0  0  0  0  0
  141.2137   72.8814  226.6077 H   0  0  0  0  0  0  0  0  0  0  0  0
  141.0430   71.3100  228.0920 C   0  0  0  0  0  0  0  0  0  0  0  0
  141.4399   71.9332  228.9069 H   0  0  0  0  0  0  0  0  0  0  0  0
  140.6660   69.9880  228.3440 C   0  0  0  0  0  0  0  0  0  0  0  0
  140.7675   69.5723  229.3574 H   0  0  0  0  0  0  0  0  0  0  0  0
  140.1600   69.1920  227.3110 C   0  0  0  0  0  0  0  0  0  0  0  0
  139.8632   68.1524  227.5138 H   0  0  0  0  0  0  0  0  0  0  0  0
  140.0300   69.7200  226.0110 C   0  0  0  0  0  0  0  0  0  0  0  0
  139.5280   68.9660  224.9380 C   0  0  0  0  0  0  0  0  0  0  0  0
  139.1720   67.7710  225.1410 O   0  0  0  0  0  0  0  0  0  0  0  0
  139.4180   69.5220  223.6820 N   0  0  0  0  0  0  0  0  0  0  0  0
  138.8790   68.6960  222.5780 C   0  0  0  0  0  0  0  0  0  0  0  0
  138.9928   69.2463  221.6324 H   0  0  0  0  0  0  0  0  0  0  0  0
  139.4388   67.7494  222.5524 H   0  0  0  0  0  0  0  0  0  0  0  0
  137.3940   68.3690  222.7880 C   0  0  0  0  0  0  0  0  0  0  0  0
  137.0488   67.7122  221.9759 H   0  0  0  0  0  0  0  0  0  0  0  0
  137.2725   67.8649  223.7581 H   0  0  0  0  0  0  0  0  0  0  0  0
  136.5870   69.6140  222.7870 N   0  0  0  0  0  0  0  0  0  0  0  0
  135.2700   69.4500  222.1250 C   0  0  0  0  0  0  0  0  0  0  0  0
  134.9942   70.4043  221.6524 H   0  0  0  0  0  0  0  0  0  0  0  0
  135.3716   68.6401  221.3876 H   0  0  0  0  0  0  0  0  0  0  0  0
  134.1480   69.0440  223.1040 C   0  0  0  0  0  0  0  0  0  0  0  0
  133.5980   69.9435  223.4176 H   0  0  0  0  0  0  0  0  0  0  0  0
  133.4693   68.3426  222.5966 H   0  0  0  0  0  0  0  0  0  0  0  0
  134.7120   68.3870  224.2860 N   0  0  0  0  0  0  0  0  0  0  0  0
  133.9210   68.0830  224.8990 H   0  0  0  0  0  0  0  0  0  0  0  0
  135.5520   69.3210  225.0520 C   0  0  0  0  0  0  0  0  0  0  0  0
  134.8997   69.9787  225.6452 H   0  0  0  0  0  0  0  0  0  0  0  0
  136.2154   68.7262  225.6971 H   0  0  0  0  0  0  0  0  0  0  0  0
  136.4400   70.1950  224.1370 C   0  0  0  0  0  0  0  0  0  0  0  0
  135.9835   71.1917  224.0465 H   0  0  0  0  0  0  0  0  0  0  0  0
  137.4400   70.2542  224.5913 H   0  0  0  0  0  0  0  0  0  0  0  0
  139.6750   73.9980  221.9120 C   0  0  0  0  0  0  0  0  0  0  0  0
  139.0700   75.1930  222.3470 C   0  0  0  0  0  0  0  0  0  0  0  0
  138.0641   75.1742  222.7917 H   0  0  0  0  0  0  0  0  0  0  0  0
  139.7560   76.4030  222.2100 C   0  0  0  0  0  0  0  0  0  0  0  0
  139.2920   77.3381  222.5569 H   0  0  0  0  0  0  0  0  0  0  0  0
  140.9940   76.4290  221.6500 N   0  0  0  0  0  0  0  0  0  0  0  0
  141.5980   75.2950  221.2090 C   0  0  0  0  0  0  0  0  0  0  0  0
  142.6006   75.3467  220.7594 H   0  0  0  0  0  0  0  0  0  0  0  0
  140.9490   74.0630  221.3250 C   0  0  0  0  0  0  0  0  0  0  0  0
  141.4346   73.1469  220.9576 H   0  0  0  0  0  0  0  0  0  0  0  0
  1  2  1  0
  2  3  2  0
  3  4  1  0
  3  5  1  0
  5  6  2  0
  6  7  1  0
  7  8  2  0
  8  9  1  0
  8 10  1  0
 10 11  1  0
 10 12  2  0
 12 13  1  0
 12 14  1  0
 14 15  1  0
 14 16  2  0
 16 17  1  0
 17 18  2  0
 17 19  1  0
 19 20  1  0
 20 21  1  0
 20 22  1  0
 20 23  1  0
 23 24  1  0
 23 25  1  0
 23 26  1  0
 26 27  1  0
 27 28  1  0
 27 29  1  0
 27 30  1  0
 30 31  1  0
 30 32  1  0
 30 33  1  0
 33 34  1  0
 33 35  1  0
 35 36  1  0
 35 37  1  0
 35 38  1  0
 38 39  1  0
 38 40  1  0
  2 41  1  0
 41 42  2  0
 42 43  1  0
 42 44  1  0
 44 45  1  0
 44 46  2  0
 46 47  1  0
 47 48  1  0
 47 49  2  0
 49 50  1  0
 19  5  1  0
 38 26  1  0
 49 41  1  0
 16  7  1  0
M  END
>  <UniqueID>  (27) 
610

>  <SMILES>  (27) 
O=c1c2ccccc2nc(/C=C/c2ccncc2)n1CCN1CCNCC1

>  <Energy>  (27) 
70.11114427246851

>  <Genealogy>  (27) 
O=c1c2ccccc2nc(/C=C/c2ccncc2)n1CCN1CCNCC1 (cis-trans isomerization)
O=c1c2ccccc2nc(/C=C/c2ccncc2)n1CCN1CCNCC1 (3D coordinates assigned)
O=c1c2ccccc2nc(/C=C/c2ccncc2)n1CCN1CCNCC1 (nonaromatic ring conformer: 70.11114427246851 kcal/mol)

>  <smiles>  (27) 
O=c1c2ccccc2nc(/C=C/c2ccncc2)n1CCN1CCNCC1

>  <score_type>  (27) 
oracle

>  <origin>  (27) 
autodockgpu

>  <m_score__min__energy>  (27) 
-7.1699999999999999

>  <m_primary>  (27) 
energy

>  <meeko>  (27) 
{"free_energy": -7.14, "intermolecular_energy": -8.93, "internal_energy": -1.48, "cluster_size": 18, "cluster_id": 1, "rank_in_cluster": 7}

>  <energy>  (27) 
-7.14

>  <cluster_rmsd>  (27) 
0.53

>  <rmsd>  (27) 
271.28

>  <cluster>  (27) 
1

$$$$
MZUVVVBFQHRAFD-AATRIKPKNA-N
     RDKit          3D

 50 53  0  0  0  0  0  0  0  0999 V2000
  137.8320   72.5208  221.8462 H   0  0  0  0  0  0  0  0  0  0  0  0
  138.9200   72.6120  221.9800 C   0  0  0  0  0  0  0  0  0  0  0  0
  139.6350   71.4880  222.1470 C   0  0  0  0  0  0  0  0  0  0  0  0
  140.1346   71.0408  221.2750 H   0  0  0  0  0  0  0  0  0  0  0  0
  139.7740   70.8260  223.4760 C   0  0  0  0  0  0  0  0  0  0  0  0
  140.2640   71.5650  224.5080 N   0  0  0  0  0  0  0  0  0  0  0  0
  140.4050   71.0640  225.7540 C   0  0  0  0  0  0  0  0  0  0  0  0
  140.9120   71.8700  226.7800 C   0  0  0  0  0  0  0  0  0  0  0  0
  141.2029   72.9097  226.5692 H   0  0  0  0  0  0  0  0  0  0  0  0
  141.0490   71.3550  228.0720 C   0  0  0  0  0  0  0  0  0  0  0  0
  141.4458   71.9901  228.8777 H   0  0  0  0  0  0  0  0  0  0  0  0
  140.6820   70.0330  228.3410 C   0  0  0  0  0  0  0  0  0  0  0  0
  140.7914   69.6291  229.3583 H   0  0  0  0  0  0  0  0  0  0  0  0
  140.1760   69.2230  227.3190 C   0  0  0  0  0  0  0  0  0  0  0  0
  139.8877   68.1835  227.5342 H   0  0  0  0  0  0  0  0  0  0  0  0
  140.0350   69.7360  226.0150 C   0  0  0  0  0  0  0  0  0  0  0  0
  139.5320   68.9660  224.9540 C   0  0  0  0  0  0  0  0  0  0  0  0
  139.1850   67.7710  225.1710 O   0  0  0  0  0  0  0  0  0  0  0  0
  139.4110   69.5070  223.6920 N   0  0  0  0  0  0  0  0  0  0  0  0
  138.8710   68.6660  222.6000 C   0  0  0  0  0  0  0  0  0  0  0  0
  138.9770   69.2065  221.6478 H   0  0  0  0  0  0  0  0  0  0  0  0
  139.4359   67.7223  222.5820 H   0  0  0  0  0  0  0  0  0  0  0  0
  137.3890   68.3330  222.8210 C   0  0  0  0  0  0  0  0  0  0  0  0
  137.0638   67.6045  222.0637 H   0  0  0  0  0  0  0  0  0  0  0  0
  137.2633   67.9100  223.8286 H   0  0  0  0  0  0  0  0  0  0  0  0
  136.5640   69.5600  222.7060 N   0  0  0  0  0  0  0  0  0  0  0  0
  135.2440   69.3130  222.0760 C   0  0  0  0  0  0  0  0  0  0  0  0
  134.9501   70.2123  221.5149 H   0  0  0  0  0  0  0  0  0  0  0  0
  135.3520   68.4360  221.4209 H   0  0  0  0  0  0  0  0  0  0  0  0
  134.1360   68.9890  223.1000 C   0  0  0  0  0  0  0  0  0  0  0  0
  133.5754   69.9071  223.3299 H   0  0  0  0  0  0  0  0  0  0  0  0
  133.4632   68.2325  222.6698 H   0  0  0  0  0  0  0  0  0  0  0  0
  134.7200   68.4580  224.3350 N   0  0  0  0  0  0  0  0  0  0  0  0
  133.9380   68.2040  224.9820 H   0  0  0  0  0  0  0  0  0  0  0  0
  135.5510   69.4750  224.9980 C   0  0  0  0  0  0  0  0  0  0  0  0
  134.8930   70.1780  225.5298 H   0  0  0  0  0  0  0  0  0  0  0  0
  136.2286   68.9563  225.6922 H   0  0  0  0  0  0  0  0  0  0  0  0
  136.4180   70.2680  223.9940 C   0  0  0  0  0  0  0  0  0  0  0  0
  135.9452   71.2441  223.8106 H   0  0  0  0  0  0  0  0  0  0  0  0
  137.4204   70.3861  224.4313 H   0  0  0  0  0  0  0  0  0  0  0  0
  139.5170   73.9710  221.9660 C   0  0  0  0  0  0  0  0  0  0  0  0
  138.7840   75.1260  222.3020 C   0  0  0  0  0  0  0  0  0  0  0  0
  137.7278   75.0449  222.5985 H   0  0  0  0  0  0  0  0  0  0  0  0
  139.4080   76.3760  222.2560 C   0  0  0  0  0  0  0  0  0  0  0  0
  138.8433   77.2805  222.5261 H   0  0  0  0  0  0  0  0  0  0  0  0
  140.7090   76.4780  221.8790 N   0  0  0  0  0  0  0  0  0  0  0  0
  141.4380   75.3850  221.5360 C   0  0  0  0  0  0  0  0  0  0  0  0
  142.4893   75.4992  221.2332 H   0  0  0  0  0  0  0  0  0  0  0  0
  140.8550   74.1150  221.5670 C   0  0  0  0  0  0  0  0  0  0  0  0
  141.4431   73.2309  221.2795 H   0  0  0  0  0  0  0  0  0  0  0  0
  1  2  1  0
  2  3  2  0
  3  4  1  0
  3  5  1  0
  5  6  2  0
  6  7  1  0
  7  8  2  0
  8  9  1  0
  8 10  1  0
 10 11  1  0
 10 12  2  0
 12 13  1  0
 12 14  1  0
 14 15  1  0
 14 16  2  0
 16 17  1  0
 17 18  2  0
 17 19  1  0
 19 20  1  0
 20 21  1  0
 20 22  1  0
 20 23  1  0
 23 24  1  0
 23 25  1  0
 23 26  1  0
 26 27  1  0
 27 28  1  0
 27 29  1  0
 27 30  1  0
 30 31  1  0
 30 32  1  0
 30 33  1  0
 33 34  1  0
 33 35  1  0
 35 36  1  0
 35 37  1  0
 35 38  1  0
 38 39  1  0
 38 40  1  0
  2 41  1  0
 41 42  2  0
 42 43  1  0
 42 44  1  0
 44 45  1  0
 44 46  2  0
 46 47  1  0
 47 48  1  0
 47 49  2  0
 49 50  1  0
 19  5  1  0
 38 26  1  0
 49 41  1  0
 16  7  1  0
M  END
>  <UniqueID>  (28) 
610

>  <SMILES>  (28) 
O=c1c2ccccc2nc(/C=C/c2ccncc2)n1CCN1CCNCC1

>  <Energy>  (28) 
70.11114427246851

>  <Genealogy>  (28) 
O=c1c2ccccc2nc(/C=C/c2ccncc2)n1CCN1CCNCC1 (cis-trans isomerization)
O=c1c2ccccc2nc(/C=C/c2ccncc2)n1CCN1CCNCC1 (3D coordinates assigned)
O=c1c2ccccc2nc(/C=C/c2ccncc2)n1CCN1CCNCC1 (nonaromatic ring conformer: 70.11114427246851 kcal/mol)

>  <smiles>  (28) 
O=c1c2ccccc2nc(/C=C/c2ccncc2)n1CCN1CCNCC1

>  <score_type>  (28) 
oracle

>  <origin>  (28) 
autodockgpu

>  <m_score__min__energy>  (28) 
-7.1699999999999999

>  <m_primary>  (28) 
energy

>  <meeko>  (28) 
{"free_energy": -7.12, "intermolecular_energy": -8.91, "internal_energy": -1.5, "cluster_size": 18, "cluster_id": 1, "rank_in_cluster": 8}

>  <energy>  (28) 
-7.12

>  <cluster_rmsd>  (28) 
0.5

>  <rmsd>  (28) 
271.27

>  <cluster>  (28) 
1

$$$$
MZUVVVBFQHRAFD-AATRIKPKNA-N
     RDKit          3D

 50 53  0  0  0  0  0  0  0  0999 V2000
  142.0097   72.2785  221.2625 H   0  0  0  0  0  0  0  0  0  0  0  0
  140.9700   72.3840  221.6060 C   0  0  0  0  0  0  0  0  0  0  0  0
  140.2880   71.2690  221.9130 C   0  0  0  0  0  0  0  0  0  0  0  0
  139.8063   70.7004  221.1039 H   0  0  0  0  0  0  0  0  0  0  0  0
  140.1620   70.7760  223.3150 C   0  0  0  0  0  0  0  0  0  0  0  0
  140.6830   71.5450  224.3100 N   0  0  0  0  0  0  0  0  0  0  0  0
  140.5990   71.1970  225.6130 C   0  0  0  0  0  0  0  0  0  0  0  0
  141.1510   72.0270  226.5960 C   0  0  0  0  0  0  0  0  0  0  0  0
  141.6595   72.9586  226.3071 H   0  0  0  0  0  0  0  0  0  0  0  0
  141.0560   71.6720  227.9440 C   0  0  0  0  0  0  0  0  0  0  0  0
  141.4893   72.3250  228.7159 H   0  0  0  0  0  0  0  0  0  0  0  0
  140.4110   70.4880  228.3130 C   0  0  0  0  0  0  0  0  0  0  0  0
  140.3384   70.2104  229.3749 H   0  0  0  0  0  0  0  0  0  0  0  0
  139.8580   69.6560  227.3350 C   0  0  0  0  0  0  0  0  0  0  0  0
  139.3499   68.7258  227.6292 H   0  0  0  0  0  0  0  0  0  0  0  0
  139.9500   70.0060  225.9740 C   0  0  0  0  0  0  0  0  0  0  0  0
  139.4130   69.2070  224.9520 C   0  0  0  0  0  0  0  0  0  0  0  0
  138.8180   68.1360  225.2580 O   0  0  0  0  0  0  0  0  0  0  0  0
  139.5270   69.5870  223.6320 N   0  0  0  0  0  0  0  0  0  0  0  0
  138.9420   68.7210  222.5830 C   0  0  0  0  0  0  0  0  0  0  0  0
  139.7566   68.2768  221.9922 H   0  0  0  0  0  0  0  0  0  0  0  0
  138.3427   67.9416  223.0764 H   0  0  0  0  0  0  0  0  0  0  0  0
  138.0200   69.5110  221.6440 C   0  0  0  0  0  0  0  0  0  0  0  0
  138.3481   70.5604  221.6115 H   0  0  0  0  0  0  0  0  0  0  0  0
  138.0703   69.0692  220.6379 H   0  0  0  0  0  0  0  0  0  0  0  0
  136.6190   69.4510  222.1280 N   0  0  0  0  0  0  0  0  0  0  0  0
  136.5210   69.3310  223.6040 C   0  0  0  0  0  0  0  0  0  0  0  0
  135.6245   68.7426  223.8490 H   0  0  0  0  0  0  0  0  0  0  0  0
  137.4417   68.8428  223.9562 H   0  0  0  0  0  0  0  0  0  0  0  0
  136.4220   70.6970  224.3150 C   0  0  0  0  0  0  0  0  0  0  0  0
  135.3646   70.9264  224.5129 H   0  0  0  0  0  0  0  0  0  0  0  0
  136.9824   70.6478  225.2603 H   0  0  0  0  0  0  0  0  0  0  0  0
  136.9960   71.7530  223.4780 N   0  0  0  0  0  0  0  0  0  0  0  0
  136.9570   72.6510  224.0130 H   0  0  0  0  0  0  0  0  0  0  0  0
  136.2160   71.9220  222.2420 C   0  0  0  0  0  0  0  0  0  0  0  0
  135.3104   72.5026  222.4717 H   0  0  0  0  0  0  0  0  0  0  0  0
  136.8519   72.4427  221.5109 H   0  0  0  0  0  0  0  0  0  0  0  0
  135.7960   70.5690  221.6250 C   0  0  0  0  0  0  0  0  0  0  0  0
  134.7428   70.3758  221.8769 H   0  0  0  0  0  0  0  0  0  0  0  0
  135.9401   70.6333  220.5364 H   0  0  0  0  0  0  0  0  0  0  0  0
  140.4000   73.7510  221.7040 C   0  0  0  0  0  0  0  0  0  0  0  0
  141.1910   74.9120  221.6030 C   0  0  0  0  0  0  0  0  0  0  0  0
  142.2750   74.8307  221.4348 H   0  0  0  0  0  0  0  0  0  0  0  0
  140.5890   76.1680  221.7180 C   0  0  0  0  0  0  0  0  0  0  0  0
  141.2001   77.0787  221.6326 H   0  0  0  0  0  0  0  0  0  0  0  0
  139.2510   76.2680  221.9350 N   0  0  0  0  0  0  0  0  0  0  0  0
  138.4650   75.1670  222.0500 C   0  0  0  0  0  0  0  0  0  0  0  0
  137.3854   75.2798  222.2279 H   0  0  0  0  0  0  0  0  0  0  0  0
  139.0240   73.8910  221.9430 C   0  0  0  0  0  0  0  0  0  0  0  0
  138.3880   72.9994  222.0457 H   0  0  0  0  0  0  0  0  0  0  0  0
  1  2  1  0
  2  3  2  0
  3  4  1  0
  3  5  1  0
  5  6  2  0
  6  7  1  0
  7  8  2  0
  8  9  1  0
  8 10  1  0
 10 11  1  0
 10 12  2  0
 12 13  1  0
 12 14  1  0
 14 15  1  0
 14 16  2  0
 16 17  1  0
 17 18  2  0
 17 19  1  0
 19 20  1  0
 20 21  1  0
 20 22  1  0
 20 23  1  0
 23 24  1  0
 23 25  1  0
 23 26  1  0
 26 27  1  0
 27 28  1  0
 27 29  1  0
 27 30  1  0
 30 31  1  0
 30 32  1  0
 30 33  1  0
 33 34  1  0
 33 35  1  0
 35 36  1  0
 35 37  1  0
 35 38  1  0
 38 39  1  0
 38 40  1  0
  2 41  1  0
 41 42  2  0
 42 43  1  0
 42 44  1  0
 44 45  1  0
 44 46  2  0
 46 47  1  0
 47 48  1  0
 47 49  2  0
 49 50  1  0
 19  5  1  0
 38 26  1  0
 49 41  1  0
 16  7  1  0
M  END
>  <UniqueID>  (29) 
610

>  <SMILES>  (29) 
O=c1c2ccccc2nc(/C=C/c2ccncc2)n1CCN1CCNCC1

>  <Energy>  (29) 
70.11114427246851

>  <Genealogy>  (29) 
O=c1c2ccccc2nc(/C=C/c2ccncc2)n1CCN1CCNCC1 (cis-trans isomerization)
O=c1c2ccccc2nc(/C=C/c2ccncc2)n1CCN1CCNCC1 (3D coordinates assigned)
O=c1c2ccccc2nc(/C=C/c2ccncc2)n1CCN1CCNCC1 (nonaromatic ring conformer: 70.11114427246851 kcal/mol)

>  <smiles>  (29) 
O=c1c2ccccc2nc(/C=C/c2ccncc2)n1CCN1CCNCC1

>  <score_type>  (29) 
oracle

>  <origin>  (29) 
autodockgpu

>  <m_score__min__energy>  (29) 
-7.1699999999999999

>  <m_primary>  (29) 
energy

>  <meeko>  (29) 
{"free_energy": -6.78, "intermolecular_energy": -8.57, "internal_energy": -1.72, "cluster_size": 18, "cluster_id": 1, "rank_in_cluster": 15}

>  <energy>  (29) 
-7.11

>  <cluster_rmsd>  (29) 
0.17

>  <rmsd>  (29) 
271.21

>  <cluster>  (29) 
1

$$$$
MZUVVVBFQHRAFD-AATRIKPKNA-N
     RDKit          3D

 50 53  0  0  0  0  0  0  0  0999 V2000
  140.2878   78.4949  218.6752 H   0  0  0  0  0  0  0  0  0  0  0  0
  141.0620   78.2490  219.4170 C   0  0  0  0  0  0  0  0  0  0  0  0
  142.1630   79.0160  219.4620 C   0  0  0  0  0  0  0  0  0  0  0  0
  143.1068   78.5714  219.8106 H   0  0  0  0  0  0  0  0  0  0  0  0
  142.1490   80.4510  219.0550 C   0  0  0  0  0  0  0  0  0  0  0  0
  142.8650   80.8080  217.9540 N   0  0  0  0  0  0  0  0  0  0  0  0
  142.8960   82.0760  217.4910 C   0  0  0  0  0  0  0  0  0  0  0  0
  143.6480   82.3880  216.3520 C   0  0  0  0  0  0  0  0  0  0  0  0
  144.2189   81.6008  215.8378 H   0  0  0  0  0  0  0  0  0  0  0  0
  143.6740   83.6980  215.8680 C   0  0  0  0  0  0  0  0  0  0  0  0
  144.2654   83.9415  214.9730 H   0  0  0  0  0  0  0  0  0  0  0  0
  142.9490   84.7000  216.5200 C   0  0  0  0  0  0  0  0  0  0  0  0
  142.9710   85.7308  216.1368 H   0  0  0  0  0  0  0  0  0  0  0  0
  142.1960   84.3950  217.6580 C   0  0  0  0  0  0  0  0  0  0  0  0
  141.6256   85.1856  218.1675 H   0  0  0  0  0  0  0  0  0  0  0  0
  142.1670   83.0760  218.1530 C   0  0  0  0  0  0  0  0  0  0  0  0
  141.4280   82.7150  219.2910 C   0  0  0  0  0  0  0  0  0  0  0  0
  140.7580   83.6000  219.8950 O   0  0  0  0  0  0  0  0  0  0  0  0
  141.4270   81.4130  219.7420 N   0  0  0  0  0  0  0  0  0  0  0  0
  140.6310   81.0700  220.9420 C   0  0  0  0  0  0  0  0  0  0  0  0
  139.5645   81.2181  220.7168 H   0  0  0  0  0  0  0  0  0  0  0  0
  140.8366   80.0211  221.2020 H   0  0  0  0  0  0  0  0  0  0  0  0
  141.0120   81.9450  222.1440 C   0  0  0  0  0  0  0  0  0  0  0  0
  142.0357   82.3236  222.0072 H   0  0  0  0  0  0  0  0  0  0  0  0
  140.3053   82.7852  222.2130 H   0  0  0  0  0  0  0  0  0  0  0  0
  140.9460   81.1550  223.3980 N   0  0  0  0  0  0  0  0  0  0  0  0
  140.5490   79.7440  223.1710 C   0  0  0  0  0  0  0  0  0  0  0  0
  139.9805   79.3951  224.0457 H   0  0  0  0  0  0  0  0  0  0  0  0
  139.9467   79.7164  222.2510 H   0  0  0  0  0  0  0  0  0  0  0  0
  141.7540   78.8030  222.9610 C   0  0  0  0  0  0  0  0  0  0  0  0
  142.0058   78.3182  223.9157 H   0  0  0  0  0  0  0  0  0  0  0  0
  141.4875   78.0444  222.2103 H   0  0  0  0  0  0  0  0  0  0  0  0
  142.9150   79.5580  222.4820 N   0  0  0  0  0  0  0  0  0  0  0  0
  143.6930   78.8810  222.3030 H   0  0  0  0  0  0  0  0  0  0  0  0
  143.3690   80.5190  223.4990 C   0  0  0  0  0  0  0  0  0  0  0  0
  143.9491   79.9793  224.2621 H   0  0  0  0  0  0  0  0  0  0  0  0
  143.9815   81.2804  222.9939 H   0  0  0  0  0  0  0  0  0  0  0  0
  142.1900   81.2410  224.1890 C   0  0  0  0  0  0  0  0  0  0  0  0
  142.0177   80.7789  225.1722 H   0  0  0  0  0  0  0  0  0  0  0  0
  142.4553   82.3039  224.2883 H   0  0  0  0  0  0  0  0  0  0  0  0
  140.8310   77.0880  220.3120 C   0  0  0  0  0  0  0  0  0  0  0  0
  141.7240   76.0010  220.3920 C   0  0  0  0  0  0  0  0  0  0  0  0
  142.6410   75.9919  219.7845 H   0  0  0  0  0  0  0  0  0  0  0  0
  141.4370   74.9350  221.2480 C   0  0  0  0  0  0  0  0  0  0  0  0
  142.1343   74.0873  221.3200 H   0  0  0  0  0  0  0  0  0  0  0  0
  140.3000   74.9410  221.9920 N   0  0  0  0  0  0  0  0  0  0  0  0
  139.4130   75.9680  221.9270 C   0  0  0  0  0  0  0  0  0  0  0  0
  138.4994   75.9438  222.5392 H   0  0  0  0  0  0  0  0  0  0  0  0
  139.6590   77.0550  221.0840 C   0  0  0  0  0  0  0  0  0  0  0  0
  138.9364   77.8823  221.0255 H   0  0  0  0  0  0  0  0  0  0  0  0
  1  2  1  0
  2  3  2  0
  3  4  1  0
  3  5  1  0
  5  6  2  0
  6  7  1  0
  7  8  2  0
  8  9  1  0
  8 10  1  0
 10 11  1  0
 10 12  2  0
 12 13  1  0
 12 14  1  0
 14 15  1  0
 14 16  2  0
 16 17  1  0
 17 18  2  0
 17 19  1  0
 19 20  1  0
 20 21  1  0
 20 22  1  0
 20 23  1  0
 23 24  1  0
 23 25  1  0
 23 26  1  0
 26 27  1  0
 27 28  1  0
 27 29  1  0
 27 30  1  0
 30 31  1  0
 30 32  1  0
 30 33  1  0
 33 34  1  0
 33 35  1  0
 35 36  1  0
 35 37  1  0
 35 38  1  0
 38 39  1  0
 38 40  1  0
  2 41  1  0
 41 42  2  0
 42 43  1  0
 42 44  1  0
 44 45  1  0
 44 46  2  0
 46 47  1  0
 47 48  1  0
 47 49  2  0
 49 50  1  0
 19  5  1  0
 38 26  1  0
 49 41  1  0
 16  7  1  0
M  END
>  <UniqueID>  (30) 
610

>  <SMILES>  (30) 
O=c1c2ccccc2nc(/C=C/c2ccncc2)n1CCN1CCNCC1

>  <Energy>  (30) 
70.11114427246851

>  <Genealogy>  (30) 
O=c1c2ccccc2nc(/C=C/c2ccncc2)n1CCN1CCNCC1 (cis-trans isomerization)
O=c1c2ccccc2nc(/C=C/c2ccncc2)n1CCN1CCNCC1 (3D coordinates assigned)
O=c1c2ccccc2nc(/C=C/c2ccncc2)n1CCN1CCNCC1 (nonaromatic ring conformer: 70.11114427246851 kcal/mol)

>  <smiles>  (30) 
O=c1c2ccccc2nc(/C=C/c2ccncc2)n1CCN1CCNCC1

>  <score_type>  (30) 
oracle

>  <origin>  (30) 
autodockgpu

>  <m_score__min__energy>  (30) 
-7.1699999999999999

>  <m_primary>  (30) 
energy

>  <meeko>  (30) 
{"free_energy": -6.28, "intermolecular_energy": -8.07, "internal_energy": -1.49, "cluster_size": 1, "cluster_id": 3, "rank_in_cluster": 1}

>  <energy>  (30) 
-7.1

>  <cluster_rmsd>  (30) 
0.24

>  <rmsd>  (30) 
271.24

>  <cluster>  (30) 
1

$$$$
MZUVVVBFQHRAFD-AATRIKPKNA-N
     RDKit          3D

 50 53  0  0  0  0  0  0  0  0999 V2000
  142.0201   72.3348  221.3100 H   0  0  0  0  0  0  0  0  0  0  0  0
  140.9740   72.4170  221.6400 C   0  0  0  0  0  0  0  0  0  0  0  0
  140.3070   71.2860  221.9210 C   0  0  0  0  0  0  0  0  0  0  0  0
  139.8450   70.7223  221.0971 H   0  0  0  0  0  0  0  0  0  0  0  0
  140.1720   70.7690  223.3130 C   0  0  0  0  0  0  0  0  0  0  0  0
  140.6940   71.5150  224.3240 N   0  0  0  0  0  0  0  0  0  0  0  0
  140.6020   71.1450  225.6200 C   0  0  0  0  0  0  0  0  0  0  0  0
  141.1560   71.9520  226.6200 C   0  0  0  0  0  0  0  0  0  0  0  0
  141.6730   72.8847  226.3500 H   0  0  0  0  0  0  0  0  0  0  0  0
  141.0530   71.5740  227.9610 C   0  0  0  0  0  0  0  0  0  0  0  0
  141.4873   72.2102  228.7462 H   0  0  0  0  0  0  0  0  0  0  0  0
  140.3980   70.3870  228.3060 C   0  0  0  0  0  0  0  0  0  0  0  0
  140.3193   70.0902  229.3623 H   0  0  0  0  0  0  0  0  0  0  0  0
  139.8430   69.5770  227.3100 C   0  0  0  0  0  0  0  0  0  0  0  0
  139.3267   68.6453  227.5845 H   0  0  0  0  0  0  0  0  0  0  0  0
  139.9440   69.9520  225.9560 C   0  0  0  0  0  0  0  0  0  0  0  0
  139.4050   69.1750  224.9170 C   0  0  0  0  0  0  0  0  0  0  0  0
  138.8010   68.1020  225.2020 O   0  0  0  0  0  0  0  0  0  0  0  0
  139.5270   69.5790  223.6050 N   0  0  0  0  0  0  0  0  0  0  0  0
  138.9410   68.7360  222.5390 C   0  0  0  0  0  0  0  0  0  0  0  0
  139.7550   68.2957  221.9444 H   0  0  0  0  0  0  0  0  0  0  0  0
  138.3336   67.9524  223.0156 H   0  0  0  0  0  0  0  0  0  0  0  0
  138.0300   69.5500  221.6100 C   0  0  0  0  0  0  0  0  0  0  0  0
  138.3745   70.5944  221.5877 H   0  0  0  0  0  0  0  0  0  0  0  0
  138.0717   69.1180  220.5993 H   0  0  0  0  0  0  0  0  0  0  0  0
  136.6290   69.5070  222.0960 N   0  0  0  0  0  0  0  0  0  0  0  0
  136.5320   69.3770  223.5700 C   0  0  0  0  0  0  0  0  0  0  0  0
  135.6268   68.8008  223.8120 H   0  0  0  0  0  0  0  0  0  0  0  0
  137.4459   68.8719  223.9160 H   0  0  0  0  0  0  0  0  0  0  0  0
  136.4560   70.7380  224.2930 C   0  0  0  0  0  0  0  0  0  0  0  0
  135.4027   70.9822  224.4955 H   0  0  0  0  0  0  0  0  0  0  0  0
  137.0177   70.6719  225.2365 H   0  0  0  0  0  0  0  0  0  0  0  0
  137.0450   71.7930  223.4630 N   0  0  0  0  0  0  0  0  0  0  0  0
  137.0210   72.6870  224.0060 H   0  0  0  0  0  0  0  0  0  0  0  0
  136.2650   71.9840  222.2310 C   0  0  0  0  0  0  0  0  0  0  0  0
  135.3690   72.5766  222.4678 H   0  0  0  0  0  0  0  0  0  0  0  0
  136.9073   72.5007  221.5027 H   0  0  0  0  0  0  0  0  0  0  0  0
  135.8220   70.6420  221.6030 C   0  0  0  0  0  0  0  0  0  0  0  0
  134.7664   70.4632  221.8553 H   0  0  0  0  0  0  0  0  0  0  0  0
  135.9646   70.7128  220.5146 H   0  0  0  0  0  0  0  0  0  0  0  0
  140.3780   73.7720  221.7500 C   0  0  0  0  0  0  0  0  0  0  0  0
  139.0030   73.9810  221.9700 C   0  0  0  0  0  0  0  0  0  0  0  0
  138.3225   73.1234  222.0774 H   0  0  0  0  0  0  0  0  0  0  0  0
  138.5090   75.2860  222.0510 C   0  0  0  0  0  0  0  0  0  0  0  0
  137.4372   75.4553  222.2314 H   0  0  0  0  0  0  0  0  0  0  0  0
  139.3460   76.3460  221.9080 N   0  0  0  0  0  0  0  0  0  0  0  0
  140.6750   76.1760  221.6820 C   0  0  0  0  0  0  0  0  0  0  0  0
  141.3289   77.0533  221.5689 H   0  0  0  0  0  0  0  0  0  0  0  0
  141.2130   74.8900  221.5930 C   0  0  0  0  0  0  0  0  0  0  0  0
  142.2874   74.7535  221.4005 H   0  0  0  0  0  0  0  0  0  0  0  0
  1  2  1  0
  2  3  2  0
  3  4  1  0
  3  5  1  0
  5  6  2  0
  6  7  1  0
  7  8  2  0
  8  9  1  0
  8 10  1  0
 10 11  1  0
 10 12  2  0
 12 13  1  0
 12 14  1  0
 14 15  1  0
 14 16  2  0
 16 17  1  0
 17 18  2  0
 17 19  1  0
 19 20  1  0
 20 21  1  0
 20 22  1  0
 20 23  1  0
 23 24  1  0
 23 25  1  0
 23 26  1  0
 26 27  1  0
 27 28  1  0
 27 29  1  0
 27 30  1  0
 30 31  1  0
 30 32  1  0
 30 33  1  0
 33 34  1  0
 33 35  1  0
 35 36  1  0
 35 37  1  0
 35 38  1  0
 38 39  1  0
 38 40  1  0
  2 41  1  0
 41 42  2  0
 42 43  1  0
 42 44  1  0
 44 45  1  0
 44 46  2  0
 46 47  1  0
 47 48  1  0
 47 49  2  0
 49 50  1  0
 19  5  1  0
 38 26  1  0
 49 41  1  0
 16  7  1  0
M  END
>  <UniqueID>  (31) 
610

>  <SMILES>  (31) 
O=c1c2ccccc2nc(/C=C/c2ccncc2)n1CCN1CCNCC1

>  <Energy>  (31) 
70.11114427246851

>  <Genealogy>  (31) 
O=c1c2ccccc2nc(/C=C/c2ccncc2)n1CCN1CCNCC1 (cis-trans isomerization)
O=c1c2ccccc2nc(/C=C/c2ccncc2)n1CCN1CCNCC1 (3D coordinates assigned)
O=c1c2ccccc2nc(/C=C/c2ccncc2)n1CCN1CCNCC1 (nonaromatic ring conformer: 70.11114427246851 kcal/mol)

>  <smiles>  (31) 
O=c1c2ccccc2nc(/C=C/c2ccncc2)n1CCN1CCNCC1

>  <score_type>  (31) 
oracle

>  <origin>  (31) 
autodockgpu

>  <m_score__min__energy>  (31) 
-7.1699999999999999

>  <m_primary>  (31) 
energy

>  <meeko>  (31) 
{"free_energy": -6.79, "intermolecular_energy": -8.58, "internal_energy": -1.7, "cluster_size": 18, "cluster_id": 1, "rank_in_cluster": 14}

>  <energy>  (31) 
-7.09

>  <cluster_rmsd>  (31) 
1.53

>  <rmsd>  (31) 
271.32

>  <cluster>  (31) 
1

$$$$
MZUVVVBFQHRAFD-AATRIKPKNA-N
     RDKit          3D

 50 53  0  0  0  0  0  0  0  0999 V2000
  141.3282   71.8330  221.0696 H   0  0  0  0  0  0  0  0  0  0  0  0
  140.4150   72.1590  221.5890 C   0  0  0  0  0  0  0  0  0  0  0  0
  139.5880   71.2160  222.0690 C   0  0  0  0  0  0  0  0  0  0  0  0
  138.7635   70.8589  221.4344 H   0  0  0  0  0  0  0  0  0  0  0  0
  139.7500   70.6370  223.4330 C   0  0  0  0  0  0  0  0  0  0  0  0
  140.2280   71.4480  224.4170 N   0  0  0  0  0  0  0  0  0  0  0  0
  140.3870   71.0250  225.6900 C   0  0  0  0  0  0  0  0  0  0  0  0
  140.8800   71.9020  226.6630 C   0  0  0  0  0  0  0  0  0  0  0  0
  141.1442   72.9341  226.3891 H   0  0  0  0  0  0  0  0  0  0  0  0
  141.0370   71.4680  227.9820 C   0  0  0  0  0  0  0  0  0  0  0  0
  141.4248   72.1582  228.7457 H   0  0  0  0  0  0  0  0  0  0  0  0
  140.7010   70.1560  228.3310 C   0  0  0  0  0  0  0  0  0  0  0  0
  140.8250   69.8157  229.3697 H   0  0  0  0  0  0  0  0  0  0  0  0
  140.2080   69.2760  227.3630 C   0  0  0  0  0  0  0  0  0  0  0  0
  139.9437   68.2452  227.6418 H   0  0  0  0  0  0  0  0  0  0  0  0
  140.0490   69.7070  226.0310 C   0  0  0  0  0  0  0  0  0  0  0  0
  139.5580   68.8640  225.0210 C   0  0  0  0  0  0  0  0  0  0  0  0
  139.2400   67.6760  225.3110 O   0  0  0  0  0  0  0  0  0  0  0  0
  139.4190   69.3260  223.7300 N   0  0  0  0  0  0  0  0  0  0  0  0
  138.8920   68.4100  222.6930 C   0  0  0  0  0  0  0  0  0  0  0  0
  139.1363   68.8167  221.7006 H   0  0  0  0  0  0  0  0  0  0  0  0
  139.3553   67.4232  222.8395 H   0  0  0  0  0  0  0  0  0  0  0  0
  137.3700   68.2450  222.8020 C   0  0  0  0  0  0  0  0  0  0  0  0
  137.0019   67.6865  221.9287 H   0  0  0  0  0  0  0  0  0  0  0  0
  137.1344   67.6968  223.7261 H   0  0  0  0  0  0  0  0  0  0  0  0
  136.7110   69.5730  222.8470 N   0  0  0  0  0  0  0  0  0  0  0  0
  135.3940   69.5880  222.1620 C   0  0  0  0  0  0  0  0  0  0  0  0
  135.2363   70.5862  221.7275 H   0  0  0  0  0  0  0  0  0  0  0  0
  135.4151   68.8031  221.3916 H   0  0  0  0  0  0  0  0  0  0  0  0
  134.2180   69.2730  223.1090 C   0  0  0  0  0  0  0  0  0  0  0  0
  133.7691   70.2158  223.4548 H   0  0  0  0  0  0  0  0  0  0  0  0
  133.4723   68.6756  222.5640 H   0  0  0  0  0  0  0  0  0  0  0  0
  134.6840   68.5070  224.2680 N   0  0  0  0  0  0  0  0  0  0  0  0
  133.8520   68.2700  224.8580 H   0  0  0  0  0  0  0  0  0  0  0  0
  135.6110   69.3060  225.0840 C   0  0  0  0  0  0  0  0  0  0  0  0
  135.0275   70.0087  225.6970 H   0  0  0  0  0  0  0  0  0  0  0  0
  136.1912   68.6130  225.7110 H   0  0  0  0  0  0  0  0  0  0  0  0
  136.6080   70.1100  224.2190 C   0  0  0  0  0  0  0  0  0  0  0  0
  136.2695   71.1553  224.1664 H   0  0  0  0  0  0  0  0  0  0  0  0
  137.6004   70.0353  224.6877 H   0  0  0  0  0  0  0  0  0  0  0  0
  140.1660   73.6160  221.7200 C   0  0  0  0  0  0  0  0  0  0  0  0
  138.8860   74.1480  221.9690 C   0  0  0  0  0  0  0  0  0  0  0  0
  138.0211   73.4783  222.0848 H   0  0  0  0  0  0  0  0  0  0  0  0
  138.7220   75.5320  222.0680 C   0  0  0  0  0  0  0  0  0  0  0  0
  137.7258   75.9527  222.2698 H   0  0  0  0  0  0  0  0  0  0  0  0
  139.7880   76.3600  221.9160 N   0  0  0  0  0  0  0  0  0  0  0  0
  141.0320   75.8780  221.6620 C   0  0  0  0  0  0  0  0  0  0  0  0
  141.8760   76.5731  221.5418 H   0  0  0  0  0  0  0  0  0  0  0  0
  141.2420   74.5010  221.5530 C   0  0  0  0  0  0  0  0  0  0  0  0
  142.2479   74.1118  221.3369 H   0  0  0  0  0  0  0  0  0  0  0  0
  1  2  1  0
  2  3  2  0
  3  4  1  0
  3  5  1  0
  5  6  2  0
  6  7  1  0
  7  8  2  0
  8  9  1  0
  8 10  1  0
 10 11  1  0
 10 12  2  0
 12 13  1  0
 12 14  1  0
 14 15  1  0
 14 16  2  0
 16 17  1  0
 17 18  2  0
 17 19  1  0
 19 20  1  0
 20 21  1  0
 20 22  1  0
 20 23  1  0
 23 24  1  0
 23 25  1  0
 23 26  1  0
 26 27  1  0
 27 28  1  0
 27 29  1  0
 27 30  1  0
 30 31  1  0
 30 32  1  0
 30 33  1  0
 33 34  1  0
 33 35  1  0
 35 36  1  0
 35 37  1  0
 35 38  1  0
 38 39  1  0
 38 40  1  0
  2 41  1  0
 41 42  2  0
 42 43  1  0
 42 44  1  0
 44 45  1  0
 44 46  2  0
 46 47  1  0
 47 48  1  0
 47 49  2  0
 49 50  1  0
 19  5  1  0
 38 26  1  0
 49 41  1  0
 16  7  1  0
M  END
>  <UniqueID>  (32) 
610

>  <SMILES>  (32) 
O=c1c2ccccc2nc(/C=C/c2ccncc2)n1CCN1CCNCC1

>  <Energy>  (32) 
70.11114427246851

>  <Genealogy>  (32) 
O=c1c2ccccc2nc(/C=C/c2ccncc2)n1CCN1CCNCC1 (cis-trans isomerization)
O=c1c2ccccc2nc(/C=C/c2ccncc2)n1CCN1CCNCC1 (3D coordinates assigned)
O=c1c2ccccc2nc(/C=C/c2ccncc2)n1CCN1CCNCC1 (nonaromatic ring conformer: 70.11114427246851 kcal/mol)

>  <smiles>  (32) 
O=c1c2ccccc2nc(/C=C/c2ccncc2)n1CCN1CCNCC1

>  <score_type>  (32) 
oracle

>  <origin>  (32) 
autodockgpu

>  <m_score__min__energy>  (32) 
-7.1699999999999999

>  <m_primary>  (32) 
energy

>  <meeko>  (32) 
{"free_energy": -7.1, "intermolecular_energy": -8.89, "internal_energy": -1.47, "cluster_size": 18, "cluster_id": 1, "rank_in_cluster": 10}

>  <energy>  (32) 
-6.95

>  <cluster_rmsd>  (32) 
1.54

>  <rmsd>  (32) 
271.33

>  <cluster>  (32) 
1

$$$$
MZUVVVBFQHRAFD-AATRIKPKNA-N
     RDKit          3D

 50 53  0  0  0  0  0  0  0  0999 V2000
  139.3382   73.3363  221.9506 H   0  0  0  0  0  0  0  0  0  0  0  0
  140.0860   72.5430  221.8040 C   0  0  0  0  0  0  0  0  0  0  0  0
  139.7300   71.2780  222.0760 C   0  0  0  0  0  0  0  0  0  0  0  0
  139.3312   70.6517  221.2644 H   0  0  0  0  0  0  0  0  0  0  0  0
  139.8570   70.6930  223.4420 C   0  0  0  0  0  0  0  0  0  0  0  0
  140.3470   71.4890  224.4320 N   0  0  0  0  0  0  0  0  0  0  0  0
  140.4780   71.0610  225.7070 C   0  0  0  0  0  0  0  0  0  0  0  0
  140.9850   71.9220  226.6870 C   0  0  0  0  0  0  0  0  0  0  0  0
  141.2837   72.9459  226.4178 H   0  0  0  0  0  0  0  0  0  0  0  0
  141.1120   71.4820  228.0070 C   0  0  0  0  0  0  0  0  0  0  0  0
  141.5099   72.1601  228.7763 H   0  0  0  0  0  0  0  0  0  0  0  0
  140.7340   70.1810  228.3510 C   0  0  0  0  0  0  0  0  0  0  0  0
  140.8362   69.8366  229.3907 H   0  0  0  0  0  0  0  0  0  0  0  0
  140.2260   69.3160  227.3760 C   0  0  0  0  0  0  0  0  0  0  0  0
  139.9277   68.2934  227.6505 H   0  0  0  0  0  0  0  0  0  0  0  0
  140.0960   69.7530  226.0430 C   0  0  0  0  0  0  0  0  0  0  0  0
  139.5930   68.9260  225.0250 C   0  0  0  0  0  0  0  0  0  0  0  0
  139.2360   67.7480  225.3110 O   0  0  0  0  0  0  0  0  0  0  0  0
  139.4840   69.3930  223.7330 N   0  0  0  0  0  0  0  0  0  0  0  0
  138.9430   68.4930  222.6900 C   0  0  0  0  0  0  0  0  0  0  0  0
  139.2478   68.8685  221.7020 H   0  0  0  0  0  0  0  0  0  0  0  0
  139.3414   67.4833  222.8681 H   0  0  0  0  0  0  0  0  0  0  0  0
  137.4110   68.4190  222.7430 C   0  0  0  0  0  0  0  0  0  0  0  0
  137.0276   68.1250  221.7548 H   0  0  0  0  0  0  0  0  0  0  0  0
  137.1148   67.6765  223.4986 H   0  0  0  0  0  0  0  0  0  0  0  0
  136.8440   69.7380  223.1150 N   0  0  0  0  0  0  0  0  0  0  0  0
  135.5840   70.0500  222.3970 C   0  0  0  0  0  0  0  0  0  0  0  0
  135.5281   71.1379  222.2439 H   0  0  0  0  0  0  0  0  0  0  0  0
  135.6042   69.5014  221.4438 H   0  0  0  0  0  0  0  0  0  0  0  0
  134.3240   69.5960  223.1640 C   0  0  0  0  0  0  0  0  0  0  0  0
  133.9188   70.4472  223.7308 H   0  0  0  0  0  0  0  0  0  0  0  0
  133.5787   69.2329  222.4410 H   0  0  0  0  0  0  0  0  0  0  0  0
  134.6520   68.5110  224.0920 N   0  0  0  0  0  0  0  0  0  0  0  0
  133.7670   68.1970  224.5540 H   0  0  0  0  0  0  0  0  0  0  0  0
  135.5740   68.9800  225.1380 C   0  0  0  0  0  0  0  0  0  0  0  0
  134.9998   69.5408  225.8902 H   0  0  0  0  0  0  0  0  0  0  0  0
  136.0594   68.0971  225.5794 H   0  0  0  0  0  0  0  0  0  0  0  0
  136.6830   69.8970  224.5740 C   0  0  0  0  0  0  0  0  0  0  0  0
  136.4225   70.9436  224.7905 H   0  0  0  0  0  0  0  0  0  0  0  0
  137.6324   69.6157  225.0530 H   0  0  0  0  0  0  0  0  0  0  0  0
  141.4340   72.9310  221.3160 C   0  0  0  0  0  0  0  0  0  0  0  0
  141.7540   74.2490  220.9380 C   0  0  0  0  0  0  0  0  0  0  0  0
  140.9965   75.0437  221.0060 H   0  0  0  0  0  0  0  0  0  0  0  0
  143.0400   74.5410  220.4760 C   0  0  0  0  0  0  0  0  0  0  0  0
  143.2978   75.5705  220.1866 H   0  0  0  0  0  0  0  0  0  0  0  0
  143.9730   73.5580  220.3830 N   0  0  0  0  0  0  0  0  0  0  0  0
  143.6910   72.2750  220.7280 C   0  0  0  0  0  0  0  0  0  0  0  0
  144.4670   71.5002  220.6413 H   0  0  0  0  0  0  0  0  0  0  0  0
  142.4170   71.9370  221.1930 C   0  0  0  0  0  0  0  0  0  0  0  0
  142.1857   70.8957  221.4616 H   0  0  0  0  0  0  0  0  0  0  0  0
  1  2  1  0
  2  3  2  0
  3  4  1  0
  3  5  1  0
  5  6  2  0
  6  7  1  0
  7  8  2  0
  8  9  1  0
  8 10  1  0
 10 11  1  0
 10 12  2  0
 12 13  1  0
 12 14  1  0
 14 15  1  0
 14 16  2  0
 16 17  1  0
 17 18  2  0
 17 19  1  0
 19 20  1  0
 20 21  1  0
 20 22  1  0
 20 23  1  0
 23 24  1  0
 23 25  1  0
 23 26  1  0
 26 27  1  0
 27 28  1  0
 27 29  1  0
 27 30  1  0
 30 31  1  0
 30 32  1  0
 30 33  1  0
 33 34  1  0
 33 35  1  0
 35 36  1  0
 35 37  1  0
 35 38  1  0
 38 39  1  0
 38 40  1  0
  2 41  1  0
 41 42  2  0
 42 43  1  0
 42 44  1  0
 44 45  1  0
 44 46  2  0
 46 47  1  0
 47 48  1  0
 47 49  2  0
 49 50  1  0
 19  5  1  0
 38 26  1  0
 49 41  1  0
 16  7  1  0
M  END
>  <UniqueID>  (33) 
610

>  <SMILES>  (33) 
O=c1c2ccccc2nc(/C=C/c2ccncc2)n1CCN1CCNCC1

>  <Energy>  (33) 
70.11114427246851

>  <Genealogy>  (33) 
O=c1c2ccccc2nc(/C=C/c2ccncc2)n1CCN1CCNCC1 (cis-trans isomerization)
O=c1c2ccccc2nc(/C=C/c2ccncc2)n1CCN1CCNCC1 (3D coordinates assigned)
O=c1c2ccccc2nc(/C=C/c2ccncc2)n1CCN1CCNCC1 (nonaromatic ring conformer: 70.11114427246851 kcal/mol)

>  <smiles>  (33) 
O=c1c2ccccc2nc(/C=C/c2ccncc2)n1CCN1CCNCC1

>  <score_type>  (33) 
oracle

>  <origin>  (33) 
autodockgpu

>  <m_score__min__energy>  (33) 
-7.1699999999999999

>  <m_primary>  (33) 
energy

>  <meeko>  (33) 
{"free_energy": -6.95, "intermolecular_energy": -8.74, "internal_energy": -1.41, "cluster_size": 18, "cluster_id": 1, "rank_in_cluster": 12}

>  <energy>  (33) 
-6.88

>  <cluster_rmsd>  (33) 
1.32

>  <rmsd>  (33) 
271.34

>  <cluster>  (33) 
1

$$$$
MZUVVVBFQHRAFD-AATRIKPKNA-N
     RDKit          3D

 50 53  0  0  0  0  0  0  0  0999 V2000
  141.5494   72.1618  221.2908 H   0  0  0  0  0  0  0  0  0  0  0  0
  140.5430   72.3810  221.6770 C   0  0  0  0  0  0  0  0  0  0  0  0
  139.7690   71.3500  222.0530 C   0  0  0  0  0  0  0  0  0  0  0  0
  139.0408   70.9427  221.3362 H   0  0  0  0  0  0  0  0  0  0  0  0
  139.8640   70.7390  223.4100 C   0  0  0  0  0  0  0  0  0  0  0  0
  140.3570   71.5060  224.4210 N   0  0  0  0  0  0  0  0  0  0  0  0
  140.4590   71.0520  225.6890 C   0  0  0  0  0  0  0  0  0  0  0  0
  140.9710   71.8850  226.6910 C   0  0  0  0  0  0  0  0  0  0  0  0
  141.2962   72.9064  226.4441 H   0  0  0  0  0  0  0  0  0  0  0  0
  141.0690   71.4190  228.0050 C   0  0  0  0  0  0  0  0  0  0  0  0
  141.4707   72.0743  228.7919 H   0  0  0  0  0  0  0  0  0  0  0  0
  140.6570   70.1210  228.3200 C   0  0  0  0  0  0  0  0  0  0  0  0
  140.7357   69.7563  229.3548 H   0  0  0  0  0  0  0  0  0  0  0  0
  140.1450   69.2850  227.3230 C   0  0  0  0  0  0  0  0  0  0  0  0
  139.8207   68.2645  227.5748 H   0  0  0  0  0  0  0  0  0  0  0  0
  140.0440   69.7480  225.9970 C   0  0  0  0  0  0  0  0  0  0  0  0
  139.5380   68.9500  224.9570 C   0  0  0  0  0  0  0  0  0  0  0  0
  139.1510   67.7760  225.2170 O   0  0  0  0  0  0  0  0  0  0  0  0
  139.4580   69.4420  223.6730 N   0  0  0  0  0  0  0  0  0  0  0  0
  138.9120   68.5730  222.6050 C   0  0  0  0  0  0  0  0  0  0  0  0
  139.0688   69.0621  221.6323 H   0  0  0  0  0  0  0  0  0  0  0  0
  139.4347   67.6061  222.6485 H   0  0  0  0  0  0  0  0  0  0  0  0
  137.4110   68.3150  222.7960 C   0  0  0  0  0  0  0  0  0  0  0  0
  137.0454   67.6767  221.9782 H   0  0  0  0  0  0  0  0  0  0  0  0
  137.2537   67.8148  223.7630 H   0  0  0  0  0  0  0  0  0  0  0  0
  136.6640   69.5970  222.7880 N   0  0  0  0  0  0  0  0  0  0  0  0
  135.3480   69.4950  222.1120 C   0  0  0  0  0  0  0  0  0  0  0  0
  135.1223   70.4612  221.6371 H   0  0  0  0  0  0  0  0  0  0  0  0
  135.4192   68.6814  221.3752 H   0  0  0  0  0  0  0  0  0  0  0  0
  134.1980   69.1420  223.0790 C   0  0  0  0  0  0  0  0  0  0  0  0
  133.6881   70.0664  223.3880 H   0  0  0  0  0  0  0  0  0  0  0  0
  133.4921   68.4740  222.5638 H   0  0  0  0  0  0  0  0  0  0  0  0
  134.7180   68.4580  224.2660 N   0  0  0  0  0  0  0  0  0  0  0  0
  133.9070   68.1900  224.8700 H   0  0  0  0  0  0  0  0  0  0  0  0
  135.5920   69.3500  225.0410 C   0  0  0  0  0  0  0  0  0  0  0  0
  134.9649   70.0368  225.6284 H   0  0  0  0  0  0  0  0  0  0  0  0
  136.2202   68.7235  225.6913 H   0  0  0  0  0  0  0  0  0  0  0  0
  136.5300   70.1830  224.1380 C   0  0  0  0  0  0  0  0  0  0  0  0
  136.1218   71.2002  224.0446 H   0  0  0  0  0  0  0  0  0  0  0  0
  137.5267   70.1951  224.6033 H   0  0  0  0  0  0  0  0  0  0  0  0
  140.1150   73.8000  221.7540 C   0  0  0  0  0  0  0  0  0  0  0  0
  138.7730   74.1790  221.9470 C   0  0  0  0  0  0  0  0  0  0  0  0
  137.9917   73.4126  222.0577 H   0  0  0  0  0  0  0  0  0  0  0  0
  138.4400   75.5350  221.9970 C   0  0  0  0  0  0  0  0  0  0  0  0
  137.3943   75.8364  222.1569 H   0  0  0  0  0  0  0  0  0  0  0  0
  139.4020   76.4830  221.8490 N   0  0  0  0  0  0  0  0  0  0  0  0
  140.7030   76.1490  221.6480 C   0  0  0  0  0  0  0  0  0  0  0  0
  141.4602   76.9382  221.5306 H   0  0  0  0  0  0  0  0  0  0  0  0
  141.0820   74.8050  221.5900 C   0  0  0  0  0  0  0  0  0  0  0  0
  142.1342   74.5353  221.4165 H   0  0  0  0  0  0  0  0  0  0  0  0
  1  2  1  0
  2  3  2  0
  3  4  1  0
  3  5  1  0
  5  6  2  0
  6  7  1  0
  7  8  2  0
  8  9  1  0
  8 10  1  0
 10 11  1  0
 10 12  2  0
 12 13  1  0
 12 14  1  0
 14 15  1  0
 14 16  2  0
 16 17  1  0
 17 18  2  0
 17 19  1  0
 19 20  1  0
 20 21  1  0
 20 22  1  0
 20 23  1  0
 23 24  1  0
 23 25  1  0
 23 26  1  0
 26 27  1  0
 27 28  1  0
 27 29  1  0
 27 30  1  0
 30 31  1  0
 30 32  1  0
 30 33  1  0
 33 34  1  0
 33 35  1  0
 35 36  1  0
 35 37  1  0
 35 38  1  0
 38 39  1  0
 38 40  1  0
  2 41  1  0
 41 42  2  0
 42 43  1  0
 42 44  1  0
 44 45  1  0
 44 46  2  0
 46 47  1  0
 47 48  1  0
 47 49  2  0
 49 50  1  0
 19  5  1  0
 38 26  1  0
 49 41  1  0
 16  7  1  0
M  END
>  <UniqueID>  (34) 
610

>  <SMILES>  (34) 
O=c1c2ccccc2nc(/C=C/c2ccncc2)n1CCN1CCNCC1

>  <Energy>  (34) 
70.11114427246851

>  <Genealogy>  (34) 
O=c1c2ccccc2nc(/C=C/c2ccncc2)n1CCN1CCNCC1 (cis-trans isomerization)
O=c1c2ccccc2nc(/C=C/c2ccncc2)n1CCN1CCNCC1 (3D coordinates assigned)
O=c1c2ccccc2nc(/C=C/c2ccncc2)n1CCN1CCNCC1 (nonaromatic ring conformer: 70.11114427246851 kcal/mol)

>  <smiles>  (34) 
O=c1c2ccccc2nc(/C=C/c2ccncc2)n1CCN1CCNCC1

>  <score_type>  (34) 
oracle

>  <origin>  (34) 
autodockgpu

>  <m_score__min__energy>  (34) 
-7.1699999999999999

>  <m_primary>  (34) 
energy

>  <meeko>  (34) 
{"free_energy": -7.15, "intermolecular_energy": -8.94, "internal_energy": -1.47, "cluster_size": 18, "cluster_id": 1, "rank_in_cluster": 3}

>  <energy>  (34) 
-6.79

>  <cluster_rmsd>  (34) 
1.37

>  <rmsd>  (34) 
271.35

>  <cluster>  (34) 
1

$$$$
MZUVVVBFQHRAFD-AATRIKPKNA-N
     RDKit          3D

 50 53  0  0  0  0  0  0  0  0999 V2000
  138.6420   71.8794  220.7619 H   0  0  0  0  0  0  0  0  0  0  0  0
  139.4670   72.2160  221.4070 C   0  0  0  0  0  0  0  0  0  0  0  0
  140.2840   71.2870  221.9280 C   0  0  0  0  0  0  0  0  0  0  0  0
  141.0910   70.8778  221.3025 H   0  0  0  0  0  0  0  0  0  0  0  0
  140.1340   70.7910  223.3270 C   0  0  0  0  0  0  0  0  0  0  0  0
  140.6390   71.5570  224.3320 N   0  0  0  0  0  0  0  0  0  0  0  0
  140.5320   71.2070  225.6320 C   0  0  0  0  0  0  0  0  0  0  0  0
  141.0690   72.0330  226.6270 C   0  0  0  0  0  0  0  0  0  0  0  0
  141.5850   72.9638  226.3490 H   0  0  0  0  0  0  0  0  0  0  0  0
  140.9500   71.6760  227.9730 C   0  0  0  0  0  0  0  0  0  0  0  0
  141.3703   72.3269  228.7538 H   0  0  0  0  0  0  0  0  0  0  0  0
  140.2970   70.4920  228.3270 C   0  0  0  0  0  0  0  0  0  0  0  0
  140.2052   70.2122  229.3869 H   0  0  0  0  0  0  0  0  0  0  0  0
  139.7600   69.6620  227.3380 C   0  0  0  0  0  0  0  0  0  0  0  0
  139.2463   68.7314  227.6212 H   0  0  0  0  0  0  0  0  0  0  0  0
  139.8760   70.0160  225.9800 C   0  0  0  0  0  0  0  0  0  0  0  0
  139.3550   69.2190  224.9470 C   0  0  0  0  0  0  0  0  0  0  0  0
  138.7530   68.1480  225.2410 O   0  0  0  0  0  0  0  0  0  0  0  0
  139.4920   69.6020  223.6300 N   0  0  0  0  0  0  0  0  0  0  0  0
  138.9240   68.7400  222.5700 C   0  0  0  0  0  0  0  0  0  0  0  0
  139.7468   68.3227  221.9710 H   0  0  0  0  0  0  0  0  0  0  0  0
  138.3429   67.9406  223.0530 H   0  0  0  0  0  0  0  0  0  0  0  0
  137.9830   69.5230  221.6450 C   0  0  0  0  0  0  0  0  0  0  0  0
  138.3036   70.5746  221.6071 H   0  0  0  0  0  0  0  0  0  0  0  0
  138.0211   69.0810  220.6385 H   0  0  0  0  0  0  0  0  0  0  0  0
  136.5900   69.4540  222.1500 N   0  0  0  0  0  0  0  0  0  0  0  0
  136.5150   69.3300  223.6260 C   0  0  0  0  0  0  0  0  0  0  0  0
  135.6249   68.7370  223.8829 H   0  0  0  0  0  0  0  0  0  0  0  0
  137.4434   68.8453  223.9624 H   0  0  0  0  0  0  0  0  0  0  0  0
  136.4210   70.6930  224.3430 C   0  0  0  0  0  0  0  0  0  0  0  0
  135.3658   70.9168  224.5585 H   0  0  0  0  0  0  0  0  0  0  0  0
  136.9966   70.6434  225.2791 H   0  0  0  0  0  0  0  0  0  0  0  0
  136.9770   71.7550  223.5000 N   0  0  0  0  0  0  0  0  0  0  0  0
  136.9420   72.6510  224.0390 H   0  0  0  0  0  0  0  0  0  0  0  0
  136.1770   71.9240  222.2780 C   0  0  0  0  0  0  0  0  0  0  0  0
  135.2725   72.4997  222.5240 H   0  0  0  0  0  0  0  0  0  0  0  0
  136.7987   72.4499  221.5385 H   0  0  0  0  0  0  0  0  0  0  0  0
  135.7530   70.5700  221.6630 C   0  0  0  0  0  0  0  0  0  0  0  0
  134.7049   70.3710  221.9310 H   0  0  0  0  0  0  0  0  0  0  0  0
  135.8790   70.6381  220.5724 H   0  0  0  0  0  0  0  0  0  0  0  0
  139.6150   73.6720  221.6530 C   0  0  0  0  0  0  0  0  0  0  0  0
  138.5230   74.5040  221.9680 C   0  0  0  0  0  0  0  0  0  0  0  0
  137.5108   74.0814  222.0505 H   0  0  0  0  0  0  0  0  0  0  0  0
  138.7340   75.8700  222.1750 C   0  0  0  0  0  0  0  0  0  0  0  0
  137.8862   76.5231  222.4295 H   0  0  0  0  0  0  0  0  0  0  0  0
  139.9820   76.3940  222.0630 N   0  0  0  0  0  0  0  0  0  0  0  0
  141.0530   75.6210  221.7470 C   0  0  0  0  0  0  0  0  0  0  0  0
  142.0515   76.0744  221.6609 H   0  0  0  0  0  0  0  0  0  0  0  0
  140.8880   74.2500  221.5310 C   0  0  0  0  0  0  0  0  0  0  0  0
  141.7539   73.6255  221.2660 H   0  0  0  0  0  0  0  0  0  0  0  0
  1  2  1  0
  2  3  2  0
  3  4  1  0
  3  5  1  0
  5  6  2  0
  6  7  1  0
  7  8  2  0
  8  9  1  0
  8 10  1  0
 10 11  1  0
 10 12  2  0
 12 13  1  0
 12 14  1  0
 14 15  1  0
 14 16  2  0
 16 17  1  0
 17 18  2  0
 17 19  1  0
 19 20  1  0
 20 21  1  0
 20 22  1  0
 20 23  1  0
 23 24  1  0
 23 25  1  0
 23 26  1  0
 26 27  1  0
 27 28  1  0
 27 29  1  0
 27 30  1  0
 30 31  1  0
 30 32  1  0
 30 33  1  0
 33 34  1  0
 33 35  1  0
 35 36  1  0
 35 37  1  0
 35 38  1  0
 38 39  1  0
 38 40  1  0
  2 41  1  0
 41 42  2  0
 42 43  1  0
 42 44  1  0
 44 45  1  0
 44 46  2  0
 46 47  1  0
 47 48  1  0
 47 49  2  0
 49 50  1  0
 19  5  1  0
 38 26  1  0
 49 41  1  0
 16  7  1  0
M  END
>  <UniqueID>  (35) 
610

>  <SMILES>  (35) 
O=c1c2ccccc2nc(/C=C/c2ccncc2)n1CCN1CCNCC1

>  <Energy>  (35) 
70.11114427246851

>  <Genealogy>  (35) 
O=c1c2ccccc2nc(/C=C/c2ccncc2)n1CCN1CCNCC1 (cis-trans isomerization)
O=c1c2ccccc2nc(/C=C/c2ccncc2)n1CCN1CCNCC1 (3D coordinates assigned)
O=c1c2ccccc2nc(/C=C/c2ccncc2)n1CCN1CCNCC1 (nonaromatic ring conformer: 70.11114427246851 kcal/mol)

>  <smiles>  (35) 
O=c1c2ccccc2nc(/C=C/c2ccncc2)n1CCN1CCNCC1

>  <score_type>  (35) 
oracle

>  <origin>  (35) 
autodockgpu

>  <m_score__min__energy>  (35) 
-7.1699999999999999

>  <m_primary>  (35) 
energy

>  <meeko>  (35) 
{"free_energy": -6.69, "intermolecular_energy": -8.48, "internal_energy": -1.68, "cluster_size": 18, "cluster_id": 1, "rank_in_cluster": 16}

>  <energy>  (35) 
-6.78

>  <cluster_rmsd>  (35) 
1.36

>  <rmsd>  (35) 
271.35

>  <cluster>  (35) 
1

$$$$
MZUVVVBFQHRAFD-AATRIKPKNA-N
     RDKit          3D

 50 53  0  0  0  0  0  0  0  0999 V2000
  141.5930   72.0254  221.2384 H   0  0  0  0  0  0  0  0  0  0  0  0
  140.5970   72.2780  221.6310 C   0  0  0  0  0  0  0  0  0  0  0  0
  139.8000   71.2750  222.0300 C   0  0  0  0  0  0  0  0  0  0  0  0
  139.0667   70.8643  221.3203 H   0  0  0  0  0  0  0  0  0  0  0  0
  139.8750   70.6980  223.4040 C   0  0  0  0  0  0  0  0  0  0  0  0
  140.3560   71.4900  224.4010 N   0  0  0  0  0  0  0  0  0  0  0  0
  140.4400   71.0690  225.6820 C   0  0  0  0  0  0  0  0  0  0  0  0
  140.9400   71.9260  226.6700 C   0  0  0  0  0  0  0  0  0  0  0  0
  141.2708   72.9402  226.4017 H   0  0  0  0  0  0  0  0  0  0  0  0
  141.0190   71.4940  227.9960 C   0  0  0  0  0  0  0  0  0  0  0  0
  141.4104   72.1688  228.7715 H   0  0  0  0  0  0  0  0  0  0  0  0
  140.6010   70.2050  228.3380 C   0  0  0  0  0  0  0  0  0  0  0  0
  140.6656   69.8664  229.3826 H   0  0  0  0  0  0  0  0  0  0  0  0
  140.1010   69.3450  227.3560 C   0  0  0  0  0  0  0  0  0  0  0  0
  139.7710   68.3320  227.6297 H   0  0  0  0  0  0  0  0  0  0  0  0
  140.0190   69.7730  226.0170 C   0  0  0  0  0  0  0  0  0  0  0  0
  139.5250   68.9500  224.9920 C   0  0  0  0  0  0  0  0  0  0  0  0
  139.1330   67.7830  225.2750 O   0  0  0  0  0  0  0  0  0  0  0  0
  139.4630   69.4090  223.6940 N   0  0  0  0  0  0  0  0  0  0  0  0
  138.9310   68.5140  222.6420 C   0  0  0  0  0  0  0  0  0  0  0  0
  139.1068   68.9754  221.6590 H   0  0  0  0  0  0  0  0  0  0  0  0
  139.4480   67.5463  222.7213 H   0  0  0  0  0  0  0  0  0  0  0  0
  137.4260   68.2680  222.8140 C   0  0  0  0  0  0  0  0  0  0  0  0
  137.0685   67.6211  221.9993 H   0  0  0  0  0  0  0  0  0  0  0  0
  137.2514   67.7819  223.7852 H   0  0  0  0  0  0  0  0  0  0  0  0
  136.6870   69.5540  222.7780 N   0  0  0  0  0  0  0  0  0  0  0  0
  135.3840   69.4540  222.0760 C   0  0  0  0  0  0  0  0  0  0  0  0
  135.1745   70.4170  221.5874 H   0  0  0  0  0  0  0  0  0  0  0  0
  135.4648   68.6329  221.3485 H   0  0  0  0  0  0  0  0  0  0  0  0
  134.2130   69.1180  223.0220 C   0  0  0  0  0  0  0  0  0  0  0  0
  133.7025   70.0486  223.3109 H   0  0  0  0  0  0  0  0  0  0  0  0
  133.5140   68.4487  222.4991 H   0  0  0  0  0  0  0  0  0  0  0  0
  134.7040   68.4430  224.2270 N   0  0  0  0  0  0  0  0  0  0  0  0
  133.8780   68.1870  224.8170 H   0  0  0  0  0  0  0  0  0  0  0  0
  135.5680   69.3380  225.0110 C   0  0  0  0  0  0  0  0  0  0  0  0
  134.9335   70.0345  225.5787 H   0  0  0  0  0  0  0  0  0  0  0  0
  136.1790   68.7148  225.6805 H   0  0  0  0  0  0  0  0  0  0  0  0
  136.5290   70.1560  224.1180 C   0  0  0  0  0  0  0  0  0  0  0  0
  136.1284   71.1742  224.0049 H   0  0  0  0  0  0  0  0  0  0  0  0
  137.5160   70.1683  224.6034 H   0  0  0  0  0  0  0  0  0  0  0  0
  140.2090   73.7100  221.6900 C   0  0  0  0  0  0  0  0  0  0  0  0
  141.1430   74.7560  221.5610 C   0  0  0  0  0  0  0  0  0  0  0  0
  142.2077   74.5307  221.4006 H   0  0  0  0  0  0  0  0  0  0  0  0
  140.7090   76.0810  221.6380 C   0  0  0  0  0  0  0  0  0  0  0  0
  141.4329   76.9019  221.5282 H   0  0  0  0  0  0  0  0  0  0  0  0
  139.3960   76.3600  221.8480 N   0  0  0  0  0  0  0  0  0  0  0  0
  138.4730   75.3740  221.9910 C   0  0  0  0  0  0  0  0  0  0  0  0
  137.4171   75.6306  222.1621 H   0  0  0  0  0  0  0  0  0  0  0  0
  138.8630   74.0340  221.9210 C   0  0  0  0  0  0  0  0  0  0  0  0
  138.1172   73.2353  222.0466 H   0  0  0  0  0  0  0  0  0  0  0  0
  1  2  1  0
  2  3  2  0
  3  4  1  0
  3  5  1  0
  5  6  2  0
  6  7  1  0
  7  8  2  0
  8  9  1  0
  8 10  1  0
 10 11  1  0
 10 12  2  0
 12 13  1  0
 12 14  1  0
 14 15  1  0
 14 16  2  0
 16 17  1  0
 17 18  2  0
 17 19  1  0
 19 20  1  0
 20 21  1  0
 20 22  1  0
 20 23  1  0
 23 24  1  0
 23 25  1  0
 23 26  1  0
 26 27  1  0
 27 28  1  0
 27 29  1  0
 27 30  1  0
 30 31  1  0
 30 32  1  0
 30 33  1  0
 33 34  1  0
 33 35  1  0
 35 36  1  0
 35 37  1  0
 35 38  1  0
 38 39  1  0
 38 40  1  0
  2 41  1  0
 41 42  2  0
 42 43  1  0
 42 44  1  0
 44 45  1  0
 44 46  2  0
 46 47  1  0
 47 48  1  0
 47 49  2  0
 49 50  1  0
 19  5  1  0
 38 26  1  0
 49 41  1  0
 16  7  1  0
M  END
>  <UniqueID>  (36) 
610

>  <SMILES>  (36) 
O=c1c2ccccc2nc(/C=C/c2ccncc2)n1CCN1CCNCC1

>  <Energy>  (36) 
70.11114427246851

>  <Genealogy>  (36) 
O=c1c2ccccc2nc(/C=C/c2ccncc2)n1CCN1CCNCC1 (cis-trans isomerization)
O=c1c2ccccc2nc(/C=C/c2ccncc2)n1CCN1CCNCC1 (3D coordinates assigned)
O=c1c2ccccc2nc(/C=C/c2ccncc2)n1CCN1CCNCC1 (nonaromatic ring conformer: 70.11114427246851 kcal/mol)

>  <smiles>  (36) 
O=c1c2ccccc2nc(/C=C/c2ccncc2)n1CCN1CCNCC1

>  <score_type>  (36) 
oracle

>  <origin>  (36) 
autodockgpu

>  <m_score__min__energy>  (36) 
-7.1699999999999999

>  <m_primary>  (36) 
energy

>  <meeko>  (36) 
{"free_energy": -7.11, "intermolecular_energy": -8.9, "internal_energy": -1.49, "cluster_size": 18, "cluster_id": 1, "rank_in_cluster": 9}

>  <energy>  (36) 
-6.69

>  <cluster_rmsd>  (36) 
1.39

>  <rmsd>  (36) 
271.31

>  <cluster>  (36) 
1

$$$$
MZUVVVBFQHRAFD-AATRIKPKNA-N
     RDKit          3D

 50 53  0  0  0  0  0  0  0  0999 V2000
  144.2146   76.7994  219.6516 H   0  0  0  0  0  0  0  0  0  0  0  0
  143.6640   75.8490  219.7110 C   0  0  0  0  0  0  0  0  0  0  0  0
  142.3230   75.8950  219.7560 C   0  0  0  0  0  0  0  0  0  0  0  0
  141.7458   75.2926  219.0391 H   0  0  0  0  0  0  0  0  0  0  0  0
  141.5900   76.7360  220.7460 C   0  0  0  0  0  0  0  0  0  0  0  0
  142.1850   77.8830  221.1720 N   0  0  0  0  0  0  0  0  0  0  0  0
  141.5920   78.7240  222.0470 C   0  0  0  0  0  0  0  0  0  0  0  0
  142.2490   79.8930  222.4500 C   0  0  0  0  0  0  0  0  0  0  0  0
  143.2512   80.1226  222.0591 H   0  0  0  0  0  0  0  0  0  0  0  0
  141.6330   80.7680  223.3480 C   0  0  0  0  0  0  0  0  0  0  0  0
  142.1495   81.6868  223.6626 H   0  0  0  0  0  0  0  0  0  0  0  0
  140.3600   80.4760  223.8470 C   0  0  0  0  0  0  0  0  0  0  0  0
  139.8771   81.1653  224.5553 H   0  0  0  0  0  0  0  0  0  0  0  0
  139.6990   79.3100  223.4480 C   0  0  0  0  0  0  0  0  0  0  0  0
  138.6967   79.0850  223.8413 H   0  0  0  0  0  0  0  0  0  0  0  0
  140.3150   78.4230  222.5430 C   0  0  0  0  0  0  0  0  0  0  0  0
  139.6960   77.2390  222.1100 C   0  0  0  0  0  0  0  0  0  0  0  0
  138.5420   76.9560  222.5390 O   0  0  0  0  0  0  0  0  0  0  0  0
  140.3350   76.3990  221.2240 N   0  0  0  0  0  0  0  0  0  0  0  0
  139.6480   75.1630  220.7870 C   0  0  0  0  0  0  0  0  0  0  0  0
  138.7031   75.4356  220.2941 H   0  0  0  0  0  0  0  0  0  0  0  0
  140.3138   74.6273  220.0944 H   0  0  0  0  0  0  0  0  0  0  0  0
  139.3420   74.2350  221.9700 C   0  0  0  0  0  0  0  0  0  0  0  0
  139.0183   74.8389  222.8306 H   0  0  0  0  0  0  0  0  0  0  0  0
  138.5444   73.5356  221.6790 H   0  0  0  0  0  0  0  0  0  0  0  0
  140.5510   73.4600  222.3430 N   0  0  0  0  0  0  0  0  0  0  0  0
  140.2390   72.2420  223.1300 C   0  0  0  0  0  0  0  0  0  0  0  0
  141.0694   72.0524  223.8261 H   0  0  0  0  0  0  0  0  0  0  0  0
  139.2926   72.4264  223.6595 H   0  0  0  0  0  0  0  0  0  0  0  0
  140.0390   70.9900  222.2510 C   0  0  0  0  0  0  0  0  0  0  0  0
  140.9796   70.4210  222.2118 H   0  0  0  0  0  0  0  0  0  0  0  0
  139.2404   70.3723  222.6877 H   0  0  0  0  0  0  0  0  0  0  0  0
  139.6510   71.3750  220.8910 N   0  0  0  0  0  0  0  0  0  0  0  0
  139.4760   70.5020  220.3420 H   0  0  0  0  0  0  0  0  0  0  0  0
  140.7330   72.1210  220.2310 C   0  0  0  0  0  0  0  0  0  0  0  0
  141.4949   71.4072  219.8846 H   0  0  0  0  0  0  0  0  0  0  0  0
  140.2939   72.6785  219.3905 H   0  0  0  0  0  0  0  0  0  0  0  0
  141.4030   73.1430  221.1790 C   0  0  0  0  0  0  0  0  0  0  0  0
  142.3539   72.7231  221.5389 H   0  0  0  0  0  0  0  0  0  0  0  0
  141.5666   74.0730  220.6147 H   0  0  0  0  0  0  0  0  0  0  0  0
  144.4450   74.5870  219.7370 C   0  0  0  0  0  0  0  0  0  0  0  0
  145.2390   74.2080  220.8370 C   0  0  0  0  0  0  0  0  0  0  0  0
  145.2926   74.8497  221.7288 H   0  0  0  0  0  0  0  0  0  0  0  0
  145.9580   73.0110  220.7870 C   0  0  0  0  0  0  0  0  0  0  0  0
  146.5730   72.7054  221.6463 H   0  0  0  0  0  0  0  0  0  0  0  0
  145.9010   72.2230  219.6820 N   0  0  0  0  0  0  0  0  0  0  0  0
  145.1560   72.5680  218.6000 C   0  0  0  0  0  0  0  0  0  0  0  0
  145.1310   71.9107  217.7184 H   0  0  0  0  0  0  0  0  0  0  0  0
  144.4210   73.7570  218.6050 C   0  0  0  0  0  0  0  0  0  0  0  0
  143.8257   74.0414  217.7248 H   0  0  0  0  0  0  0  0  0  0  0  0
  1  2  1  0
  2  3  2  0
  3  4  1  0
  3  5  1  0
  5  6  2  0
  6  7  1  0
  7  8  2  0
  8  9  1  0
  8 10  1  0
 10 11  1  0
 10 12  2  0
 12 13  1  0
 12 14  1  0
 14 15  1  0
 14 16  2  0
 16 17  1  0
 17 18  2  0
 17 19  1  0
 19 20  1  0
 20 21  1  0
 20 22  1  0
 20 23  1  0
 23 24  1  0
 23 25  1  0
 23 26  1  0
 26 27  1  0
 27 28  1  0
 27 29  1  0
 27 30  1  0
 30 31  1  0
 30 32  1  0
 30 33  1  0
 33 34  1  0
 33 35  1  0
 35 36  1  0
 35 37  1  0
 35 38  1  0
 38 39  1  0
 38 40  1  0
  2 41  1  0
 41 42  2  0
 42 43  1  0
 42 44  1  0
 44 45  1  0
 44 46  2  0
 46 47  1  0
 47 48  1  0
 47 49  2  0
 49 50  1  0
 19  5  1  0
 38 26  1  0
 49 41  1  0
 16  7  1  0
M  END
>  <UniqueID>  (37) 
610

>  <SMILES>  (37) 
O=c1c2ccccc2nc(/C=C/c2ccncc2)n1CCN1CCNCC1

>  <Energy>  (37) 
70.11114427246851

>  <Genealogy>  (37) 
O=c1c2ccccc2nc(/C=C/c2ccncc2)n1CCN1CCNCC1 (cis-trans isomerization)
O=c1c2ccccc2nc(/C=C/c2ccncc2)n1CCN1CCNCC1 (3D coordinates assigned)
O=c1c2ccccc2nc(/C=C/c2ccncc2)n1CCN1CCNCC1 (nonaromatic ring conformer: 70.11114427246851 kcal/mol)

>  <smiles>  (37) 
O=c1c2ccccc2nc(/C=C/c2ccncc2)n1CCN1CCNCC1

>  <score_type>  (37) 
oracle

>  <origin>  (37) 
autodockgpu

>  <m_score__min__energy>  (37) 
-7.1699999999999999

>  <m_primary>  (37) 
energy

>  <meeko>  (37) 
{"free_energy": -6.8, "intermolecular_energy": -8.59, "internal_energy": -1.38, "cluster_size": 1, "cluster_id": 2, "rank_in_cluster": 1}

>  <energy>  (37) 
-6.65

>  <cluster_rmsd>  (37) 
0.8

>  <rmsd>  (37) 
271.04

>  <cluster>  (37) 
1

$$$$
MZUVVVBFQHRAFD-AATRIKPKNA-N
     RDKit          3D

 50 53  0  0  0  0  0  0  0  0999 V2000
  139.5466   73.6560  222.2339 H   0  0  0  0  0  0  0  0  0  0  0  0
  140.1480   72.7760  221.9620 C   0  0  0  0  0  0  0  0  0  0  0  0
  139.6300   71.5590  222.1900 C   0  0  0  0  0  0  0  0  0  0  0  0
  139.0794   71.0557  221.3816 H   0  0  0  0  0  0  0  0  0  0  0  0
  139.7760   70.8660  223.5030 C   0  0  0  0  0  0  0  0  0  0  0  0
  140.2730   71.5820  224.5480 N   0  0  0  0  0  0  0  0  0  0  0  0
  140.4200   71.0530  225.7830 C   0  0  0  0  0  0  0  0  0  0  0  0
  140.9340   71.8350  226.8240 C   0  0  0  0  0  0  0  0  0  0  0  0
  141.2239   72.8792  226.6356 H   0  0  0  0  0  0  0  0  0  0  0  0
  141.0790   71.2900  228.1020 C   0  0  0  0  0  0  0  0  0  0  0  0
  141.4834   71.9056  228.9190 H   0  0  0  0  0  0  0  0  0  0  0  0
  140.7110   69.9640  228.3440 C   0  0  0  0  0  0  0  0  0  0  0  0
  140.8263   69.5372  229.3512 H   0  0  0  0  0  0  0  0  0  0  0  0
  140.1960   69.1780  227.3070 C   0  0  0  0  0  0  0  0  0  0  0  0
  139.9054   68.1350  227.5013 H   0  0  0  0  0  0  0  0  0  0  0  0
  140.0490   69.7190  226.0160 C   0  0  0  0  0  0  0  0  0  0  0  0
  139.5390   68.9750  224.9400 C   0  0  0  0  0  0  0  0  0  0  0  0
  139.1910   67.7760  225.1330 O   0  0  0  0  0  0  0  0  0  0  0  0
  139.4120   69.5440  223.6920 N   0  0  0  0  0  0  0  0  0  0  0  0
  138.8640   68.7290  222.5840 C   0  0  0  0  0  0  0  0  0  0  0  0
  138.9380   69.3030  221.6486 H   0  0  0  0  0  0  0  0  0  0  0  0
  139.4466   67.7981  222.5217 H   0  0  0  0  0  0  0  0  0  0  0  0
  137.3940   68.3590  222.8260 C   0  0  0  0  0  0  0  0  0  0  0  0
  137.0837   67.6039  222.0888 H   0  0  0  0  0  0  0  0  0  0  0  0
  137.2892   67.9566  223.8444 H   0  0  0  0  0  0  0  0  0  0  0  0
  136.5320   69.5590  222.6900 N   0  0  0  0  0  0  0  0  0  0  0  0
  135.2000   69.2520  222.1130 C   0  0  0  0  0  0  0  0  0  0  0  0
  134.8639   70.1194  221.5259 H   0  0  0  0  0  0  0  0  0  0  0  0
  135.3108   68.3524  221.4898 H   0  0  0  0  0  0  0  0  0  0  0  0
  134.1350   68.9420  223.1860 C   0  0  0  0  0  0  0  0  0  0  0  0
  133.5574   69.8541  223.3969 H   0  0  0  0  0  0  0  0  0  0  0  0
  133.4702   68.1508  222.8092 H   0  0  0  0  0  0  0  0  0  0  0  0
  134.7710   68.4780  224.4210 N   0  0  0  0  0  0  0  0  0  0  0  0
  134.0180   68.2310  225.1030 H   0  0  0  0  0  0  0  0  0  0  0  0
  135.5960   69.5420  225.0150 C   0  0  0  0  0  0  0  0  0  0  0  0
  134.9371   70.2490  225.5404 H   0  0  0  0  0  0  0  0  0  0  0  0
  136.3094   69.0688  225.7058 H   0  0  0  0  0  0  0  0  0  0  0  0
  136.4090   70.3160  223.9520 C   0  0  0  0  0  0  0  0  0  0  0  0
  135.9044   71.2713  223.7453 H   0  0  0  0  0  0  0  0  0  0  0  0
  137.4213   70.4786  224.3506 H   0  0  0  0  0  0  0  0  0  0  0  0
  141.4880   73.0000  221.3630 C   0  0  0  0  0  0  0  0  0  0  0  0
  142.4300   71.9660  221.2020 C   0  0  0  0  0  0  0  0  0  0  0  0
  142.1853   70.9405  221.5157 H   0  0  0  0  0  0  0  0  0  0  0  0
  143.6780   72.2510  220.6410 C   0  0  0  0  0  0  0  0  0  0  0  0
  144.4148   71.4456  220.5050 H   0  0  0  0  0  0  0  0  0  0  0  0
  143.9840   73.5200  220.2630 N   0  0  0  0  0  0  0  0  0  0  0  0
  143.1020   74.5400  220.4180 C   0  0  0  0  0  0  0  0  0  0  0  0
  143.3790   75.5573  220.1043 H   0  0  0  0  0  0  0  0  0  0  0  0
  141.8430   74.3010  220.9750 C   0  0  0  0  0  0  0  0  0  0  0  0
  141.1325   75.1300  221.1089 H   0  0  0  0  0  0  0  0  0  0  0  0
  1  2  1  0
  2  3  2  0
  3  4  1  0
  3  5  1  0
  5  6  2  0
  6  7  1  0
  7  8  2  0
  8  9  1  0
  8 10  1  0
 10 11  1  0
 10 12  2  0
 12 13  1  0
 12 14  1  0
 14 15  1  0
 14 16  2  0
 16 17  1  0
 17 18  2  0
 17 19  1  0
 19 20  1  0
 20 21  1  0
 20 22  1  0
 20 23  1  0
 23 24  1  0
 23 25  1  0
 23 26  1  0
 26 27  1  0
 27 28  1  0
 27 29  1  0
 27 30  1  0
 30 31  1  0
 30 32  1  0
 30 33  1  0
 33 34  1  0
 33 35  1  0
 35 36  1  0
 35 37  1  0
 35 38  1  0
 38 39  1  0
 38 40  1  0
  2 41  1  0
 41 42  2  0
 42 43  1  0
 42 44  1  0
 44 45  1  0
 44 46  2  0
 46 47  1  0
 47 48  1  0
 47 49  2  0
 49 50  1  0
 19  5  1  0
 38 26  1  0
 49 41  1  0
 16  7  1  0
M  END
>  <UniqueID>  (38) 
610

>  <SMILES>  (38) 
O=c1c2ccccc2nc(/C=C/c2ccncc2)n1CCN1CCNCC1

>  <Energy>  (38) 
70.11114427246851

>  <Genealogy>  (38) 
O=c1c2ccccc2nc(/C=C/c2ccncc2)n1CCN1CCNCC1 (cis-trans isomerization)
O=c1c2ccccc2nc(/C=C/c2ccncc2)n1CCN1CCNCC1 (3D coordinates assigned)
O=c1c2ccccc2nc(/C=C/c2ccncc2)n1CCN1CCNCC1 (nonaromatic ring conformer: 70.11114427246851 kcal/mol)

>  <smiles>  (38) 
O=c1c2ccccc2nc(/C=C/c2ccncc2)n1CCN1CCNCC1

>  <score_type>  (38) 
oracle

>  <origin>  (38) 
autodockgpu

>  <m_score__min__energy>  (38) 
-7.1699999999999999

>  <m_primary>  (38) 
energy

>  <meeko>  (38) 
{"free_energy": -7.15, "intermolecular_energy": -8.94, "internal_energy": -1.41, "cluster_size": 18, "cluster_id": 1, "rank_in_cluster": 4}

>  <energy>  (38) 
-5.97

>  <cluster_rmsd>  (38) 
1.6

>  <rmsd>  (38) 
270.62

>  <cluster>  (38) 
1

$$$$
MZUVVVBFQHRAFD-AATRIKPKNA-N
     RDKit          3D

 50 53  0  0  0  0  0  0  0  0999 V2000
  139.5044   73.5772  222.1020 H   0  0  0  0  0  0  0  0  0  0  0  0
  140.1520   72.7170  221.8770 C   0  0  0  0  0  0  0  0  0  0  0  0
  139.6790   71.4860  222.1260 C   0  0  0  0  0  0  0  0  0  0  0  0
  139.1589   70.9437  221.3226 H   0  0  0  0  0  0  0  0  0  0  0  0
  139.8350   70.8290  223.4550 C   0  0  0  0  0  0  0  0  0  0  0  0
  140.3370   71.5730  224.4780 N   0  0  0  0  0  0  0  0  0  0  0  0
  140.4930   71.0770  225.7250 C   0  0  0  0  0  0  0  0  0  0  0  0
  141.0120   71.8870  226.7420 C   0  0  0  0  0  0  0  0  0  0  0  0
  141.2997   72.9261  226.5239 H   0  0  0  0  0  0  0  0  0  0  0  0
  141.1650   71.3770  228.0340 C   0  0  0  0  0  0  0  0  0  0  0  0
  141.5712   72.0152  228.8325 H   0  0  0  0  0  0  0  0  0  0  0  0
  140.8020   70.0560  228.3120 C   0  0  0  0  0  0  0  0  0  0  0  0
  140.9251   69.6559  229.3292 H   0  0  0  0  0  0  0  0  0  0  0  0
  140.2830   69.2420  227.3010 C   0  0  0  0  0  0  0  0  0  0  0  0
  139.9967   68.2038  227.5248 H   0  0  0  0  0  0  0  0  0  0  0  0
  140.1260   69.7490  225.9960 C   0  0  0  0  0  0  0  0  0  0  0  0
  139.6110   68.9750  224.9440 C   0  0  0  0  0  0  0  0  0  0  0  0
  139.2670   67.7810  225.1700 O   0  0  0  0  0  0  0  0  0  0  0  0
  139.4750   69.5110  223.6810 N   0  0  0  0  0  0  0  0  0  0  0  0
  138.9220   68.6660  222.5990 C   0  0  0  0  0  0  0  0  0  0  0  0
  139.0697   69.1773  221.6363 H   0  0  0  0  0  0  0  0  0  0  0  0
  139.4468   67.6994  222.6160 H   0  0  0  0  0  0  0  0  0  0  0  0
  137.4230   68.4010  222.7970 C   0  0  0  0  0  0  0  0  0  0  0  0
  137.0401   67.8252  221.9415 H   0  0  0  0  0  0  0  0  0  0  0  0
  137.2798   67.8327  223.7279 H   0  0  0  0  0  0  0  0  0  0  0  0
  136.6830   69.6820  222.8950 N   0  0  0  0  0  0  0  0  0  0  0  0
  135.3710   69.6470  222.2020 C   0  0  0  0  0  0  0  0  0  0  0  0
  135.1542   70.6522  221.8114 H   0  0  0  0  0  0  0  0  0  0  0  0
  135.4441   68.9003  221.3976 H   0  0  0  0  0  0  0  0  0  0  0  0
  134.2120   69.2180  223.1250 C   0  0  0  0  0  0  0  0  0  0  0  0
  133.7040   70.1150  223.5090 H   0  0  0  0  0  0  0  0  0  0  0  0
  133.5075   68.6009  222.5480 H   0  0  0  0  0  0  0  0  0  0  0  0
  134.7180   68.4310  224.2520 N   0  0  0  0  0  0  0  0  0  0  0  0
  133.9000   68.1170  224.8240 H   0  0  0  0  0  0  0  0  0  0  0  0
  135.5900   69.2490  225.1090 C   0  0  0  0  0  0  0  0  0  0  0  0
  134.9610   69.8865  225.7478 H   0  0  0  0  0  0  0  0  0  0  0  0
  136.2092   68.5658  225.7089 H   0  0  0  0  0  0  0  0  0  0  0  0
  136.5400   70.1510  224.2880 C   0  0  0  0  0  0  0  0  0  0  0  0
  136.1374   71.1746  224.2784 H   0  0  0  0  0  0  0  0  0  0  0  0
  137.5326   70.1178  224.7609 H   0  0  0  0  0  0  0  0  0  0  0  0
  141.5000   72.9830  221.3150 C   0  0  0  0  0  0  0  0  0  0  0  0
  142.4730   71.9750  221.1670 C   0  0  0  0  0  0  0  0  0  0  0  0
  142.2477   70.9400  221.4636 H   0  0  0  0  0  0  0  0  0  0  0  0
  143.7260   72.2990  220.6410 C   0  0  0  0  0  0  0  0  0  0  0  0
  144.4867   71.5145  220.5153 H   0  0  0  0  0  0  0  0  0  0  0  0
  144.0090   73.5790  220.2840 N   0  0  0  0  0  0  0  0  0  0  0  0
  143.0970   74.5750  220.4270 C   0  0  0  0  0  0  0  0  0  0  0  0
  143.3551   75.6024  220.1307 H   0  0  0  0  0  0  0  0  0  0  0  0
  141.8310   74.2970  220.9500 C   0  0  0  0  0  0  0  0  0  0  0  0
  141.0961   75.1059  221.0751 H   0  0  0  0  0  0  0  0  0  0  0  0
  1  2  1  0
  2  3  2  0
  3  4  1  0
  3  5  1  0
  5  6  2  0
  6  7  1  0
  7  8  2  0
  8  9  1  0
  8 10  1  0
 10 11  1  0
 10 12  2  0
 12 13  1  0
 12 14  1  0
 14 15  1  0
 14 16  2  0
 16 17  1  0
 17 18  2  0
 17 19  1  0
 19 20  1  0
 20 21  1  0
 20 22  1  0
 20 23  1  0
 23 24  1  0
 23 25  1  0
 23 26  1  0
 26 27  1  0
 27 28  1  0
 27 29  1  0
 27 30  1  0
 30 31  1  0
 30 32  1  0
 30 33  1  0
 33 34  1  0
 33 35  1  0
 35 36  1  0
 35 37  1  0
 35 38  1  0
 38 39  1  0
 38 40  1  0
  2 41  1  0
 41 42  2  0
 42 43  1  0
 42 44  1  0
 44 45  1  0
 44 46  2  0
 46 47  1  0
 47 48  1  0
 47 49  2  0
 49 50  1  0
 19  5  1  0
 38 26  1  0
 49 41  1  0
 16  7  1  0
M  END
>  <UniqueID>  (39) 
610

>  <SMILES>  (39) 
O=c1c2ccccc2nc(/C=C/c2ccncc2)n1CCN1CCNCC1

>  <Energy>  (39) 
70.11114427246851

>  <Genealogy>  (39) 
O=c1c2ccccc2nc(/C=C/c2ccncc2)n1CCN1CCNCC1 (cis-trans isomerization)
O=c1c2ccccc2nc(/C=C/c2ccncc2)n1CCN1CCNCC1 (3D coordinates assigned)
O=c1c2ccccc2nc(/C=C/c2ccncc2)n1CCN1CCNCC1 (nonaromatic ring conformer: 70.11114427246851 kcal/mol)

>  <smiles>  (39) 
O=c1c2ccccc2nc(/C=C/c2ccncc2)n1CCN1CCNCC1

>  <score_type>  (39) 
oracle

>  <origin>  (39) 
autodockgpu

>  <m_score__min__energy>  (39) 
-7.1699999999999999

>  <m_primary>  (39) 
energy

>  <meeko>  (39) 
{"free_energy": -7.09, "intermolecular_energy": -8.88, "internal_energy": -1.43, "cluster_size": 18, "cluster_id": 1, "rank_in_cluster": 11}

>  <energy>  (39) 
-6.8

>  <cluster_rmsd>  (39) 
0.0

>  <rmsd>  (39) 
271.68

>  <cluster>  (39) 
2

$$$$
MZUVVVBFQHRAFD-AATRIKPKNA-N
     RDKit          3D

 50 53  0  0  0  0  0  0  0  0999 V2000
  141.8444   72.1426  221.2799 H   0  0  0  0  0  0  0  0  0  0  0  0
  140.8170   72.3250  221.6280 C   0  0  0  0  0  0  0  0  0  0  0  0
  140.0610   71.2650  221.9550 C   0  0  0  0  0  0  0  0  0  0  0  0
  139.4598   70.7791  221.1724 H   0  0  0  0  0  0  0  0  0  0  0  0
  140.0090   70.7240  223.3440 C   0  0  0  0  0  0  0  0  0  0  0  0
  140.5400   71.4820  224.3420 N   0  0  0  0  0  0  0  0  0  0  0  0
  140.5200   71.0910  225.6350 C   0  0  0  0  0  0  0  0  0  0  0  0
  141.0790   71.9110  226.6230 C   0  0  0  0  0  0  0  0  0  0  0  0
  141.5403   72.8702  226.3452 H   0  0  0  0  0  0  0  0  0  0  0  0
  141.0510   71.5110  227.9620 C   0  0  0  0  0  0  0  0  0  0  0  0
  141.4896   72.1560  228.7376 H   0  0  0  0  0  0  0  0  0  0  0  0
  140.4660   70.2920  228.3160 C   0  0  0  0  0  0  0  0  0  0  0  0
  140.4463   69.9787  229.3702 H   0  0  0  0  0  0  0  0  0  0  0  0
  139.9060   69.4700  227.3340 C   0  0  0  0  0  0  0  0  0  0  0  0
  139.4441   68.5128  227.6174 H   0  0  0  0  0  0  0  0  0  0  0  0
  139.9320   69.8650  225.9820 C   0  0  0  0  0  0  0  0  0  0  0  0
  139.3850   69.0770  224.9560 C   0  0  0  0  0  0  0  0  0  0  0  0
  138.8430   67.9750  225.2500 O   0  0  0  0  0  0  0  0  0  0  0  0
  139.4320   69.5030  223.6460 N   0  0  0  0  0  0  0  0  0  0  0  0
  138.8390   68.6470  222.5930 C   0  0  0  0  0  0  0  0  0  0  0  0
  139.6479   68.2282  221.9763 H   0  0  0  0  0  0  0  0  0  0  0  0
  138.2639   67.8479  223.0837 H   0  0  0  0  0  0  0  0  0  0  0  0
  137.8840   69.4390  221.6900 C   0  0  0  0  0  0  0  0  0  0  0  0
  138.2253   70.4829  221.6277 H   0  0  0  0  0  0  0  0  0  0  0  0
  137.8785   68.9844  220.6884 H   0  0  0  0  0  0  0  0  0  0  0  0
  136.5080   69.4060  222.2430 N   0  0  0  0  0  0  0  0  0  0  0  0
  136.4800   69.3210  223.7230 C   0  0  0  0  0  0  0  0  0  0  0  0
  135.5897   68.7494  224.0242 H   0  0  0  0  0  0  0  0  0  0  0  0
  137.4114   68.8299  224.0413 H   0  0  0  0  0  0  0  0  0  0  0  0
  136.4310   70.7030  224.4070 C   0  0  0  0  0  0  0  0  0  0  0  0
  135.3871   70.9494  224.6511 H   0  0  0  0  0  0  0  0  0  0  0  0
  137.0366   70.6678  225.3246 H   0  0  0  0  0  0  0  0  0  0  0  0
  136.9750   71.7340  223.5190 N   0  0  0  0  0  0  0  0  0  0  0  0
  136.9720   72.6440  224.0350 H   0  0  0  0  0  0  0  0  0  0  0  0
  136.1370   71.8840  222.3190 C   0  0  0  0  0  0  0  0  0  0  0  0
  135.2497   72.4799  222.5793 H   0  0  0  0  0  0  0  0  0  0  0  0
  136.7417   72.3808  221.5460 H   0  0  0  0  0  0  0  0  0  0  0  0
  135.6730   70.5220  221.7540 C   0  0  0  0  0  0  0  0  0  0  0  0
  134.6312   70.3468  222.0606 H   0  0  0  0  0  0  0  0  0  0  0  0
  135.7647   70.5599  220.6585 H   0  0  0  0  0  0  0  0  0  0  0  0
  140.3440   73.7290  221.7100 C   0  0  0  0  0  0  0  0  0  0  0  0
  141.2100   74.8320  221.5750 C   0  0  0  0  0  0  0  0  0  0  0  0
  142.2831   74.6742  221.3920 H   0  0  0  0  0  0  0  0  0  0  0  0
  140.6970   76.1270  221.6750 C   0  0  0  0  0  0  0  0  0  0  0  0
  141.3674   76.9916  221.5613 H   0  0  0  0  0  0  0  0  0  0  0  0
  139.3740   76.3240  221.9120 N   0  0  0  0  0  0  0  0  0  0  0  0
  138.5160   75.2810  222.0610 C   0  0  0  0  0  0  0  0  0  0  0  0
  137.4499   75.4707  222.2545 H   0  0  0  0  0  0  0  0  0  0  0  0
  138.9850   73.9680  221.9690 C   0  0  0  0  0  0  0  0  0  0  0  0
  138.2915   73.1241  222.0991 H   0  0  0  0  0  0  0  0  0  0  0  0
  1  2  1  0
  2  3  2  0
  3  4  1  0
  3  5  1  0
  5  6  2  0
  6  7  1  0
  7  8  2  0
  8  9  1  0
  8 10  1  0
 10 11  1  0
 10 12  2  0
 12 13  1  0
 12 14  1  0
 14 15  1  0
 14 16  2  0
 16 17  1  0
 17 18  2  0
 17 19  1  0
 19 20  1  0
 20 21  1  0
 20 22  1  0
 20 23  1  0
 23 24  1  0
 23 25  1  0
 23 26  1  0
 26 27  1  0
 27 28  1  0
 27 29  1  0
 27 30  1  0
 30 31  1  0
 30 32  1  0
 30 33  1  0
 33 34  1  0
 33 35  1  0
 35 36  1  0
 35 37  1  0
 35 38  1  0
 38 39  1  0
 38 40  1  0
  2 41  1  0
 41 42  2  0
 42 43  1  0
 42 44  1  0
 44 45  1  0
 44 46  2  0
 46 47  1  0
 47 48  1  0
 47 49  2  0
 49 50  1  0
 19  5  1  0
 38 26  1  0
 49 41  1  0
 16  7  1  0
M  END
>  <UniqueID>  (40) 
610

>  <SMILES>  (40) 
O=c1c2ccccc2nc(/C=C/c2ccncc2)n1CCN1CCNCC1

>  <Energy>  (40) 
70.11114427246851

>  <Genealogy>  (40) 
O=c1c2ccccc2nc(/C=C/c2ccncc2)n1CCN1CCNCC1 (cis-trans isomerization)
O=c1c2ccccc2nc(/C=C/c2ccncc2)n1CCN1CCNCC1 (3D coordinates assigned)
O=c1c2ccccc2nc(/C=C/c2ccncc2)n1CCN1CCNCC1 (nonaromatic ring conformer: 70.11114427246851 kcal/mol)

>  <smiles>  (40) 
O=c1c2ccccc2nc(/C=C/c2ccncc2)n1CCN1CCNCC1

>  <score_type>  (40) 
oracle

>  <origin>  (40) 
autodockgpu

>  <m_score__min__energy>  (40) 
-7.1699999999999999

>  <m_primary>  (40) 
energy

>  <meeko>  (40) 
{"free_energy": -6.88, "intermolecular_energy": -8.67, "internal_energy": -1.63, "cluster_size": 18, "cluster_id": 1, "rank_in_cluster": 13}

>  <energy>  (40) 
-6.28

>  <cluster_rmsd>  (40) 
0.0

>  <rmsd>  (40) 
272.31

>  <cluster>  (40) 
3

$$$$
MZUVVVBFQHRAFD-KNTUVKIBNA-O
     RDKit          3D

 51 54  0  0  0  0  0  0  0  0999 V2000
  142.3259   74.5200  221.6953 H   0  0  0  0  0  0  0  0  0  0  0  0
  142.5960   74.7710  220.6590 C   0  0  0  0  0  0  0  0  0  0  0  0
  141.7970   75.6040  219.9800 C   0  0  0  0  0  0  0  0  0  0  0  0
  141.1158   75.2004  219.2164 H   0  0  0  0  0  0  0  0  0  0  0  0
  141.8180   77.0600  220.2430 C   0  0  0  0  0  0  0  0  0  0  0  0
  141.4380   77.4770  221.4810 N   0  0  0  0  0  0  0  0  0  0  0  0
  141.4310   78.7840  221.8260 C   0  0  0  0  0  0  0  0  0  0  0  0
  141.0370   79.1650  223.1140 C   0  0  0  0  0  0  0  0  0  0  0  0
  140.7305   78.4012  223.8438 H   0  0  0  0  0  0  0  0  0  0  0  0
  141.0330   80.5160  223.4730 C   0  0  0  0  0  0  0  0  0  0  0  0
  140.7243   80.8146  224.4857 H   0  0  0  0  0  0  0  0  0  0  0  0
  141.4210   81.4880  222.5460 C   0  0  0  0  0  0  0  0  0  0  0  0
  141.4147   82.5507  222.8298 H   0  0  0  0  0  0  0  0  0  0  0  0
  141.8170   81.1120  221.2590 C   0  0  0  0  0  0  0  0  0  0  0  0
  142.1230   81.8795  220.5328 H   0  0  0  0  0  0  0  0  0  0  0  0
  141.8250   79.7520  220.8900 C   0  0  0  0  0  0  0  0  0  0  0  0
  142.2060   79.3220  219.6080 C   0  0  0  0  0  0  0  0  0  0  0  0
  142.5550   80.1800  218.7470 O   0  0  0  0  0  0  0  0  0  0  0  0
  142.1960   77.9830  219.2870 N   0  0  0  0  0  0  0  0  0  0  0  0
  142.5200   77.5830  217.8960 C   0  0  0  0  0  0  0  0  0  0  0  0
  143.5545   77.8828  217.6724 H   0  0  0  0  0  0  0  0  0  0  0  0
  142.3953   76.4928  217.8189 H   0  0  0  0  0  0  0  0  0  0  0  0
  141.5750   78.2450  216.8660 C   0  0  0  0  0  0  0  0  0  0  0  0
  141.3101   77.4948  216.1064 H   0  0  0  0  0  0  0  0  0  0  0  0
  140.6989   78.6085  217.4231 H   0  0  0  0  0  0  0  0  0  0  0  0
  142.1680   79.4230  216.1750 N   0  0  0  0  0  0  0  0  0  0  0  0
  143.0510   79.6780  216.6740 H   0  0  0  0  0  0  0  0  0  0  0  0
  142.5760   79.0960  214.7900 C   0  0  0  0  0  0  0  0  0  0  0  0
  143.2297   79.8970  214.4145 H   0  0  0  0  0  0  0  0  0  0  0  0
  143.1004   78.1293  214.8109 H   0  0  0  0  0  0  0  0  0  0  0  0
  141.3690   78.9590  213.8480 C   0  0  0  0  0  0  0  0  0  0  0  0
  141.7296   78.7668  212.8267 H   0  0  0  0  0  0  0  0  0  0  0  0
  140.7433   78.1251  214.1988 H   0  0  0  0  0  0  0  0  0  0  0  0
  140.5610   80.1820  213.8490 N   0  0  0  0  0  0  0  0  0  0  0  0
  141.1480   80.9760  213.4960 H   0  0  0  0  0  0  0  0  0  0  0  0
  140.1060   80.5020  215.2070 C   0  0  0  0  0  0  0  0  0  0  0  0
  139.5642   81.4591  215.1861 H   0  0  0  0  0  0  0  0  0  0  0  0
  139.4511   79.6883  215.5519 H   0  0  0  0  0  0  0  0  0  0  0  0
  141.2890   80.6180  216.1870 C   0  0  0  0  0  0  0  0  0  0  0  0
  141.8888   81.4977  215.9106 H   0  0  0  0  0  0  0  0  0  0  0  0
  140.8705   80.7098  217.2001 H   0  0  0  0  0  0  0  0  0  0  0  0
  143.8250   74.1690  220.0890 C   0  0  0  0  0  0  0  0  0  0  0  0
  143.8870   73.9450  218.7050 C   0  0  0  0  0  0  0  0  0  0  0  0
  143.0324   74.2089  218.0647 H   0  0  0  0  0  0  0  0  0  0  0  0
  145.0370   73.3860  218.1430 C   0  0  0  0  0  0  0  0  0  0  0  0
  145.0913   73.2189  217.0571 H   0  0  0  0  0  0  0  0  0  0  0  0
  146.0890   73.0480  218.9340 N   0  0  0  0  0  0  0  0  0  0  0  0
  146.0560   73.2380  220.2790 C   0  0  0  0  0  0  0  0  0  0  0  0
  146.9213   72.9510  220.8946 H   0  0  0  0  0  0  0  0  0  0  0  0
  144.9260   73.7970  220.8830 C   0  0  0  0  0  0  0  0  0  0  0  0
  144.8975   73.9453  221.9726 H   0  0  0  0  0  0  0  0  0  0  0  0
  1  2  1  0
  2  3  2  0
  3  4  1  0
  3  5  1  0
  5  6  2  0
  6  7  1  0
  7  8  2  0
  8  9  1  0
  8 10  1  0
 10 11  1  0
 10 12  2  0
 12 13  1  0
 12 14  1  0
 14 15  1  0
 14 16  2  0
 16 17  1  0
 17 18  2  0
 17 19  1  0
 19 20  1  0
 20 21  1  0
 20 22  1  0
 20 23  1  0
 23 24  1  0
 23 25  1  0
 23 26  1  0
 26 27  1  0
 26 28  1  0
 28 29  1  0
 28 30  1  0
 28 31  1  0
 31 32  1  0
 31 33  1  0
 31 34  1  0
 34 35  1  0
 34 36  1  0
 36 37  1  0
 36 38  1  0
 36 39  1  0
 39 40  1  0
 39 41  1  0
  2 42  1  0
 42 43  2  0
 43 44  1  0
 43 45  1  0
 45 46  1  0
 45 47  2  0
 47 48  1  0
 48 49  1  0
 48 50  2  0
 50 51  1  0
 19  5  1  0
 39 26  1  0
 50 42  1  0
 16  7  1  0
M  CHG  1  26   1
M  END
>  <UniqueID>  (41) 
611

>  <SMILES>  (41) 
O=c1c2ccccc2nc(/C=C/c2ccncc2)n1CC[NH+]1CCNCC1

>  <Energy>  (41) 
72.30361824829178

>  <Genealogy>  (41) 
O=c1c2ccccc2nc(/C=C/c2ccncc2)n1CC[NH+]1CCNCC1 (protonated)
O=c1c2ccccc2nc(/C=C/c2ccncc2)n1CC[NH+]1CCNCC1 (cis-trans isomerization)
O=c1c2ccccc2nc(/C=C/c2ccncc2)n1CC[NH+]1CCNCC1 (3D coordinates assigned)
O=c1c2ccccc2nc(/C=C/c2ccncc2)n1CC[NH+]1CCNCC1 (nonaromatic ring conformer: 72.30361824829178 kcal/mol)

>  <smiles>  (41) 
O=c1c2ccccc2nc(/C=C/c2ccncc2)n1CCN1CCNCC1

>  <score_type>  (41) 
oracle

>  <origin>  (41) 
autodockgpu

>  <m_score__min__energy>  (41) 
-7.1500000000000004

>  <m_primary>  (41) 
energy

>  <meeko>  (41) 
{"free_energy": -6.83, "intermolecular_energy": -8.62, "internal_energy": -1.68, "cluster_size": 5, "cluster_id": 2, "rank_in_cluster": 4}

>  <energy>  (41) 
-7.15

>  <cluster_rmsd>  (41) 
0.0

>  <rmsd>  (41) 
270.69

>  <cluster>  (41) 
1

$$$$
MZUVVVBFQHRAFD-KNTUVKIBNA-O
     RDKit          3D

 51 54  0  0  0  0  0  0  0  0999 V2000
  138.5820   78.1922  223.9671 H   0  0  0  0  0  0  0  0  0  0  0  0
  139.2550   78.3100  223.1050 C   0  0  0  0  0  0  0  0  0  0  0  0
  139.0770   77.5070  222.0480 C   0  0  0  0  0  0  0  0  0  0  0  0
  138.1161   77.5206  221.5127 H   0  0  0  0  0  0  0  0  0  0  0  0
  140.1540   76.6020  221.5900 C   0  0  0  0  0  0  0  0  0  0  0  0
  140.0650   75.2930  221.9470 N   0  0  0  0  0  0  0  0  0  0  0  0
  140.9910   74.3830  221.5710 C   0  0  0  0  0  0  0  0  0  0  0  0
  140.8540   73.0450  221.9590 C   0  0  0  0  0  0  0  0  0  0  0  0
  139.9944   72.7350  222.5713 H   0  0  0  0  0  0  0  0  0  0  0  0
  141.8100   72.1030  221.5680 C   0  0  0  0  0  0  0  0  0  0  0  0
  141.7016   71.0516  221.8725 H   0  0  0  0  0  0  0  0  0  0  0  0
  142.9030   72.4950  220.7910 C   0  0  0  0  0  0  0  0  0  0  0  0
  143.6543   71.7517  220.4860 H   0  0  0  0  0  0  0  0  0  0  0  0
  143.0440   73.8310  220.4000 C   0  0  0  0  0  0  0  0  0  0  0  0
  143.9055   74.1359  219.7877 H   0  0  0  0  0  0  0  0  0  0  0  0
  142.0850   74.7860  220.7890 C   0  0  0  0  0  0  0  0  0  0  0  0
  142.1830   76.1410  220.4310 C   0  0  0  0  0  0  0  0  0  0  0  0
  143.1660   76.5260  219.7350 O   0  0  0  0  0  0  0  0  0  0  0  0
  141.2240   77.0430  220.8360 N   0  0  0  0  0  0  0  0  0  0  0  0
  141.4170   78.4780  220.5100 C   0  0  0  0  0  0  0  0  0  0  0  0
  140.6598   79.0688  221.0463 H   0  0  0  0  0  0  0  0  0  0  0  0
  142.4345   78.7618  220.8168 H   0  0  0  0  0  0  0  0  0  0  0  0
  141.2820   78.7520  218.9940 C   0  0  0  0  0  0  0  0  0  0  0  0
  140.7810   77.8900  218.5293 H   0  0  0  0  0  0  0  0  0  0  0  0
  140.7054   79.6827  218.8872 H   0  0  0  0  0  0  0  0  0  0  0  0
  142.5830   78.9670  218.3030 N   0  0  0  0  0  0  0  0  0  0  0  0
  143.3310   78.5090  218.8740 H   0  0  0  0  0  0  0  0  0  0  0  0
  142.6220   78.2930  216.9860 C   0  0  0  0  0  0  0  0  0  0  0  0
  143.6641   78.2596  216.6355 H   0  0  0  0  0  0  0  0  0  0  0  0
  142.2102   77.2807  217.1115 H   0  0  0  0  0  0  0  0  0  0  0  0
  141.7690   79.0240  215.9360 C   0  0  0  0  0  0  0  0  0  0  0  0
  141.8729   78.5121  214.9680 H   0  0  0  0  0  0  0  0  0  0  0  0
  140.7198   79.0128  216.2664 H   0  0  0  0  0  0  0  0  0  0  0  0
  142.1990   80.4190  215.7900 N   0  0  0  0  0  0  0  0  0  0  0  0
  143.1920   80.4330  215.4550 H   0  0  0  0  0  0  0  0  0  0  0  0
  142.1260   81.1210  217.0760 C   0  0  0  0  0  0  0  0  0  0  0  0
  142.5194   82.1404  216.9494 H   0  0  0  0  0  0  0  0  0  0  0  0
  141.0742   81.1437  217.3971 H   0  0  0  0  0  0  0  0  0  0  0  0
  142.9470   80.3990  218.1620 C   0  0  0  0  0  0  0  0  0  0  0  0
  144.0130   80.4662  217.8991 H   0  0  0  0  0  0  0  0  0  0  0  0
  142.7309   80.8911  219.1217 H   0  0  0  0  0  0  0  0  0  0  0  0
  140.3100   79.3490  223.1760 C   0  0  0  0  0  0  0  0  0  0  0  0
  141.5380   79.0240  223.7710 C   0  0  0  0  0  0  0  0  0  0  0  0
  141.7040   78.0164  224.1800 H   0  0  0  0  0  0  0  0  0  0  0  0
  142.5490   79.9850  223.8420 C   0  0  0  0  0  0  0  0  0  0  0  0
  143.5165   79.7297  224.2988 H   0  0  0  0  0  0  0  0  0  0  0  0
  142.3420   81.2340  223.3490 N   0  0  0  0  0  0  0  0  0  0  0  0
  141.1590   81.5850  222.7800 C   0  0  0  0  0  0  0  0  0  0  0  0
  141.0182   82.6050  222.3929 H   0  0  0  0  0  0  0  0  0  0  0  0
  140.1210   80.6550  222.6850 C   0  0  0  0  0  0  0  0  0  0  0  0
  139.1616   80.9413  222.2293 H   0  0  0  0  0  0  0  0  0  0  0  0
  1  2  1  0
  2  3  2  0
  3  4  1  0
  3  5  1  0
  5  6  2  0
  6  7  1  0
  7  8  2  0
  8  9  1  0
  8 10  1  0
 10 11  1  0
 10 12  2  0
 12 13  1  0
 12 14  1  0
 14 15  1  0
 14 16  2  0
 16 17  1  0
 17 18  2  0
 17 19  1  0
 19 20  1  0
 20 21  1  0
 20 22  1  0
 20 23  1  0
 23 24  1  0
 23 25  1  0
 23 26  1  0
 26 27  1  0
 26 28  1  0
 28 29  1  0
 28 30  1  0
 28 31  1  0
 31 32  1  0
 31 33  1  0
 31 34  1  0
 34 35  1  0
 34 36  1  0
 36 37  1  0
 36 38  1  0
 36 39  1  0
 39 40  1  0
 39 41  1  0
  2 42  1  0
 42 43  2  0
 43 44  1  0
 43 45  1  0
 45 46  1  0
 45 47  2  0
 47 48  1  0
 48 49  1  0
 48 50  2  0
 50 51  1  0
 19  5  1  0
 39 26  1  0
 50 42  1  0
 16  7  1  0
M  CHG  1  26   1
M  END
>  <UniqueID>  (42) 
611

>  <SMILES>  (42) 
O=c1c2ccccc2nc(/C=C/c2ccncc2)n1CC[NH+]1CCNCC1

>  <Energy>  (42) 
72.30361824829178

>  <Genealogy>  (42) 
O=c1c2ccccc2nc(/C=C/c2ccncc2)n1CC[NH+]1CCNCC1 (protonated)
O=c1c2ccccc2nc(/C=C/c2ccncc2)n1CC[NH+]1CCNCC1 (cis-trans isomerization)
O=c1c2ccccc2nc(/C=C/c2ccncc2)n1CC[NH+]1CCNCC1 (3D coordinates assigned)
O=c1c2ccccc2nc(/C=C/c2ccncc2)n1CC[NH+]1CCNCC1 (nonaromatic ring conformer: 72.30361824829178 kcal/mol)

>  <smiles>  (42) 
O=c1c2ccccc2nc(/C=C/c2ccncc2)n1CCN1CCNCC1

>  <score_type>  (42) 
oracle

>  <origin>  (42) 
autodockgpu

>  <m_score__min__energy>  (42) 
-7.1500000000000004

>  <m_primary>  (42) 
energy

>  <meeko>  (42) 
{"free_energy": -7.14, "intermolecular_energy": -8.93, "internal_energy": -1.92, "cluster_size": 14, "cluster_id": 1, "rank_in_cluster": 3}

>  <energy>  (42) 
-7.15

>  <cluster_rmsd>  (42) 
0.02

>  <rmsd>  (42) 
270.68

>  <cluster>  (42) 
1

$$$$
MZUVVVBFQHRAFD-KNTUVKIBNA-O
     RDKit          3D

 51 54  0  0  0  0  0  0  0  0999 V2000
  138.6627   77.8217  223.8558 H   0  0  0  0  0  0  0  0  0  0  0  0
  139.3440   78.0190  223.0150 C   0  0  0  0  0  0  0  0  0  0  0  0
  139.2230   77.2680  221.9130 C   0  0  0  0  0  0  0  0  0  0  0  0
  138.2582   77.2293  221.3861 H   0  0  0  0  0  0  0  0  0  0  0  0
  140.3700   76.4890  221.3940 C   0  0  0  0  0  0  0  0  0  0  0  0
  140.4130   75.1640  221.6970 N   0  0  0  0  0  0  0  0  0  0  0  0
  141.4110   74.3620  221.2640 C   0  0  0  0  0  0  0  0  0  0  0  0
  141.4090   73.0020  221.5980 C   0  0  0  0  0  0  0  0  0  0  0  0
  140.5976   72.5876  222.2143 H   0  0  0  0  0  0  0  0  0  0  0  0
  142.4400   72.1710  221.1470 C   0  0  0  0  0  0  0  0  0  0  0  0
  142.4381   71.1023  221.4076 H   0  0  0  0  0  0  0  0  0  0  0  0
  143.4720   72.6970  220.3660 C   0  0  0  0  0  0  0  0  0  0  0  0
  144.2829   72.0418  220.0152 H   0  0  0  0  0  0  0  0  0  0  0  0
  143.4770   74.0540  220.0290 C   0  0  0  0  0  0  0  0  0  0  0  0
  144.2906   74.4634  219.4122 H   0  0  0  0  0  0  0  0  0  0  0  0
  142.4420   74.8980  220.4780 C   0  0  0  0  0  0  0  0  0  0  0  0
  142.4040   76.2690  220.1750 C   0  0  0  0  0  0  0  0  0  0  0  0
  143.3290   76.7740  219.4760 O   0  0  0  0  0  0  0  0  0  0  0  0
  141.3750   77.0600  220.6380 N   0  0  0  0  0  0  0  0  0  0  0  0
  141.4230   78.5180  220.3690 C   0  0  0  0  0  0  0  0  0  0  0  0
  140.6007   79.0064  220.9123 H   0  0  0  0  0  0  0  0  0  0  0  0
  142.4009   78.8931  220.7052 H   0  0  0  0  0  0  0  0  0  0  0  0
  141.2830   78.8350  218.8620 C   0  0  0  0  0  0  0  0  0  0  0  0
  140.7563   77.9985  218.3795 H   0  0  0  0  0  0  0  0  0  0  0  0
  140.7299   79.7827  218.7848 H   0  0  0  0  0  0  0  0  0  0  0  0
  142.5830   79.0350  218.1650 N   0  0  0  0  0  0  0  0  0  0  0  0
  143.3340   78.6090  218.7550 H   0  0  0  0  0  0  0  0  0  0  0  0
  142.6320   78.3060  216.8770 C   0  0  0  0  0  0  0  0  0  0  0  0
  143.6752   78.2685  216.5301 H   0  0  0  0  0  0  0  0  0  0  0  0
  142.2305   77.2956  217.0440 H   0  0  0  0  0  0  0  0  0  0  0  0
  141.7740   78.9840  215.7960 C   0  0  0  0  0  0  0  0  0  0  0  0
  141.8848   78.4329  214.8505 H   0  0  0  0  0  0  0  0  0  0  0  0
  140.7245   78.9764  216.1253 H   0  0  0  0  0  0  0  0  0  0  0  0
  142.1900   80.3750  215.5920 N   0  0  0  0  0  0  0  0  0  0  0  0
  143.1830   80.3860  215.2580 H   0  0  0  0  0  0  0  0  0  0  0  0
  142.1070   81.1300  216.8480 C   0  0  0  0  0  0  0  0  0  0  0  0
  142.4905   82.1471  216.6795 H   0  0  0  0  0  0  0  0  0  0  0  0
  141.0542   81.1556  217.1659 H   0  0  0  0  0  0  0  0  0  0  0  0
  142.9320   80.4630  217.9640 C   0  0  0  0  0  0  0  0  0  0  0  0
  143.9979   80.5301  217.7005 H   0  0  0  0  0  0  0  0  0  0  0  0
  142.7081   80.9927  218.9017 H   0  0  0  0  0  0  0  0  0  0  0  0
  140.3450   79.1010  223.1640 C   0  0  0  0  0  0  0  0  0  0  0  0
  141.6140   78.7820  223.6690 C   0  0  0  0  0  0  0  0  0  0  0  0
  141.8500   77.7457  223.9525 H   0  0  0  0  0  0  0  0  0  0  0  0
  142.5770   79.7830  223.8110 C   0  0  0  0  0  0  0  0  0  0  0  0
  143.5760   79.5325  224.1974 H   0  0  0  0  0  0  0  0  0  0  0  0
  142.2830   81.0660  223.4730 N   0  0  0  0  0  0  0  0  0  0  0  0
  141.0600   81.4120  222.9940 C   0  0  0  0  0  0  0  0  0  0  0  0
  140.8505   82.4594  222.7311 H   0  0  0  0  0  0  0  0  0  0  0  0
  140.0670   80.4420  222.8340 C   0  0  0  0  0  0  0  0  0  0  0  0
  139.0744   80.7238  222.4527 H   0  0  0  0  0  0  0  0  0  0  0  0
  1  2  1  0
  2  3  2  0
  3  4  1  0
  3  5  1  0
  5  6  2  0
  6  7  1  0
  7  8  2  0
  8  9  1  0
  8 10  1  0
 10 11  1  0
 10 12  2  0
 12 13  1  0
 12 14  1  0
 14 15  1  0
 14 16  2  0
 16 17  1  0
 17 18  2  0
 17 19  1  0
 19 20  1  0
 20 21  1  0
 20 22  1  0
 20 23  1  0
 23 24  1  0
 23 25  1  0
 23 26  1  0
 26 27  1  0
 26 28  1  0
 28 29  1  0
 28 30  1  0
 28 31  1  0
 31 32  1  0
 31 33  1  0
 31 34  1  0
 34 35  1  0
 34 36  1  0
 36 37  1  0
 36 38  1  0
 36 39  1  0
 39 40  1  0
 39 41  1  0
  2 42  1  0
 42 43  2  0
 43 44  1  0
 43 45  1  0
 45 46  1  0
 45 47  2  0
 47 48  1  0
 48 49  1  0
 48 50  2  0
 50 51  1  0
 19  5  1  0
 39 26  1  0
 50 42  1  0
 16  7  1  0
M  CHG  1  26   1
M  END
>  <UniqueID>  (43) 
611

>  <SMILES>  (43) 
O=c1c2ccccc2nc(/C=C/c2ccncc2)n1CC[NH+]1CCNCC1

>  <Energy>  (43) 
72.30361824829178

>  <Genealogy>  (43) 
O=c1c2ccccc2nc(/C=C/c2ccncc2)n1CC[NH+]1CCNCC1 (protonated)
O=c1c2ccccc2nc(/C=C/c2ccncc2)n1CC[NH+]1CCNCC1 (cis-trans isomerization)
O=c1c2ccccc2nc(/C=C/c2ccncc2)n1CC[NH+]1CCNCC1 (3D coordinates assigned)
O=c1c2ccccc2nc(/C=C/c2ccncc2)n1CC[NH+]1CCNCC1 (nonaromatic ring conformer: 72.30361824829178 kcal/mol)

>  <smiles>  (43) 
O=c1c2ccccc2nc(/C=C/c2ccncc2)n1CCN1CCNCC1

>  <score_type>  (43) 
oracle

>  <origin>  (43) 
autodockgpu

>  <m_score__min__energy>  (43) 
-7.1500000000000004

>  <m_primary>  (43) 
energy

>  <meeko>  (43) 
{"free_energy": -6.91, "intermolecular_energy": -8.7, "internal_energy": -1.97, "cluster_size": 14, "cluster_id": 1, "rank_in_cluster": 13}

>  <energy>  (43) 
-7.14

>  <cluster_rmsd>  (43) 
0.04

>  <rmsd>  (43) 
270.69

>  <cluster>  (43) 
1

$$$$
MZUVVVBFQHRAFD-KNTUVKIBNA-O
     RDKit          3D

 51 54  0  0  0  0  0  0  0  0999 V2000
  141.5303   72.5609  221.9883 H   0  0  0  0  0  0  0  0  0  0  0  0
  140.5120   72.6380  222.3970 C   0  0  0  0  0  0  0  0  0  0  0  0
  139.7220   73.6210  221.9470 C   0  0  0  0  0  0  0  0  0  0  0  0
  138.6372   73.4542  221.8735 H   0  0  0  0  0  0  0  0  0  0  0  0
  140.2880   74.9290  221.5470 C   0  0  0  0  0  0  0  0  0  0  0  0
  140.1700   75.9560  222.4300 N   0  0  0  0  0  0  0  0  0  0  0  0
  140.6620   77.1870  222.1660 C   0  0  0  0  0  0  0  0  0  0  0  0
  140.5210   78.2130  223.1080 C   0  0  0  0  0  0  0  0  0  0  0  0
  140.0085   78.0179  224.0616 H   0  0  0  0  0  0  0  0  0  0  0  0
  141.0320   79.4860  222.8360 C   0  0  0  0  0  0  0  0  0  0  0  0
  140.9213   80.2919  223.5765 H   0  0  0  0  0  0  0  0  0  0  0  0
  141.6830   79.7360  221.6250 C   0  0  0  0  0  0  0  0  0  0  0  0
  142.0837   80.7384  221.4138 H   0  0  0  0  0  0  0  0  0  0  0  0
  141.8260   78.7140  220.6810 C   0  0  0  0  0  0  0  0  0  0  0  0
  142.3388   78.9144  219.7287 H   0  0  0  0  0  0  0  0  0  0  0  0
  141.3150   77.4290  220.9470 C   0  0  0  0  0  0  0  0  0  0  0  0
  141.4250   76.3700  220.0300 C   0  0  0  0  0  0  0  0  0  0  0  0
  142.0020   76.5690  218.9230 O   0  0  0  0  0  0  0  0  0  0  0  0
  140.9080   75.1290  220.3290 N   0  0  0  0  0  0  0  0  0  0  0  0
  140.9690   74.0660  219.2960 C   0  0  0  0  0  0  0  0  0  0  0  0
  140.2273   73.2912  219.5401 H   0  0  0  0  0  0  0  0  0  0  0  0
  140.7566   74.5285  218.3208 H   0  0  0  0  0  0  0  0  0  0  0  0
  142.3670   73.4110  219.2180 C   0  0  0  0  0  0  0  0  0  0  0  0
  142.5775   72.9274  220.1833 H   0  0  0  0  0  0  0  0  0  0  0  0
  142.3381   72.6938  218.3844 H   0  0  0  0  0  0  0  0  0  0  0  0
  143.4660   74.3710  218.9250 N   0  0  0  0  0  0  0  0  0  0  0  0
  143.0390   75.3120  218.7660 H   0  0  0  0  0  0  0  0  0  0  0  0
  144.3710   74.5380  220.0850 C   0  0  0  0  0  0  0  0  0  0  0  0
  144.9980   75.4268  219.9206 H   0  0  0  0  0  0  0  0  0  0  0  0
  143.7497   74.6487  220.9859 H   0  0  0  0  0  0  0  0  0  0  0  0
  145.2840   73.3180  220.2870 C   0  0  0  0  0  0  0  0  0  0  0  0
  145.9666   73.5146  221.1269 H   0  0  0  0  0  0  0  0  0  0  0  0
  144.6551   72.4408  220.4990 H   0  0  0  0  0  0  0  0  0  0  0  0
  146.0730   73.0470  219.0810 N   0  0  0  0  0  0  0  0  0  0  0  0
  146.6890   73.8730  218.8870 H   0  0  0  0  0  0  0  0  0  0  0  0
  145.1950   72.8330  217.9250 C   0  0  0  0  0  0  0  0  0  0  0  0
  145.8143   72.7025  217.0253 H   0  0  0  0  0  0  0  0  0  0  0  0
  144.5865   71.9367  218.1155 H   0  0  0  0  0  0  0  0  0  0  0  0
  144.2440   74.0250  217.7090 C   0  0  0  0  0  0  0  0  0  0  0  0
  144.8404   74.9006  217.4129 H   0  0  0  0  0  0  0  0  0  0  0  0
  143.5250   73.7364  216.9281 H   0  0  0  0  0  0  0  0  0  0  0  0
  140.0890   71.6480  223.4160 C   0  0  0  0  0  0  0  0  0  0  0  0
  139.0370   70.7720  223.1100 C   0  0  0  0  0  0  0  0  0  0  0  0
  138.5379   70.8301  222.1315 H   0  0  0  0  0  0  0  0  0  0  0  0
  138.6250   69.8260  224.0510 C   0  0  0  0  0  0  0  0  0  0  0  0
  137.8062   69.1323  223.8092 H   0  0  0  0  0  0  0  0  0  0  0  0
  139.2330   69.7600  225.2650 N   0  0  0  0  0  0  0  0  0  0  0  0
  140.2450   70.6030  225.5980 C   0  0  0  0  0  0  0  0  0  0  0  0
  140.7160   70.5289  226.5893 H   0  0  0  0  0  0  0  0  0  0  0  0
  140.6900   71.5640  224.6860 C   0  0  0  0  0  0  0  0  0  0  0  0
  141.5049   72.2505  224.9591 H   0  0  0  0  0  0  0  0  0  0  0  0
  1  2  1  0
  2  3  2  0
  3  4  1  0
  3  5  1  0
  5  6  2  0
  6  7  1  0
  7  8  2  0
  8  9  1  0
  8 10  1  0
 10 11  1  0
 10 12  2  0
 12 13  1  0
 12 14  1  0
 14 15  1  0
 14 16  2  0
 16 17  1  0
 17 18  2  0
 17 19  1  0
 19 20  1  0
 20 21  1  0
 20 22  1  0
 20 23  1  0
 23 24  1  0
 23 25  1  0
 23 26  1  0
 26 27  1  0
 26 28  1  0
 28 29  1  0
 28 30  1  0
 28 31  1  0
 31 32  1  0
 31 33  1  0
 31 34  1  0
 34 35  1  0
 34 36  1  0
 36 37  1  0
 36 38  1  0
 36 39  1  0
 39 40  1  0
 39 41  1  0
  2 42  1  0
 42 43  2  0
 43 44  1  0
 43 45  1  0
 45 46  1  0
 45 47  2  0
 47 48  1  0
 48 49  1  0
 48 50  2  0
 50 51  1  0
 19  5  1  0
 39 26  1  0
 50 42  1  0
 16  7  1  0
M  CHG  1  26   1
M  END
>  <UniqueID>  (44) 
611

>  <SMILES>  (44) 
O=c1c2ccccc2nc(/C=C/c2ccncc2)n1CC[NH+]1CCNCC1

>  <Energy>  (44) 
72.30361824829178

>  <Genealogy>  (44) 
O=c1c2ccccc2nc(/C=C/c2ccncc2)n1CC[NH+]1CCNCC1 (protonated)
O=c1c2ccccc2nc(/C=C/c2ccncc2)n1CC[NH+]1CCNCC1 (cis-trans isomerization)
O=c1c2ccccc2nc(/C=C/c2ccncc2)n1CC[NH+]1CCNCC1 (3D coordinates assigned)
O=c1c2ccccc2nc(/C=C/c2ccncc2)n1CC[NH+]1CCNCC1 (nonaromatic ring conformer: 72.30361824829178 kcal/mol)

>  <smiles>  (44) 
O=c1c2ccccc2nc(/C=C/c2ccncc2)n1CCN1CCNCC1

>  <score_type>  (44) 
oracle

>  <origin>  (44) 
autodockgpu

>  <m_score__min__energy>  (44) 
-7.1500000000000004

>  <m_primary>  (44) 
energy

>  <meeko>  (44) 
{"free_energy": -6.62, "intermolecular_energy": -8.4, "internal_energy": -1.87, "cluster_size": 1, "cluster_id": 3, "rank_in_cluster": 1}

>  <energy>  (44) 
-7.13

>  <cluster_rmsd>  (44) 
0.03

>  <rmsd>  (44) 
270.68

>  <cluster>  (44) 
1

$$$$
MZUVVVBFQHRAFD-KNTUVKIBNA-O
     RDKit          3D

 51 54  0  0  0  0  0  0  0  0999 V2000
  142.2930   74.3101  221.5177 H   0  0  0  0  0  0  0  0  0  0  0  0
  142.6320   74.6130  220.5160 C   0  0  0  0  0  0  0  0  0  0  0  0
  141.8660   75.4600  219.8180 C   0  0  0  0  0  0  0  0  0  0  0  0
  141.2359   75.0752  219.0026 H   0  0  0  0  0  0  0  0  0  0  0  0
  141.8550   76.9070  220.1280 C   0  0  0  0  0  0  0  0  0  0  0  0
  141.4590   77.2760  221.3750 N   0  0  0  0  0  0  0  0  0  0  0  0
  141.4230   78.5710  221.7610 C   0  0  0  0  0  0  0  0  0  0  0  0
  141.0120   78.9030  223.0580 C   0  0  0  0  0  0  0  0  0  0  0  0
  140.7160   78.1105  223.7611 H   0  0  0  0  0  0  0  0  0  0  0  0
  140.9780   80.2420  223.4590 C   0  0  0  0  0  0  0  0  0  0  0  0
  140.6554   80.5020  224.4780 H   0  0  0  0  0  0  0  0  0  0  0  0
  141.3530   81.2500  222.5680 C   0  0  0  0  0  0  0  0  0  0  0  0
  141.3244   82.3025  222.8865 H   0  0  0  0  0  0  0  0  0  0  0  0
  141.7650   80.9240  221.2710 C   0  0  0  0  0  0  0  0  0  0  0  0
  142.0604   81.7204  220.5721 H   0  0  0  0  0  0  0  0  0  0  0  0
  141.8020   79.5770  220.8590 C   0  0  0  0  0  0  0  0  0  0  0  0
  142.2000   79.1960  219.5670 C   0  0  0  0  0  0  0  0  0  0  0  0
  142.5370   80.0880  218.7360 O   0  0  0  0  0  0  0  0  0  0  0  0
  142.2200   77.8670  219.2040 N   0  0  0  0  0  0  0  0  0  0  0  0
  142.5610   77.5190  217.8030 C   0  0  0  0  0  0  0  0  0  0  0  0
  143.5869   77.8560  217.5934 H   0  0  0  0  0  0  0  0  0  0  0  0
  142.4690   76.4284  217.6927 H   0  0  0  0  0  0  0  0  0  0  0  0
  141.6010   78.1830  216.7890 C   0  0  0  0  0  0  0  0  0  0  0  0
  141.3672   77.4506  216.0023 H   0  0  0  0  0  0  0  0  0  0  0  0
  140.7092   78.4970  217.3512 H   0  0  0  0  0  0  0  0  0  0  0  0
  142.1580   79.4040  216.1430 N   0  0  0  0  0  0  0  0  0  0  0  0
  143.0410   79.6580  216.6420 H   0  0  0  0  0  0  0  0  0  0  0  0
  142.5550   79.1480  214.7400 C   0  0  0  0  0  0  0  0  0  0  0  0
  143.1844   79.9804  214.3921 H   0  0  0  0  0  0  0  0  0  0  0  0
  143.1025   78.1944  214.7118 H   0  0  0  0  0  0  0  0  0  0  0  0
  141.3390   79.0230  213.8080 C   0  0  0  0  0  0  0  0  0  0  0  0
  141.6902   78.8834  212.7750 H   0  0  0  0  0  0  0  0  0  0  0  0
  140.7374   78.1602  214.1300 H   0  0  0  0  0  0  0  0  0  0  0  0
  140.5030   80.2260  213.8720 N   0  0  0  0  0  0  0  0  0  0  0  0
  141.0660   81.0480  213.5470 H   0  0  0  0  0  0  0  0  0  0  0  0
  140.0590   80.4740  215.2490 C   0  0  0  0  0  0  0  0  0  0  0  0
  139.4937   81.4172  215.2776 H   0  0  0  0  0  0  0  0  0  0  0  0
  139.4292   79.6294  215.5653 H   0  0  0  0  0  0  0  0  0  0  0  0
  141.2510   80.5760  216.2180 C   0  0  0  0  0  0  0  0  0  0  0  0
  141.8261   81.4811  215.9730 H   0  0  0  0  0  0  0  0  0  0  0  0
  140.8440   80.6136  217.2392 H   0  0  0  0  0  0  0  0  0  0  0  0
  143.9120   74.0610  220.0130 C   0  0  0  0  0  0  0  0  0  0  0  0
  144.0360   73.7860  218.6430 C   0  0  0  0  0  0  0  0  0  0  0  0
  143.1910   73.9739  217.9642 H   0  0  0  0  0  0  0  0  0  0  0  0
  145.2350   73.2730  218.1430 C   0  0  0  0  0  0  0  0  0  0  0  0
  145.3370   73.0660  217.0675 H   0  0  0  0  0  0  0  0  0  0  0  0
  146.2760   73.0290  218.9820 N   0  0  0  0  0  0  0  0  0  0  0  0
  146.1850   73.2710  220.3160 C   0  0  0  0  0  0  0  0  0  0  0  0
  147.0430   73.0603  220.9714 H   0  0  0  0  0  0  0  0  0  0  0  0
  145.0040   73.7870  220.8580 C   0  0  0  0  0  0  0  0  0  0  0  0
  144.9286   73.9778  221.9387 H   0  0  0  0  0  0  0  0  0  0  0  0
  1  2  1  0
  2  3  2  0
  3  4  1  0
  3  5  1  0
  5  6  2  0
  6  7  1  0
  7  8  2  0
  8  9  1  0
  8 10  1  0
 10 11  1  0
 10 12  2  0
 12 13  1  0
 12 14  1  0
 14 15  1  0
 14 16  2  0
 16 17  1  0
 17 18  2  0
 17 19  1  0
 19 20  1  0
 20 21  1  0
 20 22  1  0
 20 23  1  0
 23 24  1  0
 23 25  1  0
 23 26  1  0
 26 27  1  0
 26 28  1  0
 28 29  1  0
 28 30  1  0
 28 31  1  0
 31 32  1  0
 31 33  1  0
 31 34  1  0
 34 35  1  0
 34 36  1  0
 36 37  1  0
 36 38  1  0
 36 39  1  0
 39 40  1  0
 39 41  1  0
  2 42  1  0
 42 43  2  0
 43 44  1  0
 43 45  1  0
 45 46  1  0
 45 47  2  0
 47 48  1  0
 48 49  1  0
 48 50  2  0
 50 51  1  0
 19  5  1  0
 39 26  1  0
 50 42  1  0
 16  7  1  0
M  CHG  1  26   1
M  END
>  <UniqueID>  (45) 
611

>  <SMILES>  (45) 
O=c1c2ccccc2nc(/C=C/c2ccncc2)n1CC[NH+]1CCNCC1

>  <Energy>  (45) 
72.30361824829178

>  <Genealogy>  (45) 
O=c1c2ccccc2nc(/C=C/c2ccncc2)n1CC[NH+]1CCNCC1 (protonated)
O=c1c2ccccc2nc(/C=C/c2ccncc2)n1CC[NH+]1CCNCC1 (cis-trans isomerization)
O=c1c2ccccc2nc(/C=C/c2ccncc2)n1CC[NH+]1CCNCC1 (3D coordinates assigned)
O=c1c2ccccc2nc(/C=C/c2ccncc2)n1CC[NH+]1CCNCC1 (nonaromatic ring conformer: 72.30361824829178 kcal/mol)

>  <smiles>  (45) 
O=c1c2ccccc2nc(/C=C/c2ccncc2)n1CCN1CCNCC1

>  <score_type>  (45) 
oracle

>  <origin>  (45) 
autodockgpu

>  <m_score__min__energy>  (45) 
-7.1500000000000004

>  <m_primary>  (45) 
energy

>  <meeko>  (45) 
{"free_energy": -6.87, "intermolecular_energy": -8.66, "internal_energy": -1.67, "cluster_size": 5, "cluster_id": 2, "rank_in_cluster": 2}

>  <energy>  (45) 
-7.13

>  <cluster_rmsd>  (45) 
0.04

>  <rmsd>  (45) 
270.67

>  <cluster>  (45) 
1

$$$$
MZUVVVBFQHRAFD-KNTUVKIBNA-O
     RDKit          3D

 51 54  0  0  0  0  0  0  0  0999 V2000
  138.5525   78.1953  223.9523 H   0  0  0  0  0  0  0  0  0  0  0  0
  139.2460   78.2920  223.1040 C   0  0  0  0  0  0  0  0  0  0  0  0
  139.0680   77.4910  222.0460 C   0  0  0  0  0  0  0  0  0  0  0  0
  138.1087   77.5085  221.5080 H   0  0  0  0  0  0  0  0  0  0  0  0
  140.1440   76.5820  221.5900 C   0  0  0  0  0  0  0  0  0  0  0  0
  140.0530   75.2750  221.9540 N   0  0  0  0  0  0  0  0  0  0  0  0
  140.9770   74.3620  221.5810 C   0  0  0  0  0  0  0  0  0  0  0  0
  140.8380   73.0260  221.9760 C   0  0  0  0  0  0  0  0  0  0  0  0
  139.9788   72.7206  222.5912 H   0  0  0  0  0  0  0  0  0  0  0  0
  141.7920   72.0800  221.5880 C   0  0  0  0  0  0  0  0  0  0  0  0
  141.6817   71.0302  221.8974 H   0  0  0  0  0  0  0  0  0  0  0  0
  142.8850   72.4660  220.8080 C   0  0  0  0  0  0  0  0  0  0  0  0
  143.6351   71.7201  220.5063 H   0  0  0  0  0  0  0  0  0  0  0  0
  143.0270   73.8000  220.4100 C   0  0  0  0  0  0  0  0  0  0  0  0
  143.8877   74.1004  219.7944 H   0  0  0  0  0  0  0  0  0  0  0  0
  142.0700   74.7590  220.7960 C   0  0  0  0  0  0  0  0  0  0  0  0
  142.1700   76.1120  220.4310 C   0  0  0  0  0  0  0  0  0  0  0  0
  143.1520   76.4920  219.7310 O   0  0  0  0  0  0  0  0  0  0  0  0
  141.2130   77.0180  220.8320 N   0  0  0  0  0  0  0  0  0  0  0  0
  141.4070   78.4500  220.4980 C   0  0  0  0  0  0  0  0  0  0  0  0
  140.6491   79.0441  221.0296 H   0  0  0  0  0  0  0  0  0  0  0  0
  142.4243   78.7347  220.8047 H   0  0  0  0  0  0  0  0  0  0  0  0
  141.2750   78.7160  218.9810 C   0  0  0  0  0  0  0  0  0  0  0  0
  140.7800   77.8491  218.5191 H   0  0  0  0  0  0  0  0  0  0  0  0
  140.6940   79.6432  218.8686 H   0  0  0  0  0  0  0  0  0  0  0  0
  142.5760   78.9350  218.2920 N   0  0  0  0  0  0  0  0  0  0  0  0
  143.3240   78.4760  218.8620 H   0  0  0  0  0  0  0  0  0  0  0  0
  142.6170   78.2650  216.9730 C   0  0  0  0  0  0  0  0  0  0  0  0
  143.6594   78.2338  216.6232 H   0  0  0  0  0  0  0  0  0  0  0  0
  142.2065   77.2517  217.0947 H   0  0  0  0  0  0  0  0  0  0  0  0
  141.7640   78.9990  215.9250 C   0  0  0  0  0  0  0  0  0  0  0  0
  141.8684   78.4899  214.9555 H   0  0  0  0  0  0  0  0  0  0  0  0
  140.7149   78.9865  216.2554 H   0  0  0  0  0  0  0  0  0  0  0  0
  142.1930   80.3940  215.7830 N   0  0  0  0  0  0  0  0  0  0  0  0
  143.1860   80.4100  215.4490 H   0  0  0  0  0  0  0  0  0  0  0  0
  142.1180   81.0920  217.0720 C   0  0  0  0  0  0  0  0  0  0  0  0
  142.5105   82.1122  216.9491 H   0  0  0  0  0  0  0  0  0  0  0  0
  141.0658   81.1124  217.3921 H   0  0  0  0  0  0  0  0  0  0  0  0
  142.9380   80.3680  218.1560 C   0  0  0  0  0  0  0  0  0  0  0  0
  144.0043   80.4376  217.8948 H   0  0  0  0  0  0  0  0  0  0  0  0
  142.7198   80.8567  219.1170 H   0  0  0  0  0  0  0  0  0  0  0  0
  140.3270   79.3020  223.1940 C   0  0  0  0  0  0  0  0  0  0  0  0
  140.0910   80.5900  222.6890 C   0  0  0  0  0  0  0  0  0  0  0  0
  139.1212   80.8338  222.2308 H   0  0  0  0  0  0  0  0  0  0  0  0
  141.0910   81.5610  222.7700 C   0  0  0  0  0  0  0  0  0  0  0  0
  140.9038   82.5743  222.3851 H   0  0  0  0  0  0  0  0  0  0  0  0
  142.2950   81.2580  223.3230 N   0  0  0  0  0  0  0  0  0  0  0  0
  142.5620   80.0170  223.8070 C   0  0  0  0  0  0  0  0  0  0  0  0
  143.5473   79.7999  224.2453 H   0  0  0  0  0  0  0  0  0  0  0  0
  141.5890   79.0150  223.7500 C   0  0  0  0  0  0  0  0  0  0  0  0
  141.8075   78.0087  224.1369 H   0  0  0  0  0  0  0  0  0  0  0  0
  1  2  1  0
  2  3  2  0
  3  4  1  0
  3  5  1  0
  5  6  2  0
  6  7  1  0
  7  8  2  0
  8  9  1  0
  8 10  1  0
 10 11  1  0
 10 12  2  0
 12 13  1  0
 12 14  1  0
 14 15  1  0
 14 16  2  0
 16 17  1  0
 17 18  2  0
 17 19  1  0
 19 20  1  0
 20 21  1  0
 20 22  1  0
 20 23  1  0
 23 24  1  0
 23 25  1  0
 23 26  1  0
 26 27  1  0
 26 28  1  0
 28 29  1  0
 28 30  1  0
 28 31  1  0
 31 32  1  0
 31 33  1  0
 31 34  1  0
 34 35  1  0
 34 36  1  0
 36 37  1  0
 36 38  1  0
 36 39  1  0
 39 40  1  0
 39 41  1  0
  2 42  1  0
 42 43  2  0
 43 44  1  0
 43 45  1  0
 45 46  1  0
 45 47  2  0
 47 48  1  0
 48 49  1  0
 48 50  2  0
 50 51  1  0
 19  5  1  0
 39 26  1  0
 50 42  1  0
 16  7  1  0
M  CHG  1  26   1
M  END
>  <UniqueID>  (46) 
611

>  <SMILES>  (46) 
O=c1c2ccccc2nc(/C=C/c2ccncc2)n1CC[NH+]1CCNCC1

>  <Energy>  (46) 
72.30361824829178

>  <Genealogy>  (46) 
O=c1c2ccccc2nc(/C=C/c2ccncc2)n1CC[NH+]1CCNCC1 (protonated)
O=c1c2ccccc2nc(/C=C/c2ccncc2)n1CC[NH+]1CCNCC1 (cis-trans isomerization)
O=c1c2ccccc2nc(/C=C/c2ccncc2)n1CC[NH+]1CCNCC1 (3D coordinates assigned)
O=c1c2ccccc2nc(/C=C/c2ccncc2)n1CC[NH+]1CCNCC1 (nonaromatic ring conformer: 72.30361824829178 kcal/mol)

>  <smiles>  (46) 
O=c1c2ccccc2nc(/C=C/c2ccncc2)n1CCN1CCNCC1

>  <score_type>  (46) 
oracle

>  <origin>  (46) 
autodockgpu

>  <m_score__min__energy>  (46) 
-7.1500000000000004

>  <m_primary>  (46) 
energy

>  <meeko>  (46) 
{"free_energy": -7.15, "intermolecular_energy": -8.94, "internal_energy": -1.92, "cluster_size": 14, "cluster_id": 1, "rank_in_cluster": 2}

>  <energy>  (46) 
-7.13

>  <cluster_rmsd>  (46) 
0.04

>  <rmsd>  (46) 
270.67

>  <cluster>  (46) 
1

$$$$
MZUVVVBFQHRAFD-KNTUVKIBNA-O
     RDKit          3D

 51 54  0  0  0  0  0  0  0  0999 V2000
  142.3856   74.2722  221.6186 H   0  0  0  0  0  0  0  0  0  0  0  0
  142.6450   74.5700  220.5920 C   0  0  0  0  0  0  0  0  0  0  0  0
  141.8140   75.3950  219.9430 C   0  0  0  0  0  0  0  0  0  0  0  0
  141.1194   74.9865  219.1943 H   0  0  0  0  0  0  0  0  0  0  0  0
  141.8170   76.8490  220.2190 C   0  0  0  0  0  0  0  0  0  0  0  0
  141.4080   77.2520  221.4520 N   0  0  0  0  0  0  0  0  0  0  0  0
  141.3830   78.5550  221.8080 C   0  0  0  0  0  0  0  0  0  0  0  0
  140.9590   78.9210  223.0910 C   0  0  0  0  0  0  0  0  0  0  0  0
  140.6439   78.1480  223.8074 H   0  0  0  0  0  0  0  0  0  0  0  0
  140.9360   80.2690  223.4620 C   0  0  0  0  0  0  0  0  0  0  0  0
  140.6030   80.5561  224.4703 H   0  0  0  0  0  0  0  0  0  0  0  0
  141.3360   81.2520  222.5520 C   0  0  0  0  0  0  0  0  0  0  0  0
  141.3156   82.3120  222.8452 H   0  0  0  0  0  0  0  0  0  0  0  0
  141.7620   80.8910  221.2700 C   0  0  0  0  0  0  0  0  0  0  0  0
  142.0775   81.6674  220.5575 H   0  0  0  0  0  0  0  0  0  0  0  0
  141.7880   79.5350  220.8890 C   0  0  0  0  0  0  0  0  0  0  0  0
  142.1990   79.1200  219.6120 C   0  0  0  0  0  0  0  0  0  0  0  0
  142.5590   79.9880  218.7660 O   0  0  0  0  0  0  0  0  0  0  0  0
  142.2070   77.7830  219.2790 N   0  0  0  0  0  0  0  0  0  0  0  0
  142.5630   77.3990  217.8910 C   0  0  0  0  0  0  0  0  0  0  0  0
  143.5888   77.7364  217.6816 H   0  0  0  0  0  0  0  0  0  0  0  0
  142.4784   76.3053  217.8097 H   0  0  0  0  0  0  0  0  0  0  0  0
  141.6090   78.0290  216.8510 C   0  0  0  0  0  0  0  0  0  0  0  0
  141.3986   77.2787  216.0746 H   0  0  0  0  0  0  0  0  0  0  0  0
  140.7042   78.3393  217.3941 H   0  0  0  0  0  0  0  0  0  0  0  0
  142.1560   79.2460  216.1910 N   0  0  0  0  0  0  0  0  0  0  0  0
  143.0330   79.5180  216.6920 H   0  0  0  0  0  0  0  0  0  0  0  0
  142.5660   78.9740  214.7950 C   0  0  0  0  0  0  0  0  0  0  0  0
  143.1888   79.8081  214.4394 H   0  0  0  0  0  0  0  0  0  0  0  0
  143.1241   78.0262  214.7847 H   0  0  0  0  0  0  0  0  0  0  0  0
  141.3580   78.8220  213.8560 C   0  0  0  0  0  0  0  0  0  0  0  0
  141.7184   78.6722  212.8276 H   0  0  0  0  0  0  0  0  0  0  0  0
  140.7642   77.9568  214.1860 H   0  0  0  0  0  0  0  0  0  0  0  0
  140.5070   80.0160  213.8970 N   0  0  0  0  0  0  0  0  0  0  0  0
  141.0640   80.8390  213.5640 H   0  0  0  0  0  0  0  0  0  0  0  0
  140.0510   80.2790  215.2670 C   0  0  0  0  0  0  0  0  0  0  0  0
  139.4748   81.2159  215.2781 H   0  0  0  0  0  0  0  0  0  0  0  0
  139.4286   79.4321  215.5918 H   0  0  0  0  0  0  0  0  0  0  0  0
  141.2360   80.4090  216.2420 C   0  0  0  0  0  0  0  0  0  0  0  0
  141.8028   81.3164  215.9865 H   0  0  0  0  0  0  0  0  0  0  0  0
  140.8220   80.4580  217.2600 H   0  0  0  0  0  0  0  0  0  0  0  0
  143.8960   74.0360  220.0020 C   0  0  0  0  0  0  0  0  0  0  0  0
  144.9830   73.7750  220.8500 C   0  0  0  0  0  0  0  0  0  0  0  0
  144.9011   73.9722  221.9291 H   0  0  0  0  0  0  0  0  0  0  0  0
  146.1690   73.2640  220.3190 C   0  0  0  0  0  0  0  0  0  0  0  0
  147.0192   73.0486  220.9830 H   0  0  0  0  0  0  0  0  0  0  0  0
  146.2760   73.0320  218.9840 N   0  0  0  0  0  0  0  0  0  0  0  0
  145.2480   73.2880  218.1340 C   0  0  0  0  0  0  0  0  0  0  0  0
  145.3654   73.0948  217.0575 H   0  0  0  0  0  0  0  0  0  0  0  0
  144.0420   73.7960  218.6230 C   0  0  0  0  0  0  0  0  0  0  0  0
  143.2110   74.0073  217.9339 H   0  0  0  0  0  0  0  0  0  0  0  0
  1  2  1  0
  2  3  2  0
  3  4  1  0
  3  5  1  0
  5  6  2  0
  6  7  1  0
  7  8  2  0
  8  9  1  0
  8 10  1  0
 10 11  1  0
 10 12  2  0
 12 13  1  0
 12 14  1  0
 14 15  1  0
 14 16  2  0
 16 17  1  0
 17 18  2  0
 17 19  1  0
 19 20  1  0
 20 21  1  0
 20 22  1  0
 20 23  1  0
 23 24  1  0
 23 25  1  0
 23 26  1  0
 26 27  1  0
 26 28  1  0
 28 29  1  0
 28 30  1  0
 28 31  1  0
 31 32  1  0
 31 33  1  0
 31 34  1  0
 34 35  1  0
 34 36  1  0
 36 37  1  0
 36 38  1  0
 36 39  1  0
 39 40  1  0
 39 41  1  0
  2 42  1  0
 42 43  2  0
 43 44  1  0
 43 45  1  0
 45 46  1  0
 45 47  2  0
 47 48  1  0
 48 49  1  0
 48 50  2  0
 50 51  1  0
 19  5  1  0
 39 26  1  0
 50 42  1  0
 16  7  1  0
M  CHG  1  26   1
M  END
>  <UniqueID>  (47) 
611

>  <SMILES>  (47) 
O=c1c2ccccc2nc(/C=C/c2ccncc2)n1CC[NH+]1CCNCC1

>  <Energy>  (47) 
72.30361824829178

>  <Genealogy>  (47) 
O=c1c2ccccc2nc(/C=C/c2ccncc2)n1CC[NH+]1CCNCC1 (protonated)
O=c1c2ccccc2nc(/C=C/c2ccncc2)n1CC[NH+]1CCNCC1 (cis-trans isomerization)
O=c1c2ccccc2nc(/C=C/c2ccncc2)n1CC[NH+]1CCNCC1 (3D coordinates assigned)
O=c1c2ccccc2nc(/C=C/c2ccncc2)n1CC[NH+]1CCNCC1 (nonaromatic ring conformer: 72.30361824829178 kcal/mol)

>  <smiles>  (47) 
O=c1c2ccccc2nc(/C=C/c2ccncc2)n1CCN1CCNCC1

>  <score_type>  (47) 
oracle

>  <origin>  (47) 
autodockgpu

>  <m_score__min__energy>  (47) 
-7.1500000000000004

>  <m_primary>  (47) 
energy

>  <meeko>  (47) 
{"free_energy": -6.83, "intermolecular_energy": -8.62, "internal_energy": -1.7, "cluster_size": 5, "cluster_id": 2, "rank_in_cluster": 5}

>  <energy>  (47) 
-7.13

>  <cluster_rmsd>  (47) 
0.04

>  <rmsd>  (47) 
270.67

>  <cluster>  (47) 
1

$$$$
MZUVVVBFQHRAFD-KNTUVKIBNA-O
     RDKit          3D

 51 54  0  0  0  0  0  0  0  0999 V2000
  138.5726   78.1670  223.9596 H   0  0  0  0  0  0  0  0  0  0  0  0
  139.2470   78.2800  223.0980 C   0  0  0  0  0  0  0  0  0  0  0  0
  139.0650   77.4770  222.0420 C   0  0  0  0  0  0  0  0  0  0  0  0
  138.1033   77.4924  221.5083 H   0  0  0  0  0  0  0  0  0  0  0  0
  140.1400   76.5690  221.5830 C   0  0  0  0  0  0  0  0  0  0  0  0
  140.0520   75.2620  221.9500 N   0  0  0  0  0  0  0  0  0  0  0  0
  140.9750   74.3490  221.5750 C   0  0  0  0  0  0  0  0  0  0  0  0
  140.8400   73.0140  221.9730 C   0  0  0  0  0  0  0  0  0  0  0  0
  139.9844   72.7088  222.5933 H   0  0  0  0  0  0  0  0  0  0  0  0
  141.7930   72.0680  221.5820 C   0  0  0  0  0  0  0  0  0  0  0  0
  141.6855   71.0186  221.8939 H   0  0  0  0  0  0  0  0  0  0  0  0
  142.8810   72.4540  220.7960 C   0  0  0  0  0  0  0  0  0  0  0  0
  143.6298   71.7080  220.4914 H   0  0  0  0  0  0  0  0  0  0  0  0
  143.0210   73.7870  220.3950 C   0  0  0  0  0  0  0  0  0  0  0  0
  143.8789   74.0871  219.7754 H   0  0  0  0  0  0  0  0  0  0  0  0
  142.0640   74.7460  220.7840 C   0  0  0  0  0  0  0  0  0  0  0  0
  142.1610   76.0980  220.4150 C   0  0  0  0  0  0  0  0  0  0  0  0
  143.1400   76.4780  219.7100 O   0  0  0  0  0  0  0  0  0  0  0  0
  141.2050   77.0040  220.8200 N   0  0  0  0  0  0  0  0  0  0  0  0
  141.3960   78.4360  220.4820 C   0  0  0  0  0  0  0  0  0  0  0  0
  140.6328   79.0293  221.0070 H   0  0  0  0  0  0  0  0  0  0  0  0
  142.4104   78.7255  220.7938 H   0  0  0  0  0  0  0  0  0  0  0  0
  141.2720   78.6960  218.9630 C   0  0  0  0  0  0  0  0  0  0  0  0
  140.7850   77.8247  218.5009 H   0  0  0  0  0  0  0  0  0  0  0  0
  140.6861   79.6193  218.8433 H   0  0  0  0  0  0  0  0  0  0  0  0
  142.5770   78.9200  218.2820 N   0  0  0  0  0  0  0  0  0  0  0  0
  143.3220   78.4590  218.8530 H   0  0  0  0  0  0  0  0  0  0  0  0
  142.6250   78.2560  216.9590 C   0  0  0  0  0  0  0  0  0  0  0  0
  143.6692   78.2271  216.6144 H   0  0  0  0  0  0  0  0  0  0  0  0
  142.2143   77.2420  217.0739 H   0  0  0  0  0  0  0  0  0  0  0  0
  141.7770   78.9940  215.9100 C   0  0  0  0  0  0  0  0  0  0  0  0
  141.8880   78.4903  214.9384 H   0  0  0  0  0  0  0  0  0  0  0  0
  140.7260   78.9778  216.2342 H   0  0  0  0  0  0  0  0  0  0  0  0
  142.2040   80.3900  215.7780 N   0  0  0  0  0  0  0  0  0  0  0  0
  143.1990   80.4090  215.4490 H   0  0  0  0  0  0  0  0  0  0  0  0
  142.1220   81.0820  217.0690 C   0  0  0  0  0  0  0  0  0  0  0  0
  142.5143   82.1030  216.9525 H   0  0  0  0  0  0  0  0  0  0  0  0
  141.0682   81.1001  217.3838 H   0  0  0  0  0  0  0  0  0  0  0  0
  142.9370   80.3540  218.1540 C   0  0  0  0  0  0  0  0  0  0  0  0
  144.0045   80.4264  217.8989 H   0  0  0  0  0  0  0  0  0  0  0  0
  142.7122   80.8379  219.1160 H   0  0  0  0  0  0  0  0  0  0  0  0
  140.3080   79.3130  223.1690 C   0  0  0  0  0  0  0  0  0  0  0  0
  141.5290   78.9850  223.7760 C   0  0  0  0  0  0  0  0  0  0  0  0
  141.6853   77.9795  224.1938 H   0  0  0  0  0  0  0  0  0  0  0  0
  142.5460   79.9400  223.8480 C   0  0  0  0  0  0  0  0  0  0  0  0
  143.5079   79.6822  224.3152 H   0  0  0  0  0  0  0  0  0  0  0  0
  142.3510   81.1860  223.3430 N   0  0  0  0  0  0  0  0  0  0  0  0
  141.1750   81.5410  222.7620 C   0  0  0  0  0  0  0  0  0  0  0  0
  141.0442   82.5587  222.3654 H   0  0  0  0  0  0  0  0  0  0  0  0
  140.1310   80.6160  222.6670 C   0  0  0  0  0  0  0  0  0  0  0  0
  139.1766   80.9049  222.2026 H   0  0  0  0  0  0  0  0  0  0  0  0
  1  2  1  0
  2  3  2  0
  3  4  1  0
  3  5  1  0
  5  6  2  0
  6  7  1  0
  7  8  2  0
  8  9  1  0
  8 10  1  0
 10 11  1  0
 10 12  2  0
 12 13  1  0
 12 14  1  0
 14 15  1  0
 14 16  2  0
 16 17  1  0
 17 18  2  0
 17 19  1  0
 19 20  1  0
 20 21  1  0
 20 22  1  0
 20 23  1  0
 23 24  1  0
 23 25  1  0
 23 26  1  0
 26 27  1  0
 26 28  1  0
 28 29  1  0
 28 30  1  0
 28 31  1  0
 31 32  1  0
 31 33  1  0
 31 34  1  0
 34 35  1  0
 34 36  1  0
 36 37  1  0
 36 38  1  0
 36 39  1  0
 39 40  1  0
 39 41  1  0
  2 42  1  0
 42 43  2  0
 43 44  1  0
 43 45  1  0
 45 46  1  0
 45 47  2  0
 47 48  1  0
 48 49  1  0
 48 50  2  0
 50 51  1  0
 19  5  1  0
 39 26  1  0
 50 42  1  0
 16  7  1  0
M  CHG  1  26   1
M  END
>  <UniqueID>  (48) 
611

>  <SMILES>  (48) 
O=c1c2ccccc2nc(/C=C/c2ccncc2)n1CC[NH+]1CCNCC1

>  <Energy>  (48) 
72.30361824829178

>  <Genealogy>  (48) 
O=c1c2ccccc2nc(/C=C/c2ccncc2)n1CC[NH+]1CCNCC1 (protonated)
O=c1c2ccccc2nc(/C=C/c2ccncc2)n1CC[NH+]1CCNCC1 (cis-trans isomerization)
O=c1c2ccccc2nc(/C=C/c2ccncc2)n1CC[NH+]1CCNCC1 (3D coordinates assigned)
O=c1c2ccccc2nc(/C=C/c2ccncc2)n1CC[NH+]1CCNCC1 (nonaromatic ring conformer: 72.30361824829178 kcal/mol)

>  <smiles>  (48) 
O=c1c2ccccc2nc(/C=C/c2ccncc2)n1CCN1CCNCC1

>  <score_type>  (48) 
oracle

>  <origin>  (48) 
autodockgpu

>  <m_score__min__energy>  (48) 
-7.1500000000000004

>  <m_primary>  (48) 
energy

>  <meeko>  (48) 
{"free_energy": -7.13, "intermolecular_energy": -8.92, "internal_energy": -1.92, "cluster_size": 14, "cluster_id": 1, "rank_in_cluster": 5}

>  <energy>  (48) 
-7.13

>  <cluster_rmsd>  (48) 
0.04

>  <rmsd>  (48) 
270.68

>  <cluster>  (48) 
1

$$$$
MZUVVVBFQHRAFD-KNTUVKIBNA-O
     RDKit          3D

 51 54  0  0  0  0  0  0  0  0999 V2000
  142.3184   74.3179  221.6028 H   0  0  0  0  0  0  0  0  0  0  0  0
  142.6230   74.6100  220.5870 C   0  0  0  0  0  0  0  0  0  0  0  0
  141.8330   75.4490  219.9050 C   0  0  0  0  0  0  0  0  0  0  0  0
  141.1698   75.0535  219.1216 H   0  0  0  0  0  0  0  0  0  0  0  0
  141.8400   76.9020  220.1910 C   0  0  0  0  0  0  0  0  0  0  0  0
  141.4690   77.2950  221.4380 N   0  0  0  0  0  0  0  0  0  0  0  0
  141.4510   78.5960  221.8040 C   0  0  0  0  0  0  0  0  0  0  0  0
  141.0670   78.9520  223.1020 C   0  0  0  0  0  0  0  0  0  0  0  0
  140.7778   78.1734  223.8232 H   0  0  0  0  0  0  0  0  0  0  0  0
  141.0510   80.2980  223.4820 C   0  0  0  0  0  0  0  0  0  0  0  0
  140.7485   80.5775  224.5020 H   0  0  0  0  0  0  0  0  0  0  0  0
  141.4190   81.2880  222.5670 C   0  0  0  0  0  0  0  0  0  0  0  0
  141.4052   82.3459  222.8681 H   0  0  0  0  0  0  0  0  0  0  0  0
  141.8050   80.9370  221.2690 C   0  0  0  0  0  0  0  0  0  0  0  0
  142.0941   81.7192  220.5516 H   0  0  0  0  0  0  0  0  0  0  0  0
  141.8240   79.5830  220.8790 C   0  0  0  0  0  0  0  0  0  0  0  0
  142.1960   79.1780  219.5870 C   0  0  0  0  0  0  0  0  0  0  0  0
  142.5260   80.0520  218.7360 O   0  0  0  0  0  0  0  0  0  0  0  0
  142.1970   77.8430  219.2450 N   0  0  0  0  0  0  0  0  0  0  0  0
  142.5110   77.4690  217.8440 C   0  0  0  0  0  0  0  0  0  0  0  0
  143.5460   77.7669  217.6206 H   0  0  0  0  0  0  0  0  0  0  0  0
  142.3793   76.3814  217.7455 H   0  0  0  0  0  0  0  0  0  0  0  0
  141.5650   78.1570  216.8340 C   0  0  0  0  0  0  0  0  0  0  0  0
  141.2840   77.4214  216.0659 H   0  0  0  0  0  0  0  0  0  0  0  0
  140.6988   78.5224  217.4051 H   0  0  0  0  0  0  0  0  0  0  0  0
  142.1650   79.3380  216.1550 N   0  0  0  0  0  0  0  0  0  0  0  0
  143.0460   79.5870  216.6600 H   0  0  0  0  0  0  0  0  0  0  0  0
  142.5810   79.0210  214.7700 C   0  0  0  0  0  0  0  0  0  0  0  0
  143.2386   79.8236  214.4047 H   0  0  0  0  0  0  0  0  0  0  0  0
  143.1036   78.0532  214.7864 H   0  0  0  0  0  0  0  0  0  0  0  0
  141.3790   78.8940  213.8200 C   0  0  0  0  0  0  0  0  0  0  0  0
  141.7451   78.7082  212.7995 H   0  0  0  0  0  0  0  0  0  0  0  0
  140.7491   78.0592  214.1613 H   0  0  0  0  0  0  0  0  0  0  0  0
  140.5740   80.1190  213.8250 N   0  0  0  0  0  0  0  0  0  0  0  0
  141.1650   80.9130  213.4800 H   0  0  0  0  0  0  0  0  0  0  0  0
  140.1120   80.4300  215.1820 C   0  0  0  0  0  0  0  0  0  0  0  0
  139.5726   81.3885  215.1649 H   0  0  0  0  0  0  0  0  0  0  0  0
  139.4531   79.6154  215.5171 H   0  0  0  0  0  0  0  0  0  0  0  0
  141.2900   80.5360  216.1700 C   0  0  0  0  0  0  0  0  0  0  0  0
  141.8943   81.4155  215.9028 H   0  0  0  0  0  0  0  0  0  0  0  0
  140.8661   80.6228  217.1813 H   0  0  0  0  0  0  0  0  0  0  0  0
  143.8860   74.0540  220.0460 C   0  0  0  0  0  0  0  0  0  0  0  0
  143.9700   73.7850  218.6710 C   0  0  0  0  0  0  0  0  0  0  0  0
  143.1081   73.9814  218.0164 H   0  0  0  0  0  0  0  0  0  0  0  0
  145.1520   73.2670  218.1370 C   0  0  0  0  0  0  0  0  0  0  0  0
  145.2237   73.0647  217.0581 H   0  0  0  0  0  0  0  0  0  0  0  0
  146.2140   73.0120  218.9460 N   0  0  0  0  0  0  0  0  0  0  0  0
  146.1600   73.2480  220.2830 C   0  0  0  0  0  0  0  0  0  0  0  0
  147.0342   73.0290  220.9138 H   0  0  0  0  0  0  0  0  0  0  0  0
  144.9980   73.7680  220.8600 C   0  0  0  0  0  0  0  0  0  0  0  0
  144.9529   73.9526  221.9435 H   0  0  0  0  0  0  0  0  0  0  0  0
  1  2  1  0
  2  3  2  0
  3  4  1  0
  3  5  1  0
  5  6  2  0
  6  7  1  0
  7  8  2  0
  8  9  1  0
  8 10  1  0
 10 11  1  0
 10 12  2  0
 12 13  1  0
 12 14  1  0
 14 15  1  0
 14 16  2  0
 16 17  1  0
 17 18  2  0
 17 19  1  0
 19 20  1  0
 20 21  1  0
 20 22  1  0
 20 23  1  0
 23 24  1  0
 23 25  1  0
 23 26  1  0
 26 27  1  0
 26 28  1  0
 28 29  1  0
 28 30  1  0
 28 31  1  0
 31 32  1  0
 31 33  1  0
 31 34  1  0
 34 35  1  0
 34 36  1  0
 36 37  1  0
 36 38  1  0
 36 39  1  0
 39 40  1  0
 39 41  1  0
  2 42  1  0
 42 43  2  0
 43 44  1  0
 43 45  1  0
 45 46  1  0
 45 47  2  0
 47 48  1  0
 48 49  1  0
 48 50  2  0
 50 51  1  0
 19  5  1  0
 39 26  1  0
 50 42  1  0
 16  7  1  0
M  CHG  1  26   1
M  END
>  <UniqueID>  (49) 
611

>  <SMILES>  (49) 
O=c1c2ccccc2nc(/C=C/c2ccncc2)n1CC[NH+]1CCNCC1

>  <Energy>  (49) 
72.30361824829178

>  <Genealogy>  (49) 
O=c1c2ccccc2nc(/C=C/c2ccncc2)n1CC[NH+]1CCNCC1 (protonated)
O=c1c2ccccc2nc(/C=C/c2ccncc2)n1CC[NH+]1CCNCC1 (cis-trans isomerization)
O=c1c2ccccc2nc(/C=C/c2ccncc2)n1CC[NH+]1CCNCC1 (3D coordinates assigned)
O=c1c2ccccc2nc(/C=C/c2ccncc2)n1CC[NH+]1CCNCC1 (nonaromatic ring conformer: 72.30361824829178 kcal/mol)

>  <smiles>  (49) 
O=c1c2ccccc2nc(/C=C/c2ccncc2)n1CCN1CCNCC1

>  <score_type>  (49) 
oracle

>  <origin>  (49) 
autodockgpu

>  <m_score__min__energy>  (49) 
-7.1500000000000004

>  <m_primary>  (49) 
energy

>  <meeko>  (49) 
{"free_energy": -6.87, "intermolecular_energy": -8.66, "internal_energy": -1.67, "cluster_size": 5, "cluster_id": 2, "rank_in_cluster": 3}

>  <energy>  (49) 
-7.13

>  <cluster_rmsd>  (49) 
0.02

>  <rmsd>  (49) 
270.68

>  <cluster>  (49) 
1

$$$$
MZUVVVBFQHRAFD-KNTUVKIBNA-O
     RDKit          3D

 51 54  0  0  0  0  0  0  0  0999 V2000
  138.5679   78.1840  223.9635 H   0  0  0  0  0  0  0  0  0  0  0  0
  139.2610   78.2830  223.1150 C   0  0  0  0  0  0  0  0  0  0  0  0
  139.0800   77.4880  222.0540 C   0  0  0  0  0  0  0  0  0  0  0  0
  138.1200   77.5103  221.5174 H   0  0  0  0  0  0  0  0  0  0  0  0
  140.1530   76.5790  221.5920 C   0  0  0  0  0  0  0  0  0  0  0  0
  140.0670   75.2730  221.9620 N   0  0  0  0  0  0  0  0  0  0  0  0
  140.9900   74.3600  221.5860 C   0  0  0  0  0  0  0  0  0  0  0  0
  140.8570   73.0250  221.9870 C   0  0  0  0  0  0  0  0  0  0  0  0
  140.0036   72.7208  222.6108 H   0  0  0  0  0  0  0  0  0  0  0  0
  141.8080   72.0790  221.5950 C   0  0  0  0  0  0  0  0  0  0  0  0
  141.7024   71.0304  221.9102 H   0  0  0  0  0  0  0  0  0  0  0  0
  142.8930   72.4640  220.8030 C   0  0  0  0  0  0  0  0  0  0  0  0
  143.6412   71.7179  220.4973 H   0  0  0  0  0  0  0  0  0  0  0  0
  143.0300   73.7960  220.3980 C   0  0  0  0  0  0  0  0  0  0  0  0
  143.8850   74.0949  219.7739 H   0  0  0  0  0  0  0  0  0  0  0  0
  142.0750   74.7550  220.7880 C   0  0  0  0  0  0  0  0  0  0  0  0
  142.1690   76.1060  220.4160 C   0  0  0  0  0  0  0  0  0  0  0  0
  143.1440   76.4850  219.7060 O   0  0  0  0  0  0  0  0  0  0  0  0
  141.2150   77.0130  220.8230 N   0  0  0  0  0  0  0  0  0  0  0  0
  141.4030   78.4440  220.4810 C   0  0  0  0  0  0  0  0  0  0  0  0
  140.6375   79.0370  221.0028 H   0  0  0  0  0  0  0  0  0  0  0  0
  142.4161   78.7370  220.7936 H   0  0  0  0  0  0  0  0  0  0  0  0
  141.2810   78.6990  218.9610 C   0  0  0  0  0  0  0  0  0  0  0  0
  140.8018   77.8228  218.4999 H   0  0  0  0  0  0  0  0  0  0  0  0
  140.6884   79.6174  218.8372 H   0  0  0  0  0  0  0  0  0  0  0  0
  142.5860   78.9310  218.2830 N   0  0  0  0  0  0  0  0  0  0  0  0
  143.3320   78.4720  218.8530 H   0  0  0  0  0  0  0  0  0  0  0  0
  142.6390   78.2740  216.9580 C   0  0  0  0  0  0  0  0  0  0  0  0
  143.6839   78.2519  216.6150 H   0  0  0  0  0  0  0  0  0  0  0  0
  142.2326   77.2578  217.0681 H   0  0  0  0  0  0  0  0  0  0  0  0
  141.7890   79.0120  215.9100 C   0  0  0  0  0  0  0  0  0  0  0  0
  141.9040   78.5125  214.9367 H   0  0  0  0  0  0  0  0  0  0  0  0
  140.7375   78.9896  216.2322 H   0  0  0  0  0  0  0  0  0  0  0  0
  142.2100   80.4110  215.7840 N   0  0  0  0  0  0  0  0  0  0  0  0
  143.2060   80.4360  215.4570 H   0  0  0  0  0  0  0  0  0  0  0  0
  142.1230   81.0970  217.0790 C   0  0  0  0  0  0  0  0  0  0  0  0
  142.5109   82.1204  216.9680 H   0  0  0  0  0  0  0  0  0  0  0  0
  141.0687   81.1093  217.3926 H   0  0  0  0  0  0  0  0  0  0  0  0
  142.9400   80.3670  218.1610 C   0  0  0  0  0  0  0  0  0  0  0  0
  144.0074   80.4447  217.9067 H   0  0  0  0  0  0  0  0  0  0  0  0
  142.7123   80.8456  219.1249 H   0  0  0  0  0  0  0  0  0  0  0  0
  140.3450   79.2900  223.2090 C   0  0  0  0  0  0  0  0  0  0  0  0
  140.1180   80.5750  222.6940 C   0  0  0  0  0  0  0  0  0  0  0  0
  139.1528   80.8196  222.2264 H   0  0  0  0  0  0  0  0  0  0  0  0
  141.1220   81.5430  222.7770 C   0  0  0  0  0  0  0  0  0  0  0  0
  140.9431   82.5540  222.3823 H   0  0  0  0  0  0  0  0  0  0  0  0
  142.3190   81.2390  223.3440 N   0  0  0  0  0  0  0  0  0  0  0  0
  142.5760   80.0000  223.8390 C   0  0  0  0  0  0  0  0  0  0  0  0
  143.5557   79.7819  224.2893 H   0  0  0  0  0  0  0  0  0  0  0  0
  141.6000   79.0020  223.7780 C   0  0  0  0  0  0  0  0  0  0  0  0
  141.8111   77.9970  224.1723 H   0  0  0  0  0  0  0  0  0  0  0  0
  1  2  1  0
  2  3  2  0
  3  4  1  0
  3  5  1  0
  5  6  2  0
  6  7  1  0
  7  8  2  0
  8  9  1  0
  8 10  1  0
 10 11  1  0
 10 12  2  0
 12 13  1  0
 12 14  1  0
 14 15  1  0
 14 16  2  0
 16 17  1  0
 17 18  2  0
 17 19  1  0
 19 20  1  0
 20 21  1  0
 20 22  1  0
 20 23  1  0
 23 24  1  0
 23 25  1  0
 23 26  1  0
 26 27  1  0
 26 28  1  0
 28 29  1  0
 28 30  1  0
 28 31  1  0
 31 32  1  0
 31 33  1  0
 31 34  1  0
 34 35  1  0
 34 36  1  0
 36 37  1  0
 36 38  1  0
 36 39  1  0
 39 40  1  0
 39 41  1  0
  2 42  1  0
 42 43  2  0
 43 44  1  0
 43 45  1  0
 45 46  1  0
 45 47  2  0
 47 48  1  0
 48 49  1  0
 48 50  2  0
 50 51  1  0
 19  5  1  0
 39 26  1  0
 50 42  1  0
 16  7  1  0
M  CHG  1  26   1
M  END
>  <UniqueID>  (50) 
611

>  <SMILES>  (50) 
O=c1c2ccccc2nc(/C=C/c2ccncc2)n1CC[NH+]1CCNCC1

>  <Energy>  (50) 
72.30361824829178

>  <Genealogy>  (50) 
O=c1c2ccccc2nc(/C=C/c2ccncc2)n1CC[NH+]1CCNCC1 (protonated)
O=c1c2ccccc2nc(/C=C/c2ccncc2)n1CC[NH+]1CCNCC1 (cis-trans isomerization)
O=c1c2ccccc2nc(/C=C/c2ccncc2)n1CC[NH+]1CCNCC1 (3D coordinates assigned)
O=c1c2ccccc2nc(/C=C/c2ccncc2)n1CC[NH+]1CCNCC1 (nonaromatic ring conformer: 72.30361824829178 kcal/mol)

>  <smiles>  (50) 
O=c1c2ccccc2nc(/C=C/c2ccncc2)n1CCN1CCNCC1

>  <score_type>  (50) 
oracle

>  <origin>  (50) 
autodockgpu

>  <m_score__min__energy>  (50) 
-7.1500000000000004

>  <m_primary>  (50) 
energy

>  <meeko>  (50) 
{"free_energy": -7.13, "intermolecular_energy": -8.92, "internal_energy": -1.94, "cluster_size": 14, "cluster_id": 1, "rank_in_cluster": 9}

>  <energy>  (50) 
-7.12

>  <cluster_rmsd>  (50) 
0.05

>  <rmsd>  (50) 
270.69

>  <cluster>  (50) 
1

$$$$
MZUVVVBFQHRAFD-KNTUVKIBNA-O
     RDKit          3D

 51 54  0  0  0  0  0  0  0  0999 V2000
  138.5465   78.1854  223.9474 H   0  0  0  0  0  0  0  0  0  0  0  0
  139.2460   78.2820  223.1040 C   0  0  0  0  0  0  0  0  0  0  0  0
  139.0720   77.4840  222.0420 C   0  0  0  0  0  0  0  0  0  0  0  0
  138.1144   77.5017  221.5010 H   0  0  0  0  0  0  0  0  0  0  0  0
  140.1510   76.5790  221.5870 C   0  0  0  0  0  0  0  0  0  0  0  0
  140.0600   75.2700  221.9460 N   0  0  0  0  0  0  0  0  0  0  0  0
  140.9870   74.3590  221.5730 C   0  0  0  0  0  0  0  0  0  0  0  0
  140.8480   73.0220  221.9620 C   0  0  0  0  0  0  0  0  0  0  0  0
  139.9867   72.7133  222.5726 H   0  0  0  0  0  0  0  0  0  0  0  0
  141.8050   72.0780  221.5740 C   0  0  0  0  0  0  0  0  0  0  0  0
  141.6953   71.0269  221.8794 H   0  0  0  0  0  0  0  0  0  0  0  0
  142.9000   72.4690  220.7990 C   0  0  0  0  0  0  0  0  0  0  0  0
  143.6519   71.7252  220.4966 H   0  0  0  0  0  0  0  0  0  0  0  0
  143.0420   73.8040  220.4070 C   0  0  0  0  0  0  0  0  0  0  0  0
  143.9049   74.1078  219.7961 H   0  0  0  0  0  0  0  0  0  0  0  0
  142.0820   74.7610  220.7930 C   0  0  0  0  0  0  0  0  0  0  0  0
  142.1820   76.1150  220.4330 C   0  0  0  0  0  0  0  0  0  0  0  0
  143.1660   76.4990  219.7390 O   0  0  0  0  0  0  0  0  0  0  0  0
  141.2220   77.0180  220.8350 N   0  0  0  0  0  0  0  0  0  0  0  0
  141.4160   78.4520  220.5070 C   0  0  0  0  0  0  0  0  0  0  0  0
  140.6590   79.0439  221.0423 H   0  0  0  0  0  0  0  0  0  0  0  0
  142.4338   78.7350  220.8136 H   0  0  0  0  0  0  0  0  0  0  0  0
  141.2820   78.7250  218.9910 C   0  0  0  0  0  0  0  0  0  0  0  0
  140.7816   77.8626  218.5263 H   0  0  0  0  0  0  0  0  0  0  0  0
  140.7051   79.6553  218.8831 H   0  0  0  0  0  0  0  0  0  0  0  0
  142.5840   78.9400  218.3010 N   0  0  0  0  0  0  0  0  0  0  0  0
  143.3310   78.4830  218.8720 H   0  0  0  0  0  0  0  0  0  0  0  0
  142.6240   78.2660  216.9840 C   0  0  0  0  0  0  0  0  0  0  0  0
  143.6664   78.2327  216.6342 H   0  0  0  0  0  0  0  0  0  0  0  0
  142.2123   77.2536  217.1090 H   0  0  0  0  0  0  0  0  0  0  0  0
  141.7720   78.9970  215.9340 C   0  0  0  0  0  0  0  0  0  0  0  0
  141.8762   78.4846  214.9662 H   0  0  0  0  0  0  0  0  0  0  0  0
  140.7230   78.9863  216.2649 H   0  0  0  0  0  0  0  0  0  0  0  0
  142.2010   80.3910  215.7870 N   0  0  0  0  0  0  0  0  0  0  0  0
  143.1950   80.4050  215.4530 H   0  0  0  0  0  0  0  0  0  0  0  0
  142.1270   81.0930  217.0730 C   0  0  0  0  0  0  0  0  0  0  0  0
  142.5202   82.1125  216.9465 H   0  0  0  0  0  0  0  0  0  0  0  0
  141.0749   81.1150  217.3932 H   0  0  0  0  0  0  0  0  0  0  0  0
  142.9470   80.3720  218.1600 C   0  0  0  0  0  0  0  0  0  0  0  0
  144.0133   80.4399  217.8984 H   0  0  0  0  0  0  0  0  0  0  0  0
  142.7293   80.8642  219.1193 H   0  0  0  0  0  0  0  0  0  0  0  0
  140.3300   79.2880  223.2040 C   0  0  0  0  0  0  0  0  0  0  0  0
  140.1020   80.5770  222.6970 C   0  0  0  0  0  0  0  0  0  0  0  0
  139.1369   80.8242  222.2307 H   0  0  0  0  0  0  0  0  0  0  0  0
  141.1050   81.5440  222.7870 C   0  0  0  0  0  0  0  0  0  0  0  0
  140.9251   82.5579  222.4001 H   0  0  0  0  0  0  0  0  0  0  0  0
  142.3030   81.2370  223.3510 N   0  0  0  0  0  0  0  0  0  0  0  0
  142.5610   79.9950  223.8380 C   0  0  0  0  0  0  0  0  0  0  0  0
  143.5410   79.7744  224.2863 H   0  0  0  0  0  0  0  0  0  0  0  0
  141.5850   78.9970  223.7710 C   0  0  0  0  0  0  0  0  0  0  0  0
  141.7964   77.9897  224.1592 H   0  0  0  0  0  0  0  0  0  0  0  0
  1  2  1  0
  2  3  2  0
  3  4  1  0
  3  5  1  0
  5  6  2  0
  6  7  1  0
  7  8  2  0
  8  9  1  0
  8 10  1  0
 10 11  1  0
 10 12  2  0
 12 13  1  0
 12 14  1  0
 14 15  1  0
 14 16  2  0
 16 17  1  0
 17 18  2  0
 17 19  1  0
 19 20  1  0
 20 21  1  0
 20 22  1  0
 20 23  1  0
 23 24  1  0
 23 25  1  0
 23 26  1  0
 26 27  1  0
 26 28  1  0
 28 29  1  0
 28 30  1  0
 28 31  1  0
 31 32  1  0
 31 33  1  0
 31 34  1  0
 34 35  1  0
 34 36  1  0
 36 37  1  0
 36 38  1  0
 36 39  1  0
 39 40  1  0
 39 41  1  0
  2 42  1  0
 42 43  2  0
 43 44  1  0
 43 45  1  0
 45 46  1  0
 45 47  2  0
 47 48  1  0
 48 49  1  0
 48 50  2  0
 50 51  1  0
 19  5  1  0
 39 26  1  0
 50 42  1  0
 16  7  1  0
M  CHG  1  26   1
M  END
>  <UniqueID>  (51) 
611

>  <SMILES>  (51) 
O=c1c2ccccc2nc(/C=C/c2ccncc2)n1CC[NH+]1CCNCC1

>  <Energy>  (51) 
72.30361824829178

>  <Genealogy>  (51) 
O=c1c2ccccc2nc(/C=C/c2ccncc2)n1CC[NH+]1CCNCC1 (protonated)
O=c1c2ccccc2nc(/C=C/c2ccncc2)n1CC[NH+]1CCNCC1 (cis-trans isomerization)
O=c1c2ccccc2nc(/C=C/c2ccncc2)n1CC[NH+]1CCNCC1 (3D coordinates assigned)
O=c1c2ccccc2nc(/C=C/c2ccncc2)n1CC[NH+]1CCNCC1 (nonaromatic ring conformer: 72.30361824829178 kcal/mol)

>  <smiles>  (51) 
O=c1c2ccccc2nc(/C=C/c2ccncc2)n1CCN1CCNCC1

>  <score_type>  (51) 
oracle

>  <origin>  (51) 
autodockgpu

>  <m_score__min__energy>  (51) 
-7.1500000000000004

>  <m_primary>  (51) 
energy

>  <meeko>  (51) 
{"free_energy": -7.15, "intermolecular_energy": -8.94, "internal_energy": -1.91, "cluster_size": 14, "cluster_id": 1, "rank_in_cluster": 1}

>  <energy>  (51) 
-7.12

>  <cluster_rmsd>  (51) 
0.05

>  <rmsd>  (51) 
270.66

>  <cluster>  (51) 
1

$$$$
MZUVVVBFQHRAFD-KNTUVKIBNA-O
     RDKit          3D

 51 54  0  0  0  0  0  0  0  0999 V2000
  142.3248   74.3665  221.5576 H   0  0  0  0  0  0  0  0  0  0  0  0
  142.6130   74.6620  220.5380 C   0  0  0  0  0  0  0  0  0  0  0  0
  141.8140   75.5060  219.8740 C   0  0  0  0  0  0  0  0  0  0  0  0
  141.1396   75.1163  219.0973 H   0  0  0  0  0  0  0  0  0  0  0  0
  141.8250   76.9560  220.1700 C   0  0  0  0  0  0  0  0  0  0  0  0
  141.4540   77.3410  221.4200 N   0  0  0  0  0  0  0  0  0  0  0  0
  141.4390   78.6390  221.7950 C   0  0  0  0  0  0  0  0  0  0  0  0
  141.0540   78.9870  223.0950 C   0  0  0  0  0  0  0  0  0  0  0  0
  140.7609   78.2041  223.8099 H   0  0  0  0  0  0  0  0  0  0  0  0
  141.0420   80.3300  223.4850 C   0  0  0  0  0  0  0  0  0  0  0  0
  140.7394   80.6027  224.5068 H   0  0  0  0  0  0  0  0  0  0  0  0
  141.4140   81.3260  222.5780 C   0  0  0  0  0  0  0  0  0  0  0  0
  141.4032   82.3817  222.8870 H   0  0  0  0  0  0  0  0  0  0  0  0
  141.8000   80.9830  221.2780 C   0  0  0  0  0  0  0  0  0  0  0  0
  142.0917   81.7696  220.5665 H   0  0  0  0  0  0  0  0  0  0  0  0
  141.8160   79.6320  220.8780 C   0  0  0  0  0  0  0  0  0  0  0  0
  142.1880   79.2350  219.5830 C   0  0  0  0  0  0  0  0  0  0  0  0
  142.5220   80.1150  218.7390 O   0  0  0  0  0  0  0  0  0  0  0  0
  142.1860   77.9030  219.2320 N   0  0  0  0  0  0  0  0  0  0  0  0
  142.5010   77.5380  217.8290 C   0  0  0  0  0  0  0  0  0  0  0  0
  143.5359   77.8383  217.6079 H   0  0  0  0  0  0  0  0  0  0  0  0
  142.3705   76.4509  217.7237 H   0  0  0  0  0  0  0  0  0  0  0  0
  141.5540   78.2320  216.8220 C   0  0  0  0  0  0  0  0  0  0  0  0
  141.2740   77.5011  216.0491 H   0  0  0  0  0  0  0  0  0  0  0  0
  140.6869   78.5929  217.3946 H   0  0  0  0  0  0  0  0  0  0  0  0
  142.1540   79.4180  216.1510 N   0  0  0  0  0  0  0  0  0  0  0  0
  143.0350   79.6640  216.6580 H   0  0  0  0  0  0  0  0  0  0  0  0
  142.5690   79.1100  214.7640 C   0  0  0  0  0  0  0  0  0  0  0  0
  143.2265   79.9149  214.4037 H   0  0  0  0  0  0  0  0  0  0  0  0
  143.0911   78.1419  214.7742 H   0  0  0  0  0  0  0  0  0  0  0  0
  141.3670   78.9890  213.8130 C   0  0  0  0  0  0  0  0  0  0  0  0
  141.7331   78.8105  212.7912 H   0  0  0  0  0  0  0  0  0  0  0  0
  140.7374   78.1515  214.1480 H   0  0  0  0  0  0  0  0  0  0  0  0
  140.5620   80.2140  213.8270 N   0  0  0  0  0  0  0  0  0  0  0  0
  141.1530   81.0110  213.4870 H   0  0  0  0  0  0  0  0  0  0  0  0
  140.1010   80.5160  215.1870 C   0  0  0  0  0  0  0  0  0  0  0  0
  139.5612   81.4744  215.1766 H   0  0  0  0  0  0  0  0  0  0  0  0
  139.4430   79.6987  215.5172 H   0  0  0  0  0  0  0  0  0  0  0  0
  141.2780   80.6160  216.1740 C   0  0  0  0  0  0  0  0  0  0  0  0
  141.8818   81.4974  215.9122 H   0  0  0  0  0  0  0  0  0  0  0  0
  140.8545   80.6960  217.1860 H   0  0  0  0  0  0  0  0  0  0  0  0
  143.8650   74.1040  219.9740 C   0  0  0  0  0  0  0  0  0  0  0  0
  144.9260   73.8120  220.8450 C   0  0  0  0  0  0  0  0  0  0  0  0
  144.8232   74.0030  221.9234 H   0  0  0  0  0  0  0  0  0  0  0  0
  146.1130   73.2780  220.3380 C   0  0  0  0  0  0  0  0  0  0  0  0
  146.9418   73.0380  221.0203 H   0  0  0  0  0  0  0  0  0  0  0  0
  146.2470   73.0540  219.0040 N   0  0  0  0  0  0  0  0  0  0  0  0
  145.2450   73.3390  218.1320 C   0  0  0  0  0  0  0  0  0  0  0  0
  145.3832   73.1497  217.0573 H   0  0  0  0  0  0  0  0  0  0  0  0
  144.0390   73.8720  218.5960 C   0  0  0  0  0  0  0  0  0  0  0  0
  143.2305   74.1089  217.8888 H   0  0  0  0  0  0  0  0  0  0  0  0
  1  2  1  0
  2  3  2  0
  3  4  1  0
  3  5  1  0
  5  6  2  0
  6  7  1  0
  7  8  2  0
  8  9  1  0
  8 10  1  0
 10 11  1  0
 10 12  2  0
 12 13  1  0
 12 14  1  0
 14 15  1  0
 14 16  2  0
 16 17  1  0
 17 18  2  0
 17 19  1  0
 19 20  1  0
 20 21  1  0
 20 22  1  0
 20 23  1  0
 23 24  1  0
 23 25  1  0
 23 26  1  0
 26 27  1  0
 26 28  1  0
 28 29  1  0
 28 30  1  0
 28 31  1  0
 31 32  1  0
 31 33  1  0
 31 34  1  0
 34 35  1  0
 34 36  1  0
 36 37  1  0
 36 38  1  0
 36 39  1  0
 39 40  1  0
 39 41  1  0
  2 42  1  0
 42 43  2  0
 43 44  1  0
 43 45  1  0
 45 46  1  0
 45 47  2  0
 47 48  1  0
 48 49  1  0
 48 50  2  0
 50 51  1  0
 19  5  1  0
 39 26  1  0
 50 42  1  0
 16  7  1  0
M  CHG  1  26   1
M  END
>  <UniqueID>  (52) 
611

>  <SMILES>  (52) 
O=c1c2ccccc2nc(/C=C/c2ccncc2)n1CC[NH+]1CCNCC1

>  <Energy>  (52) 
72.30361824829178

>  <Genealogy>  (52) 
O=c1c2ccccc2nc(/C=C/c2ccncc2)n1CC[NH+]1CCNCC1 (protonated)
O=c1c2ccccc2nc(/C=C/c2ccncc2)n1CC[NH+]1CCNCC1 (cis-trans isomerization)
O=c1c2ccccc2nc(/C=C/c2ccncc2)n1CC[NH+]1CCNCC1 (3D coordinates assigned)
O=c1c2ccccc2nc(/C=C/c2ccncc2)n1CC[NH+]1CCNCC1 (nonaromatic ring conformer: 72.30361824829178 kcal/mol)

>  <smiles>  (52) 
O=c1c2ccccc2nc(/C=C/c2ccncc2)n1CCN1CCNCC1

>  <score_type>  (52) 
oracle

>  <origin>  (52) 
autodockgpu

>  <m_score__min__energy>  (52) 
-7.1500000000000004

>  <m_primary>  (52) 
energy

>  <meeko>  (52) 
{"free_energy": -6.87, "intermolecular_energy": -8.66, "internal_energy": -1.67, "cluster_size": 5, "cluster_id": 2, "rank_in_cluster": 1}

>  <energy>  (52) 
-6.96

>  <cluster_rmsd>  (52) 
0.22

>  <rmsd>  (52) 
270.64

>  <cluster>  (52) 
1

$$$$
MZUVVVBFQHRAFD-KNTUVKIBNA-O
     RDKit          3D

 51 54  0  0  0  0  0  0  0  0999 V2000
  138.5648   78.1628  223.9535 H   0  0  0  0  0  0  0  0  0  0  0  0
  139.2480   78.2700  223.0980 C   0  0  0  0  0  0  0  0  0  0  0  0
  139.0710   77.4670  222.0420 C   0  0  0  0  0  0  0  0  0  0  0  0
  138.1107   77.4797  221.5057 H   0  0  0  0  0  0  0  0  0  0  0  0
  140.1500   76.5620  221.5860 C   0  0  0  0  0  0  0  0  0  0  0  0
  140.0670   75.2550  221.9540 N   0  0  0  0  0  0  0  0  0  0  0  0
  140.9940   74.3450  221.5810 C   0  0  0  0  0  0  0  0  0  0  0  0
  140.8630   73.0100  221.9810 C   0  0  0  0  0  0  0  0  0  0  0  0
  140.0073   72.7022  222.5999 H   0  0  0  0  0  0  0  0  0  0  0  0
  141.8210   72.0680  221.5930 C   0  0  0  0  0  0  0  0  0  0  0  0
  141.7179   71.0188  221.9071 H   0  0  0  0  0  0  0  0  0  0  0  0
  142.9090   72.4570  220.8070 C   0  0  0  0  0  0  0  0  0  0  0  0
  143.6612   71.7138  220.5040 H   0  0  0  0  0  0  0  0  0  0  0  0
  143.0430   73.7900  220.4050 C   0  0  0  0  0  0  0  0  0  0  0  0
  143.9005   74.0929  219.7861 H   0  0  0  0  0  0  0  0  0  0  0  0
  142.0820   74.7460  220.7910 C   0  0  0  0  0  0  0  0  0  0  0  0
  142.1750   76.0980  220.4210 C   0  0  0  0  0  0  0  0  0  0  0  0
  143.1530   76.4800  219.7170 O   0  0  0  0  0  0  0  0  0  0  0  0
  141.2150   77.0000  220.8230 N   0  0  0  0  0  0  0  0  0  0  0  0
  141.4000   78.4320  220.4840 C   0  0  0  0  0  0  0  0  0  0  0  0
  140.6298   79.0217  221.0027 H   0  0  0  0  0  0  0  0  0  0  0  0
  142.4106   78.7277  220.8022 H   0  0  0  0  0  0  0  0  0  0  0  0
  141.2850   78.6890  218.9640 C   0  0  0  0  0  0  0  0  0  0  0  0
  140.8086   77.8131  218.4995 H   0  0  0  0  0  0  0  0  0  0  0  0
  140.6925   79.6073  218.8389 H   0  0  0  0  0  0  0  0  0  0  0  0
  142.5930   78.9230  218.2920 N   0  0  0  0  0  0  0  0  0  0  0  0
  143.3370   78.4660  218.8670 H   0  0  0  0  0  0  0  0  0  0  0  0
  142.6540   78.2630  216.9690 C   0  0  0  0  0  0  0  0  0  0  0  0
  143.7006   78.2418  216.6312 H   0  0  0  0  0  0  0  0  0  0  0  0
  142.2492   77.2461  217.0789 H   0  0  0  0  0  0  0  0  0  0  0  0
  141.8080   78.9980  215.9160 C   0  0  0  0  0  0  0  0  0  0  0  0
  141.9279   78.4967  214.9442 H   0  0  0  0  0  0  0  0  0  0  0  0
  140.7551   78.9751  216.2337 H   0  0  0  0  0  0  0  0  0  0  0  0
  142.2280   80.3980  215.7890 N   0  0  0  0  0  0  0  0  0  0  0  0
  143.2250   80.4240  215.4670 H   0  0  0  0  0  0  0  0  0  0  0  0
  142.1320   81.0850  217.0820 C   0  0  0  0  0  0  0  0  0  0  0  0
  142.5172   82.1094  216.9715 H   0  0  0  0  0  0  0  0  0  0  0  0
  141.0760   81.0937  217.3897 H   0  0  0  0  0  0  0  0  0  0  0  0
  142.9450   80.3600  218.1700 C   0  0  0  0  0  0  0  0  0  0  0  0
  144.0136   80.4399  217.9216 H   0  0  0  0  0  0  0  0  0  0  0  0
  142.7117   80.8401  219.1318 H   0  0  0  0  0  0  0  0  0  0  0  0
  140.3150   79.2960  223.1770 C   0  0  0  0  0  0  0  0  0  0  0  0
  141.5420   78.9500  223.7640 C   0  0  0  0  0  0  0  0  0  0  0  0
  141.6973   77.9358  224.1606 H   0  0  0  0  0  0  0  0  0  0  0  0
  142.5650   79.8970  223.8430 C   0  0  0  0  0  0  0  0  0  0  0  0
  143.5307   79.6248  224.2940 H   0  0  0  0  0  0  0  0  0  0  0  0
  142.3710   81.1550  223.3640 N   0  0  0  0  0  0  0  0  0  0  0  0
  141.1910   81.5260  222.8030 C   0  0  0  0  0  0  0  0  0  0  0  0
  141.0616   82.5515  222.4268 H   0  0  0  0  0  0  0  0  0  0  0  0
  140.1410   80.6100  222.7020 C   0  0  0  0  0  0  0  0  0  0  0  0
  139.1835   80.9137  222.2538 H   0  0  0  0  0  0  0  0  0  0  0  0
  1  2  1  0
  2  3  2  0
  3  4  1  0
  3  5  1  0
  5  6  2  0
  6  7  1  0
  7  8  2  0
  8  9  1  0
  8 10  1  0
 10 11  1  0
 10 12  2  0
 12 13  1  0
 12 14  1  0
 14 15  1  0
 14 16  2  0
 16 17  1  0
 17 18  2  0
 17 19  1  0
 19 20  1  0
 20 21  1  0
 20 22  1  0
 20 23  1  0
 23 24  1  0
 23 25  1  0
 23 26  1  0
 26 27  1  0
 26 28  1  0
 28 29  1  0
 28 30  1  0
 28 31  1  0
 31 32  1  0
 31 33  1  0
 31 34  1  0
 34 35  1  0
 34 36  1  0
 36 37  1  0
 36 38  1  0
 36 39  1  0
 39 40  1  0
 39 41  1  0
  2 42  1  0
 42 43  2  0
 43 44  1  0
 43 45  1  0
 45 46  1  0
 45 47  2  0
 47 48  1  0
 48 49  1  0
 48 50  2  0
 50 51  1  0
 19  5  1  0
 39 26  1  0
 50 42  1  0
 16  7  1  0
M  CHG  1  26   1
M  END
>  <UniqueID>  (53) 
611

>  <SMILES>  (53) 
O=c1c2ccccc2nc(/C=C/c2ccncc2)n1CC[NH+]1CCNCC1

>  <Energy>  (53) 
72.30361824829178

>  <Genealogy>  (53) 
O=c1c2ccccc2nc(/C=C/c2ccncc2)n1CC[NH+]1CCNCC1 (protonated)
O=c1c2ccccc2nc(/C=C/c2ccncc2)n1CC[NH+]1CCNCC1 (cis-trans isomerization)
O=c1c2ccccc2nc(/C=C/c2ccncc2)n1CC[NH+]1CCNCC1 (3D coordinates assigned)
O=c1c2ccccc2nc(/C=C/c2ccncc2)n1CC[NH+]1CCNCC1 (nonaromatic ring conformer: 72.30361824829178 kcal/mol)

>  <smiles>  (53) 
O=c1c2ccccc2nc(/C=C/c2ccncc2)n1CCN1CCNCC1

>  <score_type>  (53) 
oracle

>  <origin>  (53) 
autodockgpu

>  <m_score__min__energy>  (53) 
-7.1500000000000004

>  <m_primary>  (53) 
energy

>  <meeko>  (53) 
{"free_energy": -7.13, "intermolecular_energy": -8.92, "internal_energy": -1.92, "cluster_size": 14, "cluster_id": 1, "rank_in_cluster": 8}

>  <energy>  (53) 
-6.91

>  <cluster_rmsd>  (53) 
0.36

>  <rmsd>  (53) 
270.62

>  <cluster>  (53) 
1

$$$$
MZUVVVBFQHRAFD-KNTUVKIBNA-O
     RDKit          3D

 51 54  0  0  0  0  0  0  0  0999 V2000
  138.5809   78.1579  223.9736 H   0  0  0  0  0  0  0  0  0  0  0  0
  139.2470   78.2740  223.1060 C   0  0  0  0  0  0  0  0  0  0  0  0
  139.0630   77.4660  222.0540 C   0  0  0  0  0  0  0  0  0  0  0  0
  138.0996   77.4771  221.5231 H   0  0  0  0  0  0  0  0  0  0  0  0
  140.1390   76.5580  221.5960 C   0  0  0  0  0  0  0  0  0  0  0  0
  140.0520   75.2520  221.9640 N   0  0  0  0  0  0  0  0  0  0  0  0
  140.9770   74.3400  221.5890 C   0  0  0  0  0  0  0  0  0  0  0  0
  140.8430   73.0050  221.9880 C   0  0  0  0  0  0  0  0  0  0  0  0
  139.9870   72.6994  222.6077 H   0  0  0  0  0  0  0  0  0  0  0  0
  141.7970   72.0600  221.5990 C   0  0  0  0  0  0  0  0  0  0  0  0
  141.6911   71.0110  221.9127 H   0  0  0  0  0  0  0  0  0  0  0  0
  142.8850   72.4470  220.8120 C   0  0  0  0  0  0  0  0  0  0  0  0
  143.6352   71.7021  220.5082 H   0  0  0  0  0  0  0  0  0  0  0  0
  143.0220   73.7790  220.4100 C   0  0  0  0  0  0  0  0  0  0  0  0
  143.8794   74.0795  219.7899 H   0  0  0  0  0  0  0  0  0  0  0  0
  142.0650   74.7370  220.7970 C   0  0  0  0  0  0  0  0  0  0  0  0
  142.1600   76.0890  220.4280 C   0  0  0  0  0  0  0  0  0  0  0  0
  143.1380   76.4690  219.7220 O   0  0  0  0  0  0  0  0  0  0  0  0
  141.2030   76.9940  220.8310 N   0  0  0  0  0  0  0  0  0  0  0  0
  141.3920   78.4260  220.4920 C   0  0  0  0  0  0  0  0  0  0  0  0
  140.6256   79.0182  221.0135 H   0  0  0  0  0  0  0  0  0  0  0  0
  142.4046   78.7181  220.8071 H   0  0  0  0  0  0  0  0  0  0  0  0
  141.2730   78.6840  218.9730 C   0  0  0  0  0  0  0  0  0  0  0  0
  140.7894   77.8111  218.5102 H   0  0  0  0  0  0  0  0  0  0  0  0
  140.6859   79.6061  218.8506 H   0  0  0  0  0  0  0  0  0  0  0  0
  142.5790   78.9100  218.2960 N   0  0  0  0  0  0  0  0  0  0  0  0
  143.3240   78.4540  218.8710 H   0  0  0  0  0  0  0  0  0  0  0  0
  142.6350   78.2440  216.9750 C   0  0  0  0  0  0  0  0  0  0  0  0
  143.6807   78.2190  216.6346 H   0  0  0  0  0  0  0  0  0  0  0  0
  142.2281   77.2286  217.0904 H   0  0  0  0  0  0  0  0  0  0  0  0
  141.7880   78.9760  215.9210 C   0  0  0  0  0  0  0  0  0  0  0  0
  141.9042   78.4701  214.9512 H   0  0  0  0  0  0  0  0  0  0  0  0
  140.7358   78.9570  216.2412 H   0  0  0  0  0  0  0  0  0  0  0  0
  142.2110   80.3730  215.7870 N   0  0  0  0  0  0  0  0  0  0  0  0
  143.2070   80.3950  215.4610 H   0  0  0  0  0  0  0  0  0  0  0  0
  142.1220   81.0680  217.0760 C   0  0  0  0  0  0  0  0  0  0  0  0
  142.5112   82.0901  216.9584 H   0  0  0  0  0  0  0  0  0  0  0  0
  141.0670   81.0835  217.3871 H   0  0  0  0  0  0  0  0  0  0  0  0
  142.9360   80.3450  218.1660 C   0  0  0  0  0  0  0  0  0  0  0  0
  144.0042   80.4197  217.9141 H   0  0  0  0  0  0  0  0  0  0  0  0
  142.7073   80.8307  219.1261 H   0  0  0  0  0  0  0  0  0  0  0  0
  140.2990   79.3160  223.1650 C   0  0  0  0  0  0  0  0  0  0  0  0
  141.5300   78.9980  223.7600 C   0  0  0  0  0  0  0  0  0  0  0  0
  141.6983   77.9941  224.1769 H   0  0  0  0  0  0  0  0  0  0  0  0
  142.5400   79.9600  223.8210 C   0  0  0  0  0  0  0  0  0  0  0  0
  143.5086   79.7098  224.2783 H   0  0  0  0  0  0  0  0  0  0  0  0
  142.3300   81.2050  223.3170 N   0  0  0  0  0  0  0  0  0  0  0  0
  141.1450   81.5500  222.7470 C   0  0  0  0  0  0  0  0  0  0  0  0
  141.0021   82.5662  222.3509 H   0  0  0  0  0  0  0  0  0  0  0  0
  140.1080   80.6170  222.6630 C   0  0  0  0  0  0  0  0  0  0  0  0
  139.1473   80.8979  222.2068 H   0  0  0  0  0  0  0  0  0  0  0  0
  1  2  1  0
  2  3  2  0
  3  4  1  0
  3  5  1  0
  5  6  2  0
  6  7  1  0
  7  8  2  0
  8  9  1  0
  8 10  1  0
 10 11  1  0
 10 12  2  0
 12 13  1  0
 12 14  1  0
 14 15  1  0
 14 16  2  0
 16 17  1  0
 17 18  2  0
 17 19  1  0
 19 20  1  0
 20 21  1  0
 20 22  1  0
 20 23  1  0
 23 24  1  0
 23 25  1  0
 23 26  1  0
 26 27  1  0
 26 28  1  0
 28 29  1  0
 28 30  1  0
 28 31  1  0
 31 32  1  0
 31 33  1  0
 31 34  1  0
 34 35  1  0
 34 36  1  0
 36 37  1  0
 36 38  1  0
 36 39  1  0
 39 40  1  0
 39 41  1  0
  2 42  1  0
 42 43  2  0
 43 44  1  0
 43 45  1  0
 45 46  1  0
 45 47  2  0
 47 48  1  0
 48 49  1  0
 48 50  2  0
 50 51  1  0
 19  5  1  0
 39 26  1  0
 50 42  1  0
 16  7  1  0
M  CHG  1  26   1
M  END
>  <UniqueID>  (54) 
611

>  <SMILES>  (54) 
O=c1c2ccccc2nc(/C=C/c2ccncc2)n1CC[NH+]1CCNCC1

>  <Energy>  (54) 
72.30361824829178

>  <Genealogy>  (54) 
O=c1c2ccccc2nc(/C=C/c2ccncc2)n1CC[NH+]1CCNCC1 (protonated)
O=c1c2ccccc2nc(/C=C/c2ccncc2)n1CC[NH+]1CCNCC1 (cis-trans isomerization)
O=c1c2ccccc2nc(/C=C/c2ccncc2)n1CC[NH+]1CCNCC1 (3D coordinates assigned)
O=c1c2ccccc2nc(/C=C/c2ccncc2)n1CC[NH+]1CCNCC1 (nonaromatic ring conformer: 72.30361824829178 kcal/mol)

>  <smiles>  (54) 
O=c1c2ccccc2nc(/C=C/c2ccncc2)n1CCN1CCNCC1

>  <score_type>  (54) 
oracle

>  <origin>  (54) 
autodockgpu

>  <m_score__min__energy>  (54) 
-7.1500000000000004

>  <m_primary>  (54) 
energy

>  <meeko>  (54) 
{"free_energy": -7.13, "intermolecular_energy": -8.92, "internal_energy": -1.92, "cluster_size": 14, "cluster_id": 1, "rank_in_cluster": 6}

>  <energy>  (54) 
-6.85

>  <cluster_rmsd>  (54) 
0.68

>  <rmsd>  (54) 
270.54

>  <cluster>  (54) 
1

$$$$
MZUVVVBFQHRAFD-KNTUVKIBNA-O
     RDKit          3D

 51 54  0  0  0  0  0  0  0  0999 V2000
  138.6439   78.1191  223.9647 H   0  0  0  0  0  0  0  0  0  0  0  0
  139.3240   78.2490  223.1100 C   0  0  0  0  0  0  0  0  0  0  0  0
  139.1350   77.4840  222.0280 C   0  0  0  0  0  0  0  0  0  0  0  0
  138.1555   77.4863  221.5274 H   0  0  0  0  0  0  0  0  0  0  0  0
  140.2240   76.6350  221.4950 C   0  0  0  0  0  0  0  0  0  0  0  0
  140.2080   75.3170  221.8280 N   0  0  0  0  0  0  0  0  0  0  0  0
  141.1510   74.4550  221.3860 C   0  0  0  0  0  0  0  0  0  0  0  0
  141.0900   73.1050  221.7500 C   0  0  0  0  0  0  0  0  0  0  0  0
  140.2762   72.7464  222.3974 H   0  0  0  0  0  0  0  0  0  0  0  0
  142.0630   72.2120  221.2910 C   0  0  0  0  0  0  0  0  0  0  0  0
  142.0142   71.1511  221.5775 H   0  0  0  0  0  0  0  0  0  0  0  0
  143.0970   72.6660  220.4690 C   0  0  0  0  0  0  0  0  0  0  0  0
  143.8621   71.9618  220.1101 H   0  0  0  0  0  0  0  0  0  0  0  0
  143.1620   74.0140  220.1010 C   0  0  0  0  0  0  0  0  0  0  0  0
  143.9774   74.3677  219.4529 H   0  0  0  0  0  0  0  0  0  0  0  0
  142.1850   74.9190  220.5590 C   0  0  0  0  0  0  0  0  0  0  0  0
  142.2090   76.2840  220.2260 C   0  0  0  0  0  0  0  0  0  0  0  0
  143.1370   76.7250  219.4900 O   0  0  0  0  0  0  0  0  0  0  0  0
  141.2350   77.1360  220.6980 N   0  0  0  0  0  0  0  0  0  0  0  0
  141.3500   78.5840  220.3940 C   0  0  0  0  0  0  0  0  0  0  0  0
  140.5435   79.1210  220.9148 H   0  0  0  0  0  0  0  0  0  0  0  0
  142.3396   78.9240  220.7333 H   0  0  0  0  0  0  0  0  0  0  0  0
  141.2420   78.8700  218.8790 C   0  0  0  0  0  0  0  0  0  0  0  0
  140.7387   78.0171  218.4003 H   0  0  0  0  0  0  0  0  0  0  0  0
  140.6777   79.8079  218.7699 H   0  0  0  0  0  0  0  0  0  0  0  0
  142.5560   79.0750  218.2100 N   0  0  0  0  0  0  0  0  0  0  0  0
  143.2940   78.6390  218.8080 H   0  0  0  0  0  0  0  0  0  0  0  0
  142.6270   78.3640  216.9130 C   0  0  0  0  0  0  0  0  0  0  0  0
  143.6764   78.3284  216.5851 H   0  0  0  0  0  0  0  0  0  0  0  0
  142.2195   77.3527  217.0586 H   0  0  0  0  0  0  0  0  0  0  0  0
  141.7910   79.0590  215.8250 C   0  0  0  0  0  0  0  0  0  0  0  0
  141.9182   78.5204  214.8743 H   0  0  0  0  0  0  0  0  0  0  0  0
  140.7353   79.0499  216.1340 H   0  0  0  0  0  0  0  0  0  0  0  0
  142.2150   80.4520  215.6480 N   0  0  0  0  0  0  0  0  0  0  0  0
  143.2150   80.4640  215.3340 H   0  0  0  0  0  0  0  0  0  0  0  0
  142.1100   81.1890  216.9120 C   0  0  0  0  0  0  0  0  0  0  0  0
  142.4989   82.2074  216.7649 H   0  0  0  0  0  0  0  0  0  0  0  0
  141.0514   81.2122  217.2100 H   0  0  0  0  0  0  0  0  0  0  0  0
  142.9120   80.5050  218.0350 C   0  0  0  0  0  0  0  0  0  0  0  0
  143.9829   80.5731  217.7931 H   0  0  0  0  0  0  0  0  0  0  0  0
  142.6711   81.0227  218.9752 H   0  0  0  0  0  0  0  0  0  0  0  0
  140.4010   79.2620  223.2180 C   0  0  0  0  0  0  0  0  0  0  0  0
  140.1520   80.5630  222.7550 C   0  0  0  0  0  0  0  0  0  0  0  0
  139.1753   80.8146  222.3160 H   0  0  0  0  0  0  0  0  0  0  0  0
  141.1470   81.5370  222.8530 C   0  0  0  0  0  0  0  0  0  0  0  0
  140.9499   82.5599  222.4996 H   0  0  0  0  0  0  0  0  0  0  0  0
  142.3590   81.2250  223.3840 N   0  0  0  0  0  0  0  0  0  0  0  0
  142.6380   79.9710  223.8290 C   0  0  0  0  0  0  0  0  0  0  0  0
  143.6288   79.7465  224.2508 H   0  0  0  0  0  0  0  0  0  0  0  0
  141.6700   78.9670  223.7520 C   0  0  0  0  0  0  0  0  0  0  0  0
  141.8979   77.9510  224.1067 H   0  0  0  0  0  0  0  0  0  0  0  0
  1  2  1  0
  2  3  2  0
  3  4  1  0
  3  5  1  0
  5  6  2  0
  6  7  1  0
  7  8  2  0
  8  9  1  0
  8 10  1  0
 10 11  1  0
 10 12  2  0
 12 13  1  0
 12 14  1  0
 14 15  1  0
 14 16  2  0
 16 17  1  0
 17 18  2  0
 17 19  1  0
 19 20  1  0
 20 21  1  0
 20 22  1  0
 20 23  1  0
 23 24  1  0
 23 25  1  0
 23 26  1  0
 26 27  1  0
 26 28  1  0
 28 29  1  0
 28 30  1  0
 28 31  1  0
 31 32  1  0
 31 33  1  0
 31 34  1  0
 34 35  1  0
 34 36  1  0
 36 37  1  0
 36 38  1  0
 36 39  1  0
 39 40  1  0
 39 41  1  0
  2 42  1  0
 42 43  2  0
 43 44  1  0
 43 45  1  0
 45 46  1  0
 45 47  2  0
 47 48  1  0
 48 49  1  0
 48 50  2  0
 50 51  1  0
 19  5  1  0
 39 26  1  0
 50 42  1  0
 16  7  1  0
M  CHG  1  26   1
M  END
>  <UniqueID>  (55) 
611

>  <SMILES>  (55) 
O=c1c2ccccc2nc(/C=C/c2ccncc2)n1CC[NH+]1CCNCC1

>  <Energy>  (55) 
72.30361824829178

>  <Genealogy>  (55) 
O=c1c2ccccc2nc(/C=C/c2ccncc2)n1CC[NH+]1CCNCC1 (protonated)
O=c1c2ccccc2nc(/C=C/c2ccncc2)n1CC[NH+]1CCNCC1 (cis-trans isomerization)
O=c1c2ccccc2nc(/C=C/c2ccncc2)n1CC[NH+]1CCNCC1 (3D coordinates assigned)
O=c1c2ccccc2nc(/C=C/c2ccncc2)n1CC[NH+]1CCNCC1 (nonaromatic ring conformer: 72.30361824829178 kcal/mol)

>  <smiles>  (55) 
O=c1c2ccccc2nc(/C=C/c2ccncc2)n1CCN1CCNCC1

>  <score_type>  (55) 
oracle

>  <origin>  (55) 
autodockgpu

>  <m_score__min__energy>  (55) 
-7.1500000000000004

>  <m_primary>  (55) 
energy

>  <meeko>  (55) 
{"free_energy": -6.96, "intermolecular_energy": -8.75, "internal_energy": -1.95, "cluster_size": 14, "cluster_id": 1, "rank_in_cluster": 12}

>  <energy>  (55) 
-6.87

>  <cluster_rmsd>  (55) 
0.0

>  <rmsd>  (55) 
269.77

>  <cluster>  (55) 
2

$$$$
MZUVVVBFQHRAFD-KNTUVKIBNA-O
     RDKit          3D

 51 54  0  0  0  0  0  0  0  0999 V2000
  138.5727   78.1611  223.9570 H   0  0  0  0  0  0  0  0  0  0  0  0
  139.2440   78.2740  223.0930 C   0  0  0  0  0  0  0  0  0  0  0  0
  139.0600   77.4690  222.0390 C   0  0  0  0  0  0  0  0  0  0  0  0
  138.0964   77.4814  221.5086 H   0  0  0  0  0  0  0  0  0  0  0  0
  140.1350   76.5630  221.5780 C   0  0  0  0  0  0  0  0  0  0  0  0
  140.0550   75.2580  221.9520 N   0  0  0  0  0  0  0  0  0  0  0  0
  140.9790   74.3460  221.5760 C   0  0  0  0  0  0  0  0  0  0  0  0
  140.8520   73.0130  221.9820 C   0  0  0  0  0  0  0  0  0  0  0  0
  140.0015   72.7075  222.6092 H   0  0  0  0  0  0  0  0  0  0  0  0
  141.8070   72.0690  221.5900 C   0  0  0  0  0  0  0  0  0  0  0  0
  141.7069   71.0212  221.9096 H   0  0  0  0  0  0  0  0  0  0  0  0
  142.8880   72.4550  220.7930 C   0  0  0  0  0  0  0  0  0  0  0  0
  143.6372   71.7104  220.4860 H   0  0  0  0  0  0  0  0  0  0  0  0
  143.0190   73.7860  220.3850 C   0  0  0  0  0  0  0  0  0  0  0  0
  143.8720   74.0866  219.7589 H   0  0  0  0  0  0  0  0  0  0  0  0
  142.0610   74.7430  220.7740 C   0  0  0  0  0  0  0  0  0  0  0  0
  142.1500   76.0940  220.3980 C   0  0  0  0  0  0  0  0  0  0  0  0
  143.1220   76.4740  219.6840 O   0  0  0  0  0  0  0  0  0  0  0  0
  141.1930   76.9980  220.8040 N   0  0  0  0  0  0  0  0  0  0  0  0
  141.3750   78.4290  220.4570 C   0  0  0  0  0  0  0  0  0  0  0  0
  140.6024   79.0197  220.9710 H   0  0  0  0  0  0  0  0  0  0  0  0
  142.3843   78.7292  220.7752 H   0  0  0  0  0  0  0  0  0  0  0  0
  141.2620   78.6770  218.9350 C   0  0  0  0  0  0  0  0  0  0  0  0
  140.7919   77.7957  218.4743 H   0  0  0  0  0  0  0  0  0  0  0  0
  140.6643   79.5911  218.8036 H   0  0  0  0  0  0  0  0  0  0  0  0
  142.5690   78.9150  218.2650 N   0  0  0  0  0  0  0  0  0  0  0  0
  143.3140   78.4540  218.8370 H   0  0  0  0  0  0  0  0  0  0  0  0
  142.6300   78.2630  216.9370 C   0  0  0  0  0  0  0  0  0  0  0  0
  143.6766   78.2438  216.5990 H   0  0  0  0  0  0  0  0  0  0  0  0
  142.2253   77.2454  217.0403 H   0  0  0  0  0  0  0  0  0  0  0  0
  141.7840   79.0050  215.8890 C   0  0  0  0  0  0  0  0  0  0  0  0
  141.9040   78.5102  214.9139 H   0  0  0  0  0  0  0  0  0  0  0  0
  140.7312   78.9799  216.2069 H   0  0  0  0  0  0  0  0  0  0  0  0
  142.2030   80.4050  215.7710 N   0  0  0  0  0  0  0  0  0  0  0  0
  143.2000   80.4330  215.4490 H   0  0  0  0  0  0  0  0  0  0  0  0
  142.1080   81.0850  217.0680 C   0  0  0  0  0  0  0  0  0  0  0  0
  142.4944   82.1096  216.9633 H   0  0  0  0  0  0  0  0  0  0  0  0
  141.0521   81.0937  217.3760 H   0  0  0  0  0  0  0  0  0  0  0  0
  142.9210   80.3520  218.1520 C   0  0  0  0  0  0  0  0  0  0  0  0
  143.9896   80.4331  217.9042 H   0  0  0  0  0  0  0  0  0  0  0  0
  142.6874   80.8259  219.1168 H   0  0  0  0  0  0  0  0  0  0  0  0
  140.3030   79.3090  223.1590 C   0  0  0  0  0  0  0  0  0  0  0  0
  141.5310   78.9800  223.7540 C   0  0  0  0  0  0  0  0  0  0  0  0
  141.6922   77.9730  224.1661 H   0  0  0  0  0  0  0  0  0  0  0  0
  142.5470   79.9350  223.8210 C   0  0  0  0  0  0  0  0  0  0  0  0
  143.5136   79.6764  224.2779 H   0  0  0  0  0  0  0  0  0  0  0  0
  142.3450   81.1840  223.3230 N   0  0  0  0  0  0  0  0  0  0  0  0
  141.1630   81.5390  222.7550 C   0  0  0  0  0  0  0  0  0  0  0  0
  141.0267   82.5586  222.3653 H   0  0  0  0  0  0  0  0  0  0  0  0
  140.1200   80.6140  222.6640 C   0  0  0  0  0  0  0  0  0  0  0  0
  139.1616   80.9037  222.2083 H   0  0  0  0  0  0  0  0  0  0  0  0
  1  2  1  0
  2  3  2  0
  3  4  1  0
  3  5  1  0
  5  6  2  0
  6  7  1  0
  7  8  2  0
  8  9  1  0
  8 10  1  0
 10 11  1  0
 10 12  2  0
 12 13  1  0
 12 14  1  0
 14 15  1  0
 14 16  2  0
 16 17  1  0
 17 18  2  0
 17 19  1  0
 19 20  1  0
 20 21  1  0
 20 22  1  0
 20 23  1  0
 23 24  1  0
 23 25  1  0
 23 26  1  0
 26 27  1  0
 26 28  1  0
 28 29  1  0
 28 30  1  0
 28 31  1  0
 31 32  1  0
 31 33  1  0
 31 34  1  0
 34 35  1  0
 34 36  1  0
 36 37  1  0
 36 38  1  0
 36 39  1  0
 39 40  1  0
 39 41  1  0
  2 42  1  0
 42 43  2  0
 43 44  1  0
 43 45  1  0
 45 46  1  0
 45 47  2  0
 47 48  1  0
 48 49  1  0
 48 50  2  0
 50 51  1  0
 19  5  1  0
 39 26  1  0
 50 42  1  0
 16  7  1  0
M  CHG  1  26   1
M  END
>  <UniqueID>  (56) 
611

>  <SMILES>  (56) 
O=c1c2ccccc2nc(/C=C/c2ccncc2)n1CC[NH+]1CCNCC1

>  <Energy>  (56) 
72.30361824829178

>  <Genealogy>  (56) 
O=c1c2ccccc2nc(/C=C/c2ccncc2)n1CC[NH+]1CCNCC1 (protonated)
O=c1c2ccccc2nc(/C=C/c2ccncc2)n1CC[NH+]1CCNCC1 (cis-trans isomerization)
O=c1c2ccccc2nc(/C=C/c2ccncc2)n1CC[NH+]1CCNCC1 (3D coordinates assigned)
O=c1c2ccccc2nc(/C=C/c2ccncc2)n1CC[NH+]1CCNCC1 (nonaromatic ring conformer: 72.30361824829178 kcal/mol)

>  <smiles>  (56) 
O=c1c2ccccc2nc(/C=C/c2ccncc2)n1CCN1CCNCC1

>  <score_type>  (56) 
oracle

>  <origin>  (56) 
autodockgpu

>  <m_score__min__energy>  (56) 
-7.1500000000000004

>  <m_primary>  (56) 
energy

>  <meeko>  (56) 
{"free_energy": -7.12, "intermolecular_energy": -8.91, "internal_energy": -1.94, "cluster_size": 14, "cluster_id": 1, "rank_in_cluster": 11}

>  <energy>  (56) 
-6.87

>  <cluster_rmsd>  (56) 
0.07

>  <rmsd>  (56) 
269.75

>  <cluster>  (56) 
2

$$$$
MZUVVVBFQHRAFD-KNTUVKIBNA-O
     RDKit          3D

 51 54  0  0  0  0  0  0  0  0999 V2000
  138.6598   77.0742  223.5020 H   0  0  0  0  0  0  0  0  0  0  0  0
  139.3500   77.4390  222.7270 C   0  0  0  0  0  0  0  0  0  0  0  0
  139.4020   76.7790  221.5630 C   0  0  0  0  0  0  0  0  0  0  0  0
  138.5048   76.7268  220.9287 H   0  0  0  0  0  0  0  0  0  0  0  0
  140.6490   76.1190  221.1180 C   0  0  0  0  0  0  0  0  0  0  0  0
  140.7690   74.7860  221.3550 N   0  0  0  0  0  0  0  0  0  0  0  0
  141.8640   74.0870  220.9790 C   0  0  0  0  0  0  0  0  0  0  0  0
  141.9400   72.7140  221.2400 C   0  0  0  0  0  0  0  0  0  0  0  0
  141.1106   72.2051  221.7529 H   0  0  0  0  0  0  0  0  0  0  0  0
  143.0700   71.9890  220.8490 C   0  0  0  0  0  0  0  0  0  0  0  0
  143.1288   70.9098  221.0538 H   0  0  0  0  0  0  0  0  0  0  0  0
  144.1250   72.6350  220.1980 C   0  0  0  0  0  0  0  0  0  0  0  0
  145.0138   72.0633  219.8926 H   0  0  0  0  0  0  0  0  0  0  0  0
  144.0530   74.0070  219.9340 C   0  0  0  0  0  0  0  0  0  0  0  0
  144.8848   74.5119  219.4210 H   0  0  0  0  0  0  0  0  0  0  0  0
  142.9170   74.7430  220.3240 C   0  0  0  0  0  0  0  0  0  0  0  0
  142.7980   76.1230  220.0910 C   0  0  0  0  0  0  0  0  0  0  0  0
  143.7400   76.7350  219.5110 O   0  0  0  0  0  0  0  0  0  0  0  0
  141.6710   76.8060  220.4920 N   0  0  0  0  0  0  0  0  0  0  0  0
  141.6280   78.2770  220.3040 C   0  0  0  0  0  0  0  0  0  0  0  0
  140.7907   78.6851  220.8891 H   0  0  0  0  0  0  0  0  0  0  0  0
  142.5898   78.6901  220.6421 H   0  0  0  0  0  0  0  0  0  0  0  0
  141.4370   78.6680  218.8210 C   0  0  0  0  0  0  0  0  0  0  0  0
  140.9571   77.8264  218.3000 H   0  0  0  0  0  0  0  0  0  0  0  0
  140.8211   79.5793  218.8079 H   0  0  0  0  0  0  0  0  0  0  0  0
  142.7060   78.9940  218.1150 N   0  0  0  0  0  0  0  0  0  0  0  0
  143.4990   78.6370  218.6970 H   0  0  0  0  0  0  0  0  0  0  0  0
  142.8130   78.2810  216.8230 C   0  0  0  0  0  0  0  0  0  0  0  0
  143.8522   78.3443  216.4679 H   0  0  0  0  0  0  0  0  0  0  0  0
  142.5101   77.2362  216.9865 H   0  0  0  0  0  0  0  0  0  0  0  0
  141.8860   78.8810  215.7530 C   0  0  0  0  0  0  0  0  0  0  0  0
  142.0403   78.3478  214.8033 H   0  0  0  0  0  0  0  0  0  0  0  0
  140.8447   78.7728  216.0907 H   0  0  0  0  0  0  0  0  0  0  0  0
  142.1670   80.3060  215.5540 N   0  0  0  0  0  0  0  0  0  0  0  0
  143.1530   80.4120  215.2130 H   0  0  0  0  0  0  0  0  0  0  0  0
  142.0240   81.0420  216.8160 C   0  0  0  0  0  0  0  0  0  0  0  0
  142.3083   82.0918  216.6513 H   0  0  0  0  0  0  0  0  0  0  0  0
  140.9763   80.9655  217.1423 H   0  0  0  0  0  0  0  0  0  0  0  0
  142.9170   80.4500  217.9210 C   0  0  0  0  0  0  0  0  0  0  0  0
  143.9696   80.6192  217.6500 H   0  0  0  0  0  0  0  0  0  0  0  0
  142.6518   80.9508  218.8638 H   0  0  0  0  0  0  0  0  0  0  0  0
  140.1730   78.6350  223.0270 C   0  0  0  0  0  0  0  0  0  0  0  0
  141.4720   78.4530  223.5250 C   0  0  0  0  0  0  0  0  0  0  0  0
  141.8615   77.4379  223.6920 H   0  0  0  0  0  0  0  0  0  0  0  0
  142.2690   79.5640  223.8080 C   0  0  0  0  0  0  0  0  0  0  0  0
  143.2916   79.4231  224.1880 H   0  0  0  0  0  0  0  0  0  0  0  0
  141.7840   80.8200  223.6150 N   0  0  0  0  0  0  0  0  0  0  0  0
  140.5260   81.0310  223.1480 C   0  0  0  0  0  0  0  0  0  0  0  0
  140.1601   82.0583  223.0039 H   0  0  0  0  0  0  0  0  0  0  0  0
  139.6950   79.9480  222.8500 C   0  0  0  0  0  0  0  0  0  0  0  0
  138.6737   80.1198  222.4794 H   0  0  0  0  0  0  0  0  0  0  0  0
  1  2  1  0
  2  3  2  0
  3  4  1  0
  3  5  1  0
  5  6  2  0
  6  7  1  0
  7  8  2  0
  8  9  1  0
  8 10  1  0
 10 11  1  0
 10 12  2  0
 12 13  1  0
 12 14  1  0
 14 15  1  0
 14 16  2  0
 16 17  1  0
 17 18  2  0
 17 19  1  0
 19 20  1  0
 20 21  1  0
 20 22  1  0
 20 23  1  0
 23 24  1  0
 23 25  1  0
 23 26  1  0
 26 27  1  0
 26 28  1  0
 28 29  1  0
 28 30  1  0
 28 31  1  0
 31 32  1  0
 31 33  1  0
 31 34  1  0
 34 35  1  0
 34 36  1  0
 36 37  1  0
 36 38  1  0
 36 39  1  0
 39 40  1  0
 39 41  1  0
  2 42  1  0
 42 43  2  0
 43 44  1  0
 43 45  1  0
 45 46  1  0
 45 47  2  0
 47 48  1  0
 48 49  1  0
 48 50  2  0
 50 51  1  0
 19  5  1  0
 39 26  1  0
 50 42  1  0
 16  7  1  0
M  CHG  1  26   1
M  END
>  <UniqueID>  (57) 
611

>  <SMILES>  (57) 
O=c1c2ccccc2nc(/C=C/c2ccncc2)n1CC[NH+]1CCNCC1

>  <Energy>  (57) 
72.30361824829178

>  <Genealogy>  (57) 
O=c1c2ccccc2nc(/C=C/c2ccncc2)n1CC[NH+]1CCNCC1 (protonated)
O=c1c2ccccc2nc(/C=C/c2ccncc2)n1CC[NH+]1CCNCC1 (cis-trans isomerization)
O=c1c2ccccc2nc(/C=C/c2ccncc2)n1CC[NH+]1CCNCC1 (3D coordinates assigned)
O=c1c2ccccc2nc(/C=C/c2ccncc2)n1CC[NH+]1CCNCC1 (nonaromatic ring conformer: 72.30361824829178 kcal/mol)

>  <smiles>  (57) 
O=c1c2ccccc2nc(/C=C/c2ccncc2)n1CCN1CCNCC1

>  <score_type>  (57) 
oracle

>  <origin>  (57) 
autodockgpu

>  <m_score__min__energy>  (57) 
-7.1500000000000004

>  <m_primary>  (57) 
energy

>  <meeko>  (57) 
{"free_energy": -6.85, "intermolecular_energy": -8.64, "internal_energy": -1.98, "cluster_size": 14, "cluster_id": 1, "rank_in_cluster": 14}

>  <energy>  (57) 
-6.87

>  <cluster_rmsd>  (57) 
0.08

>  <rmsd>  (57) 
269.76

>  <cluster>  (57) 
2

$$$$
MZUVVVBFQHRAFD-KNTUVKIBNA-O
     RDKit          3D

 51 54  0  0  0  0  0  0  0  0999 V2000
  138.6070   78.1682  223.9613 H   0  0  0  0  0  0  0  0  0  0  0  0
  139.2700   78.2900  223.0920 C   0  0  0  0  0  0  0  0  0  0  0  0
  139.0860   77.4860  222.0370 C   0  0  0  0  0  0  0  0  0  0  0  0
  138.1234   77.5016  221.5048 H   0  0  0  0  0  0  0  0  0  0  0  0
  140.1590   76.5770  221.5770 C   0  0  0  0  0  0  0  0  0  0  0  0
  140.0720   75.2710  221.9470 N   0  0  0  0  0  0  0  0  0  0  0  0
  140.9940   74.3570  221.5710 C   0  0  0  0  0  0  0  0  0  0  0  0
  140.8590   73.0230  221.9720 C   0  0  0  0  0  0  0  0  0  0  0  0
  140.0044   72.7194  222.5945 H   0  0  0  0  0  0  0  0  0  0  0  0
  141.8110   72.0760  221.5810 C   0  0  0  0  0  0  0  0  0  0  0  0
  141.7040   71.0274  221.8957 H   0  0  0  0  0  0  0  0  0  0  0  0
  142.8980   72.4600  220.7910 C   0  0  0  0  0  0  0  0  0  0  0  0
  143.6463   71.7135  220.4864 H   0  0  0  0  0  0  0  0  0  0  0  0
  143.0360   73.7920  220.3870 C   0  0  0  0  0  0  0  0  0  0  0  0
  143.8921   74.0907  219.7642 H   0  0  0  0  0  0  0  0  0  0  0  0
  142.0810   74.7520  220.7760 C   0  0  0  0  0  0  0  0  0  0  0  0
  142.1770   76.1030  220.4040 C   0  0  0  0  0  0  0  0  0  0  0  0
  143.1530   76.4820  219.6960 O   0  0  0  0  0  0  0  0  0  0  0  0
  141.2220   77.0100  220.8100 N   0  0  0  0  0  0  0  0  0  0  0  0
  141.4120   78.4410  220.4680 C   0  0  0  0  0  0  0  0  0  0  0  0
  140.6498   79.0354  220.9932 H   0  0  0  0  0  0  0  0  0  0  0  0
  142.4272   78.7310  220.7768 H   0  0  0  0  0  0  0  0  0  0  0  0
  141.2850   78.6980  218.9490 C   0  0  0  0  0  0  0  0  0  0  0  0
  140.8015   77.8236  218.4889 H   0  0  0  0  0  0  0  0  0  0  0  0
  140.6948   79.6185  218.8288 H   0  0  0  0  0  0  0  0  0  0  0  0
  142.5870   78.9270  218.2660 N   0  0  0  0  0  0  0  0  0  0  0  0
  143.3340   78.4640  218.8320 H   0  0  0  0  0  0  0  0  0  0  0  0
  142.6330   78.2710  216.9400 C   0  0  0  0  0  0  0  0  0  0  0  0
  143.6764   78.2458  216.5928 H   0  0  0  0  0  0  0  0  0  0  0  0
  142.2243   77.2557  217.0500 H   0  0  0  0  0  0  0  0  0  0  0  0
  141.7810   79.0140  215.8970 C   0  0  0  0  0  0  0  0  0  0  0  0
  141.8894   78.5154  214.9225 H   0  0  0  0  0  0  0  0  0  0  0  0
  140.7309   78.9955  216.2241 H   0  0  0  0  0  0  0  0  0  0  0  0
  142.2070   80.4110  215.7710 N   0  0  0  0  0  0  0  0  0  0  0  0
  143.2010   80.4330  215.4390 H   0  0  0  0  0  0  0  0  0  0  0  0
  142.1270   81.0960  217.0670 C   0  0  0  0  0  0  0  0  0  0  0  0
  142.5176   82.1183  216.9557 H   0  0  0  0  0  0  0  0  0  0  0  0
  141.0740   81.1115  217.3847 H   0  0  0  0  0  0  0  0  0  0  0  0
  142.9460   80.3620  218.1450 C   0  0  0  0  0  0  0  0  0  0  0  0
  144.0126   80.4363  217.8866 H   0  0  0  0  0  0  0  0  0  0  0  0
  142.7243   80.8402  219.1105 H   0  0  0  0  0  0  0  0  0  0  0  0
  140.3190   79.3350  223.1510 C   0  0  0  0  0  0  0  0  0  0  0  0
  141.5500   79.0220  223.7470 C   0  0  0  0  0  0  0  0  0  0  0  0
  141.7216   78.0188  224.1642 H   0  0  0  0  0  0  0  0  0  0  0  0
  142.5570   79.9880  223.8090 C   0  0  0  0  0  0  0  0  0  0  0  0
  143.5262   79.7418  224.2674 H   0  0  0  0  0  0  0  0  0  0  0  0
  142.3420   81.2320  223.3040 N   0  0  0  0  0  0  0  0  0  0  0  0
  141.1570   81.5720  222.7340 C   0  0  0  0  0  0  0  0  0  0  0  0
  141.0108   82.5875  222.3372 H   0  0  0  0  0  0  0  0  0  0  0  0
  140.1230   80.6360  222.6500 C   0  0  0  0  0  0  0  0  0  0  0  0
  139.1610   80.9142  222.1948 H   0  0  0  0  0  0  0  0  0  0  0  0
  1  2  1  0
  2  3  2  0
  3  4  1  0
  3  5  1  0
  5  6  2  0
  6  7  1  0
  7  8  2  0
  8  9  1  0
  8 10  1  0
 10 11  1  0
 10 12  2  0
 12 13  1  0
 12 14  1  0
 14 15  1  0
 14 16  2  0
 16 17  1  0
 17 18  2  0
 17 19  1  0
 19 20  1  0
 20 21  1  0
 20 22  1  0
 20 23  1  0
 23 24  1  0
 23 25  1  0
 23 26  1  0
 26 27  1  0
 26 28  1  0
 28 29  1  0
 28 30  1  0
 28 31  1  0
 31 32  1  0
 31 33  1  0
 31 34  1  0
 34 35  1  0
 34 36  1  0
 36 37  1  0
 36 38  1  0
 36 39  1  0
 39 40  1  0
 39 41  1  0
  2 42  1  0
 42 43  2  0
 43 44  1  0
 43 45  1  0
 45 46  1  0
 45 47  2  0
 47 48  1  0
 48 49  1  0
 48 50  2  0
 50 51  1  0
 19  5  1  0
 39 26  1  0
 50 42  1  0
 16  7  1  0
M  CHG  1  26   1
M  END
>  <UniqueID>  (58) 
611

>  <SMILES>  (58) 
O=c1c2ccccc2nc(/C=C/c2ccncc2)n1CC[NH+]1CCNCC1

>  <Energy>  (58) 
72.30361824829178

>  <Genealogy>  (58) 
O=c1c2ccccc2nc(/C=C/c2ccncc2)n1CC[NH+]1CCNCC1 (protonated)
O=c1c2ccccc2nc(/C=C/c2ccncc2)n1CC[NH+]1CCNCC1 (cis-trans isomerization)
O=c1c2ccccc2nc(/C=C/c2ccncc2)n1CC[NH+]1CCNCC1 (3D coordinates assigned)
O=c1c2ccccc2nc(/C=C/c2ccncc2)n1CC[NH+]1CCNCC1 (nonaromatic ring conformer: 72.30361824829178 kcal/mol)

>  <smiles>  (58) 
O=c1c2ccccc2nc(/C=C/c2ccncc2)n1CCN1CCNCC1

>  <score_type>  (58) 
oracle

>  <origin>  (58) 
autodockgpu

>  <m_score__min__energy>  (58) 
-7.1500000000000004

>  <m_primary>  (58) 
energy

>  <meeko>  (58) 
{"free_energy": -7.13, "intermolecular_energy": -8.92, "internal_energy": -1.92, "cluster_size": 14, "cluster_id": 1, "rank_in_cluster": 7}

>  <energy>  (58) 
-6.83

>  <cluster_rmsd>  (58) 
0.12

>  <rmsd>  (58) 
269.8

>  <cluster>  (58) 
2

$$$$
MZUVVVBFQHRAFD-KNTUVKIBNA-O
     RDKit          3D

 51 54  0  0  0  0  0  0  0  0999 V2000
  138.5879   78.1736  223.9749 H   0  0  0  0  0  0  0  0  0  0  0  0
  139.2560   78.2910  223.1090 C   0  0  0  0  0  0  0  0  0  0  0  0
  139.0730   77.4870  222.0550 C   0  0  0  0  0  0  0  0  0  0  0  0
  138.1103   77.5010  221.5229 H   0  0  0  0  0  0  0  0  0  0  0  0
  140.1480   76.5790  221.5950 C   0  0  0  0  0  0  0  0  0  0  0  0
  140.0620   75.2730  221.9630 N   0  0  0  0  0  0  0  0  0  0  0  0
  140.9860   74.3600  221.5880 C   0  0  0  0  0  0  0  0  0  0  0  0
  140.8530   73.0250  221.9870 C   0  0  0  0  0  0  0  0  0  0  0  0
  139.9979   72.7194  222.6079 H   0  0  0  0  0  0  0  0  0  0  0  0
  141.8060   72.0800  221.5970 C   0  0  0  0  0  0  0  0  0  0  0  0
  141.7002   71.0310  221.9106 H   0  0  0  0  0  0  0  0  0  0  0  0
  142.8930   72.4670  220.8090 C   0  0  0  0  0  0  0  0  0  0  0  0
  143.6427   71.7220  220.5041 H   0  0  0  0  0  0  0  0  0  0  0  0
  143.0300   73.8000  220.4070 C   0  0  0  0  0  0  0  0  0  0  0  0
  143.8869   74.1004  219.7861 H   0  0  0  0  0  0  0  0  0  0  0  0
  142.0740   74.7580  220.7950 C   0  0  0  0  0  0  0  0  0  0  0  0
  142.1690   76.1100  220.4250 C   0  0  0  0  0  0  0  0  0  0  0  0
  143.1460   76.4900  219.7190 O   0  0  0  0  0  0  0  0  0  0  0  0
  141.2120   77.0150  220.8300 N   0  0  0  0  0  0  0  0  0  0  0  0
  141.4010   78.4460  220.4910 C   0  0  0  0  0  0  0  0  0  0  0  0
  140.6383   79.0389  221.0170 H   0  0  0  0  0  0  0  0  0  0  0  0
  142.4157   78.7366  220.8007 H   0  0  0  0  0  0  0  0  0  0  0  0
  141.2740   78.7050  218.9720 C   0  0  0  0  0  0  0  0  0  0  0  0
  140.7870   77.8329  218.5114 H   0  0  0  0  0  0  0  0  0  0  0  0
  140.6872   79.6278  218.8531 H   0  0  0  0  0  0  0  0  0  0  0  0
  142.5770   78.9300  218.2880 N   0  0  0  0  0  0  0  0  0  0  0  0
  143.3240   78.4710  218.8590 H   0  0  0  0  0  0  0  0  0  0  0  0
  142.6240   78.2630  216.9670 C   0  0  0  0  0  0  0  0  0  0  0  0
  143.6677   78.2351  216.6206 H   0  0  0  0  0  0  0  0  0  0  0  0
  142.2155   77.2485  217.0850 H   0  0  0  0  0  0  0  0  0  0  0  0
  141.7730   78.9970  215.9180 C   0  0  0  0  0  0  0  0  0  0  0  0
  141.8826   78.4908  214.9476 H   0  0  0  0  0  0  0  0  0  0  0  0
  140.7227   78.9805  216.2446 H   0  0  0  0  0  0  0  0  0  0  0  0
  142.1980   80.3940  215.7810 N   0  0  0  0  0  0  0  0  0  0  0  0
  143.1920   80.4140  215.4510 H   0  0  0  0  0  0  0  0  0  0  0  0
  142.1170   81.0880  217.0710 C   0  0  0  0  0  0  0  0  0  0  0  0
  142.5071   82.1096  216.9519 H   0  0  0  0  0  0  0  0  0  0  0  0
  141.0637   81.1043  217.3876 H   0  0  0  0  0  0  0  0  0  0  0  0
  142.9350   80.3640  218.1560 C   0  0  0  0  0  0  0  0  0  0  0  0
  144.0020   80.4372  217.8986 H   0  0  0  0  0  0  0  0  0  0  0  0
  142.7117   80.8500  219.1172 H   0  0  0  0  0  0  0  0  0  0  0  0
  140.3100   79.3310  223.1730 C   0  0  0  0  0  0  0  0  0  0  0  0
  141.5360   79.0130  223.7770 C   0  0  0  0  0  0  0  0  0  0  0  0
  141.7002   78.0098  224.1972 H   0  0  0  0  0  0  0  0  0  0  0  0
  142.5470   79.9740  223.8430 C   0  0  0  0  0  0  0  0  0  0  0  0
  143.5117   79.7238  224.3086 H   0  0  0  0  0  0  0  0  0  0  0  0
  142.3430   81.2170  223.3340 N   0  0  0  0  0  0  0  0  0  0  0  0
  141.1630   81.5630  222.7550 C   0  0  0  0  0  0  0  0  0  0  0  0
  141.0249   82.5785  222.3555 H   0  0  0  0  0  0  0  0  0  0  0  0
  140.1250   80.6320  222.6660 C   0  0  0  0  0  0  0  0  0  0  0  0
  139.1681   80.9137  222.2023 H   0  0  0  0  0  0  0  0  0  0  0  0
  1  2  1  0
  2  3  2  0
  3  4  1  0
  3  5  1  0
  5  6  2  0
  6  7  1  0
  7  8  2  0
  8  9  1  0
  8 10  1  0
 10 11  1  0
 10 12  2  0
 12 13  1  0
 12 14  1  0
 14 15  1  0
 14 16  2  0
 16 17  1  0
 17 18  2  0
 17 19  1  0
 19 20  1  0
 20 21  1  0
 20 22  1  0
 20 23  1  0
 23 24  1  0
 23 25  1  0
 23 26  1  0
 26 27  1  0
 26 28  1  0
 28 29  1  0
 28 30  1  0
 28 31  1  0
 31 32  1  0
 31 33  1  0
 31 34  1  0
 34 35  1  0
 34 36  1  0
 36 37  1  0
 36 38  1  0
 36 39  1  0
 39 40  1  0
 39 41  1  0
  2 42  1  0
 42 43  2  0
 43 44  1  0
 43 45  1  0
 45 46  1  0
 45 47  2  0
 47 48  1  0
 48 49  1  0
 48 50  2  0
 50 51  1  0
 19  5  1  0
 39 26  1  0
 50 42  1  0
 16  7  1  0
M  CHG  1  26   1
M  END
>  <UniqueID>  (59) 
611

>  <SMILES>  (59) 
O=c1c2ccccc2nc(/C=C/c2ccncc2)n1CC[NH+]1CCNCC1

>  <Energy>  (59) 
72.30361824829178

>  <Genealogy>  (59) 
O=c1c2ccccc2nc(/C=C/c2ccncc2)n1CC[NH+]1CCNCC1 (protonated)
O=c1c2ccccc2nc(/C=C/c2ccncc2)n1CC[NH+]1CCNCC1 (cis-trans isomerization)
O=c1c2ccccc2nc(/C=C/c2ccncc2)n1CC[NH+]1CCNCC1 (3D coordinates assigned)
O=c1c2ccccc2nc(/C=C/c2ccncc2)n1CC[NH+]1CCNCC1 (nonaromatic ring conformer: 72.30361824829178 kcal/mol)

>  <smiles>  (59) 
O=c1c2ccccc2nc(/C=C/c2ccncc2)n1CCN1CCNCC1

>  <score_type>  (59) 
oracle

>  <origin>  (59) 
autodockgpu

>  <m_score__min__energy>  (59) 
-7.1500000000000004

>  <m_primary>  (59) 
energy

>  <meeko>  (59) 
{"free_energy": -7.13, "intermolecular_energy": -8.92, "internal_energy": -1.92, "cluster_size": 14, "cluster_id": 1, "rank_in_cluster": 4}

>  <energy>  (59) 
-6.83

>  <cluster_rmsd>  (59) 
0.14

>  <rmsd>  (59) 
269.75

>  <cluster>  (59) 
2

$$$$
MZUVVVBFQHRAFD-KNTUVKIBNA-O
     RDKit          3D

 51 54  0  0  0  0  0  0  0  0999 V2000
  138.5396   78.1634  223.9443 H   0  0  0  0  0  0  0  0  0  0  0  0
  139.2310   78.2740  223.0960 C   0  0  0  0  0  0  0  0  0  0  0  0
  139.0610   77.4780  222.0330 C   0  0  0  0  0  0  0  0  0  0  0  0
  138.1043   77.4945  221.4904 H   0  0  0  0  0  0  0  0  0  0  0  0
  140.1430   76.5760  221.5780 C   0  0  0  0  0  0  0  0  0  0  0  0
  140.0580   75.2680  221.9380 N   0  0  0  0  0  0  0  0  0  0  0  0
  140.9880   74.3600  221.5660 C   0  0  0  0  0  0  0  0  0  0  0  0
  140.8550   73.0220  221.9560 C   0  0  0  0  0  0  0  0  0  0  0  0
  139.9952   72.7105  222.5673 H   0  0  0  0  0  0  0  0  0  0  0  0
  141.8140   72.0820  221.5690 C   0  0  0  0  0  0  0  0  0  0  0  0
  141.7088   71.0309  221.8759 H   0  0  0  0  0  0  0  0  0  0  0  0
  142.9070   72.4770  220.7920 C   0  0  0  0  0  0  0  0  0  0  0  0
  143.6612   71.7358  220.4890 H   0  0  0  0  0  0  0  0  0  0  0  0
  143.0440   73.8120  220.3990 C   0  0  0  0  0  0  0  0  0  0  0  0
  143.9057   74.1185  219.7879 H   0  0  0  0  0  0  0  0  0  0  0  0
  142.0810   74.7650  220.7840 C   0  0  0  0  0  0  0  0  0  0  0  0
  142.1750   76.1190  220.4220 C   0  0  0  0  0  0  0  0  0  0  0  0
  143.1570   76.5060  219.7270 O   0  0  0  0  0  0  0  0  0  0  0  0
  141.2120   77.0190  220.8240 N   0  0  0  0  0  0  0  0  0  0  0  0
  141.4000   78.4530  220.4940 C   0  0  0  0  0  0  0  0  0  0  0  0
  140.6331   79.0413  221.0192 H   0  0  0  0  0  0  0  0  0  0  0  0
  142.4125   78.7436  220.8109 H   0  0  0  0  0  0  0  0  0  0  0  0
  141.2810   78.7210  218.9760 C   0  0  0  0  0  0  0  0  0  0  0  0
  140.7965   77.8516  218.5075 H   0  0  0  0  0  0  0  0  0  0  0  0
  140.6945   79.6442  218.8591 H   0  0  0  0  0  0  0  0  0  0  0  0
  142.5880   78.9500  218.3010 N   0  0  0  0  0  0  0  0  0  0  0  0
  143.3320   78.4910  218.8750 H   0  0  0  0  0  0  0  0  0  0  0  0
  142.6440   78.2900  216.9780 C   0  0  0  0  0  0  0  0  0  0  0  0
  143.6900   78.2651  216.6384 H   0  0  0  0  0  0  0  0  0  0  0  0
  142.2353   77.2748  217.0891 H   0  0  0  0  0  0  0  0  0  0  0  0
  141.7990   79.0270  215.9260 C   0  0  0  0  0  0  0  0  0  0  0  0
  141.9169   78.5256  214.9540 H   0  0  0  0  0  0  0  0  0  0  0  0
  140.7463   79.0065  216.2445 H   0  0  0  0  0  0  0  0  0  0  0  0
  142.2220   80.4250  215.7990 N   0  0  0  0  0  0  0  0  0  0  0  0
  143.2190   80.4480  215.4740 H   0  0  0  0  0  0  0  0  0  0  0  0
  142.1320   81.1140  217.0910 C   0  0  0  0  0  0  0  0  0  0  0  0
  142.5218   82.1365  216.9787 H   0  0  0  0  0  0  0  0  0  0  0  0
  141.0768   81.1289  217.4013 H   0  0  0  0  0  0  0  0  0  0  0  0
  142.9450   80.3850  218.1780 C   0  0  0  0  0  0  0  0  0  0  0  0
  144.0134   80.4607  217.9272 H   0  0  0  0  0  0  0  0  0  0  0  0
  142.7154   80.8660  219.1403 H   0  0  0  0  0  0  0  0  0  0  0  0
  140.3000   79.2960  223.1920 C   0  0  0  0  0  0  0  0  0  0  0  0
  141.5350   78.9300  223.7500 C   0  0  0  0  0  0  0  0  0  0  0  0
  141.6946   77.9034  224.1113 H   0  0  0  0  0  0  0  0  0  0  0  0
  142.5600   79.8730  223.8450 C   0  0  0  0  0  0  0  0  0  0  0  0
  143.5314   79.5859  224.2739 H   0  0  0  0  0  0  0  0  0  0  0  0
  142.3610   81.1450  223.4090 N   0  0  0  0  0  0  0  0  0  0  0  0
  141.1740   81.5360  222.8770 C   0  0  0  0  0  0  0  0  0  0  0  0
  141.0410   82.5732  222.5357 H   0  0  0  0  0  0  0  0  0  0  0  0
  140.1210   80.6240  222.7620 C   0  0  0  0  0  0  0  0  0  0  0  0
  139.1575   80.9426  222.3376 H   0  0  0  0  0  0  0  0  0  0  0  0
  1  2  1  0
  2  3  2  0
  3  4  1  0
  3  5  1  0
  5  6  2  0
  6  7  1  0
  7  8  2  0
  8  9  1  0
  8 10  1  0
 10 11  1  0
 10 12  2  0
 12 13  1  0
 12 14  1  0
 14 15  1  0
 14 16  2  0
 16 17  1  0
 17 18  2  0
 17 19  1  0
 19 20  1  0
 20 21  1  0
 20 22  1  0
 20 23  1  0
 23 24  1  0
 23 25  1  0
 23 26  1  0
 26 27  1  0
 26 28  1  0
 28 29  1  0
 28 30  1  0
 28 31  1  0
 31 32  1  0
 31 33  1  0
 31 34  1  0
 34 35  1  0
 34 36  1  0
 36 37  1  0
 36 38  1  0
 36 39  1  0
 39 40  1  0
 39 41  1  0
  2 42  1  0
 42 43  2  0
 43 44  1  0
 43 45  1  0
 45 46  1  0
 45 47  2  0
 47 48  1  0
 48 49  1  0
 48 50  2  0
 50 51  1  0
 19  5  1  0
 39 26  1  0
 50 42  1  0
 16  7  1  0
M  CHG  1  26   1
M  END
>  <UniqueID>  (60) 
611

>  <SMILES>  (60) 
O=c1c2ccccc2nc(/C=C/c2ccncc2)n1CC[NH+]1CCNCC1

>  <Energy>  (60) 
72.30361824829178

>  <Genealogy>  (60) 
O=c1c2ccccc2nc(/C=C/c2ccncc2)n1CC[NH+]1CCNCC1 (protonated)
O=c1c2ccccc2nc(/C=C/c2ccncc2)n1CC[NH+]1CCNCC1 (cis-trans isomerization)
O=c1c2ccccc2nc(/C=C/c2ccncc2)n1CC[NH+]1CCNCC1 (3D coordinates assigned)
O=c1c2ccccc2nc(/C=C/c2ccncc2)n1CC[NH+]1CCNCC1 (nonaromatic ring conformer: 72.30361824829178 kcal/mol)

>  <smiles>  (60) 
O=c1c2ccccc2nc(/C=C/c2ccncc2)n1CCN1CCNCC1

>  <score_type>  (60) 
oracle

>  <origin>  (60) 
autodockgpu

>  <m_score__min__energy>  (60) 
-7.1500000000000004

>  <m_primary>  (60) 
energy

>  <meeko>  (60) 
{"free_energy": -7.12, "intermolecular_energy": -8.91, "internal_energy": -1.93, "cluster_size": 14, "cluster_id": 1, "rank_in_cluster": 10}

>  <energy>  (60) 
-6.62

>  <cluster_rmsd>  (60) 
0.0

>  <rmsd>  (60) 
270.51

>  <cluster>  (60) 
3

$$$$
MZUVVVBFQHRAFD-AATRIKPKNA-N
     RDKit          3D

 50 53  0  0  0  0  0  0  0  0999 V2000
  141.5543   72.0724  221.3027 H   0  0  0  0  0  0  0  0  0  0  0  0
  140.5620   72.3590  221.6810 C   0  0  0  0  0  0  0  0  0  0  0  0
  139.7310   71.3850  222.0840 C   0  0  0  0  0  0  0  0  0  0  0  0
  138.9410   71.0425  221.3995 H   0  0  0  0  0  0  0  0  0  0  0  0
  139.8440   70.7520  223.4300 C   0  0  0  0  0  0  0  0  0  0  0  0
  140.3280   71.5100  224.4520 N   0  0  0  0  0  0  0  0  0  0  0  0
  140.4450   71.0360  225.7110 C   0  0  0  0  0  0  0  0  0  0  0  0
  140.9460   71.8600  226.7260 C   0  0  0  0  0  0  0  0  0  0  0  0
  141.2509   72.8916  226.4961 H   0  0  0  0  0  0  0  0  0  0  0  0
  141.0590   71.3730  228.0310 C   0  0  0  0  0  0  0  0  0  0  0  0
  141.4520   72.0219  228.8276 H   0  0  0  0  0  0  0  0  0  0  0  0
  140.6730   70.0620  228.3250 C   0  0  0  0  0  0  0  0  0  0  0  0
  140.7636   69.6803  229.3527 H   0  0  0  0  0  0  0  0  0  0  0  0
  140.1720   69.2350  227.3150 C   0  0  0  0  0  0  0  0  0  0  0  0
  139.8685   68.2042  227.5502 H   0  0  0  0  0  0  0  0  0  0  0  0
  140.0550   69.7180  225.9980 C   0  0  0  0  0  0  0  0  0  0  0  0
  139.5590   68.9300  224.9470 C   0  0  0  0  0  0  0  0  0  0  0  0
  139.1950   67.7440  225.1870 O   0  0  0  0  0  0  0  0  0  0  0  0
  139.4630   69.4430  223.6710 N   0  0  0  0  0  0  0  0  0  0  0  0
  138.9290   68.5830  222.5910 C   0  0  0  0  0  0  0  0  0  0  0  0
  139.0988   69.0784  221.6237 H   0  0  0  0  0  0  0  0  0  0  0  0
  139.4493   67.6148  222.6340 H   0  0  0  0  0  0  0  0  0  0  0  0
  137.4250   68.3270  222.7620 C   0  0  0  0  0  0  0  0  0  0  0  0
  137.0615   67.7225  221.9179 H   0  0  0  0  0  0  0  0  0  0  0  0
  137.2585   67.7915  223.7083 H   0  0  0  0  0  0  0  0  0  0  0  0
  136.6850   69.6120  222.7980 N   0  0  0  0  0  0  0  0  0  0  0  0
  135.3560   69.5340  222.1430 C   0  0  0  0  0  0  0  0  0  0  0  0
  135.1277   70.5128  221.6960 H   0  0  0  0  0  0  0  0  0  0  0  0
  135.4092   68.7384  221.3853 H   0  0  0  0  0  0  0  0  0  0  0  0
  134.2220   69.1640  223.1210 C   0  0  0  0  0  0  0  0  0  0  0  0
  133.7229   70.0834  223.4610 H   0  0  0  0  0  0  0  0  0  0  0  0
  133.5038   68.5120  222.6023 H   0  0  0  0  0  0  0  0  0  0  0  0
  134.7580   68.4490  224.2820 N   0  0  0  0  0  0  0  0  0  0  0  0
  133.9560   68.1710  224.8940 H   0  0  0  0  0  0  0  0  0  0  0  0
  135.6510   69.3180  225.0630 C   0  0  0  0  0  0  0  0  0  0  0  0
  135.0383   69.9941  225.6774 H   0  0  0  0  0  0  0  0  0  0  0  0
  136.2867   68.6731  225.6875 H   0  0  0  0  0  0  0  0  0  0  0  0
  136.5780   70.1670  224.1630 C   0  0  0  0  0  0  0  0  0  0  0  0
  136.1740   71.1882  224.1004 H   0  0  0  0  0  0  0  0  0  0  0  0
  137.5827   70.1630  224.6108 H   0  0  0  0  0  0  0  0  0  0  0  0
  140.2150   73.8020  221.7180 C   0  0  0  0  0  0  0  0  0  0  0  0
  141.1780   74.8180  221.5640 C   0  0  0  0  0  0  0  0  0  0  0  0
  142.2344   74.5595  221.3992 H   0  0  0  0  0  0  0  0  0  0  0  0
  140.7820   76.1570  221.6220 C   0  0  0  0  0  0  0  0  0  0  0  0
  141.5285   76.9547  221.4938 H   0  0  0  0  0  0  0  0  0  0  0  0
  139.4790   76.4780  221.8360 N   0  0  0  0  0  0  0  0  0  0  0  0
  138.5300   75.5200  222.0020 C   0  0  0  0  0  0  0  0  0  0  0  0
  137.4830   75.8090  222.1761 H   0  0  0  0  0  0  0  0  0  0  0  0
  138.8810   74.1690  221.9520 C   0  0  0  0  0  0  0  0  0  0  0  0
  138.1133   73.3944  222.0957 H   0  0  0  0  0  0  0  0  0  0  0  0
  1  2  1  0
  2  3  2  0
  3  4  1  0
  3  5  1  0
  5  6  2  0
  6  7  1  0
  7  8  2  0
  8  9  1  0
  8 10  1  0
 10 11  1  0
 10 12  2  0
 12 13  1  0
 12 14  1  0
 14 15  1  0
 14 16  2  0
 16 17  1  0
 17 18  2  0
 17 19  1  0
 19 20  1  0
 20 21  1  0
 20 22  1  0
 20 23  1  0
 23 24  1  0
 23 25  1  0
 23 26  1  0
 26 27  1  0
 27 28  1  0
 27 29  1  0
 27 30  1  0
 30 31  1  0
 30 32  1  0
 30 33  1  0
 33 34  1  0
 33 35  1  0
 35 36  1  0
 35 37  1  0
 35 38  1  0
 38 39  1  0
 38 40  1  0
  2 41  1  0
 41 42  2  0
 42 43  1  0
 42 44  1  0
 44 45  1  0
 44 46  2  0
 46 47  1  0
 47 48  1  0
 47 49  2  0
 49 50  1  0
 19  5  1  0
 38 26  1  0
 49 41  1  0
 16  7  1  0
M  END
>  <UniqueID>  (61) 
612

>  <SMILES>  (61) 
O=c1c2ccccc2nc(/C=C/c2ccncc2)n1CCN1CCNCC1

>  <Energy>  (61) 
75.07452201407493

>  <Genealogy>  (61) 
O=c1c2ccccc2nc(/C=C/c2ccncc2)n1CCN1CCNCC1 (cis-trans isomerization)
O=c1c2ccccc2nc(/C=C/c2ccncc2)n1CCN1CCNCC1 (3D coordinates assigned)
O=c1c2ccccc2nc(/C=C/c2ccncc2)n1CCN1CCNCC1 (nonaromatic ring conformer: 75.07452201407493 kcal/mol)

>  <smiles>  (61) 
O=c1c2ccccc2nc(/C=C/c2ccncc2)n1CCN1CCNCC1

>  <score_type>  (61) 
oracle

>  <origin>  (61) 
autodockgpu

>  <m_score__min__energy>  (61) 
-7.1699999999999999

>  <m_primary>  (61) 
energy

>  <meeko>  (61) 
{"free_energy": -7.16, "intermolecular_energy": -8.95, "internal_energy": -1.46, "cluster_size": 18, "cluster_id": 1, "rank_in_cluster": 2}

>  <energy>  (61) 
-7.17

>  <cluster_rmsd>  (61) 
0.0

>  <rmsd>  (61) 
271.23

>  <cluster>  (61) 
1

$$$$
MZUVVVBFQHRAFD-AATRIKPKNA-N
     RDKit          3D

 50 53  0  0  0  0  0  0  0  0999 V2000
  141.5569   72.1703  221.4345 H   0  0  0  0  0  0  0  0  0  0  0  0
  140.5480   72.4580  221.7650 C   0  0  0  0  0  0  0  0  0  0  0  0
  139.7040   71.4850  222.1450 C   0  0  0  0  0  0  0  0  0  0  0  0
  138.9003   71.1797  221.4588 H   0  0  0  0  0  0  0  0  0  0  0  0
  139.8210   70.8050  223.4670 C   0  0  0  0  0  0  0  0  0  0  0  0
  140.3060   71.5260  224.5140 N   0  0  0  0  0  0  0  0  0  0  0  0
  140.4270   71.0080  225.7560 C   0  0  0  0  0  0  0  0  0  0  0  0
  140.9300   71.7950  226.7980 C   0  0  0  0  0  0  0  0  0  0  0  0
  141.2336   72.8344  226.6043 H   0  0  0  0  0  0  0  0  0  0  0  0
  141.0470   71.2620  228.0840 C   0  0  0  0  0  0  0  0  0  0  0  0
  141.4416   71.8824  228.9022 H   0  0  0  0  0  0  0  0  0  0  0  0
  140.6630   69.9410  228.3320 C   0  0  0  0  0  0  0  0  0  0  0  0
  140.7564   69.5233  229.3453 H   0  0  0  0  0  0  0  0  0  0  0  0
  140.1600   69.1490  227.2940 C   0  0  0  0  0  0  0  0  0  0  0  0
  139.8579   68.1102  227.4928 H   0  0  0  0  0  0  0  0  0  0  0  0
  140.0400   69.6800  225.9950 C   0  0  0  0  0  0  0  0  0  0  0  0
  139.5420   68.9290  224.9180 C   0  0  0  0  0  0  0  0  0  0  0  0
  139.1810   67.7350  225.1160 O   0  0  0  0  0  0  0  0  0  0  0  0
  139.4420   69.4870  223.6620 N   0  0  0  0  0  0  0  0  0  0  0  0
  138.9070   68.6660  222.5530 C   0  0  0  0  0  0  0  0  0  0  0  0
  139.0292   69.2179  221.6093 H   0  0  0  0  0  0  0  0  0  0  0  0
  139.4630   67.7172  222.5286 H   0  0  0  0  0  0  0  0  0  0  0  0
  137.4190   68.3450  222.7530 C   0  0  0  0  0  0  0  0  0  0  0  0
  137.0764   67.6895  221.9388 H   0  0  0  0  0  0  0  0  0  0  0  0
  137.2884   67.8413  223.7221 H   0  0  0  0  0  0  0  0  0  0  0  0
  136.6180   69.5940  222.7460 N   0  0  0  0  0  0  0  0  0  0  0  0
  135.2950   69.4290  222.0950 C   0  0  0  0  0  0  0  0  0  0  0  0
  135.0198   70.3796  221.6148 H   0  0  0  0  0  0  0  0  0  0  0  0
  135.3876   68.6113  221.3651 H   0  0  0  0  0  0  0  0  0  0  0  0
  134.1790   69.0380  223.0860 C   0  0  0  0  0  0  0  0  0  0  0  0
  133.6355   69.9431  223.3949 H   0  0  0  0  0  0  0  0  0  0  0  0
  133.4932   68.3349  222.5907 H   0  0  0  0  0  0  0  0  0  0  0  0
  134.7490   68.3900  224.2700 N   0  0  0  0  0  0  0  0  0  0  0  0
  133.9610   68.0950  224.8920 H   0  0  0  0  0  0  0  0  0  0  0  0
  135.5980   69.3270  225.0210 C   0  0  0  0  0  0  0  0  0  0  0  0
  134.9528   69.9929  225.6129 H   0  0  0  0  0  0  0  0  0  0  0  0
  136.2636   68.7355  225.6669 H   0  0  0  0  0  0  0  0  0  0  0  0
  136.4830   70.1890  224.0910 C   0  0  0  0  0  0  0  0  0  0  0  0
  136.0296   71.1865  223.9939 H   0  0  0  0  0  0  0  0  0  0  0  0
  137.4865   70.2491  224.5376 H   0  0  0  0  0  0  0  0  0  0  0  0
  140.1960   73.8990  221.7660 C   0  0  0  0  0  0  0  0  0  0  0  0
  141.1560   74.9160  221.5960 C   0  0  0  0  0  0  0  0  0  0  0  0
  142.2147   74.6585  221.4446 H   0  0  0  0  0  0  0  0  0  0  0  0
  140.7540   76.2540  221.6210 C   0  0  0  0  0  0  0  0  0  0  0  0
  141.4982   77.0519  221.4814 H   0  0  0  0  0  0  0  0  0  0  0  0
  139.4480   76.5740  221.8170 N   0  0  0  0  0  0  0  0  0  0  0  0
  138.5020   75.6170  221.9980 C   0  0  0  0  0  0  0  0  0  0  0  0
  137.4527   75.9060  222.1576 H   0  0  0  0  0  0  0  0  0  0  0  0
  138.8580   74.2660  221.9820 C   0  0  0  0  0  0  0  0  0  0  0  0
  138.0922   73.4920  222.1382 H   0  0  0  0  0  0  0  0  0  0  0  0
  1  2  1  0
  2  3  2  0
  3  4  1  0
  3  5  1  0
  5  6  2  0
  6  7  1  0
  7  8  2  0
  8  9  1  0
  8 10  1  0
 10 11  1  0
 10 12  2  0
 12 13  1  0
 12 14  1  0
 14 15  1  0
 14 16  2  0
 16 17  1  0
 17 18  2  0
 17 19  1  0
 19 20  1  0
 20 21  1  0
 20 22  1  0
 20 23  1  0
 23 24  1  0
 23 25  1  0
 23 26  1  0
 26 27  1  0
 27 28  1  0
 27 29  1  0
 27 30  1  0
 30 31  1  0
 30 32  1  0
 30 33  1  0
 33 34  1  0
 33 35  1  0
 35 36  1  0
 35 37  1  0
 35 38  1  0
 38 39  1  0
 38 40  1  0
  2 41  1  0
 41 42  2  0
 42 43  1  0
 42 44  1  0
 44 45  1  0
 44 46  2  0
 46 47  1  0
 47 48  1  0
 47 49  2  0
 49 50  1  0
 19  5  1  0
 38 26  1  0
 49 41  1  0
 16  7  1  0
M  END
>  <UniqueID>  (62) 
612

>  <SMILES>  (62) 
O=c1c2ccccc2nc(/C=C/c2ccncc2)n1CCN1CCNCC1

>  <Energy>  (62) 
75.07452201407493

>  <Genealogy>  (62) 
O=c1c2ccccc2nc(/C=C/c2ccncc2)n1CCN1CCNCC1 (cis-trans isomerization)
O=c1c2ccccc2nc(/C=C/c2ccncc2)n1CCN1CCNCC1 (3D coordinates assigned)
O=c1c2ccccc2nc(/C=C/c2ccncc2)n1CCN1CCNCC1 (nonaromatic ring conformer: 75.07452201407493 kcal/mol)

>  <smiles>  (62) 
O=c1c2ccccc2nc(/C=C/c2ccncc2)n1CCN1CCNCC1

>  <score_type>  (62) 
oracle

>  <origin>  (62) 
autodockgpu

>  <m_score__min__energy>  (62) 
-7.1699999999999999

>  <m_primary>  (62) 
energy

>  <meeko>  (62) 
{"free_energy": -7.17, "intermolecular_energy": -8.96, "internal_energy": -1.43, "cluster_size": 18, "cluster_id": 1, "rank_in_cluster": 1}

>  <energy>  (62) 
-7.16

>  <cluster_rmsd>  (62) 
0.09

>  <rmsd>  (62) 
271.24

>  <cluster>  (62) 
1

$$$$
MZUVVVBFQHRAFD-AATRIKPKNA-N
     RDKit          3D

 50 53  0  0  0  0  0  0  0  0999 V2000
  139.4052   73.6662  222.2347 H   0  0  0  0  0  0  0  0  0  0  0  0
  140.0310   72.7990  221.9770 C   0  0  0  0  0  0  0  0  0  0  0  0
  139.5360   71.5710  222.2000 C   0  0  0  0  0  0  0  0  0  0  0  0
  138.9898   71.0630  221.3915 H   0  0  0  0  0  0  0  0  0  0  0  0
  139.7020   70.8730  223.5070 C   0  0  0  0  0  0  0  0  0  0  0  0
  140.1830   71.5930  224.5570 N   0  0  0  0  0  0  0  0  0  0  0  0
  140.3460   71.0580  225.7870 C   0  0  0  0  0  0  0  0  0  0  0  0
  140.8420   71.8450  226.8330 C   0  0  0  0  0  0  0  0  0  0  0  0
  141.1053   72.8976  226.6518 H   0  0  0  0  0  0  0  0  0  0  0  0
  141.0030   71.2940  228.1080 C   0  0  0  0  0  0  0  0  0  0  0  0
  141.3927   71.9132  228.9294 H   0  0  0  0  0  0  0  0  0  0  0  0
  140.6690   69.9570  228.3390 C   0  0  0  0  0  0  0  0  0  0  0  0
  140.7966   69.5254  229.3427 H   0  0  0  0  0  0  0  0  0  0  0  0
  140.1730   69.1660  227.2980 C   0  0  0  0  0  0  0  0  0  0  0  0
  139.9098   68.1144  227.4846 H   0  0  0  0  0  0  0  0  0  0  0  0
  140.0100   69.7140  226.0110 C   0  0  0  0  0  0  0  0  0  0  0  0
  139.5170   68.9640  224.9300 C   0  0  0  0  0  0  0  0  0  0  0  0
  139.2000   67.7550  225.1140 O   0  0  0  0  0  0  0  0  0  0  0  0
  139.3730   69.5400  223.6860 N   0  0  0  0  0  0  0  0  0  0  0  0
  138.8440   68.7190  222.5740 C   0  0  0  0  0  0  0  0  0  0  0  0
  138.9493   69.2812  221.6344 H   0  0  0  0  0  0  0  0  0  0  0  0
  139.4166   67.7805  222.5381 H   0  0  0  0  0  0  0  0  0  0  0  0
  137.3640   68.3690  222.7810 C   0  0  0  0  0  0  0  0  0  0  0  0
  137.0299   67.7087  221.9671 H   0  0  0  0  0  0  0  0  0  0  0  0
  137.2484   67.8608  223.7497 H   0  0  0  0  0  0  0  0  0  0  0  0
  136.5390   69.6020  222.7810 N   0  0  0  0  0  0  0  0  0  0  0  0
  135.2190   69.4150  222.1290 C   0  0  0  0  0  0  0  0  0  0  0  0
  134.9254   70.3627  221.6540 H   0  0  0  0  0  0  0  0  0  0  0  0
  135.3273   68.6034  221.3945 H   0  0  0  0  0  0  0  0  0  0  0  0
  134.1110   68.9970  223.1180 C   0  0  0  0  0  0  0  0  0  0  0  0
  133.5495   69.8896  223.4310 H   0  0  0  0  0  0  0  0  0  0  0  0
  133.4398   68.2824  222.6191 H   0  0  0  0  0  0  0  0  0  0  0  0
  134.6930   68.3550  224.2990 N   0  0  0  0  0  0  0  0  0  0  0  0
  133.9110   68.0410  224.9190 H   0  0  0  0  0  0  0  0  0  0  0  0
  135.5240   69.3040  225.0540 C   0  0  0  0  0  0  0  0  0  0  0  0
  134.8663   69.9544  225.6492 H   0  0  0  0  0  0  0  0  0  0  0  0
  136.2010   68.7216  225.6963 H   0  0  0  0  0  0  0  0  0  0  0  0
  136.3930   70.1880  224.1290 C   0  0  0  0  0  0  0  0  0  0  0  0
  135.9208   71.1772  224.0370 H   0  0  0  0  0  0  0  0  0  0  0  0
  137.3950   70.2655  224.5762 H   0  0  0  0  0  0  0  0  0  0  0  0
  141.3760   73.0510  221.4020 C   0  0  0  0  0  0  0  0  0  0  0  0
  141.8000   74.3310  220.9950 C   0  0  0  0  0  0  0  0  0  0  0  0
  141.1307   75.1969  221.1056 H   0  0  0  0  0  0  0  0  0  0  0  0
  143.0760   74.4940  220.4500 C   0  0  0  0  0  0  0  0  0  0  0  0
  143.4157   75.4931  220.1395 H   0  0  0  0  0  0  0  0  0  0  0  0
  143.8990   73.4230  220.3020 N   0  0  0  0  0  0  0  0  0  0  0  0
  143.5140   72.1740  220.6720 C   0  0  0  0  0  0  0  0  0  0  0  0
  144.2013   71.3255  220.5386 H   0  0  0  0  0  0  0  0  0  0  0  0
  142.2460   71.9650  221.2220 C   0  0  0  0  0  0  0  0  0  0  0  0
  141.9311   70.9520  221.5129 H   0  0  0  0  0  0  0  0  0  0  0  0
  1  2  1  0
  2  3  2  0
  3  4  1  0
  3  5  1  0
  5  6  2  0
  6  7  1  0
  7  8  2  0
  8  9  1  0
  8 10  1  0
 10 11  1  0
 10 12  2  0
 12 13  1  0
 12 14  1  0
 14 15  1  0
 14 16  2  0
 16 17  1  0
 17 18  2  0
 17 19  1  0
 19 20  1  0
 20 21  1  0
 20 22  1  0
 20 23  1  0
 23 24  1  0
 23 25  1  0
 23 26  1  0
 26 27  1  0
 27 28  1  0
 27 29  1  0
 27 30  1  0
 30 31  1  0
 30 32  1  0
 30 33  1  0
 33 34  1  0
 33 35  1  0
 35 36  1  0
 35 37  1  0
 35 38  1  0
 38 39  1  0
 38 40  1  0
  2 41  1  0
 41 42  2  0
 42 43  1  0
 42 44  1  0
 44 45  1  0
 44 46  2  0
 46 47  1  0
 47 48  1  0
 47 49  2  0
 49 50  1  0
 19  5  1  0
 38 26  1  0
 49 41  1  0
 16  7  1  0
M  END
>  <UniqueID>  (63) 
612

>  <SMILES>  (63) 
O=c1c2ccccc2nc(/C=C/c2ccncc2)n1CCN1CCNCC1

>  <Energy>  (63) 
75.07452201407493

>  <Genealogy>  (63) 
O=c1c2ccccc2nc(/C=C/c2ccncc2)n1CCN1CCNCC1 (cis-trans isomerization)
O=c1c2ccccc2nc(/C=C/c2ccncc2)n1CCN1CCNCC1 (3D coordinates assigned)
O=c1c2ccccc2nc(/C=C/c2ccncc2)n1CCN1CCNCC1 (nonaromatic ring conformer: 75.07452201407493 kcal/mol)

>  <smiles>  (63) 
O=c1c2ccccc2nc(/C=C/c2ccncc2)n1CCN1CCNCC1

>  <score_type>  (63) 
oracle

>  <origin>  (63) 
autodockgpu

>  <m_score__min__energy>  (63) 
-7.1699999999999999

>  <m_primary>  (63) 
energy

>  <meeko>  (63) 
{"free_energy": -7.15, "intermolecular_energy": -8.94, "internal_energy": -1.43, "cluster_size": 18, "cluster_id": 1, "rank_in_cluster": 5}

>  <energy>  (63) 
-7.15

>  <cluster_rmsd>  (63) 
0.11

>  <rmsd>  (63) 
271.22

>  <cluster>  (63) 
1

$$$$
MZUVVVBFQHRAFD-AATRIKPKNA-N
     RDKit          3D

 50 53  0  0  0  0  0  0  0  0999 V2000
  141.5400   71.6037  221.1772 H   0  0  0  0  0  0  0  0  0  0  0  0
  140.6750   72.1480  221.5840 C   0  0  0  0  0  0  0  0  0  0  0  0
  139.6760   71.4350  222.1280 C   0  0  0  0  0  0  0  0  0  0  0  0
  138.7326   71.3313  221.5720 H   0  0  0  0  0  0  0  0  0  0  0  0
  139.8030   70.7790  223.4610 C   0  0  0  0  0  0  0  0  0  0  0  0
  140.2820   71.5240  224.4950 N   0  0  0  0  0  0  0  0  0  0  0  0
  140.4110   71.0290  225.7450 C   0  0  0  0  0  0  0  0  0  0  0  0
  140.9070   71.8410  226.7720 C   0  0  0  0  0  0  0  0  0  0  0  0
  141.1977   72.8803  226.5592 H   0  0  0  0  0  0  0  0  0  0  0  0
  141.0330   71.3320  228.0670 C   0  0  0  0  0  0  0  0  0  0  0  0
  141.4230   71.9709  228.8731 H   0  0  0  0  0  0  0  0  0  0  0  0
  140.6640   70.0120  228.3390 C   0  0  0  0  0  0  0  0  0  0  0  0
  140.7631   69.6138  229.3596 H   0  0  0  0  0  0  0  0  0  0  0  0
  140.1690   69.1960  227.3170 C   0  0  0  0  0  0  0  0  0  0  0  0
  139.8799   68.1573  227.5350 H   0  0  0  0  0  0  0  0  0  0  0  0
  140.0400   69.7020  226.0090 C   0  0  0  0  0  0  0  0  0  0  0  0
  139.5490   68.9260  224.9460 C   0  0  0  0  0  0  0  0  0  0  0  0
  139.2010   67.7320  225.1660 O   0  0  0  0  0  0  0  0  0  0  0  0
  139.4400   69.4610  223.6800 N   0  0  0  0  0  0  0  0  0  0  0  0
  138.9120   68.6140  222.5880 C   0  0  0  0  0  0  0  0  0  0  0  0
  139.0266   69.1496  221.6341 H   0  0  0  0  0  0  0  0  0  0  0  0
  139.4782   67.6710  222.5808 H   0  0  0  0  0  0  0  0  0  0  0  0
  137.4280   68.2800  222.7960 C   0  0  0  0  0  0  0  0  0  0  0  0
  137.0979   67.5877  222.0075 H   0  0  0  0  0  0  0  0  0  0  0  0
  137.3014   67.8137  223.7842 H   0  0  0  0  0  0  0  0  0  0  0  0
  136.6090   69.5150  222.7370 N   0  0  0  0  0  0  0  0  0  0  0  0
  135.2960   69.3080  222.0790 C   0  0  0  0  0  0  0  0  0  0  0  0
  135.0122   70.2372  221.5632 H   0  0  0  0  0  0  0  0  0  0  0  0
  135.4082   68.4670  221.3789 H   0  0  0  0  0  0  0  0  0  0  0  0
  134.1750   68.9350  223.0720 C   0  0  0  0  0  0  0  0  0  0  0  0
  133.6147   69.8420  223.3431 H   0  0  0  0  0  0  0  0  0  0  0  0
  133.5052   68.2044  222.5949 H   0  0  0  0  0  0  0  0  0  0  0  0
  134.7420   68.3380  224.2840 N   0  0  0  0  0  0  0  0  0  0  0  0
  133.9520   68.0530  224.9080 H   0  0  0  0  0  0  0  0  0  0  0  0
  135.5700   69.3140  225.0100 C   0  0  0  0  0  0  0  0  0  0  0  0
  134.9092   69.9909  225.5713 H   0  0  0  0  0  0  0  0  0  0  0  0
  136.2371   68.7557  225.6832 H   0  0  0  0  0  0  0  0  0  0  0  0
  136.4520   70.1550  224.0590 C   0  0  0  0  0  0  0  0  0  0  0  0
  135.9857   71.1419  223.9224 H   0  0  0  0  0  0  0  0  0  0  0  0
  137.4499   70.2451  224.5129 H   0  0  0  0  0  0  0  0  0  0  0  0
  140.6770   73.6300  221.5010 C   0  0  0  0  0  0  0  0  0  0  0  0
  139.6070   74.4180  221.9670 C   0  0  0  0  0  0  0  0  0  0  0  0
  138.7265   73.9420  222.4233 H   0  0  0  0  0  0  0  0  0  0  0  0
  139.6710   75.8080  221.8460 C   0  0  0  0  0  0  0  0  0  0  0  0
  138.8417   76.4286  222.2163 H   0  0  0  0  0  0  0  0  0  0  0  0
  140.7530   76.3970  221.2730 N   0  0  0  0  0  0  0  0  0  0  0  0
  141.7950   75.6630  220.8020 C   0  0  0  0  0  0  0  0  0  0  0  0
  142.6577   76.1670  220.3418 H   0  0  0  0  0  0  0  0  0  0  0  0
  141.7730   74.2690  220.9010 C   0  0  0  0  0  0  0  0  0  0  0  0
  142.6120   73.6747  220.5099 H   0  0  0  0  0  0  0  0  0  0  0  0
  1  2  1  0
  2  3  2  0
  3  4  1  0
  3  5  1  0
  5  6  2  0
  6  7  1  0
  7  8  2  0
  8  9  1  0
  8 10  1  0
 10 11  1  0
 10 12  2  0
 12 13  1  0
 12 14  1  0
 14 15  1  0
 14 16  2  0
 16 17  1  0
 17 18  2  0
 17 19  1  0
 19 20  1  0
 20 21  1  0
 20 22  1  0
 20 23  1  0
 23 24  1  0
 23 25  1  0
 23 26  1  0
 26 27  1  0
 27 28  1  0
 27 29  1  0
 27 30  1  0
 30 31  1  0
 30 32  1  0
 30 33  1  0
 33 34  1  0
 33 35  1  0
 35 36  1  0
 35 37  1  0
 35 38  1  0
 38 39  1  0
 38 40  1  0
  2 41  1  0
 41 42  2  0
 42 43  1  0
 42 44  1  0
 44 45  1  0
 44 46  2  0
 46 47  1  0
 47 48  1  0
 47 49  2  0
 49 50  1  0
 19  5  1  0
 38 26  1  0
 49 41  1  0
 16  7  1  0
M  END
>  <UniqueID>  (64) 
612

>  <SMILES>  (64) 
O=c1c2ccccc2nc(/C=C/c2ccncc2)n1CCN1CCNCC1

>  <Energy>  (64) 
75.07452201407493

>  <Genealogy>  (64) 
O=c1c2ccccc2nc(/C=C/c2ccncc2)n1CCN1CCNCC1 (cis-trans isomerization)
O=c1c2ccccc2nc(/C=C/c2ccncc2)n1CCN1CCNCC1 (3D coordinates assigned)
O=c1c2ccccc2nc(/C=C/c2ccncc2)n1CCN1CCNCC1 (nonaromatic ring conformer: 75.07452201407493 kcal/mol)

>  <smiles>  (64) 
O=c1c2ccccc2nc(/C=C/c2ccncc2)n1CCN1CCNCC1

>  <score_type>  (64) 
oracle

>  <origin>  (64) 
autodockgpu

>  <m_score__min__energy>  (64) 
-7.1699999999999999

>  <m_primary>  (64) 
energy

>  <meeko>  (64) 
{"free_energy": -7.14, "intermolecular_energy": -8.93, "internal_energy": -1.38, "cluster_size": 18, "cluster_id": 1, "rank_in_cluster": 6}

>  <energy>  (64) 
-7.15

>  <cluster_rmsd>  (64) 
1.53

>  <rmsd>  (64) 
271.3

>  <cluster>  (64) 
1

$$$$
MZUVVVBFQHRAFD-AATRIKPKNA-N
     RDKit          3D

 50 53  0  0  0  0  0  0  0  0999 V2000
  139.4449   73.6013  222.0893 H   0  0  0  0  0  0  0  0  0  0  0  0
  138.9320   72.6310  222.0160 C   0  0  0  0  0  0  0  0  0  0  0  0
  139.6630   71.5140  222.1640 C   0  0  0  0  0  0  0  0  0  0  0  0
  140.1799   71.0965  221.2873 H   0  0  0  0  0  0  0  0  0  0  0  0
  139.7970   70.8210  223.4780 C   0  0  0  0  0  0  0  0  0  0  0  0
  140.2950   71.5340  224.5250 N   0  0  0  0  0  0  0  0  0  0  0  0
  140.4320   71.0040  225.7600 C   0  0  0  0  0  0  0  0  0  0  0  0
  140.9470   71.7830  226.8030 C   0  0  0  0  0  0  0  0  0  0  0  0
  141.2464   72.8246  226.6150 H   0  0  0  0  0  0  0  0  0  0  0  0
  141.0810   71.2380  228.0830 C   0  0  0  0  0  0  0  0  0  0  0  0
  141.4842   71.8515  228.9021 H   0  0  0  0  0  0  0  0  0  0  0  0
  140.7030   69.9140  228.3230 C   0  0  0  0  0  0  0  0  0  0  0  0
  140.8109   69.4868  229.3309 H   0  0  0  0  0  0  0  0  0  0  0  0
  140.1880   69.1310  227.2850 C   0  0  0  0  0  0  0  0  0  0  0  0
  139.8897   68.0900  227.4780 H   0  0  0  0  0  0  0  0  0  0  0  0
  140.0510   69.6740  225.9930 C   0  0  0  0  0  0  0  0  0  0  0  0
  139.5400   68.9320  224.9150 C   0  0  0  0  0  0  0  0  0  0  0  0
  139.1830   67.7350  225.1060 O   0  0  0  0  0  0  0  0  0  0  0  0
  139.4240   69.5020  223.6650 N   0  0  0  0  0  0  0  0  0  0  0  0
  138.8750   68.6900  222.5560 C   0  0  0  0  0  0  0  0  0  0  0  0
  138.9566   69.2629  221.6205 H   0  0  0  0  0  0  0  0  0  0  0  0
  139.4518   67.7551  222.4977 H   0  0  0  0  0  0  0  0  0  0  0  0
  137.4020   68.3290  222.7910 C   0  0  0  0  0  0  0  0  0  0  0  0
  137.0622   67.6526  221.9929 H   0  0  0  0  0  0  0  0  0  0  0  0
  137.3059   67.8352  223.7692 H   0  0  0  0  0  0  0  0  0  0  0  0
  136.5650   69.5540  222.7840 N   0  0  0  0  0  0  0  0  0  0  0  0
  135.2490   69.3520  222.1300 C   0  0  0  0  0  0  0  0  0  0  0  0
  134.9479   70.2949  221.6502 H   0  0  0  0  0  0  0  0  0  0  0  0
  135.3667   68.5380  221.3995 H   0  0  0  0  0  0  0  0  0  0  0  0
  134.1420   68.9280  223.1180 C   0  0  0  0  0  0  0  0  0  0  0  0
  133.5717   69.8167  223.4261 H   0  0  0  0  0  0  0  0  0  0  0  0
  133.4780   68.2057  222.6206 H   0  0  0  0  0  0  0  0  0  0  0  0
  134.7280   68.2960  224.3030 N   0  0  0  0  0  0  0  0  0  0  0  0
  133.9470   67.9770  224.9230 H   0  0  0  0  0  0  0  0  0  0  0  0
  135.5480   69.2560  225.0560 C   0  0  0  0  0  0  0  0  0  0  0  0
  134.8826   69.9025  225.6471 H   0  0  0  0  0  0  0  0  0  0  0  0
  136.2291   68.6828  225.7022 H   0  0  0  0  0  0  0  0  0  0  0  0
  136.4100   70.1440  224.1300 C   0  0  0  0  0  0  0  0  0  0  0  0
  135.9285   71.1283  224.0330 H   0  0  0  0  0  0  0  0  0  0  0  0
  137.4102   70.2327  224.5792 H   0  0  0  0  0  0  0  0  0  0  0  0
  137.4700   72.6280  221.7590 C   0  0  0  0  0  0  0  0  0  0  0  0
  136.9100   72.1520  220.5580 C   0  0  0  0  0  0  0  0  0  0  0  0
  137.5592   71.7518  219.7653 H   0  0  0  0  0  0  0  0  0  0  0  0
  135.5250   72.1910  220.3790 C   0  0  0  0  0  0  0  0  0  0  0  0
  135.0822   71.8123  219.4460 H   0  0  0  0  0  0  0  0  0  0  0  0
  134.7230   72.6950  221.3530 N   0  0  0  0  0  0  0  0  0  0  0  0
  135.2340   73.1750  222.5170 C   0  0  0  0  0  0  0  0  0  0  0  0
  134.5603   73.5794  223.2868 H   0  0  0  0  0  0  0  0  0  0  0  0
  136.6130   73.1560  222.7380 C   0  0  0  0  0  0  0  0  0  0  0  0
  137.0266   73.5536  223.6765 H   0  0  0  0  0  0  0  0  0  0  0  0
  1  2  1  0
  2  3  2  0
  3  4  1  0
  3  5  1  0
  5  6  2  0
  6  7  1  0
  7  8  2  0
  8  9  1  0
  8 10  1  0
 10 11  1  0
 10 12  2  0
 12 13  1  0
 12 14  1  0
 14 15  1  0
 14 16  2  0
 16 17  1  0
 17 18  2  0
 17 19  1  0
 19 20  1  0
 20 21  1  0
 20 22  1  0
 20 23  1  0
 23 24  1  0
 23 25  1  0
 23 26  1  0
 26 27  1  0
 27 28  1  0
 27 29  1  0
 27 30  1  0
 30 31  1  0
 30 32  1  0
 30 33  1  0
 33 34  1  0
 33 35  1  0
 35 36  1  0
 35 37  1  0
 35 38  1  0
 38 39  1  0
 38 40  1  0
  2 41  1  0
 41 42  2  0
 42 43  1  0
 42 44  1  0
 44 45  1  0
 44 46  2  0
 46 47  1  0
 47 48  1  0
 47 49  2  0
 49 50  1  0
 19  5  1  0
 38 26  1  0
 49 41  1  0
 16  7  1  0
M  END
>  <UniqueID>  (65) 
612

>  <SMILES>  (65) 
O=c1c2ccccc2nc(/C=C/c2ccncc2)n1CCN1CCNCC1

>  <Energy>  (65) 
75.07452201407493

>  <Genealogy>  (65) 
O=c1c2ccccc2nc(/C=C/c2ccncc2)n1CCN1CCNCC1 (cis-trans isomerization)
O=c1c2ccccc2nc(/C=C/c2ccncc2)n1CCN1CCNCC1 (3D coordinates assigned)
O=c1c2ccccc2nc(/C=C/c2ccncc2)n1CCN1CCNCC1 (nonaromatic ring conformer: 75.07452201407493 kcal/mol)

>  <smiles>  (65) 
O=c1c2ccccc2nc(/C=C/c2ccncc2)n1CCN1CCNCC1

>  <score_type>  (65) 
oracle

>  <origin>  (65) 
autodockgpu

>  <m_score__min__energy>  (65) 
-7.1699999999999999

>  <m_primary>  (65) 
energy

>  <meeko>  (65) 
{"free_energy": -5.97, "intermolecular_energy": -7.76, "internal_energy": -2.17, "cluster_size": 18, "cluster_id": 1, "rank_in_cluster": 18}

>  <energy>  (65) 
-7.15

>  <cluster_rmsd>  (65) 
1.5

>  <rmsd>  (65) 
271.27

>  <cluster>  (65) 
1

$$$$
MZUVVVBFQHRAFD-AATRIKPKNA-N
     RDKit          3D

 50 53  0  0  0  0  0  0  0  0999 V2000
  141.0612   72.9387  221.4036 H   0  0  0  0  0  0  0  0  0  0  0  0
  140.0800   72.5840  221.7520 C   0  0  0  0  0  0  0  0  0  0  0  0
  139.9280   71.2710  221.9890 C   0  0  0  0  0  0  0  0  0  0  0  0
  139.7710   70.5916  221.1383 H   0  0  0  0  0  0  0  0  0  0  0  0
  139.9650   70.7040  223.3670 C   0  0  0  0  0  0  0  0  0  0  0  0
  140.4550   71.4880  224.3660 N   0  0  0  0  0  0  0  0  0  0  0  0
  140.5080   71.0740  225.6510 C   0  0  0  0  0  0  0  0  0  0  0  0
  141.0200   71.9230  226.6400 C   0  0  0  0  0  0  0  0  0  0  0  0
  141.3862   72.9243  226.3693 H   0  0  0  0  0  0  0  0  0  0  0  0
  141.0660   71.4990  227.9700 C   0  0  0  0  0  0  0  0  0  0  0  0
  141.4676   72.1671  228.7461 H   0  0  0  0  0  0  0  0  0  0  0  0
  140.6020   70.2260  228.3160 C   0  0  0  0  0  0  0  0  0  0  0  0
  140.6398   69.8941  229.3640 H   0  0  0  0  0  0  0  0  0  0  0  0
  140.0900   69.3740  227.3320 C   0  0  0  0  0  0  0  0  0  0  0  0
  139.7250   68.3736  227.6076 H   0  0  0  0  0  0  0  0  0  0  0  0
  140.0410   69.7950  225.9890 C   0  0  0  0  0  0  0  0  0  0  0  0
  139.5370   68.9790  224.9620 C   0  0  0  0  0  0  0  0  0  0  0  0
  139.1040   67.8280  225.2490 O   0  0  0  0  0  0  0  0  0  0  0  0
  139.5080   69.4300  223.6600 N   0  0  0  0  0  0  0  0  0  0  0  0
  138.9640   68.5440  222.6070 C   0  0  0  0  0  0  0  0  0  0  0  0
  139.1373   69.0088  221.6252 H   0  0  0  0  0  0  0  0  0  0  0  0
  139.4747   67.5723  222.6783 H   0  0  0  0  0  0  0  0  0  0  0  0
  137.4580   68.3080  222.7870 C   0  0  0  0  0  0  0  0  0  0  0  0
  137.0920   67.6640  221.9738 H   0  0  0  0  0  0  0  0  0  0  0  0
  137.2858   67.8227  223.7590 H   0  0  0  0  0  0  0  0  0  0  0  0
  136.7270   69.5980  222.7560 N   0  0  0  0  0  0  0  0  0  0  0  0
  135.4210   69.5070  222.0590 C   0  0  0  0  0  0  0  0  0  0  0  0
  135.2158   70.4720  221.5725 H   0  0  0  0  0  0  0  0  0  0  0  0
  135.4943   68.6861  221.3305 H   0  0  0  0  0  0  0  0  0  0  0  0
  134.2510   69.1770  223.0080 C   0  0  0  0  0  0  0  0  0  0  0  0
  133.7470   70.1102  223.2996 H   0  0  0  0  0  0  0  0  0  0  0  0
  133.5461   68.5127  222.4866 H   0  0  0  0  0  0  0  0  0  0  0  0
  134.7420   68.4980  224.2100 N   0  0  0  0  0  0  0  0  0  0  0  0
  133.9170   68.2460  224.8030 H   0  0  0  0  0  0  0  0  0  0  0  0
  135.6140   69.3860  224.9930 C   0  0  0  0  0  0  0  0  0  0  0  0
  134.9859   70.0860  225.5635 H   0  0  0  0  0  0  0  0  0  0  0  0
  136.2227   68.7582  225.6603 H   0  0  0  0  0  0  0  0  0  0  0  0
  136.5780   70.1990  224.0970 C   0  0  0  0  0  0  0  0  0  0  0  0
  136.1841   71.2201  223.9867 H   0  0  0  0  0  0  0  0  0  0  0  0
  137.5669   70.2037  224.5788 H   0  0  0  0  0  0  0  0  0  0  0  0
  138.9980   73.5830  221.9340 C   0  0  0  0  0  0  0  0  0  0  0  0
  139.2480   74.9670  222.0180 C   0  0  0  0  0  0  0  0  0  0  0  0
  140.2762   75.3500  221.9394 H   0  0  0  0  0  0  0  0  0  0  0  0
  138.1800   75.8500  222.2020 C   0  0  0  0  0  0  0  0  0  0  0  0
  138.3678   76.9323  222.2596 H   0  0  0  0  0  0  0  0  0  0  0  0
  136.9110   75.3770  222.3100 N   0  0  0  0  0  0  0  0  0  0  0  0
  136.6400   74.0480  222.2470 C   0  0  0  0  0  0  0  0  0  0  0  0
  135.6025   73.6946  222.3402 H   0  0  0  0  0  0  0  0  0  0  0  0
  137.6760   73.1280  222.0640 C   0  0  0  0  0  0  0  0  0  0  0  0
  137.4565   72.0509  222.0219 H   0  0  0  0  0  0  0  0  0  0  0  0
  1  2  1  0
  2  3  2  0
  3  4  1  0
  3  5  1  0
  5  6  2  0
  6  7  1  0
  7  8  2  0
  8  9  1  0
  8 10  1  0
 10 11  1  0
 10 12  2  0
 12 13  1  0
 12 14  1  0
 14 15  1  0
 14 16  2  0
 16 17  1  0
 17 18  2  0
 17 19  1  0
 19 20  1  0
 20 21  1  0
 20 22  1  0
 20 23  1  0
 23 24  1  0
 23 25  1  0
 23 26  1  0
 26 27  1  0
 27 28  1  0
 27 29  1  0
 27 30  1  0
 30 31  1  0
 30 32  1  0
 30 33  1  0
 33 34  1  0
 33 35  1  0
 35 36  1  0
 35 37  1  0
 35 38  1  0
 38 39  1  0
 38 40  1  0
  2 41  1  0
 41 42  2  0
 42 43  1  0
 42 44  1  0
 44 45  1  0
 44 46  2  0
 46 47  1  0
 47 48  1  0
 47 49  2  0
 49 50  1  0
 19  5  1  0
 38 26  1  0
 49 41  1  0
 16  7  1  0
M  END
>  <UniqueID>  (66) 
612

>  <SMILES>  (66) 
O=c1c2ccccc2nc(/C=C/c2ccncc2)n1CCN1CCNCC1

>  <Energy>  (66) 
75.07452201407493

>  <Genealogy>  (66) 
O=c1c2ccccc2nc(/C=C/c2ccncc2)n1CCN1CCNCC1 (cis-trans isomerization)
O=c1c2ccccc2nc(/C=C/c2ccncc2)n1CCN1CCNCC1 (3D coordinates assigned)
O=c1c2ccccc2nc(/C=C/c2ccncc2)n1CCN1CCNCC1 (nonaromatic ring conformer: 75.07452201407493 kcal/mol)

>  <smiles>  (66) 
O=c1c2ccccc2nc(/C=C/c2ccncc2)n1CCN1CCNCC1

>  <score_type>  (66) 
oracle

>  <origin>  (66) 
autodockgpu

>  <m_score__min__energy>  (66) 
-7.1699999999999999

>  <m_primary>  (66) 
energy

>  <meeko>  (66) 
{"free_energy": -6.65, "intermolecular_energy": -8.44, "internal_energy": -1.77, "cluster_size": 18, "cluster_id": 1, "rank_in_cluster": 17}

>  <energy>  (66) 
-7.14

>  <cluster_rmsd>  (66) 
0.52

>  <rmsd>  (66) 
271.24

>  <cluster>  (66) 
1

$$$$
MZUVVVBFQHRAFD-AATRIKPKNA-N
     RDKit          3D

 50 53  0  0  0  0  0  0  0  0999 V2000
  137.9055   72.6500  221.9640 H   0  0  0  0  0  0  0  0  0  0  0  0
  139.0040   72.6790  222.0130 C   0  0  0  0  0  0  0  0  0  0  0  0
  139.6630   71.5180  222.1610 C   0  0  0  0  0  0  0  0  0  0  0  0
  140.1242   71.0519  221.2778 H   0  0  0  0  0  0  0  0  0  0  0  0
  139.7900   70.8400  223.4830 C   0  0  0  0  0  0  0  0  0  0  0  0
  140.2790   71.5650  224.5260 N   0  0  0  0  0  0  0  0  0  0  0  0
  140.4100   71.0490  225.7670 C   0  0  0  0  0  0  0  0  0  0  0  0
  140.9160   71.8410  226.8050 C   0  0  0  0  0  0  0  0  0  0  0  0
  141.2137   72.8814  226.6077 H   0  0  0  0  0  0  0  0  0  0  0  0
  141.0430   71.3100  228.0920 C   0  0  0  0  0  0  0  0  0  0  0  0
  141.4399   71.9332  228.9069 H   0  0  0  0  0  0  0  0  0  0  0  0
  140.6660   69.9880  228.3440 C   0  0  0  0  0  0  0  0  0  0  0  0
  140.7675   69.5723  229.3574 H   0  0  0  0  0  0  0  0  0  0  0  0
  140.1600   69.1920  227.3110 C   0  0  0  0  0  0  0  0  0  0  0  0
  139.8632   68.1524  227.5138 H   0  0  0  0  0  0  0  0  0  0  0  0
  140.0300   69.7200  226.0110 C   0  0  0  0  0  0  0  0  0  0  0  0
  139.5280   68.9660  224.9380 C   0  0  0  0  0  0  0  0  0  0  0  0
  139.1720   67.7710  225.1410 O   0  0  0  0  0  0  0  0  0  0  0  0
  139.4180   69.5220  223.6820 N   0  0  0  0  0  0  0  0  0  0  0  0
  138.8790   68.6960  222.5780 C   0  0  0  0  0  0  0  0  0  0  0  0
  138.9928   69.2463  221.6324 H   0  0  0  0  0  0  0  0  0  0  0  0
  139.4388   67.7494  222.5524 H   0  0  0  0  0  0  0  0  0  0  0  0
  137.3940   68.3690  222.7880 C   0  0  0  0  0  0  0  0  0  0  0  0
  137.0488   67.7122  221.9759 H   0  0  0  0  0  0  0  0  0  0  0  0
  137.2725   67.8649  223.7581 H   0  0  0  0  0  0  0  0  0  0  0  0
  136.5870   69.6140  222.7870 N   0  0  0  0  0  0  0  0  0  0  0  0
  135.2700   69.4500  222.1250 C   0  0  0  0  0  0  0  0  0  0  0  0
  134.9942   70.4043  221.6524 H   0  0  0  0  0  0  0  0  0  0  0  0
  135.3716   68.6401  221.3876 H   0  0  0  0  0  0  0  0  0  0  0  0
  134.1480   69.0440  223.1040 C   0  0  0  0  0  0  0  0  0  0  0  0
  133.5980   69.9435  223.4176 H   0  0  0  0  0  0  0  0  0  0  0  0
  133.4693   68.3426  222.5966 H   0  0  0  0  0  0  0  0  0  0  0  0
  134.7120   68.3870  224.2860 N   0  0  0  0  0  0  0  0  0  0  0  0
  133.9210   68.0830  224.8990 H   0  0  0  0  0  0  0  0  0  0  0  0
  135.5520   69.3210  225.0520 C   0  0  0  0  0  0  0  0  0  0  0  0
  134.8997   69.9787  225.6452 H   0  0  0  0  0  0  0  0  0  0  0  0
  136.2154   68.7262  225.6971 H   0  0  0  0  0  0  0  0  0  0  0  0
  136.4400   70.1950  224.1370 C   0  0  0  0  0  0  0  0  0  0  0  0
  135.9835   71.1917  224.0465 H   0  0  0  0  0  0  0  0  0  0  0  0
  137.4400   70.2542  224.5913 H   0  0  0  0  0  0  0  0  0  0  0  0
  139.6750   73.9980  221.9120 C   0  0  0  0  0  0  0  0  0  0  0  0
  139.0700   75.1930  222.3470 C   0  0  0  0  0  0  0  0  0  0  0  0
  138.0641   75.1742  222.7917 H   0  0  0  0  0  0  0  0  0  0  0  0
  139.7560   76.4030  222.2100 C   0  0  0  0  0  0  0  0  0  0  0  0
  139.2920   77.3381  222.5569 H   0  0  0  0  0  0  0  0  0  0  0  0
  140.9940   76.4290  221.6500 N   0  0  0  0  0  0  0  0  0  0  0  0
  141.5980   75.2950  221.2090 C   0  0  0  0  0  0  0  0  0  0  0  0
  142.6006   75.3467  220.7594 H   0  0  0  0  0  0  0  0  0  0  0  0
  140.9490   74.0630  221.3250 C   0  0  0  0  0  0  0  0  0  0  0  0
  141.4346   73.1469  220.9576 H   0  0  0  0  0  0  0  0  0  0  0  0
  1  2  1  0
  2  3  2  0
  3  4  1  0
  3  5  1  0
  5  6  2  0
  6  7  1  0
  7  8  2  0
  8  9  1  0
  8 10  1  0
 10 11  1  0
 10 12  2  0
 12 13  1  0
 12 14  1  0
 14 15  1  0
 14 16  2  0
 16 17  1  0
 17 18  2  0
 17 19  1  0
 19 20  1  0
 20 21  1  0
 20 22  1  0
 20 23  1  0
 23 24  1  0
 23 25  1  0
 23 26  1  0
 26 27  1  0
 27 28  1  0
 27 29  1  0
 27 30  1  0
 30 31  1  0
 30 32  1  0
 30 33  1  0
 33 34  1  0
 33 35  1  0
 35 36  1  0
 35 37  1  0
 35 38  1  0
 38 39  1  0
 38 40  1  0
  2 41  1  0
 41 42  2  0
 42 43  1  0
 42 44  1  0
 44 45  1  0
 44 46  2  0
 46 47  1  0
 47 48  1  0
 47 49  2  0
 49 50  1  0
 19  5  1  0
 38 26  1  0
 49 41  1  0
 16  7  1  0
M  END
>  <UniqueID>  (67) 
612

>  <SMILES>  (67) 
O=c1c2ccccc2nc(/C=C/c2ccncc2)n1CCN1CCNCC1

>  <Energy>  (67) 
75.07452201407493

>  <Genealogy>  (67) 
O=c1c2ccccc2nc(/C=C/c2ccncc2)n1CCN1CCNCC1 (cis-trans isomerization)
O=c1c2ccccc2nc(/C=C/c2ccncc2)n1CCN1CCNCC1 (3D coordinates assigned)
O=c1c2ccccc2nc(/C=C/c2ccncc2)n1CCN1CCNCC1 (nonaromatic ring conformer: 75.07452201407493 kcal/mol)

>  <smiles>  (67) 
O=c1c2ccccc2nc(/C=C/c2ccncc2)n1CCN1CCNCC1

>  <score_type>  (67) 
oracle

>  <origin>  (67) 
autodockgpu

>  <m_score__min__energy>  (67) 
-7.1699999999999999

>  <m_primary>  (67) 
energy

>  <meeko>  (67) 
{"free_energy": -7.14, "intermolecular_energy": -8.93, "internal_energy": -1.48, "cluster_size": 18, "cluster_id": 1, "rank_in_cluster": 7}

>  <energy>  (67) 
-7.14

>  <cluster_rmsd>  (67) 
0.53

>  <rmsd>  (67) 
271.28

>  <cluster>  (67) 
1

$$$$
MZUVVVBFQHRAFD-AATRIKPKNA-N
     RDKit          3D

 50 53  0  0  0  0  0  0  0  0999 V2000
  137.8320   72.5208  221.8462 H   0  0  0  0  0  0  0  0  0  0  0  0
  138.9200   72.6120  221.9800 C   0  0  0  0  0  0  0  0  0  0  0  0
  139.6350   71.4880  222.1470 C   0  0  0  0  0  0  0  0  0  0  0  0
  140.1346   71.0408  221.2750 H   0  0  0  0  0  0  0  0  0  0  0  0
  139.7740   70.8260  223.4760 C   0  0  0  0  0  0  0  0  0  0  0  0
  140.2640   71.5650  224.5080 N   0  0  0  0  0  0  0  0  0  0  0  0
  140.4050   71.0640  225.7540 C   0  0  0  0  0  0  0  0  0  0  0  0
  140.9120   71.8700  226.7800 C   0  0  0  0  0  0  0  0  0  0  0  0
  141.2029   72.9097  226.5692 H   0  0  0  0  0  0  0  0  0  0  0  0
  141.0490   71.3550  228.0720 C   0  0  0  0  0  0  0  0  0  0  0  0
  141.4458   71.9901  228.8777 H   0  0  0  0  0  0  0  0  0  0  0  0
  140.6820   70.0330  228.3410 C   0  0  0  0  0  0  0  0  0  0  0  0
  140.7914   69.6291  229.3583 H   0  0  0  0  0  0  0  0  0  0  0  0
  140.1760   69.2230  227.3190 C   0  0  0  0  0  0  0  0  0  0  0  0
  139.8877   68.1835  227.5342 H   0  0  0  0  0  0  0  0  0  0  0  0
  140.0350   69.7360  226.0150 C   0  0  0  0  0  0  0  0  0  0  0  0
  139.5320   68.9660  224.9540 C   0  0  0  0  0  0  0  0  0  0  0  0
  139.1850   67.7710  225.1710 O   0  0  0  0  0  0  0  0  0  0  0  0
  139.4110   69.5070  223.6920 N   0  0  0  0  0  0  0  0  0  0  0  0
  138.8710   68.6660  222.6000 C   0  0  0  0  0  0  0  0  0  0  0  0
  138.9770   69.2065  221.6478 H   0  0  0  0  0  0  0  0  0  0  0  0
  139.4359   67.7223  222.5820 H   0  0  0  0  0  0  0  0  0  0  0  0
  137.3890   68.3330  222.8210 C   0  0  0  0  0  0  0  0  0  0  0  0
  137.0638   67.6045  222.0637 H   0  0  0  0  0  0  0  0  0  0  0  0
  137.2633   67.9100  223.8286 H   0  0  0  0  0  0  0  0  0  0  0  0
  136.5640   69.5600  222.7060 N   0  0  0  0  0  0  0  0  0  0  0  0
  135.2440   69.3130  222.0760 C   0  0  0  0  0  0  0  0  0  0  0  0
  134.9501   70.2123  221.5149 H   0  0  0  0  0  0  0  0  0  0  0  0
  135.3520   68.4360  221.4209 H   0  0  0  0  0  0  0  0  0  0  0  0
  134.1360   68.9890  223.1000 C   0  0  0  0  0  0  0  0  0  0  0  0
  133.5754   69.9071  223.3299 H   0  0  0  0  0  0  0  0  0  0  0  0
  133.4632   68.2325  222.6698 H   0  0  0  0  0  0  0  0  0  0  0  0
  134.7200   68.4580  224.3350 N   0  0  0  0  0  0  0  0  0  0  0  0
  133.9380   68.2040  224.9820 H   0  0  0  0  0  0  0  0  0  0  0  0
  135.5510   69.4750  224.9980 C   0  0  0  0  0  0  0  0  0  0  0  0
  134.8930   70.1780  225.5298 H   0  0  0  0  0  0  0  0  0  0  0  0
  136.2286   68.9563  225.6922 H   0  0  0  0  0  0  0  0  0  0  0  0
  136.4180   70.2680  223.9940 C   0  0  0  0  0  0  0  0  0  0  0  0
  135.9452   71.2441  223.8106 H   0  0  0  0  0  0  0  0  0  0  0  0
  137.4204   70.3861  224.4313 H   0  0  0  0  0  0  0  0  0  0  0  0
  139.5170   73.9710  221.9660 C   0  0  0  0  0  0  0  0  0  0  0  0
  138.7840   75.1260  222.3020 C   0  0  0  0  0  0  0  0  0  0  0  0
  137.7278   75.0449  222.5985 H   0  0  0  0  0  0  0  0  0  0  0  0
  139.4080   76.3760  222.2560 C   0  0  0  0  0  0  0  0  0  0  0  0
  138.8433   77.2805  222.5261 H   0  0  0  0  0  0  0  0  0  0  0  0
  140.7090   76.4780  221.8790 N   0  0  0  0  0  0  0  0  0  0  0  0
  141.4380   75.3850  221.5360 C   0  0  0  0  0  0  0  0  0  0  0  0
  142.4893   75.4992  221.2332 H   0  0  0  0  0  0  0  0  0  0  0  0
  140.8550   74.1150  221.5670 C   0  0  0  0  0  0  0  0  0  0  0  0
  141.4431   73.2309  221.2795 H   0  0  0  0  0  0  0  0  0  0  0  0
  1  2  1  0
  2  3  2  0
  3  4  1  0
  3  5  1  0
  5  6  2  0
  6  7  1  0
  7  8  2  0
  8  9  1  0
  8 10  1  0
 10 11  1  0
 10 12  2  0
 12 13  1  0
 12 14  1  0
 14 15  1  0
 14 16  2  0
 16 17  1  0
 17 18  2  0
 17 19  1  0
 19 20  1  0
 20 21  1  0
 20 22  1  0
 20 23  1  0
 23 24  1  0
 23 25  1  0
 23 26  1  0
 26 27  1  0
 27 28  1  0
 27 29  1  0
 27 30  1  0
 30 31  1  0
 30 32  1  0
 30 33  1  0
 33 34  1  0
 33 35  1  0
 35 36  1  0
 35 37  1  0
 35 38  1  0
 38 39  1  0
 38 40  1  0
  2 41  1  0
 41 42  2  0
 42 43  1  0
 42 44  1  0
 44 45  1  0
 44 46  2  0
 46 47  1  0
 47 48  1  0
 47 49  2  0
 49 50  1  0
 19  5  1  0
 38 26  1  0
 49 41  1  0
 16  7  1  0
M  END
>  <UniqueID>  (68) 
612

>  <SMILES>  (68) 
O=c1c2ccccc2nc(/C=C/c2ccncc2)n1CCN1CCNCC1

>  <Energy>  (68) 
75.07452201407493

>  <Genealogy>  (68) 
O=c1c2ccccc2nc(/C=C/c2ccncc2)n1CCN1CCNCC1 (cis-trans isomerization)
O=c1c2ccccc2nc(/C=C/c2ccncc2)n1CCN1CCNCC1 (3D coordinates assigned)
O=c1c2ccccc2nc(/C=C/c2ccncc2)n1CCN1CCNCC1 (nonaromatic ring conformer: 75.07452201407493 kcal/mol)

>  <smiles>  (68) 
O=c1c2ccccc2nc(/C=C/c2ccncc2)n1CCN1CCNCC1

>  <score_type>  (68) 
oracle

>  <origin>  (68) 
autodockgpu

>  <m_score__min__energy>  (68) 
-7.1699999999999999

>  <m_primary>  (68) 
energy

>  <meeko>  (68) 
{"free_energy": -7.12, "intermolecular_energy": -8.91, "internal_energy": -1.5, "cluster_size": 18, "cluster_id": 1, "rank_in_cluster": 8}

>  <energy>  (68) 
-7.12

>  <cluster_rmsd>  (68) 
0.5

>  <rmsd>  (68) 
271.27

>  <cluster>  (68) 
1

$$$$
MZUVVVBFQHRAFD-AATRIKPKNA-N
     RDKit          3D

 50 53  0  0  0  0  0  0  0  0999 V2000
  142.0097   72.2785  221.2625 H   0  0  0  0  0  0  0  0  0  0  0  0
  140.9700   72.3840  221.6060 C   0  0  0  0  0  0  0  0  0  0  0  0
  140.2880   71.2690  221.9130 C   0  0  0  0  0  0  0  0  0  0  0  0
  139.8063   70.7004  221.1039 H   0  0  0  0  0  0  0  0  0  0  0  0
  140.1620   70.7760  223.3150 C   0  0  0  0  0  0  0  0  0  0  0  0
  140.6830   71.5450  224.3100 N   0  0  0  0  0  0  0  0  0  0  0  0
  140.5990   71.1970  225.6130 C   0  0  0  0  0  0  0  0  0  0  0  0
  141.1510   72.0270  226.5960 C   0  0  0  0  0  0  0  0  0  0  0  0
  141.6595   72.9586  226.3071 H   0  0  0  0  0  0  0  0  0  0  0  0
  141.0560   71.6720  227.9440 C   0  0  0  0  0  0  0  0  0  0  0  0
  141.4893   72.3250  228.7159 H   0  0  0  0  0  0  0  0  0  0  0  0
  140.4110   70.4880  228.3130 C   0  0  0  0  0  0  0  0  0  0  0  0
  140.3384   70.2104  229.3749 H   0  0  0  0  0  0  0  0  0  0  0  0
  139.8580   69.6560  227.3350 C   0  0  0  0  0  0  0  0  0  0  0  0
  139.3499   68.7258  227.6292 H   0  0  0  0  0  0  0  0  0  0  0  0
  139.9500   70.0060  225.9740 C   0  0  0  0  0  0  0  0  0  0  0  0
  139.4130   69.2070  224.9520 C   0  0  0  0  0  0  0  0  0  0  0  0
  138.8180   68.1360  225.2580 O   0  0  0  0  0  0  0  0  0  0  0  0
  139.5270   69.5870  223.6320 N   0  0  0  0  0  0  0  0  0  0  0  0
  138.9420   68.7210  222.5830 C   0  0  0  0  0  0  0  0  0  0  0  0
  139.7566   68.2768  221.9922 H   0  0  0  0  0  0  0  0  0  0  0  0
  138.3427   67.9416  223.0764 H   0  0  0  0  0  0  0  0  0  0  0  0
  138.0200   69.5110  221.6440 C   0  0  0  0  0  0  0  0  0  0  0  0
  138.3481   70.5604  221.6115 H   0  0  0  0  0  0  0  0  0  0  0  0
  138.0703   69.0692  220.6379 H   0  0  0  0  0  0  0  0  0  0  0  0
  136.6190   69.4510  222.1280 N   0  0  0  0  0  0  0  0  0  0  0  0
  136.5210   69.3310  223.6040 C   0  0  0  0  0  0  0  0  0  0  0  0
  135.6245   68.7426  223.8490 H   0  0  0  0  0  0  0  0  0  0  0  0
  137.4417   68.8428  223.9562 H   0  0  0  0  0  0  0  0  0  0  0  0
  136.4220   70.6970  224.3150 C   0  0  0  0  0  0  0  0  0  0  0  0
  135.3646   70.9264  224.5129 H   0  0  0  0  0  0  0  0  0  0  0  0
  136.9824   70.6478  225.2603 H   0  0  0  0  0  0  0  0  0  0  0  0
  136.9960   71.7530  223.4780 N   0  0  0  0  0  0  0  0  0  0  0  0
  136.9570   72.6510  224.0130 H   0  0  0  0  0  0  0  0  0  0  0  0
  136.2160   71.9220  222.2420 C   0  0  0  0  0  0  0  0  0  0  0  0
  135.3104   72.5026  222.4717 H   0  0  0  0  0  0  0  0  0  0  0  0
  136.8519   72.4427  221.5109 H   0  0  0  0  0  0  0  0  0  0  0  0
  135.7960   70.5690  221.6250 C   0  0  0  0  0  0  0  0  0  0  0  0
  134.7428   70.3758  221.8769 H   0  0  0  0  0  0  0  0  0  0  0  0
  135.9401   70.6333  220.5364 H   0  0  0  0  0  0  0  0  0  0  0  0
  140.4000   73.7510  221.7040 C   0  0  0  0  0  0  0  0  0  0  0  0
  141.1910   74.9120  221.6030 C   0  0  0  0  0  0  0  0  0  0  0  0
  142.2750   74.8307  221.4348 H   0  0  0  0  0  0  0  0  0  0  0  0
  140.5890   76.1680  221.7180 C   0  0  0  0  0  0  0  0  0  0  0  0
  141.2001   77.0787  221.6326 H   0  0  0  0  0  0  0  0  0  0  0  0
  139.2510   76.2680  221.9350 N   0  0  0  0  0  0  0  0  0  0  0  0
  138.4650   75.1670  222.0500 C   0  0  0  0  0  0  0  0  0  0  0  0
  137.3854   75.2798  222.2279 H   0  0  0  0  0  0  0  0  0  0  0  0
  139.0240   73.8910  221.9430 C   0  0  0  0  0  0  0  0  0  0  0  0
  138.3880   72.9994  222.0457 H   0  0  0  0  0  0  0  0  0  0  0  0
  1  2  1  0
  2  3  2  0
  3  4  1  0
  3  5  1  0
  5  6  2  0
  6  7  1  0
  7  8  2  0
  8  9  1  0
  8 10  1  0
 10 11  1  0
 10 12  2  0
 12 13  1  0
 12 14  1  0
 14 15  1  0
 14 16  2  0
 16 17  1  0
 17 18  2  0
 17 19  1  0
 19 20  1  0
 20 21  1  0
 20 22  1  0
 20 23  1  0
 23 24  1  0
 23 25  1  0
 23 26  1  0
 26 27  1  0
 27 28  1  0
 27 29  1  0
 27 30  1  0
 30 31  1  0
 30 32  1  0
 30 33  1  0
 33 34  1  0
 33 35  1  0
 35 36  1  0
 35 37  1  0
 35 38  1  0
 38 39  1  0
 38 40  1  0
  2 41  1  0
 41 42  2  0
 42 43  1  0
 42 44  1  0
 44 45  1  0
 44 46  2  0
 46 47  1  0
 47 48  1  0
 47 49  2  0
 49 50  1  0
 19  5  1  0
 38 26  1  0
 49 41  1  0
 16  7  1  0
M  END
>  <UniqueID>  (69) 
612

>  <SMILES>  (69) 
O=c1c2ccccc2nc(/C=C/c2ccncc2)n1CCN1CCNCC1

>  <Energy>  (69) 
75.07452201407493

>  <Genealogy>  (69) 
O=c1c2ccccc2nc(/C=C/c2ccncc2)n1CCN1CCNCC1 (cis-trans isomerization)
O=c1c2ccccc2nc(/C=C/c2ccncc2)n1CCN1CCNCC1 (3D coordinates assigned)
O=c1c2ccccc2nc(/C=C/c2ccncc2)n1CCN1CCNCC1 (nonaromatic ring conformer: 75.07452201407493 kcal/mol)

>  <smiles>  (69) 
O=c1c2ccccc2nc(/C=C/c2ccncc2)n1CCN1CCNCC1

>  <score_type>  (69) 
oracle

>  <origin>  (69) 
autodockgpu

>  <m_score__min__energy>  (69) 
-7.1699999999999999

>  <m_primary>  (69) 
energy

>  <meeko>  (69) 
{"free_energy": -6.78, "intermolecular_energy": -8.57, "internal_energy": -1.72, "cluster_size": 18, "cluster_id": 1, "rank_in_cluster": 15}

>  <energy>  (69) 
-7.11

>  <cluster_rmsd>  (69) 
0.17

>  <rmsd>  (69) 
271.21

>  <cluster>  (69) 
1

$$$$
MZUVVVBFQHRAFD-AATRIKPKNA-N
     RDKit          3D

 50 53  0  0  0  0  0  0  0  0999 V2000
  140.2878   78.4949  218.6752 H   0  0  0  0  0  0  0  0  0  0  0  0
  141.0620   78.2490  219.4170 C   0  0  0  0  0  0  0  0  0  0  0  0
  142.1630   79.0160  219.4620 C   0  0  0  0  0  0  0  0  0  0  0  0
  143.1068   78.5714  219.8106 H   0  0  0  0  0  0  0  0  0  0  0  0
  142.1490   80.4510  219.0550 C   0  0  0  0  0  0  0  0  0  0  0  0
  142.8650   80.8080  217.9540 N   0  0  0  0  0  0  0  0  0  0  0  0
  142.8960   82.0760  217.4910 C   0  0  0  0  0  0  0  0  0  0  0  0
  143.6480   82.3880  216.3520 C   0  0  0  0  0  0  0  0  0  0  0  0
  144.2189   81.6008  215.8378 H   0  0  0  0  0  0  0  0  0  0  0  0
  143.6740   83.6980  215.8680 C   0  0  0  0  0  0  0  0  0  0  0  0
  144.2654   83.9415  214.9730 H   0  0  0  0  0  0  0  0  0  0  0  0
  142.9490   84.7000  216.5200 C   0  0  0  0  0  0  0  0  0  0  0  0
  142.9710   85.7308  216.1368 H   0  0  0  0  0  0  0  0  0  0  0  0
  142.1960   84.3950  217.6580 C   0  0  0  0  0  0  0  0  0  0  0  0
  141.6256   85.1856  218.1675 H   0  0  0  0  0  0  0  0  0  0  0  0
  142.1670   83.0760  218.1530 C   0  0  0  0  0  0  0  0  0  0  0  0
  141.4280   82.7150  219.2910 C   0  0  0  0  0  0  0  0  0  0  0  0
  140.7580   83.6000  219.8950 O   0  0  0  0  0  0  0  0  0  0  0  0
  141.4270   81.4130  219.7420 N   0  0  0  0  0  0  0  0  0  0  0  0
  140.6310   81.0700  220.9420 C   0  0  0  0  0  0  0  0  0  0  0  0
  139.5645   81.2181  220.7168 H   0  0  0  0  0  0  0  0  0  0  0  0
  140.8366   80.0211  221.2020 H   0  0  0  0  0  0  0  0  0  0  0  0
  141.0120   81.9450  222.1440 C   0  0  0  0  0  0  0  0  0  0  0  0
  142.0357   82.3236  222.0072 H   0  0  0  0  0  0  0  0  0  0  0  0
  140.3053   82.7852  222.2130 H   0  0  0  0  0  0  0  0  0  0  0  0
  140.9460   81.1550  223.3980 N   0  0  0  0  0  0  0  0  0  0  0  0
  140.5490   79.7440  223.1710 C   0  0  0  0  0  0  0  0  0  0  0  0
  139.9805   79.3951  224.0457 H   0  0  0  0  0  0  0  0  0  0  0  0
  139.9467   79.7164  222.2510 H   0  0  0  0  0  0  0  0  0  0  0  0
  141.7540   78.8030  222.9610 C   0  0  0  0  0  0  0  0  0  0  0  0
  142.0058   78.3182  223.9157 H   0  0  0  0  0  0  0  0  0  0  0  0
  141.4875   78.0444  222.2103 H   0  0  0  0  0  0  0  0  0  0  0  0
  142.9150   79.5580  222.4820 N   0  0  0  0  0  0  0  0  0  0  0  0
  143.6930   78.8810  222.3030 H   0  0  0  0  0  0  0  0  0  0  0  0
  143.3690   80.5190  223.4990 C   0  0  0  0  0  0  0  0  0  0  0  0
  143.9491   79.9793  224.2621 H   0  0  0  0  0  0  0  0  0  0  0  0
  143.9815   81.2804  222.9939 H   0  0  0  0  0  0  0  0  0  0  0  0
  142.1900   81.2410  224.1890 C   0  0  0  0  0  0  0  0  0  0  0  0
  142.0177   80.7789  225.1722 H   0  0  0  0  0  0  0  0  0  0  0  0
  142.4553   82.3039  224.2883 H   0  0  0  0  0  0  0  0  0  0  0  0
  140.8310   77.0880  220.3120 C   0  0  0  0  0  0  0  0  0  0  0  0
  141.7240   76.0010  220.3920 C   0  0  0  0  0  0  0  0  0  0  0  0
  142.6410   75.9919  219.7845 H   0  0  0  0  0  0  0  0  0  0  0  0
  141.4370   74.9350  221.2480 C   0  0  0  0  0  0  0  0  0  0  0  0
  142.1343   74.0873  221.3200 H   0  0  0  0  0  0  0  0  0  0  0  0
  140.3000   74.9410  221.9920 N   0  0  0  0  0  0  0  0  0  0  0  0
  139.4130   75.9680  221.9270 C   0  0  0  0  0  0  0  0  0  0  0  0
  138.4994   75.9438  222.5392 H   0  0  0  0  0  0  0  0  0  0  0  0
  139.6590   77.0550  221.0840 C   0  0  0  0  0  0  0  0  0  0  0  0
  138.9364   77.8823  221.0255 H   0  0  0  0  0  0  0  0  0  0  0  0
  1  2  1  0
  2  3  2  0
  3  4  1  0
  3  5  1  0
  5  6  2  0
  6  7  1  0
  7  8  2  0
  8  9  1  0
  8 10  1  0
 10 11  1  0
 10 12  2  0
 12 13  1  0
 12 14  1  0
 14 15  1  0
 14 16  2  0
 16 17  1  0
 17 18  2  0
 17 19  1  0
 19 20  1  0
 20 21  1  0
 20 22  1  0
 20 23  1  0
 23 24  1  0
 23 25  1  0
 23 26  1  0
 26 27  1  0
 27 28  1  0
 27 29  1  0
 27 30  1  0
 30 31  1  0
 30 32  1  0
 30 33  1  0
 33 34  1  0
 33 35  1  0
 35 36  1  0
 35 37  1  0
 35 38  1  0
 38 39  1  0
 38 40  1  0
  2 41  1  0
 41 42  2  0
 42 43  1  0
 42 44  1  0
 44 45  1  0
 44 46  2  0
 46 47  1  0
 47 48  1  0
 47 49  2  0
 49 50  1  0
 19  5  1  0
 38 26  1  0
 49 41  1  0
 16  7  1  0
M  END
>  <UniqueID>  (70) 
612

>  <SMILES>  (70) 
O=c1c2ccccc2nc(/C=C/c2ccncc2)n1CCN1CCNCC1

>  <Energy>  (70) 
75.07452201407493

>  <Genealogy>  (70) 
O=c1c2ccccc2nc(/C=C/c2ccncc2)n1CCN1CCNCC1 (cis-trans isomerization)
O=c1c2ccccc2nc(/C=C/c2ccncc2)n1CCN1CCNCC1 (3D coordinates assigned)
O=c1c2ccccc2nc(/C=C/c2ccncc2)n1CCN1CCNCC1 (nonaromatic ring conformer: 75.07452201407493 kcal/mol)

>  <smiles>  (70) 
O=c1c2ccccc2nc(/C=C/c2ccncc2)n1CCN1CCNCC1

>  <score_type>  (70) 
oracle

>  <origin>  (70) 
autodockgpu

>  <m_score__min__energy>  (70) 
-7.1699999999999999

>  <m_primary>  (70) 
energy

>  <meeko>  (70) 
{"free_energy": -6.28, "intermolecular_energy": -8.07, "internal_energy": -1.49, "cluster_size": 1, "cluster_id": 3, "rank_in_cluster": 1}

>  <energy>  (70) 
-7.1

>  <cluster_rmsd>  (70) 
0.24

>  <rmsd>  (70) 
271.24

>  <cluster>  (70) 
1

$$$$
MZUVVVBFQHRAFD-AATRIKPKNA-N
     RDKit          3D

 50 53  0  0  0  0  0  0  0  0999 V2000
  142.0201   72.3348  221.3100 H   0  0  0  0  0  0  0  0  0  0  0  0
  140.9740   72.4170  221.6400 C   0  0  0  0  0  0  0  0  0  0  0  0
  140.3070   71.2860  221.9210 C   0  0  0  0  0  0  0  0  0  0  0  0
  139.8450   70.7223  221.0971 H   0  0  0  0  0  0  0  0  0  0  0  0
  140.1720   70.7690  223.3130 C   0  0  0  0  0  0  0  0  0  0  0  0
  140.6940   71.5150  224.3240 N   0  0  0  0  0  0  0  0  0  0  0  0
  140.6020   71.1450  225.6200 C   0  0  0  0  0  0  0  0  0  0  0  0
  141.1560   71.9520  226.6200 C   0  0  0  0  0  0  0  0  0  0  0  0
  141.6730   72.8847  226.3500 H   0  0  0  0  0  0  0  0  0  0  0  0
  141.0530   71.5740  227.9610 C   0  0  0  0  0  0  0  0  0  0  0  0
  141.4873   72.2102  228.7462 H   0  0  0  0  0  0  0  0  0  0  0  0
  140.3980   70.3870  228.3060 C   0  0  0  0  0  0  0  0  0  0  0  0
  140.3193   70.0902  229.3623 H   0  0  0  0  0  0  0  0  0  0  0  0
  139.8430   69.5770  227.3100 C   0  0  0  0  0  0  0  0  0  0  0  0
  139.3267   68.6453  227.5845 H   0  0  0  0  0  0  0  0  0  0  0  0
  139.9440   69.9520  225.9560 C   0  0  0  0  0  0  0  0  0  0  0  0
  139.4050   69.1750  224.9170 C   0  0  0  0  0  0  0  0  0  0  0  0
  138.8010   68.1020  225.2020 O   0  0  0  0  0  0  0  0  0  0  0  0
  139.5270   69.5790  223.6050 N   0  0  0  0  0  0  0  0  0  0  0  0
  138.9410   68.7360  222.5390 C   0  0  0  0  0  0  0  0  0  0  0  0
  139.7550   68.2957  221.9444 H   0  0  0  0  0  0  0  0  0  0  0  0
  138.3336   67.9524  223.0156 H   0  0  0  0  0  0  0  0  0  0  0  0
  138.0300   69.5500  221.6100 C   0  0  0  0  0  0  0  0  0  0  0  0
  138.3745   70.5944  221.5877 H   0  0  0  0  0  0  0  0  0  0  0  0
  138.0717   69.1180  220.5993 H   0  0  0  0  0  0  0  0  0  0  0  0
  136.6290   69.5070  222.0960 N   0  0  0  0  0  0  0  0  0  0  0  0
  136.5320   69.3770  223.5700 C   0  0  0  0  0  0  0  0  0  0  0  0
  135.6268   68.8008  223.8120 H   0  0  0  0  0  0  0  0  0  0  0  0
  137.4459   68.8719  223.9160 H   0  0  0  0  0  0  0  0  0  0  0  0
  136.4560   70.7380  224.2930 C   0  0  0  0  0  0  0  0  0  0  0  0
  135.4027   70.9822  224.4955 H   0  0  0  0  0  0  0  0  0  0  0  0
  137.0177   70.6719  225.2365 H   0  0  0  0  0  0  0  0  0  0  0  0
  137.0450   71.7930  223.4630 N   0  0  0  0  0  0  0  0  0  0  0  0
  137.0210   72.6870  224.0060 H   0  0  0  0  0  0  0  0  0  0  0  0
  136.2650   71.9840  222.2310 C   0  0  0  0  0  0  0  0  0  0  0  0
  135.3690   72.5766  222.4678 H   0  0  0  0  0  0  0  0  0  0  0  0
  136.9073   72.5007  221.5027 H   0  0  0  0  0  0  0  0  0  0  0  0
  135.8220   70.6420  221.6030 C   0  0  0  0  0  0  0  0  0  0  0  0
  134.7664   70.4632  221.8553 H   0  0  0  0  0  0  0  0  0  0  0  0
  135.9646   70.7128  220.5146 H   0  0  0  0  0  0  0  0  0  0  0  0
  140.3780   73.7720  221.7500 C   0  0  0  0  0  0  0  0  0  0  0  0
  139.0030   73.9810  221.9700 C   0  0  0  0  0  0  0  0  0  0  0  0
  138.3225   73.1234  222.0774 H   0  0  0  0  0  0  0  0  0  0  0  0
  138.5090   75.2860  222.0510 C   0  0  0  0  0  0  0  0  0  0  0  0
  137.4372   75.4553  222.2314 H   0  0  0  0  0  0  0  0  0  0  0  0
  139.3460   76.3460  221.9080 N   0  0  0  0  0  0  0  0  0  0  0  0
  140.6750   76.1760  221.6820 C   0  0  0  0  0  0  0  0  0  0  0  0
  141.3289   77.0533  221.5689 H   0  0  0  0  0  0  0  0  0  0  0  0
  141.2130   74.8900  221.5930 C   0  0  0  0  0  0  0  0  0  0  0  0
  142.2874   74.7535  221.4005 H   0  0  0  0  0  0  0  0  0  0  0  0
  1  2  1  0
  2  3  2  0
  3  4  1  0
  3  5  1  0
  5  6  2  0
  6  7  1  0
  7  8  2  0
  8  9  1  0
  8 10  1  0
 10 11  1  0
 10 12  2  0
 12 13  1  0
 12 14  1  0
 14 15  1  0
 14 16  2  0
 16 17  1  0
 17 18  2  0
 17 19  1  0
 19 20  1  0
 20 21  1  0
 20 22  1  0
 20 23  1  0
 23 24  1  0
 23 25  1  0
 23 26  1  0
 26 27  1  0
 27 28  1  0
 27 29  1  0
 27 30  1  0
 30 31  1  0
 30 32  1  0
 30 33  1  0
 33 34  1  0
 33 35  1  0
 35 36  1  0
 35 37  1  0
 35 38  1  0
 38 39  1  0
 38 40  1  0
  2 41  1  0
 41 42  2  0
 42 43  1  0
 42 44  1  0
 44 45  1  0
 44 46  2  0
 46 47  1  0
 47 48  1  0
 47 49  2  0
 49 50  1  0
 19  5  1  0
 38 26  1  0
 49 41  1  0
 16  7  1  0
M  END
>  <UniqueID>  (71) 
612

>  <SMILES>  (71) 
O=c1c2ccccc2nc(/C=C/c2ccncc2)n1CCN1CCNCC1

>  <Energy>  (71) 
75.07452201407493

>  <Genealogy>  (71) 
O=c1c2ccccc2nc(/C=C/c2ccncc2)n1CCN1CCNCC1 (cis-trans isomerization)
O=c1c2ccccc2nc(/C=C/c2ccncc2)n1CCN1CCNCC1 (3D coordinates assigned)
O=c1c2ccccc2nc(/C=C/c2ccncc2)n1CCN1CCNCC1 (nonaromatic ring conformer: 75.07452201407493 kcal/mol)

>  <smiles>  (71) 
O=c1c2ccccc2nc(/C=C/c2ccncc2)n1CCN1CCNCC1

>  <score_type>  (71) 
oracle

>  <origin>  (71) 
autodockgpu

>  <m_score__min__energy>  (71) 
-7.1699999999999999

>  <m_primary>  (71) 
energy

>  <meeko>  (71) 
{"free_energy": -6.79, "intermolecular_energy": -8.58, "internal_energy": -1.7, "cluster_size": 18, "cluster_id": 1, "rank_in_cluster": 14}

>  <energy>  (71) 
-7.09

>  <cluster_rmsd>  (71) 
1.53

>  <rmsd>  (71) 
271.32

>  <cluster>  (71) 
1

$$$$
MZUVVVBFQHRAFD-AATRIKPKNA-N
     RDKit          3D

 50 53  0  0  0  0  0  0  0  0999 V2000
  141.3282   71.8330  221.0696 H   0  0  0  0  0  0  0  0  0  0  0  0
  140.4150   72.1590  221.5890 C   0  0  0  0  0  0  0  0  0  0  0  0
  139.5880   71.2160  222.0690 C   0  0  0  0  0  0  0  0  0  0  0  0
  138.7635   70.8589  221.4344 H   0  0  0  0  0  0  0  0  0  0  0  0
  139.7500   70.6370  223.4330 C   0  0  0  0  0  0  0  0  0  0  0  0
  140.2280   71.4480  224.4170 N   0  0  0  0  0  0  0  0  0  0  0  0
  140.3870   71.0250  225.6900 C   0  0  0  0  0  0  0  0  0  0  0  0
  140.8800   71.9020  226.6630 C   0  0  0  0  0  0  0  0  0  0  0  0
  141.1442   72.9341  226.3891 H   0  0  0  0  0  0  0  0  0  0  0  0
  141.0370   71.4680  227.9820 C   0  0  0  0  0  0  0  0  0  0  0  0
  141.4248   72.1582  228.7457 H   0  0  0  0  0  0  0  0  0  0  0  0
  140.7010   70.1560  228.3310 C   0  0  0  0  0  0  0  0  0  0  0  0
  140.8250   69.8157  229.3697 H   0  0  0  0  0  0  0  0  0  0  0  0
  140.2080   69.2760  227.3630 C   0  0  0  0  0  0  0  0  0  0  0  0
  139.9437   68.2452  227.6418 H   0  0  0  0  0  0  0  0  0  0  0  0
  140.0490   69.7070  226.0310 C   0  0  0  0  0  0  0  0  0  0  0  0
  139.5580   68.8640  225.0210 C   0  0  0  0  0  0  0  0  0  0  0  0
  139.2400   67.6760  225.3110 O   0  0  0  0  0  0  0  0  0  0  0  0
  139.4190   69.3260  223.7300 N   0  0  0  0  0  0  0  0  0  0  0  0
  138.8920   68.4100  222.6930 C   0  0  0  0  0  0  0  0  0  0  0  0
  139.1363   68.8167  221.7006 H   0  0  0  0  0  0  0  0  0  0  0  0
  139.3553   67.4232  222.8395 H   0  0  0  0  0  0  0  0  0  0  0  0
  137.3700   68.2450  222.8020 C   0  0  0  0  0  0  0  0  0  0  0  0
  137.0019   67.6865  221.9287 H   0  0  0  0  0  0  0  0  0  0  0  0
  137.1344   67.6968  223.7261 H   0  0  0  0  0  0  0  0  0  0  0  0
  136.7110   69.5730  222.8470 N   0  0  0  0  0  0  0  0  0  0  0  0
  135.3940   69.5880  222.1620 C   0  0  0  0  0  0  0  0  0  0  0  0
  135.2363   70.5862  221.7275 H   0  0  0  0  0  0  0  0  0  0  0  0
  135.4151   68.8031  221.3916 H   0  0  0  0  0  0  0  0  0  0  0  0
  134.2180   69.2730  223.1090 C   0  0  0  0  0  0  0  0  0  0  0  0
  133.7691   70.2158  223.4548 H   0  0  0  0  0  0  0  0  0  0  0  0
  133.4723   68.6756  222.5640 H   0  0  0  0  0  0  0  0  0  0  0  0
  134.6840   68.5070  224.2680 N   0  0  0  0  0  0  0  0  0  0  0  0
  133.8520   68.2700  224.8580 H   0  0  0  0  0  0  0  0  0  0  0  0
  135.6110   69.3060  225.0840 C   0  0  0  0  0  0  0  0  0  0  0  0
  135.0275   70.0087  225.6970 H   0  0  0  0  0  0  0  0  0  0  0  0
  136.1912   68.6130  225.7110 H   0  0  0  0  0  0  0  0  0  0  0  0
  136.6080   70.1100  224.2190 C   0  0  0  0  0  0  0  0  0  0  0  0
  136.2695   71.1553  224.1664 H   0  0  0  0  0  0  0  0  0  0  0  0
  137.6004   70.0353  224.6877 H   0  0  0  0  0  0  0  0  0  0  0  0
  140.1660   73.6160  221.7200 C   0  0  0  0  0  0  0  0  0  0  0  0
  138.8860   74.1480  221.9690 C   0  0  0  0  0  0  0  0  0  0  0  0
  138.0211   73.4783  222.0848 H   0  0  0  0  0  0  0  0  0  0  0  0
  138.7220   75.5320  222.0680 C   0  0  0  0  0  0  0  0  0  0  0  0
  137.7258   75.9527  222.2698 H   0  0  0  0  0  0  0  0  0  0  0  0
  139.7880   76.3600  221.9160 N   0  0  0  0  0  0  0  0  0  0  0  0
  141.0320   75.8780  221.6620 C   0  0  0  0  0  0  0  0  0  0  0  0
  141.8760   76.5731  221.5418 H   0  0  0  0  0  0  0  0  0  0  0  0
  141.2420   74.5010  221.5530 C   0  0  0  0  0  0  0  0  0  0  0  0
  142.2479   74.1118  221.3369 H   0  0  0  0  0  0  0  0  0  0  0  0
  1  2  1  0
  2  3  2  0
  3  4  1  0
  3  5  1  0
  5  6  2  0
  6  7  1  0
  7  8  2  0
  8  9  1  0
  8 10  1  0
 10 11  1  0
 10 12  2  0
 12 13  1  0
 12 14  1  0
 14 15  1  0
 14 16  2  0
 16 17  1  0
 17 18  2  0
 17 19  1  0
 19 20  1  0
 20 21  1  0
 20 22  1  0
 20 23  1  0
 23 24  1  0
 23 25  1  0
 23 26  1  0
 26 27  1  0
 27 28  1  0
 27 29  1  0
 27 30  1  0
 30 31  1  0
 30 32  1  0
 30 33  1  0
 33 34  1  0
 33 35  1  0
 35 36  1  0
 35 37  1  0
 35 38  1  0
 38 39  1  0
 38 40  1  0
  2 41  1  0
 41 42  2  0
 42 43  1  0
 42 44  1  0
 44 45  1  0
 44 46  2  0
 46 47  1  0
 47 48  1  0
 47 49  2  0
 49 50  1  0
 19  5  1  0
 38 26  1  0
 49 41  1  0
 16  7  1  0
M  END
>  <UniqueID>  (72) 
612

>  <SMILES>  (72) 
O=c1c2ccccc2nc(/C=C/c2ccncc2)n1CCN1CCNCC1

>  <Energy>  (72) 
75.07452201407493

>  <Genealogy>  (72) 
O=c1c2ccccc2nc(/C=C/c2ccncc2)n1CCN1CCNCC1 (cis-trans isomerization)
O=c1c2ccccc2nc(/C=C/c2ccncc2)n1CCN1CCNCC1 (3D coordinates assigned)
O=c1c2ccccc2nc(/C=C/c2ccncc2)n1CCN1CCNCC1 (nonaromatic ring conformer: 75.07452201407493 kcal/mol)

>  <smiles>  (72) 
O=c1c2ccccc2nc(/C=C/c2ccncc2)n1CCN1CCNCC1

>  <score_type>  (72) 
oracle

>  <origin>  (72) 
autodockgpu

>  <m_score__min__energy>  (72) 
-7.1699999999999999

>  <m_primary>  (72) 
energy

>  <meeko>  (72) 
{"free_energy": -7.1, "intermolecular_energy": -8.89, "internal_energy": -1.47, "cluster_size": 18, "cluster_id": 1, "rank_in_cluster": 10}

>  <energy>  (72) 
-6.95

>  <cluster_rmsd>  (72) 
1.54

>  <rmsd>  (72) 
271.33

>  <cluster>  (72) 
1

$$$$
MZUVVVBFQHRAFD-AATRIKPKNA-N
     RDKit          3D

 50 53  0  0  0  0  0  0  0  0999 V2000
  139.3382   73.3363  221.9506 H   0  0  0  0  0  0  0  0  0  0  0  0
  140.0860   72.5430  221.8040 C   0  0  0  0  0  0  0  0  0  0  0  0
  139.7300   71.2780  222.0760 C   0  0  0  0  0  0  0  0  0  0  0  0
  139.3312   70.6517  221.2644 H   0  0  0  0  0  0  0  0  0  0  0  0
  139.8570   70.6930  223.4420 C   0  0  0  0  0  0  0  0  0  0  0  0
  140.3470   71.4890  224.4320 N   0  0  0  0  0  0  0  0  0  0  0  0
  140.4780   71.0610  225.7070 C   0  0  0  0  0  0  0  0  0  0  0  0
  140.9850   71.9220  226.6870 C   0  0  0  0  0  0  0  0  0  0  0  0
  141.2837   72.9459  226.4178 H   0  0  0  0  0  0  0  0  0  0  0  0
  141.1120   71.4820  228.0070 C   0  0  0  0  0  0  0  0  0  0  0  0
  141.5099   72.1601  228.7763 H   0  0  0  0  0  0  0  0  0  0  0  0
  140.7340   70.1810  228.3510 C   0  0  0  0  0  0  0  0  0  0  0  0
  140.8362   69.8366  229.3907 H   0  0  0  0  0  0  0  0  0  0  0  0
  140.2260   69.3160  227.3760 C   0  0  0  0  0  0  0  0  0  0  0  0
  139.9277   68.2934  227.6505 H   0  0  0  0  0  0  0  0  0  0  0  0
  140.0960   69.7530  226.0430 C   0  0  0  0  0  0  0  0  0  0  0  0
  139.5930   68.9260  225.0250 C   0  0  0  0  0  0  0  0  0  0  0  0
  139.2360   67.7480  225.3110 O   0  0  0  0  0  0  0  0  0  0  0  0
  139.4840   69.3930  223.7330 N   0  0  0  0  0  0  0  0  0  0  0  0
  138.9430   68.4930  222.6900 C   0  0  0  0  0  0  0  0  0  0  0  0
  139.2478   68.8685  221.7020 H   0  0  0  0  0  0  0  0  0  0  0  0
  139.3414   67.4833  222.8681 H   0  0  0  0  0  0  0  0  0  0  0  0
  137.4110   68.4190  222.7430 C   0  0  0  0  0  0  0  0  0  0  0  0
  137.0276   68.1250  221.7548 H   0  0  0  0  0  0  0  0  0  0  0  0
  137.1148   67.6765  223.4986 H   0  0  0  0  0  0  0  0  0  0  0  0
  136.8440   69.7380  223.1150 N   0  0  0  0  0  0  0  0  0  0  0  0
  135.5840   70.0500  222.3970 C   0  0  0  0  0  0  0  0  0  0  0  0
  135.5281   71.1379  222.2439 H   0  0  0  0  0  0  0  0  0  0  0  0
  135.6042   69.5014  221.4438 H   0  0  0  0  0  0  0  0  0  0  0  0
  134.3240   69.5960  223.1640 C   0  0  0  0  0  0  0  0  0  0  0  0
  133.9188   70.4472  223.7308 H   0  0  0  0  0  0  0  0  0  0  0  0
  133.5787   69.2329  222.4410 H   0  0  0  0  0  0  0  0  0  0  0  0
  134.6520   68.5110  224.0920 N   0  0  0  0  0  0  0  0  0  0  0  0
  133.7670   68.1970  224.5540 H   0  0  0  0  0  0  0  0  0  0  0  0
  135.5740   68.9800  225.1380 C   0  0  0  0  0  0  0  0  0  0  0  0
  134.9998   69.5408  225.8902 H   0  0  0  0  0  0  0  0  0  0  0  0
  136.0594   68.0971  225.5794 H   0  0  0  0  0  0  0  0  0  0  0  0
  136.6830   69.8970  224.5740 C   0  0  0  0  0  0  0  0  0  0  0  0
  136.4225   70.9436  224.7905 H   0  0  0  0  0  0  0  0  0  0  0  0
  137.6324   69.6157  225.0530 H   0  0  0  0  0  0  0  0  0  0  0  0
  141.4340   72.9310  221.3160 C   0  0  0  0  0  0  0  0  0  0  0  0
  141.7540   74.2490  220.9380 C   0  0  0  0  0  0  0  0  0  0  0  0
  140.9965   75.0437  221.0060 H   0  0  0  0  0  0  0  0  0  0  0  0
  143.0400   74.5410  220.4760 C   0  0  0  0  0  0  0  0  0  0  0  0
  143.2978   75.5705  220.1866 H   0  0  0  0  0  0  0  0  0  0  0  0
  143.9730   73.5580  220.3830 N   0  0  0  0  0  0  0  0  0  0  0  0
  143.6910   72.2750  220.7280 C   0  0  0  0  0  0  0  0  0  0  0  0
  144.4670   71.5002  220.6413 H   0  0  0  0  0  0  0  0  0  0  0  0
  142.4170   71.9370  221.1930 C   0  0  0  0  0  0  0  0  0  0  0  0
  142.1857   70.8957  221.4616 H   0  0  0  0  0  0  0  0  0  0  0  0
  1  2  1  0
  2  3  2  0
  3  4  1  0
  3  5  1  0
  5  6  2  0
  6  7  1  0
  7  8  2  0
  8  9  1  0
  8 10  1  0
 10 11  1  0
 10 12  2  0
 12 13  1  0
 12 14  1  0
 14 15  1  0
 14 16  2  0
 16 17  1  0
 17 18  2  0
 17 19  1  0
 19 20  1  0
 20 21  1  0
 20 22  1  0
 20 23  1  0
 23 24  1  0
 23 25  1  0
 23 26  1  0
 26 27  1  0
 27 28  1  0
 27 29  1  0
 27 30  1  0
 30 31  1  0
 30 32  1  0
 30 33  1  0
 33 34  1  0
 33 35  1  0
 35 36  1  0
 35 37  1  0
 35 38  1  0
 38 39  1  0
 38 40  1  0
  2 41  1  0
 41 42  2  0
 42 43  1  0
 42 44  1  0
 44 45  1  0
 44 46  2  0
 46 47  1  0
 47 48  1  0
 47 49  2  0
 49 50  1  0
 19  5  1  0
 38 26  1  0
 49 41  1  0
 16  7  1  0
M  END
>  <UniqueID>  (73) 
612

>  <SMILES>  (73) 
O=c1c2ccccc2nc(/C=C/c2ccncc2)n1CCN1CCNCC1

>  <Energy>  (73) 
75.07452201407493

>  <Genealogy>  (73) 
O=c1c2ccccc2nc(/C=C/c2ccncc2)n1CCN1CCNCC1 (cis-trans isomerization)
O=c1c2ccccc2nc(/C=C/c2ccncc2)n1CCN1CCNCC1 (3D coordinates assigned)
O=c1c2ccccc2nc(/C=C/c2ccncc2)n1CCN1CCNCC1 (nonaromatic ring conformer: 75.07452201407493 kcal/mol)

>  <smiles>  (73) 
O=c1c2ccccc2nc(/C=C/c2ccncc2)n1CCN1CCNCC1

>  <score_type>  (73) 
oracle

>  <origin>  (73) 
autodockgpu

>  <m_score__min__energy>  (73) 
-7.1699999999999999

>  <m_primary>  (73) 
energy

>  <meeko>  (73) 
{"free_energy": -6.95, "intermolecular_energy": -8.74, "internal_energy": -1.41, "cluster_size": 18, "cluster_id": 1, "rank_in_cluster": 12}

>  <energy>  (73) 
-6.88

>  <cluster_rmsd>  (73) 
1.32

>  <rmsd>  (73) 
271.34

>  <cluster>  (73) 
1

$$$$
MZUVVVBFQHRAFD-AATRIKPKNA-N
     RDKit          3D

 50 53  0  0  0  0  0  0  0  0999 V2000
  141.5494   72.1618  221.2908 H   0  0  0  0  0  0  0  0  0  0  0  0
  140.5430   72.3810  221.6770 C   0  0  0  0  0  0  0  0  0  0  0  0
  139.7690   71.3500  222.0530 C   0  0  0  0  0  0  0  0  0  0  0  0
  139.0408   70.9427  221.3362 H   0  0  0  0  0  0  0  0  0  0  0  0
  139.8640   70.7390  223.4100 C   0  0  0  0  0  0  0  0  0  0  0  0
  140.3570   71.5060  224.4210 N   0  0  0  0  0  0  0  0  0  0  0  0
  140.4590   71.0520  225.6890 C   0  0  0  0  0  0  0  0  0  0  0  0
  140.9710   71.8850  226.6910 C   0  0  0  0  0  0  0  0  0  0  0  0
  141.2962   72.9064  226.4441 H   0  0  0  0  0  0  0  0  0  0  0  0
  141.0690   71.4190  228.0050 C   0  0  0  0  0  0  0  0  0  0  0  0
  141.4707   72.0743  228.7919 H   0  0  0  0  0  0  0  0  0  0  0  0
  140.6570   70.1210  228.3200 C   0  0  0  0  0  0  0  0  0  0  0  0
  140.7357   69.7563  229.3548 H   0  0  0  0  0  0  0  0  0  0  0  0
  140.1450   69.2850  227.3230 C   0  0  0  0  0  0  0  0  0  0  0  0
  139.8207   68.2645  227.5748 H   0  0  0  0  0  0  0  0  0  0  0  0
  140.0440   69.7480  225.9970 C   0  0  0  0  0  0  0  0  0  0  0  0
  139.5380   68.9500  224.9570 C   0  0  0  0  0  0  0  0  0  0  0  0
  139.1510   67.7760  225.2170 O   0  0  0  0  0  0  0  0  0  0  0  0
  139.4580   69.4420  223.6730 N   0  0  0  0  0  0  0  0  0  0  0  0
  138.9120   68.5730  222.6050 C   0  0  0  0  0  0  0  0  0  0  0  0
  139.0688   69.0621  221.6323 H   0  0  0  0  0  0  0  0  0  0  0  0
  139.4347   67.6061  222.6485 H   0  0  0  0  0  0  0  0  0  0  0  0
  137.4110   68.3150  222.7960 C   0  0  0  0  0  0  0  0  0  0  0  0
  137.0454   67.6767  221.9782 H   0  0  0  0  0  0  0  0  0  0  0  0
  137.2537   67.8148  223.7630 H   0  0  0  0  0  0  0  0  0  0  0  0
  136.6640   69.5970  222.7880 N   0  0  0  0  0  0  0  0  0  0  0  0
  135.3480   69.4950  222.1120 C   0  0  0  0  0  0  0  0  0  0  0  0
  135.1223   70.4612  221.6371 H   0  0  0  0  0  0  0  0  0  0  0  0
  135.4192   68.6814  221.3752 H   0  0  0  0  0  0  0  0  0  0  0  0
  134.1980   69.1420  223.0790 C   0  0  0  0  0  0  0  0  0  0  0  0
  133.6881   70.0664  223.3880 H   0  0  0  0  0  0  0  0  0  0  0  0
  133.4921   68.4740  222.5638 H   0  0  0  0  0  0  0  0  0  0  0  0
  134.7180   68.4580  224.2660 N   0  0  0  0  0  0  0  0  0  0  0  0
  133.9070   68.1900  224.8700 H   0  0  0  0  0  0  0  0  0  0  0  0
  135.5920   69.3500  225.0410 C   0  0  0  0  0  0  0  0  0  0  0  0
  134.9649   70.0368  225.6284 H   0  0  0  0  0  0  0  0  0  0  0  0
  136.2202   68.7235  225.6913 H   0  0  0  0  0  0  0  0  0  0  0  0
  136.5300   70.1830  224.1380 C   0  0  0  0  0  0  0  0  0  0  0  0
  136.1218   71.2002  224.0446 H   0  0  0  0  0  0  0  0  0  0  0  0
  137.5267   70.1951  224.6033 H   0  0  0  0  0  0  0  0  0  0  0  0
  140.1150   73.8000  221.7540 C   0  0  0  0  0  0  0  0  0  0  0  0
  138.7730   74.1790  221.9470 C   0  0  0  0  0  0  0  0  0  0  0  0
  137.9917   73.4126  222.0577 H   0  0  0  0  0  0  0  0  0  0  0  0
  138.4400   75.5350  221.9970 C   0  0  0  0  0  0  0  0  0  0  0  0
  137.3943   75.8364  222.1569 H   0  0  0  0  0  0  0  0  0  0  0  0
  139.4020   76.4830  221.8490 N   0  0  0  0  0  0  0  0  0  0  0  0
  140.7030   76.1490  221.6480 C   0  0  0  0  0  0  0  0  0  0  0  0
  141.4602   76.9382  221.5306 H   0  0  0  0  0  0  0  0  0  0  0  0
  141.0820   74.8050  221.5900 C   0  0  0  0  0  0  0  0  0  0  0  0
  142.1342   74.5353  221.4165 H   0  0  0  0  0  0  0  0  0  0  0  0
  1  2  1  0
  2  3  2  0
  3  4  1  0
  3  5  1  0
  5  6  2  0
  6  7  1  0
  7  8  2  0
  8  9  1  0
  8 10  1  0
 10 11  1  0
 10 12  2  0
 12 13  1  0
 12 14  1  0
 14 15  1  0
 14 16  2  0
 16 17  1  0
 17 18  2  0
 17 19  1  0
 19 20  1  0
 20 21  1  0
 20 22  1  0
 20 23  1  0
 23 24  1  0
 23 25  1  0
 23 26  1  0
 26 27  1  0
 27 28  1  0
 27 29  1  0
 27 30  1  0
 30 31  1  0
 30 32  1  0
 30 33  1  0
 33 34  1  0
 33 35  1  0
 35 36  1  0
 35 37  1  0
 35 38  1  0
 38 39  1  0
 38 40  1  0
  2 41  1  0
 41 42  2  0
 42 43  1  0
 42 44  1  0
 44 45  1  0
 44 46  2  0
 46 47  1  0
 47 48  1  0
 47 49  2  0
 49 50  1  0
 19  5  1  0
 38 26  1  0
 49 41  1  0
 16  7  1  0
M  END
>  <UniqueID>  (74) 
612

>  <SMILES>  (74) 
O=c1c2ccccc2nc(/C=C/c2ccncc2)n1CCN1CCNCC1

>  <Energy>  (74) 
75.07452201407493

>  <Genealogy>  (74) 
O=c1c2ccccc2nc(/C=C/c2ccncc2)n1CCN1CCNCC1 (cis-trans isomerization)
O=c1c2ccccc2nc(/C=C/c2ccncc2)n1CCN1CCNCC1 (3D coordinates assigned)
O=c1c2ccccc2nc(/C=C/c2ccncc2)n1CCN1CCNCC1 (nonaromatic ring conformer: 75.07452201407493 kcal/mol)

>  <smiles>  (74) 
O=c1c2ccccc2nc(/C=C/c2ccncc2)n1CCN1CCNCC1

>  <score_type>  (74) 
oracle

>  <origin>  (74) 
autodockgpu

>  <m_score__min__energy>  (74) 
-7.1699999999999999

>  <m_primary>  (74) 
energy

>  <meeko>  (74) 
{"free_energy": -7.15, "intermolecular_energy": -8.94, "internal_energy": -1.47, "cluster_size": 18, "cluster_id": 1, "rank_in_cluster": 3}

>  <energy>  (74) 
-6.79

>  <cluster_rmsd>  (74) 
1.37

>  <rmsd>  (74) 
271.35

>  <cluster>  (74) 
1

$$$$
MZUVVVBFQHRAFD-AATRIKPKNA-N
     RDKit          3D

 50 53  0  0  0  0  0  0  0  0999 V2000
  138.6420   71.8794  220.7619 H   0  0  0  0  0  0  0  0  0  0  0  0
  139.4670   72.2160  221.4070 C   0  0  0  0  0  0  0  0  0  0  0  0
  140.2840   71.2870  221.9280 C   0  0  0  0  0  0  0  0  0  0  0  0
  141.0910   70.8778  221.3025 H   0  0  0  0  0  0  0  0  0  0  0  0
  140.1340   70.7910  223.3270 C   0  0  0  0  0  0  0  0  0  0  0  0
  140.6390   71.5570  224.3320 N   0  0  0  0  0  0  0  0  0  0  0  0
  140.5320   71.2070  225.6320 C   0  0  0  0  0  0  0  0  0  0  0  0
  141.0690   72.0330  226.6270 C   0  0  0  0  0  0  0  0  0  0  0  0
  141.5850   72.9638  226.3490 H   0  0  0  0  0  0  0  0  0  0  0  0
  140.9500   71.6760  227.9730 C   0  0  0  0  0  0  0  0  0  0  0  0
  141.3703   72.3269  228.7538 H   0  0  0  0  0  0  0  0  0  0  0  0
  140.2970   70.4920  228.3270 C   0  0  0  0  0  0  0  0  0  0  0  0
  140.2052   70.2122  229.3869 H   0  0  0  0  0  0  0  0  0  0  0  0
  139.7600   69.6620  227.3380 C   0  0  0  0  0  0  0  0  0  0  0  0
  139.2463   68.7314  227.6212 H   0  0  0  0  0  0  0  0  0  0  0  0
  139.8760   70.0160  225.9800 C   0  0  0  0  0  0  0  0  0  0  0  0
  139.3550   69.2190  224.9470 C   0  0  0  0  0  0  0  0  0  0  0  0
  138.7530   68.1480  225.2410 O   0  0  0  0  0  0  0  0  0  0  0  0
  139.4920   69.6020  223.6300 N   0  0  0  0  0  0  0  0  0  0  0  0
  138.9240   68.7400  222.5700 C   0  0  0  0  0  0  0  0  0  0  0  0
  139.7468   68.3227  221.9710 H   0  0  0  0  0  0  0  0  0  0  0  0
  138.3429   67.9406  223.0530 H   0  0  0  0  0  0  0  0  0  0  0  0
  137.9830   69.5230  221.6450 C   0  0  0  0  0  0  0  0  0  0  0  0
  138.3036   70.5746  221.6071 H   0  0  0  0  0  0  0  0  0  0  0  0
  138.0211   69.0810  220.6385 H   0  0  0  0  0  0  0  0  0  0  0  0
  136.5900   69.4540  222.1500 N   0  0  0  0  0  0  0  0  0  0  0  0
  136.5150   69.3300  223.6260 C   0  0  0  0  0  0  0  0  0  0  0  0
  135.6249   68.7370  223.8829 H   0  0  0  0  0  0  0  0  0  0  0  0
  137.4434   68.8453  223.9624 H   0  0  0  0  0  0  0  0  0  0  0  0
  136.4210   70.6930  224.3430 C   0  0  0  0  0  0  0  0  0  0  0  0
  135.3658   70.9168  224.5585 H   0  0  0  0  0  0  0  0  0  0  0  0
  136.9966   70.6434  225.2791 H   0  0  0  0  0  0  0  0  0  0  0  0
  136.9770   71.7550  223.5000 N   0  0  0  0  0  0  0  0  0  0  0  0
  136.9420   72.6510  224.0390 H   0  0  0  0  0  0  0  0  0  0  0  0
  136.1770   71.9240  222.2780 C   0  0  0  0  0  0  0  0  0  0  0  0
  135.2725   72.4997  222.5240 H   0  0  0  0  0  0  0  0  0  0  0  0
  136.7987   72.4499  221.5385 H   0  0  0  0  0  0  0  0  0  0  0  0
  135.7530   70.5700  221.6630 C   0  0  0  0  0  0  0  0  0  0  0  0
  134.7049   70.3710  221.9310 H   0  0  0  0  0  0  0  0  0  0  0  0
  135.8790   70.6381  220.5724 H   0  0  0  0  0  0  0  0  0  0  0  0
  139.6150   73.6720  221.6530 C   0  0  0  0  0  0  0  0  0  0  0  0
  138.5230   74.5040  221.9680 C   0  0  0  0  0  0  0  0  0  0  0  0
  137.5108   74.0814  222.0505 H   0  0  0  0  0  0  0  0  0  0  0  0
  138.7340   75.8700  222.1750 C   0  0  0  0  0  0  0  0  0  0  0  0
  137.8862   76.5231  222.4295 H   0  0  0  0  0  0  0  0  0  0  0  0
  139.9820   76.3940  222.0630 N   0  0  0  0  0  0  0  0  0  0  0  0
  141.0530   75.6210  221.7470 C   0  0  0  0  0  0  0  0  0  0  0  0
  142.0515   76.0744  221.6609 H   0  0  0  0  0  0  0  0  0  0  0  0
  140.8880   74.2500  221.5310 C   0  0  0  0  0  0  0  0  0  0  0  0
  141.7539   73.6255  221.2660 H   0  0  0  0  0  0  0  0  0  0  0  0
  1  2  1  0
  2  3  2  0
  3  4  1  0
  3  5  1  0
  5  6  2  0
  6  7  1  0
  7  8  2  0
  8  9  1  0
  8 10  1  0
 10 11  1  0
 10 12  2  0
 12 13  1  0
 12 14  1  0
 14 15  1  0
 14 16  2  0
 16 17  1  0
 17 18  2  0
 17 19  1  0
 19 20  1  0
 20 21  1  0
 20 22  1  0
 20 23  1  0
 23 24  1  0
 23 25  1  0
 23 26  1  0
 26 27  1  0
 27 28  1  0
 27 29  1  0
 27 30  1  0
 30 31  1  0
 30 32  1  0
 30 33  1  0
 33 34  1  0
 33 35  1  0
 35 36  1  0
 35 37  1  0
 35 38  1  0
 38 39  1  0
 38 40  1  0
  2 41  1  0
 41 42  2  0
 42 43  1  0
 42 44  1  0
 44 45  1  0
 44 46  2  0
 46 47  1  0
 47 48  1  0
 47 49  2  0
 49 50  1  0
 19  5  1  0
 38 26  1  0
 49 41  1  0
 16  7  1  0
M  END
>  <UniqueID>  (75) 
612

>  <SMILES>  (75) 
O=c1c2ccccc2nc(/C=C/c2ccncc2)n1CCN1CCNCC1

>  <Energy>  (75) 
75.07452201407493

>  <Genealogy>  (75) 
O=c1c2ccccc2nc(/C=C/c2ccncc2)n1CCN1CCNCC1 (cis-trans isomerization)
O=c1c2ccccc2nc(/C=C/c2ccncc2)n1CCN1CCNCC1 (3D coordinates assigned)
O=c1c2ccccc2nc(/C=C/c2ccncc2)n1CCN1CCNCC1 (nonaromatic ring conformer: 75.07452201407493 kcal/mol)

>  <smiles>  (75) 
O=c1c2ccccc2nc(/C=C/c2ccncc2)n1CCN1CCNCC1

>  <score_type>  (75) 
oracle

>  <origin>  (75) 
autodockgpu

>  <m_score__min__energy>  (75) 
-7.1699999999999999

>  <m_primary>  (75) 
energy

>  <meeko>  (75) 
{"free_energy": -6.69, "intermolecular_energy": -8.48, "internal_energy": -1.68, "cluster_size": 18, "cluster_id": 1, "rank_in_cluster": 16}

>  <energy>  (75) 
-6.78

>  <cluster_rmsd>  (75) 
1.36

>  <rmsd>  (75) 
271.35

>  <cluster>  (75) 
1

$$$$
MZUVVVBFQHRAFD-AATRIKPKNA-N
     RDKit          3D

 50 53  0  0  0  0  0  0  0  0999 V2000
  141.5930   72.0254  221.2384 H   0  0  0  0  0  0  0  0  0  0  0  0
  140.5970   72.2780  221.6310 C   0  0  0  0  0  0  0  0  0  0  0  0
  139.8000   71.2750  222.0300 C   0  0  0  0  0  0  0  0  0  0  0  0
  139.0667   70.8643  221.3203 H   0  0  0  0  0  0  0  0  0  0  0  0
  139.8750   70.6980  223.4040 C   0  0  0  0  0  0  0  0  0  0  0  0
  140.3560   71.4900  224.4010 N   0  0  0  0  0  0  0  0  0  0  0  0
  140.4400   71.0690  225.6820 C   0  0  0  0  0  0  0  0  0  0  0  0
  140.9400   71.9260  226.6700 C   0  0  0  0  0  0  0  0  0  0  0  0
  141.2708   72.9402  226.4017 H   0  0  0  0  0  0  0  0  0  0  0  0
  141.0190   71.4940  227.9960 C   0  0  0  0  0  0  0  0  0  0  0  0
  141.4104   72.1688  228.7715 H   0  0  0  0  0  0  0  0  0  0  0  0
  140.6010   70.2050  228.3380 C   0  0  0  0  0  0  0  0  0  0  0  0
  140.6656   69.8664  229.3826 H   0  0  0  0  0  0  0  0  0  0  0  0
  140.1010   69.3450  227.3560 C   0  0  0  0  0  0  0  0  0  0  0  0
  139.7710   68.3320  227.6297 H   0  0  0  0  0  0  0  0  0  0  0  0
  140.0190   69.7730  226.0170 C   0  0  0  0  0  0  0  0  0  0  0  0
  139.5250   68.9500  224.9920 C   0  0  0  0  0  0  0  0  0  0  0  0
  139.1330   67.7830  225.2750 O   0  0  0  0  0  0  0  0  0  0  0  0
  139.4630   69.4090  223.6940 N   0  0  0  0  0  0  0  0  0  0  0  0
  138.9310   68.5140  222.6420 C   0  0  0  0  0  0  0  0  0  0  0  0
  139.1068   68.9754  221.6590 H   0  0  0  0  0  0  0  0  0  0  0  0
  139.4480   67.5463  222.7213 H   0  0  0  0  0  0  0  0  0  0  0  0
  137.4260   68.2680  222.8140 C   0  0  0  0  0  0  0  0  0  0  0  0
  137.0685   67.6211  221.9993 H   0  0  0  0  0  0  0  0  0  0  0  0
  137.2514   67.7819  223.7852 H   0  0  0  0  0  0  0  0  0  0  0  0
  136.6870   69.5540  222.7780 N   0  0  0  0  0  0  0  0  0  0  0  0
  135.3840   69.4540  222.0760 C   0  0  0  0  0  0  0  0  0  0  0  0
  135.1745   70.4170  221.5874 H   0  0  0  0  0  0  0  0  0  0  0  0
  135.4648   68.6329  221.3485 H   0  0  0  0  0  0  0  0  0  0  0  0
  134.2130   69.1180  223.0220 C   0  0  0  0  0  0  0  0  0  0  0  0
  133.7025   70.0486  223.3109 H   0  0  0  0  0  0  0  0  0  0  0  0
  133.5140   68.4487  222.4991 H   0  0  0  0  0  0  0  0  0  0  0  0
  134.7040   68.4430  224.2270 N   0  0  0  0  0  0  0  0  0  0  0  0
  133.8780   68.1870  224.8170 H   0  0  0  0  0  0  0  0  0  0  0  0
  135.5680   69.3380  225.0110 C   0  0  0  0  0  0  0  0  0  0  0  0
  134.9335   70.0345  225.5787 H   0  0  0  0  0  0  0  0  0  0  0  0
  136.1790   68.7148  225.6805 H   0  0  0  0  0  0  0  0  0  0  0  0
  136.5290   70.1560  224.1180 C   0  0  0  0  0  0  0  0  0  0  0  0
  136.1284   71.1742  224.0049 H   0  0  0  0  0  0  0  0  0  0  0  0
  137.5160   70.1683  224.6034 H   0  0  0  0  0  0  0  0  0  0  0  0
  140.2090   73.7100  221.6900 C   0  0  0  0  0  0  0  0  0  0  0  0
  141.1430   74.7560  221.5610 C   0  0  0  0  0  0  0  0  0  0  0  0
  142.2077   74.5307  221.4006 H   0  0  0  0  0  0  0  0  0  0  0  0
  140.7090   76.0810  221.6380 C   0  0  0  0  0  0  0  0  0  0  0  0
  141.4329   76.9019  221.5282 H   0  0  0  0  0  0  0  0  0  0  0  0
  139.3960   76.3600  221.8480 N   0  0  0  0  0  0  0  0  0  0  0  0
  138.4730   75.3740  221.9910 C   0  0  0  0  0  0  0  0  0  0  0  0
  137.4171   75.6306  222.1621 H   0  0  0  0  0  0  0  0  0  0  0  0
  138.8630   74.0340  221.9210 C   0  0  0  0  0  0  0  0  0  0  0  0
  138.1172   73.2353  222.0466 H   0  0  0  0  0  0  0  0  0  0  0  0
  1  2  1  0
  2  3  2  0
  3  4  1  0
  3  5  1  0
  5  6  2  0
  6  7  1  0
  7  8  2  0
  8  9  1  0
  8 10  1  0
 10 11  1  0
 10 12  2  0
 12 13  1  0
 12 14  1  0
 14 15  1  0
 14 16  2  0
 16 17  1  0
 17 18  2  0
 17 19  1  0
 19 20  1  0
 20 21  1  0
 20 22  1  0
 20 23  1  0
 23 24  1  0
 23 25  1  0
 23 26  1  0
 26 27  1  0
 27 28  1  0
 27 29  1  0
 27 30  1  0
 30 31  1  0
 30 32  1  0
 30 33  1  0
 33 34  1  0
 33 35  1  0
 35 36  1  0
 35 37  1  0
 35 38  1  0
 38 39  1  0
 38 40  1  0
  2 41  1  0
 41 42  2  0
 42 43  1  0
 42 44  1  0
 44 45  1  0
 44 46  2  0
 46 47  1  0
 47 48  1  0
 47 49  2  0
 49 50  1  0
 19  5  1  0
 38 26  1  0
 49 41  1  0
 16  7  1  0
M  END
>  <UniqueID>  (76) 
612

>  <SMILES>  (76) 
O=c1c2ccccc2nc(/C=C/c2ccncc2)n1CCN1CCNCC1

>  <Energy>  (76) 
75.07452201407493

>  <Genealogy>  (76) 
O=c1c2ccccc2nc(/C=C/c2ccncc2)n1CCN1CCNCC1 (cis-trans isomerization)
O=c1c2ccccc2nc(/C=C/c2ccncc2)n1CCN1CCNCC1 (3D coordinates assigned)
O=c1c2ccccc2nc(/C=C/c2ccncc2)n1CCN1CCNCC1 (nonaromatic ring conformer: 75.07452201407493 kcal/mol)

>  <smiles>  (76) 
O=c1c2ccccc2nc(/C=C/c2ccncc2)n1CCN1CCNCC1

>  <score_type>  (76) 
oracle

>  <origin>  (76) 
autodockgpu

>  <m_score__min__energy>  (76) 
-7.1699999999999999

>  <m_primary>  (76) 
energy

>  <meeko>  (76) 
{"free_energy": -7.11, "intermolecular_energy": -8.9, "internal_energy": -1.49, "cluster_size": 18, "cluster_id": 1, "rank_in_cluster": 9}

>  <energy>  (76) 
-6.69

>  <cluster_rmsd>  (76) 
1.39

>  <rmsd>  (76) 
271.31

>  <cluster>  (76) 
1

$$$$
MZUVVVBFQHRAFD-AATRIKPKNA-N
     RDKit          3D

 50 53  0  0  0  0  0  0  0  0999 V2000
  144.2146   76.7994  219.6516 H   0  0  0  0  0  0  0  0  0  0  0  0
  143.6640   75.8490  219.7110 C   0  0  0  0  0  0  0  0  0  0  0  0
  142.3230   75.8950  219.7560 C   0  0  0  0  0  0  0  0  0  0  0  0
  141.7458   75.2926  219.0391 H   0  0  0  0  0  0  0  0  0  0  0  0
  141.5900   76.7360  220.7460 C   0  0  0  0  0  0  0  0  0  0  0  0
  142.1850   77.8830  221.1720 N   0  0  0  0  0  0  0  0  0  0  0  0
  141.5920   78.7240  222.0470 C   0  0  0  0  0  0  0  0  0  0  0  0
  142.2490   79.8930  222.4500 C   0  0  0  0  0  0  0  0  0  0  0  0
  143.2512   80.1226  222.0591 H   0  0  0  0  0  0  0  0  0  0  0  0
  141.6330   80.7680  223.3480 C   0  0  0  0  0  0  0  0  0  0  0  0
  142.1495   81.6868  223.6626 H   0  0  0  0  0  0  0  0  0  0  0  0
  140.3600   80.4760  223.8470 C   0  0  0  0  0  0  0  0  0  0  0  0
  139.8771   81.1653  224.5553 H   0  0  0  0  0  0  0  0  0  0  0  0
  139.6990   79.3100  223.4480 C   0  0  0  0  0  0  0  0  0  0  0  0
  138.6967   79.0850  223.8413 H   0  0  0  0  0  0  0  0  0  0  0  0
  140.3150   78.4230  222.5430 C   0  0  0  0  0  0  0  0  0  0  0  0
  139.6960   77.2390  222.1100 C   0  0  0  0  0  0  0  0  0  0  0  0
  138.5420   76.9560  222.5390 O   0  0  0  0  0  0  0  0  0  0  0  0
  140.3350   76.3990  221.2240 N   0  0  0  0  0  0  0  0  0  0  0  0
  139.6480   75.1630  220.7870 C   0  0  0  0  0  0  0  0  0  0  0  0
  138.7031   75.4356  220.2941 H   0  0  0  0  0  0  0  0  0  0  0  0
  140.3138   74.6273  220.0944 H   0  0  0  0  0  0  0  0  0  0  0  0
  139.3420   74.2350  221.9700 C   0  0  0  0  0  0  0  0  0  0  0  0
  139.0183   74.8389  222.8306 H   0  0  0  0  0  0  0  0  0  0  0  0
  138.5444   73.5356  221.6790 H   0  0  0  0  0  0  0  0  0  0  0  0
  140.5510   73.4600  222.3430 N   0  0  0  0  0  0  0  0  0  0  0  0
  140.2390   72.2420  223.1300 C   0  0  0  0  0  0  0  0  0  0  0  0
  141.0694   72.0524  223.8261 H   0  0  0  0  0  0  0  0  0  0  0  0
  139.2926   72.4264  223.6595 H   0  0  0  0  0  0  0  0  0  0  0  0
  140.0390   70.9900  222.2510 C   0  0  0  0  0  0  0  0  0  0  0  0
  140.9796   70.4210  222.2118 H   0  0  0  0  0  0  0  0  0  0  0  0
  139.2404   70.3723  222.6877 H   0  0  0  0  0  0  0  0  0  0  0  0
  139.6510   71.3750  220.8910 N   0  0  0  0  0  0  0  0  0  0  0  0
  139.4760   70.5020  220.3420 H   0  0  0  0  0  0  0  0  0  0  0  0
  140.7330   72.1210  220.2310 C   0  0  0  0  0  0  0  0  0  0  0  0
  141.4949   71.4072  219.8846 H   0  0  0  0  0  0  0  0  0  0  0  0
  140.2939   72.6785  219.3905 H   0  0  0  0  0  0  0  0  0  0  0  0
  141.4030   73.1430  221.1790 C   0  0  0  0  0  0  0  0  0  0  0  0
  142.3539   72.7231  221.5389 H   0  0  0  0  0  0  0  0  0  0  0  0
  141.5666   74.0730  220.6147 H   0  0  0  0  0  0  0  0  0  0  0  0
  144.4450   74.5870  219.7370 C   0  0  0  0  0  0  0  0  0  0  0  0
  145.2390   74.2080  220.8370 C   0  0  0  0  0  0  0  0  0  0  0  0
  145.2926   74.8497  221.7288 H   0  0  0  0  0  0  0  0  0  0  0  0
  145.9580   73.0110  220.7870 C   0  0  0  0  0  0  0  0  0  0  0  0
  146.5730   72.7054  221.6463 H   0  0  0  0  0  0  0  0  0  0  0  0
  145.9010   72.2230  219.6820 N   0  0  0  0  0  0  0  0  0  0  0  0
  145.1560   72.5680  218.6000 C   0  0  0  0  0  0  0  0  0  0  0  0
  145.1310   71.9107  217.7184 H   0  0  0  0  0  0  0  0  0  0  0  0
  144.4210   73.7570  218.6050 C   0  0  0  0  0  0  0  0  0  0  0  0
  143.8257   74.0414  217.7248 H   0  0  0  0  0  0  0  0  0  0  0  0
  1  2  1  0
  2  3  2  0
  3  4  1  0
  3  5  1  0
  5  6  2  0
  6  7  1  0
  7  8  2  0
  8  9  1  0
  8 10  1  0
 10 11  1  0
 10 12  2  0
 12 13  1  0
 12 14  1  0
 14 15  1  0
 14 16  2  0
 16 17  1  0
 17 18  2  0
 17 19  1  0
 19 20  1  0
 20 21  1  0
 20 22  1  0
 20 23  1  0
 23 24  1  0
 23 25  1  0
 23 26  1  0
 26 27  1  0
 27 28  1  0
 27 29  1  0
 27 30  1  0
 30 31  1  0
 30 32  1  0
 30 33  1  0
 33 34  1  0
 33 35  1  0
 35 36  1  0
 35 37  1  0
 35 38  1  0
 38 39  1  0
 38 40  1  0
  2 41  1  0
 41 42  2  0
 42 43  1  0
 42 44  1  0
 44 45  1  0
 44 46  2  0
 46 47  1  0
 47 48  1  0
 47 49  2  0
 49 50  1  0
 19  5  1  0
 38 26  1  0
 49 41  1  0
 16  7  1  0
M  END
>  <UniqueID>  (77) 
612

>  <SMILES>  (77) 
O=c1c2ccccc2nc(/C=C/c2ccncc2)n1CCN1CCNCC1

>  <Energy>  (77) 
75.07452201407493

>  <Genealogy>  (77) 
O=c1c2ccccc2nc(/C=C/c2ccncc2)n1CCN1CCNCC1 (cis-trans isomerization)
O=c1c2ccccc2nc(/C=C/c2ccncc2)n1CCN1CCNCC1 (3D coordinates assigned)
O=c1c2ccccc2nc(/C=C/c2ccncc2)n1CCN1CCNCC1 (nonaromatic ring conformer: 75.07452201407493 kcal/mol)

>  <smiles>  (77) 
O=c1c2ccccc2nc(/C=C/c2ccncc2)n1CCN1CCNCC1

>  <score_type>  (77) 
oracle

>  <origin>  (77) 
autodockgpu

>  <m_score__min__energy>  (77) 
-7.1699999999999999

>  <m_primary>  (77) 
energy

>  <meeko>  (77) 
{"free_energy": -6.8, "intermolecular_energy": -8.59, "internal_energy": -1.38, "cluster_size": 1, "cluster_id": 2, "rank_in_cluster": 1}

>  <energy>  (77) 
-6.65

>  <cluster_rmsd>  (77) 
0.8

>  <rmsd>  (77) 
271.04

>  <cluster>  (77) 
1

$$$$
MZUVVVBFQHRAFD-AATRIKPKNA-N
     RDKit          3D

 50 53  0  0  0  0  0  0  0  0999 V2000
  139.5466   73.6560  222.2339 H   0  0  0  0  0  0  0  0  0  0  0  0
  140.1480   72.7760  221.9620 C   0  0  0  0  0  0  0  0  0  0  0  0
  139.6300   71.5590  222.1900 C   0  0  0  0  0  0  0  0  0  0  0  0
  139.0794   71.0557  221.3816 H   0  0  0  0  0  0  0  0  0  0  0  0
  139.7760   70.8660  223.5030 C   0  0  0  0  0  0  0  0  0  0  0  0
  140.2730   71.5820  224.5480 N   0  0  0  0  0  0  0  0  0  0  0  0
  140.4200   71.0530  225.7830 C   0  0  0  0  0  0  0  0  0  0  0  0
  140.9340   71.8350  226.8240 C   0  0  0  0  0  0  0  0  0  0  0  0
  141.2239   72.8792  226.6356 H   0  0  0  0  0  0  0  0  0  0  0  0
  141.0790   71.2900  228.1020 C   0  0  0  0  0  0  0  0  0  0  0  0
  141.4834   71.9056  228.9190 H   0  0  0  0  0  0  0  0  0  0  0  0
  140.7110   69.9640  228.3440 C   0  0  0  0  0  0  0  0  0  0  0  0
  140.8263   69.5372  229.3512 H   0  0  0  0  0  0  0  0  0  0  0  0
  140.1960   69.1780  227.3070 C   0  0  0  0  0  0  0  0  0  0  0  0
  139.9054   68.1350  227.5013 H   0  0  0  0  0  0  0  0  0  0  0  0
  140.0490   69.7190  226.0160 C   0  0  0  0  0  0  0  0  0  0  0  0
  139.5390   68.9750  224.9400 C   0  0  0  0  0  0  0  0  0  0  0  0
  139.1910   67.7760  225.1330 O   0  0  0  0  0  0  0  0  0  0  0  0
  139.4120   69.5440  223.6920 N   0  0  0  0  0  0  0  0  0  0  0  0
  138.8640   68.7290  222.5840 C   0  0  0  0  0  0  0  0  0  0  0  0
  138.9380   69.3030  221.6486 H   0  0  0  0  0  0  0  0  0  0  0  0
  139.4466   67.7981  222.5217 H   0  0  0  0  0  0  0  0  0  0  0  0
  137.3940   68.3590  222.8260 C   0  0  0  0  0  0  0  0  0  0  0  0
  137.0837   67.6039  222.0888 H   0  0  0  0  0  0  0  0  0  0  0  0
  137.2892   67.9566  223.8444 H   0  0  0  0  0  0  0  0  0  0  0  0
  136.5320   69.5590  222.6900 N   0  0  0  0  0  0  0  0  0  0  0  0
  135.2000   69.2520  222.1130 C   0  0  0  0  0  0  0  0  0  0  0  0
  134.8639   70.1194  221.5259 H   0  0  0  0  0  0  0  0  0  0  0  0
  135.3108   68.3524  221.4898 H   0  0  0  0  0  0  0  0  0  0  0  0
  134.1350   68.9420  223.1860 C   0  0  0  0  0  0  0  0  0  0  0  0
  133.5574   69.8541  223.3969 H   0  0  0  0  0  0  0  0  0  0  0  0
  133.4702   68.1508  222.8092 H   0  0  0  0  0  0  0  0  0  0  0  0
  134.7710   68.4780  224.4210 N   0  0  0  0  0  0  0  0  0  0  0  0
  134.0180   68.2310  225.1030 H   0  0  0  0  0  0  0  0  0  0  0  0
  135.5960   69.5420  225.0150 C   0  0  0  0  0  0  0  0  0  0  0  0
  134.9371   70.2490  225.5404 H   0  0  0  0  0  0  0  0  0  0  0  0
  136.3094   69.0688  225.7058 H   0  0  0  0  0  0  0  0  0  0  0  0
  136.4090   70.3160  223.9520 C   0  0  0  0  0  0  0  0  0  0  0  0
  135.9044   71.2713  223.7453 H   0  0  0  0  0  0  0  0  0  0  0  0
  137.4213   70.4786  224.3506 H   0  0  0  0  0  0  0  0  0  0  0  0
  141.4880   73.0000  221.3630 C   0  0  0  0  0  0  0  0  0  0  0  0
  142.4300   71.9660  221.2020 C   0  0  0  0  0  0  0  0  0  0  0  0
  142.1853   70.9405  221.5157 H   0  0  0  0  0  0  0  0  0  0  0  0
  143.6780   72.2510  220.6410 C   0  0  0  0  0  0  0  0  0  0  0  0
  144.4148   71.4456  220.5050 H   0  0  0  0  0  0  0  0  0  0  0  0
  143.9840   73.5200  220.2630 N   0  0  0  0  0  0  0  0  0  0  0  0
  143.1020   74.5400  220.4180 C   0  0  0  0  0  0  0  0  0  0  0  0
  143.3790   75.5573  220.1043 H   0  0  0  0  0  0  0  0  0  0  0  0
  141.8430   74.3010  220.9750 C   0  0  0  0  0  0  0  0  0  0  0  0
  141.1325   75.1300  221.1089 H   0  0  0  0  0  0  0  0  0  0  0  0
  1  2  1  0
  2  3  2  0
  3  4  1  0
  3  5  1  0
  5  6  2  0
  6  7  1  0
  7  8  2  0
  8  9  1  0
  8 10  1  0
 10 11  1  0
 10 12  2  0
 12 13  1  0
 12 14  1  0
 14 15  1  0
 14 16  2  0
 16 17  1  0
 17 18  2  0
 17 19  1  0
 19 20  1  0
 20 21  1  0
 20 22  1  0
 20 23  1  0
 23 24  1  0
 23 25  1  0
 23 26  1  0
 26 27  1  0
 27 28  1  0
 27 29  1  0
 27 30  1  0
 30 31  1  0
 30 32  1  0
 30 33  1  0
 33 34  1  0
 33 35  1  0
 35 36  1  0
 35 37  1  0
 35 38  1  0
 38 39  1  0
 38 40  1  0
  2 41  1  0
 41 42  2  0
 42 43  1  0
 42 44  1  0
 44 45  1  0
 44 46  2  0
 46 47  1  0
 47 48  1  0
 47 49  2  0
 49 50  1  0
 19  5  1  0
 38 26  1  0
 49 41  1  0
 16  7  1  0
M  END
>  <UniqueID>  (78) 
612

>  <SMILES>  (78) 
O=c1c2ccccc2nc(/C=C/c2ccncc2)n1CCN1CCNCC1

>  <Energy>  (78) 
75.07452201407493

>  <Genealogy>  (78) 
O=c1c2ccccc2nc(/C=C/c2ccncc2)n1CCN1CCNCC1 (cis-trans isomerization)
O=c1c2ccccc2nc(/C=C/c2ccncc2)n1CCN1CCNCC1 (3D coordinates assigned)
O=c1c2ccccc2nc(/C=C/c2ccncc2)n1CCN1CCNCC1 (nonaromatic ring conformer: 75.07452201407493 kcal/mol)

>  <smiles>  (78) 
O=c1c2ccccc2nc(/C=C/c2ccncc2)n1CCN1CCNCC1

>  <score_type>  (78) 
oracle

>  <origin>  (78) 
autodockgpu

>  <m_score__min__energy>  (78) 
-7.1699999999999999

>  <m_primary>  (78) 
energy

>  <meeko>  (78) 
{"free_energy": -7.15, "intermolecular_energy": -8.94, "internal_energy": -1.41, "cluster_size": 18, "cluster_id": 1, "rank_in_cluster": 4}

>  <energy>  (78) 
-5.97

>  <cluster_rmsd>  (78) 
1.6

>  <rmsd>  (78) 
270.62

>  <cluster>  (78) 
1

$$$$
MZUVVVBFQHRAFD-AATRIKPKNA-N
     RDKit          3D

 50 53  0  0  0  0  0  0  0  0999 V2000
  139.5044   73.5772  222.1020 H   0  0  0  0  0  0  0  0  0  0  0  0
  140.1520   72.7170  221.8770 C   0  0  0  0  0  0  0  0  0  0  0  0
  139.6790   71.4860  222.1260 C   0  0  0  0  0  0  0  0  0  0  0  0
  139.1589   70.9437  221.3226 H   0  0  0  0  0  0  0  0  0  0  0  0
  139.8350   70.8290  223.4550 C   0  0  0  0  0  0  0  0  0  0  0  0
  140.3370   71.5730  224.4780 N   0  0  0  0  0  0  0  0  0  0  0  0
  140.4930   71.0770  225.7250 C   0  0  0  0  0  0  0  0  0  0  0  0
  141.0120   71.8870  226.7420 C   0  0  0  0  0  0  0  0  0  0  0  0
  141.2997   72.9261  226.5239 H   0  0  0  0  0  0  0  0  0  0  0  0
  141.1650   71.3770  228.0340 C   0  0  0  0  0  0  0  0  0  0  0  0
  141.5712   72.0152  228.8325 H   0  0  0  0  0  0  0  0  0  0  0  0
  140.8020   70.0560  228.3120 C   0  0  0  0  0  0  0  0  0  0  0  0
  140.9251   69.6559  229.3292 H   0  0  0  0  0  0  0  0  0  0  0  0
  140.2830   69.2420  227.3010 C   0  0  0  0  0  0  0  0  0  0  0  0
  139.9967   68.2038  227.5248 H   0  0  0  0  0  0  0  0  0  0  0  0
  140.1260   69.7490  225.9960 C   0  0  0  0  0  0  0  0  0  0  0  0
  139.6110   68.9750  224.9440 C   0  0  0  0  0  0  0  0  0  0  0  0
  139.2670   67.7810  225.1700 O   0  0  0  0  0  0  0  0  0  0  0  0
  139.4750   69.5110  223.6810 N   0  0  0  0  0  0  0  0  0  0  0  0
  138.9220   68.6660  222.5990 C   0  0  0  0  0  0  0  0  0  0  0  0
  139.0697   69.1773  221.6363 H   0  0  0  0  0  0  0  0  0  0  0  0
  139.4468   67.6994  222.6160 H   0  0  0  0  0  0  0  0  0  0  0  0
  137.4230   68.4010  222.7970 C   0  0  0  0  0  0  0  0  0  0  0  0
  137.0401   67.8252  221.9415 H   0  0  0  0  0  0  0  0  0  0  0  0
  137.2798   67.8327  223.7279 H   0  0  0  0  0  0  0  0  0  0  0  0
  136.6830   69.6820  222.8950 N   0  0  0  0  0  0  0  0  0  0  0  0
  135.3710   69.6470  222.2020 C   0  0  0  0  0  0  0  0  0  0  0  0
  135.1542   70.6522  221.8114 H   0  0  0  0  0  0  0  0  0  0  0  0
  135.4441   68.9003  221.3976 H   0  0  0  0  0  0  0  0  0  0  0  0
  134.2120   69.2180  223.1250 C   0  0  0  0  0  0  0  0  0  0  0  0
  133.7040   70.1150  223.5090 H   0  0  0  0  0  0  0  0  0  0  0  0
  133.5075   68.6009  222.5480 H   0  0  0  0  0  0  0  0  0  0  0  0
  134.7180   68.4310  224.2520 N   0  0  0  0  0  0  0  0  0  0  0  0
  133.9000   68.1170  224.8240 H   0  0  0  0  0  0  0  0  0  0  0  0
  135.5900   69.2490  225.1090 C   0  0  0  0  0  0  0  0  0  0  0  0
  134.9610   69.8865  225.7478 H   0  0  0  0  0  0  0  0  0  0  0  0
  136.2092   68.5658  225.7089 H   0  0  0  0  0  0  0  0  0  0  0  0
  136.5400   70.1510  224.2880 C   0  0  0  0  0  0  0  0  0  0  0  0
  136.1374   71.1746  224.2784 H   0  0  0  0  0  0  0  0  0  0  0  0
  137.5326   70.1178  224.7609 H   0  0  0  0  0  0  0  0  0  0  0  0
  141.5000   72.9830  221.3150 C   0  0  0  0  0  0  0  0  0  0  0  0
  142.4730   71.9750  221.1670 C   0  0  0  0  0  0  0  0  0  0  0  0
  142.2477   70.9400  221.4636 H   0  0  0  0  0  0  0  0  0  0  0  0
  143.7260   72.2990  220.6410 C   0  0  0  0  0  0  0  0  0  0  0  0
  144.4867   71.5145  220.5153 H   0  0  0  0  0  0  0  0  0  0  0  0
  144.0090   73.5790  220.2840 N   0  0  0  0  0  0  0  0  0  0  0  0
  143.0970   74.5750  220.4270 C   0  0  0  0  0  0  0  0  0  0  0  0
  143.3551   75.6024  220.1307 H   0  0  0  0  0  0  0  0  0  0  0  0
  141.8310   74.2970  220.9500 C   0  0  0  0  0  0  0  0  0  0  0  0
  141.0961   75.1059  221.0751 H   0  0  0  0  0  0  0  0  0  0  0  0
  1  2  1  0
  2  3  2  0
  3  4  1  0
  3  5  1  0
  5  6  2  0
  6  7  1  0
  7  8  2  0
  8  9  1  0
  8 10  1  0
 10 11  1  0
 10 12  2  0
 12 13  1  0
 12 14  1  0
 14 15  1  0
 14 16  2  0
 16 17  1  0
 17 18  2  0
 17 19  1  0
 19 20  1  0
 20 21  1  0
 20 22  1  0
 20 23  1  0
 23 24  1  0
 23 25  1  0
 23 26  1  0
 26 27  1  0
 27 28  1  0
 27 29  1  0
 27 30  1  0
 30 31  1  0
 30 32  1  0
 30 33  1  0
 33 34  1  0
 33 35  1  0
 35 36  1  0
 35 37  1  0
 35 38  1  0
 38 39  1  0
 38 40  1  0
  2 41  1  0
 41 42  2  0
 42 43  1  0
 42 44  1  0
 44 45  1  0
 44 46  2  0
 46 47  1  0
 47 48  1  0
 47 49  2  0
 49 50  1  0
 19  5  1  0
 38 26  1  0
 49 41  1  0
 16  7  1  0
M  END
>  <UniqueID>  (79) 
612

>  <SMILES>  (79) 
O=c1c2ccccc2nc(/C=C/c2ccncc2)n1CCN1CCNCC1

>  <Energy>  (79) 
75.07452201407493

>  <Genealogy>  (79) 
O=c1c2ccccc2nc(/C=C/c2ccncc2)n1CCN1CCNCC1 (cis-trans isomerization)
O=c1c2ccccc2nc(/C=C/c2ccncc2)n1CCN1CCNCC1 (3D coordinates assigned)
O=c1c2ccccc2nc(/C=C/c2ccncc2)n1CCN1CCNCC1 (nonaromatic ring conformer: 75.07452201407493 kcal/mol)

>  <smiles>  (79) 
O=c1c2ccccc2nc(/C=C/c2ccncc2)n1CCN1CCNCC1

>  <score_type>  (79) 
oracle

>  <origin>  (79) 
autodockgpu

>  <m_score__min__energy>  (79) 
-7.1699999999999999

>  <m_primary>  (79) 
energy

>  <meeko>  (79) 
{"free_energy": -7.09, "intermolecular_energy": -8.88, "internal_energy": -1.43, "cluster_size": 18, "cluster_id": 1, "rank_in_cluster": 11}

>  <energy>  (79) 
-6.8

>  <cluster_rmsd>  (79) 
0.0

>  <rmsd>  (79) 
271.68

>  <cluster>  (79) 
2

$$$$
MZUVVVBFQHRAFD-AATRIKPKNA-N
     RDKit          3D

 50 53  0  0  0  0  0  0  0  0999 V2000
  141.8444   72.1426  221.2799 H   0  0  0  0  0  0  0  0  0  0  0  0
  140.8170   72.3250  221.6280 C   0  0  0  0  0  0  0  0  0  0  0  0
  140.0610   71.2650  221.9550 C   0  0  0  0  0  0  0  0  0  0  0  0
  139.4598   70.7791  221.1724 H   0  0  0  0  0  0  0  0  0  0  0  0
  140.0090   70.7240  223.3440 C   0  0  0  0  0  0  0  0  0  0  0  0
  140.5400   71.4820  224.3420 N   0  0  0  0  0  0  0  0  0  0  0  0
  140.5200   71.0910  225.6350 C   0  0  0  0  0  0  0  0  0  0  0  0
  141.0790   71.9110  226.6230 C   0  0  0  0  0  0  0  0  0  0  0  0
  141.5403   72.8702  226.3452 H   0  0  0  0  0  0  0  0  0  0  0  0
  141.0510   71.5110  227.9620 C   0  0  0  0  0  0  0  0  0  0  0  0
  141.4896   72.1560  228.7376 H   0  0  0  0  0  0  0  0  0  0  0  0
  140.4660   70.2920  228.3160 C   0  0  0  0  0  0  0  0  0  0  0  0
  140.4463   69.9787  229.3702 H   0  0  0  0  0  0  0  0  0  0  0  0
  139.9060   69.4700  227.3340 C   0  0  0  0  0  0  0  0  0  0  0  0
  139.4441   68.5128  227.6174 H   0  0  0  0  0  0  0  0  0  0  0  0
  139.9320   69.8650  225.9820 C   0  0  0  0  0  0  0  0  0  0  0  0
  139.3850   69.0770  224.9560 C   0  0  0  0  0  0  0  0  0  0  0  0
  138.8430   67.9750  225.2500 O   0  0  0  0  0  0  0  0  0  0  0  0
  139.4320   69.5030  223.6460 N   0  0  0  0  0  0  0  0  0  0  0  0
  138.8390   68.6470  222.5930 C   0  0  0  0  0  0  0  0  0  0  0  0
  139.6479   68.2282  221.9763 H   0  0  0  0  0  0  0  0  0  0  0  0
  138.2639   67.8479  223.0837 H   0  0  0  0  0  0  0  0  0  0  0  0
  137.8840   69.4390  221.6900 C   0  0  0  0  0  0  0  0  0  0  0  0
  138.2253   70.4829  221.6277 H   0  0  0  0  0  0  0  0  0  0  0  0
  137.8785   68.9844  220.6884 H   0  0  0  0  0  0  0  0  0  0  0  0
  136.5080   69.4060  222.2430 N   0  0  0  0  0  0  0  0  0  0  0  0
  136.4800   69.3210  223.7230 C   0  0  0  0  0  0  0  0  0  0  0  0
  135.5897   68.7494  224.0242 H   0  0  0  0  0  0  0  0  0  0  0  0
  137.4114   68.8299  224.0413 H   0  0  0  0  0  0  0  0  0  0  0  0
  136.4310   70.7030  224.4070 C   0  0  0  0  0  0  0  0  0  0  0  0
  135.3871   70.9494  224.6511 H   0  0  0  0  0  0  0  0  0  0  0  0
  137.0366   70.6678  225.3246 H   0  0  0  0  0  0  0  0  0  0  0  0
  136.9750   71.7340  223.5190 N   0  0  0  0  0  0  0  0  0  0  0  0
  136.9720   72.6440  224.0350 H   0  0  0  0  0  0  0  0  0  0  0  0
  136.1370   71.8840  222.3190 C   0  0  0  0  0  0  0  0  0  0  0  0
  135.2497   72.4799  222.5793 H   0  0  0  0  0  0  0  0  0  0  0  0
  136.7417   72.3808  221.5460 H   0  0  0  0  0  0  0  0  0  0  0  0
  135.6730   70.5220  221.7540 C   0  0  0  0  0  0  0  0  0  0  0  0
  134.6312   70.3468  222.0606 H   0  0  0  0  0  0  0  0  0  0  0  0
  135.7647   70.5599  220.6585 H   0  0  0  0  0  0  0  0  0  0  0  0
  140.3440   73.7290  221.7100 C   0  0  0  0  0  0  0  0  0  0  0  0
  141.2100   74.8320  221.5750 C   0  0  0  0  0  0  0  0  0  0  0  0
  142.2831   74.6742  221.3920 H   0  0  0  0  0  0  0  0  0  0  0  0
  140.6970   76.1270  221.6750 C   0  0  0  0  0  0  0  0  0  0  0  0
  141.3674   76.9916  221.5613 H   0  0  0  0  0  0  0  0  0  0  0  0
  139.3740   76.3240  221.9120 N   0  0  0  0  0  0  0  0  0  0  0  0
  138.5160   75.2810  222.0610 C   0  0  0  0  0  0  0  0  0  0  0  0
  137.4499   75.4707  222.2545 H   0  0  0  0  0  0  0  0  0  0  0  0
  138.9850   73.9680  221.9690 C   0  0  0  0  0  0  0  0  0  0  0  0
  138.2915   73.1241  222.0991 H   0  0  0  0  0  0  0  0  0  0  0  0
  1  2  1  0
  2  3  2  0
  3  4  1  0
  3  5  1  0
  5  6  2  0
  6  7  1  0
  7  8  2  0
  8  9  1  0
  8 10  1  0
 10 11  1  0
 10 12  2  0
 12 13  1  0
 12 14  1  0
 14 15  1  0
 14 16  2  0
 16 17  1  0
 17 18  2  0
 17 19  1  0
 19 20  1  0
 20 21  1  0
 20 22  1  0
 20 23  1  0
 23 24  1  0
 23 25  1  0
 23 26  1  0
 26 27  1  0
 27 28  1  0
 27 29  1  0
 27 30  1  0
 30 31  1  0
 30 32  1  0
 30 33  1  0
 33 34  1  0
 33 35  1  0
 35 36  1  0
 35 37  1  0
 35 38  1  0
 38 39  1  0
 38 40  1  0
  2 41  1  0
 41 42  2  0
 42 43  1  0
 42 44  1  0
 44 45  1  0
 44 46  2  0
 46 47  1  0
 47 48  1  0
 47 49  2  0
 49 50  1  0
 19  5  1  0
 38 26  1  0
 49 41  1  0
 16  7  1  0
M  END
>  <UniqueID>  (80) 
612

>  <SMILES>  (80) 
O=c1c2ccccc2nc(/C=C/c2ccncc2)n1CCN1CCNCC1

>  <Energy>  (80) 
75.07452201407493

>  <Genealogy>  (80) 
O=c1c2ccccc2nc(/C=C/c2ccncc2)n1CCN1CCNCC1 (cis-trans isomerization)
O=c1c2ccccc2nc(/C=C/c2ccncc2)n1CCN1CCNCC1 (3D coordinates assigned)
O=c1c2ccccc2nc(/C=C/c2ccncc2)n1CCN1CCNCC1 (nonaromatic ring conformer: 75.07452201407493 kcal/mol)

>  <smiles>  (80) 
O=c1c2ccccc2nc(/C=C/c2ccncc2)n1CCN1CCNCC1

>  <score_type>  (80) 
oracle

>  <origin>  (80) 
autodockgpu

>  <m_score__min__energy>  (80) 
-7.1699999999999999

>  <m_primary>  (80) 
energy

>  <meeko>  (80) 
{"free_energy": -6.88, "intermolecular_energy": -8.67, "internal_energy": -1.63, "cluster_size": 18, "cluster_id": 1, "rank_in_cluster": 13}

>  <energy>  (80) 
-6.28

>  <cluster_rmsd>  (80) 
0.0

>  <rmsd>  (80) 
272.31

>  <cluster>  (80) 
3

$$$$
