IZQCJYDBOLXUJA-FOCLMDBBNA-N
     RDKit          3D

 44 47  0  0  0  0  0  0  0  0999 V2000
  139.0054   76.6570  223.6236 H   0  0  0  0  0  0  0  0  0  0  0  0
  138.9190   77.2560  222.7050 C   0  0  0  0  0  0  0  0  0  0  0  0
  139.0680   76.6350  221.5250 C   0  0  0  0  0  0  0  0  0  0  0  0
  138.1858   76.4857  220.8852 H   0  0  0  0  0  0  0  0  0  0  0  0
  140.3900   76.1430  221.0570 C   0  0  0  0  0  0  0  0  0  0  0  0
  140.7160   74.8490  221.3230 N   0  0  0  0  0  0  0  0  0  0  0  0
  141.8860   74.3040  220.9270 C   0  0  0  0  0  0  0  0  0  0  0  0
  142.1710   72.9660  221.2210 C   0  0  0  0  0  0  0  0  0  0  0  0
  141.4422   72.3592  221.7782 H   0  0  0  0  0  0  0  0  0  0  0  0
  143.3800   72.3990  220.8080 C   0  0  0  0  0  0  0  0  0  0  0  0
  143.6004   71.3459  221.0368 H   0  0  0  0  0  0  0  0  0  0  0  0
  144.3090   73.1710  220.1040 C   0  0  0  0  0  0  0  0  0  0  0  0
  145.2602   72.7239  219.7796 H   0  0  0  0  0  0  0  0  0  0  0  0
  144.0320   74.5110  219.8110 C   0  0  0  0  0  0  0  0  0  0  0  0
  144.7669   75.1161  219.2599 H   0  0  0  0  0  0  0  0  0  0  0  0
  142.8130   75.0860  220.2210 C   0  0  0  0  0  0  0  0  0  0  0  0
  142.4850   76.4260  219.9530 C   0  0  0  0  0  0  0  0  0  0  0  0
  143.3160   77.1500  219.3350 O   0  0  0  0  0  0  0  0  0  0  0  0
  141.2760   76.9470  220.3630 N   0  0  0  0  0  0  0  0  0  0  0  0
  140.9720   78.3760  220.1080 C   0  0  0  0  0  0  0  0  0  0  0  0
  141.4598   78.6863  219.1722 H   0  0  0  0  0  0  0  0  0  0  0  0
  139.8811   78.4944  220.0309 H   0  0  0  0  0  0  0  0  0  0  0  0
  141.4720   79.2440  221.2370 C   0  0  0  0  0  0  0  0  0  0  0  0
  141.3640   80.6430  221.1540 C   0  0  0  0  0  0  0  0  0  0  0  0
  140.9147   81.1053  220.2627 H   0  0  0  0  0  0  0  0  0  0  0  0
  141.8250   81.4500  222.1990 C   0  0  0  0  0  0  0  0  0  0  0  0
  141.7416   82.5444  222.1259 H   0  0  0  0  0  0  0  0  0  0  0  0
  142.3920   80.8670  223.3370 C   0  0  0  0  0  0  0  0  0  0  0  0
  142.7615   81.5032  224.1548 H   0  0  0  0  0  0  0  0  0  0  0  0
  142.4890   79.4780  223.4350 C   0  0  0  0  0  0  0  0  0  0  0  0
  142.9303   79.0202  224.3325 H   0  0  0  0  0  0  0  0  0  0  0  0
  142.0260   78.6680  222.3940 C   0  0  0  0  0  0  0  0  0  0  0  0
  142.0955   77.5736  222.4804 H   0  0  0  0  0  0  0  0  0  0  0  0
  138.6440   78.7070  222.8360 C   0  0  0  0  0  0  0  0  0  0  0  0
  139.1330   79.4740  223.9140 C   0  0  0  0  0  0  0  0  0  0  0  0
  139.7294   78.9920  224.7026 H   0  0  0  0  0  0  0  0  0  0  0  0
  138.8630   80.8450  223.9850 C   0  0  0  0  0  0  0  0  0  0  0  0
  139.2462   81.4368  224.8294 H   0  0  0  0  0  0  0  0  0  0  0  0
  138.1080   81.4640  222.9860 C   0  0  0  0  0  0  0  0  0  0  0  0
  137.8924   82.5410  223.0468 H   0  0  0  0  0  0  0  0  0  0  0  0
  137.6270   80.7150  221.9100 C   0  0  0  0  0  0  0  0  0  0  0  0
  137.0343   81.2037  221.1227 H   0  0  0  0  0  0  0  0  0  0  0  0
  137.8970   79.3450  221.8310 C   0  0  0  0  0  0  0  0  0  0  0  0
  137.5221   78.7628  220.9763 H   0  0  0  0  0  0  0  0  0  0  0  0
  1  2  1  0
  2  3  2  0
  3  4  1  0
  3  5  1  0
  5  6  2  0
  6  7  1  0
  7  8  2  0
  8  9  1  0
  8 10  1  0
 10 11  1  0
 10 12  2  0
 12 13  1  0
 12 14  1  0
 14 15  1  0
 14 16  2  0
 16 17  1  0
 17 18  2  0
 17 19  1  0
 19 20  1  0
 20 21  1  0
 20 22  1  0
 20 23  1  0
 23 24  2  0
 24 25  1  0
 24 26  1  0
 26 27  1  0
 26 28  2  0
 28 29  1  0
 28 30  1  0
 30 31  1  0
 30 32  2  0
 32 33  1  0
  2 34  1  0
 34 35  2  0
 35 36  1  0
 35 37  1  0
 37 38  1  0
 37 39  2  0
 39 40  1  0
 39 41  1  0
 41 42  1  0
 41 43  2  0
 43 44  1  0
 19  5  1  0
 32 23  1  0
 43 34  1  0
 16  7  1  0
M  END
>  <UniqueID>  (1) 
46

>  <SMILES>  (1) 
O=c1c2ccccc2nc(/C=C/c2ccccc2)n1Cc1ccccc1

>  <Energy>  (1) 
61.47215714226456

>  <Genealogy>  (1) 
O=c1c2ccccc2nc(/C=C/c2ccccc2)n1Cc1ccccc1 (cis-trans isomerization)
O=c1c2ccccc2nc(/C=C/c2ccccc2)n1Cc1ccccc1 (3D coordinates assigned)
O=c1c2ccccc2nc(/C=C/c2ccccc2)n1Cc1ccccc1 (optimized conformer: 61.47215714226456 kcal/mol)

>  <smiles>  (1) 
O=c1c2ccccc2nc(/C=C/c2ccccc2)n1Cc1ccccc1

>  <score_type>  (1) 
oracle

>  <origin>  (1) 
autodockgpu

>  <m_score__min__energy>  (1) 
-7.6200000000000001

>  <m_primary>  (1) 
energy

>  <meeko>  (1) 
{"free_energy": -6.46, "intermolecular_energy": -7.95, "internal_energy": -2.04, "cluster_size": 12, "cluster_id": 3, "rank_in_cluster": 11}

>  <energy>  (1) 
-7.62

>  <cluster_rmsd>  (1) 
0.0

>  <rmsd>  (1) 
269.62

>  <cluster>  (1) 
1

$$$$
IZQCJYDBOLXUJA-FOCLMDBBNA-N
     RDKit          3D

 44 47  0  0  0  0  0  0  0  0999 V2000
  139.3976   73.6444  222.2565 H   0  0  0  0  0  0  0  0  0  0  0  0
  140.0050   72.7660  221.9930 C   0  0  0  0  0  0  0  0  0  0  0  0
  139.4950   71.5470  222.2270 C   0  0  0  0  0  0  0  0  0  0  0  0
  138.9333   71.0408  221.4281 H   0  0  0  0  0  0  0  0  0  0  0  0
  139.6670   70.8610  223.5340 C   0  0  0  0  0  0  0  0  0  0  0  0
  140.1910   71.5800  224.5630 N   0  0  0  0  0  0  0  0  0  0  0  0
  140.3720   71.0510  225.7930 C   0  0  0  0  0  0  0  0  0  0  0  0
  140.9090   71.8350  226.8210 C   0  0  0  0  0  0  0  0  0  0  0  0
  141.1873   72.8812  226.6259 H   0  0  0  0  0  0  0  0  0  0  0  0
  141.0920   71.2900  228.0950 C   0  0  0  0  0  0  0  0  0  0  0  0
  141.5117   71.9083  228.9022 H   0  0  0  0  0  0  0  0  0  0  0  0
  140.7420   69.9600  228.3440 C   0  0  0  0  0  0  0  0  0  0  0  0
  140.8858   69.5333  229.3476 H   0  0  0  0  0  0  0  0  0  0  0  0
  140.2090   69.1700  227.3190 C   0  0  0  0  0  0  0  0  0  0  0  0
  139.9389   68.1222  227.5170 H   0  0  0  0  0  0  0  0  0  0  0  0
  140.0180   69.7150  226.0340 C   0  0  0  0  0  0  0  0  0  0  0  0
  139.4860   68.9660  224.9710 C   0  0  0  0  0  0  0  0  0  0  0  0
  139.1800   67.7550  225.1650 O   0  0  0  0  0  0  0  0  0  0  0  0
  139.3050   69.5410  223.7310 N   0  0  0  0  0  0  0  0  0  0  0  0
  138.7840   68.7170  222.6130 C   0  0  0  0  0  0  0  0  0  0  0  0
  138.9929   69.2282  221.6616 H   0  0  0  0  0  0  0  0  0  0  0  0
  139.2801   67.7356  222.6402 H   0  0  0  0  0  0  0  0  0  0  0  0
  137.2950   68.5070  222.7440 C   0  0  0  0  0  0  0  0  0  0  0  0
  136.5500   69.2800  223.6500 C   0  0  0  0  0  0  0  0  0  0  0  0
  137.0540   70.0393  224.2660 H   0  0  0  0  0  0  0  0  0  0  0  0
  135.1690   69.0880  223.7720 C   0  0  0  0  0  0  0  0  0  0  0  0
  134.5913   69.6935  224.4859 H   0  0  0  0  0  0  0  0  0  0  0  0
  134.5230   68.1280  222.9880 C   0  0  0  0  0  0  0  0  0  0  0  0
  133.4388   67.9732  223.0906 H   0  0  0  0  0  0  0  0  0  0  0  0
  135.2540   67.3650  222.0740 C   0  0  0  0  0  0  0  0  0  0  0  0
  134.7441   66.6125  221.4545 H   0  0  0  0  0  0  0  0  0  0  0  0
  136.6330   67.5570  221.9460 C   0  0  0  0  0  0  0  0  0  0  0  0
  137.2030   66.9619  221.2173 H   0  0  0  0  0  0  0  0  0  0  0  0
  141.3440   72.9910  221.3980 C   0  0  0  0  0  0  0  0  0  0  0  0
  141.8030   74.2750  221.0340 C   0  0  0  0  0  0  0  0  0  0  0  0
  141.1512   75.1497  221.1758 H   0  0  0  0  0  0  0  0  0  0  0  0
  143.0820   74.4410  220.4940 C   0  0  0  0  0  0  0  0  0  0  0  0
  143.4323   75.4446  220.2111 H   0  0  0  0  0  0  0  0  0  0  0  0
  143.9160   73.3350  220.3130 C   0  0  0  0  0  0  0  0  0  0  0  0
  144.9196   73.4672  219.8825 H   0  0  0  0  0  0  0  0  0  0  0  0
  143.4750   72.0610  220.6790 C   0  0  0  0  0  0  0  0  0  0  0  0
  144.1329   71.1908  220.5381 H   0  0  0  0  0  0  0  0  0  0  0  0
  142.1990   71.8900  221.2240 C   0  0  0  0  0  0  0  0  0  0  0  0
  141.8618   70.8854  221.5189 H   0  0  0  0  0  0  0  0  0  0  0  0
  1  2  1  0
  2  3  2  0
  3  4  1  0
  3  5  1  0
  5  6  2  0
  6  7  1  0
  7  8  2  0
  8  9  1  0
  8 10  1  0
 10 11  1  0
 10 12  2  0
 12 13  1  0
 12 14  1  0
 14 15  1  0
 14 16  2  0
 16 17  1  0
 17 18  2  0
 17 19  1  0
 19 20  1  0
 20 21  1  0
 20 22  1  0
 20 23  1  0
 23 24  2  0
 24 25  1  0
 24 26  1  0
 26 27  1  0
 26 28  2  0
 28 29  1  0
 28 30  1  0
 30 31  1  0
 30 32  2  0
 32 33  1  0
  2 34  1  0
 34 35  2  0
 35 36  1  0
 35 37  1  0
 37 38  1  0
 37 39  2  0
 39 40  1  0
 39 41  1  0
 41 42  1  0
 41 43  2  0
 43 44  1  0
 19  5  1  0
 32 23  1  0
 43 34  1  0
 16  7  1  0
M  END
>  <UniqueID>  (2) 
46

>  <SMILES>  (2) 
O=c1c2ccccc2nc(/C=C/c2ccccc2)n1Cc1ccccc1

>  <Energy>  (2) 
61.47215714226456

>  <Genealogy>  (2) 
O=c1c2ccccc2nc(/C=C/c2ccccc2)n1Cc1ccccc1 (cis-trans isomerization)
O=c1c2ccccc2nc(/C=C/c2ccccc2)n1Cc1ccccc1 (3D coordinates assigned)
O=c1c2ccccc2nc(/C=C/c2ccccc2)n1Cc1ccccc1 (optimized conformer: 61.47215714226456 kcal/mol)

>  <smiles>  (2) 
O=c1c2ccccc2nc(/C=C/c2ccccc2)n1Cc1ccccc1

>  <score_type>  (2) 
oracle

>  <origin>  (2) 
autodockgpu

>  <m_score__min__energy>  (2) 
-7.6200000000000001

>  <m_primary>  (2) 
energy

>  <meeko>  (2) 
{"free_energy": -7.35, "intermolecular_energy": -8.84, "internal_energy": -1.19, "cluster_size": 7, "cluster_id": 2, "rank_in_cluster": 4}

>  <energy>  (2) 
-7.38

>  <cluster_rmsd>  (2) 
0.0

>  <rmsd>  (2) 
269.13

>  <cluster>  (2) 
2

$$$$
IZQCJYDBOLXUJA-FOCLMDBBNA-N
     RDKit          3D

 44 47  0  0  0  0  0  0  0  0999 V2000
  141.8096   80.4906  219.0654 H   0  0  0  0  0  0  0  0  0  0  0  0
  141.4440   79.8770  219.9020 C   0  0  0  0  0  0  0  0  0  0  0  0
  140.6700   78.8170  219.6230 C   0  0  0  0  0  0  0  0  0  0  0  0
  139.7409   78.9694  219.0541 H   0  0  0  0  0  0  0  0  0  0  0  0
  141.0310   77.4430  220.0600 C   0  0  0  0  0  0  0  0  0  0  0  0
  142.2640   76.9750  219.7270 N   0  0  0  0  0  0  0  0  0  0  0  0
  142.6920   75.7460  220.0900 C   0  0  0  0  0  0  0  0  0  0  0  0
  143.9720   75.3140  219.7270 C   0  0  0  0  0  0  0  0  0  0  0  0
  144.6292   75.9741  219.1420 H   0  0  0  0  0  0  0  0  0  0  0  0
  144.4170   74.0440  220.1070 C   0  0  0  0  0  0  0  0  0  0  0  0
  145.4252   73.7070  219.8241 H   0  0  0  0  0  0  0  0  0  0  0  0
  143.5810   73.2030  220.8460 C   0  0  0  0  0  0  0  0  0  0  0  0
  143.9329   72.2045  221.1447 H   0  0  0  0  0  0  0  0  0  0  0  0
  142.2980   73.6270  221.2070 C   0  0  0  0  0  0  0  0  0  0  0  0
  141.6414   72.9597  221.7845 H   0  0  0  0  0  0  0  0  0  0  0  0
  141.8450   74.9080  220.8320 C   0  0  0  0  0  0  0  0  0  0  0  0
  140.5670   75.3840  221.1690 C   0  0  0  0  0  0  0  0  0  0  0  0
  139.7850   74.6340  221.8210 O   0  0  0  0  0  0  0  0  0  0  0  0
  140.1670   76.6480  220.7910 N   0  0  0  0  0  0  0  0  0  0  0  0
  138.7970   77.1100  221.1200 C   0  0  0  0  0  0  0  0  0  0  0  0
  138.2869   77.4117  220.1933 H   0  0  0  0  0  0  0  0  0  0  0  0
  138.2563   76.2848  221.6064 H   0  0  0  0  0  0  0  0  0  0  0  0
  138.8350   78.2840  222.0670 C   0  0  0  0  0  0  0  0  0  0  0  0
  137.9540   79.3640  221.8890 C   0  0  0  0  0  0  0  0  0  0  0  0
  137.2353   79.3530  221.0564 H   0  0  0  0  0  0  0  0  0  0  0  0
  137.9870   80.4530  222.7660 C   0  0  0  0  0  0  0  0  0  0  0  0
  137.2978   81.2976  222.6188 H   0  0  0  0  0  0  0  0  0  0  0  0
  138.8940   80.4700  223.8290 C   0  0  0  0  0  0  0  0  0  0  0  0
  138.9231   81.3309  224.5131 H   0  0  0  0  0  0  0  0  0  0  0  0
  139.7630   79.3950  224.0230 C   0  0  0  0  0  0  0  0  0  0  0  0
  140.4737   79.4075  224.8625 H   0  0  0  0  0  0  0  0  0  0  0  0
  139.7310   78.3020  223.1510 C   0  0  0  0  0  0  0  0  0  0  0  0
  140.4101   77.4521  223.3138 H   0  0  0  0  0  0  0  0  0  0  0  0
  141.8320   80.2640  221.2800 C   0  0  0  0  0  0  0  0  0  0  0  0
  142.5700   79.4080  222.1250 C   0  0  0  0  0  0  0  0  0  0  0  0
  142.8642   78.4091  221.7706 H   0  0  0  0  0  0  0  0  0  0  0  0
  142.9290   79.8240  223.4110 C   0  0  0  0  0  0  0  0  0  0  0  0
  143.5018   79.1505  224.0654 H   0  0  0  0  0  0  0  0  0  0  0  0
  142.5620   81.0930  223.8670 C   0  0  0  0  0  0  0  0  0  0  0  0
  142.8414   81.4159  224.8808 H   0  0  0  0  0  0  0  0  0  0  0  0
  141.8400   81.9510  223.0340 C   0  0  0  0  0  0  0  0  0  0  0  0
  141.5523   82.9504  223.3924 H   0  0  0  0  0  0  0  0  0  0  0  0
  141.4820   81.5420  221.7450 C   0  0  0  0  0  0  0  0  0  0  0  0
  140.9222   82.2266  221.0908 H   0  0  0  0  0  0  0  0  0  0  0  0
  1  2  1  0
  2  3  2  0
  3  4  1  0
  3  5  1  0
  5  6  2  0
  6  7  1  0
  7  8  2  0
  8  9  1  0
  8 10  1  0
 10 11  1  0
 10 12  2  0
 12 13  1  0
 12 14  1  0
 14 15  1  0
 14 16  2  0
 16 17  1  0
 17 18  2  0
 17 19  1  0
 19 20  1  0
 20 21  1  0
 20 22  1  0
 20 23  1  0
 23 24  2  0
 24 25  1  0
 24 26  1  0
 26 27  1  0
 26 28  2  0
 28 29  1  0
 28 30  1  0
 30 31  1  0
 30 32  2  0
 32 33  1  0
  2 34  1  0
 34 35  2  0
 35 36  1  0
 35 37  1  0
 37 38  1  0
 37 39  2  0
 39 40  1  0
 39 41  1  0
 41 42  1  0
 41 43  2  0
 43 44  1  0
 19  5  1  0
 32 23  1  0
 43 34  1  0
 16  7  1  0
M  END
>  <UniqueID>  (3) 
46

>  <SMILES>  (3) 
O=c1c2ccccc2nc(/C=C/c2ccccc2)n1Cc1ccccc1

>  <Energy>  (3) 
61.47215714226456

>  <Genealogy>  (3) 
O=c1c2ccccc2nc(/C=C/c2ccccc2)n1Cc1ccccc1 (cis-trans isomerization)
O=c1c2ccccc2nc(/C=C/c2ccccc2)n1Cc1ccccc1 (3D coordinates assigned)
O=c1c2ccccc2nc(/C=C/c2ccccc2)n1Cc1ccccc1 (optimized conformer: 61.47215714226456 kcal/mol)

>  <smiles>  (3) 
O=c1c2ccccc2nc(/C=C/c2ccccc2)n1Cc1ccccc1

>  <score_type>  (3) 
oracle

>  <origin>  (3) 
autodockgpu

>  <m_score__min__energy>  (3) 
-7.6200000000000001

>  <m_primary>  (3) 
energy

>  <meeko>  (3) 
{"free_energy": -6.59, "intermolecular_energy": -8.08, "internal_energy": -2.05, "cluster_size": 12, "cluster_id": 3, "rank_in_cluster": 9}

>  <energy>  (3) 
-7.38

>  <cluster_rmsd>  (3) 
0.03

>  <rmsd>  (3) 
269.13

>  <cluster>  (3) 
2

$$$$
IZQCJYDBOLXUJA-FOCLMDBBNA-N
     RDKit          3D

 44 47  0  0  0  0  0  0  0  0999 V2000
  139.4438   73.5671  222.1990 H   0  0  0  0  0  0  0  0  0  0  0  0
  140.0830   72.7090  221.9440 C   0  0  0  0  0  0  0  0  0  0  0  0
  139.6140   71.4750  222.1790 C   0  0  0  0  0  0  0  0  0  0  0  0
  139.1088   70.9321  221.3666 H   0  0  0  0  0  0  0  0  0  0  0  0
  139.7570   70.8190  223.5060 C   0  0  0  0  0  0  0  0  0  0  0  0
  140.2830   71.5540  224.5220 N   0  0  0  0  0  0  0  0  0  0  0  0
  140.4410   71.0540  225.7680 C   0  0  0  0  0  0  0  0  0  0  0  0
  140.9820   71.8540  226.7810 C   0  0  0  0  0  0  0  0  0  0  0  0
  141.2830   72.8891  226.5621 H   0  0  0  0  0  0  0  0  0  0  0  0
  141.1400   71.3390  228.0700 C   0  0  0  0  0  0  0  0  0  0  0  0
  141.5614   71.9703  228.8661 H   0  0  0  0  0  0  0  0  0  0  0  0
  140.7630   70.0220  228.3490 C   0  0  0  0  0  0  0  0  0  0  0  0
  140.8888   69.6185  229.3646 H   0  0  0  0  0  0  0  0  0  0  0  0
  140.2260   69.2160  227.3390 C   0  0  0  0  0  0  0  0  0  0  0  0
  139.9338   68.1790  227.5609 H   0  0  0  0  0  0  0  0  0  0  0  0
  140.0590   69.7310  226.0380 C   0  0  0  0  0  0  0  0  0  0  0  0
  139.5240   68.9660  224.9880 C   0  0  0  0  0  0  0  0  0  0  0  0
  139.1930   67.7660  225.2090 O   0  0  0  0  0  0  0  0  0  0  0  0
  139.3680   69.5110  223.7320 N   0  0  0  0  0  0  0  0  0  0  0  0
  138.8450   68.6690  222.6290 C   0  0  0  0  0  0  0  0  0  0  0  0
  139.0521   69.1643  221.6689 H   0  0  0  0  0  0  0  0  0  0  0  0
  139.3410   67.6881  222.6709 H   0  0  0  0  0  0  0  0  0  0  0  0
  137.3560   68.4620  222.7670 C   0  0  0  0  0  0  0  0  0  0  0  0
  136.6130   69.2470  223.6660 C   0  0  0  0  0  0  0  0  0  0  0  0
  137.1192   70.0134  224.2714 H   0  0  0  0  0  0  0  0  0  0  0  0
  135.2340   69.0580  223.7940 C   0  0  0  0  0  0  0  0  0  0  0  0
  134.6589   69.6737  224.5013 H   0  0  0  0  0  0  0  0  0  0  0  0
  134.5840   68.0880  223.0250 C   0  0  0  0  0  0  0  0  0  0  0  0
  133.5001   67.9353  223.1336 H   0  0  0  0  0  0  0  0  0  0  0  0
  135.3110   67.3130  222.1190 C   0  0  0  0  0  0  0  0  0  0  0  0
  134.7984   66.5531  221.5109 H   0  0  0  0  0  0  0  0  0  0  0  0
  136.6900   67.5020  221.9840 C   0  0  0  0  0  0  0  0  0  0  0  0
  137.2569   66.8966  221.2615 H   0  0  0  0  0  0  0  0  0  0  0  0
  141.4190   72.9770  221.3580 C   0  0  0  0  0  0  0  0  0  0  0  0
  141.8320   74.2720  220.9810 C   0  0  0  0  0  0  0  0  0  0  0  0
  141.1463   75.1231  221.1053 H   0  0  0  0  0  0  0  0  0  0  0  0
  143.1090   74.4790  220.4500 C   0  0  0  0  0  0  0  0  0  0  0  0
  143.4247   75.4916  220.1584 H   0  0  0  0  0  0  0  0  0  0  0  0
  143.9850   73.4020  220.2890 C   0  0  0  0  0  0  0  0  0  0  0  0
  144.9862   73.5659  219.8638 H   0  0  0  0  0  0  0  0  0  0  0  0
  143.5890   72.1180  220.6680 C   0  0  0  0  0  0  0  0  0  0  0  0
  144.2803   71.2714  220.5440 H   0  0  0  0  0  0  0  0  0  0  0  0
  142.3150   71.9060  221.2050 C   0  0  0  0  0  0  0  0  0  0  0  0
  142.0125   70.8933  221.5097 H   0  0  0  0  0  0  0  0  0  0  0  0
  1  2  1  0
  2  3  2  0
  3  4  1  0
  3  5  1  0
  5  6  2  0
  6  7  1  0
  7  8  2  0
  8  9  1  0
  8 10  1  0
 10 11  1  0
 10 12  2  0
 12 13  1  0
 12 14  1  0
 14 15  1  0
 14 16  2  0
 16 17  1  0
 17 18  2  0
 17 19  1  0
 19 20  1  0
 20 21  1  0
 20 22  1  0
 20 23  1  0
 23 24  2  0
 24 25  1  0
 24 26  1  0
 26 27  1  0
 26 28  2  0
 28 29  1  0
 28 30  1  0
 30 31  1  0
 30 32  2  0
 32 33  1  0
  2 34  1  0
 34 35  2  0
 35 36  1  0
 35 37  1  0
 37 38  1  0
 37 39  2  0
 39 40  1  0
 39 41  1  0
 41 42  1  0
 41 43  2  0
 43 44  1  0
 19  5  1  0
 32 23  1  0
 43 34  1  0
 16  7  1  0
M  END
>  <UniqueID>  (4) 
46

>  <SMILES>  (4) 
O=c1c2ccccc2nc(/C=C/c2ccccc2)n1Cc1ccccc1

>  <Energy>  (4) 
61.47215714226456

>  <Genealogy>  (4) 
O=c1c2ccccc2nc(/C=C/c2ccccc2)n1Cc1ccccc1 (cis-trans isomerization)
O=c1c2ccccc2nc(/C=C/c2ccccc2)n1Cc1ccccc1 (3D coordinates assigned)
O=c1c2ccccc2nc(/C=C/c2ccccc2)n1Cc1ccccc1 (optimized conformer: 61.47215714226456 kcal/mol)

>  <smiles>  (4) 
O=c1c2ccccc2nc(/C=C/c2ccccc2)n1Cc1ccccc1

>  <score_type>  (4) 
oracle

>  <origin>  (4) 
autodockgpu

>  <m_score__min__energy>  (4) 
-7.6200000000000001

>  <m_primary>  (4) 
energy

>  <meeko>  (4) 
{"free_energy": -7.38, "intermolecular_energy": -8.88, "internal_energy": -1.17, "cluster_size": 7, "cluster_id": 2, "rank_in_cluster": 1}

>  <energy>  (4) 
-7.35

>  <cluster_rmsd>  (4) 
0.09

>  <rmsd>  (4) 
269.11

>  <cluster>  (4) 
2

$$$$
IZQCJYDBOLXUJA-FOCLMDBBNA-N
     RDKit          3D

 44 47  0  0  0  0  0  0  0  0999 V2000
  140.8827   70.6082  220.6166 H   0  0  0  0  0  0  0  0  0  0  0  0
  140.9920   71.5520  221.1710 C   0  0  0  0  0  0  0  0  0  0  0  0
  140.0210   71.9020  222.0280 C   0  0  0  0  0  0  0  0  0  0  0  0
  139.3112   72.6905  221.7374 H   0  0  0  0  0  0  0  0  0  0  0  0
  139.8760   71.2560  223.3580 C   0  0  0  0  0  0  0  0  0  0  0  0
  140.6160   71.7510  224.3870 N   0  0  0  0  0  0  0  0  0  0  0  0
  140.5440   71.2440  225.6370 C   0  0  0  0  0  0  0  0  0  0  0  0
  141.3220   71.7930  226.6620 C   0  0  0  0  0  0  0  0  0  0  0  0
  141.9952   72.6364  226.4489 H   0  0  0  0  0  0  0  0  0  0  0  0
  141.2450   71.2710  227.9570 C   0  0  0  0  0  0  0  0  0  0  0  0
  141.8551   71.7058  228.7624 H   0  0  0  0  0  0  0  0  0  0  0  0
  140.3930   70.1970  228.2280 C   0  0  0  0  0  0  0  0  0  0  0  0
  140.3329   69.7883  229.2475 H   0  0  0  0  0  0  0  0  0  0  0  0
  139.6160   69.6400  227.2060 C   0  0  0  0  0  0  0  0  0  0  0  0
  138.9500   68.7916  227.4222 H   0  0  0  0  0  0  0  0  0  0  0  0
  139.6860   70.1650  225.9000 C   0  0  0  0  0  0  0  0  0  0  0  0
  138.9280   69.6440  224.8380 C   0  0  0  0  0  0  0  0  0  0  0  0
  138.1640   68.6600  225.0530 O   0  0  0  0  0  0  0  0  0  0  0  0
  139.0180   70.1940  223.5770 N   0  0  0  0  0  0  0  0  0  0  0  0
  138.2410   69.5970  222.4630 C   0  0  0  0  0  0  0  0  0  0  0  0
  137.2157   69.3955  222.8068 H   0  0  0  0  0  0  0  0  0  0  0  0
  138.2326   70.3057  221.6218 H   0  0  0  0  0  0  0  0  0  0  0  0
  138.8690   68.3050  221.9980 C   0  0  0  0  0  0  0  0  0  0  0  0
  139.7270   68.2970  220.8860 C   0  0  0  0  0  0  0  0  0  0  0  0
  139.9406   69.2350  220.3525 H   0  0  0  0  0  0  0  0  0  0  0  0
  140.3110   67.1020  220.4540 C   0  0  0  0  0  0  0  0  0  0  0  0
  140.9796   67.1016  219.5805 H   0  0  0  0  0  0  0  0  0  0  0  0
  140.0460   65.9080  221.1310 C   0  0  0  0  0  0  0  0  0  0  0  0
  140.4995   64.9674  220.7850 H   0  0  0  0  0  0  0  0  0  0  0  0
  139.2060   65.9090  222.2460 C   0  0  0  0  0  0  0  0  0  0  0  0
  139.0020   64.9698  222.7811 H   0  0  0  0  0  0  0  0  0  0  0  0
  138.6240   67.1020  222.6830 C   0  0  0  0  0  0  0  0  0  0  0  0
  137.9705   67.0998  223.5679 H   0  0  0  0  0  0  0  0  0  0  0  0
  142.2050   72.3710  220.9320 C   0  0  0  0  0  0  0  0  0  0  0  0
  143.5000   71.8120  220.9060 C   0  0  0  0  0  0  0  0  0  0  0  0
  143.6350   70.7345  221.0815 H   0  0  0  0  0  0  0  0  0  0  0  0
  144.6130   72.6220  220.6580 C   0  0  0  0  0  0  0  0  0  0  0  0
  145.6201   72.1799  220.6401 H   0  0  0  0  0  0  0  0  0  0  0  0
  144.4490   73.9910  220.4330 C   0  0  0  0  0  0  0  0  0  0  0  0
  145.3266   74.6267  220.2441 H   0  0  0  0  0  0  0  0  0  0  0  0
  143.1700   74.5520  220.4480 C   0  0  0  0  0  0  0  0  0  0  0  0
  143.0413   75.6297  220.2690 H   0  0  0  0  0  0  0  0  0  0  0  0
  142.0530   73.7470  220.6900 C   0  0  0  0  0  0  0  0  0  0  0  0
  141.0478   74.1938  220.6910 H   0  0  0  0  0  0  0  0  0  0  0  0
  1  2  1  0
  2  3  2  0
  3  4  1  0
  3  5  1  0
  5  6  2  0
  6  7  1  0
  7  8  2  0
  8  9  1  0
  8 10  1  0
 10 11  1  0
 10 12  2  0
 12 13  1  0
 12 14  1  0
 14 15  1  0
 14 16  2  0
 16 17  1  0
 17 18  2  0
 17 19  1  0
 19 20  1  0
 20 21  1  0
 20 22  1  0
 20 23  1  0
 23 24  2  0
 24 25  1  0
 24 26  1  0
 26 27  1  0
 26 28  2  0
 28 29  1  0
 28 30  1  0
 30 31  1  0
 30 32  2  0
 32 33  1  0
  2 34  1  0
 34 35  2  0
 35 36  1  0
 35 37  1  0
 37 38  1  0
 37 39  2  0
 39 40  1  0
 39 41  1  0
 41 42  1  0
 41 43  2  0
 43 44  1  0
 19  5  1  0
 32 23  1  0
 43 34  1  0
 16  7  1  0
M  END
>  <UniqueID>  (5) 
46

>  <SMILES>  (5) 
O=c1c2ccccc2nc(/C=C/c2ccccc2)n1Cc1ccccc1

>  <Energy>  (5) 
61.47215714226456

>  <Genealogy>  (5) 
O=c1c2ccccc2nc(/C=C/c2ccccc2)n1Cc1ccccc1 (cis-trans isomerization)
O=c1c2ccccc2nc(/C=C/c2ccccc2)n1Cc1ccccc1 (3D coordinates assigned)
O=c1c2ccccc2nc(/C=C/c2ccccc2)n1Cc1ccccc1 (optimized conformer: 61.47215714226456 kcal/mol)

>  <smiles>  (5) 
O=c1c2ccccc2nc(/C=C/c2ccccc2)n1Cc1ccccc1

>  <score_type>  (5) 
oracle

>  <origin>  (5) 
autodockgpu

>  <m_score__min__energy>  (5) 
-7.6200000000000001

>  <m_primary>  (5) 
energy

>  <meeko>  (5) 
{"free_energy": -7.26, "intermolecular_energy": -8.75, "internal_energy": -1.23, "cluster_size": 7, "cluster_id": 2, "rank_in_cluster": 5}

>  <energy>  (5) 
-7.35

>  <cluster_rmsd>  (5) 
0.09

>  <rmsd>  (5) 
269.11

>  <cluster>  (5) 
2

$$$$
IZQCJYDBOLXUJA-FOCLMDBBNA-N
     RDKit          3D

 44 47  0  0  0  0  0  0  0  0999 V2000
  141.5971   80.5410  219.0755 H   0  0  0  0  0  0  0  0  0  0  0  0
  141.2950   79.8950  219.9130 C   0  0  0  0  0  0  0  0  0  0  0  0
  140.5400   78.8180  219.6460 C   0  0  0  0  0  0  0  0  0  0  0  0
  139.6000   78.9498  219.0900 H   0  0  0  0  0  0  0  0  0  0  0  0
  140.9360   77.4530  220.0790 C   0  0  0  0  0  0  0  0  0  0  0  0
  142.1760   77.0130  219.7340 N   0  0  0  0  0  0  0  0  0  0  0  0
  142.6350   75.7940  220.0940 C   0  0  0  0  0  0  0  0  0  0  0  0
  143.9210   75.3910  219.7180 C   0  0  0  0  0  0  0  0  0  0  0  0
  144.5572   76.0654  219.1261 H   0  0  0  0  0  0  0  0  0  0  0  0
  144.3980   74.1320  220.0940 C   0  0  0  0  0  0  0  0  0  0  0  0
  145.4109   73.8182  219.8016 H   0  0  0  0  0  0  0  0  0  0  0  0
  143.5890   73.2720  220.8410 C   0  0  0  0  0  0  0  0  0  0  0  0
  143.9665   72.2818  221.1359 H   0  0  0  0  0  0  0  0  0  0  0  0
  142.3000   73.6670  221.2150 C   0  0  0  0  0  0  0  0  0  0  0  0
  141.6642   72.9853  221.7991 H   0  0  0  0  0  0  0  0  0  0  0  0
  141.8150   74.9380  220.8440 C   0  0  0  0  0  0  0  0  0  0  0  0
  140.5300   75.3840  221.1940 C   0  0  0  0  0  0  0  0  0  0  0  0
  139.7710   74.6180  221.8530 O   0  0  0  0  0  0  0  0  0  0  0  0
  140.0980   76.6390  220.8190 N   0  0  0  0  0  0  0  0  0  0  0  0
  138.7210   77.0700  221.1610 C   0  0  0  0  0  0  0  0  0  0  0  0
  138.1981   77.3674  220.2401 H   0  0  0  0  0  0  0  0  0  0  0  0
  138.2013   76.2303  221.6455 H   0  0  0  0  0  0  0  0  0  0  0  0
  138.7410   78.2380  222.1160 C   0  0  0  0  0  0  0  0  0  0  0  0
  139.7260   78.3160  223.1160 C   0  0  0  0  0  0  0  0  0  0  0  0
  140.4825   77.5222  223.2028 H   0  0  0  0  0  0  0  0  0  0  0  0
  139.7480   79.3990  224.0010 C   0  0  0  0  0  0  0  0  0  0  0  0
  140.5192   79.4528  224.7835 H   0  0  0  0  0  0  0  0  0  0  0  0
  138.7920   80.4130  223.8930 C   0  0  0  0  0  0  0  0  0  0  0  0
  138.8060   81.2595  224.5953 H   0  0  0  0  0  0  0  0  0  0  0  0
  137.8190   80.3510  222.8930 C   0  0  0  0  0  0  0  0  0  0  0  0
  137.0699   81.1517  222.8051 H   0  0  0  0  0  0  0  0  0  0  0  0
  137.7960   79.2730  222.0040 C   0  0  0  0  0  0  0  0  0  0  0  0
  137.0339   79.2340  221.2117 H   0  0  0  0  0  0  0  0  0  0  0  0
  141.7430   80.2590  221.2790 C   0  0  0  0  0  0  0  0  0  0  0  0
  142.5280   79.3960  222.0710 C   0  0  0  0  0  0  0  0  0  0  0  0
  142.8154   78.4074  221.6835 H   0  0  0  0  0  0  0  0  0  0  0  0
  142.9430   79.7910  223.3470 C   0  0  0  0  0  0  0  0  0  0  0  0
  143.5536   79.1117  223.9600 H   0  0  0  0  0  0  0  0  0  0  0  0
  142.5840   81.0460  223.8450 C   0  0  0  0  0  0  0  0  0  0  0  0
  142.9066   81.3519  224.8512 H   0  0  0  0  0  0  0  0  0  0  0  0
  141.8150   81.9120  223.0640 C   0  0  0  0  0  0  0  0  0  0  0  0
  141.5343   82.9010  223.4553 H   0  0  0  0  0  0  0  0  0  0  0  0
  141.4010   81.5240  221.7850 C   0  0  0  0  0  0  0  0  0  0  0  0
  140.8036   82.2144  221.1715 H   0  0  0  0  0  0  0  0  0  0  0  0
  1  2  1  0
  2  3  2  0
  3  4  1  0
  3  5  1  0
  5  6  2  0
  6  7  1  0
  7  8  2  0
  8  9  1  0
  8 10  1  0
 10 11  1  0
 10 12  2  0
 12 13  1  0
 12 14  1  0
 14 15  1  0
 14 16  2  0
 16 17  1  0
 17 18  2  0
 17 19  1  0
 19 20  1  0
 20 21  1  0
 20 22  1  0
 20 23  1  0
 23 24  2  0
 24 25  1  0
 24 26  1  0
 26 27  1  0
 26 28  2  0
 28 29  1  0
 28 30  1  0
 30 31  1  0
 30 32  2  0
 32 33  1  0
  2 34  1  0
 34 35  2  0
 35 36  1  0
 35 37  1  0
 37 38  1  0
 37 39  2  0
 39 40  1  0
 39 41  1  0
 41 42  1  0
 41 43  2  0
 43 44  1  0
 19  5  1  0
 32 23  1  0
 43 34  1  0
 16  7  1  0
M  END
>  <UniqueID>  (6) 
46

>  <SMILES>  (6) 
O=c1c2ccccc2nc(/C=C/c2ccccc2)n1Cc1ccccc1

>  <Energy>  (6) 
61.47215714226456

>  <Genealogy>  (6) 
O=c1c2ccccc2nc(/C=C/c2ccccc2)n1Cc1ccccc1 (cis-trans isomerization)
O=c1c2ccccc2nc(/C=C/c2ccccc2)n1Cc1ccccc1 (3D coordinates assigned)
O=c1c2ccccc2nc(/C=C/c2ccccc2)n1Cc1ccccc1 (optimized conformer: 61.47215714226456 kcal/mol)

>  <smiles>  (6) 
O=c1c2ccccc2nc(/C=C/c2ccccc2)n1Cc1ccccc1

>  <score_type>  (6) 
oracle

>  <origin>  (6) 
autodockgpu

>  <m_score__min__energy>  (6) 
-7.6200000000000001

>  <m_primary>  (6) 
energy

>  <meeko>  (6) 
{"free_energy": -6.64, "intermolecular_energy": -8.13, "internal_energy": -2.03, "cluster_size": 12, "cluster_id": 3, "rank_in_cluster": 7}

>  <energy>  (6) 
-7.26

>  <cluster_rmsd>  (6) 
1.6

>  <rmsd>  (6) 
269.21

>  <cluster>  (6) 
2

$$$$
IZQCJYDBOLXUJA-FOCLMDBBNA-N
     RDKit          3D

 44 47  0  0  0  0  0  0  0  0999 V2000
  139.0373   76.6805  223.6088 H   0  0  0  0  0  0  0  0  0  0  0  0
  138.9350   77.2750  222.6890 C   0  0  0  0  0  0  0  0  0  0  0  0
  139.0790   76.6520  221.5100 C   0  0  0  0  0  0  0  0  0  0  0  0
  138.1952   76.5068  220.8714 H   0  0  0  0  0  0  0  0  0  0  0  0
  140.3980   76.1520  221.0410 C   0  0  0  0  0  0  0  0  0  0  0  0
  140.7180   74.8580  221.3110 N   0  0  0  0  0  0  0  0  0  0  0  0
  141.8850   74.3050  220.9140 C   0  0  0  0  0  0  0  0  0  0  0  0
  142.1640   72.9660  221.2120 C   0  0  0  0  0  0  0  0  0  0  0  0
  141.4336   72.3643  221.7728 H   0  0  0  0  0  0  0  0  0  0  0  0
  143.3690   72.3930  220.7980 C   0  0  0  0  0  0  0  0  0  0  0  0
  143.5845   71.3394  221.0295 H   0  0  0  0  0  0  0  0  0  0  0  0
  144.3010   73.1570  220.0900 C   0  0  0  0  0  0  0  0  0  0  0  0
  145.2493   72.7037  219.7655 H   0  0  0  0  0  0  0  0  0  0  0  0
  144.0300   74.4980  219.7930 C   0  0  0  0  0  0  0  0  0  0  0  0
  144.7671   75.0979  219.2390 H   0  0  0  0  0  0  0  0  0  0  0  0
  142.8140   75.0800  220.2030 C   0  0  0  0  0  0  0  0  0  0  0  0
  142.4920   76.4210  219.9310 C   0  0  0  0  0  0  0  0  0  0  0  0
  143.3250   77.1380  219.3090 O   0  0  0  0  0  0  0  0  0  0  0  0
  141.2870   76.9490  220.3420 N   0  0  0  0  0  0  0  0  0  0  0  0
  140.9890   78.3780  220.0830 C   0  0  0  0  0  0  0  0  0  0  0  0
  141.4857   78.6859  219.1511 H   0  0  0  0  0  0  0  0  0  0  0  0
  139.8990   78.4987  219.9968 H   0  0  0  0  0  0  0  0  0  0  0  0
  141.4810   79.2470  221.2150 C   0  0  0  0  0  0  0  0  0  0  0  0
  141.3680   80.6450  221.1340 C   0  0  0  0  0  0  0  0  0  0  0  0
  140.9205   81.1073  220.2418 H   0  0  0  0  0  0  0  0  0  0  0  0
  141.8220   81.4520  222.1830 C   0  0  0  0  0  0  0  0  0  0  0  0
  141.7341   82.5462  222.1118 H   0  0  0  0  0  0  0  0  0  0  0  0
  142.3870   80.8700  223.3210 C   0  0  0  0  0  0  0  0  0  0  0  0
  142.7504   81.5061  224.1416 H   0  0  0  0  0  0  0  0  0  0  0  0
  142.4900   79.4810  223.4160 C   0  0  0  0  0  0  0  0  0  0  0  0
  142.9311   79.0237  224.3139 H   0  0  0  0  0  0  0  0  0  0  0  0
  142.0340   78.6700  222.3730 C   0  0  0  0  0  0  0  0  0  0  0  0
  142.1078   77.5758  222.4578 H   0  0  0  0  0  0  0  0  0  0  0  0
  138.6450   78.7240  222.8170 C   0  0  0  0  0  0  0  0  0  0  0  0
  139.1300   79.4990  223.8910 C   0  0  0  0  0  0  0  0  0  0  0  0
  139.7347   79.0253  224.6784 H   0  0  0  0  0  0  0  0  0  0  0  0
  138.8460   80.8670  223.9600 C   0  0  0  0  0  0  0  0  0  0  0  0
  139.2248   81.4645  224.8023 H   0  0  0  0  0  0  0  0  0  0  0  0
  138.0820   81.4760  222.9610 C   0  0  0  0  0  0  0  0  0  0  0  0
  137.8556   82.5508  223.0199 H   0  0  0  0  0  0  0  0  0  0  0  0
  137.6060   80.7200  221.8880 C   0  0  0  0  0  0  0  0  0  0  0  0
  137.0066   81.2008  221.1009 H   0  0  0  0  0  0  0  0  0  0  0  0
  137.8900   79.3520  221.8120 C   0  0  0  0  0  0  0  0  0  0  0  0
  137.5196   78.7639  220.9594 H   0  0  0  0  0  0  0  0  0  0  0  0
  1  2  1  0
  2  3  2  0
  3  4  1  0
  3  5  1  0
  5  6  2  0
  6  7  1  0
  7  8  2  0
  8  9  1  0
  8 10  1  0
 10 11  1  0
 10 12  2  0
 12 13  1  0
 12 14  1  0
 14 15  1  0
 14 16  2  0
 16 17  1  0
 17 18  2  0
 17 19  1  0
 19 20  1  0
 20 21  1  0
 20 22  1  0
 20 23  1  0
 23 24  2  0
 24 25  1  0
 24 26  1  0
 26 27  1  0
 26 28  2  0
 28 29  1  0
 28 30  1  0
 30 31  1  0
 30 32  2  0
 32 33  1  0
  2 34  1  0
 34 35  2  0
 35 36  1  0
 35 37  1  0
 37 38  1  0
 37 39  2  0
 39 40  1  0
 39 41  1  0
 41 42  1  0
 41 43  2  0
 43 44  1  0
 19  5  1  0
 32 23  1  0
 43 34  1  0
 16  7  1  0
M  END
>  <UniqueID>  (7) 
46

>  <SMILES>  (7) 
O=c1c2ccccc2nc(/C=C/c2ccccc2)n1Cc1ccccc1

>  <Energy>  (7) 
61.47215714226456

>  <Genealogy>  (7) 
O=c1c2ccccc2nc(/C=C/c2ccccc2)n1Cc1ccccc1 (cis-trans isomerization)
O=c1c2ccccc2nc(/C=C/c2ccccc2)n1Cc1ccccc1 (3D coordinates assigned)
O=c1c2ccccc2nc(/C=C/c2ccccc2)n1Cc1ccccc1 (optimized conformer: 61.47215714226456 kcal/mol)

>  <smiles>  (7) 
O=c1c2ccccc2nc(/C=C/c2ccccc2)n1Cc1ccccc1

>  <score_type>  (7) 
oracle

>  <origin>  (7) 
autodockgpu

>  <m_score__min__energy>  (7) 
-7.6200000000000001

>  <m_primary>  (7) 
energy

>  <meeko>  (7) 
{"free_energy": -6.46, "intermolecular_energy": -7.95, "internal_energy": -2.04, "cluster_size": 12, "cluster_id": 3, "rank_in_cluster": 12}

>  <energy>  (7) 
-7.11

>  <cluster_rmsd>  (7) 
1.65

>  <rmsd>  (7) 
269.16

>  <cluster>  (7) 
2

$$$$
IZQCJYDBOLXUJA-FOCLMDBBNA-N
     RDKit          3D

 44 47  0  0  0  0  0  0  0  0999 V2000
  138.4492   73.5484  222.5438 H   0  0  0  0  0  0  0  0  0  0  0  0
  139.0660   72.6600  222.3430 C   0  0  0  0  0  0  0  0  0  0  0  0
  138.5710   71.4560  222.6670 C   0  0  0  0  0  0  0  0  0  0  0  0
  137.8210   70.9921  222.0095 H   0  0  0  0  0  0  0  0  0  0  0  0
  139.0070   70.7310  223.8890 C   0  0  0  0  0  0  0  0  0  0  0  0
  139.7480   71.4140  224.8020 N   0  0  0  0  0  0  0  0  0  0  0  0
  140.1790   70.8480  225.9500 C   0  0  0  0  0  0  0  0  0  0  0  0
  140.9340   71.5970  226.8600 C   0  0  0  0  0  0  0  0  0  0  0  0
  141.1798   72.6459  226.6376 H   0  0  0  0  0  0  0  0  0  0  0  0
  141.3760   71.0140  228.0510 C   0  0  0  0  0  0  0  0  0  0  0  0
  141.9664   71.6051  228.7666 H   0  0  0  0  0  0  0  0  0  0  0  0
  141.0680   69.6800  228.3330 C   0  0  0  0  0  0  0  0  0  0  0  0
  141.4161   69.2232  229.2712 H   0  0  0  0  0  0  0  0  0  0  0  0
  140.3180   68.9240  227.4250 C   0  0  0  0  0  0  0  0  0  0  0  0
  140.0819   67.8730  227.6477 H   0  0  0  0  0  0  0  0  0  0  0  0
  139.8650   69.5090  226.2250 C   0  0  0  0  0  0  0  0  0  0  0  0
  139.1080   68.7960  225.2800 C   0  0  0  0  0  0  0  0  0  0  0  0
  138.8330   67.5830  225.5020 O   0  0  0  0  0  0  0  0  0  0  0  0
  138.6760   69.4080  224.1220 N   0  0  0  0  0  0  0  0  0  0  0  0
  137.9170   68.6220  223.1190 C   0  0  0  0  0  0  0  0  0  0  0  0
  137.3182   67.8590  223.6378 H   0  0  0  0  0  0  0  0  0  0  0  0
  137.2646   69.3066  222.5571 H   0  0  0  0  0  0  0  0  0  0  0  0
  138.8510   67.9410  222.1480 C   0  0  0  0  0  0  0  0  0  0  0  0
  139.0050   66.5450  222.1760 C   0  0  0  0  0  0  0  0  0  0  0  0
  138.4441   65.9470  222.9093 H   0  0  0  0  0  0  0  0  0  0  0  0
  139.8680   65.9120  221.2760 C   0  0  0  0  0  0  0  0  0  0  0  0
  139.9875   64.8189  221.3062 H   0  0  0  0  0  0  0  0  0  0  0  0
  140.5790   66.6660  220.3380 C   0  0  0  0  0  0  0  0  0  0  0  0
  141.2628   66.1671  219.6355 H   0  0  0  0  0  0  0  0  0  0  0  0
  140.4210   68.0530  220.2930 C   0  0  0  0  0  0  0  0  0  0  0  0
  140.9780   68.6456  219.5523 H   0  0  0  0  0  0  0  0  0  0  0  0
  139.5560   68.6890  221.1880 C   0  0  0  0  0  0  0  0  0  0  0  0
  139.4260   69.7803  221.1413 H   0  0  0  0  0  0  0  0  0  0  0  0
  140.4020   72.8560  221.7280 C   0  0  0  0  0  0  0  0  0  0  0  0
  140.9050   74.1330  221.4070 C   0  0  0  0  0  0  0  0  0  0  0  0
  140.2928   75.0265  221.5993 H   0  0  0  0  0  0  0  0  0  0  0  0
  142.1790   74.2700  220.8450 C   0  0  0  0  0  0  0  0  0  0  0  0
  142.5649   75.2696  220.5964 H   0  0  0  0  0  0  0  0  0  0  0  0
  142.9620   73.1390  220.5990 C   0  0  0  0  0  0  0  0  0  0  0  0
  143.9608   73.2481  220.1511 H   0  0  0  0  0  0  0  0  0  0  0  0
  142.4760   71.8700  220.9220 C   0  0  0  0  0  0  0  0  0  0  0  0
  143.0938   70.9804  220.7298 H   0  0  0  0  0  0  0  0  0  0  0  0
  141.2060   71.7280  221.4890 C   0  0  0  0  0  0  0  0  0  0  0  0
  140.8333   70.7265  221.7499 H   0  0  0  0  0  0  0  0  0  0  0  0
  1  2  1  0
  2  3  2  0
  3  4  1  0
  3  5  1  0
  5  6  2  0
  6  7  1  0
  7  8  2  0
  8  9  1  0
  8 10  1  0
 10 11  1  0
 10 12  2  0
 12 13  1  0
 12 14  1  0
 14 15  1  0
 14 16  2  0
 16 17  1  0
 17 18  2  0
 17 19  1  0
 19 20  1  0
 20 21  1  0
 20 22  1  0
 20 23  1  0
 23 24  2  0
 24 25  1  0
 24 26  1  0
 26 27  1  0
 26 28  2  0
 28 29  1  0
 28 30  1  0
 30 31  1  0
 30 32  2  0
 32 33  1  0
  2 34  1  0
 34 35  2  0
 35 36  1  0
 35 37  1  0
 37 38  1  0
 37 39  2  0
 39 40  1  0
 39 41  1  0
 41 42  1  0
 41 43  2  0
 43 44  1  0
 19  5  1  0
 32 23  1  0
 43 34  1  0
 16  7  1  0
M  END
>  <UniqueID>  (8) 
46

>  <SMILES>  (8) 
O=c1c2ccccc2nc(/C=C/c2ccccc2)n1Cc1ccccc1

>  <Energy>  (8) 
61.47215714226456

>  <Genealogy>  (8) 
O=c1c2ccccc2nc(/C=C/c2ccccc2)n1Cc1ccccc1 (cis-trans isomerization)
O=c1c2ccccc2nc(/C=C/c2ccccc2)n1Cc1ccccc1 (3D coordinates assigned)
O=c1c2ccccc2nc(/C=C/c2ccccc2)n1Cc1ccccc1 (optimized conformer: 61.47215714226456 kcal/mol)

>  <smiles>  (8) 
O=c1c2ccccc2nc(/C=C/c2ccccc2)n1Cc1ccccc1

>  <score_type>  (8) 
oracle

>  <origin>  (8) 
autodockgpu

>  <m_score__min__energy>  (8) 
-7.6200000000000001

>  <m_primary>  (8) 
energy

>  <meeko>  (8) 
{"free_energy": -7.09, "intermolecular_energy": -8.58, "internal_energy": -1.54, "cluster_size": 7, "cluster_id": 2, "rank_in_cluster": 7}

>  <energy>  (8) 
-7.09

>  <cluster_rmsd>  (8) 
1.71

>  <rmsd>  (8) 
269.12

>  <cluster>  (8) 
2

$$$$
IZQCJYDBOLXUJA-FOCLMDBBNA-N
     RDKit          3D

 44 47  0  0  0  0  0  0  0  0999 V2000
  141.6989   80.3572  219.0233 H   0  0  0  0  0  0  0  0  0  0  0  0
  141.3380   79.8170  219.9110 C   0  0  0  0  0  0  0  0  0  0  0  0
  140.5360   78.7570  219.7280 C   0  0  0  0  0  0  0  0  0  0  0  0
  139.5503   78.9069  219.2633 H   0  0  0  0  0  0  0  0  0  0  0  0
  140.9410   77.3860  220.1350 C   0  0  0  0  0  0  0  0  0  0  0  0
  142.1810   76.9580  219.7740 N   0  0  0  0  0  0  0  0  0  0  0  0
  142.6480   75.7350  220.1090 C   0  0  0  0  0  0  0  0  0  0  0  0
  143.9350   75.3460  219.7190 C   0  0  0  0  0  0  0  0  0  0  0  0
  144.5649   76.0349  219.1370 H   0  0  0  0  0  0  0  0  0  0  0  0
  144.4200   74.0820  220.0690 C   0  0  0  0  0  0  0  0  0  0  0  0
  145.4324   73.7780  219.7648 H   0  0  0  0  0  0  0  0  0  0  0  0
  143.6190   73.2050  220.8050 C   0  0  0  0  0  0  0  0  0  0  0  0
  144.0026   72.2112  221.0793 H   0  0  0  0  0  0  0  0  0  0  0  0
  142.3310   73.5870  221.1940 C   0  0  0  0  0  0  0  0  0  0  0  0
  141.7022   72.8920  221.7699 H   0  0  0  0  0  0  0  0  0  0  0  0
  141.8380   74.8610  220.8490 C   0  0  0  0  0  0  0  0  0  0  0  0
  140.5520   75.2950  221.2140 C   0  0  0  0  0  0  0  0  0  0  0  0
  139.8010   74.5130  221.8640 O   0  0  0  0  0  0  0  0  0  0  0  0
  140.1120   76.5540  220.8650 N   0  0  0  0  0  0  0  0  0  0  0  0
  138.7350   76.9710  221.2230 C   0  0  0  0  0  0  0  0  0  0  0  0
  138.1946   77.2520  220.3071 H   0  0  0  0  0  0  0  0  0  0  0  0
  138.2330   76.1300  221.7238 H   0  0  0  0  0  0  0  0  0  0  0  0
  138.7550   78.1500  222.1660 C   0  0  0  0  0  0  0  0  0  0  0  0
  139.7910   78.2850  223.1060 C   0  0  0  0  0  0  0  0  0  0  0  0
  140.5883   77.5287  223.1543 H   0  0  0  0  0  0  0  0  0  0  0  0
  139.8130   79.3760  223.9800 C   0  0  0  0  0  0  0  0  0  0  0  0
  140.6246   79.4737  224.7160 H   0  0  0  0  0  0  0  0  0  0  0  0
  138.8050   80.3430  223.9200 C   0  0  0  0  0  0  0  0  0  0  0  0
  138.8193   81.1965  224.6138 H   0  0  0  0  0  0  0  0  0  0  0  0
  137.7800   80.2250  222.9790 C   0  0  0  0  0  0  0  0  0  0  0  0
  136.9901   80.9889  222.9288 H   0  0  0  0  0  0  0  0  0  0  0  0
  137.7560   79.1380  222.1010 C   0  0  0  0  0  0  0  0  0  0  0  0
  136.9517   79.0547  221.3552 H   0  0  0  0  0  0  0  0  0  0  0  0
  141.7630   80.2980  221.2470 C   0  0  0  0  0  0  0  0  0  0  0  0
  141.3870   81.5610  221.7500 C   0  0  0  0  0  0  0  0  0  0  0  0
  140.7674   82.2318  221.1367 H   0  0  0  0  0  0  0  0  0  0  0  0
  141.7980   81.9650  223.0250 C   0  0  0  0  0  0  0  0  0  0  0  0
  141.5030   82.9524  223.4097 H   0  0  0  0  0  0  0  0  0  0  0  0
  142.5820   81.1170  223.8100 C   0  0  0  0  0  0  0  0  0  0  0  0
  142.9090   81.4391  224.8097 H   0  0  0  0  0  0  0  0  0  0  0  0
  142.9510   79.8600  223.3260 C   0  0  0  0  0  0  0  0  0  0  0  0
  143.5662   79.1918  223.9466 H   0  0  0  0  0  0  0  0  0  0  0  0
  142.5400   79.4490  222.0540 C   0  0  0  0  0  0  0  0  0  0  0  0
  142.8268   78.4542  221.6824 H   0  0  0  0  0  0  0  0  0  0  0  0
  1  2  1  0
  2  3  2  0
  3  4  1  0
  3  5  1  0
  5  6  2  0
  6  7  1  0
  7  8  2  0
  8  9  1  0
  8 10  1  0
 10 11  1  0
 10 12  2  0
 12 13  1  0
 12 14  1  0
 14 15  1  0
 14 16  2  0
 16 17  1  0
 17 18  2  0
 17 19  1  0
 19 20  1  0
 20 21  1  0
 20 22  1  0
 20 23  1  0
 23 24  2  0
 24 25  1  0
 24 26  1  0
 26 27  1  0
 26 28  2  0
 28 29  1  0
 28 30  1  0
 30 31  1  0
 30 32  2  0
 32 33  1  0
  2 34  1  0
 34 35  2  0
 35 36  1  0
 35 37  1  0
 37 38  1  0
 37 39  2  0
 39 40  1  0
 39 41  1  0
 41 42  1  0
 41 43  2  0
 43 44  1  0
 19  5  1  0
 32 23  1  0
 43 34  1  0
 16  7  1  0
M  END
>  <UniqueID>  (9) 
46

>  <SMILES>  (9) 
O=c1c2ccccc2nc(/C=C/c2ccccc2)n1Cc1ccccc1

>  <Energy>  (9) 
61.47215714226456

>  <Genealogy>  (9) 
O=c1c2ccccc2nc(/C=C/c2ccccc2)n1Cc1ccccc1 (cis-trans isomerization)
O=c1c2ccccc2nc(/C=C/c2ccccc2)n1Cc1ccccc1 (3D coordinates assigned)
O=c1c2ccccc2nc(/C=C/c2ccccc2)n1Cc1ccccc1 (optimized conformer: 61.47215714226456 kcal/mol)

>  <smiles>  (9) 
O=c1c2ccccc2nc(/C=C/c2ccccc2)n1Cc1ccccc1

>  <score_type>  (9) 
oracle

>  <origin>  (9) 
autodockgpu

>  <m_score__min__energy>  (9) 
-7.6200000000000001

>  <m_primary>  (9) 
energy

>  <meeko>  (9) 
{"free_energy": -6.71, "intermolecular_energy": -8.2, "internal_energy": -1.96, "cluster_size": 12, "cluster_id": 3, "rank_in_cluster": 2}

>  <energy>  (9) 
-6.72

>  <cluster_rmsd>  (9) 
0.0

>  <rmsd>  (9) 
270.15

>  <cluster>  (9) 
3

$$$$
IZQCJYDBOLXUJA-FOCLMDBBNA-N
     RDKit          3D

 44 47  0  0  0  0  0  0  0  0999 V2000
  138.6443   73.6500  222.3328 H   0  0  0  0  0  0  0  0  0  0  0  0
  139.2640   72.7530  222.1870 C   0  0  0  0  0  0  0  0  0  0  0  0
  138.7480   71.5610  222.5250 C   0  0  0  0  0  0  0  0  0  0  0  0
  138.0263   71.0805  221.8481 H   0  0  0  0  0  0  0  0  0  0  0  0
  139.1230   70.8710  223.7870 C   0  0  0  0  0  0  0  0  0  0  0  0
  139.8850   71.5560  224.6820 N   0  0  0  0  0  0  0  0  0  0  0  0
  140.2650   71.0230  225.8630 C   0  0  0  0  0  0  0  0  0  0  0  0
  141.0450   71.7720  226.7520 C   0  0  0  0  0  0  0  0  0  0  0  0
  141.3513   72.7947  226.4867 H   0  0  0  0  0  0  0  0  0  0  0  0
  141.4350   71.2220  227.9760 C   0  0  0  0  0  0  0  0  0  0  0  0
  142.0453   71.8131  228.6747 H   0  0  0  0  0  0  0  0  0  0  0  0
  141.0500   69.9210  228.3130 C   0  0  0  0  0  0  0  0  0  0  0  0
  141.3573   69.4905  229.2775 H   0  0  0  0  0  0  0  0  0  0  0  0
  140.2750   69.1650  227.4270 C   0  0  0  0  0  0  0  0  0  0  0  0
  139.9781   68.1400  227.6937 H   0  0  0  0  0  0  0  0  0  0  0  0
  139.8740   69.7160  226.1920 C   0  0  0  0  0  0  0  0  0  0  0  0
  139.0960   69.0010  225.2670 C   0  0  0  0  0  0  0  0  0  0  0  0
  138.7510   67.8160  225.5390 O   0  0  0  0  0  0  0  0  0  0  0  0
  138.7170   69.5810  224.0750 N   0  0  0  0  0  0  0  0  0  0  0  0
  137.9330   68.7900  223.0950 C   0  0  0  0  0  0  0  0  0  0  0  0
  137.2868   68.0839  223.6371 H   0  0  0  0  0  0  0  0  0  0  0  0
  137.3266   69.4813  222.4913 H   0  0  0  0  0  0  0  0  0  0  0  0
  138.8440   68.0170  222.1720 C   0  0  0  0  0  0  0  0  0  0  0  0
  139.6140   68.6930  221.2100 C   0  0  0  0  0  0  0  0  0  0  0  0
  139.5508   69.7882  221.1293 H   0  0  0  0  0  0  0  0  0  0  0  0
  140.4600   67.9800  220.3550 C   0  0  0  0  0  0  0  0  0  0  0  0
  141.0569   68.5145  219.6014 H   0  0  0  0  0  0  0  0  0  0  0  0
  140.5480   66.5880  220.4570 C   0  0  0  0  0  0  0  0  0  0  0  0
  141.2084   66.0275  219.7790 H   0  0  0  0  0  0  0  0  0  0  0  0
  139.7980   65.9100  221.4190 C   0  0  0  0  0  0  0  0  0  0  0  0
  139.8705   64.8154  221.5005 H   0  0  0  0  0  0  0  0  0  0  0  0
  138.9550   66.6190  222.2790 C   0  0  0  0  0  0  0  0  0  0  0  0
  138.3753   66.0810  223.0435 H   0  0  0  0  0  0  0  0  0  0  0  0
  140.6270   72.9230  221.6270 C   0  0  0  0  0  0  0  0  0  0  0  0
  141.4920   71.8320  221.4010 C   0  0  0  0  0  0  0  0  0  0  0  0
  141.1663   70.8130  221.6569 H   0  0  0  0  0  0  0  0  0  0  0  0
  142.7620   72.0400  220.8530 C   0  0  0  0  0  0  0  0  0  0  0  0
  143.4322   71.1850  220.6807 H   0  0  0  0  0  0  0  0  0  0  0  0
  143.1810   73.3320  220.5240 C   0  0  0  0  0  0  0  0  0  0  0  0
  144.1822   73.4938  220.0980 H   0  0  0  0  0  0  0  0  0  0  0  0
  142.3290   74.4170  220.7360 C   0  0  0  0  0  0  0  0  0  0  0  0
  142.6596   75.4333  220.4756 H   0  0  0  0  0  0  0  0  0  0  0  0
  141.0550   74.2150  221.2790 C   0  0  0  0  0  0  0  0  0  0  0  0
  140.3846   75.0732  221.4343 H   0  0  0  0  0  0  0  0  0  0  0  0
  1  2  1  0
  2  3  2  0
  3  4  1  0
  3  5  1  0
  5  6  2  0
  6  7  1  0
  7  8  2  0
  8  9  1  0
  8 10  1  0
 10 11  1  0
 10 12  2  0
 12 13  1  0
 12 14  1  0
 14 15  1  0
 14 16  2  0
 16 17  1  0
 17 18  2  0
 17 19  1  0
 19 20  1  0
 20 21  1  0
 20 22  1  0
 20 23  1  0
 23 24  2  0
 24 25  1  0
 24 26  1  0
 26 27  1  0
 26 28  2  0
 28 29  1  0
 28 30  1  0
 30 31  1  0
 30 32  2  0
 32 33  1  0
  2 34  1  0
 34 35  2  0
 35 36  1  0
 35 37  1  0
 37 38  1  0
 37 39  2  0
 39 40  1  0
 39 41  1  0
 41 42  1  0
 41 43  2  0
 43 44  1  0
 19  5  1  0
 32 23  1  0
 43 34  1  0
 16  7  1  0
M  END
>  <UniqueID>  (10) 
46

>  <SMILES>  (10) 
O=c1c2ccccc2nc(/C=C/c2ccccc2)n1Cc1ccccc1

>  <Energy>  (10) 
61.47215714226456

>  <Genealogy>  (10) 
O=c1c2ccccc2nc(/C=C/c2ccccc2)n1Cc1ccccc1 (cis-trans isomerization)
O=c1c2ccccc2nc(/C=C/c2ccccc2)n1Cc1ccccc1 (3D coordinates assigned)
O=c1c2ccccc2nc(/C=C/c2ccccc2)n1Cc1ccccc1 (optimized conformer: 61.47215714226456 kcal/mol)

>  <smiles>  (10) 
O=c1c2ccccc2nc(/C=C/c2ccccc2)n1Cc1ccccc1

>  <score_type>  (10) 
oracle

>  <origin>  (10) 
autodockgpu

>  <m_score__min__energy>  (10) 
-7.6200000000000001

>  <m_primary>  (10) 
energy

>  <meeko>  (10) 
{"free_energy": -7.11, "intermolecular_energy": -8.6, "internal_energy": -1.5, "cluster_size": 7, "cluster_id": 2, "rank_in_cluster": 6}

>  <energy>  (10) 
-6.71

>  <cluster_rmsd>  (10) 
0.08

>  <rmsd>  (10) 
270.15

>  <cluster>  (10) 
3

$$$$
IZQCJYDBOLXUJA-FOCLMDBBNA-N
     RDKit          3D

 44 47  0  0  0  0  0  0  0  0999 V2000
  138.6131   71.3517  223.0485 H   0  0  0  0  0  0  0  0  0  0  0  0
  139.6840   71.3480  223.3000 C   0  0  0  0  0  0  0  0  0  0  0  0
  140.5610   71.7120  222.3520 C   0  0  0  0  0  0  0  0  0  0  0  0
  141.2932   70.9749  221.9906 H   0  0  0  0  0  0  0  0  0  0  0  0
  140.5720   73.0820  221.7760 C   0  0  0  0  0  0  0  0  0  0  0  0
  139.8110   74.0310  222.3820 N   0  0  0  0  0  0  0  0  0  0  0  0
  139.7650   75.3080  221.9440 C   0  0  0  0  0  0  0  0  0  0  0  0
  138.9700   76.2490  222.6080 C   0  0  0  0  0  0  0  0  0  0  0  0
  138.3791   75.9477  223.4856 H   0  0  0  0  0  0  0  0  0  0  0  0
  138.9260   77.5720  222.1570 C   0  0  0  0  0  0  0  0  0  0  0  0
  138.3031   78.3114  222.6818 H   0  0  0  0  0  0  0  0  0  0  0  0
  139.6730   77.9550  221.0400 C   0  0  0  0  0  0  0  0  0  0  0  0
  139.6374   78.9963  220.6872 H   0  0  0  0  0  0  0  0  0  0  0  0
  140.4660   77.0180  220.3690 C   0  0  0  0  0  0  0  0  0  0  0  0
  141.0488   77.3224  219.4871 H   0  0  0  0  0  0  0  0  0  0  0  0
  140.5190   75.6840  220.8220 C   0  0  0  0  0  0  0  0  0  0  0  0
  141.2980   74.7040  220.1850 C   0  0  0  0  0  0  0  0  0  0  0  0
  141.9680   75.0210  219.1610 O   0  0  0  0  0  0  0  0  0  0  0  0
  141.3300   73.4120  220.6660 N   0  0  0  0  0  0  0  0  0  0  0  0
  142.1250   72.3850  219.9510 C   0  0  0  0  0  0  0  0  0  0  0  0
  141.8783   71.3925  220.3561 H   0  0  0  0  0  0  0  0  0  0  0  0
  141.8805   72.4353  218.8797 H   0  0  0  0  0  0  0  0  0  0  0  0
  143.6040   72.6330  220.1190 C   0  0  0  0  0  0  0  0  0  0  0  0
  144.0560   73.7670  220.8140 C   0  0  0  0  0  0  0  0  0  0  0  0
  143.3292   74.4769  221.2356 H   0  0  0  0  0  0  0  0  0  0  0  0
  145.4270   73.9970  220.9720 C   0  0  0  0  0  0  0  0  0  0  0  0
  145.7751   74.8888  221.5137 H   0  0  0  0  0  0  0  0  0  0  0  0
  146.3550   73.0960  220.4430 C   0  0  0  0  0  0  0  0  0  0  0  0
  147.4324   73.2827  220.5624 H   0  0  0  0  0  0  0  0  0  0  0  0
  145.9150   71.9590  219.7630 C   0  0  0  0  0  0  0  0  0  0  0  0
  146.6463   71.2486  219.3501 H   0  0  0  0  0  0  0  0  0  0  0  0
  144.5460   71.7220  219.6060 C   0  0  0  0  0  0  0  0  0  0  0  0
  144.2037   70.8192  219.0790 H   0  0  0  0  0  0  0  0  0  0  0  0
  140.0830   70.9410  224.6690 C   0  0  0  0  0  0  0  0  0  0  0  0
  139.8850   69.6310  225.1550 C   0  0  0  0  0  0  0  0  0  0  0  0
  139.4058   68.8761  224.5143 H   0  0  0  0  0  0  0  0  0  0  0  0
  140.2950   69.2880  226.4470 C   0  0  0  0  0  0  0  0  0  0  0  0
  140.1361   68.2653  226.8196 H   0  0  0  0  0  0  0  0  0  0  0  0
  140.9060   70.2410  227.2660 C   0  0  0  0  0  0  0  0  0  0  0  0
  141.2214   69.9703  228.2845 H   0  0  0  0  0  0  0  0  0  0  0  0
  141.1160   71.5370  226.7910 C   0  0  0  0  0  0  0  0  0  0  0  0
  141.5999   72.2860  227.4351 H   0  0  0  0  0  0  0  0  0  0  0  0
  140.7120   71.8850  225.4970 C   0  0  0  0  0  0  0  0  0  0  0  0
  140.8884   72.9053  225.1258 H   0  0  0  0  0  0  0  0  0  0  0  0
  1  2  1  0
  2  3  2  0
  3  4  1  0
  3  5  1  0
  5  6  2  0
  6  7  1  0
  7  8  2  0
  8  9  1  0
  8 10  1  0
 10 11  1  0
 10 12  2  0
 12 13  1  0
 12 14  1  0
 14 15  1  0
 14 16  2  0
 16 17  1  0
 17 18  2  0
 17 19  1  0
 19 20  1  0
 20 21  1  0
 20 22  1  0
 20 23  1  0
 23 24  2  0
 24 25  1  0
 24 26  1  0
 26 27  1  0
 26 28  2  0
 28 29  1  0
 28 30  1  0
 30 31  1  0
 30 32  2  0
 32 33  1  0
  2 34  1  0
 34 35  2  0
 35 36  1  0
 35 37  1  0
 37 38  1  0
 37 39  2  0
 39 40  1  0
 39 41  1  0
 41 42  1  0
 41 43  2  0
 43 44  1  0
 19  5  1  0
 32 23  1  0
 43 34  1  0
 16  7  1  0
M  END
>  <UniqueID>  (11) 
46

>  <SMILES>  (11) 
O=c1c2ccccc2nc(/C=C/c2ccccc2)n1Cc1ccccc1

>  <Energy>  (11) 
61.47215714226456

>  <Genealogy>  (11) 
O=c1c2ccccc2nc(/C=C/c2ccccc2)n1Cc1ccccc1 (cis-trans isomerization)
O=c1c2ccccc2nc(/C=C/c2ccccc2)n1Cc1ccccc1 (3D coordinates assigned)
O=c1c2ccccc2nc(/C=C/c2ccccc2)n1Cc1ccccc1 (optimized conformer: 61.47215714226456 kcal/mol)

>  <smiles>  (11) 
O=c1c2ccccc2nc(/C=C/c2ccccc2)n1Cc1ccccc1

>  <score_type>  (11) 
oracle

>  <origin>  (11) 
autodockgpu

>  <m_score__min__energy>  (11) 
-7.6200000000000001

>  <m_primary>  (11) 
energy

>  <meeko>  (11) 
{"free_energy": -7.62, "intermolecular_energy": -9.11, "internal_energy": -0.97, "cluster_size": 1, "cluster_id": 1, "rank_in_cluster": 1}

>  <energy>  (11) 
-6.68

>  <cluster_rmsd>  (11) 
0.05

>  <rmsd>  (11) 
270.15

>  <cluster>  (11) 
3

$$$$
IZQCJYDBOLXUJA-FOCLMDBBNA-N
     RDKit          3D

 44 47  0  0  0  0  0  0  0  0999 V2000
  141.6261   80.6423  219.0585 H   0  0  0  0  0  0  0  0  0  0  0  0
  141.3330   79.9660  219.8750 C   0  0  0  0  0  0  0  0  0  0  0  0
  140.5940   78.8870  219.5730 C   0  0  0  0  0  0  0  0  0  0  0  0
  139.6807   79.0159  218.9736 H   0  0  0  0  0  0  0  0  0  0  0  0
  140.9740   77.5230  220.0250 C   0  0  0  0  0  0  0  0  0  0  0  0
  142.2120   77.0670  219.6910 N   0  0  0  0  0  0  0  0  0  0  0  0
  142.6560   75.8480  220.0670 C   0  0  0  0  0  0  0  0  0  0  0  0
  143.9410   75.4270  219.7030 C   0  0  0  0  0  0  0  0  0  0  0  0
  144.5875   76.0880  219.1071 H   0  0  0  0  0  0  0  0  0  0  0  0
  144.4030   74.1680  220.0960 C   0  0  0  0  0  0  0  0  0  0  0  0
  145.4141   73.8403  219.8125 H   0  0  0  0  0  0  0  0  0  0  0  0
  143.5810   73.3250  220.8490 C   0  0  0  0  0  0  0  0  0  0  0  0
  143.9468   72.3344  221.1570 H   0  0  0  0  0  0  0  0  0  0  0  0
  142.2950   73.7370  221.2120 C   0  0  0  0  0  0  0  0  0  0  0  0
  141.6497   73.0690  221.8014 H   0  0  0  0  0  0  0  0  0  0  0  0
  141.8250   75.0080  220.8230 C   0  0  0  0  0  0  0  0  0  0  0  0
  140.5420   75.4720  221.1610 C   0  0  0  0  0  0  0  0  0  0  0  0
  139.7730   74.7210  221.8260 O   0  0  0  0  0  0  0  0  0  0  0  0
  140.1250   76.7260  220.7700 N   0  0  0  0  0  0  0  0  0  0  0  0
  138.7500   77.1750  221.1000 C   0  0  0  0  0  0  0  0  0  0  0  0
  138.2486   77.5058  220.1785 H   0  0  0  0  0  0  0  0  0  0  0  0
  138.2056   76.3337  221.5537 H   0  0  0  0  0  0  0  0  0  0  0  0
  138.7770   78.3180  222.0850 C   0  0  0  0  0  0  0  0  0  0  0  0
  139.7210   78.3330  223.1250 C   0  0  0  0  0  0  0  0  0  0  0  0
  140.4416   77.5076  223.2222 H   0  0  0  0  0  0  0  0  0  0  0  0
  139.7490   79.3930  224.0380 C   0  0  0  0  0  0  0  0  0  0  0  0
  140.4889   79.3975  224.8519 H   0  0  0  0  0  0  0  0  0  0  0  0
  138.8380   80.4460  223.9170 C   0  0  0  0  0  0  0  0  0  0  0  0
  138.8560   81.2743  224.6406 H   0  0  0  0  0  0  0  0  0  0  0  0
  137.9050   80.4470  222.8780 C   0  0  0  0  0  0  0  0  0  0  0  0
  137.1915   81.2785  222.7810 H   0  0  0  0  0  0  0  0  0  0  0  0
  137.8770   79.3920  221.9610 C   0  0  0  0  0  0  0  0  0  0  0  0
  137.1472   79.4018  221.1380 H   0  0  0  0  0  0  0  0  0  0  0  0
  141.7750   80.2940  221.2520 C   0  0  0  0  0  0  0  0  0  0  0  0
  142.5490   79.4060  222.0280 C   0  0  0  0  0  0  0  0  0  0  0  0
  142.8322   78.4252  221.6184 H   0  0  0  0  0  0  0  0  0  0  0  0
  142.9580   79.7670  223.3160 C   0  0  0  0  0  0  0  0  0  0  0  0
  143.5588   79.0685  223.9169 H   0  0  0  0  0  0  0  0  0  0  0  0
  142.6050   81.0130  223.8410 C   0  0  0  0  0  0  0  0  0  0  0  0
  142.9241   81.2927  224.8558 H   0  0  0  0  0  0  0  0  0  0  0  0
  141.8470   81.9030  223.0770 C   0  0  0  0  0  0  0  0  0  0  0  0
  141.5704   82.8841  223.4905 H   0  0  0  0  0  0  0  0  0  0  0  0
  141.4390   81.5490  221.7870 C   0  0  0  0  0  0  0  0  0  0  0  0
  140.8506   82.2585  221.1867 H   0  0  0  0  0  0  0  0  0  0  0  0
  1  2  1  0
  2  3  2  0
  3  4  1  0
  3  5  1  0
  5  6  2  0
  6  7  1  0
  7  8  2  0
  8  9  1  0
  8 10  1  0
 10 11  1  0
 10 12  2  0
 12 13  1  0
 12 14  1  0
 14 15  1  0
 14 16  2  0
 16 17  1  0
 17 18  2  0
 17 19  1  0
 19 20  1  0
 20 21  1  0
 20 22  1  0
 20 23  1  0
 23 24  2  0
 24 25  1  0
 24 26  1  0
 26 27  1  0
 26 28  2  0
 28 29  1  0
 28 30  1  0
 30 31  1  0
 30 32  2  0
 32 33  1  0
  2 34  1  0
 34 35  2  0
 35 36  1  0
 35 37  1  0
 37 38  1  0
 37 39  2  0
 39 40  1  0
 39 41  1  0
 41 42  1  0
 41 43  2  0
 43 44  1  0
 19  5  1  0
 32 23  1  0
 43 34  1  0
 16  7  1  0
M  END
>  <UniqueID>  (12) 
46

>  <SMILES>  (12) 
O=c1c2ccccc2nc(/C=C/c2ccccc2)n1Cc1ccccc1

>  <Energy>  (12) 
61.47215714226456

>  <Genealogy>  (12) 
O=c1c2ccccc2nc(/C=C/c2ccccc2)n1Cc1ccccc1 (cis-trans isomerization)
O=c1c2ccccc2nc(/C=C/c2ccccc2)n1Cc1ccccc1 (3D coordinates assigned)
O=c1c2ccccc2nc(/C=C/c2ccccc2)n1Cc1ccccc1 (optimized conformer: 61.47215714226456 kcal/mol)

>  <smiles>  (12) 
O=c1c2ccccc2nc(/C=C/c2ccccc2)n1Cc1ccccc1

>  <score_type>  (12) 
oracle

>  <origin>  (12) 
autodockgpu

>  <m_score__min__energy>  (12) 
-7.6200000000000001

>  <m_primary>  (12) 
energy

>  <meeko>  (12) 
{"free_energy": -6.52, "intermolecular_energy": -8.01, "internal_energy": -2.11, "cluster_size": 12, "cluster_id": 3, "rank_in_cluster": 10}

>  <energy>  (12) 
-6.68

>  <cluster_rmsd>  (12) 
0.1

>  <rmsd>  (12) 
270.15

>  <cluster>  (12) 
3

$$$$
IZQCJYDBOLXUJA-FOCLMDBBNA-N
     RDKit          3D

 44 47  0  0  0  0  0  0  0  0999 V2000
  139.3465   73.6117  222.1591 H   0  0  0  0  0  0  0  0  0  0  0  0
  139.9770   72.7340  221.9540 C   0  0  0  0  0  0  0  0  0  0  0  0
  139.4740   71.5160  222.2080 C   0  0  0  0  0  0  0  0  0  0  0  0
  138.9119   70.9954  221.4187 H   0  0  0  0  0  0  0  0  0  0  0  0
  139.6540   70.8500  223.5240 C   0  0  0  0  0  0  0  0  0  0  0  0
  140.1840   71.5850  224.5390 N   0  0  0  0  0  0  0  0  0  0  0  0
  140.3730   71.0750  225.7760 C   0  0  0  0  0  0  0  0  0  0  0  0
  140.9160   71.8750  226.7880 C   0  0  0  0  0  0  0  0  0  0  0  0
  141.1920   72.9183  226.5749 H   0  0  0  0  0  0  0  0  0  0  0  0
  141.1080   71.3500  228.0690 C   0  0  0  0  0  0  0  0  0  0  0  0
  141.5321   71.9809  228.8640 H   0  0  0  0  0  0  0  0  0  0  0  0
  140.7610   70.0230  228.3400 C   0  0  0  0  0  0  0  0  0  0  0  0
  140.9121   69.6115  229.3489 H   0  0  0  0  0  0  0  0  0  0  0  0
  140.2220   69.2170  227.3310 C   0  0  0  0  0  0  0  0  0  0  0  0
  139.9542   68.1721  227.5465 H   0  0  0  0  0  0  0  0  0  0  0  0
  140.0220   69.7430  226.0390 C   0  0  0  0  0  0  0  0  0  0  0  0
  139.4840   68.9770  224.9900 C   0  0  0  0  0  0  0  0  0  0  0  0
  139.1800   67.7690  225.2050 O   0  0  0  0  0  0  0  0  0  0  0  0
  139.2950   69.5330  223.7430 N   0  0  0  0  0  0  0  0  0  0  0  0
  138.7680   68.6920  222.6410 C   0  0  0  0  0  0  0  0  0  0  0  0
  138.9967   69.1745  221.6793 H   0  0  0  0  0  0  0  0  0  0  0  0
  139.2433   67.7016  222.6979 H   0  0  0  0  0  0  0  0  0  0  0  0
  137.2740   68.5160  222.7620 C   0  0  0  0  0  0  0  0  0  0  0  0
  136.6070   67.5700  221.9660 C   0  0  0  0  0  0  0  0  0  0  0  0
  137.1762   66.9568  221.2519 H   0  0  0  0  0  0  0  0  0  0  0  0
  135.2230   67.4040  222.0770 C   0  0  0  0  0  0  0  0  0  0  0  0
  134.7064   66.6640  221.4480 H   0  0  0  0  0  0  0  0  0  0  0  0
  134.4950   68.1770  222.9860 C   0  0  0  0  0  0  0  0  0  0  0  0
  133.4052   68.0509  223.0662 H   0  0  0  0  0  0  0  0  0  0  0  0
  135.1510   69.1090  223.7920 C   0  0  0  0  0  0  0  0  0  0  0  0
  134.5782   69.7135  224.5106 H   0  0  0  0  0  0  0  0  0  0  0  0
  136.5350   69.2750  223.6870 C   0  0  0  0  0  0  0  0  0  0  0  0
  137.0489   70.0034  224.3315 H   0  0  0  0  0  0  0  0  0  0  0  0
  141.3390   72.9580  221.4110 C   0  0  0  0  0  0  0  0  0  0  0  0
  142.2580   71.9050  221.2210 C   0  0  0  0  0  0  0  0  0  0  0  0
  141.9766   70.8770  221.4931 H   0  0  0  0  0  0  0  0  0  0  0  0
  143.5260   72.1620  220.6880 C   0  0  0  0  0  0  0  0  0  0  0  0
  144.2385   71.3364  220.5443 H   0  0  0  0  0  0  0  0  0  0  0  0
  143.8890   73.4650  220.3380 C   0  0  0  0  0  0  0  0  0  0  0  0
  144.8885   73.6656  219.9248 H   0  0  0  0  0  0  0  0  0  0  0  0
  142.9820   74.5130  220.5130 C   0  0  0  0  0  0  0  0  0  0  0  0
  143.2676   75.5383  220.2352 H   0  0  0  0  0  0  0  0  0  0  0  0
  141.7110   74.2610  221.0410 C   0  0  0  0  0  0  0  0  0  0  0  0
  140.9981   75.0891  221.1672 H   0  0  0  0  0  0  0  0  0  0  0  0
  1  2  1  0
  2  3  2  0
  3  4  1  0
  3  5  1  0
  5  6  2  0
  6  7  1  0
  7  8  2  0
  8  9  1  0
  8 10  1  0
 10 11  1  0
 10 12  2  0
 12 13  1  0
 12 14  1  0
 14 15  1  0
 14 16  2  0
 16 17  1  0
 17 18  2  0
 17 19  1  0
 19 20  1  0
 20 21  1  0
 20 22  1  0
 20 23  1  0
 23 24  2  0
 24 25  1  0
 24 26  1  0
 26 27  1  0
 26 28  2  0
 28 29  1  0
 28 30  1  0
 30 31  1  0
 30 32  2  0
 32 33  1  0
  2 34  1  0
 34 35  2  0
 35 36  1  0
 35 37  1  0
 37 38  1  0
 37 39  2  0
 39 40  1  0
 39 41  1  0
 41 42  1  0
 41 43  2  0
 43 44  1  0
 19  5  1  0
 32 23  1  0
 43 34  1  0
 16  7  1  0
M  END
>  <UniqueID>  (13) 
46

>  <SMILES>  (13) 
O=c1c2ccccc2nc(/C=C/c2ccccc2)n1Cc1ccccc1

>  <Energy>  (13) 
61.47215714226456

>  <Genealogy>  (13) 
O=c1c2ccccc2nc(/C=C/c2ccccc2)n1Cc1ccccc1 (cis-trans isomerization)
O=c1c2ccccc2nc(/C=C/c2ccccc2)n1Cc1ccccc1 (3D coordinates assigned)
O=c1c2ccccc2nc(/C=C/c2ccccc2)n1Cc1ccccc1 (optimized conformer: 61.47215714226456 kcal/mol)

>  <smiles>  (13) 
O=c1c2ccccc2nc(/C=C/c2ccccc2)n1Cc1ccccc1

>  <score_type>  (13) 
oracle

>  <origin>  (13) 
autodockgpu

>  <m_score__min__energy>  (13) 
-7.6200000000000001

>  <m_primary>  (13) 
energy

>  <meeko>  (13) 
{"free_energy": -7.35, "intermolecular_energy": -8.84, "internal_energy": -1.19, "cluster_size": 7, "cluster_id": 2, "rank_in_cluster": 3}

>  <energy>  (13) 
-6.66

>  <cluster_rmsd>  (13) 
0.07

>  <rmsd>  (13) 
270.18

>  <cluster>  (13) 
3

$$$$
IZQCJYDBOLXUJA-FOCLMDBBNA-N
     RDKit          3D

 44 47  0  0  0  0  0  0  0  0999 V2000
  141.7632   80.3901  219.0533 H   0  0  0  0  0  0  0  0  0  0  0  0
  141.3990   79.8130  219.9160 C   0  0  0  0  0  0  0  0  0  0  0  0
  140.6120   78.7520  219.6840 C   0  0  0  0  0  0  0  0  0  0  0  0
  139.6519   78.9021  219.1685 H   0  0  0  0  0  0  0  0  0  0  0  0
  140.9990   77.3790  220.1030 C   0  0  0  0  0  0  0  0  0  0  0  0
  142.2390   76.9380  219.7590 N   0  0  0  0  0  0  0  0  0  0  0  0
  142.6900   75.7120  220.1060 C   0  0  0  0  0  0  0  0  0  0  0  0
  143.9770   75.3080  219.7330 C   0  0  0  0  0  0  0  0  0  0  0  0
  144.6201   75.9874  219.1544 H   0  0  0  0  0  0  0  0  0  0  0  0
  144.4460   74.0420  220.0950 C   0  0  0  0  0  0  0  0  0  0  0  0
  145.4587   73.7267  219.8033 H   0  0  0  0  0  0  0  0  0  0  0  0
  143.6280   73.1760  220.8280 C   0  0  0  0  0  0  0  0  0  0  0  0
  143.9990   72.1804  221.1127 H   0  0  0  0  0  0  0  0  0  0  0  0
  142.3390   73.5730  221.2000 C   0  0  0  0  0  0  0  0  0  0  0  0
  141.6965   72.8876  221.7722 H   0  0  0  0  0  0  0  0  0  0  0  0
  141.8630   74.8510  220.8420 C   0  0  0  0  0  0  0  0  0  0  0  0
  140.5780   75.2990  221.1900 C   0  0  0  0  0  0  0  0  0  0  0  0
  139.8120   74.5280  221.8360 O   0  0  0  0  0  0  0  0  0  0  0  0
  140.1530   76.5600  220.8290 N   0  0  0  0  0  0  0  0  0  0  0  0
  138.7770   76.9930  221.1690 C   0  0  0  0  0  0  0  0  0  0  0  0
  138.2459   77.2626  220.2442 H   0  0  0  0  0  0  0  0  0  0  0  0
  138.2651   76.1642  221.6799 H   0  0  0  0  0  0  0  0  0  0  0  0
  138.7980   78.1870  222.0920 C   0  0  0  0  0  0  0  0  0  0  0  0
  137.8220   79.1910  221.9730 C   0  0  0  0  0  0  0  0  0  0  0  0
  137.0410   79.1067  221.2030 H   0  0  0  0  0  0  0  0  0  0  0  0
  137.8390   80.2970  222.8290 C   0  0  0  0  0  0  0  0  0  0  0  0
  137.0740   81.0810  222.7282 H   0  0  0  0  0  0  0  0  0  0  0  0
  138.8260   80.4080  223.8120 C   0  0  0  0  0  0  0  0  0  0  0  0
  138.8427   81.2829  224.4785 H   0  0  0  0  0  0  0  0  0  0  0  0
  139.7910   79.4080  223.9480 C   0  0  0  0  0  0  0  0  0  0  0  0
  140.5649   79.4936  224.7250 H   0  0  0  0  0  0  0  0  0  0  0  0
  139.7750   78.2980  223.0980 C   0  0  0  0  0  0  0  0  0  0  0  0
  140.5304   77.5073  223.2166 H   0  0  0  0  0  0  0  0  0  0  0  0
  141.8040   80.2490  221.2740 C   0  0  0  0  0  0  0  0  0  0  0  0
  142.5760   79.4350  222.1300 C   0  0  0  0  0  0  0  0  0  0  0  0
  142.8858   78.4325  221.7999 H   0  0  0  0  0  0  0  0  0  0  0  0
  142.9490   79.8970  223.3960 C   0  0  0  0  0  0  0  0  0  0  0  0
  143.5499   79.2565  224.0583 H   0  0  0  0  0  0  0  0  0  0  0  0
  142.5610   81.1690  223.8220 C   0  0  0  0  0  0  0  0  0  0  0  0
  142.8513   81.5273  224.8207 H   0  0  0  0  0  0  0  0  0  0  0  0
  141.8040   81.9860  222.9790 C   0  0  0  0  0  0  0  0  0  0  0  0
  141.4997   82.9885  223.3144 H   0  0  0  0  0  0  0  0  0  0  0  0
  141.4320   81.5320  221.7090 C   0  0  0  0  0  0  0  0  0  0  0  0
  140.8441   82.1842  221.0464 H   0  0  0  0  0  0  0  0  0  0  0  0
  1  2  1  0
  2  3  2  0
  3  4  1  0
  3  5  1  0
  5  6  2  0
  6  7  1  0
  7  8  2  0
  8  9  1  0
  8 10  1  0
 10 11  1  0
 10 12  2  0
 12 13  1  0
 12 14  1  0
 14 15  1  0
 14 16  2  0
 16 17  1  0
 17 18  2  0
 17 19  1  0
 19 20  1  0
 20 21  1  0
 20 22  1  0
 20 23  1  0
 23 24  2  0
 24 25  1  0
 24 26  1  0
 26 27  1  0
 26 28  2  0
 28 29  1  0
 28 30  1  0
 30 31  1  0
 30 32  2  0
 32 33  1  0
  2 34  1  0
 34 35  2  0
 35 36  1  0
 35 37  1  0
 37 38  1  0
 37 39  2  0
 39 40  1  0
 39 41  1  0
 41 42  1  0
 41 43  2  0
 43 44  1  0
 19  5  1  0
 32 23  1  0
 43 34  1  0
 16  7  1  0
M  END
>  <UniqueID>  (14) 
46

>  <SMILES>  (14) 
O=c1c2ccccc2nc(/C=C/c2ccccc2)n1Cc1ccccc1

>  <Energy>  (14) 
61.47215714226456

>  <Genealogy>  (14) 
O=c1c2ccccc2nc(/C=C/c2ccccc2)n1Cc1ccccc1 (cis-trans isomerization)
O=c1c2ccccc2nc(/C=C/c2ccccc2)n1Cc1ccccc1 (3D coordinates assigned)
O=c1c2ccccc2nc(/C=C/c2ccccc2)n1Cc1ccccc1 (optimized conformer: 61.47215714226456 kcal/mol)

>  <smiles>  (14) 
O=c1c2ccccc2nc(/C=C/c2ccccc2)n1Cc1ccccc1

>  <score_type>  (14) 
oracle

>  <origin>  (14) 
autodockgpu

>  <m_score__min__energy>  (14) 
-7.6200000000000001

>  <m_primary>  (14) 
energy

>  <meeko>  (14) 
{"free_energy": -6.72, "intermolecular_energy": -8.21, "internal_energy": -1.97, "cluster_size": 12, "cluster_id": 3, "rank_in_cluster": 1}

>  <energy>  (14) 
-6.64

>  <cluster_rmsd>  (14) 
0.06

>  <rmsd>  (14) 
270.16

>  <cluster>  (14) 
3

$$$$
IZQCJYDBOLXUJA-FOCLMDBBNA-N
     RDKit          3D

 44 47  0  0  0  0  0  0  0  0999 V2000
  141.6282   80.4891  219.0867 H   0  0  0  0  0  0  0  0  0  0  0  0
  141.3150   79.8710  219.9410 C   0  0  0  0  0  0  0  0  0  0  0  0
  140.5510   78.7940  219.7010 C   0  0  0  0  0  0  0  0  0  0  0  0
  139.5905   78.9256  219.1813 H   0  0  0  0  0  0  0  0  0  0  0  0
  140.9650   77.4290  220.1170 C   0  0  0  0  0  0  0  0  0  0  0  0
  142.2070   77.0060  219.7580 N   0  0  0  0  0  0  0  0  0  0  0  0
  142.6810   75.7880  220.1010 C   0  0  0  0  0  0  0  0  0  0  0  0
  143.9690   75.4030  219.7120 C   0  0  0  0  0  0  0  0  0  0  0  0
  144.5940   76.0911  219.1239 H   0  0  0  0  0  0  0  0  0  0  0  0
  144.4620   74.1450  220.0700 C   0  0  0  0  0  0  0  0  0  0  0  0
  145.4760   73.8452  219.7669 H   0  0  0  0  0  0  0  0  0  0  0  0
  143.6670   73.2680  220.8130 C   0  0  0  0  0  0  0  0  0  0  0  0
  144.0569   72.2786  221.0942 H   0  0  0  0  0  0  0  0  0  0  0  0
  142.3770   73.6450  221.2000 C   0  0  0  0  0  0  0  0  0  0  0  0
  141.7526   72.9501  221.7807 H   0  0  0  0  0  0  0  0  0  0  0  0
  141.8760   74.9140  220.8470 C   0  0  0  0  0  0  0  0  0  0  0  0
  140.5880   75.3430  221.2100 C   0  0  0  0  0  0  0  0  0  0  0  0
  139.8430   74.5610  221.8660 O   0  0  0  0  0  0  0  0  0  0  0  0
  140.1400   76.5970  220.8530 N   0  0  0  0  0  0  0  0  0  0  0  0
  138.7610   77.0090  221.2090 C   0  0  0  0  0  0  0  0  0  0  0  0
  138.2198   77.2846  220.2918 H   0  0  0  0  0  0  0  0  0  0  0  0
  138.2627   76.1674  221.7124 H   0  0  0  0  0  0  0  0  0  0  0  0
  138.7750   78.1910  222.1480 C   0  0  0  0  0  0  0  0  0  0  0  0
  137.7780   79.1760  222.0590 C   0  0  0  0  0  0  0  0  0  0  0  0
  136.9857   79.0863  221.3012 H   0  0  0  0  0  0  0  0  0  0  0  0
  137.7880   80.2710  222.9300 C   0  0  0  0  0  0  0  0  0  0  0  0
  137.0063   81.0410  222.8530 H   0  0  0  0  0  0  0  0  0  0  0  0
  138.7900   80.3880  223.8980 C   0  0  0  0  0  0  0  0  0  0  0  0
  138.8008   81.2535  224.5768 H   0  0  0  0  0  0  0  0  0  0  0  0
  139.7770   79.4060  224.0030 C   0  0  0  0  0  0  0  0  0  0  0  0
  140.5627   79.4965  224.7675 H   0  0  0  0  0  0  0  0  0  0  0  0
  139.7680   78.3080  223.1380 C   0  0  0  0  0  0  0  0  0  0  0  0
  140.5413   77.5313  223.2317 H   0  0  0  0  0  0  0  0  0  0  0  0
  141.7590   80.2710  221.2990 C   0  0  0  0  0  0  0  0  0  0  0  0
  142.5580   79.4370  222.1080 C   0  0  0  0  0  0  0  0  0  0  0  0
  142.8603   78.4451  221.7410 H   0  0  0  0  0  0  0  0  0  0  0  0
  142.9680   79.8650  223.3750 C   0  0  0  0  0  0  0  0  0  0  0  0
  143.5892   79.2083  224.0018 H   0  0  0  0  0  0  0  0  0  0  0  0
  142.5900   81.1250  223.8460 C   0  0  0  0  0  0  0  0  0  0  0  0
  142.9094   81.4574  224.8447 H   0  0  0  0  0  0  0  0  0  0  0  0
  141.8070   81.9620  223.0490 C   0  0  0  0  0  0  0  0  0  0  0  0
  141.5111   82.9543  223.4202 H   0  0  0  0  0  0  0  0  0  0  0  0
  141.3980   81.5410  221.7790 C   0  0  0  0  0  0  0  0  0  0  0  0
  140.7894   82.2091  221.1519 H   0  0  0  0  0  0  0  0  0  0  0  0
  1  2  1  0
  2  3  2  0
  3  4  1  0
  3  5  1  0
  5  6  2  0
  6  7  1  0
  7  8  2  0
  8  9  1  0
  8 10  1  0
 10 11  1  0
 10 12  2  0
 12 13  1  0
 12 14  1  0
 14 15  1  0
 14 16  2  0
 16 17  1  0
 17 18  2  0
 17 19  1  0
 19 20  1  0
 20 21  1  0
 20 22  1  0
 20 23  1  0
 23 24  2  0
 24 25  1  0
 24 26  1  0
 26 27  1  0
 26 28  2  0
 28 29  1  0
 28 30  1  0
 30 31  1  0
 30 32  2  0
 32 33  1  0
  2 34  1  0
 34 35  2  0
 35 36  1  0
 35 37  1  0
 37 38  1  0
 37 39  2  0
 39 40  1  0
 39 41  1  0
 41 42  1  0
 41 43  2  0
 43 44  1  0
 19  5  1  0
 32 23  1  0
 43 34  1  0
 16  7  1  0
M  END
>  <UniqueID>  (15) 
46

>  <SMILES>  (15) 
O=c1c2ccccc2nc(/C=C/c2ccccc2)n1Cc1ccccc1

>  <Energy>  (15) 
61.47215714226456

>  <Genealogy>  (15) 
O=c1c2ccccc2nc(/C=C/c2ccccc2)n1Cc1ccccc1 (cis-trans isomerization)
O=c1c2ccccc2nc(/C=C/c2ccccc2)n1Cc1ccccc1 (3D coordinates assigned)
O=c1c2ccccc2nc(/C=C/c2ccccc2)n1Cc1ccccc1 (optimized conformer: 61.47215714226456 kcal/mol)

>  <smiles>  (15) 
O=c1c2ccccc2nc(/C=C/c2ccccc2)n1Cc1ccccc1

>  <score_type>  (15) 
oracle

>  <origin>  (15) 
autodockgpu

>  <m_score__min__energy>  (15) 
-7.6200000000000001

>  <m_primary>  (15) 
energy

>  <meeko>  (15) 
{"free_energy": -6.66, "intermolecular_energy": -8.15, "internal_energy": -2.0, "cluster_size": 12, "cluster_id": 3, "rank_in_cluster": 5}

>  <energy>  (15) 
-6.64

>  <cluster_rmsd>  (15) 
0.1

>  <rmsd>  (15) 
270.15

>  <cluster>  (15) 
3

$$$$
IZQCJYDBOLXUJA-FOCLMDBBNA-N
     RDKit          3D

 44 47  0  0  0  0  0  0  0  0999 V2000
  139.4305   73.5762  222.1931 H   0  0  0  0  0  0  0  0  0  0  0  0
  140.0750   72.7200  221.9450 C   0  0  0  0  0  0  0  0  0  0  0  0
  139.6070   71.4840  222.1760 C   0  0  0  0  0  0  0  0  0  0  0  0
  139.1004   70.9441  221.3624 H   0  0  0  0  0  0  0  0  0  0  0  0
  139.7530   70.8230  223.4990 C   0  0  0  0  0  0  0  0  0  0  0  0
  140.2760   71.5550  224.5190 N   0  0  0  0  0  0  0  0  0  0  0  0
  140.4350   71.0500  225.7620 C   0  0  0  0  0  0  0  0  0  0  0  0
  140.9730   71.8470  226.7790 C   0  0  0  0  0  0  0  0  0  0  0  0
  141.2695   72.8845  226.5652 H   0  0  0  0  0  0  0  0  0  0  0  0
  141.1340   71.3260  228.0660 C   0  0  0  0  0  0  0  0  0  0  0  0
  141.5546   71.9546  228.8647 H   0  0  0  0  0  0  0  0  0  0  0  0
  140.7610   70.0070  228.3390 C   0  0  0  0  0  0  0  0  0  0  0  0
  140.8874   69.5994  229.3528 H   0  0  0  0  0  0  0  0  0  0  0  0
  140.2270   69.2040  227.3250 C   0  0  0  0  0  0  0  0  0  0  0  0
  139.9386   68.1649  227.5422 H   0  0  0  0  0  0  0  0  0  0  0  0
  140.0580   69.7240  226.0260 C   0  0  0  0  0  0  0  0  0  0  0  0
  139.5270   68.9620  224.9730 C   0  0  0  0  0  0  0  0  0  0  0  0
  139.2000   67.7600  225.1890 O   0  0  0  0  0  0  0  0  0  0  0  0
  139.3680   69.5120  223.7190 N   0  0  0  0  0  0  0  0  0  0  0  0
  138.8480   68.6730  222.6130 C   0  0  0  0  0  0  0  0  0  0  0  0
  139.0628   69.1678  221.6544 H   0  0  0  0  0  0  0  0  0  0  0  0
  139.3396   67.6899  222.6576 H   0  0  0  0  0  0  0  0  0  0  0  0
  137.3570   68.4720  222.7420 C   0  0  0  0  0  0  0  0  0  0  0  0
  136.6130   69.2590  223.6370 C   0  0  0  0  0  0  0  0  0  0  0  0
  137.1192   70.0225  224.2460 H   0  0  0  0  0  0  0  0  0  0  0  0
  135.2320   69.0760  223.7570 C   0  0  0  0  0  0  0  0  0  0  0  0
  134.6557   69.6933  224.4619 H   0  0  0  0  0  0  0  0  0  0  0  0
  134.5820   68.1100  222.9830 C   0  0  0  0  0  0  0  0  0  0  0  0
  133.4967   67.9622  223.0844 H   0  0  0  0  0  0  0  0  0  0  0  0
  135.3120   67.3330  222.0810 C   0  0  0  0  0  0  0  0  0  0  0  0
  134.8001   66.5755  221.4693 H   0  0  0  0  0  0  0  0  0  0  0  0
  136.6920   67.5160  221.9540 C   0  0  0  0  0  0  0  0  0  0  0  0
  137.2606   66.9091  221.2340 H   0  0  0  0  0  0  0  0  0  0  0  0
  141.4150   72.9920  221.3730 C   0  0  0  0  0  0  0  0  0  0  0  0
  141.8340   74.2910  221.0150 C   0  0  0  0  0  0  0  0  0  0  0  0
  141.1498   75.1424  221.1456 H   0  0  0  0  0  0  0  0  0  0  0  0
  143.1150   74.5010  220.4950 C   0  0  0  0  0  0  0  0  0  0  0  0
  143.4337   75.5157  220.2144 H   0  0  0  0  0  0  0  0  0  0  0  0
  143.9910   73.4250  220.3310 C   0  0  0  0  0  0  0  0  0  0  0  0
  144.9967   73.5926  219.9182 H   0  0  0  0  0  0  0  0  0  0  0  0
  143.5900   72.1370  220.6910 C   0  0  0  0  0  0  0  0  0  0  0  0
  144.2809   71.2907  220.5624 H   0  0  0  0  0  0  0  0  0  0  0  0
  142.3110   71.9210  221.2150 C   0  0  0  0  0  0  0  0  0  0  0  0
  142.0044   70.9053  221.5055 H   0  0  0  0  0  0  0  0  0  0  0  0
  1  2  1  0
  2  3  2  0
  3  4  1  0
  3  5  1  0
  5  6  2  0
  6  7  1  0
  7  8  2  0
  8  9  1  0
  8 10  1  0
 10 11  1  0
 10 12  2  0
 12 13  1  0
 12 14  1  0
 14 15  1  0
 14 16  2  0
 16 17  1  0
 17 18  2  0
 17 19  1  0
 19 20  1  0
 20 21  1  0
 20 22  1  0
 20 23  1  0
 23 24  2  0
 24 25  1  0
 24 26  1  0
 26 27  1  0
 26 28  2  0
 28 29  1  0
 28 30  1  0
 30 31  1  0
 30 32  2  0
 32 33  1  0
  2 34  1  0
 34 35  2  0
 35 36  1  0
 35 37  1  0
 37 38  1  0
 37 39  2  0
 39 40  1  0
 39 41  1  0
 41 42  1  0
 41 43  2  0
 43 44  1  0
 19  5  1  0
 32 23  1  0
 43 34  1  0
 16  7  1  0
M  END
>  <UniqueID>  (16) 
46

>  <SMILES>  (16) 
O=c1c2ccccc2nc(/C=C/c2ccccc2)n1Cc1ccccc1

>  <Energy>  (16) 
61.47215714226456

>  <Genealogy>  (16) 
O=c1c2ccccc2nc(/C=C/c2ccccc2)n1Cc1ccccc1 (cis-trans isomerization)
O=c1c2ccccc2nc(/C=C/c2ccccc2)n1Cc1ccccc1 (3D coordinates assigned)
O=c1c2ccccc2nc(/C=C/c2ccccc2)n1Cc1ccccc1 (optimized conformer: 61.47215714226456 kcal/mol)

>  <smiles>  (16) 
O=c1c2ccccc2nc(/C=C/c2ccccc2)n1Cc1ccccc1

>  <score_type>  (16) 
oracle

>  <origin>  (16) 
autodockgpu

>  <m_score__min__energy>  (16) 
-7.6200000000000001

>  <m_primary>  (16) 
energy

>  <meeko>  (16) 
{"free_energy": -7.38, "intermolecular_energy": -8.87, "internal_energy": -1.18, "cluster_size": 7, "cluster_id": 2, "rank_in_cluster": 2}

>  <energy>  (16) 
-6.64

>  <cluster_rmsd>  (16) 
0.07

>  <rmsd>  (16) 
270.14

>  <cluster>  (16) 
3

$$$$
IZQCJYDBOLXUJA-FOCLMDBBNA-N
     RDKit          3D

 44 47  0  0  0  0  0  0  0  0999 V2000
  141.5338   80.4682  219.0742 H   0  0  0  0  0  0  0  0  0  0  0  0
  141.2450   79.8430  219.9320 C   0  0  0  0  0  0  0  0  0  0  0  0
  140.4800   78.7640  219.7040 C   0  0  0  0  0  0  0  0  0  0  0  0
  139.5146   78.8924  219.1927 H   0  0  0  0  0  0  0  0  0  0  0  0
  140.8990   77.4010  220.1220 C   0  0  0  0  0  0  0  0  0  0  0  0
  142.1390   76.9780  219.7550 N   0  0  0  0  0  0  0  0  0  0  0  0
  142.6180   75.7630  220.0980 C   0  0  0  0  0  0  0  0  0  0  0  0
  143.9040   75.3780  219.7010 C   0  0  0  0  0  0  0  0  0  0  0  0
  144.5235   76.0647  219.1054 H   0  0  0  0  0  0  0  0  0  0  0  0
  144.4020   74.1230  220.0600 C   0  0  0  0  0  0  0  0  0  0  0  0
  145.4141   73.8241  219.7498 H   0  0  0  0  0  0  0  0  0  0  0  0
  143.6150   73.2470  220.8130 C   0  0  0  0  0  0  0  0  0  0  0  0
  144.0090   72.2594  221.0948 H   0  0  0  0  0  0  0  0  0  0  0  0
  142.3270   73.6240  221.2090 C   0  0  0  0  0  0  0  0  0  0  0  0
  141.7084   72.9305  221.7975 H   0  0  0  0  0  0  0  0  0  0  0  0
  141.8210   74.8910  220.8550 C   0  0  0  0  0  0  0  0  0  0  0  0
  140.5360   75.3190  221.2270 C   0  0  0  0  0  0  0  0  0  0  0  0
  139.7970   74.5380  221.8920 O   0  0  0  0  0  0  0  0  0  0  0  0
  140.0830   76.5710  220.8680 N   0  0  0  0  0  0  0  0  0  0  0  0
  138.7060   76.9820  221.2340 C   0  0  0  0  0  0  0  0  0  0  0  0
  138.1580   77.2572  220.3208 H   0  0  0  0  0  0  0  0  0  0  0  0
  138.2119   76.1400  221.7408 H   0  0  0  0  0  0  0  0  0  0  0  0
  138.7260   78.1640  222.1730 C   0  0  0  0  0  0  0  0  0  0  0  0
  139.7580   78.2980  223.1170 C   0  0  0  0  0  0  0  0  0  0  0  0
  140.5519   77.5386  223.1721 H   0  0  0  0  0  0  0  0  0  0  0  0
  139.7800   79.3930  223.9870 C   0  0  0  0  0  0  0  0  0  0  0  0
  140.5889   79.4909  224.7260 H   0  0  0  0  0  0  0  0  0  0  0  0
  138.7760   80.3630  223.9190 C   0  0  0  0  0  0  0  0  0  0  0  0
  138.7902   81.2190  224.6097 H   0  0  0  0  0  0  0  0  0  0  0  0
  137.7550   80.2450  222.9740 C   0  0  0  0  0  0  0  0  0  0  0  0
  136.9681   81.0115  222.9174 H   0  0  0  0  0  0  0  0  0  0  0  0
  137.7310   79.1550  222.1000 C   0  0  0  0  0  0  0  0  0  0  0  0
  136.9297   79.0717  221.3511 H   0  0  0  0  0  0  0  0  0  0  0  0
  141.7210   80.2360  221.2800 C   0  0  0  0  0  0  0  0  0  0  0  0
  142.5350   79.3960  222.0680 C   0  0  0  0  0  0  0  0  0  0  0  0
  142.8253   78.4043  221.6908 H   0  0  0  0  0  0  0  0  0  0  0  0
  142.9750   79.8180  223.3270 C   0  0  0  0  0  0  0  0  0  0  0  0
  143.6074   79.1566  223.9374 H   0  0  0  0  0  0  0  0  0  0  0  0
  142.6130   81.0780  223.8110 C   0  0  0  0  0  0  0  0  0  0  0  0
  142.9563   81.4058  224.8033 H   0  0  0  0  0  0  0  0  0  0  0  0
  141.8150   81.9210  223.0340 C   0  0  0  0  0  0  0  0  0  0  0  0
  141.5314   82.9132  223.4149 H   0  0  0  0  0  0  0  0  0  0  0  0
  141.3760   81.5060  221.7730 C   0  0  0  0  0  0  0  0  0  0  0  0
  140.7559   82.1787  221.1622 H   0  0  0  0  0  0  0  0  0  0  0  0
  1  2  1  0
  2  3  2  0
  3  4  1  0
  3  5  1  0
  5  6  2  0
  6  7  1  0
  7  8  2  0
  8  9  1  0
  8 10  1  0
 10 11  1  0
 10 12  2  0
 12 13  1  0
 12 14  1  0
 14 15  1  0
 14 16  2  0
 16 17  1  0
 17 18  2  0
 17 19  1  0
 19 20  1  0
 20 21  1  0
 20 22  1  0
 20 23  1  0
 23 24  2  0
 24 25  1  0
 24 26  1  0
 26 27  1  0
 26 28  2  0
 28 29  1  0
 28 30  1  0
 30 31  1  0
 30 32  2  0
 32 33  1  0
  2 34  1  0
 34 35  2  0
 35 36  1  0
 35 37  1  0
 37 38  1  0
 37 39  2  0
 39 40  1  0
 39 41  1  0
 41 42  1  0
 41 43  2  0
 43 44  1  0
 19  5  1  0
 32 23  1  0
 43 34  1  0
 16  7  1  0
M  END
>  <UniqueID>  (17) 
46

>  <SMILES>  (17) 
O=c1c2ccccc2nc(/C=C/c2ccccc2)n1Cc1ccccc1

>  <Energy>  (17) 
61.47215714226456

>  <Genealogy>  (17) 
O=c1c2ccccc2nc(/C=C/c2ccccc2)n1Cc1ccccc1 (cis-trans isomerization)
O=c1c2ccccc2nc(/C=C/c2ccccc2)n1Cc1ccccc1 (3D coordinates assigned)
O=c1c2ccccc2nc(/C=C/c2ccccc2)n1Cc1ccccc1 (optimized conformer: 61.47215714226456 kcal/mol)

>  <smiles>  (17) 
O=c1c2ccccc2nc(/C=C/c2ccccc2)n1Cc1ccccc1

>  <score_type>  (17) 
oracle

>  <origin>  (17) 
autodockgpu

>  <m_score__min__energy>  (17) 
-7.6200000000000001

>  <m_primary>  (17) 
energy

>  <meeko>  (17) 
{"free_energy": -6.68, "intermolecular_energy": -8.17, "internal_energy": -1.99, "cluster_size": 12, "cluster_id": 3, "rank_in_cluster": 4}

>  <energy>  (17) 
-6.59

>  <cluster_rmsd>  (17) 
0.1

>  <rmsd>  (17) 
270.17

>  <cluster>  (17) 
3

$$$$
IZQCJYDBOLXUJA-FOCLMDBBNA-N
     RDKit          3D

 44 47  0  0  0  0  0  0  0  0999 V2000
  141.7313   80.4154  219.0158 H   0  0  0  0  0  0  0  0  0  0  0  0
  141.3760   79.8440  219.8860 C   0  0  0  0  0  0  0  0  0  0  0  0
  140.5900   78.7780  219.6700 C   0  0  0  0  0  0  0  0  0  0  0  0
  139.6244   78.9207  219.1628 H   0  0  0  0  0  0  0  0  0  0  0  0
  140.9860   77.4100  220.0960 C   0  0  0  0  0  0  0  0  0  0  0  0
  142.2240   76.9700  219.7450 N   0  0  0  0  0  0  0  0  0  0  0  0
  142.6830   75.7500  220.0980 C   0  0  0  0  0  0  0  0  0  0  0  0
  143.9680   75.3470  219.7170 C   0  0  0  0  0  0  0  0  0  0  0  0
  144.6040   76.0238  219.1275 H   0  0  0  0  0  0  0  0  0  0  0  0
  144.4440   74.0850  220.0850 C   0  0  0  0  0  0  0  0  0  0  0  0
  145.4555   73.7711  219.7878 H   0  0  0  0  0  0  0  0  0  0  0  0
  143.6360   73.2220  220.8300 C   0  0  0  0  0  0  0  0  0  0  0  0
  144.0132   72.2300  221.1192 H   0  0  0  0  0  0  0  0  0  0  0  0
  142.3480   73.6170  221.2090 C   0  0  0  0  0  0  0  0  0  0  0  0
  141.7126   72.9331  221.7909 H   0  0  0  0  0  0  0  0  0  0  0  0
  141.8640   74.8900  220.8460 C   0  0  0  0  0  0  0  0  0  0  0  0
  140.5800   75.3360  221.2010 C   0  0  0  0  0  0  0  0  0  0  0  0
  139.8220   74.5670  221.8580 O   0  0  0  0  0  0  0  0  0  0  0  0
  140.1480   76.5930  220.8340 N   0  0  0  0  0  0  0  0  0  0  0  0
  138.7730   77.0240  221.1810 C   0  0  0  0  0  0  0  0  0  0  0  0
  138.2407   77.3043  220.2601 H   0  0  0  0  0  0  0  0  0  0  0  0
  138.2609   76.1903  221.6837 H   0  0  0  0  0  0  0  0  0  0  0  0
  138.7970   78.2080  222.1170 C   0  0  0  0  0  0  0  0  0  0  0  0
  137.8450   79.2330  221.9830 C   0  0  0  0  0  0  0  0  0  0  0  0
  137.0813   79.1719  221.1936 H   0  0  0  0  0  0  0  0  0  0  0  0
  137.8650   80.3310  222.8500 C   0  0  0  0  0  0  0  0  0  0  0  0
  137.1203   81.1328  222.7378 H   0  0  0  0  0  0  0  0  0  0  0  0
  138.8300   80.4110  223.8590 C   0  0  0  0  0  0  0  0  0  0  0  0
  138.8486   81.2782  224.5355 H   0  0  0  0  0  0  0  0  0  0  0  0
  139.7700   79.3890  224.0070 C   0  0  0  0  0  0  0  0  0  0  0  0
  140.5264   79.4502  224.8034 H   0  0  0  0  0  0  0  0  0  0  0  0
  139.7520   78.2890  223.1460 C   0  0  0  0  0  0  0  0  0  0  0  0
  140.4886   77.4821  223.2736 H   0  0  0  0  0  0  0  0  0  0  0  0
  141.7900   80.2910  221.2380 C   0  0  0  0  0  0  0  0  0  0  0  0
  141.4250   81.5490  221.7620 C   0  0  0  0  0  0  0  0  0  0  0  0
  140.8234   82.2410  221.1544 H   0  0  0  0  0  0  0  0  0  0  0  0
  141.8240   81.9210  223.0500 C   0  0  0  0  0  0  0  0  0  0  0  0
  141.5373   82.9043  223.4510 H   0  0  0  0  0  0  0  0  0  0  0  0
  142.5860   81.0460  223.8280 C   0  0  0  0  0  0  0  0  0  0  0  0
  142.9040   81.3430  224.8383 H   0  0  0  0  0  0  0  0  0  0  0  0
  142.9440   79.7940  223.3230 C   0  0  0  0  0  0  0  0  0  0  0  0
  143.5416   79.1046  223.9375 H   0  0  0  0  0  0  0  0  0  0  0  0
  142.5440   79.4150  222.0370 C   0  0  0  0  0  0  0  0  0  0  0  0
  142.8218   78.4241  221.6486 H   0  0  0  0  0  0  0  0  0  0  0  0
  1  2  1  0
  2  3  2  0
  3  4  1  0
  3  5  1  0
  5  6  2  0
  6  7  1  0
  7  8  2  0
  8  9  1  0
  8 10  1  0
 10 11  1  0
 10 12  2  0
 12 13  1  0
 12 14  1  0
 14 15  1  0
 14 16  2  0
 16 17  1  0
 17 18  2  0
 17 19  1  0
 19 20  1  0
 20 21  1  0
 20 22  1  0
 20 23  1  0
 23 24  2  0
 24 25  1  0
 24 26  1  0
 26 27  1  0
 26 28  2  0
 28 29  1  0
 28 30  1  0
 30 31  1  0
 30 32  2  0
 32 33  1  0
  2 34  1  0
 34 35  2  0
 35 36  1  0
 35 37  1  0
 37 38  1  0
 37 39  2  0
 39 40  1  0
 39 41  1  0
 41 42  1  0
 41 43  2  0
 43 44  1  0
 19  5  1  0
 32 23  1  0
 43 34  1  0
 16  7  1  0
M  END
>  <UniqueID>  (18) 
46

>  <SMILES>  (18) 
O=c1c2ccccc2nc(/C=C/c2ccccc2)n1Cc1ccccc1

>  <Energy>  (18) 
61.47215714226456

>  <Genealogy>  (18) 
O=c1c2ccccc2nc(/C=C/c2ccccc2)n1Cc1ccccc1 (cis-trans isomerization)
O=c1c2ccccc2nc(/C=C/c2ccccc2)n1Cc1ccccc1 (3D coordinates assigned)
O=c1c2ccccc2nc(/C=C/c2ccccc2)n1Cc1ccccc1 (optimized conformer: 61.47215714226456 kcal/mol)

>  <smiles>  (18) 
O=c1c2ccccc2nc(/C=C/c2ccccc2)n1Cc1ccccc1

>  <score_type>  (18) 
oracle

>  <origin>  (18) 
autodockgpu

>  <m_score__min__energy>  (18) 
-7.6200000000000001

>  <m_primary>  (18) 
energy

>  <meeko>  (18) 
{"free_energy": -6.64, "intermolecular_energy": -8.13, "internal_energy": -2.03, "cluster_size": 12, "cluster_id": 3, "rank_in_cluster": 6}

>  <energy>  (18) 
-6.52

>  <cluster_rmsd>  (18) 
0.15

>  <rmsd>  (18) 
270.16

>  <cluster>  (18) 
3

$$$$
IZQCJYDBOLXUJA-FOCLMDBBNA-N
     RDKit          3D

 44 47  0  0  0  0  0  0  0  0999 V2000
  141.6573   80.4399  219.0452 H   0  0  0  0  0  0  0  0  0  0  0  0
  141.3310   79.8320  219.9020 C   0  0  0  0  0  0  0  0  0  0  0  0
  140.5610   78.7590  219.6640 C   0  0  0  0  0  0  0  0  0  0  0  0
  139.6041   78.8942  219.1386 H   0  0  0  0  0  0  0  0  0  0  0  0
  140.9640   77.3930  220.0900 C   0  0  0  0  0  0  0  0  0  0  0  0
  142.2030   76.9580  219.7370 N   0  0  0  0  0  0  0  0  0  0  0  0
  142.6680   75.7390  220.0880 C   0  0  0  0  0  0  0  0  0  0  0  0
  143.9540   75.3420  219.7040 C   0  0  0  0  0  0  0  0  0  0  0  0
  144.5851   76.0213  219.1121 H   0  0  0  0  0  0  0  0  0  0  0  0
  144.4370   74.0830  220.0720 C   0  0  0  0  0  0  0  0  0  0  0  0
  145.4493   73.7735  219.7729 H   0  0  0  0  0  0  0  0  0  0  0  0
  143.6340   73.2170  220.8200 C   0  0  0  0  0  0  0  0  0  0  0  0
  144.0162   72.2268  221.1090 H   0  0  0  0  0  0  0  0  0  0  0  0
  142.3460   73.6060  221.2020 C   0  0  0  0  0  0  0  0  0  0  0  0
  141.7154   72.9197  221.7862 H   0  0  0  0  0  0  0  0  0  0  0  0
  141.8550   74.8770  220.8390 C   0  0  0  0  0  0  0  0  0  0  0  0
  140.5700   75.3180  221.1980 C   0  0  0  0  0  0  0  0  0  0  0  0
  139.8180   74.5460  221.8580 O   0  0  0  0  0  0  0  0  0  0  0  0
  140.1320   76.5720  220.8310 N   0  0  0  0  0  0  0  0  0  0  0  0
  138.7560   76.9980  221.1820 C   0  0  0  0  0  0  0  0  0  0  0  0
  138.2205   77.2773  220.2627 H   0  0  0  0  0  0  0  0  0  0  0  0
  138.2482   76.1620  221.6852 H   0  0  0  0  0  0  0  0  0  0  0  0
  138.7780   78.1810  222.1190 C   0  0  0  0  0  0  0  0  0  0  0  0
  137.7910   79.1760  222.0230 C   0  0  0  0  0  0  0  0  0  0  0  0
  137.0015   79.0926  221.2616 H   0  0  0  0  0  0  0  0  0  0  0  0
  137.8080   80.2730  222.8920 C   0  0  0  0  0  0  0  0  0  0  0  0
  137.0344   81.0507  222.8097 H   0  0  0  0  0  0  0  0  0  0  0  0
  138.8060   80.3820  223.8640 C   0  0  0  0  0  0  0  0  0  0  0  0
  138.8226   81.2491  224.5407 H   0  0  0  0  0  0  0  0  0  0  0  0
  139.7830   79.3890  223.9760 C   0  0  0  0  0  0  0  0  0  0  0  0
  140.5660   79.4726  224.7441 H   0  0  0  0  0  0  0  0  0  0  0  0
  139.7660   78.2900  223.1130 C   0  0  0  0  0  0  0  0  0  0  0  0
  140.5305   77.5053  223.2121 H   0  0  0  0  0  0  0  0  0  0  0  0
  141.7650   80.2410  221.2600 C   0  0  0  0  0  0  0  0  0  0  0  0
  142.5500   79.4080  222.0840 C   0  0  0  0  0  0  0  0  0  0  0  0
  142.8476   78.4103  221.7290 H   0  0  0  0  0  0  0  0  0  0  0  0
  142.9520   79.8450  223.3510 C   0  0  0  0  0  0  0  0  0  0  0  0
  143.5640   79.1901  223.9887 H   0  0  0  0  0  0  0  0  0  0  0  0
  142.5780   81.1110  223.8080 C   0  0  0  0  0  0  0  0  0  0  0  0
  142.8889   81.4493  224.8074 H   0  0  0  0  0  0  0  0  0  0  0  0
  141.8090   81.9470  222.9950 C   0  0  0  0  0  0  0  0  0  0  0  0
  141.5182   82.9453  223.3540 H   0  0  0  0  0  0  0  0  0  0  0  0
  141.4080   81.5180  221.7260 C   0  0  0  0  0  0  0  0  0  0  0  0
  140.8090   82.1845  221.0881 H   0  0  0  0  0  0  0  0  0  0  0  0
  1  2  1  0
  2  3  2  0
  3  4  1  0
  3  5  1  0
  5  6  2  0
  6  7  1  0
  7  8  2  0
  8  9  1  0
  8 10  1  0
 10 11  1  0
 10 12  2  0
 12 13  1  0
 12 14  1  0
 14 15  1  0
 14 16  2  0
 16 17  1  0
 17 18  2  0
 17 19  1  0
 19 20  1  0
 20 21  1  0
 20 22  1  0
 20 23  1  0
 23 24  2  0
 24 25  1  0
 24 26  1  0
 26 27  1  0
 26 28  2  0
 28 29  1  0
 28 30  1  0
 30 31  1  0
 30 32  2  0
 32 33  1  0
  2 34  1  0
 34 35  2  0
 35 36  1  0
 35 37  1  0
 37 38  1  0
 37 39  2  0
 39 40  1  0
 39 41  1  0
 41 42  1  0
 41 43  2  0
 43 44  1  0
 19  5  1  0
 32 23  1  0
 43 34  1  0
 16  7  1  0
M  END
>  <UniqueID>  (19) 
46

>  <SMILES>  (19) 
O=c1c2ccccc2nc(/C=C/c2ccccc2)n1Cc1ccccc1

>  <Energy>  (19) 
61.47215714226456

>  <Genealogy>  (19) 
O=c1c2ccccc2nc(/C=C/c2ccccc2)n1Cc1ccccc1 (cis-trans isomerization)
O=c1c2ccccc2nc(/C=C/c2ccccc2)n1Cc1ccccc1 (3D coordinates assigned)
O=c1c2ccccc2nc(/C=C/c2ccccc2)n1Cc1ccccc1 (optimized conformer: 61.47215714226456 kcal/mol)

>  <smiles>  (19) 
O=c1c2ccccc2nc(/C=C/c2ccccc2)n1Cc1ccccc1

>  <score_type>  (19) 
oracle

>  <origin>  (19) 
autodockgpu

>  <m_score__min__energy>  (19) 
-7.6200000000000001

>  <m_primary>  (19) 
energy

>  <meeko>  (19) 
{"free_energy": -6.68, "intermolecular_energy": -8.17, "internal_energy": -2.0, "cluster_size": 12, "cluster_id": 3, "rank_in_cluster": 3}

>  <energy>  (19) 
-6.46

>  <cluster_rmsd>  (19) 
1.41

>  <rmsd>  (19) 
270.07

>  <cluster>  (19) 
3

$$$$
IZQCJYDBOLXUJA-FOCLMDBBNA-N
     RDKit          3D

 44 47  0  0  0  0  0  0  0  0999 V2000
  141.6050   80.4445  219.0630 H   0  0  0  0  0  0  0  0  0  0  0  0
  141.2950   79.8230  219.9160 C   0  0  0  0  0  0  0  0  0  0  0  0
  140.5320   78.7460  219.6740 C   0  0  0  0  0  0  0  0  0  0  0  0
  139.5755   78.8765  219.1466 H   0  0  0  0  0  0  0  0  0  0  0  0
  140.9420   77.3820  220.0980 C   0  0  0  0  0  0  0  0  0  0  0  0
  142.1820   76.9520  219.7400 N   0  0  0  0  0  0  0  0  0  0  0  0
  142.6530   75.7360  220.0900 C   0  0  0  0  0  0  0  0  0  0  0  0
  143.9390   75.3440  219.7010 C   0  0  0  0  0  0  0  0  0  0  0  0
  144.5652   76.0263  219.1074 H   0  0  0  0  0  0  0  0  0  0  0  0
  144.4290   74.0860  220.0660 C   0  0  0  0  0  0  0  0  0  0  0  0
  145.4411   73.7804  219.7623 H   0  0  0  0  0  0  0  0  0  0  0  0
  143.6320   73.2170  220.8170 C   0  0  0  0  0  0  0  0  0  0  0  0
  144.0190   72.2283  221.1044 H   0  0  0  0  0  0  0  0  0  0  0  0
  142.3440   73.6010  221.2040 C   0  0  0  0  0  0  0  0  0  0  0  0
  141.7187   72.9122  221.7910 H   0  0  0  0  0  0  0  0  0  0  0  0
  141.8460   74.8690  220.8430 C   0  0  0  0  0  0  0  0  0  0  0  0
  140.5610   75.3050  221.2060 C   0  0  0  0  0  0  0  0  0  0  0  0
  139.8140   74.5290  221.8680 O   0  0  0  0  0  0  0  0  0  0  0  0
  140.1160   76.5580  220.8410 N   0  0  0  0  0  0  0  0  0  0  0  0
  138.7390   76.9770  221.1970 C   0  0  0  0  0  0  0  0  0  0  0  0
  138.1972   77.2493  220.2792 H   0  0  0  0  0  0  0  0  0  0  0  0
  138.2384   76.1401  221.7060 H   0  0  0  0  0  0  0  0  0  0  0  0
  138.7590   78.1640  222.1290 C   0  0  0  0  0  0  0  0  0  0  0  0
  137.7850   79.1700  222.0130 C   0  0  0  0  0  0  0  0  0  0  0  0
  137.0067   79.0923  221.2396 H   0  0  0  0  0  0  0  0  0  0  0  0
  137.8010   80.2700  222.8770 C   0  0  0  0  0  0  0  0  0  0  0  0
  137.0382   81.0564  222.7785 H   0  0  0  0  0  0  0  0  0  0  0  0
  138.7840   80.3720  223.8650 C   0  0  0  0  0  0  0  0  0  0  0  0
  138.7985   81.2414  224.5387 H   0  0  0  0  0  0  0  0  0  0  0  0
  139.7480   79.3700  223.9970 C   0  0  0  0  0  0  0  0  0  0  0  0
  140.5198   79.4494  224.7767 H   0  0  0  0  0  0  0  0  0  0  0  0
  139.7330   78.2660  223.1390 C   0  0  0  0  0  0  0  0  0  0  0  0
  140.4867   77.4731  223.2544 H   0  0  0  0  0  0  0  0  0  0  0  0
  141.7420   80.2190  221.2730 C   0  0  0  0  0  0  0  0  0  0  0  0
  142.5270   79.3750  222.0860 C   0  0  0  0  0  0  0  0  0  0  0  0
  142.8145   78.3777  221.7217 H   0  0  0  0  0  0  0  0  0  0  0  0
  142.9420   79.7990  223.3530 C   0  0  0  0  0  0  0  0  0  0  0  0
  143.5528   79.1344  223.9817 H   0  0  0  0  0  0  0  0  0  0  0  0
  142.5820   81.0650  223.8210 C   0  0  0  0  0  0  0  0  0  0  0  0
  142.9044   81.3944  224.8198 H   0  0  0  0  0  0  0  0  0  0  0  0
  141.8130   81.9120  223.0210 C   0  0  0  0  0  0  0  0  0  0  0  0
  141.5319   82.9095  223.3898 H   0  0  0  0  0  0  0  0  0  0  0  0
  141.3990   81.4950  221.7510 C   0  0  0  0  0  0  0  0  0  0  0  0
  140.8008   82.1710  221.1224 H   0  0  0  0  0  0  0  0  0  0  0  0
  1  2  1  0
  2  3  2  0
  3  4  1  0
  3  5  1  0
  5  6  2  0
  6  7  1  0
  7  8  2  0
  8  9  1  0
  8 10  1  0
 10 11  1  0
 10 12  2  0
 12 13  1  0
 12 14  1  0
 14 15  1  0
 14 16  2  0
 16 17  1  0
 17 18  2  0
 17 19  1  0
 19 20  1  0
 20 21  1  0
 20 22  1  0
 20 23  1  0
 23 24  2  0
 24 25  1  0
 24 26  1  0
 26 27  1  0
 26 28  2  0
 28 29  1  0
 28 30  1  0
 30 31  1  0
 30 32  2  0
 32 33  1  0
  2 34  1  0
 34 35  2  0
 35 36  1  0
 35 37  1  0
 37 38  1  0
 37 39  2  0
 39 40  1  0
 39 41  1  0
 41 42  1  0
 41 43  2  0
 43 44  1  0
 19  5  1  0
 32 23  1  0
 43 34  1  0
 16  7  1  0
M  END
>  <UniqueID>  (20) 
46

>  <SMILES>  (20) 
O=c1c2ccccc2nc(/C=C/c2ccccc2)n1Cc1ccccc1

>  <Energy>  (20) 
61.47215714226456

>  <Genealogy>  (20) 
O=c1c2ccccc2nc(/C=C/c2ccccc2)n1Cc1ccccc1 (cis-trans isomerization)
O=c1c2ccccc2nc(/C=C/c2ccccc2)n1Cc1ccccc1 (3D coordinates assigned)
O=c1c2ccccc2nc(/C=C/c2ccccc2)n1Cc1ccccc1 (optimized conformer: 61.47215714226456 kcal/mol)

>  <smiles>  (20) 
O=c1c2ccccc2nc(/C=C/c2ccccc2)n1Cc1ccccc1

>  <score_type>  (20) 
oracle

>  <origin>  (20) 
autodockgpu

>  <m_score__min__energy>  (20) 
-7.6200000000000001

>  <m_primary>  (20) 
energy

>  <meeko>  (20) 
{"free_energy": -6.64, "intermolecular_energy": -8.13, "internal_energy": -2.02, "cluster_size": 12, "cluster_id": 3, "rank_in_cluster": 8}

>  <energy>  (20) 
-6.46

>  <cluster_rmsd>  (20) 
1.41

>  <rmsd>  (20) 
270.05

>  <cluster>  (20) 
3

$$$$
