
     RDKit          3D

 52 56  0  0  0  0  0  0  0  0999 V2000
  140.6810   68.3370  228.7560 C   0  0  0  0  0  0  0  0  0  0  0  0
  140.3580   68.7000  227.3420 C   0  0  0  0  0  0  0  0  0  0  0  0
  139.5820   67.8550  226.5840 C   0  0  0  0  0  0  0  0  0  0  0  0
  139.2590   68.1560  225.2620 C   0  0  0  0  0  0  0  0  0  0  0  0
  139.7180   69.3290  224.6750 C   0  0  0  0  0  0  0  0  0  0  0  0
  140.4920   70.1520  225.4630 C   0  0  0  0  0  0  0  0  0  0  0  0
  140.8180   69.8640  226.7700 C   0  0  0  0  0  0  0  0  0  0  0  0
  140.8480   71.3070  224.6290 C   0  0  0  0  0  0  0  0  0  0  0  0
  140.1980   71.0400  223.3130 C   0  0  0  0  0  0  0  0  0  0  0  0
  140.2940   71.9470  222.1720 C   0  0  0  0  0  0  0  0  0  0  0  0
  140.6890   71.5270  220.9210 C   0  0  0  0  0  0  0  0  0  0  0  0
  140.7840   72.3730  219.8340 C   0  0  0  0  0  0  0  0  0  0  0  0
  140.4610   73.6970  220.0480 C   0  0  0  0  0  0  0  0  0  0  0  0
  140.0580   74.1820  221.2750 C   0  0  0  0  0  0  0  0  0  0  0  0
  139.7140   75.5770  221.5130 C   0  0  0  0  0  0  0  0  0  0  0  0
  140.1610   76.4980  220.7700 O   0  0  0  0  0  0  0  0  0  0  0  0
  138.8680   75.9870  222.5790 N   0  0  0  0  0  0  0  0  0  0  0  0
  138.5260   77.3510  222.8190 C   0  0  0  0  0  0  0  0  0  0  0  0
  139.4880   78.3120  223.0970 C   0  0  0  0  0  0  0  0  0  0  0  0
  139.0990   79.6370  223.3250 C   0  0  0  0  0  0  0  0  0  0  0  0
  137.7800   80.0290  223.2830 C   0  0  0  0  0  0  0  0  0  0  0  0
  137.3810   81.4010  223.5190 C   0  0  0  0  0  0  0  0  0  0  0  0
  137.3930   82.3960  222.5830 C   0  0  0  0  0  0  0  0  0  0  0  0
  136.9950   83.6880  222.8830 C   0  0  0  0  0  0  0  0  0  0  0  0
  136.5670   84.0260  224.1500 C   0  0  0  0  0  0  0  0  0  0  0  0
  136.5480   83.0360  225.1100 C   0  0  0  0  0  0  0  0  0  0  0  0
  136.9470   81.7540  224.7970 C   0  0  0  0  0  0  0  0  0  0  0  0
  136.8690   79.0680  223.0090 N   0  0  0  0  0  0  0  0  0  0  0  0
  137.2200   77.7900  222.7870 C   0  0  0  0  0  0  0  0  0  0  0  0
  139.9800   73.2940  222.3270 C   0  0  0  0  0  0  0  0  0  0  0  0
  139.5780   69.9170  223.3960 N   0  0  0  0  0  0  0  0  0  0  0  0
  140.1082   68.9807  229.4398 H   0  0  0  0  0  0  0  0  0  0  0  0
  140.4152   67.2846  228.9342 H   0  0  0  0  0  0  0  0  0  0  0  0
  141.7572   68.4787  228.9342 H   0  0  0  0  0  0  0  0  0  0  0  0
  139.2082   66.9217  227.0304 H   0  0  0  0  0  0  0  0  0  0  0  0
  138.6368   67.4606  224.6795 H   0  0  0  0  0  0  0  0  0  0  0  0
  141.4411   70.5590  227.3519 H   0  0  0  0  0  0  0  0  0  0  0  0
  140.4619   72.2377  225.0704 H   0  0  0  0  0  0  0  0  0  0  0  0
  141.9368   71.4334  224.5368 H   0  0  0  0  0  0  0  0  0  0  0  0
  140.9411   70.4655  220.7811 H   0  0  0  0  0  0  0  0  0  0  0  0
  141.1017   72.0091  218.8457 H   0  0  0  0  0  0  0  0  0  0  0  0
  140.5278   74.3974  219.2024 H   0  0  0  0  0  0  0  0  0  0  0  0
  138.4580   75.2890  223.2370 H   0  0  0  0  0  0  0  0  0  0  0  0
  140.5514   78.0336  223.1380 H   0  0  0  0  0  0  0  0  0  0  0  0
  139.8714   80.3887  223.5446 H   0  0  0  0  0  0  0  0  0  0  0  0
  137.7286   82.1642  221.5614 H   0  0  0  0  0  0  0  0  0  0  0  0
  137.0206   84.4578  222.0976 H   0  0  0  0  0  0  0  0  0  0  0  0
  136.2509   85.0526  224.3871 H   0  0  0  0  0  0  0  0  0  0  0  0
  136.2127   83.2706  226.1310 H   0  0  0  0  0  0  0  0  0  0  0  0
  136.9223   80.9833  225.5815 H   0  0  0  0  0  0  0  0  0  0  0  0
  136.4271   77.0593  222.5693 H   0  0  0  0  0  0  0  0  0  0  0  0
  139.6613   73.6597  223.3143 H   0  0  0  0  0  0  0  0  0  0  0  0
  1  2  1  0
  2  3  2  0
  3  4  1  0
  4  5  2  0
  5  6  1  0
  6  7  2  0
  6  8  1  0
  8  9  1  0
  9 10  1  0
 10 11  2  0
 11 12  1  0
 12 13  2  0
 13 14  1  0
 14 15  1  0
 15 16  2  0
 15 17  1  0
 17 18  1  0
 18 19  2  0
 19 20  1  0
 20 21  2  0
 21 22  1  0
 22 23  2  0
 23 24  1  0
 24 25  2  0
 25 26  1  0
 26 27  2  0
 21 28  1  0
 28 29  2  0
 14 30  2  0
  9 31  2  0
  7  2  1  0
 30 10  1  0
 31  5  1  0
 29 18  1  0
 27 22  1  0
  1 32  1  0
  1 33  1  0
  1 34  1  0
  3 35  1  0
  4 36  1  0
  7 37  1  0
  8 38  1  0
  8 39  1  0
 11 40  1  0
 12 41  1  0
 13 42  1  0
 17 43  1  0
 19 44  1  0
 20 45  1  0
 23 46  1  0
 24 47  1  0
 25 48  1  0
 26 49  1  0
 27 50  1  0
 29 51  1  0
 30 52  1  0
M  END
>  <smiles>  (1) 
Cc1ccc2c(c1)CC(c1cccc(C(=O)Nc3ccc(-c4ccccc4)nc3)c1)=N2

>  <score_type>  (1) 
oracle

>  <origin>  (1) 
autodockgpu

>  <m_score__min__energy>  (1) 
-8.1300000000000008

>  <m_primary>  (1) 
energy

>  <meeko>  (1) 
{"free_energy": -7.92, "intermolecular_energy": -9.11, "internal_energy": -0.95, "cluster_size": 9, "cluster_id": 3, "rank_in_cluster": 6}

>  <energy>  (1) 
-8.13

>  <cluster_rmsd>  (1) 
0.0

>  <rmsd>  (1) 
271.81

>  <cluster>  (1) 
1

$$$$

     RDKit          3D

 52 56  0  0  0  0  0  0  0  0999 V2000
  140.5170   68.1420  228.9530 C   0  0  0  0  0  0  0  0  0  0  0  0
  140.5890   69.2460  227.9460 C   0  0  0  0  0  0  0  0  0  0  0  0
  140.8950   70.5210  228.3560 C   0  0  0  0  0  0  0  0  0  0  0  0
  140.9710   71.5760  227.4490 C   0  0  0  0  0  0  0  0  0  0  0  0
  140.7380   71.3610  226.0970 C   0  0  0  0  0  0  0  0  0  0  0  0
  140.4340   70.0710  225.7210 C   0  0  0  0  0  0  0  0  0  0  0  0
  140.3550   69.0200  226.6080 C   0  0  0  0  0  0  0  0  0  0  0  0
  140.2330   70.1000  224.2670 C   0  0  0  0  0  0  0  0  0  0  0  0
  140.4550   71.5250  223.8820 C   0  0  0  0  0  0  0  0  0  0  0  0
  140.3540   72.0090  222.5070 C   0  0  0  0  0  0  0  0  0  0  0  0
  140.3230   71.1610  221.4220 C   0  0  0  0  0  0  0  0  0  0  0  0
  140.2280   71.6050  220.1180 C   0  0  0  0  0  0  0  0  0  0  0  0
  140.1630   72.9700  219.9300 C   0  0  0  0  0  0  0  0  0  0  0  0
  140.1890   73.8720  220.9730 C   0  0  0  0  0  0  0  0  0  0  0  0
  140.1220   75.3160  220.7870 C   0  0  0  0  0  0  0  0  0  0  0  0
  139.2240   75.8430  220.0690 O   0  0  0  0  0  0  0  0  0  0  0  0
  141.0480   76.2100  221.3900 N   0  0  0  0  0  0  0  0  0  0  0  0
  140.9900   77.6250  221.2130 C   0  0  0  0  0  0  0  0  0  0  0  0
  140.7840   78.4910  222.2770 C   0  0  0  0  0  0  0  0  0  0  0  0
  140.7350   79.8700  222.0500 C   0  0  0  0  0  0  0  0  0  0  0  0
  140.8860   80.4100  220.7920 C   0  0  0  0  0  0  0  0  0  0  0  0
  140.8360   81.8370  220.5590 C   0  0  0  0  0  0  0  0  0  0  0  0
  140.6240   82.7850  221.5200 C   0  0  0  0  0  0  0  0  0  0  0  0
  140.5880   84.1370  221.2210 C   0  0  0  0  0  0  0  0  0  0  0  0
  140.7670   84.5850  219.9290 C   0  0  0  0  0  0  0  0  0  0  0  0
  140.9820   83.6450  218.9420 C   0  0  0  0  0  0  0  0  0  0  0  0
  141.0150   82.3030  219.2560 C   0  0  0  0  0  0  0  0  0  0  0  0
  141.0860   79.5380  219.7770 N   0  0  0  0  0  0  0  0  0  0  0  0
  141.1360   78.2090  219.9730 C   0  0  0  0  0  0  0  0  0  0  0  0
  140.2860   73.3750  222.2550 C   0  0  0  0  0  0  0  0  0  0  0  0
  140.7350   72.1860  224.9480 N   0  0  0  0  0  0  0  0  0  0  0  0
  140.5448   68.5680  229.9668 H   0  0  0  0  0  0  0  0  0  0  0  0
  139.5804   67.5816  228.8163 H   0  0  0  0  0  0  0  0  0  0  0  0
  141.3729   67.4647  228.8163 H   0  0  0  0  0  0  0  0  0  0  0  0
  141.0840   70.7130  229.4225 H   0  0  0  0  0  0  0  0  0  0  0  0
  141.2174   72.5867  227.8066 H   0  0  0  0  0  0  0  0  0  0  0  0
  140.1073   68.0096  226.2507 H   0  0  0  0  0  0  0  0  0  0  0  0
  140.9577   69.4444  223.7621 H   0  0  0  0  0  0  0  0  0  0  0  0
  139.2341   69.7416  223.9778 H   0  0  0  0  0  0  0  0  0  0  0  0
  140.3765   70.0773  221.6032 H   0  0  0  0  0  0  0  0  0  0  0  0
  140.2053   70.9043  219.2703 H   0  0  0  0  0  0  0  0  0  0  0  0
  140.0871   73.3562  218.9028 H   0  0  0  0  0  0  0  0  0  0  0  0
  141.8200   75.8550  221.9960 H   0  0  0  0  0  0  0  0  0  0  0  0
  140.6596   78.0944  223.2955 H   0  0  0  0  0  0  0  0  0  0  0  0
  140.5707   80.5447  222.9031 H   0  0  0  0  0  0  0  0  0  0  0  0
  140.4775   82.4649  222.5622 H   0  0  0  0  0  0  0  0  0  0  0  0
  140.4138   84.8651  222.0270 H   0  0  0  0  0  0  0  0  0  0  0  0
  140.7392   85.6589  219.6925 H   0  0  0  0  0  0  0  0  0  0  0  0
  141.1276   83.9677  217.9005 H   0  0  0  0  0  0  0  0  0  0  0  0
  141.1886   81.5738  218.4509 H   0  0  0  0  0  0  0  0  0  0  0  0
  141.3012   77.5568  219.1028 H   0  0  0  0  0  0  0  0  0  0  0  0
  140.3103   74.0774  223.1012 H   0  0  0  0  0  0  0  0  0  0  0  0
  1  2  1  0
  2  3  2  0
  3  4  1  0
  4  5  2  0
  5  6  1  0
  6  7  2  0
  6  8  1  0
  8  9  1  0
  9 10  1  0
 10 11  2  0
 11 12  1  0
 12 13  2  0
 13 14  1  0
 14 15  1  0
 15 16  2  0
 15 17  1  0
 17 18  1  0
 18 19  2  0
 19 20  1  0
 20 21  2  0
 21 22  1  0
 22 23  2  0
 23 24  1  0
 24 25  2  0
 25 26  1  0
 26 27  2  0
 21 28  1  0
 28 29  2  0
 14 30  2  0
  9 31  2  0
  7  2  1  0
 30 10  1  0
 31  5  1  0
 29 18  1  0
 27 22  1  0
  1 32  1  0
  1 33  1  0
  1 34  1  0
  3 35  1  0
  4 36  1  0
  7 37  1  0
  8 38  1  0
  8 39  1  0
 11 40  1  0
 12 41  1  0
 13 42  1  0
 17 43  1  0
 19 44  1  0
 20 45  1  0
 23 46  1  0
 24 47  1  0
 25 48  1  0
 26 49  1  0
 27 50  1  0
 29 51  1  0
 30 52  1  0
M  END
>  <smiles>  (2) 
Cc1ccc2c(c1)CC(c1cccc(C(=O)Nc3ccc(-c4ccccc4)nc3)c1)=N2

>  <score_type>  (2) 
oracle

>  <origin>  (2) 
autodockgpu

>  <m_score__min__energy>  (2) 
-8.1300000000000008

>  <m_primary>  (2) 
energy

>  <meeko>  (2) 
{"free_energy": -8.04, "intermolecular_energy": -9.23, "internal_energy": -0.95, "cluster_size": 5, "cluster_id": 2, "rank_in_cluster": 5}

>  <energy>  (2) 
-8.1

>  <cluster_rmsd>  (2) 
0.1

>  <rmsd>  (2) 
271.83

>  <cluster>  (2) 
1

$$$$

     RDKit          3D

 52 56  0  0  0  0  0  0  0  0999 V2000
  140.3520   68.4740  228.7440 C   0  0  0  0  0  0  0  0  0  0  0  0
  140.1210   68.8170  227.3070 C   0  0  0  0  0  0  0  0  0  0  0  0
  139.4410   67.9380  226.4990 C   0  0  0  0  0  0  0  0  0  0  0  0
  139.2070   68.2200  225.1550 C   0  0  0  0  0  0  0  0  0  0  0  0
  139.6590   69.4090  224.5950 C   0  0  0  0  0  0  0  0  0  0  0  0
  140.3370   70.2660  225.4340 C   0  0  0  0  0  0  0  0  0  0  0  0
  140.5750   69.9980  226.7630 C   0  0  0  0  0  0  0  0  0  0  0  0
  140.7080   71.4320  224.6210 C   0  0  0  0  0  0  0  0  0  0  0  0
  140.1700   71.1330  223.2620 C   0  0  0  0  0  0  0  0  0  0  0  0
  140.3150   72.0390  222.1240 C   0  0  0  0  0  0  0  0  0  0  0  0
  140.7900   71.6230  220.9000 C   0  0  0  0  0  0  0  0  0  0  0  0
  140.9310   72.4680  219.8180 C   0  0  0  0  0  0  0  0  0  0  0  0
  140.5700   73.7860  220.0070 C   0  0  0  0  0  0  0  0  0  0  0  0
  140.0880   74.2660  221.2070 C   0  0  0  0  0  0  0  0  0  0  0  0
  139.7040   75.6550  221.4200 C   0  0  0  0  0  0  0  0  0  0  0  0
  139.8930   76.5310  220.5270 O   0  0  0  0  0  0  0  0  0  0  0  0
  139.1030   76.1080  222.6250 N   0  0  0  0  0  0  0  0  0  0  0  0
  138.7240   77.4670  222.8420 C   0  0  0  0  0  0  0  0  0  0  0  0
  139.6620   78.4670  223.0510 C   0  0  0  0  0  0  0  0  0  0  0  0
  139.2380   79.7840  223.2580 C   0  0  0  0  0  0  0  0  0  0  0  0
  137.9050   80.1310  223.2620 C   0  0  0  0  0  0  0  0  0  0  0  0
  137.4680   81.4940  223.4760 C   0  0  0  0  0  0  0  0  0  0  0  0
  137.5030   82.4880  222.5390 C   0  0  0  0  0  0  0  0  0  0  0  0
  137.0660   83.7730  222.8180 C   0  0  0  0  0  0  0  0  0  0  0  0
  136.5750   84.1030  224.0630 C   0  0  0  0  0  0  0  0  0  0  0  0
  136.5320   83.1150  225.0250 C   0  0  0  0  0  0  0  0  0  0  0  0
  136.9700   81.8410  224.7330 C   0  0  0  0  0  0  0  0  0  0  0  0
  137.0170   79.1320  223.0540 N   0  0  0  0  0  0  0  0  0  0  0  0
  137.4030   77.8600  222.8530 C   0  0  0  0  0  0  0  0  0  0  0  0
  139.9670   73.3790  222.2560 C   0  0  0  0  0  0  0  0  0  0  0  0
  139.5920   69.9850  223.3050 N   0  0  0  0  0  0  0  0  0  0  0  0
  139.8519   69.2165  229.3832 H   0  0  0  0  0  0  0  0  0  0  0  0
  139.9421   67.4749  228.9530 H   0  0  0  0  0  0  0  0  0  0  0  0
  141.4320   68.4783  228.9530 H   0  0  0  0  0  0  0  0  0  0  0  0
  139.0736   66.9916  226.9224 H   0  0  0  0  0  0  0  0  0  0  0  0
  138.6605   67.4963  224.5324 H   0  0  0  0  0  0  0  0  0  0  0  0
  141.1231   70.7208  227.3852 H   0  0  0  0  0  0  0  0  0  0  0  0
  140.2524   72.3478  225.0257 H   0  0  0  0  0  0  0  0  0  0  0  0
  141.7946   71.6029  224.6100 H   0  0  0  0  0  0  0  0  0  0  0  0
  141.0705   70.5663  220.7790 H   0  0  0  0  0  0  0  0  0  0  0  0
  141.3129   72.1079  218.8513 H   0  0  0  0  0  0  0  0  0  0  0  0
  140.6710   74.4849  219.1636 H   0  0  0  0  0  0  0  0  0  0  0  0
  138.9130   75.4480  223.4110 H   0  0  0  0  0  0  0  0  0  0  0  0
  140.7352   78.2255  223.0540 H   0  0  0  0  0  0  0  0  0  0  0  0
  139.9928   80.5670  223.4227 H   0  0  0  0  0  0  0  0  0  0  0  0
  137.8893   82.2615  221.5342 H   0  0  0  0  0  0  0  0  0  0  0  0
  137.1116   84.5423  222.0331 H   0  0  0  0  0  0  0  0  0  0  0  0
  136.2279   85.1234  224.2829 H   0  0  0  0  0  0  0  0  0  0  0  0
  136.1466   83.3449  226.0293 H   0  0  0  0  0  0  0  0  0  0  0  0
  136.9255   81.0713  225.5176 H   0  0  0  0  0  0  0  0  0  0  0  0
  136.6279   77.0968  222.6896 H   0  0  0  0  0  0  0  0  0  0  0  0
  139.5853   73.7407  223.2222 H   0  0  0  0  0  0  0  0  0  0  0  0
  1  2  1  0
  2  3  2  0
  3  4  1  0
  4  5  2  0
  5  6  1  0
  6  7  2  0
  6  8  1  0
  8  9  1  0
  9 10  1  0
 10 11  2  0
 11 12  1  0
 12 13  2  0
 13 14  1  0
 14 15  1  0
 15 16  2  0
 15 17  1  0
 17 18  1  0
 18 19  2  0
 19 20  1  0
 20 21  2  0
 21 22  1  0
 22 23  2  0
 23 24  1  0
 24 25  2  0
 25 26  1  0
 26 27  2  0
 21 28  1  0
 28 29  2  0
 14 30  2  0
  9 31  2  0
  7  2  1  0
 30 10  1  0
 31  5  1  0
 29 18  1  0
 27 22  1  0
  1 32  1  0
  1 33  1  0
  1 34  1  0
  3 35  1  0
  4 36  1  0
  7 37  1  0
  8 38  1  0
  8 39  1  0
 11 40  1  0
 12 41  1  0
 13 42  1  0
 17 43  1  0
 19 44  1  0
 20 45  1  0
 23 46  1  0
 24 47  1  0
 25 48  1  0
 26 49  1  0
 27 50  1  0
 29 51  1  0
 30 52  1  0
M  END
>  <smiles>  (3) 
Cc1ccc2c(c1)CC(c1cccc(C(=O)Nc3ccc(-c4ccccc4)nc3)c1)=N2

>  <score_type>  (3) 
oracle

>  <origin>  (3) 
autodockgpu

>  <m_score__min__energy>  (3) 
-8.1300000000000008

>  <m_primary>  (3) 
energy

>  <meeko>  (3) 
{"free_energy": -7.85, "intermolecular_energy": -9.04, "internal_energy": -0.96, "cluster_size": 9, "cluster_id": 3, "rank_in_cluster": 8}

>  <energy>  (3) 
-8.04

>  <cluster_rmsd>  (3) 
0.2

>  <rmsd>  (3) 
271.91

>  <cluster>  (3) 
1

$$$$

     RDKit          3D

 52 56  0  0  0  0  0  0  0  0999 V2000
  140.7530   68.2380  228.7860 C   0  0  0  0  0  0  0  0  0  0  0  0
  140.4190   68.6220  227.3800 C   0  0  0  0  0  0  0  0  0  0  0  0
  139.5690   67.8320  226.6430 C   0  0  0  0  0  0  0  0  0  0  0  0
  139.2340   68.1560  225.3300 C   0  0  0  0  0  0  0  0  0  0  0  0
  139.7550   69.2950  224.7300 C   0  0  0  0  0  0  0  0  0  0  0  0
  140.6020   70.0630  225.4970 C   0  0  0  0  0  0  0  0  0  0  0  0
  140.9410   69.7540  226.7950 C   0  0  0  0  0  0  0  0  0  0  0  0
  141.0150   71.1930  224.6540 C   0  0  0  0  0  0  0  0  0  0  0  0
  140.3140   70.9710  223.3550 C   0  0  0  0  0  0  0  0  0  0  0  0
  140.4420   71.8710  222.2110 C   0  0  0  0  0  0  0  0  0  0  0  0
  140.8770   71.4440  220.9750 C   0  0  0  0  0  0  0  0  0  0  0  0
  141.0030   72.2830  219.8860 C   0  0  0  0  0  0  0  0  0  0  0  0
  140.6680   73.6070  220.0810 C   0  0  0  0  0  0  0  0  0  0  0  0
  140.2260   74.0990  221.2910 C   0  0  0  0  0  0  0  0  0  0  0  0
  139.8700   75.4940  221.5090 C   0  0  0  0  0  0  0  0  0  0  0  0
  140.3000   76.4070  220.7460 O   0  0  0  0  0  0  0  0  0  0  0  0
  139.0310   75.9140  222.5770 N   0  0  0  0  0  0  0  0  0  0  0  0
  138.6780   77.2790  222.7970 C   0  0  0  0  0  0  0  0  0  0  0  0
  139.6310   78.2500  223.0680 C   0  0  0  0  0  0  0  0  0  0  0  0
  139.2310   79.5750  223.2760 C   0  0  0  0  0  0  0  0  0  0  0  0
  137.9100   79.9570  223.2210 C   0  0  0  0  0  0  0  0  0  0  0  0
  137.4990   81.3280  223.4370 C   0  0  0  0  0  0  0  0  0  0  0  0
  137.5990   82.3340  222.5170 C   0  0  0  0  0  0  0  0  0  0  0  0
  137.1830   83.6250  222.7960 C   0  0  0  0  0  0  0  0  0  0  0  0
  136.6480   83.9520  224.0240 C   0  0  0  0  0  0  0  0  0  0  0  0
  136.5400   82.9520  224.9680 C   0  0  0  0  0  0  0  0  0  0  0  0
  136.9570   81.6710  224.6760 C   0  0  0  0  0  0  0  0  0  0  0  0
  137.0070   78.9860  222.9550 N   0  0  0  0  0  0  0  0  0  0  0  0
  137.3690   77.7070  222.7520 C   0  0  0  0  0  0  0  0  0  0  0  0
  140.1190   73.2170  222.3460 C   0  0  0  0  0  0  0  0  0  0  0  0
  139.6220   69.8920  223.4540 N   0  0  0  0  0  0  0  0  0  0  0  0
  140.1949   68.8796  229.4838 H   0  0  0  0  0  0  0  0  0  0  0  0
  140.4772   67.1865  228.9543 H   0  0  0  0  0  0  0  0  0  0  0  0
  141.8326   68.3654  228.9543 H   0  0  0  0  0  0  0  0  0  0  0  0
  139.1446   66.9255  227.0993 H   0  0  0  0  0  0  0  0  0  0  0  0
  138.5516   67.5047  224.7643 H   0  0  0  0  0  0  0  0  0  0  0  0
  141.6232   70.4060  227.3602 H   0  0  0  0  0  0  0  0  0  0  0  0
  140.7044   72.1472  225.1046 H   0  0  0  0  0  0  0  0  0  0  0  0
  142.1072   71.2463  224.5344 H   0  0  0  0  0  0  0  0  0  0  0  0
  141.1366   70.3824  220.8501 H   0  0  0  0  0  0  0  0  0  0  0  0
  141.3533   71.9140  218.9107 H   0  0  0  0  0  0  0  0  0  0  0  0
  140.7575   74.3017  219.2328 H   0  0  0  0  0  0  0  0  0  0  0  0
  138.6360   75.2230  223.2510 H   0  0  0  0  0  0  0  0  0  0  0  0
  140.6961   77.9798  223.1192 H   0  0  0  0  0  0  0  0  0  0  0  0
  139.9967   80.3351  223.4902 H   0  0  0  0  0  0  0  0  0  0  0  0
  138.0222   82.1116  221.5263 H   0  0  0  0  0  0  0  0  0  0  0  0
  137.2811   84.4031  222.0246 H   0  0  0  0  0  0  0  0  0  0  0  0
  136.3177   84.9779  224.2440 H   0  0  0  0  0  0  0  0  0  0  0  0
  136.1190   83.1779  225.9588 H   0  0  0  0  0  0  0  0  0  0  0  0
  136.8590   80.8922  225.4466 H   0  0  0  0  0  0  0  0  0  0  0  0
  136.5829   76.9673  222.5400 H   0  0  0  0  0  0  0  0  0  0  0  0
  139.7688   73.5882  223.3204 H   0  0  0  0  0  0  0  0  0  0  0  0
  1  2  1  0
  2  3  2  0
  3  4  1  0
  4  5  2  0
  5  6  1  0
  6  7  2  0
  6  8  1  0
  8  9  1  0
  9 10  1  0
 10 11  2  0
 11 12  1  0
 12 13  2  0
 13 14  1  0
 14 15  1  0
 15 16  2  0
 15 17  1  0
 17 18  1  0
 18 19  2  0
 19 20  1  0
 20 21  2  0
 21 22  1  0
 22 23  2  0
 23 24  1  0
 24 25  2  0
 25 26  1  0
 26 27  2  0
 21 28  1  0
 28 29  2  0
 14 30  2  0
  9 31  2  0
  7  2  1  0
 30 10  1  0
 31  5  1  0
 29 18  1  0
 27 22  1  0
  1 32  1  0
  1 33  1  0
  1 34  1  0
  3 35  1  0
  4 36  1  0
  7 37  1  0
  8 38  1  0
  8 39  1  0
 11 40  1  0
 12 41  1  0
 13 42  1  0
 17 43  1  0
 19 44  1  0
 20 45  1  0
 23 46  1  0
 24 47  1  0
 25 48  1  0
 26 49  1  0
 27 50  1  0
 29 51  1  0
 30 52  1  0
M  END
>  <smiles>  (4) 
Cc1ccc2c(c1)CC(c1cccc(C(=O)Nc3ccc(-c4ccccc4)nc3)c1)=N2

>  <score_type>  (4) 
oracle

>  <origin>  (4) 
autodockgpu

>  <m_score__min__energy>  (4) 
-8.1300000000000008

>  <m_primary>  (4) 
energy

>  <meeko>  (4) 
{"free_energy": -7.89, "intermolecular_energy": -9.08, "internal_energy": -0.95, "cluster_size": 9, "cluster_id": 3, "rank_in_cluster": 7}

>  <energy>  (4) 
-8.08

>  <cluster_rmsd>  (4) 
0.0

>  <rmsd>  (4) 
270.68

>  <cluster>  (4) 
2

$$$$

     RDKit          3D

 52 56  0  0  0  0  0  0  0  0999 V2000
  137.1650   81.7300  226.0100 C   0  0  0  0  0  0  0  0  0  0  0  0
  137.5480   80.9140  224.8170 C   0  0  0  0  0  0  0  0  0  0  0  0
  136.6070   80.1250  224.2020 C   0  0  0  0  0  0  0  0  0  0  0  0
  136.9250   79.3500  223.0880 C   0  0  0  0  0  0  0  0  0  0  0  0
  138.2140   79.3570  222.5690 C   0  0  0  0  0  0  0  0  0  0  0  0
  139.1310   80.1590  223.2110 C   0  0  0  0  0  0  0  0  0  0  0  0
  138.8290   80.9290  224.3120 C   0  0  0  0  0  0  0  0  0  0  0  0
  140.3990   79.9970  222.4870 C   0  0  0  0  0  0  0  0  0  0  0  0
  140.0890   79.0330  221.3910 C   0  0  0  0  0  0  0  0  0  0  0  0
  141.0790   78.5830  220.4150 C   0  0  0  0  0  0  0  0  0  0  0  0
  141.6860   79.4410  219.5250 C   0  0  0  0  0  0  0  0  0  0  0  0
  142.6230   79.0300  218.5970 C   0  0  0  0  0  0  0  0  0  0  0  0
  142.9410   77.6880  218.5900 C   0  0  0  0  0  0  0  0  0  0  0  0
  142.3700   76.7770  219.4540 C   0  0  0  0  0  0  0  0  0  0  0  0
  142.6980   75.3570  219.4550 C   0  0  0  0  0  0  0  0  0  0  0  0
  141.9780   74.5200  220.0720 O   0  0  0  0  0  0  0  0  0  0  0  0
  143.8300   74.8320  218.7750 N   0  0  0  0  0  0  0  0  0  0  0  0
  144.1580   73.4430  218.7720 C   0  0  0  0  0  0  0  0  0  0  0  0
  143.2030   72.4630  218.5410 C   0  0  0  0  0  0  0  0  0  0  0  0
  143.5780   71.1140  218.5480 C   0  0  0  0  0  0  0  0  0  0  0  0
  144.8760   70.7170  218.7770 C   0  0  0  0  0  0  0  0  0  0  0  0
  145.2610   69.3220  218.7830 C   0  0  0  0  0  0  0  0  0  0  0  0
  144.9680   68.4290  219.7750 C   0  0  0  0  0  0  0  0  0  0  0  0
  145.3720   67.1050  219.7120 C   0  0  0  0  0  0  0  0  0  0  0  0
  146.0920   66.6320  218.6360 C   0  0  0  0  0  0  0  0  0  0  0  0
  146.4000   67.5160  217.6240 C   0  0  0  0  0  0  0  0  0  0  0  0
  145.9910   68.8310  217.7000 C   0  0  0  0  0  0  0  0  0  0  0  0
  145.7810   71.6980  218.9980 N   0  0  0  0  0  0  0  0  0  0  0  0
  145.4430   72.9990  218.9950 C   0  0  0  0  0  0  0  0  0  0  0  0
  141.4400   77.2410  220.3600 C   0  0  0  0  0  0  0  0  0  0  0  0
  138.8490   78.7080  221.4860 N   0  0  0  0  0  0  0  0  0  0  0  0
  137.4227   81.1811  226.9278 H   0  0  0  0  0  0  0  0  0  0  0  0
  137.7083   82.6862  225.9899 H   0  0  0  0  0  0  0  0  0  0  0  0
  136.0822   81.9230  225.9899 H   0  0  0  0  0  0  0  0  0  0  0  0
  135.5806   80.1043  224.5970 H   0  0  0  0  0  0  0  0  0  0  0  0
  136.1499   78.7282  222.6162 H   0  0  0  0  0  0  0  0  0  0  0  0
  139.6042   81.5506  224.7839 H   0  0  0  0  0  0  0  0  0  0  0  0
  140.7353   80.9593  222.0736 H   0  0  0  0  0  0  0  0  0  0  0  0
  141.2082   79.6384  223.1401 H   0  0  0  0  0  0  0  0  0  0  0  0
  141.4112   80.5057  219.5546 H   0  0  0  0  0  0  0  0  0  0  0  0
  143.0923   79.7380  217.8981 H   0  0  0  0  0  0  0  0  0  0  0  0
  143.6835   77.3280  217.8626 H   0  0  0  0  0  0  0  0  0  0  0  0
  144.4740   75.4570  218.2430 H   0  0  0  0  0  0  0  0  0  0  0  0
  142.1564   72.7446  218.3533 H   0  0  0  0  0  0  0  0  0  0  0  0
  142.8110   70.3471  218.3647 H   0  0  0  0  0  0  0  0  0  0  0  0
  144.3946   68.7712  220.6491 H   0  0  0  0  0  0  0  0  0  0  0  0
  145.1140   66.4207  220.5337 H   0  0  0  0  0  0  0  0  0  0  0  0
  146.4113   65.5805  218.5863 H   0  0  0  0  0  0  0  0  0  0  0  0
  146.9746   67.1710  216.7518 H   0  0  0  0  0  0  0  0  0  0  0  0
  146.2491   69.5160  216.8789 H   0  0  0  0  0  0  0  0  0  0  0  0
  146.2301   73.7449  219.1794 H   0  0  0  0  0  0  0  0  0  0  0  0
  140.9713   76.5312  221.0575 H   0  0  0  0  0  0  0  0  0  0  0  0
  1  2  1  0
  2  3  2  0
  3  4  1  0
  4  5  2  0
  5  6  1  0
  6  7  2  0
  6  8  1  0
  8  9  1  0
  9 10  1  0
 10 11  2  0
 11 12  1  0
 12 13  2  0
 13 14  1  0
 14 15  1  0
 15 16  2  0
 15 17  1  0
 17 18  1  0
 18 19  2  0
 19 20  1  0
 20 21  2  0
 21 22  1  0
 22 23  2  0
 23 24  1  0
 24 25  2  0
 25 26  1  0
 26 27  2  0
 21 28  1  0
 28 29  2  0
 14 30  2  0
  9 31  2  0
  7  2  1  0
 30 10  1  0
 31  5  1  0
 29 18  1  0
 27 22  1  0
  1 32  1  0
  1 33  1  0
  1 34  1  0
  3 35  1  0
  4 36  1  0
  7 37  1  0
  8 38  1  0
  8 39  1  0
 11 40  1  0
 12 41  1  0
 13 42  1  0
 17 43  1  0
 19 44  1  0
 20 45  1  0
 23 46  1  0
 24 47  1  0
 25 48  1  0
 26 49  1  0
 27 50  1  0
 29 51  1  0
 30 52  1  0
M  END
>  <smiles>  (5) 
Cc1ccc2c(c1)CC(c1cccc(C(=O)Nc3ccc(-c4ccccc4)nc3)c1)=N2

>  <score_type>  (5) 
oracle

>  <origin>  (5) 
autodockgpu

>  <m_score__min__energy>  (5) 
-8.1300000000000008

>  <m_primary>  (5) 
energy

>  <meeko>  (5) 
{"free_energy": -7.85, "intermolecular_energy": -9.04, "internal_energy": -0.9, "cluster_size": 2, "cluster_id": 4, "rank_in_cluster": 2}

>  <energy>  (5) 
-8.07

>  <cluster_rmsd>  (5) 
0.08

>  <rmsd>  (5) 
270.65

>  <cluster>  (5) 
2

$$$$

     RDKit          3D

 52 56  0  0  0  0  0  0  0  0999 V2000
  135.9280   82.0900  227.4190 C   0  0  0  0  0  0  0  0  0  0  0  0
  136.3690   81.4700  226.1310 C   0  0  0  0  0  0  0  0  0  0  0  0
  135.4550   80.8070  225.3480 C   0  0  0  0  0  0  0  0  0  0  0  0
  135.8270   80.2150  224.1430 C   0  0  0  0  0  0  0  0  0  0  0  0
  137.1430   80.2830  223.7000 C   0  0  0  0  0  0  0  0  0  0  0  0
  138.0310   80.9550  224.5100 C   0  0  0  0  0  0  0  0  0  0  0  0
  137.6760   81.5430  225.7030 C   0  0  0  0  0  0  0  0  0  0  0  0
  139.3350   80.8890  223.8370 C   0  0  0  0  0  0  0  0  0  0  0  0
  139.0770   80.1190  222.5850 C   0  0  0  0  0  0  0  0  0  0  0  0
  140.1150   79.8140  221.6030 C   0  0  0  0  0  0  0  0  0  0  0  0
  140.6890   80.7800  220.8060 C   0  0  0  0  0  0  0  0  0  0  0  0
  141.6700   80.5070  219.8740 C   0  0  0  0  0  0  0  0  0  0  0  0
  142.0700   79.1910  219.7620 C   0  0  0  0  0  0  0  0  0  0  0  0
  141.5360   78.1770  220.5300 C   0  0  0  0  0  0  0  0  0  0  0  0
  141.9510   76.7850  220.4200 C   0  0  0  0  0  0  0  0  0  0  0  0
  141.1720   75.8420  220.7450 O   0  0  0  0  0  0  0  0  0  0  0  0
  143.2360   76.4020  219.9500 N   0  0  0  0  0  0  0  0  0  0  0  0
  143.6500   75.0410  219.8400 C   0  0  0  0  0  0  0  0  0  0  0  0
  144.7990   74.5700  220.4590 C   0  0  0  0  0  0  0  0  0  0  0  0
  145.1610   73.2250  220.3190 C   0  0  0  0  0  0  0  0  0  0  0  0
  144.4090   72.3390  219.5820 C   0  0  0  0  0  0  0  0  0  0  0  0
  144.7840   70.9480  219.4390 C   0  0  0  0  0  0  0  0  0  0  0  0
  145.9900   70.5020  218.9750 C   0  0  0  0  0  0  0  0  0  0  0  0
  146.2780   69.1520  218.8660 C   0  0  0  0  0  0  0  0  0  0  0  0
  145.3520   68.1950  219.2230 C   0  0  0  0  0  0  0  0  0  0  0  0
  144.1280   68.6230  219.6920 C   0  0  0  0  0  0  0  0  0  0  0  0
  143.8550   69.9700  219.7960 C   0  0  0  0  0  0  0  0  0  0  0  0
  143.2950   72.8310  218.9920 N   0  0  0  0  0  0  0  0  0  0  0  0
  142.9290   74.1190  219.1130 C   0  0  0  0  0  0  0  0  0  0  0  0
  140.5590   78.5050  221.4450 C   0  0  0  0  0  0  0  0  0  0  0  0
  137.8310   79.8040  222.5610 N   0  0  0  0  0  0  0  0  0  0  0  0
  136.3375   81.5143  228.2622 H   0  0  0  0  0  0  0  0  0  0  0  0
  136.2930   83.1264  227.4710 H   0  0  0  0  0  0  0  0  0  0  0  0
  134.8292   82.0852  227.4710 H   0  0  0  0  0  0  0  0  0  0  0  0
  134.4081   80.7423  225.6794 H   0  0  0  0  0  0  0  0  0  0  0  0
  135.0737   79.6898  223.5375 H   0  0  0  0  0  0  0  0  0  0  0  0
  138.4298   82.0667  226.3093 H   0  0  0  0  0  0  0  0  0  0  0  0
  139.7020   81.8991  223.6024 H   0  0  0  0  0  0  0  0  0  0  0  0
  140.1040   80.4159  224.4654 H   0  0  0  0  0  0  0  0  0  0  0  0
  140.3488   81.8201  220.9178 H   0  0  0  0  0  0  0  0  0  0  0  0
  142.1111   81.2993  219.2513 H   0  0  0  0  0  0  0  0  0  0  0  0
  142.8494   78.9393  219.0276 H   0  0  0  0  0  0  0  0  0  0  0  0
  143.9380   77.1200  219.6630 H   0  0  0  0  0  0  0  0  0  0  0  0
  145.4228   75.2505  221.0572 H   0  0  0  0  0  0  0  0  0  0  0  0
  146.0752   72.8651  220.8136 H   0  0  0  0  0  0  0  0  0  0  0  0
  146.7536   71.2367  218.6798 H   0  0  0  0  0  0  0  0  0  0  0  0
  147.2622   68.8378  218.4882 H   0  0  0  0  0  0  0  0  0  0  0  0
  145.5826   67.1229  219.1364 H   0  0  0  0  0  0  0  0  0  0  0  0
  143.3658   67.8859  219.9846 H   0  0  0  0  0  0  0  0  0  0  0  0
  142.8709   70.2848  220.1734 H   0  0  0  0  0  0  0  0  0  0  0  0
  142.0106   74.4525  218.6078 H   0  0  0  0  0  0  0  0  0  0  0  0
  140.1189   77.7113  222.0665 H   0  0  0  0  0  0  0  0  0  0  0  0
  1  2  1  0
  2  3  2  0
  3  4  1  0
  4  5  2  0
  5  6  1  0
  6  7  2  0
  6  8  1  0
  8  9  1  0
  9 10  1  0
 10 11  2  0
 11 12  1  0
 12 13  2  0
 13 14  1  0
 14 15  1  0
 15 16  2  0
 15 17  1  0
 17 18  1  0
 18 19  2  0
 19 20  1  0
 20 21  2  0
 21 22  1  0
 22 23  2  0
 23 24  1  0
 24 25  2  0
 25 26  1  0
 26 27  2  0
 21 28  1  0
 28 29  2  0
 14 30  2  0
  9 31  2  0
  7  2  1  0
 30 10  1  0
 31  5  1  0
 29 18  1  0
 27 22  1  0
  1 32  1  0
  1 33  1  0
  1 34  1  0
  3 35  1  0
  4 36  1  0
  7 37  1  0
  8 38  1  0
  8 39  1  0
 11 40  1  0
 12 41  1  0
 13 42  1  0
 17 43  1  0
 19 44  1  0
 20 45  1  0
 23 46  1  0
 24 47  1  0
 25 48  1  0
 26 49  1  0
 27 50  1  0
 29 51  1  0
 30 52  1  0
M  END
>  <smiles>  (6) 
Cc1ccc2c(c1)CC(c1cccc(C(=O)Nc3ccc(-c4ccccc4)nc3)c1)=N2

>  <score_type>  (6) 
oracle

>  <origin>  (6) 
autodockgpu

>  <m_score__min__energy>  (6) 
-8.1300000000000008

>  <m_primary>  (6) 
energy

>  <meeko>  (6) 
{"free_energy": -7.94, "intermolecular_energy": -9.14, "internal_energy": -0.94, "cluster_size": 2, "cluster_id": 4, "rank_in_cluster": 1}

>  <energy>  (6) 
-8.06

>  <cluster_rmsd>  (6) 
0.12

>  <rmsd>  (6) 
270.64

>  <cluster>  (6) 
2

$$$$

     RDKit          3D

 52 56  0  0  0  0  0  0  0  0999 V2000
  143.8850   70.3050  219.9980 C   0  0  0  0  0  0  0  0  0  0  0  0
  144.0000   71.7950  220.0340 C   0  0  0  0  0  0  0  0  0  0  0  0
  145.2160   72.3770  220.2980 C   0  0  0  0  0  0  0  0  0  0  0  0
  145.3640   73.7620  220.3420 C   0  0  0  0  0  0  0  0  0  0  0  0
  144.2740   74.5940  220.1170 C   0  0  0  0  0  0  0  0  0  0  0  0
  143.0710   73.9770  219.8550 C   0  0  0  0  0  0  0  0  0  0  0  0
  142.9130   72.6100  219.8100 C   0  0  0  0  0  0  0  0  0  0  0  0
  142.0900   75.0520  219.6560 C   0  0  0  0  0  0  0  0  0  0  0  0
  142.8680   76.3130  219.8330 C   0  0  0  0  0  0  0  0  0  0  0  0
  142.2750   77.6440  219.7180 C   0  0  0  0  0  0  0  0  0  0  0  0
  142.3420   78.3880  218.5610 C   0  0  0  0  0  0  0  0  0  0  0  0
  141.7870   79.6460  218.4380 C   0  0  0  0  0  0  0  0  0  0  0  0
  141.1410   80.1510  219.5490 C   0  0  0  0  0  0  0  0  0  0  0  0
  141.0390   79.4570  220.7360 C   0  0  0  0  0  0  0  0  0  0  0  0
  140.3610   79.9790  221.9150 C   0  0  0  0  0  0  0  0  0  0  0  0
  140.9670   80.1020  223.0190 O   0  0  0  0  0  0  0  0  0  0  0  0
  138.9970   80.3770  221.9010 N   0  0  0  0  0  0  0  0  0  0  0  0
  138.3250   80.8900  223.0510 C   0  0  0  0  0  0  0  0  0  0  0  0
  137.6270   82.0890  223.0210 C   0  0  0  0  0  0  0  0  0  0  0  0
  136.9850   82.5470  224.1770 C   0  0  0  0  0  0  0  0  0  0  0  0
  137.0200   81.8440  225.3600 C   0  0  0  0  0  0  0  0  0  0  0  0
  136.3550   82.3200  226.5550 C   0  0  0  0  0  0  0  0  0  0  0  0
  135.9740   83.6120  226.7810 C   0  0  0  0  0  0  0  0  0  0  0  0
  135.3400   83.9940  227.9530 C   0  0  0  0  0  0  0  0  0  0  0  0
  135.0670   83.0770  228.9450 C   0  0  0  0  0  0  0  0  0  0  0  0
  135.4440   81.7670  228.7380 C   0  0  0  0  0  0  0  0  0  0  0  0
  136.0730   81.4010  227.5670 C   0  0  0  0  0  0  0  0  0  0  0  0
  137.7090   80.6800  225.3550 N   0  0  0  0  0  0  0  0  0  0  0  0
  138.3330   80.2210  224.2560 C   0  0  0  0  0  0  0  0  0  0  0  0
  141.6120   78.2050  220.8040 C   0  0  0  0  0  0  0  0  0  0  0  0
  144.0870   75.9960  220.0900 N   0  0  0  0  0  0  0  0  0  0  0  0
  143.8549   69.9146  221.0260 H   0  0  0  0  0  0  0  0  0  0  0  0
  142.9623   70.0211  219.4708 H   0  0  0  0  0  0  0  0  0  0  0  0
  144.7532   69.8829  219.4708 H   0  0  0  0  0  0  0  0  0  0  0  0
  146.0916   71.7361  220.4785 H   0  0  0  0  0  0  0  0  0  0  0  0
  146.3502   74.1995  220.5563 H   0  0  0  0  0  0  0  0  0  0  0  0
  141.9265   72.1725  219.5969 H   0  0  0  0  0  0  0  0  0  0  0  0
  141.6585   75.0011  218.6454 H   0  0  0  0  0  0  0  0  0  0  0  0
  141.2469   74.9812  220.3590 H   0  0  0  0  0  0  0  0  0  0  0  0
  142.8632   77.9589  217.6925 H   0  0  0  0  0  0  0  0  0  0  0  0
  141.8560   80.2180  217.5010 H   0  0  0  0  0  0  0  0  0  0  0  0
  140.6877   81.1512  219.4842 H   0  0  0  0  0  0  0  0  0  0  0  0
  138.4260   80.3070  221.0300 H   0  0  0  0  0  0  0  0  0  0  0  0
  137.5786   82.6769  222.0925 H   0  0  0  0  0  0  0  0  0  0  0  0
  136.4350   83.4989  224.1392 H   0  0  0  0  0  0  0  0  0  0  0  0
  136.1760   84.3711  226.0110 H   0  0  0  0  0  0  0  0  0  0  0  0
  135.0502   85.0458  228.0935 H   0  0  0  0  0  0  0  0  0  0  0  0
  134.5633   83.3812  229.8744 H   0  0  0  0  0  0  0  0  0  0  0  0
  135.2420   81.0105  229.5106 H   0  0  0  0  0  0  0  0  0  0  0  0
  136.3624   80.3492  227.4255 H   0  0  0  0  0  0  0  0  0  0  0  0
  138.8756   79.2664  224.3217 H   0  0  0  0  0  0  0  0  0  0  0  0
  141.5429   77.6347  221.7421 H   0  0  0  0  0  0  0  0  0  0  0  0
  1  2  1  0
  2  3  2  0
  3  4  1  0
  4  5  2  0
  5  6  1  0
  6  7  2  0
  6  8  1  0
  8  9  1  0
  9 10  1  0
 10 11  2  0
 11 12  1  0
 12 13  2  0
 13 14  1  0
 14 15  1  0
 15 16  2  0
 15 17  1  0
 17 18  1  0
 18 19  2  0
 19 20  1  0
 20 21  2  0
 21 22  1  0
 22 23  2  0
 23 24  1  0
 24 25  2  0
 25 26  1  0
 26 27  2  0
 21 28  1  0
 28 29  2  0
 14 30  2  0
  9 31  2  0
  7  2  1  0
 30 10  1  0
 31  5  1  0
 29 18  1  0
 27 22  1  0
  1 32  1  0
  1 33  1  0
  1 34  1  0
  3 35  1  0
  4 36  1  0
  7 37  1  0
  8 38  1  0
  8 39  1  0
 11 40  1  0
 12 41  1  0
 13 42  1  0
 17 43  1  0
 19 44  1  0
 20 45  1  0
 23 46  1  0
 24 47  1  0
 25 48  1  0
 26 49  1  0
 27 50  1  0
 29 51  1  0
 30 52  1  0
M  END
>  <smiles>  (7) 
Cc1ccc2c(c1)CC(c1cccc(C(=O)Nc3ccc(-c4ccccc4)nc3)c1)=N2

>  <score_type>  (7) 
oracle

>  <origin>  (7) 
autodockgpu

>  <m_score__min__energy>  (7) 
-8.1300000000000008

>  <m_primary>  (7) 
energy

>  <meeko>  (7) 
{"free_energy": -7.75, "intermolecular_energy": -8.94, "internal_energy": -0.92, "cluster_size": 1, "cluster_id": 5, "rank_in_cluster": 1}

>  <energy>  (7) 
-8.05

>  <cluster_rmsd>  (7) 
0.04

>  <rmsd>  (7) 
270.67

>  <cluster>  (7) 
2

$$$$

     RDKit          3D

 52 56  0  0  0  0  0  0  0  0999 V2000
  140.8160   68.1670  228.7160 C   0  0  0  0  0  0  0  0  0  0  0  0
  140.4500   68.5680  227.3230 C   0  0  0  0  0  0  0  0  0  0  0  0
  139.5790   67.7900  226.5980 C   0  0  0  0  0  0  0  0  0  0  0  0
  139.2150   68.1300  225.2970 C   0  0  0  0  0  0  0  0  0  0  0  0
  139.7280   69.2730  224.6960 C   0  0  0  0  0  0  0  0  0  0  0  0
  140.5970   70.0280  225.4520 C   0  0  0  0  0  0  0  0  0  0  0  0
  140.9650   69.7030  226.7380 C   0  0  0  0  0  0  0  0  0  0  0  0
  140.9950   71.1650  224.6110 C   0  0  0  0  0  0  0  0  0  0  0  0
  140.2630   70.9610  223.3270 C   0  0  0  0  0  0  0  0  0  0  0  0
  140.3690   71.8720  222.1890 C   0  0  0  0  0  0  0  0  0  0  0  0
  140.7700   71.4560  220.9390 C   0  0  0  0  0  0  0  0  0  0  0  0
  140.8740   72.3060  219.8560 C   0  0  0  0  0  0  0  0  0  0  0  0
  140.5530   73.6300  220.0730 C   0  0  0  0  0  0  0  0  0  0  0  0
  140.1450   74.1110  221.3000 C   0  0  0  0  0  0  0  0  0  0  0  0
  139.8050   75.5070  221.5410 C   0  0  0  0  0  0  0  0  0  0  0  0
  140.3410   76.4370  220.8730 O   0  0  0  0  0  0  0  0  0  0  0  0
  138.8630   75.9060  222.5280 N   0  0  0  0  0  0  0  0  0  0  0  0
  138.5230   77.2710  222.7710 C   0  0  0  0  0  0  0  0  0  0  0  0
  139.4890   78.2330  223.0290 C   0  0  0  0  0  0  0  0  0  0  0  0
  139.1030   79.5580  223.2610 C   0  0  0  0  0  0  0  0  0  0  0  0
  137.7830   79.9490  223.2420 C   0  0  0  0  0  0  0  0  0  0  0  0
  137.3860   81.3200  223.4810 C   0  0  0  0  0  0  0  0  0  0  0  0
  137.4150   82.3220  222.5520 C   0  0  0  0  0  0  0  0  0  0  0  0
  137.0180   83.6140  222.8560 C   0  0  0  0  0  0  0  0  0  0  0  0
  136.5750   83.9440  224.1190 C   0  0  0  0  0  0  0  0  0  0  0  0
  136.5380   82.9490  225.0730 C   0  0  0  0  0  0  0  0  0  0  0  0
  136.9360   81.6670  224.7560 C   0  0  0  0  0  0  0  0  0  0  0  0
  136.8680   78.9860  222.9870 N   0  0  0  0  0  0  0  0  0  0  0  0
  137.2170   77.7080  222.7620 C   0  0  0  0  0  0  0  0  0  0  0  0
  140.0590   73.2190  222.3480 C   0  0  0  0  0  0  0  0  0  0  0  0
  139.5680   69.8840  223.4310 N   0  0  0  0  0  0  0  0  0  0  0  0
  140.2543   68.7824  229.4342 H   0  0  0  0  0  0  0  0  0  0  0  0
  140.5681   67.1063  228.8693 H   0  0  0  0  0  0  0  0  0  0  0  0
  141.8948   68.3173  228.8693 H   0  0  0  0  0  0  0  0  0  0  0  0
  139.1610   66.8806  227.0543 H   0  0  0  0  0  0  0  0  0  0  0  0
  138.5157   67.4883  224.7409 H   0  0  0  0  0  0  0  0  0  0  0  0
  141.6646   70.3447  227.2936 H   0  0  0  0  0  0  0  0  0  0  0  0
  140.6998   72.1157  225.0790 H   0  0  0  0  0  0  0  0  0  0  0  0
  142.0843   71.2140  224.4658 H   0  0  0  0  0  0  0  0  0  0  0  0
  141.0198   70.3943  220.7963 H   0  0  0  0  0  0  0  0  0  0  0  0
  141.1970   71.9451  218.8684 H   0  0  0  0  0  0  0  0  0  0  0  0
  140.6255   74.3334  219.2304 H   0  0  0  0  0  0  0  0  0  0  0  0
  138.3760   75.2000  223.1220 H   0  0  0  0  0  0  0  0  0  0  0  0
  140.5532   77.9555  223.0511 H   0  0  0  0  0  0  0  0  0  0  0  0
  139.8786   80.3108  223.4650 H   0  0  0  0  0  0  0  0  0  0  0  0
  137.7636   82.0961  221.5335 H   0  0  0  0  0  0  0  0  0  0  0  0
  137.0569   84.3893  222.0767 H   0  0  0  0  0  0  0  0  0  0  0  0
  136.2604   84.9704  224.3587 H   0  0  0  0  0  0  0  0  0  0  0  0
  136.1897   83.1786  226.0908 H   0  0  0  0  0  0  0  0  0  0  0  0
  136.8975   80.8912  225.5349 H   0  0  0  0  0  0  0  0  0  0  0  0
  136.4213   76.9756  222.5609 H   0  0  0  0  0  0  0  0  0  0  0  0
  139.7370   73.5818  223.3353 H   0  0  0  0  0  0  0  0  0  0  0  0
  1  2  1  0
  2  3  2  0
  3  4  1  0
  4  5  2  0
  5  6  1  0
  6  7  2  0
  6  8  1  0
  8  9  1  0
  9 10  1  0
 10 11  2  0
 11 12  1  0
 12 13  2  0
 13 14  1  0
 14 15  1  0
 15 16  2  0
 15 17  1  0
 17 18  1  0
 18 19  2  0
 19 20  1  0
 20 21  2  0
 21 22  1  0
 22 23  2  0
 23 24  1  0
 24 25  2  0
 25 26  1  0
 26 27  2  0
 21 28  1  0
 28 29  2  0
 14 30  2  0
  9 31  2  0
  7  2  1  0
 30 10  1  0
 31  5  1  0
 29 18  1  0
 27 22  1  0
  1 32  1  0
  1 33  1  0
  1 34  1  0
  3 35  1  0
  4 36  1  0
  7 37  1  0
  8 38  1  0
  8 39  1  0
 11 40  1  0
 12 41  1  0
 13 42  1  0
 17 43  1  0
 19 44  1  0
 20 45  1  0
 23 46  1  0
 24 47  1  0
 25 48  1  0
 26 49  1  0
 27 50  1  0
 29 51  1  0
 30 52  1  0
M  END
>  <smiles>  (8) 
Cc1ccc2c(c1)CC(c1cccc(C(=O)Nc3ccc(-c4ccccc4)nc3)c1)=N2

>  <score_type>  (8) 
oracle

>  <origin>  (8) 
autodockgpu

>  <m_score__min__energy>  (8) 
-8.1300000000000008

>  <m_primary>  (8) 
energy

>  <meeko>  (8) 
{"free_energy": -7.94, "intermolecular_energy": -9.13, "internal_energy": -0.93, "cluster_size": 9, "cluster_id": 3, "rank_in_cluster": 3}

>  <energy>  (8) 
-8.04

>  <cluster_rmsd>  (8) 
0.13

>  <rmsd>  (8) 
270.66

>  <cluster>  (8) 
2

$$$$

     RDKit          3D

 52 56  0  0  0  0  0  0  0  0999 V2000
  132.4720   82.2480  230.8260 C   0  0  0  0  0  0  0  0  0  0  0  0
  133.6810   82.0460  229.9680 C   0  0  0  0  0  0  0  0  0  0  0  0
  134.8730   81.6860  230.5480 C   0  0  0  0  0  0  0  0  0  0  0  0
  136.0220   81.4890  229.7840 C   0  0  0  0  0  0  0  0  0  0  0  0
  135.9870   81.6550  228.4040 C   0  0  0  0  0  0  0  0  0  0  0  0
  134.7760   82.0160  227.8570 C   0  0  0  0  0  0  0  0  0  0  0  0
  133.6340   82.2130  228.6020 C   0  0  0  0  0  0  0  0  0  0  0  0
  134.9930   82.1270  226.4090 C   0  0  0  0  0  0  0  0  0  0  0  0
  136.4350   81.7930  226.2160 C   0  0  0  0  0  0  0  0  0  0  0  0
  137.0860   81.7810  224.9080 C   0  0  0  0  0  0  0  0  0  0  0  0
  136.8960   82.7760  223.9740 C   0  0  0  0  0  0  0  0  0  0  0  0
  137.5050   82.7770  222.7350 C   0  0  0  0  0  0  0  0  0  0  0  0
  138.3380   81.7150  222.4520 C   0  0  0  0  0  0  0  0  0  0  0  0
  138.5720   80.6870  223.3420 C   0  0  0  0  0  0  0  0  0  0  0  0
  139.4490   79.5600  223.0550 C   0  0  0  0  0  0  0  0  0  0  0  0
  140.3830   79.2390  223.8450 O   0  0  0  0  0  0  0  0  0  0  0  0
  139.3140   78.7630  221.8860 N   0  0  0  0  0  0  0  0  0  0  0  0
  140.1690   77.6570  221.5970 C   0  0  0  0  0  0  0  0  0  0  0  0
  141.1960   77.7460  220.6680 C   0  0  0  0  0  0  0  0  0  0  0  0
  142.0060   76.6320  220.4220 C   0  0  0  0  0  0  0  0  0  0  0  0
  141.8200   75.4340  221.0750 C   0  0  0  0  0  0  0  0  0  0  0  0
  142.6600   74.2830  220.8180 C   0  0  0  0  0  0  0  0  0  0  0  0
  142.2560   72.9800  220.9020 C   0  0  0  0  0  0  0  0  0  0  0  0
  143.1190   71.9280  220.6410 C   0  0  0  0  0  0  0  0  0  0  0  0
  144.4310   72.1550  220.2840 C   0  0  0  0  0  0  0  0  0  0  0  0
  144.8600   73.4630  220.1940 C   0  0  0  0  0  0  0  0  0  0  0  0
  143.9900   74.4990  220.4560 C   0  0  0  0  0  0  0  0  0  0  0  0
  140.8110   75.3820  221.9730 N   0  0  0  0  0  0  0  0  0  0  0  0
  140.0210   76.4400  222.2260 C   0  0  0  0  0  0  0  0  0  0  0  0
  137.9380   80.7350  224.5660 C   0  0  0  0  0  0  0  0  0  0  0  0
  136.9420   81.5370  227.3680 N   0  0  0  0  0  0  0  0  0  0  0  0
  132.7623   82.1995  231.8859 H   0  0  0  0  0  0  0  0  0  0  0  0
  132.0304   83.2324  230.6115 H   0  0  0  0  0  0  0  0  0  0  0  0
  131.7344   81.4606  230.6115 H   0  0  0  0  0  0  0  0  0  0  0  0
  134.9218   81.5503  231.6385 H   0  0  0  0  0  0  0  0  0  0  0  0
  136.9625   81.2003  230.2760 H   0  0  0  0  0  0  0  0  0  0  0  0
  132.6932   82.5011  228.1101 H   0  0  0  0  0  0  0  0  0  0  0  0
  134.3538   81.4159  225.8652 H   0  0  0  0  0  0  0  0  0  0  0  0
  134.7422   83.1271  226.0257 H   0  0  0  0  0  0  0  0  0  0  0  0
  136.2261   83.6107  224.2280 H   0  0  0  0  0  0  0  0  0  0  0  0
  137.3341   83.5855  222.0089 H   0  0  0  0  0  0  0  0  0  0  0  0
  138.8383   81.6862  221.4728 H   0  0  0  0  0  0  0  0  0  0  0  0
  138.5690   78.9620  221.1840 H   0  0  0  0  0  0  0  0  0  0  0  0
  141.3724   78.6878  220.1276 H   0  0  0  0  0  0  0  0  0  0  0  0
  142.8170   76.7158  219.6836 H   0  0  0  0  0  0  0  0  0  0  0  0
  141.2160   72.7603  221.1849 H   0  0  0  0  0  0  0  0  0  0  0  0
  142.7511   70.8944  220.7200 H   0  0  0  0  0  0  0  0  0  0  0  0
  145.1150   71.3187  220.0772 H   0  0  0  0  0  0  0  0  0  0  0  0
  145.9009   73.6799  219.9119 H   0  0  0  0  0  0  0  0  0  0  0  0
  144.3571   75.5329  220.3769 H   0  0  0  0  0  0  0  0  0  0  0  0
  139.2186   76.3289  222.9702 H   0  0  0  0  0  0  0  0  0  0  0  0
  138.1102   79.9255  225.2906 H   0  0  0  0  0  0  0  0  0  0  0  0
  1  2  1  0
  2  3  2  0
  3  4  1  0
  4  5  2  0
  5  6  1  0
  6  7  2  0
  6  8  1  0
  8  9  1  0
  9 10  1  0
 10 11  2  0
 11 12  1  0
 12 13  2  0
 13 14  1  0
 14 15  1  0
 15 16  2  0
 15 17  1  0
 17 18  1  0
 18 19  2  0
 19 20  1  0
 20 21  2  0
 21 22  1  0
 22 23  2  0
 23 24  1  0
 24 25  2  0
 25 26  1  0
 26 27  2  0
 21 28  1  0
 28 29  2  0
 14 30  2  0
  9 31  2  0
  7  2  1  0
 30 10  1  0
 31  5  1  0
 29 18  1  0
 27 22  1  0
  1 32  1  0
  1 33  1  0
  1 34  1  0
  3 35  1  0
  4 36  1  0
  7 37  1  0
  8 38  1  0
  8 39  1  0
 11 40  1  0
 12 41  1  0
 13 42  1  0
 17 43  1  0
 19 44  1  0
 20 45  1  0
 23 46  1  0
 24 47  1  0
 25 48  1  0
 26 49  1  0
 27 50  1  0
 29 51  1  0
 30 52  1  0
M  END
>  <smiles>  (9) 
Cc1ccc2c(c1)CC(c1cccc(C(=O)Nc3ccc(-c4ccccc4)nc3)c1)=N2

>  <score_type>  (9) 
oracle

>  <origin>  (9) 
autodockgpu

>  <m_score__min__energy>  (9) 
-8.1300000000000008

>  <m_primary>  (9) 
energy

>  <meeko>  (9) 
{"free_energy": -8.04, "intermolecular_energy": -9.23, "internal_energy": -0.96, "cluster_size": 3, "cluster_id": 1, "rank_in_cluster": 3}

>  <energy>  (9) 
-7.95

>  <cluster_rmsd>  (9) 
0.0

>  <rmsd>  (9) 
270.55

>  <cluster>  (9) 
3

$$$$

     RDKit          3D

 52 56  0  0  0  0  0  0  0  0999 V2000
  140.3880   68.1420  228.9370 C   0  0  0  0  0  0  0  0  0  0  0  0
  140.4920   69.2430  227.9310 C   0  0  0  0  0  0  0  0  0  0  0  0
  140.8540   70.5040  228.3380 C   0  0  0  0  0  0  0  0  0  0  0  0
  140.9610   71.5570  227.4310 C   0  0  0  0  0  0  0  0  0  0  0  0
  140.7010   71.3530  226.0810 C   0  0  0  0  0  0  0  0  0  0  0  0
  140.3410   70.0770  225.7090 C   0  0  0  0  0  0  0  0  0  0  0  0
  140.2320   69.0290  226.5950 C   0  0  0  0  0  0  0  0  0  0  0  0
  140.1220   70.1170  224.2570 C   0  0  0  0  0  0  0  0  0  0  0  0
  140.3960   71.5320  223.8710 C   0  0  0  0  0  0  0  0  0  0  0  0
  140.2970   72.0230  222.4980 C   0  0  0  0  0  0  0  0  0  0  0  0
  140.2570   71.1790  221.4100 C   0  0  0  0  0  0  0  0  0  0  0  0
  140.1640   71.6280  220.1080 C   0  0  0  0  0  0  0  0  0  0  0  0
  140.1090   72.9940  219.9250 C   0  0  0  0  0  0  0  0  0  0  0  0
  140.1440   73.8930  220.9710 C   0  0  0  0  0  0  0  0  0  0  0  0
  140.0880   75.3370  220.7910 C   0  0  0  0  0  0  0  0  0  0  0  0
  139.1650   75.8780  220.1150 O   0  0  0  0  0  0  0  0  0  0  0  0
  141.0510   76.2180  221.3530 N   0  0  0  0  0  0  0  0  0  0  0  0
  141.0030   77.6340  221.1820 C   0  0  0  0  0  0  0  0  0  0  0  0
  140.9930   78.5050  222.2610 C   0  0  0  0  0  0  0  0  0  0  0  0
  140.9460   79.8860  222.0380 C   0  0  0  0  0  0  0  0  0  0  0  0
  140.9090   80.4200  220.7700 C   0  0  0  0  0  0  0  0  0  0  0  0
  140.8600   81.8490  220.5420 C   0  0  0  0  0  0  0  0  0  0  0  0
  140.6120   82.7910  221.4990 C   0  0  0  0  0  0  0  0  0  0  0  0
  140.5810   84.1450  221.2050 C   0  0  0  0  0  0  0  0  0  0  0  0
  140.8010   84.5990  219.9220 C   0  0  0  0  0  0  0  0  0  0  0  0
  141.0530   83.6650  218.9390 C   0  0  0  0  0  0  0  0  0  0  0  0
  141.0810   82.3210  219.2470 C   0  0  0  0  0  0  0  0  0  0  0  0
  140.9200   79.5430  219.7400 N   0  0  0  0  0  0  0  0  0  0  0  0
  140.9650   78.2140  219.9320 C   0  0  0  0  0  0  0  0  0  0  0  0
  140.2390   73.3900  222.2520 C   0  0  0  0  0  0  0  0  0  0  0  0
  140.7160   72.1800  224.9340 N   0  0  0  0  0  0  0  0  0  0  0  0
  140.4281   68.5667  229.9509 H   0  0  0  0  0  0  0  0  0  0  0  0
  139.4355   67.6090  228.8001 H   0  0  0  0  0  0  0  0  0  0  0  0
  141.2238   67.4401  228.8001 H   0  0  0  0  0  0  0  0  0  0  0  0
  141.0639   70.6867  229.4022 H   0  0  0  0  0  0  0  0  0  0  0  0
  141.2532   72.5563  227.7861 H   0  0  0  0  0  0  0  0  0  0  0  0
  139.9400   68.0298  226.2395 H   0  0  0  0  0  0  0  0  0  0  0  0
  140.8129   69.4336  223.7416 H   0  0  0  0  0  0  0  0  0  0  0  0
  139.1056   69.7998  223.9807 H   0  0  0  0  0  0  0  0  0  0  0  0
  140.3013   70.0943  221.5874 H   0  0  0  0  0  0  0  0  0  0  0  0
  140.1352   70.9305  219.2579 H   0  0  0  0  0  0  0  0  0  0  0  0
  140.0339   73.3841  218.8992 H   0  0  0  0  0  0  0  0  0  0  0  0
  141.8440   75.8520  221.9240 H   0  0  0  0  0  0  0  0  0  0  0  0
  141.0219   78.1122  223.2881 H   0  0  0  0  0  0  0  0  0  0  0  0
  140.9384   80.5656  222.9029 H   0  0  0  0  0  0  0  0  0  0  0  0
  140.4315   82.4654  222.5341 H   0  0  0  0  0  0  0  0  0  0  0  0
  140.3777   84.8688  222.0080 H   0  0  0  0  0  0  0  0  0  0  0  0
  140.7763   85.6738  219.6893 H   0  0  0  0  0  0  0  0  0  0  0  0
  141.2325   83.9935  217.9047 H   0  0  0  0  0  0  0  0  0  0  0  0
  141.2844   81.5963  218.4449 H   0  0  0  0  0  0  0  0  0  0  0  0
  140.9718   77.5573  219.0496 H   0  0  0  0  0  0  0  0  0  0  0  0
  140.2697   74.0888  223.1010 H   0  0  0  0  0  0  0  0  0  0  0  0
  1  2  1  0
  2  3  2  0
  3  4  1  0
  4  5  2  0
  5  6  1  0
  6  7  2  0
  6  8  1  0
  8  9  1  0
  9 10  1  0
 10 11  2  0
 11 12  1  0
 12 13  2  0
 13 14  1  0
 14 15  1  0
 15 16  2  0
 15 17  1  0
 17 18  1  0
 18 19  2  0
 19 20  1  0
 20 21  2  0
 21 22  1  0
 22 23  2  0
 23 24  1  0
 24 25  2  0
 25 26  1  0
 26 27  2  0
 21 28  1  0
 28 29  2  0
 14 30  2  0
  9 31  2  0
  7  2  1  0
 30 10  1  0
 31  5  1  0
 29 18  1  0
 27 22  1  0
  1 32  1  0
  1 33  1  0
  1 34  1  0
  3 35  1  0
  4 36  1  0
  7 37  1  0
  8 38  1  0
  8 39  1  0
 11 40  1  0
 12 41  1  0
 13 42  1  0
 17 43  1  0
 19 44  1  0
 20 45  1  0
 23 46  1  0
 24 47  1  0
 25 48  1  0
 26 49  1  0
 27 50  1  0
 29 51  1  0
 30 52  1  0
M  END
>  <smiles>  (10) 
Cc1ccc2c(c1)CC(c1cccc(C(=O)Nc3ccc(-c4ccccc4)nc3)c1)=N2

>  <score_type>  (10) 
oracle

>  <origin>  (10) 
autodockgpu

>  <m_score__min__energy>  (10) 
-8.1300000000000008

>  <m_primary>  (10) 
energy

>  <meeko>  (10) 
{"free_energy": -8.06, "intermolecular_energy": -9.25, "internal_energy": -0.94, "cluster_size": 5, "cluster_id": 2, "rank_in_cluster": 3}

>  <energy>  (10) 
-7.94

>  <cluster_rmsd>  (10) 
0.1

>  <rmsd>  (10) 
270.56

>  <cluster>  (10) 
3

$$$$

     RDKit          3D

 52 56  0  0  0  0  0  0  0  0999 V2000
  140.8360   68.1450  228.7160 C   0  0  0  0  0  0  0  0  0  0  0  0
  140.4680   68.5530  227.3250 C   0  0  0  0  0  0  0  0  0  0  0  0
  139.5740   67.7950  226.6080 C   0  0  0  0  0  0  0  0  0  0  0  0
  139.2070   68.1410  225.3090 C   0  0  0  0  0  0  0  0  0  0  0  0
  139.7410   69.2720  224.7040 C   0  0  0  0  0  0  0  0  0  0  0  0
  140.6330   70.0080  225.4510 C   0  0  0  0  0  0  0  0  0  0  0  0
  141.0040   69.6760  226.7350 C   0  0  0  0  0  0  0  0  0  0  0  0
  141.0500   71.1350  224.6060 C   0  0  0  0  0  0  0  0  0  0  0  0
  140.3030   70.9460  223.3280 C   0  0  0  0  0  0  0  0  0  0  0  0
  140.4210   71.8550  222.1890 C   0  0  0  0  0  0  0  0  0  0  0  0
  140.8380   71.4350  220.9450 C   0  0  0  0  0  0  0  0  0  0  0  0
  140.9530   72.2810  219.8610 C   0  0  0  0  0  0  0  0  0  0  0  0
  140.6260   73.6050  220.0700 C   0  0  0  0  0  0  0  0  0  0  0  0
  140.2020   74.0900  221.2890 C   0  0  0  0  0  0  0  0  0  0  0  0
  139.8540   75.4850  221.5220 C   0  0  0  0  0  0  0  0  0  0  0  0
  140.3660   76.4120  220.8300 O   0  0  0  0  0  0  0  0  0  0  0  0
  138.9330   75.8880  222.5260 N   0  0  0  0  0  0  0  0  0  0  0  0
  138.5870   77.2530  222.7600 C   0  0  0  0  0  0  0  0  0  0  0  0
  139.5480   78.2220  223.0090 C   0  0  0  0  0  0  0  0  0  0  0  0
  139.1550   79.5470  223.2320 C   0  0  0  0  0  0  0  0  0  0  0  0
  137.8330   79.9300  223.2140 C   0  0  0  0  0  0  0  0  0  0  0  0
  137.4300   81.3010  223.4450 C   0  0  0  0  0  0  0  0  0  0  0  0
  137.4880   82.3050  222.5200 C   0  0  0  0  0  0  0  0  0  0  0  0
  137.0820   83.5970  222.8150 C   0  0  0  0  0  0  0  0  0  0  0  0
  136.6000   83.9240  224.0650 C   0  0  0  0  0  0  0  0  0  0  0  0
  136.5350   82.9260  225.0140 C   0  0  0  0  0  0  0  0  0  0  0  0
  136.9410   81.6450  224.7060 C   0  0  0  0  0  0  0  0  0  0  0  0
  136.9230   78.9610  222.9690 N   0  0  0  0  0  0  0  0  0  0  0  0
  137.2770   77.6830  222.7510 C   0  0  0  0  0  0  0  0  0  0  0  0
  140.1050   73.2010  222.3390 C   0  0  0  0  0  0  0  0  0  0  0  0
  139.5850   69.8860  223.4390 N   0  0  0  0  0  0  0  0  0  0  0  0
  140.2802   68.7612  229.4380 H   0  0  0  0  0  0  0  0  0  0  0  0
  140.5823   67.0853  228.8665 H   0  0  0  0  0  0  0  0  0  0  0  0
  141.9162   68.2884  228.8665 H   0  0  0  0  0  0  0  0  0  0  0  0
  139.1388   66.8961  227.0691 H   0  0  0  0  0  0  0  0  0  0  0  0
  138.4896   67.5144  224.7588 H   0  0  0  0  0  0  0  0  0  0  0  0
  141.7222   70.3023  227.2845 H   0  0  0  0  0  0  0  0  0  0  0  0
  140.7801   72.0926  225.0753 H   0  0  0  0  0  0  0  0  0  0  0  0
  142.1389   71.1597  224.4522 H   0  0  0  0  0  0  0  0  0  0  0  0
  141.0917   70.3733  220.8092 H   0  0  0  0  0  0  0  0  0  0  0  0
  141.2889   71.9177  218.8785 H   0  0  0  0  0  0  0  0  0  0  0  0
  140.7073   74.3055  219.2258 H   0  0  0  0  0  0  0  0  0  0  0  0
  138.4660   75.1850  223.1400 H   0  0  0  0  0  0  0  0  0  0  0  0
  140.6137   77.9505  223.0311 H   0  0  0  0  0  0  0  0  0  0  0  0
  139.9269   80.3059  223.4277 H   0  0  0  0  0  0  0  0  0  0  0  0
  137.8679   82.0815  221.5122 H   0  0  0  0  0  0  0  0  0  0  0  0
  137.1453   84.3743  222.0393 H   0  0  0  0  0  0  0  0  0  0  0  0
  136.2773   84.9495  224.2977 H   0  0  0  0  0  0  0  0  0  0  0  0
  136.1573   83.1530  226.0219 H   0  0  0  0  0  0  0  0  0  0  0  0
  136.8773   80.8671  225.4811 H   0  0  0  0  0  0  0  0  0  0  0  0
  136.4845   76.9454  222.5563 H   0  0  0  0  0  0  0  0  0  0  0  0
  139.7689   73.5661  223.3207 H   0  0  0  0  0  0  0  0  0  0  0  0
  1  2  1  0
  2  3  2  0
  3  4  1  0
  4  5  2  0
  5  6  1  0
  6  7  2  0
  6  8  1  0
  8  9  1  0
  9 10  1  0
 10 11  2  0
 11 12  1  0
 12 13  2  0
 13 14  1  0
 14 15  1  0
 15 16  2  0
 15 17  1  0
 17 18  1  0
 18 19  2  0
 19 20  1  0
 20 21  2  0
 21 22  1  0
 22 23  2  0
 23 24  1  0
 24 25  2  0
 25 26  1  0
 26 27  2  0
 21 28  1  0
 28 29  2  0
 14 30  2  0
  9 31  2  0
  7  2  1  0
 30 10  1  0
 31  5  1  0
 29 18  1  0
 27 22  1  0
  1 32  1  0
  1 33  1  0
  1 34  1  0
  3 35  1  0
  4 36  1  0
  7 37  1  0
  8 38  1  0
  8 39  1  0
 11 40  1  0
 12 41  1  0
 13 42  1  0
 17 43  1  0
 19 44  1  0
 20 45  1  0
 23 46  1  0
 24 47  1  0
 25 48  1  0
 26 49  1  0
 27 50  1  0
 29 51  1  0
 30 52  1  0
M  END
>  <smiles>  (11) 
Cc1ccc2c(c1)CC(c1cccc(C(=O)Nc3ccc(-c4ccccc4)nc3)c1)=N2

>  <score_type>  (11) 
oracle

>  <origin>  (11) 
autodockgpu

>  <m_score__min__energy>  (11) 
-8.1300000000000008

>  <m_primary>  (11) 
energy

>  <meeko>  (11) 
{"free_energy": -7.93, "intermolecular_energy": -9.12, "internal_energy": -0.94, "cluster_size": 9, "cluster_id": 3, "rank_in_cluster": 5}

>  <energy>  (11) 
-7.94

>  <cluster_rmsd>  (11) 
0.05

>  <rmsd>  (11) 
270.55

>  <cluster>  (11) 
3

$$$$

     RDKit          3D

 52 56  0  0  0  0  0  0  0  0999 V2000
  140.7770   68.2230  228.7280 C   0  0  0  0  0  0  0  0  0  0  0  0
  140.4210   68.6110  227.3280 C   0  0  0  0  0  0  0  0  0  0  0  0
  139.5820   67.8090  226.5930 C   0  0  0  0  0  0  0  0  0  0  0  0
  139.2270   68.1360  225.2850 C   0  0  0  0  0  0  0  0  0  0  0  0
  139.7180   69.2920  224.6900 C   0  0  0  0  0  0  0  0  0  0  0  0
  140.5560   70.0720  225.4560 C   0  0  0  0  0  0  0  0  0  0  0  0
  140.9140   69.7590  226.7490 C   0  0  0  0  0  0  0  0  0  0  0  0
  140.9350   71.2170  224.6190 C   0  0  0  0  0  0  0  0  0  0  0  0
  140.2280   70.9910  223.3240 C   0  0  0  0  0  0  0  0  0  0  0  0
  140.3250   71.9030  222.1870 C   0  0  0  0  0  0  0  0  0  0  0  0
  140.7120   71.4860  220.9320 C   0  0  0  0  0  0  0  0  0  0  0  0
  140.8080   72.3360  219.8490 C   0  0  0  0  0  0  0  0  0  0  0  0
  140.4950   73.6610  220.0700 C   0  0  0  0  0  0  0  0  0  0  0  0
  140.1010   74.1430  221.3010 C   0  0  0  0  0  0  0  0  0  0  0  0
  139.7690   75.5400  221.5470 C   0  0  0  0  0  0  0  0  0  0  0  0
  140.3140   76.4690  220.8850 O   0  0  0  0  0  0  0  0  0  0  0  0
  138.8260   75.9410  222.5320 N   0  0  0  0  0  0  0  0  0  0  0  0
  138.4950   77.3070  222.7790 C   0  0  0  0  0  0  0  0  0  0  0  0
  139.4640   78.2590  223.0610 C   0  0  0  0  0  0  0  0  0  0  0  0
  139.0850   79.5860  223.2960 C   0  0  0  0  0  0  0  0  0  0  0  0
  137.7700   79.9880  223.2570 C   0  0  0  0  0  0  0  0  0  0  0  0
  137.3800   81.3610  223.5000 C   0  0  0  0  0  0  0  0  0  0  0  0
  137.4150   82.3650  222.5730 C   0  0  0  0  0  0  0  0  0  0  0  0
  137.0250   83.6590  222.8800 C   0  0  0  0  0  0  0  0  0  0  0  0
  136.5850   83.9890  224.1440 C   0  0  0  0  0  0  0  0  0  0  0  0
  136.5430   82.9910  225.0950 C   0  0  0  0  0  0  0  0  0  0  0  0
  136.9330   81.7080  224.7760 C   0  0  0  0  0  0  0  0  0  0  0  0
  136.8500   79.0350  222.9790 N   0  0  0  0  0  0  0  0  0  0  0  0
  137.1920   77.7560  222.7500 C   0  0  0  0  0  0  0  0  0  0  0  0
  140.0220   73.2510  222.3490 C   0  0  0  0  0  0  0  0  0  0  0  0
  139.5600   69.8960  223.4210 N   0  0  0  0  0  0  0  0  0  0  0  0
  140.2080   68.8431  229.4363 H   0  0  0  0  0  0  0  0  0  0  0  0
  140.5306   67.1631  228.8886 H   0  0  0  0  0  0  0  0  0  0  0  0
  141.8542   68.3774  228.8886 H   0  0  0  0  0  0  0  0  0  0  0  0
  139.1820   66.8898  227.0459 H   0  0  0  0  0  0  0  0  0  0  0  0
  138.5537   67.4745  224.7201 H   0  0  0  0  0  0  0  0  0  0  0  0
  141.5876   70.4202  227.3138 H   0  0  0  0  0  0  0  0  0  0  0  0
  140.6070   72.1601  225.0805 H   0  0  0  0  0  0  0  0  0  0  0  0
  142.0246   71.2953  224.4899 H   0  0  0  0  0  0  0  0  0  0  0  0
  140.9564   70.4235  220.7862 H   0  0  0  0  0  0  0  0  0  0  0  0
  141.1190   71.9744  218.8578 H   0  0  0  0  0  0  0  0  0  0  0  0
  140.5626   74.3646  219.2272 H   0  0  0  0  0  0  0  0  0  0  0  0
  138.3320   75.2360  223.1210 H   0  0  0  0  0  0  0  0  0  0  0  0
  140.5253   77.9724  223.0998 H   0  0  0  0  0  0  0  0  0  0  0  0
  139.8633   80.3307  223.5189 H   0  0  0  0  0  0  0  0  0  0  0  0
  137.7627   82.1394  221.5541 H   0  0  0  0  0  0  0  0  0  0  0  0
  137.0673   84.4356  222.1021 H   0  0  0  0  0  0  0  0  0  0  0  0
  136.2769   85.0167  224.3867 H   0  0  0  0  0  0  0  0  0  0  0  0
  136.1964   83.2201  226.1135 H   0  0  0  0  0  0  0  0  0  0  0  0
  136.8905   80.9310  225.5535 H   0  0  0  0  0  0  0  0  0  0  0  0
  136.3937   77.0323  222.5287 H   0  0  0  0  0  0  0  0  0  0  0  0
  139.7112   73.6147  223.3395 H   0  0  0  0  0  0  0  0  0  0  0  0
  1  2  1  0
  2  3  2  0
  3  4  1  0
  4  5  2  0
  5  6  1  0
  6  7  2  0
  6  8  1  0
  8  9  1  0
  9 10  1  0
 10 11  2  0
 11 12  1  0
 12 13  2  0
 13 14  1  0
 14 15  1  0
 15 16  2  0
 15 17  1  0
 17 18  1  0
 18 19  2  0
 19 20  1  0
 20 21  2  0
 21 22  1  0
 22 23  2  0
 23 24  1  0
 24 25  2  0
 25 26  1  0
 26 27  2  0
 21 28  1  0
 28 29  2  0
 14 30  2  0
  9 31  2  0
  7  2  1  0
 30 10  1  0
 31  5  1  0
 29 18  1  0
 27 22  1  0
  1 32  1  0
  1 33  1  0
  1 34  1  0
  3 35  1  0
  4 36  1  0
  7 37  1  0
  8 38  1  0
  8 39  1  0
 11 40  1  0
 12 41  1  0
 13 42  1  0
 17 43  1  0
 19 44  1  0
 20 45  1  0
 23 46  1  0
 24 47  1  0
 25 48  1  0
 26 49  1  0
 27 50  1  0
 29 51  1  0
 30 52  1  0
M  END
>  <smiles>  (12) 
Cc1ccc2c(c1)CC(c1cccc(C(=O)Nc3ccc(-c4ccccc4)nc3)c1)=N2

>  <score_type>  (12) 
oracle

>  <origin>  (12) 
autodockgpu

>  <m_score__min__energy>  (12) 
-8.1300000000000008

>  <m_primary>  (12) 
energy

>  <meeko>  (12) 
{"free_energy": -7.95, "intermolecular_energy": -9.14, "internal_energy": -0.94, "cluster_size": 9, "cluster_id": 3, "rank_in_cluster": 1}

>  <energy>  (12) 
-7.93

>  <cluster_rmsd>  (12) 
0.11

>  <rmsd>  (12) 
270.56

>  <cluster>  (12) 
3

$$$$

     RDKit          3D

 52 56  0  0  0  0  0  0  0  0999 V2000
  132.2600   81.8060  230.5960 C   0  0  0  0  0  0  0  0  0  0  0  0
  133.5150   81.7600  229.7850 C   0  0  0  0  0  0  0  0  0  0  0  0
  134.7310   81.6730  230.4190 C   0  0  0  0  0  0  0  0  0  0  0  0
  135.9240   81.6280  229.6990 C   0  0  0  0  0  0  0  0  0  0  0  0
  135.9100   81.6710  228.3100 C   0  0  0  0  0  0  0  0  0  0  0  0
  134.6740   81.7580  227.7080 C   0  0  0  0  0  0  0  0  0  0  0  0
  133.4900   81.8030  228.4090 C   0  0  0  0  0  0  0  0  0  0  0  0
  134.9210   81.7880  226.2600 C   0  0  0  0  0  0  0  0  0  0  0  0
  136.4050   81.7100  226.1270 C   0  0  0  0  0  0  0  0  0  0  0  0
  137.0960   81.7100  224.8400 C   0  0  0  0  0  0  0  0  0  0  0  0
  136.9510   82.7250  223.9200 C   0  0  0  0  0  0  0  0  0  0  0  0
  137.5970   82.7390  222.7000 C   0  0  0  0  0  0  0  0  0  0  0  0
  138.4210   81.6670  222.4220 C   0  0  0  0  0  0  0  0  0  0  0  0
  138.6090   80.6190  223.2990 C   0  0  0  0  0  0  0  0  0  0  0  0
  139.4750   79.4820  223.0160 C   0  0  0  0  0  0  0  0  0  0  0  0
  140.4110   79.1600  223.8030 O   0  0  0  0  0  0  0  0  0  0  0  0
  139.3260   78.6760  221.8560 N   0  0  0  0  0  0  0  0  0  0  0  0
  140.1700   77.5600  221.5710 C   0  0  0  0  0  0  0  0  0  0  0  0
  141.1910   77.6310  220.6340 C   0  0  0  0  0  0  0  0  0  0  0  0
  141.9900   76.5080  220.3930 C   0  0  0  0  0  0  0  0  0  0  0  0
  141.7990   75.3190  221.0590 C   0  0  0  0  0  0  0  0  0  0  0  0
  142.6270   74.1580  220.8070 C   0  0  0  0  0  0  0  0  0  0  0  0
  142.2050   72.8610  220.8750 C   0  0  0  0  0  0  0  0  0  0  0  0
  143.0570   71.7990  220.6210 C   0  0  0  0  0  0  0  0  0  0  0  0
  144.3780   72.0100  220.2860 C   0  0  0  0  0  0  0  0  0  0  0  0
  144.8260   73.3130  220.2140 C   0  0  0  0  0  0  0  0  0  0  0  0
  143.9660   74.3590  220.4690 C   0  0  0  0  0  0  0  0  0  0  0  0
  140.7960   75.2840  221.9650 N   0  0  0  0  0  0  0  0  0  0  0  0
  140.0160   76.3510  222.2130 C   0  0  0  0  0  0  0  0  0  0  0  0
  137.9390   80.6560  224.5030 C   0  0  0  0  0  0  0  0  0  0  0  0
  136.9090   81.6460  227.3090 N   0  0  0  0  0  0  0  0  0  0  0  0
  132.5144   81.7967  231.6661 H   0  0  0  0  0  0  0  0  0  0  0  0
  131.7040   82.7251  230.3593 H   0  0  0  0  0  0  0  0  0  0  0  0
  131.6382   80.9300  230.3593 H   0  0  0  0  0  0  0  0  0  0  0  0
  134.7638   81.6381  231.5180 H   0  0  0  0  0  0  0  0  0  0  0  0
  136.8827   81.5580  230.2339 H   0  0  0  0  0  0  0  0  0  0  0  0
  132.5314   81.8728  227.8740 H   0  0  0  0  0  0  0  0  0  0  0  0
  134.4417   80.9294  225.7669 H   0  0  0  0  0  0  0  0  0  0  0  0
  134.5076   82.6905  225.7860 H   0  0  0  0  0  0  0  0  0  0  0  0
  136.2876   83.5661  224.1698 H   0  0  0  0  0  0  0  0  0  0  0  0
  137.4618   83.5637  221.9848 H   0  0  0  0  0  0  0  0  0  0  0  0
  138.9512   81.6476  221.4584 H   0  0  0  0  0  0  0  0  0  0  0  0
  138.5780   78.8760  221.1560 H   0  0  0  0  0  0  0  0  0  0  0  0
  141.3714   78.5659  220.0832 H   0  0  0  0  0  0  0  0  0  0  0  0
  142.7961   76.5777  219.6478 H   0  0  0  0  0  0  0  0  0  0  0  0
  141.1576   72.6536  221.1393 H   0  0  0  0  0  0  0  0  0  0  0  0
  142.6736   70.7701  220.6876 H   0  0  0  0  0  0  0  0  0  0  0  0
  145.0534   71.1659  220.0825 H   0  0  0  0  0  0  0  0  0  0  0  0
  145.8745   73.5177  219.9519 H   0  0  0  0  0  0  0  0  0  0  0  0
  144.3482   75.3884  220.4038 H   0  0  0  0  0  0  0  0  0  0  0  0
  139.2177   76.2538  222.9636 H   0  0  0  0  0  0  0  0  0  0  0  0
  138.0746   79.8299  225.2166 H   0  0  0  0  0  0  0  0  0  0  0  0
  1  2  1  0
  2  3  2  0
  3  4  1  0
  4  5  2  0
  5  6  1  0
  6  7  2  0
  6  8  1  0
  8  9  1  0
  9 10  1  0
 10 11  2  0
 11 12  1  0
 12 13  2  0
 13 14  1  0
 14 15  1  0
 15 16  2  0
 15 17  1  0
 17 18  1  0
 18 19  2  0
 19 20  1  0
 20 21  2  0
 21 22  1  0
 22 23  2  0
 23 24  1  0
 24 25  2  0
 25 26  1  0
 26 27  2  0
 21 28  1  0
 28 29  2  0
 14 30  2  0
  9 31  2  0
  7  2  1  0
 30 10  1  0
 31  5  1  0
 29 18  1  0
 27 22  1  0
  1 32  1  0
  1 33  1  0
  1 34  1  0
  3 35  1  0
  4 36  1  0
  7 37  1  0
  8 38  1  0
  8 39  1  0
 11 40  1  0
 12 41  1  0
 13 42  1  0
 17 43  1  0
 19 44  1  0
 20 45  1  0
 23 46  1  0
 24 47  1  0
 25 48  1  0
 26 49  1  0
 27 50  1  0
 29 51  1  0
 30 52  1  0
M  END
>  <smiles>  (13) 
Cc1ccc2c(c1)CC(c1cccc(C(=O)Nc3ccc(-c4ccccc4)nc3)c1)=N2

>  <score_type>  (13) 
oracle

>  <origin>  (13) 
autodockgpu

>  <m_score__min__energy>  (13) 
-8.1300000000000008

>  <m_primary>  (13) 
energy

>  <meeko>  (13) 
{"free_energy": -8.13, "intermolecular_energy": -9.32, "internal_energy": -0.96, "cluster_size": 3, "cluster_id": 1, "rank_in_cluster": 1}

>  <energy>  (13) 
-7.93

>  <cluster_rmsd>  (13) 
0.11

>  <rmsd>  (13) 
270.56

>  <cluster>  (13) 
3

$$$$

     RDKit          3D

 52 56  0  0  0  0  0  0  0  0999 V2000
  140.6870   68.2850  228.7330 C   0  0  0  0  0  0  0  0  0  0  0  0
  140.3470   68.6590  227.3250 C   0  0  0  0  0  0  0  0  0  0  0  0
  139.5560   67.8250  226.5730 C   0  0  0  0  0  0  0  0  0  0  0  0
  139.2170   68.1370  225.2580 C   0  0  0  0  0  0  0  0  0  0  0  0
  139.6750   69.3100  224.6710 C   0  0  0  0  0  0  0  0  0  0  0  0
  140.4650   70.1220  225.4540 C   0  0  0  0  0  0  0  0  0  0  0  0
  140.8070   69.8250  226.7550 C   0  0  0  0  0  0  0  0  0  0  0  0
  140.8180   71.2810  224.6230 C   0  0  0  0  0  0  0  0  0  0  0  0
  140.1480   71.0260  223.3140 C   0  0  0  0  0  0  0  0  0  0  0  0
  140.2350   71.9410  222.1780 C   0  0  0  0  0  0  0  0  0  0  0  0
  140.6160   71.5280  220.9210 C   0  0  0  0  0  0  0  0  0  0  0  0
  140.7030   72.3800  219.8380 C   0  0  0  0  0  0  0  0  0  0  0  0
  140.3840   73.7030  220.0630 C   0  0  0  0  0  0  0  0  0  0  0  0
  139.9950   74.1810  221.2970 C   0  0  0  0  0  0  0  0  0  0  0  0
  139.6570   75.5760  221.5470 C   0  0  0  0  0  0  0  0  0  0  0  0
  140.1160   76.5020  220.8190 O   0  0  0  0  0  0  0  0  0  0  0  0
  138.8030   75.9790  222.6090 N   0  0  0  0  0  0  0  0  0  0  0  0
  138.4660   77.3430  222.8610 C   0  0  0  0  0  0  0  0  0  0  0  0
  139.4360   78.3100  223.0850 C   0  0  0  0  0  0  0  0  0  0  0  0
  139.0530   79.6340  223.3270 C   0  0  0  0  0  0  0  0  0  0  0  0
  137.7320   80.0190  223.3520 C   0  0  0  0  0  0  0  0  0  0  0  0
  137.3370   81.3890  223.6020 C   0  0  0  0  0  0  0  0  0  0  0  0
  137.3050   82.3830  222.6650 C   0  0  0  0  0  0  0  0  0  0  0  0
  136.9150   83.6740  222.9800 C   0  0  0  0  0  0  0  0  0  0  0  0
  136.5420   84.0120  224.2630 C   0  0  0  0  0  0  0  0  0  0  0  0
  136.5680   83.0250  225.2260 C   0  0  0  0  0  0  0  0  0  0  0  0
  136.9580   81.7440  224.8980 C   0  0  0  0  0  0  0  0  0  0  0  0
  136.8120   79.0520  223.1300 N   0  0  0  0  0  0  0  0  0  0  0  0
  137.1580   77.7740  222.8950 C   0  0  0  0  0  0  0  0  0  0  0  0
  139.9260   73.2870  222.3440 C   0  0  0  0  0  0  0  0  0  0  0  0
  139.5220   69.9070  223.3980 N   0  0  0  0  0  0  0  0  0  0  0  0
  140.1137   68.9156  229.4285 H   0  0  0  0  0  0  0  0  0  0  0  0
  140.4341   67.2280  228.9029 H   0  0  0  0  0  0  0  0  0  0  0  0
  141.7632   68.4364  228.9029 H   0  0  0  0  0  0  0  0  0  0  0  0
  139.1823   66.8911  227.0183 H   0  0  0  0  0  0  0  0  0  0  0  0
  138.5819   67.4494  224.6802 H   0  0  0  0  0  0  0  0  0  0  0  0
  141.4416   70.5128  227.3331 H   0  0  0  0  0  0  0  0  0  0  0  0
  140.4441   72.2112  225.0756 H   0  0  0  0  0  0  0  0  0  0  0  0
  141.9062   71.4016  224.5173 H   0  0  0  0  0  0  0  0  0  0  0  0
  140.8634   70.4666  220.7722 H   0  0  0  0  0  0  0  0  0  0  0  0
  141.0115   72.0215  218.8449 H   0  0  0  0  0  0  0  0  0  0  0  0
  140.4424   74.4082  219.2208 H   0  0  0  0  0  0  0  0  0  0  0  0
  138.3820   75.2760  223.2560 H   0  0  0  0  0  0  0  0  0  0  0  0
  140.5015   78.0368  223.0724 H   0  0  0  0  0  0  0  0  0  0  0  0
  139.8320   80.3905  223.5027 H   0  0  0  0  0  0  0  0  0  0  0  0
  137.5975   82.1510  221.6303 H   0  0  0  0  0  0  0  0  0  0  0  0
  136.9027   84.4425  222.1930 H   0  0  0  0  0  0  0  0  0  0  0  0
  136.2329   85.0380  224.5115 H   0  0  0  0  0  0  0  0  0  0  0  0
  136.2763   83.2609  226.2601 H   0  0  0  0  0  0  0  0  0  0  0  0
  136.9710   80.9751  225.6845 H   0  0  0  0  0  0  0  0  0  0  0  0
  136.3590   77.0381  222.7218 H   0  0  0  0  0  0  0  0  0  0  0  0
  139.6185   73.6475  223.3367 H   0  0  0  0  0  0  0  0  0  0  0  0
  1  2  1  0
  2  3  2  0
  3  4  1  0
  4  5  2  0
  5  6  1  0
  6  7  2  0
  6  8  1  0
  8  9  1  0
  9 10  1  0
 10 11  2  0
 11 12  1  0
 12 13  2  0
 13 14  1  0
 14 15  1  0
 15 16  2  0
 15 17  1  0
 17 18  1  0
 18 19  2  0
 19 20  1  0
 20 21  2  0
 21 22  1  0
 22 23  2  0
 23 24  1  0
 24 25  2  0
 25 26  1  0
 26 27  2  0
 21 28  1  0
 28 29  2  0
 14 30  2  0
  9 31  2  0
  7  2  1  0
 30 10  1  0
 31  5  1  0
 29 18  1  0
 27 22  1  0
  1 32  1  0
  1 33  1  0
  1 34  1  0
  3 35  1  0
  4 36  1  0
  7 37  1  0
  8 38  1  0
  8 39  1  0
 11 40  1  0
 12 41  1  0
 13 42  1  0
 17 43  1  0
 19 44  1  0
 20 45  1  0
 23 46  1  0
 24 47  1  0
 25 48  1  0
 26 49  1  0
 27 50  1  0
 29 51  1  0
 30 52  1  0
M  END
>  <smiles>  (14) 
Cc1ccc2c(c1)CC(c1cccc(C(=O)Nc3ccc(-c4ccccc4)nc3)c1)=N2

>  <score_type>  (14) 
oracle

>  <origin>  (14) 
autodockgpu

>  <m_score__min__energy>  (14) 
-8.1300000000000008

>  <m_primary>  (14) 
energy

>  <meeko>  (14) 
{"free_energy": -7.93, "intermolecular_energy": -9.13, "internal_energy": -0.94, "cluster_size": 9, "cluster_id": 3, "rank_in_cluster": 4}

>  <energy>  (14) 
-7.92

>  <cluster_rmsd>  (14) 
0.08

>  <rmsd>  (14) 
270.56

>  <cluster>  (14) 
3

$$$$

     RDKit          3D

 52 56  0  0  0  0  0  0  0  0999 V2000
  140.7200   68.2080  228.6820 C   0  0  0  0  0  0  0  0  0  0  0  0
  140.3690   68.5970  227.2820 C   0  0  0  0  0  0  0  0  0  0  0  0
  139.5650   67.7760  226.5290 C   0  0  0  0  0  0  0  0  0  0  0  0
  139.2160   68.1020  225.2200 C   0  0  0  0  0  0  0  0  0  0  0  0
  139.6770   69.2780  224.6400 C   0  0  0  0  0  0  0  0  0  0  0  0
  140.4810   70.0770  225.4230 C   0  0  0  0  0  0  0  0  0  0  0  0
  140.8330   69.7640  226.7170 C   0  0  0  0  0  0  0  0  0  0  0  0
  140.8350   71.2400  224.5990 C   0  0  0  0  0  0  0  0  0  0  0  0
  140.1500   71.0030  223.2950 C   0  0  0  0  0  0  0  0  0  0  0  0
  140.2330   71.9270  222.1650 C   0  0  0  0  0  0  0  0  0  0  0  0
  140.5860   71.5200  220.8980 C   0  0  0  0  0  0  0  0  0  0  0  0
  140.6690   72.3810  219.8220 C   0  0  0  0  0  0  0  0  0  0  0  0
  140.3770   73.7070  220.0660 C   0  0  0  0  0  0  0  0  0  0  0  0
  140.0160   74.1800  221.3110 C   0  0  0  0  0  0  0  0  0  0  0  0
  139.7060   75.5770  221.5800 C   0  0  0  0  0  0  0  0  0  0  0  0
  140.2880   76.5100  220.9550 O   0  0  0  0  0  0  0  0  0  0  0  0
  138.7450   75.9760  222.5480 N   0  0  0  0  0  0  0  0  0  0  0  0
  138.4350   77.3430  222.8180 C   0  0  0  0  0  0  0  0  0  0  0  0
  139.4210   78.2790  223.0960 C   0  0  0  0  0  0  0  0  0  0  0  0
  139.0630   79.6070  223.3540 C   0  0  0  0  0  0  0  0  0  0  0  0
  137.7520   80.0270  223.3420 C   0  0  0  0  0  0  0  0  0  0  0  0
  137.3850   81.4010  223.6080 C   0  0  0  0  0  0  0  0  0  0  0  0
  137.4300   82.4190  222.6980 C   0  0  0  0  0  0  0  0  0  0  0  0
  137.0620   83.7130  223.0270 C   0  0  0  0  0  0  0  0  0  0  0  0
  136.6310   84.0290  224.2980 C   0  0  0  0  0  0  0  0  0  0  0  0
  136.5790   83.0170  225.2330 C   0  0  0  0  0  0  0  0  0  0  0  0
  136.9480   81.7340  224.8910 C   0  0  0  0  0  0  0  0  0  0  0  0
  136.8170   79.0890  223.0670 N   0  0  0  0  0  0  0  0  0  0  0  0
  137.1380   77.8080  222.8160 C   0  0  0  0  0  0  0  0  0  0  0  0
  139.9500   73.2760  222.3500 C   0  0  0  0  0  0  0  0  0  0  0  0
  139.5160   69.8870  223.3740 N   0  0  0  0  0  0  0  0  0  0  0  0
  140.1554   68.8337  229.3889 H   0  0  0  0  0  0  0  0  0  0  0  0
  140.4646   67.1503  228.8437 H   0  0  0  0  0  0  0  0  0  0  0  0
  141.7983   68.3537  228.8437 H   0  0  0  0  0  0  0  0  0  0  0  0
  139.1885   66.8408  226.9691 H   0  0  0  0  0  0  0  0  0  0  0  0
  138.5712   67.4240  224.6416 H   0  0  0  0  0  0  0  0  0  0  0  0
  141.4797   70.4408  227.2947 H   0  0  0  0  0  0  0  0  0  0  0  0
  140.4736   72.1692  225.0638 H   0  0  0  0  0  0  0  0  0  0  0  0
  141.9231   71.3522  224.4831 H   0  0  0  0  0  0  0  0  0  0  0  0
  140.8131   70.4561  220.7350 H   0  0  0  0  0  0  0  0  0  0  0  0
  140.9538   72.0273  218.8201 H   0  0  0  0  0  0  0  0  0  0  0  0
  140.4345   74.4197  219.2301 H   0  0  0  0  0  0  0  0  0  0  0  0
  138.2210   75.2680  223.1070 H   0  0  0  0  0  0  0  0  0  0  0  0
  140.4790   77.9785  223.1135 H   0  0  0  0  0  0  0  0  0  0  0  0
  139.8545   80.3387  223.5734 H   0  0  0  0  0  0  0  0  0  0  0  0
  137.7685   82.2045  221.6736 H   0  0  0  0  0  0  0  0  0  0  0  0
  137.1144   84.5015  222.2618 H   0  0  0  0  0  0  0  0  0  0  0  0
  136.3377   85.0568  224.5581 H   0  0  0  0  0  0  0  0  0  0  0  0
  136.2413   83.2348  226.2570 H   0  0  0  0  0  0  0  0  0  0  0  0
  136.8963   80.9450  225.6557 H   0  0  0  0  0  0  0  0  0  0  0  0
  136.3269   77.0974  222.5987 H   0  0  0  0  0  0  0  0  0  0  0  0
  139.6660   73.6311  223.3516 H   0  0  0  0  0  0  0  0  0  0  0  0
  1  2  1  0
  2  3  2  0
  3  4  1  0
  4  5  2  0
  5  6  1  0
  6  7  2  0
  6  8  1  0
  8  9  1  0
  9 10  1  0
 10 11  2  0
 11 12  1  0
 12 13  2  0
 13 14  1  0
 14 15  1  0
 15 16  2  0
 15 17  1  0
 17 18  1  0
 18 19  2  0
 19 20  1  0
 20 21  2  0
 21 22  1  0
 22 23  2  0
 23 24  1  0
 24 25  2  0
 25 26  1  0
 26 27  2  0
 21 28  1  0
 28 29  2  0
 14 30  2  0
  9 31  2  0
  7  2  1  0
 30 10  1  0
 31  5  1  0
 29 18  1  0
 27 22  1  0
  1 32  1  0
  1 33  1  0
  1 34  1  0
  3 35  1  0
  4 36  1  0
  7 37  1  0
  8 38  1  0
  8 39  1  0
 11 40  1  0
 12 41  1  0
 13 42  1  0
 17 43  1  0
 19 44  1  0
 20 45  1  0
 23 46  1  0
 24 47  1  0
 25 48  1  0
 26 49  1  0
 27 50  1  0
 29 51  1  0
 30 52  1  0
M  END
>  <smiles>  (15) 
Cc1ccc2c(c1)CC(c1cccc(C(=O)Nc3ccc(-c4ccccc4)nc3)c1)=N2

>  <score_type>  (15) 
oracle

>  <origin>  (15) 
autodockgpu

>  <m_score__min__energy>  (15) 
-8.1300000000000008

>  <m_primary>  (15) 
energy

>  <meeko>  (15) 
{"free_energy": -7.94, "intermolecular_energy": -9.14, "internal_energy": -0.93, "cluster_size": 9, "cluster_id": 3, "rank_in_cluster": 2}

>  <energy>  (15) 
-7.89

>  <cluster_rmsd>  (15) 
0.15

>  <rmsd>  (15) 
270.6

>  <cluster>  (15) 
3

$$$$

     RDKit          3D

 52 56  0  0  0  0  0  0  0  0999 V2000
  140.7110   68.1430  228.9490 C   0  0  0  0  0  0  0  0  0  0  0  0
  140.7330   69.2490  227.9430 C   0  0  0  0  0  0  0  0  0  0  0  0
  141.0180   70.5300  228.3480 C   0  0  0  0  0  0  0  0  0  0  0  0
  141.0480   71.5880  227.4410 C   0  0  0  0  0  0  0  0  0  0  0  0
  140.7870   71.3690  226.0940 C   0  0  0  0  0  0  0  0  0  0  0  0
  140.5060   70.0730  225.7240 C   0  0  0  0  0  0  0  0  0  0  0  0
  140.4730   69.0200  226.6100 C   0  0  0  0  0  0  0  0  0  0  0  0
  140.2690   70.0990  224.2740 C   0  0  0  0  0  0  0  0  0  0  0  0
  140.4480   71.5290  223.8870 C   0  0  0  0  0  0  0  0  0  0  0  0
  140.3030   72.0120  222.5160 C   0  0  0  0  0  0  0  0  0  0  0  0
  140.2130   71.1630  221.4350 C   0  0  0  0  0  0  0  0  0  0  0  0
  140.0760   71.6050  220.1350 C   0  0  0  0  0  0  0  0  0  0  0  0
  140.0310   72.9710  219.9460 C   0  0  0  0  0  0  0  0  0  0  0  0
  140.1150   73.8750  220.9840 C   0  0  0  0  0  0  0  0  0  0  0  0
  140.0690   75.3190  220.7970 C   0  0  0  0  0  0  0  0  0  0  0  0
  139.1420   75.8640  220.1310 O   0  0  0  0  0  0  0  0  0  0  0  0
  141.0490   76.1940  221.3410 N   0  0  0  0  0  0  0  0  0  0  0  0
  141.0110   77.6090  221.1620 C   0  0  0  0  0  0  0  0  0  0  0  0
  141.0230   78.4860  222.2370 C   0  0  0  0  0  0  0  0  0  0  0  0
  140.9850   79.8660  222.0070 C   0  0  0  0  0  0  0  0  0  0  0  0
  140.9370   80.3950  220.7370 C   0  0  0  0  0  0  0  0  0  0  0  0
  140.8980   81.8220  220.5010 C   0  0  0  0  0  0  0  0  0  0  0  0
  140.6930   82.7730  221.4610 C   0  0  0  0  0  0  0  0  0  0  0  0
  140.6690   84.1250  221.1600 C   0  0  0  0  0  0  0  0  0  0  0  0
  140.8510   84.5690  219.8670 C   0  0  0  0  0  0  0  0  0  0  0  0
  141.0580   83.6260  218.8820 C   0  0  0  0  0  0  0  0  0  0  0  0
  141.0800   82.2850  219.1970 C   0  0  0  0  0  0  0  0  0  0  0  0
  140.9270   79.5120  219.7120 N   0  0  0  0  0  0  0  0  0  0  0  0
  140.9630   78.1830  219.9100 C   0  0  0  0  0  0  0  0  0  0  0  0
  140.2520   73.3790  222.2630 C   0  0  0  0  0  0  0  0  0  0  0  0
  140.7370   72.1950  224.9480 N   0  0  0  0  0  0  0  0  0  0  0  0
  140.7195   68.5694  229.9630 H   0  0  0  0  0  0  0  0  0  0  0  0
  139.8007   67.5408  228.8121 H   0  0  0  0  0  0  0  0  0  0  0  0
  141.5966   67.5051  228.8121 H   0  0  0  0  0  0  0  0  0  0  0  0
  141.2269   70.7251  229.4102 H   0  0  0  0  0  0  0  0  0  0  0  0
  141.2800   72.6036  227.7942 H   0  0  0  0  0  0  0  0  0  0  0  0
  140.2410   68.0045  226.2565 H   0  0  0  0  0  0  0  0  0  0  0  0
  140.9965   69.4614  223.7504 H   0  0  0  0  0  0  0  0  0  0  0  0
  139.2722   69.7173  224.0081 H   0  0  0  0  0  0  0  0  0  0  0  0
  140.2523   70.0789  221.6171 H   0  0  0  0  0  0  0  0  0  0  0  0
  140.0061   70.9030  219.2910 H   0  0  0  0  0  0  0  0  0  0  0  0
  139.9233   73.3563  218.9213 H   0  0  0  0  0  0  0  0  0  0  0  0
  141.8470   75.8240  221.9020 H   0  0  0  0  0  0  0  0  0  0  0  0
  141.0622   78.0983  223.2657 H   0  0  0  0  0  0  0  0  0  0  0  0
  140.9938   80.5498  222.8686 H   0  0  0  0  0  0  0  0  0  0  0  0
  140.5426   82.4555  222.5034 H   0  0  0  0  0  0  0  0  0  0  0  0
  140.5022   84.8559  221.9649 H   0  0  0  0  0  0  0  0  0  0  0  0
  140.8316   85.6427  219.6285 H   0  0  0  0  0  0  0  0  0  0  0  0
  141.2062   83.9461  217.8401 H   0  0  0  0  0  0  0  0  0  0  0  0
  141.2469   81.5536  218.3926 H   0  0  0  0  0  0  0  0  0  0  0  0
  140.9537   77.5220  219.0308 H   0  0  0  0  0  0  0  0  0  0  0  0
  140.3228   74.0826  223.1056 H   0  0  0  0  0  0  0  0  0  0  0  0
  1  2  1  0
  2  3  2  0
  3  4  1  0
  4  5  2  0
  5  6  1  0
  6  7  2  0
  6  8  1  0
  8  9  1  0
  9 10  1  0
 10 11  2  0
 11 12  1  0
 12 13  2  0
 13 14  1  0
 14 15  1  0
 15 16  2  0
 15 17  1  0
 17 18  1  0
 18 19  2  0
 19 20  1  0
 20 21  2  0
 21 22  1  0
 22 23  2  0
 23 24  1  0
 24 25  2  0
 25 26  1  0
 26 27  2  0
 21 28  1  0
 28 29  2  0
 14 30  2  0
  9 31  2  0
  7  2  1  0
 30 10  1  0
 31  5  1  0
 29 18  1  0
 27 22  1  0
  1 32  1  0
  1 33  1  0
  1 34  1  0
  3 35  1  0
  4 36  1  0
  7 37  1  0
  8 38  1  0
  8 39  1  0
 11 40  1  0
 12 41  1  0
 13 42  1  0
 17 43  1  0
 19 44  1  0
 20 45  1  0
 23 46  1  0
 24 47  1  0
 25 48  1  0
 26 49  1  0
 27 50  1  0
 29 51  1  0
 30 52  1  0
M  END
>  <smiles>  (16) 
Cc1ccc2c(c1)CC(c1cccc(C(=O)Nc3ccc(-c4ccccc4)nc3)c1)=N2

>  <score_type>  (16) 
oracle

>  <origin>  (16) 
autodockgpu

>  <m_score__min__energy>  (16) 
-8.1300000000000008

>  <m_primary>  (16) 
energy

>  <meeko>  (16) 
{"free_energy": -8.07, "intermolecular_energy": -9.26, "internal_energy": -0.94, "cluster_size": 5, "cluster_id": 2, "rank_in_cluster": 2}

>  <energy>  (16) 
-7.85

>  <cluster_rmsd>  (16) 
0.28

>  <rmsd>  (16) 
270.57

>  <cluster>  (16) 
3

$$$$

     RDKit          3D

 52 56  0  0  0  0  0  0  0  0999 V2000
  140.7950   68.1490  228.7220 C   0  0  0  0  0  0  0  0  0  0  0  0
  140.4330   68.5620  227.3310 C   0  0  0  0  0  0  0  0  0  0  0  0
  139.5480   67.8020  226.6050 C   0  0  0  0  0  0  0  0  0  0  0  0
  139.1860   68.1530  225.3060 C   0  0  0  0  0  0  0  0  0  0  0  0
  139.7170   69.2910  224.7090 C   0  0  0  0  0  0  0  0  0  0  0  0
  140.6000   70.0280  225.4660 C   0  0  0  0  0  0  0  0  0  0  0  0
  140.9660   69.6910  226.7500 C   0  0  0  0  0  0  0  0  0  0  0  0
  141.0150   71.1610  224.6290 C   0  0  0  0  0  0  0  0  0  0  0  0
  140.2770   70.9750  223.3450 C   0  0  0  0  0  0  0  0  0  0  0  0
  140.3950   71.8900  222.2120 C   0  0  0  0  0  0  0  0  0  0  0  0
  140.8750   71.4910  220.9840 C   0  0  0  0  0  0  0  0  0  0  0  0
  140.9920   72.3440  219.9050 C   0  0  0  0  0  0  0  0  0  0  0  0
  140.6000   73.6520  220.1020 C   0  0  0  0  0  0  0  0  0  0  0  0
  140.1120   74.1150  221.3060 C   0  0  0  0  0  0  0  0  0  0  0  0
  139.6960   75.4930  221.5260 C   0  0  0  0  0  0  0  0  0  0  0  0
  140.1020   76.4280  220.7770 O   0  0  0  0  0  0  0  0  0  0  0  0
  138.8210   75.8700  222.5810 N   0  0  0  0  0  0  0  0  0  0  0  0
  138.4090   77.2180  222.8040 C   0  0  0  0  0  0  0  0  0  0  0  0
  137.0730   77.5930  222.7750 C   0  0  0  0  0  0  0  0  0  0  0  0
  136.7210   78.9280  223.0010 C   0  0  0  0  0  0  0  0  0  0  0  0
  137.6640   79.8990  223.2550 C   0  0  0  0  0  0  0  0  0  0  0  0
  137.2980   81.2800  223.4880 C   0  0  0  0  0  0  0  0  0  0  0  0
  137.3410   82.2740  222.5520 C   0  0  0  0  0  0  0  0  0  0  0  0
  136.9750   83.5770  222.8500 C   0  0  0  0  0  0  0  0  0  0  0  0
  136.5490   83.9250  224.1140 C   0  0  0  0  0  0  0  0  0  0  0  0
  136.4990   82.9370  225.0750 C   0  0  0  0  0  0  0  0  0  0  0  0
  136.8660   81.6450  224.7640 C   0  0  0  0  0  0  0  0  0  0  0  0
  138.9560   79.5000  223.2760 N   0  0  0  0  0  0  0  0  0  0  0  0
  139.3160   78.2230  223.0620 C   0  0  0  0  0  0  0  0  0  0  0  0
  140.0160   73.2210  222.3510 C   0  0  0  0  0  0  0  0  0  0  0  0
  139.5640   69.9100  223.4470 N   0  0  0  0  0  0  0  0  0  0  0  0
  140.2479   68.7732  229.4439 H   0  0  0  0  0  0  0  0  0  0  0  0
  140.5263   67.0930  228.8726 H   0  0  0  0  0  0  0  0  0  0  0  0
  141.8771   68.2771  228.8726 H   0  0  0  0  0  0  0  0  0  0  0  0
  139.1163   66.8977  227.0587 H   0  0  0  0  0  0  0  0  0  0  0  0
  138.4750   67.5253  224.7488 H   0  0  0  0  0  0  0  0  0  0  0  0
  141.6779   70.3181  227.3067 H   0  0  0  0  0  0  0  0  0  0  0  0
  140.7368   72.1146  225.1015 H   0  0  0  0  0  0  0  0  0  0  0  0
  142.1046   71.1920  224.4816 H   0  0  0  0  0  0  0  0  0  0  0  0
  141.1798   70.4417  220.8570 H   0  0  0  0  0  0  0  0  0  0  0  0
  141.3790   71.9977  218.9353 H   0  0  0  0  0  0  0  0  0  0  0  0
  140.6802   74.3570  219.2614 H   0  0  0  0  0  0  0  0  0  0  0  0
  138.4410   75.1590  223.2440 H   0  0  0  0  0  0  0  0  0  0  0  0
  136.2935   76.8430  222.5750 H   0  0  0  0  0  0  0  0  0  0  0  0
  135.6583   79.2108  222.9750 H   0  0  0  0  0  0  0  0  0  0  0  0
  137.6758   82.0332  221.5322 H   0  0  0  0  0  0  0  0  0  0  0  0
  137.0253   84.3461  222.0651 H   0  0  0  0  0  0  0  0  0  0  0  0
  136.2578   84.9594  224.3490 H   0  0  0  0  0  0  0  0  0  0  0  0
  136.1648   83.1810  226.0942 H   0  0  0  0  0  0  0  0  0  0  0  0
  136.8167   80.8754  225.5484 H   0  0  0  0  0  0  0  0  0  0  0  0
  140.3855   77.9678  223.0943 H   0  0  0  0  0  0  0  0  0  0  0  0
  139.6295   73.5694  223.3201 H   0  0  0  0  0  0  0  0  0  0  0  0
  1  2  1  0
  2  3  2  0
  3  4  1  0
  4  5  2  0
  5  6  1  0
  6  7  2  0
  6  8  1  0
  8  9  1  0
  9 10  1  0
 10 11  2  0
 11 12  1  0
 12 13  2  0
 13 14  1  0
 14 15  1  0
 15 16  2  0
 15 17  1  0
 17 18  1  0
 18 19  2  0
 19 20  1  0
 20 21  2  0
 21 22  1  0
 22 23  2  0
 23 24  1  0
 24 25  2  0
 25 26  1  0
 26 27  2  0
 21 28  1  0
 28 29  2  0
 14 30  2  0
  9 31  2  0
  7  2  1  0
 30 10  1  0
 31  5  1  0
 29 18  1  0
 27 22  1  0
  1 32  1  0
  1 33  1  0
  1 34  1  0
  3 35  1  0
  4 36  1  0
  7 37  1  0
  8 38  1  0
  8 39  1  0
 11 40  1  0
 12 41  1  0
 13 42  1  0
 17 43  1  0
 19 44  1  0
 20 45  1  0
 23 46  1  0
 24 47  1  0
 25 48  1  0
 26 49  1  0
 27 50  1  0
 29 51  1  0
 30 52  1  0
M  END
>  <smiles>  (17) 
Cc1ccc2c(c1)CC(c1cccc(C(=O)Nc3ccc(-c4ccccc4)nc3)c1)=N2

>  <score_type>  (17) 
oracle

>  <origin>  (17) 
autodockgpu

>  <m_score__min__energy>  (17) 
-8.1300000000000008

>  <m_primary>  (17) 
energy

>  <meeko>  (17) 
{"free_energy": -7.78, "intermolecular_energy": -8.97, "internal_energy": -0.95, "cluster_size": 9, "cluster_id": 3, "rank_in_cluster": 9}

>  <energy>  (17) 
-7.78

>  <cluster_rmsd>  (17) 
0.46

>  <rmsd>  (17) 
270.54

>  <cluster>  (17) 
3

$$$$

     RDKit          3D

 52 56  0  0  0  0  0  0  0  0999 V2000
  132.2610   82.0140  230.6480 C   0  0  0  0  0  0  0  0  0  0  0  0
  133.5030   81.9070  229.8230 C   0  0  0  0  0  0  0  0  0  0  0  0
  134.7180   81.7310  230.4410 C   0  0  0  0  0  0  0  0  0  0  0  0
  135.8980   81.6280  229.7070 C   0  0  0  0  0  0  0  0  0  0  0  0
  135.8740   81.7020  228.3200 C   0  0  0  0  0  0  0  0  0  0  0  0
  134.6400   81.8790  227.7340 C   0  0  0  0  0  0  0  0  0  0  0  0
  133.4680   81.9830  228.4480 C   0  0  0  0  0  0  0  0  0  0  0  0
  134.8740   81.9270  226.2840 C   0  0  0  0  0  0  0  0  0  0  0  0
  136.3500   81.7580  226.1330 C   0  0  0  0  0  0  0  0  0  0  0  0
  137.0270   81.7440  224.8380 C   0  0  0  0  0  0  0  0  0  0  0  0
  136.8600   82.7410  223.9030 C   0  0  0  0  0  0  0  0  0  0  0  0
  137.4930   82.7410  222.6760 C   0  0  0  0  0  0  0  0  0  0  0  0
  138.3260   81.6740  222.4080 C   0  0  0  0  0  0  0  0  0  0  0  0
  138.5360   80.6440  223.3010 C   0  0  0  0  0  0  0  0  0  0  0  0
  139.4120   79.5130  223.0290 C   0  0  0  0  0  0  0  0  0  0  0  0
  140.3160   79.1720  223.8460 O   0  0  0  0  0  0  0  0  0  0  0  0
  139.3100   78.7320  221.8460 N   0  0  0  0  0  0  0  0  0  0  0  0
  140.1640   77.6220  221.5710 C   0  0  0  0  0  0  0  0  0  0  0  0
  141.2000   77.7010  220.6510 C   0  0  0  0  0  0  0  0  0  0  0  0
  142.0090   76.5840  220.4190 C   0  0  0  0  0  0  0  0  0  0  0  0
  141.8140   75.3910  221.0780 C   0  0  0  0  0  0  0  0  0  0  0  0
  142.6520   74.2350  220.8360 C   0  0  0  0  0  0  0  0  0  0  0  0
  142.2480   72.9340  220.9410 C   0  0  0  0  0  0  0  0  0  0  0  0
  143.1090   71.8780  220.6930 C   0  0  0  0  0  0  0  0  0  0  0  0
  144.4210   72.0990  220.3290 C   0  0  0  0  0  0  0  0  0  0  0  0
  144.8500   73.4050  220.2200 C   0  0  0  0  0  0  0  0  0  0  0  0
  143.9820   74.4460  220.4680 C   0  0  0  0  0  0  0  0  0  0  0  0
  140.7960   75.3470  221.9680 N   0  0  0  0  0  0  0  0  0  0  0  0
  140.0070   76.4090  222.2060 C   0  0  0  0  0  0  0  0  0  0  0  0
  137.8780   80.6940  224.5120 C   0  0  0  0  0  0  0  0  0  0  0  0
  136.8590   81.6370  227.3080 N   0  0  0  0  0  0  0  0  0  0  0  0
  132.5266   81.9911  231.7152 H   0  0  0  0  0  0  0  0  0  0  0  0
  131.7483   82.9596  230.4179 H   0  0  0  0  0  0  0  0  0  0  0  0
  131.5941   81.1700  230.4179 H   0  0  0  0  0  0  0  0  0  0  0  0
  134.7598   81.6702  231.5385 H   0  0  0  0  0  0  0  0  0  0  0  0
  136.8555   81.4870  230.2297 H   0  0  0  0  0  0  0  0  0  0  0  0
  132.5109   82.1257  227.9249 H   0  0  0  0  0  0  0  0  0  0  0  0
  134.3363   81.1122  225.7770 H   0  0  0  0  0  0  0  0  0  0  0  0
  134.5141   82.8644  225.8349 H   0  0  0  0  0  0  0  0  0  0  0  0
  136.1894   83.5785  224.1456 H   0  0  0  0  0  0  0  0  0  0  0  0
  137.3408   83.5515  221.9480 H   0  0  0  0  0  0  0  0  0  0  0  0
  138.8457   81.6435  221.4390 H   0  0  0  0  0  0  0  0  0  0  0  0
  138.5910   78.9470  221.1210 H   0  0  0  0  0  0  0  0  0  0  0  0
  141.3842   78.6387  220.1062 H   0  0  0  0  0  0  0  0  0  0  0  0
  142.8266   76.6610  219.6872 H   0  0  0  0  0  0  0  0  0  0  0  0
  141.2089   72.7191  221.2309 H   0  0  0  0  0  0  0  0  0  0  0  0
  142.7405   70.8459  220.7879 H   0  0  0  0  0  0  0  0  0  0  0  0
  145.1039   71.2595  220.1318 H   0  0  0  0  0  0  0  0  0  0  0  0
  145.8907   73.6169  219.9335 H   0  0  0  0  0  0  0  0  0  0  0  0
  144.3495   75.4784  220.3728 H   0  0  0  0  0  0  0  0  0  0  0  0
  139.1971   76.3048  222.9430 H   0  0  0  0  0  0  0  0  0  0  0  0
  138.0304   79.8823  225.2386 H   0  0  0  0  0  0  0  0  0  0  0  0
  1  2  1  0
  2  3  2  0
  3  4  1  0
  4  5  2  0
  5  6  1  0
  6  7  2  0
  6  8  1  0
  8  9  1  0
  9 10  1  0
 10 11  2  0
 11 12  1  0
 12 13  2  0
 13 14  1  0
 14 15  1  0
 15 16  2  0
 15 17  1  0
 17 18  1  0
 18 19  2  0
 19 20  1  0
 20 21  2  0
 21 22  1  0
 22 23  2  0
 23 24  1  0
 24 25  2  0
 25 26  1  0
 26 27  2  0
 21 28  1  0
 28 29  2  0
 14 30  2  0
  9 31  2  0
  7  2  1  0
 30 10  1  0
 31  5  1  0
 29 18  1  0
 27 22  1  0
  1 32  1  0
  1 33  1  0
  1 34  1  0
  3 35  1  0
  4 36  1  0
  7 37  1  0
  8 38  1  0
  8 39  1  0
 11 40  1  0
 12 41  1  0
 13 42  1  0
 17 43  1  0
 19 44  1  0
 20 45  1  0
 23 46  1  0
 24 47  1  0
 25 48  1  0
 26 49  1  0
 27 50  1  0
 29 51  1  0
 30 52  1  0
M  END
>  <smiles>  (18) 
Cc1ccc2c(c1)CC(c1cccc(C(=O)Nc3ccc(-c4ccccc4)nc3)c1)=N2

>  <score_type>  (18) 
oracle

>  <origin>  (18) 
autodockgpu

>  <m_score__min__energy>  (18) 
-8.1300000000000008

>  <m_primary>  (18) 
energy

>  <meeko>  (18) 
{"free_energy": -8.1, "intermolecular_energy": -9.29, "internal_energy": -0.96, "cluster_size": 3, "cluster_id": 1, "rank_in_cluster": 2}

>  <energy>  (18) 
-7.94

>  <cluster_rmsd>  (18) 
0.0

>  <rmsd>  (18) 
270.37

>  <cluster>  (18) 
4

$$$$

     RDKit          3D

 52 56  0  0  0  0  0  0  0  0999 V2000
  140.7260   68.1500  228.9620 C   0  0  0  0  0  0  0  0  0  0  0  0
  140.7420   69.2590  227.9600 C   0  0  0  0  0  0  0  0  0  0  0  0
  141.0240   70.5400  228.3690 C   0  0  0  0  0  0  0  0  0  0  0  0
  141.0480   71.6020  227.4670 C   0  0  0  0  0  0  0  0  0  0  0  0
  140.7850   71.3870  226.1190 C   0  0  0  0  0  0  0  0  0  0  0  0
  140.5070   70.0910  225.7450 C   0  0  0  0  0  0  0  0  0  0  0  0
  140.4800   69.0340  226.6270 C   0  0  0  0  0  0  0  0  0  0  0  0
  140.2680   70.1220  224.2960 C   0  0  0  0  0  0  0  0  0  0  0  0
  140.4410   71.5540  223.9140 C   0  0  0  0  0  0  0  0  0  0  0  0
  140.2920   72.0420  222.5440 C   0  0  0  0  0  0  0  0  0  0  0  0
  140.2120   71.1970  221.4600 C   0  0  0  0  0  0  0  0  0  0  0  0
  140.0710   71.6440  220.1610 C   0  0  0  0  0  0  0  0  0  0  0  0
  140.0100   73.0100  219.9790 C   0  0  0  0  0  0  0  0  0  0  0  0
  140.0830   73.9100  221.0210 C   0  0  0  0  0  0  0  0  0  0  0  0
  140.0200   75.3540  220.8410 C   0  0  0  0  0  0  0  0  0  0  0  0
  139.0720   75.8940  220.2010 O   0  0  0  0  0  0  0  0  0  0  0  0
  141.0050   76.2350  221.3630 N   0  0  0  0  0  0  0  0  0  0  0  0
  140.9510   77.6510  221.1910 C   0  0  0  0  0  0  0  0  0  0  0  0
  141.0620   78.5270  222.2620 C   0  0  0  0  0  0  0  0  0  0  0  0
  141.0030   79.9070  222.0390 C   0  0  0  0  0  0  0  0  0  0  0  0
  140.8370   80.4370  220.7790 C   0  0  0  0  0  0  0  0  0  0  0  0
  140.7760   81.8650  220.5510 C   0  0  0  0  0  0  0  0  0  0  0  0
  140.4330   82.7980  221.4880 C   0  0  0  0  0  0  0  0  0  0  0  0
  140.3970   84.1520  221.1950 C   0  0  0  0  0  0  0  0  0  0  0  0
  140.7080   84.6160  219.9340 C   0  0  0  0  0  0  0  0  0  0  0  0
  141.0560   83.6910  218.9720 C   0  0  0  0  0  0  0  0  0  0  0  0
  141.0880   82.3470  219.2790 C   0  0  0  0  0  0  0  0  0  0  0  0
  140.7320   79.5560  219.7580 N   0  0  0  0  0  0  0  0  0  0  0  0
  140.7860   78.2270  219.9500 C   0  0  0  0  0  0  0  0  0  0  0  0
  140.2240   73.4100  222.2980 C   0  0  0  0  0  0  0  0  0  0  0  0
  140.7300   72.2180  224.9760 N   0  0  0  0  0  0  0  0  0  0  0  0
  140.7321   68.5731  229.9774 H   0  0  0  0  0  0  0  0  0  0  0  0
  139.8190   67.5433  228.8230 H   0  0  0  0  0  0  0  0  0  0  0  0
  141.6151   67.5174  228.8230 H   0  0  0  0  0  0  0  0  0  0  0  0
  141.2354   70.7314  229.4314 H   0  0  0  0  0  0  0  0  0  0  0  0
  141.2766   72.6170  227.8240 H   0  0  0  0  0  0  0  0  0  0  0  0
  140.2512   68.0190  226.2700 H   0  0  0  0  0  0  0  0  0  0  0  0
  140.9972   69.4891  223.7690 H   0  0  0  0  0  0  0  0  0  0  0  0
  139.2722   69.7378  224.0302 H   0  0  0  0  0  0  0  0  0  0  0  0
  140.2629   70.1126  221.6373 H   0  0  0  0  0  0  0  0  0  0  0  0
  140.0103   70.9454  219.3135 H   0  0  0  0  0  0  0  0  0  0  0  0
  139.8980   73.3989  218.9562 H   0  0  0  0  0  0  0  0  0  0  0  0
  141.8200   75.8700  221.9030 H   0  0  0  0  0  0  0  0  0  0  0  0
  141.1958   78.1378  223.2821 H   0  0  0  0  0  0  0  0  0  0  0  0
  141.0920   80.5897  222.8969 H   0  0  0  0  0  0  0  0  0  0  0  0
  140.1779   82.4648  222.5048 H   0  0  0  0  0  0  0  0  0  0  0  0
  140.1158   84.8684  221.9810 H   0  0  0  0  0  0  0  0  0  0  0  0
  140.6793   85.6910  219.7026 H   0  0  0  0  0  0  0  0  0  0  0  0
  141.3091   84.0268  217.9555 H   0  0  0  0  0  0  0  0  0  0  0  0
  141.3693   81.6298  218.4939 H   0  0  0  0  0  0  0  0  0  0  0  0
  140.6941   77.5673  219.0746 H   0  0  0  0  0  0  0  0  0  0  0  0
  140.2843   74.1103  223.1441 H   0  0  0  0  0  0  0  0  0  0  0  0
  1  2  1  0
  2  3  2  0
  3  4  1  0
  4  5  2  0
  5  6  1  0
  6  7  2  0
  6  8  1  0
  8  9  1  0
  9 10  1  0
 10 11  2  0
 11 12  1  0
 12 13  2  0
 13 14  1  0
 14 15  1  0
 15 16  2  0
 15 17  1  0
 17 18  1  0
 18 19  2  0
 19 20  1  0
 20 21  2  0
 21 22  1  0
 22 23  2  0
 23 24  1  0
 24 25  2  0
 25 26  1  0
 26 27  2  0
 21 28  1  0
 28 29  2  0
 14 30  2  0
  9 31  2  0
  7  2  1  0
 30 10  1  0
 31  5  1  0
 29 18  1  0
 27 22  1  0
  1 32  1  0
  1 33  1  0
  1 34  1  0
  3 35  1  0
  4 36  1  0
  7 37  1  0
  8 38  1  0
  8 39  1  0
 11 40  1  0
 12 41  1  0
 13 42  1  0
 17 43  1  0
 19 44  1  0
 20 45  1  0
 23 46  1  0
 24 47  1  0
 25 48  1  0
 26 49  1  0
 27 50  1  0
 29 51  1  0
 30 52  1  0
M  END
>  <smiles>  (19) 
Cc1ccc2c(c1)CC(c1cccc(C(=O)Nc3ccc(-c4ccccc4)nc3)c1)=N2

>  <score_type>  (19) 
oracle

>  <origin>  (19) 
autodockgpu

>  <m_score__min__energy>  (19) 
-8.1300000000000008

>  <m_primary>  (19) 
energy

>  <meeko>  (19) 
{"free_energy": -8.05, "intermolecular_energy": -9.25, "internal_energy": -0.93, "cluster_size": 5, "cluster_id": 2, "rank_in_cluster": 4}

>  <energy>  (19) 
-7.85

>  <cluster_rmsd>  (19) 
1.56

>  <rmsd>  (19) 
269.56

>  <cluster>  (19) 
4

$$$$

     RDKit          3D

 52 56  0  0  0  0  0  0  0  0999 V2000
  140.7260   68.1350  228.9680 C   0  0  0  0  0  0  0  0  0  0  0  0
  140.7440   69.2440  227.9660 C   0  0  0  0  0  0  0  0  0  0  0  0
  141.0210   70.5260  228.3750 C   0  0  0  0  0  0  0  0  0  0  0  0
  141.0470   71.5870  227.4720 C   0  0  0  0  0  0  0  0  0  0  0  0
  140.7910   71.3700  226.1230 C   0  0  0  0  0  0  0  0  0  0  0  0
  140.5180   70.0740  225.7480 C   0  0  0  0  0  0  0  0  0  0  0  0
  140.4890   69.0180  226.6310 C   0  0  0  0  0  0  0  0  0  0  0  0
  140.2850   70.1030  224.2980 C   0  0  0  0  0  0  0  0  0  0  0  0
  140.4570   71.5350  223.9160 C   0  0  0  0  0  0  0  0  0  0  0  0
  140.3130   72.0220  222.5450 C   0  0  0  0  0  0  0  0  0  0  0  0
  140.2340   71.1760  221.4620 C   0  0  0  0  0  0  0  0  0  0  0  0
  140.0980   71.6210  220.1620 C   0  0  0  0  0  0  0  0  0  0  0  0
  140.0410   72.9870  219.9780 C   0  0  0  0  0  0  0  0  0  0  0  0
  140.1140   73.8890  221.0190 C   0  0  0  0  0  0  0  0  0  0  0  0
  140.0560   75.3330  220.8370 C   0  0  0  0  0  0  0  0  0  0  0  0
  139.1230   75.8720  220.1750 O   0  0  0  0  0  0  0  0  0  0  0  0
  141.0290   76.2140  221.3820 N   0  0  0  0  0  0  0  0  0  0  0  0
  140.9790   77.6290  221.2080 C   0  0  0  0  0  0  0  0  0  0  0  0
  141.0560   78.5050  222.2810 C   0  0  0  0  0  0  0  0  0  0  0  0
  141.0030   79.8850  222.0560 C   0  0  0  0  0  0  0  0  0  0  0  0
  140.8760   80.4150  220.7920 C   0  0  0  0  0  0  0  0  0  0  0  0
  140.8220   81.8430  220.5610 C   0  0  0  0  0  0  0  0  0  0  0  0
  140.5230   82.7820  221.5080 C   0  0  0  0  0  0  0  0  0  0  0  0
  140.4900   84.1350  221.2120 C   0  0  0  0  0  0  0  0  0  0  0  0
  140.7600   84.5920  219.9390 C   0  0  0  0  0  0  0  0  0  0  0  0
  141.0630   83.6610  218.9680 C   0  0  0  0  0  0  0  0  0  0  0  0
  141.0930   82.3180  219.2780 C   0  0  0  0  0  0  0  0  0  0  0  0
  140.8050   79.5340  219.7680 N   0  0  0  0  0  0  0  0  0  0  0  0
  140.8540   78.2050  219.9620 C   0  0  0  0  0  0  0  0  0  0  0  0
  140.2500   73.3890  222.2970 C   0  0  0  0  0  0  0  0  0  0  0  0
  140.7390   72.2000  224.9790 N   0  0  0  0  0  0  0  0  0  0  0  0
  140.7329   68.5581  229.9834 H   0  0  0  0  0  0  0  0  0  0  0  0
  139.8179   67.5300  228.8290 H   0  0  0  0  0  0  0  0  0  0  0  0
  141.6140   67.5008  228.8290 H   0  0  0  0  0  0  0  0  0  0  0  0
  141.2267   70.7191  229.4382 H   0  0  0  0  0  0  0  0  0  0  0  0
  141.2716   72.6029  227.8290 H   0  0  0  0  0  0  0  0  0  0  0  0
  140.2641   68.0023  226.2736 H   0  0  0  0  0  0  0  0  0  0  0  0
  141.0176   69.4711  223.7746 H   0  0  0  0  0  0  0  0  0  0  0  0
  139.2912   69.7165  224.0281 H   0  0  0  0  0  0  0  0  0  0  0  0
  140.2815   70.0917  221.6411 H   0  0  0  0  0  0  0  0  0  0  0  0
  140.0381   70.9213  219.3154 H   0  0  0  0  0  0  0  0  0  0  0  0
  139.9324   73.3746  218.9543 H   0  0  0  0  0  0  0  0  0  0  0  0
  141.8310   75.8480  221.9400 H   0  0  0  0  0  0  0  0  0  0  0  0
  141.1583   78.1161  223.3049 H   0  0  0  0  0  0  0  0  0  0  0  0
  141.0648   80.5678  222.9162 H   0  0  0  0  0  0  0  0  0  0  0  0
  140.3022   82.4541  222.5345 H   0  0  0  0  0  0  0  0  0  0  0  0
  140.2445   84.8565  222.0052 H   0  0  0  0  0  0  0  0  0  0  0  0
  140.7344   85.6666  219.7054 H   0  0  0  0  0  0  0  0  0  0  0  0
  141.2817   83.9913  217.9418 H   0  0  0  0  0  0  0  0  0  0  0  0
  141.3393   81.5958  218.4857 H   0  0  0  0  0  0  0  0  0  0  0  0
  140.7913   77.5451  219.0841 H   0  0  0  0  0  0  0  0  0  0  0  0
  140.3102   74.0899  223.1426 H   0  0  0  0  0  0  0  0  0  0  0  0
  1  2  1  0
  2  3  2  0
  3  4  1  0
  4  5  2  0
  5  6  1  0
  6  7  2  0
  6  8  1  0
  8  9  1  0
  9 10  1  0
 10 11  2  0
 11 12  1  0
 12 13  2  0
 13 14  1  0
 14 15  1  0
 15 16  2  0
 15 17  1  0
 17 18  1  0
 18 19  2  0
 19 20  1  0
 20 21  2  0
 21 22  1  0
 22 23  2  0
 23 24  1  0
 24 25  2  0
 25 26  1  0
 26 27  2  0
 21 28  1  0
 28 29  2  0
 14 30  2  0
  9 31  2  0
  7  2  1  0
 30 10  1  0
 31  5  1  0
 29 18  1  0
 27 22  1  0
  1 32  1  0
  1 33  1  0
  1 34  1  0
  3 35  1  0
  4 36  1  0
  7 37  1  0
  8 38  1  0
  8 39  1  0
 11 40  1  0
 12 41  1  0
 13 42  1  0
 17 43  1  0
 19 44  1  0
 20 45  1  0
 23 46  1  0
 24 47  1  0
 25 48  1  0
 26 49  1  0
 27 50  1  0
 29 51  1  0
 30 52  1  0
M  END
>  <smiles>  (20) 
Cc1ccc2c(c1)CC(c1cccc(C(=O)Nc3ccc(-c4ccccc4)nc3)c1)=N2

>  <score_type>  (20) 
oracle

>  <origin>  (20) 
autodockgpu

>  <m_score__min__energy>  (20) 
-8.1300000000000008

>  <m_primary>  (20) 
energy

>  <meeko>  (20) 
{"free_energy": -8.08, "intermolecular_energy": -9.27, "internal_energy": -0.93, "cluster_size": 5, "cluster_id": 2, "rank_in_cluster": 1}

>  <energy>  (20) 
-7.75

>  <cluster_rmsd>  (20) 
0.0

>  <rmsd>  (20) 
271.18

>  <cluster>  (20) 
5

$$$$
