IQOSOXOZFSRASN-DESYHMSQNA-N
     RDKit          3D

 49 51  0  0  0  0  0  0  0  0999 V2000
  138.4540   74.2580  222.8200 H   0  0  0  0  0  0  0  0  0  0  0  0
  139.3570   74.0360  222.3430 N   0  0  0  0  0  0  0  0  0  0  0  0
  140.0820   74.9640  221.8050 C   0  0  0  0  0  0  0  0  0  0  0  0
  141.4670   74.9560  221.9520 O   0  0  0  0  0  0  0  0  0  0  0  0
  141.9970   75.8170  222.0240 H   0  0  0  0  0  0  0  0  0  0  0  0
  139.4290   76.0500  221.0080 C   0  0  0  0  0  0  0  0  0  0  0  0
  140.1508   76.4500  220.2806 H   0  0  0  0  0  0  0  0  0  0  0  0
  138.5564   75.6330  220.4839 H   0  0  0  0  0  0  0  0  0  0  0  0
  138.9820   77.1320  221.8900 N   0  0  0  0  0  0  0  0  0  0  0  0
  137.7210   77.3610  222.3560 C   0  0  0  0  0  0  0  0  0  0  0  0
  136.5450   76.4610  222.1060 C   0  0  0  0  0  0  0  0  0  0  0  0
  135.6153   77.0318  222.2468 H   0  0  0  0  0  0  0  0  0  0  0  0
  136.6011   76.0781  221.0763 H   0  0  0  0  0  0  0  0  0  0  0  0
  136.5620   75.3200  223.0430 N   0  0  0  0  0  0  0  0  0  0  0  0
  135.8590   75.6300  224.3200 C   0  0  0  0  0  0  0  0  0  0  0  0
  136.4613   75.2433  225.1553 H   0  0  0  0  0  0  0  0  0  0  0  0
  135.7383   76.7220  224.3743 H   0  0  0  0  0  0  0  0  0  0  0  0
  134.4590   75.0070  224.3960 C   0  0  0  0  0  0  0  0  0  0  0  0
  133.9957   75.2787  225.3560 H   0  0  0  0  0  0  0  0  0  0  0  0
  133.8586   75.3893  223.5573 H   0  0  0  0  0  0  0  0  0  0  0  0
  134.5330   73.4670  224.2880 C   0  0  0  0  0  0  0  0  0  0  0  0
  134.7380   73.0705  225.2933 H   0  0  0  0  0  0  0  0  0  0  0  0
  133.1920   72.9000  223.8070 C   0  0  0  0  0  0  0  0  0  0  0  0
  132.5717   72.6377  224.6767 H   0  0  0  0  0  0  0  0  0  0  0  0
  132.6714   73.6550  223.1996 H   0  0  0  0  0  0  0  0  0  0  0  0
  133.3709   72.0005  223.1996 H   0  0  0  0  0  0  0  0  0  0  0  0
  135.7000   73.0030  223.3810 C   0  0  0  0  0  0  0  0  0  0  0  0
  136.5737   72.7746  224.0091 H   0  0  0  0  0  0  0  0  0  0  0  0
  135.3764   72.1095  222.8269 H   0  0  0  0  0  0  0  0  0  0  0  0
  136.0820   74.0900  222.3690 C   0  0  0  0  0  0  0  0  0  0  0  0
  136.8803   73.7058  221.7170 H   0  0  0  0  0  0  0  0  0  0  0  0
  135.1858   74.3458  221.7847 H   0  0  0  0  0  0  0  0  0  0  0  0
  137.6210   78.4860  223.1100 N   0  0  0  0  0  0  0  0  0  0  0  0
  138.8760   78.9740  223.0890 C   0  0  0  0  0  0  0  0  0  0  0  0
  139.6930   78.1760  222.3620 C   0  0  0  0  0  0  0  0  0  0  0  0
  141.0390   78.5000  222.2170 C   0  0  0  0  0  0  0  0  0  0  0  0
  141.8120   77.7560  221.5550 O   0  0  0  0  0  0  0  0  0  0  0  0
  141.5030   79.6450  222.8240 N   0  0  0  0  0  0  0  0  0  0  0  0
  142.9300   79.9980  222.7250 C   0  0  0  0  0  0  0  0  0  0  0  0
  143.3528   80.1026  223.7351 H   0  0  0  0  0  0  0  0  0  0  0  0
  143.4670   79.2056  222.1830 H   0  0  0  0  0  0  0  0  0  0  0  0
  143.0356   80.9494  222.1830 H   0  0  0  0  0  0  0  0  0  0  0  0
  140.6530   80.4230  223.5920 C   0  0  0  0  0  0  0  0  0  0  0  0
  141.1060   81.4340  224.2000 O   0  0  0  0  0  0  0  0  0  0  0  0
  139.3170   80.1050  223.7030 N   0  0  0  0  0  0  0  0  0  0  0  0
  138.4110   80.9140  224.5300 C   0  0  0  0  0  0  0  0  0  0  0  0
  138.6203   80.7271  225.5936 H   0  0  0  0  0  0  0  0  0  0  0  0
  138.5654   81.9802  224.3077 H   0  0  0  0  0  0  0  0  0  0  0  0
  137.3690   80.6403  224.3077 H   0  0  0  0  0  0  0  0  0  0  0  0
  1  2  1  0
  2  3  2  0
  3  4  1  0
  4  5  1  0
  3  6  1  0
  6  7  1  0
  6  8  1  0
  6  9  1  0
  9 10  1  0
 10 11  1  0
 11 12  1  0
 11 13  1  0
 11 14  1  0
 14 15  1  0
 15 16  1  0
 15 17  1  0
 15 18  1  0
 18 19  1  0
 18 20  1  0
 18 21  1  0
 21 22  1  0
 21 23  1  0
 23 24  1  0
 23 25  1  0
 23 26  1  0
 21 27  1  0
 27 28  1  0
 27 29  1  0
 27 30  1  0
 30 31  1  0
 30 32  1  0
 10 33  2  0
 33 34  1  0
 34 35  2  0
 35 36  1  0
 36 37  2  0
 36 38  1  0
 38 39  1  0
 39 40  1  0
 39 41  1  0
 39 42  1  0
 38 43  1  0
 43 44  2  0
 43 45  1  0
 45 46  1  0
 46 47  1  0
 46 48  1  0
 46 49  1  0
 35  9  1  0
 30 14  1  0
 45 34  1  0
M  END
>  <UniqueID>  (1) 
13

>  <SMILES>  (1) 
[H]/N=C(\O)Cn1c(CN2CCC(C)CC2)nc2c1c(=O)n(C)c(=O)n2C

>  <Energy>  (1) 
95.86916526205952

>  <Genealogy>  (1) 
CC1CCN(Cc2nc3c(c(=O)n(C)c(=O)n3C)n2CC(=N)O)CC1 (tautomer)
[H]/N=C(\O)Cn1c(CN2CCC(C)CC2)nc2c1c(=O)n(C)c(=O)n2C (cis-trans isomerization)
[H]/N=C(\O)Cn1c(CN2CCC(C)CC2)nc2c1c(=O)n(C)c(=O)n2C (3D coordinates assigned)
[H]/N=C(\O)Cn1c(CN2CCC(C)CC2)nc2c1c(=O)n(C)c(=O)n2C (nonaromatic ring conformer: 95.86916526205952 kcal/mol)

>  <smiles>  (1) 
CC1CCN(Cc2nc3c(c(=O)n(C)c(=O)n3C)n2CC(N)=O)CC1

>  <score_type>  (1) 
oracle

>  <origin>  (1) 
autodockgpu

>  <m_score__min__energy>  (1) 
-5.3200000000000003

>  <m_primary>  (1) 
energy

>  <meeko>  (1) 
{"free_energy": -4.98, "intermolecular_energy": -6.77, "internal_energy": -2.32, "cluster_size": 5, "cluster_id": 3, "rank_in_cluster": 5}

>  <energy>  (1) 
-5.32

>  <cluster_rmsd>  (1) 
0.0

>  <rmsd>  (1) 
271.66

>  <cluster>  (1) 
1

$$$$
IQOSOXOZFSRASN-DESYHMSQNA-N
     RDKit          3D

 49 51  0  0  0  0  0  0  0  0999 V2000
  141.5850   76.3620  221.9660 H   0  0  0  0  0  0  0  0  0  0  0  0
  141.4460   75.3310  221.8790 N   0  0  0  0  0  0  0  0  0  0  0  0
  140.2610   74.8140  221.8010 C   0  0  0  0  0  0  0  0  0  0  0  0
  139.8920   73.7590  222.6330 O   0  0  0  0  0  0  0  0  0  0  0  0
  138.9560   73.6900  223.0160 H   0  0  0  0  0  0  0  0  0  0  0  0
  139.2750   75.3590  220.8160 C   0  0  0  0  0  0  0  0  0  0  0  0
  139.8114   75.9321  220.0454 H   0  0  0  0  0  0  0  0  0  0  0  0
  138.7316   74.5215  220.3542 H   0  0  0  0  0  0  0  0  0  0  0  0
  138.3130   76.2370  221.4890 N   0  0  0  0  0  0  0  0  0  0  0  0
  138.3660   77.5940  221.6100 C   0  0  0  0  0  0  0  0  0  0  0  0
  139.4120   78.4650  220.9750 C   0  0  0  0  0  0  0  0  0  0  0  0
  139.5445   78.1652  219.9250 H   0  0  0  0  0  0  0  0  0  0  0  0
  139.0846   79.5137  221.0305 H   0  0  0  0  0  0  0  0  0  0  0  0
  140.6980   78.3270  221.6860 N   0  0  0  0  0  0  0  0  0  0  0  0
  141.7930   79.0890  221.0220 C   0  0  0  0  0  0  0  0  0  0  0  0
  142.6961   78.4613  221.0026 H   0  0  0  0  0  0  0  0  0  0  0  0
  141.4509   79.3440  220.0081 H   0  0  0  0  0  0  0  0  0  0  0  0
  142.1250   80.4030  221.7410 C   0  0  0  0  0  0  0  0  0  0  0  0
  142.9319   80.9168  221.1979 H   0  0  0  0  0  0  0  0  0  0  0  0
  141.2202   81.0280  221.7663 H   0  0  0  0  0  0  0  0  0  0  0  0
  142.5820   80.1370  223.1930 C   0  0  0  0  0  0  0  0  0  0  0  0
  143.6569   79.9046  223.1684 H   0  0  0  0  0  0  0  0  0  0  0  0
  142.3740   81.3890  224.0560 C   0  0  0  0  0  0  0  0  0  0  0  0
  142.4199   81.1128  225.1198 H   0  0  0  0  0  0  0  0  0  0  0  0
  143.1625   82.1229  223.8334 H   0  0  0  0  0  0  0  0  0  0  0  0
  141.3905   81.8285  223.8334 H   0  0  0  0  0  0  0  0  0  0  0  0
  141.8750   78.9040  223.8090 C   0  0  0  0  0  0  0  0  0  0  0  0
  142.5203   78.0217  223.6859 H   0  0  0  0  0  0  0  0  0  0  0  0
  141.6911   79.1045  224.8748 H   0  0  0  0  0  0  0  0  0  0  0  0
  140.5290   78.6380  223.1260 C   0  0  0  0  0  0  0  0  0  0  0  0
  140.0406   77.7852  223.6202 H   0  0  0  0  0  0  0  0  0  0  0  0
  139.9151   79.5467  223.2113 H   0  0  0  0  0  0  0  0  0  0  0  0
  137.3490   78.1100  222.3470 N   0  0  0  0  0  0  0  0  0  0  0  0
  136.6530   77.0150  222.7060 C   0  0  0  0  0  0  0  0  0  0  0  0
  137.2220   75.8940  222.2030 C   0  0  0  0  0  0  0  0  0  0  0  0
  136.6540   74.6480  222.4540 C   0  0  0  0  0  0  0  0  0  0  0  0
  137.1670   73.6000  221.9780 O   0  0  0  0  0  0  0  0  0  0  0  0
  135.5160   74.5940  223.2260 N   0  0  0  0  0  0  0  0  0  0  0  0
  134.8650   73.2960  223.4800 C   0  0  0  0  0  0  0  0  0  0  0  0
  134.7832   73.1329  224.5648 H   0  0  0  0  0  0  0  0  0  0  0  0
  133.8602   73.2959  223.0324 H   0  0  0  0  0  0  0  0  0  0  0  0
  135.4659   72.4906  223.0324 H   0  0  0  0  0  0  0  0  0  0  0  0
  134.9350   75.7590  223.6980 C   0  0  0  0  0  0  0  0  0  0  0  0
  133.8520   75.7030  224.3460 O   0  0  0  0  0  0  0  0  0  0  0  0
  135.5230   76.9830  223.4640 N   0  0  0  0  0  0  0  0  0  0  0  0
  134.9060   78.2260  223.9440 C   0  0  0  0  0  0  0  0  0  0  0  0
  134.9027   78.2327  225.0440 H   0  0  0  0  0  0  0  0  0  0  0  0
  135.4811   79.0875  223.5738 H   0  0  0  0  0  0  0  0  0  0  0  0
  133.8721   78.2889  223.5738 H   0  0  0  0  0  0  0  0  0  0  0  0
  1  2  1  0
  2  3  2  0
  3  4  1  0
  4  5  1  0
  3  6  1  0
  6  7  1  0
  6  8  1  0
  6  9  1  0
  9 10  1  0
 10 11  1  0
 11 12  1  0
 11 13  1  0
 11 14  1  0
 14 15  1  0
 15 16  1  0
 15 17  1  0
 15 18  1  0
 18 19  1  0
 18 20  1  0
 18 21  1  0
 21 22  1  0
 21 23  1  0
 23 24  1  0
 23 25  1  0
 23 26  1  0
 21 27  1  0
 27 28  1  0
 27 29  1  0
 27 30  1  0
 30 31  1  0
 30 32  1  0
 10 33  2  0
 33 34  1  0
 34 35  2  0
 35 36  1  0
 36 37  2  0
 36 38  1  0
 38 39  1  0
 39 40  1  0
 39 41  1  0
 39 42  1  0
 38 43  1  0
 43 44  2  0
 43 45  1  0
 45 46  1  0
 46 47  1  0
 46 48  1  0
 46 49  1  0
 35  9  1  0
 30 14  1  0
 45 34  1  0
M  END
>  <UniqueID>  (2) 
13

>  <SMILES>  (2) 
[H]/N=C(\O)Cn1c(CN2CCC(C)CC2)nc2c1c(=O)n(C)c(=O)n2C

>  <Energy>  (2) 
95.86916526205952

>  <Genealogy>  (2) 
CC1CCN(Cc2nc3c(c(=O)n(C)c(=O)n3C)n2CC(=N)O)CC1 (tautomer)
[H]/N=C(\O)Cn1c(CN2CCC(C)CC2)nc2c1c(=O)n(C)c(=O)n2C (cis-trans isomerization)
[H]/N=C(\O)Cn1c(CN2CCC(C)CC2)nc2c1c(=O)n(C)c(=O)n2C (3D coordinates assigned)
[H]/N=C(\O)Cn1c(CN2CCC(C)CC2)nc2c1c(=O)n(C)c(=O)n2C (nonaromatic ring conformer: 95.86916526205952 kcal/mol)

>  <smiles>  (2) 
CC1CCN(Cc2nc3c(c(=O)n(C)c(=O)n3C)n2CC(N)=O)CC1

>  <score_type>  (2) 
oracle

>  <origin>  (2) 
autodockgpu

>  <m_score__min__energy>  (2) 
-5.3200000000000003

>  <m_primary>  (2) 
energy

>  <meeko>  (2) 
{"free_energy": -5.2, "intermolecular_energy": -6.99, "internal_energy": -2.41, "cluster_size": 14, "cluster_id": 1, "rank_in_cluster": 6}

>  <energy>  (2) 
-5.22

>  <cluster_rmsd>  (2) 
0.66

>  <rmsd>  (2) 
271.48

>  <cluster>  (2) 
1

$$$$
IQOSOXOZFSRASN-DESYHMSQNA-N
     RDKit          3D

 49 51  0  0  0  0  0  0  0  0999 V2000
  141.6080   76.4880  221.8680 H   0  0  0  0  0  0  0  0  0  0  0  0
  141.4550   75.4580  221.9480 N   0  0  0  0  0  0  0  0  0  0  0  0
  140.2910   74.9300  221.7420 C   0  0  0  0  0  0  0  0  0  0  0  0
  139.9000   73.7830  222.4310 O   0  0  0  0  0  0  0  0  0  0  0  0
  138.9580   73.6740  222.7860 H   0  0  0  0  0  0  0  0  0  0  0  0
  139.3510   75.5610  220.7630 C   0  0  0  0  0  0  0  0  0  0  0  0
  139.9256   76.1684  220.0482 H   0  0  0  0  0  0  0  0  0  0  0  0
  138.8043   74.7687  220.2307 H   0  0  0  0  0  0  0  0  0  0  0  0
  138.3880   76.4180  221.4610 N   0  0  0  0  0  0  0  0  0  0  0  0
  138.4230   77.7740  221.5950 C   0  0  0  0  0  0  0  0  0  0  0  0
  139.4470   78.6660  220.9530 C   0  0  0  0  0  0  0  0  0  0  0  0
  139.5150   78.4269  219.8815 H   0  0  0  0  0  0  0  0  0  0  0  0
  139.1417   79.7141  221.0881 H   0  0  0  0  0  0  0  0  0  0  0  0
  140.7680   78.4680  221.5800 N   0  0  0  0  0  0  0  0  0  0  0  0
  141.8220   79.3130  220.9520 C   0  0  0  0  0  0  0  0  0  0  0  0
  142.7278   78.7032  220.8190 H   0  0  0  0  0  0  0  0  0  0  0  0
  141.4268   79.6738  219.9909 H   0  0  0  0  0  0  0  0  0  0  0  0
  142.1800   80.5440  221.7940 C   0  0  0  0  0  0  0  0  0  0  0  0
  142.9545   81.1247  221.2717 H   0  0  0  0  0  0  0  0  0  0  0  0
  141.2730   81.1507  221.9328 H   0  0  0  0  0  0  0  0  0  0  0  0
  142.7120   80.1260  223.1840 C   0  0  0  0  0  0  0  0  0  0  0  0
  143.7863   79.9129  223.0817 H   0  0  0  0  0  0  0  0  0  0  0  0
  142.5370   81.2720  224.1890 C   0  0  0  0  0  0  0  0  0  0  0  0
  142.5977   80.8743  225.2128 H   0  0  0  0  0  0  0  0  0  0  0  0
  143.3318   82.0172  224.0374 H   0  0  0  0  0  0  0  0  0  0  0  0
  141.5561   81.7461  224.0374 H   0  0  0  0  0  0  0  0  0  0  0  0
  142.0470   78.8230  223.6930 C   0  0  0  0  0  0  0  0  0  0  0  0
  142.6923   77.9686  223.4406 H   0  0  0  0  0  0  0  0  0  0  0  0
  141.9157   78.9016  224.7823 H   0  0  0  0  0  0  0  0  0  0  0  0
  140.6700   78.6160  223.0520 C   0  0  0  0  0  0  0  0  0  0  0  0
  140.2139   77.7075  223.4722 H   0  0  0  0  0  0  0  0  0  0  0  0
  140.0542   79.5016  223.2678 H   0  0  0  0  0  0  0  0  0  0  0  0
  137.4100   78.2680  222.3530 N   0  0  0  0  0  0  0  0  0  0  0  0
  136.7360   77.1590  222.7110 C   0  0  0  0  0  0  0  0  0  0  0  0
  137.3120   76.0520  222.1870 C   0  0  0  0  0  0  0  0  0  0  0  0
  136.7660   74.7960  222.4350 C   0  0  0  0  0  0  0  0  0  0  0  0
  137.2860   73.7600  221.9400 O   0  0  0  0  0  0  0  0  0  0  0  0
  135.6410   74.7170  223.2230 N   0  0  0  0  0  0  0  0  0  0  0  0
  135.0120   73.4080  223.4730 C   0  0  0  0  0  0  0  0  0  0  0  0
  134.9317   73.2409  224.5573 H   0  0  0  0  0  0  0  0  0  0  0  0
  134.0079   73.3920  223.0242 H   0  0  0  0  0  0  0  0  0  0  0  0
  135.6269   72.6140  223.0242 H   0  0  0  0  0  0  0  0  0  0  0  0
  135.0510   75.8700  223.7150 C   0  0  0  0  0  0  0  0  0  0  0  0
  133.9790   75.7910  224.3800 O   0  0  0  0  0  0  0  0  0  0  0  0
  135.6180   77.1040  223.4860 N   0  0  0  0  0  0  0  0  0  0  0  0
  134.9910   78.3330  223.9880 C   0  0  0  0  0  0  0  0  0  0  0  0
  134.9956   78.3241  225.0880 H   0  0  0  0  0  0  0  0  0  0  0  0
  135.5539   79.2060  223.6261 H   0  0  0  0  0  0  0  0  0  0  0  0
  133.9538   78.3897  223.6261 H   0  0  0  0  0  0  0  0  0  0  0  0
  1  2  1  0
  2  3  2  0
  3  4  1  0
  4  5  1  0
  3  6  1  0
  6  7  1  0
  6  8  1  0
  6  9  1  0
  9 10  1  0
 10 11  1  0
 11 12  1  0
 11 13  1  0
 11 14  1  0
 14 15  1  0
 15 16  1  0
 15 17  1  0
 15 18  1  0
 18 19  1  0
 18 20  1  0
 18 21  1  0
 21 22  1  0
 21 23  1  0
 23 24  1  0
 23 25  1  0
 23 26  1  0
 21 27  1  0
 27 28  1  0
 27 29  1  0
 27 30  1  0
 30 31  1  0
 30 32  1  0
 10 33  2  0
 33 34  1  0
 34 35  2  0
 35 36  1  0
 36 37  2  0
 36 38  1  0
 38 39  1  0
 39 40  1  0
 39 41  1  0
 39 42  1  0
 38 43  1  0
 43 44  2  0
 43 45  1  0
 45 46  1  0
 46 47  1  0
 46 48  1  0
 46 49  1  0
 35  9  1  0
 30 14  1  0
 45 34  1  0
M  END
>  <UniqueID>  (3) 
13

>  <SMILES>  (3) 
[H]/N=C(\O)Cn1c(CN2CCC(C)CC2)nc2c1c(=O)n(C)c(=O)n2C

>  <Energy>  (3) 
95.86916526205952

>  <Genealogy>  (3) 
CC1CCN(Cc2nc3c(c(=O)n(C)c(=O)n3C)n2CC(=N)O)CC1 (tautomer)
[H]/N=C(\O)Cn1c(CN2CCC(C)CC2)nc2c1c(=O)n(C)c(=O)n2C (cis-trans isomerization)
[H]/N=C(\O)Cn1c(CN2CCC(C)CC2)nc2c1c(=O)n(C)c(=O)n2C (3D coordinates assigned)
[H]/N=C(\O)Cn1c(CN2CCC(C)CC2)nc2c1c(=O)n(C)c(=O)n2C (nonaromatic ring conformer: 95.86916526205952 kcal/mol)

>  <smiles>  (3) 
CC1CCN(Cc2nc3c(c(=O)n(C)c(=O)n3C)n2CC(N)=O)CC1

>  <score_type>  (3) 
oracle

>  <origin>  (3) 
autodockgpu

>  <m_score__min__energy>  (3) 
-5.3200000000000003

>  <m_primary>  (3) 
energy

>  <meeko>  (3) 
{"free_energy": -5.18, "intermolecular_energy": -6.97, "internal_energy": -2.42, "cluster_size": 14, "cluster_id": 1, "rank_in_cluster": 11}

>  <energy>  (3) 
-5.22

>  <cluster_rmsd>  (3) 
0.62

>  <rmsd>  (3) 
271.51

>  <cluster>  (3) 
1

$$$$
IQOSOXOZFSRASN-DESYHMSQNA-N
     RDKit          3D

 49 51  0  0  0  0  0  0  0  0999 V2000
  141.5370   76.5830  221.9760 H   0  0  0  0  0  0  0  0  0  0  0  0
  141.4310   75.5460  221.9050 N   0  0  0  0  0  0  0  0  0  0  0  0
  140.2740   74.9970  221.7180 C   0  0  0  0  0  0  0  0  0  0  0  0
  139.9330   73.8190  222.3780 O   0  0  0  0  0  0  0  0  0  0  0  0
  139.0100   73.6810  222.7730 H   0  0  0  0  0  0  0  0  0  0  0  0
  139.2880   75.6380  220.7910 C   0  0  0  0  0  0  0  0  0  0  0  0
  139.8151   76.3444  220.1328 H   0  0  0  0  0  0  0  0  0  0  0  0
  138.8003   74.8555  220.1911 H   0  0  0  0  0  0  0  0  0  0  0  0
  138.2650   76.3600  221.5550 N   0  0  0  0  0  0  0  0  0  0  0  0
  138.2000   77.6990  221.8030 C   0  0  0  0  0  0  0  0  0  0  0  0
  139.1540   78.7150  221.2420 C   0  0  0  0  0  0  0  0  0  0  0  0
  139.1693   78.6309  220.1453 H   0  0  0  0  0  0  0  0  0  0  0  0
  138.8203   79.7200  221.5397 H   0  0  0  0  0  0  0  0  0  0  0  0
  140.5150   78.4880  221.7660 N   0  0  0  0  0  0  0  0  0  0  0  0
  141.5380   79.2940  221.0440 C   0  0  0  0  0  0  0  0  0  0  0  0
  142.4134   78.6570  220.8492 H   0  0  0  0  0  0  0  0  0  0  0  0
  141.0778   79.6532  220.1117 H   0  0  0  0  0  0  0  0  0  0  0  0
  141.9950   80.5250  221.8360 C   0  0  0  0  0  0  0  0  0  0  0  0
  142.7407   81.0769  221.2449 H   0  0  0  0  0  0  0  0  0  0  0  0
  141.1184   81.1583  222.0372 H   0  0  0  0  0  0  0  0  0  0  0  0
  142.6250   80.1110  223.1860 C   0  0  0  0  0  0  0  0  0  0  0  0
  143.6816   79.8659  223.0030 H   0  0  0  0  0  0  0  0  0  0  0  0
  142.5620   81.2750  224.1830 C   0  0  0  0  0  0  0  0  0  0  0  0
  142.5834   80.8801  225.2095 H   0  0  0  0  0  0  0  0  0  0  0  0
  143.4256   81.9383  224.0272 H   0  0  0  0  0  0  0  0  0  0  0  0
  141.6319   81.8413  224.0272 H   0  0  0  0  0  0  0  0  0  0  0  0
  141.9660   78.8350  223.7660 C   0  0  0  0  0  0  0  0  0  0  0  0
  142.5657   77.9591  223.4776 H   0  0  0  0  0  0  0  0  0  0  0  0
  141.9227   78.9332  224.8608 H   0  0  0  0  0  0  0  0  0  0  0  0
  140.5380   78.6580  223.2390 C   0  0  0  0  0  0  0  0  0  0  0  0
  140.0926   77.7681  223.7077 H   0  0  0  0  0  0  0  0  0  0  0  0
  139.9651   79.5631  223.4891 H   0  0  0  0  0  0  0  0  0  0  0  0
  137.1550   78.0500  222.5960 N   0  0  0  0  0  0  0  0  0  0  0  0
  136.5650   76.8680  222.8560 C   0  0  0  0  0  0  0  0  0  0  0  0
  137.2210   75.8550  222.2430 C   0  0  0  0  0  0  0  0  0  0  0  0
  136.7710   74.5460  222.3810 C   0  0  0  0  0  0  0  0  0  0  0  0
  137.3650   73.5960  221.8030 O   0  0  0  0  0  0  0  0  0  0  0  0
  135.6550   74.3180  223.1550 N   0  0  0  0  0  0  0  0  0  0  0  0
  135.1270   72.9490  223.2920 C   0  0  0  0  0  0  0  0  0  0  0  0
  135.0303   72.6983  224.3587 H   0  0  0  0  0  0  0  0  0  0  0  0
  134.1403   72.8866  222.8098 H   0  0  0  0  0  0  0  0  0  0  0  0
  135.8163   72.2402  222.8098 H   0  0  0  0  0  0  0  0  0  0  0  0
  134.9830   75.3770  223.7410 C   0  0  0  0  0  0  0  0  0  0  0  0
  133.9220   75.1640  224.3920 O   0  0  0  0  0  0  0  0  0  0  0  0
  135.4570   76.6650  223.6190 N   0  0  0  0  0  0  0  0  0  0  0  0
  134.7410   77.7980  224.2200 C   0  0  0  0  0  0  0  0  0  0  0  0
  134.7890   77.7221  225.3163 H   0  0  0  0  0  0  0  0  0  0  0  0
  135.2082   78.7400  223.8969 H   0  0  0  0  0  0  0  0  0  0  0  0
  133.6897   77.7804  223.8969 H   0  0  0  0  0  0  0  0  0  0  0  0
  1  2  1  0
  2  3  2  0
  3  4  1  0
  4  5  1  0
  3  6  1  0
  6  7  1  0
  6  8  1  0
  6  9  1  0
  9 10  1  0
 10 11  1  0
 11 12  1  0
 11 13  1  0
 11 14  1  0
 14 15  1  0
 15 16  1  0
 15 17  1  0
 15 18  1  0
 18 19  1  0
 18 20  1  0
 18 21  1  0
 21 22  1  0
 21 23  1  0
 23 24  1  0
 23 25  1  0
 23 26  1  0
 21 27  1  0
 27 28  1  0
 27 29  1  0
 27 30  1  0
 30 31  1  0
 30 32  1  0
 10 33  2  0
 33 34  1  0
 34 35  2  0
 35 36  1  0
 36 37  2  0
 36 38  1  0
 38 39  1  0
 39 40  1  0
 39 41  1  0
 39 42  1  0
 38 43  1  0
 43 44  2  0
 43 45  1  0
 45 46  1  0
 46 47  1  0
 46 48  1  0
 46 49  1  0
 35  9  1  0
 30 14  1  0
 45 34  1  0
M  END
>  <UniqueID>  (4) 
13

>  <SMILES>  (4) 
[H]/N=C(\O)Cn1c(CN2CCC(C)CC2)nc2c1c(=O)n(C)c(=O)n2C

>  <Energy>  (4) 
95.86916526205952

>  <Genealogy>  (4) 
CC1CCN(Cc2nc3c(c(=O)n(C)c(=O)n3C)n2CC(=N)O)CC1 (tautomer)
[H]/N=C(\O)Cn1c(CN2CCC(C)CC2)nc2c1c(=O)n(C)c(=O)n2C (cis-trans isomerization)
[H]/N=C(\O)Cn1c(CN2CCC(C)CC2)nc2c1c(=O)n(C)c(=O)n2C (3D coordinates assigned)
[H]/N=C(\O)Cn1c(CN2CCC(C)CC2)nc2c1c(=O)n(C)c(=O)n2C (nonaromatic ring conformer: 95.86916526205952 kcal/mol)

>  <smiles>  (4) 
CC1CCN(Cc2nc3c(c(=O)n(C)c(=O)n3C)n2CC(N)=O)CC1

>  <score_type>  (4) 
oracle

>  <origin>  (4) 
autodockgpu

>  <m_score__min__energy>  (4) 
-5.3200000000000003

>  <m_primary>  (4) 
energy

>  <meeko>  (4) 
{"free_energy": -5.2, "intermolecular_energy": -6.99, "internal_energy": -2.39, "cluster_size": 14, "cluster_id": 1, "rank_in_cluster": 8}

>  <energy>  (4) 
-5.21

>  <cluster_rmsd>  (4) 
0.61

>  <rmsd>  (4) 
271.52

>  <cluster>  (4) 
1

$$$$
IQOSOXOZFSRASN-DESYHMSQNA-N
     RDKit          3D

 49 51  0  0  0  0  0  0  0  0999 V2000
  142.0850   75.8210  221.8570 H   0  0  0  0  0  0  0  0  0  0  0  0
  141.5060   74.9880  221.6090 N   0  0  0  0  0  0  0  0  0  0  0  0
  140.2120   75.0370  221.6220 C   0  0  0  0  0  0  0  0  0  0  0  0
  139.4750   74.1010  222.3450 O   0  0  0  0  0  0  0  0  0  0  0  0
  138.6030   74.3490  222.7980 H   0  0  0  0  0  0  0  0  0  0  0  0
  139.5010   76.1130  220.8640 C   0  0  0  0  0  0  0  0  0  0  0  0
  140.1882   76.5508  220.1250 H   0  0  0  0  0  0  0  0  0  0  0  0
  138.6291   75.6757  220.3556 H   0  0  0  0  0  0  0  0  0  0  0  0
  139.0420   77.1630  221.7790 N   0  0  0  0  0  0  0  0  0  0  0  0
  137.7840   77.3500  222.2700 C   0  0  0  0  0  0  0  0  0  0  0  0
  136.6260   76.4260  222.0180 C   0  0  0  0  0  0  0  0  0  0  0  0
  135.6850   76.9826  222.1388 H   0  0  0  0  0  0  0  0  0  0  0  0
  136.7013   76.0296  220.9947 H   0  0  0  0  0  0  0  0  0  0  0  0
  136.6510   75.2990  222.9720 N   0  0  0  0  0  0  0  0  0  0  0  0
  135.9190   75.6110  224.2310 C   0  0  0  0  0  0  0  0  0  0  0  0
  136.5140   75.2483  225.0821 H   0  0  0  0  0  0  0  0  0  0  0  0
  135.7746   76.7009  224.2677 H   0  0  0  0  0  0  0  0  0  0  0  0
  134.5310   74.9600  224.2910 C   0  0  0  0  0  0  0  0  0  0  0  0
  134.0446   75.2355  225.2384 H   0  0  0  0  0  0  0  0  0  0  0  0
  133.9378   75.3176  223.4364 H   0  0  0  0  0  0  0  0  0  0  0  0
  134.6400   73.4200  224.2070 C   0  0  0  0  0  0  0  0  0  0  0  0
  134.8360   73.0412  225.2209 H   0  0  0  0  0  0  0  0  0  0  0  0
  133.3190   72.8190  223.7100 C   0  0  0  0  0  0  0  0  0  0  0  0
  132.6974   72.5362  224.5724 H   0  0  0  0  0  0  0  0  0  0  0  0
  132.7842   73.5624  223.1006 H   0  0  0  0  0  0  0  0  0  0  0  0
  133.5281   71.9274  223.1006 H   0  0  0  0  0  0  0  0  0  0  0  0
  135.8320   72.9690  223.3270 C   0  0  0  0  0  0  0  0  0  0  0  0
  136.6990   72.7679  223.9734 H   0  0  0  0  0  0  0  0  0  0  0  0
  135.5367   72.0616  222.7798 H   0  0  0  0  0  0  0  0  0  0  0  0
  136.2090   74.0490  222.3070 C   0  0  0  0  0  0  0  0  0  0  0  0
  137.0268   73.6728  221.6748 H   0  0  0  0  0  0  0  0  0  0  0  0
  135.3183   74.2774  221.7033 H   0  0  0  0  0  0  0  0  0  0  0  0
  137.6680   78.4540  223.0520 N   0  0  0  0  0  0  0  0  0  0  0  0
  138.9100   78.9740  223.0230 C   0  0  0  0  0  0  0  0  0  0  0  0
  139.7340   78.2140  222.2640 C   0  0  0  0  0  0  0  0  0  0  0  0
  141.0690   78.5750  222.1050 C   0  0  0  0  0  0  0  0  0  0  0  0
  141.8490   77.8670  221.4140 O   0  0  0  0  0  0  0  0  0  0  0  0
  141.5150   79.7170  222.7310 N   0  0  0  0  0  0  0  0  0  0  0  0
  142.9310   80.1090  222.6170 C   0  0  0  0  0  0  0  0  0  0  0  0
  143.3606   80.2279  223.6226 H   0  0  0  0  0  0  0  0  0  0  0  0
  143.4843   79.3302  222.0716 H   0  0  0  0  0  0  0  0  0  0  0  0
  143.0050   81.0614  222.0716 H   0  0  0  0  0  0  0  0  0  0  0  0
  140.6580   80.4550  223.5300 C   0  0  0  0  0  0  0  0  0  0  0  0
  141.0960   81.4630  224.1550 O   0  0  0  0  0  0  0  0  0  0  0  0
  139.3330   80.1020  223.6560 N   0  0  0  0  0  0  0  0  0  0  0  0
  138.4210   80.8670  224.5150 C   0  0  0  0  0  0  0  0  0  0  0  0
  138.6582   80.6681  225.5705 H   0  0  0  0  0  0  0  0  0  0  0  0
  138.5379   81.9412  224.3091 H   0  0  0  0  0  0  0  0  0  0  0  0
  137.3835   80.5650  224.3091 H   0  0  0  0  0  0  0  0  0  0  0  0
  1  2  1  0
  2  3  2  0
  3  4  1  0
  4  5  1  0
  3  6  1  0
  6  7  1  0
  6  8  1  0
  6  9  1  0
  9 10  1  0
 10 11  1  0
 11 12  1  0
 11 13  1  0
 11 14  1  0
 14 15  1  0
 15 16  1  0
 15 17  1  0
 15 18  1  0
 18 19  1  0
 18 20  1  0
 18 21  1  0
 21 22  1  0
 21 23  1  0
 23 24  1  0
 23 25  1  0
 23 26  1  0
 21 27  1  0
 27 28  1  0
 27 29  1  0
 27 30  1  0
 30 31  1  0
 30 32  1  0
 10 33  2  0
 33 34  1  0
 34 35  2  0
 35 36  1  0
 36 37  2  0
 36 38  1  0
 38 39  1  0
 39 40  1  0
 39 41  1  0
 39 42  1  0
 38 43  1  0
 43 44  2  0
 43 45  1  0
 45 46  1  0
 46 47  1  0
 46 48  1  0
 46 49  1  0
 35  9  1  0
 30 14  1  0
 45 34  1  0
M  END
>  <UniqueID>  (5) 
13

>  <SMILES>  (5) 
[H]/N=C(\O)Cn1c(CN2CCC(C)CC2)nc2c1c(=O)n(C)c(=O)n2C

>  <Energy>  (5) 
95.86916526205952

>  <Genealogy>  (5) 
CC1CCN(Cc2nc3c(c(=O)n(C)c(=O)n3C)n2CC(=N)O)CC1 (tautomer)
[H]/N=C(\O)Cn1c(CN2CCC(C)CC2)nc2c1c(=O)n(C)c(=O)n2C (cis-trans isomerization)
[H]/N=C(\O)Cn1c(CN2CCC(C)CC2)nc2c1c(=O)n(C)c(=O)n2C (3D coordinates assigned)
[H]/N=C(\O)Cn1c(CN2CCC(C)CC2)nc2c1c(=O)n(C)c(=O)n2C (nonaromatic ring conformer: 95.86916526205952 kcal/mol)

>  <smiles>  (5) 
CC1CCN(Cc2nc3c(c(=O)n(C)c(=O)n3C)n2CC(N)=O)CC1

>  <score_type>  (5) 
oracle

>  <origin>  (5) 
autodockgpu

>  <m_score__min__energy>  (5) 
-5.3200000000000003

>  <m_primary>  (5) 
energy

>  <meeko>  (5) 
{"free_energy": -4.99, "intermolecular_energy": -6.78, "internal_energy": -2.3, "cluster_size": 5, "cluster_id": 3, "rank_in_cluster": 3}

>  <energy>  (5) 
-5.21

>  <cluster_rmsd>  (5) 
0.93

>  <rmsd>  (5) 
271.45

>  <cluster>  (5) 
1

$$$$
IQOSOXOZFSRASN-DESYHMSQNA-N
     RDKit          3D

 49 51  0  0  0  0  0  0  0  0999 V2000
  141.5910   76.4470  221.9660 H   0  0  0  0  0  0  0  0  0  0  0  0
  141.4580   75.4110  221.9620 N   0  0  0  0  0  0  0  0  0  0  0  0
  140.2870   74.8810  221.8050 C   0  0  0  0  0  0  0  0  0  0  0  0
  139.9060   73.7690  222.5530 O   0  0  0  0  0  0  0  0  0  0  0  0
  138.9700   73.6810  222.9300 H   0  0  0  0  0  0  0  0  0  0  0  0
  139.3300   75.4720  220.8180 C   0  0  0  0  0  0  0  0  0  0  0  0
  139.8891   76.0742  220.0867 H   0  0  0  0  0  0  0  0  0  0  0  0
  138.7957   74.6576  220.3068 H   0  0  0  0  0  0  0  0  0  0  0  0
  138.3540   76.3260  221.5020 N   0  0  0  0  0  0  0  0  0  0  0  0
  138.3890   77.6810  221.6480 C   0  0  0  0  0  0  0  0  0  0  0  0
  139.4280   78.5760  221.0350 C   0  0  0  0  0  0  0  0  0  0  0  0
  139.5544   78.3113  219.9748 H   0  0  0  0  0  0  0  0  0  0  0  0
  139.0976   79.6212  221.1271 H   0  0  0  0  0  0  0  0  0  0  0  0
  140.7200   78.4190  221.7330 N   0  0  0  0  0  0  0  0  0  0  0  0
  141.8080   79.2020  221.0850 C   0  0  0  0  0  0  0  0  0  0  0  0
  142.7117   78.5765  221.0397 H   0  0  0  0  0  0  0  0  0  0  0  0
  141.4576   79.4874  220.0821 H   0  0  0  0  0  0  0  0  0  0  0  0
  142.1440   80.4940  221.8410 C   0  0  0  0  0  0  0  0  0  0  0  0
  142.9463   81.0249  221.3078 H   0  0  0  0  0  0  0  0  0  0  0  0
  141.2387   81.1168  221.8919 H   0  0  0  0  0  0  0  0  0  0  0  0
  142.6120   80.1850  223.2810 C   0  0  0  0  0  0  0  0  0  0  0  0
  143.6871   79.9554  223.2420 H   0  0  0  0  0  0  0  0  0  0  0  0
  142.4080   81.4100  224.1830 C   0  0  0  0  0  0  0  0  0  0  0  0
  142.4594   81.1015  225.2376 H   0  0  0  0  0  0  0  0  0  0  0  0
  143.1952   82.1508  223.9789 H   0  0  0  0  0  0  0  0  0  0  0  0
  141.4233   81.8557  223.9789 H   0  0  0  0  0  0  0  0  0  0  0  0
  141.9110   78.9330  223.8640 C   0  0  0  0  0  0  0  0  0  0  0  0
  142.5569   78.0560  223.7099 H   0  0  0  0  0  0  0  0  0  0  0  0
  141.7339   79.1013  224.9365 H   0  0  0  0  0  0  0  0  0  0  0  0
  140.5610   78.6850  223.1830 C   0  0  0  0  0  0  0  0  0  0  0  0
  140.0781   77.8162  223.6542 H   0  0  0  0  0  0  0  0  0  0  0  0
  139.9458   79.5892  223.3008 H   0  0  0  0  0  0  0  0  0  0  0  0
  137.3620   78.1710  222.3900 N   0  0  0  0  0  0  0  0  0  0  0  0
  136.6780   77.0600  222.7240 C   0  0  0  0  0  0  0  0  0  0  0  0
  137.2630   75.9570  222.2030 C   0  0  0  0  0  0  0  0  0  0  0  0
  136.7090   74.6990  222.4280 C   0  0  0  0  0  0  0  0  0  0  0  0
  137.2370   73.6660  221.9360 O   0  0  0  0  0  0  0  0  0  0  0  0
  135.5670   74.6170  223.1920 N   0  0  0  0  0  0  0  0  0  0  0  0
  134.9310   73.3070  223.4190 C   0  0  0  0  0  0  0  0  0  0  0  0
  134.8425   73.1248  224.5002 H   0  0  0  0  0  0  0  0  0  0  0  0
  133.9299   73.3015  222.9631 H   0  0  0  0  0  0  0  0  0  0  0  0
  135.5458   72.5170  222.9631 H   0  0  0  0  0  0  0  0  0  0  0  0
  134.9700   75.7660  223.6820 C   0  0  0  0  0  0  0  0  0  0  0  0
  133.8840   75.6850  224.3240 O   0  0  0  0  0  0  0  0  0  0  0  0
  135.5440   77.0010  223.4750 N   0  0  0  0  0  0  0  0  0  0  0  0
  134.9090   78.2280  223.9750 C   0  0  0  0  0  0  0  0  0  0  0  0
  134.9127   78.2208  225.0750 H   0  0  0  0  0  0  0  0  0  0  0  0
  135.4671   79.1037  223.6122 H   0  0  0  0  0  0  0  0  0  0  0  0
  133.8718   78.2781  223.6122 H   0  0  0  0  0  0  0  0  0  0  0  0
  1  2  1  0
  2  3  2  0
  3  4  1  0
  4  5  1  0
  3  6  1  0
  6  7  1  0
  6  8  1  0
  6  9  1  0
  9 10  1  0
 10 11  1  0
 11 12  1  0
 11 13  1  0
 11 14  1  0
 14 15  1  0
 15 16  1  0
 15 17  1  0
 15 18  1  0
 18 19  1  0
 18 20  1  0
 18 21  1  0
 21 22  1  0
 21 23  1  0
 23 24  1  0
 23 25  1  0
 23 26  1  0
 21 27  1  0
 27 28  1  0
 27 29  1  0
 27 30  1  0
 30 31  1  0
 30 32  1  0
 10 33  2  0
 33 34  1  0
 34 35  2  0
 35 36  1  0
 36 37  2  0
 36 38  1  0
 38 39  1  0
 39 40  1  0
 39 41  1  0
 39 42  1  0
 38 43  1  0
 43 44  2  0
 43 45  1  0
 45 46  1  0
 46 47  1  0
 46 48  1  0
 46 49  1  0
 35  9  1  0
 30 14  1  0
 45 34  1  0
M  END
>  <UniqueID>  (6) 
13

>  <SMILES>  (6) 
[H]/N=C(\O)Cn1c(CN2CCC(C)CC2)nc2c1c(=O)n(C)c(=O)n2C

>  <Energy>  (6) 
95.86916526205952

>  <Genealogy>  (6) 
CC1CCN(Cc2nc3c(c(=O)n(C)c(=O)n3C)n2CC(=N)O)CC1 (tautomer)
[H]/N=C(\O)Cn1c(CN2CCC(C)CC2)nc2c1c(=O)n(C)c(=O)n2C (cis-trans isomerization)
[H]/N=C(\O)Cn1c(CN2CCC(C)CC2)nc2c1c(=O)n(C)c(=O)n2C (3D coordinates assigned)
[H]/N=C(\O)Cn1c(CN2CCC(C)CC2)nc2c1c(=O)n(C)c(=O)n2C (nonaromatic ring conformer: 95.86916526205952 kcal/mol)

>  <smiles>  (6) 
CC1CCN(Cc2nc3c(c(=O)n(C)c(=O)n3C)n2CC(N)=O)CC1

>  <score_type>  (6) 
oracle

>  <origin>  (6) 
autodockgpu

>  <m_score__min__energy>  (6) 
-5.3200000000000003

>  <m_primary>  (6) 
energy

>  <meeko>  (6) 
{"free_energy": -5.2, "intermolecular_energy": -6.99, "internal_energy": -2.41, "cluster_size": 14, "cluster_id": 1, "rank_in_cluster": 9}

>  <energy>  (6) 
-5.2

>  <cluster_rmsd>  (6) 
0.72

>  <rmsd>  (6) 
271.46

>  <cluster>  (6) 
1

$$$$
IQOSOXOZFSRASN-DESYHMSQNA-N
     RDKit          3D

 49 51  0  0  0  0  0  0  0  0999 V2000
  138.4650   74.2470  222.8270 H   0  0  0  0  0  0  0  0  0  0  0  0
  139.3660   74.0300  222.3450 N   0  0  0  0  0  0  0  0  0  0  0  0
  140.0850   74.9620  221.8050 C   0  0  0  0  0  0  0  0  0  0  0  0
  141.4700   74.9660  221.9540 O   0  0  0  0  0  0  0  0  0  0  0  0
  141.9920   75.8300  222.0350 H   0  0  0  0  0  0  0  0  0  0  0  0
  139.4240   76.0420  221.0060 C   0  0  0  0  0  0  0  0  0  0  0  0
  140.1405   76.4407  220.2728 H   0  0  0  0  0  0  0  0  0  0  0  0
  138.5500   75.6194  220.4887 H   0  0  0  0  0  0  0  0  0  0  0  0
  138.9780   77.1270  221.8850 N   0  0  0  0  0  0  0  0  0  0  0  0
  137.7170   77.3600  222.3480 C   0  0  0  0  0  0  0  0  0  0  0  0
  136.5400   76.4610  222.1000 C   0  0  0  0  0  0  0  0  0  0  0  0
  135.6111   77.0304  222.2512 H   0  0  0  0  0  0  0  0  0  0  0  0
  136.5900   76.0854  221.0673 H   0  0  0  0  0  0  0  0  0  0  0  0
  136.5630   75.3130  223.0280 N   0  0  0  0  0  0  0  0  0  0  0  0
  135.8540   75.6070  224.3040 C   0  0  0  0  0  0  0  0  0  0  0  0
  136.4568   75.2191  225.1383 H   0  0  0  0  0  0  0  0  0  0  0  0
  135.7239   76.6975  224.3667 H   0  0  0  0  0  0  0  0  0  0  0  0
  134.4590   74.9710  224.3700 C   0  0  0  0  0  0  0  0  0  0  0  0
  133.9897   75.2315  225.3301 H   0  0  0  0  0  0  0  0  0  0  0  0
  133.8585   75.3542  223.5318 H   0  0  0  0  0  0  0  0  0  0  0  0
  134.5470   73.4330  224.2510 C   0  0  0  0  0  0  0  0  0  0  0  0
  134.7524   73.0307  225.2540 H   0  0  0  0  0  0  0  0  0  0  0  0
  133.2120   72.8580  223.7610 C   0  0  0  0  0  0  0  0  0  0  0  0
  132.5886   72.5895  224.6266 H   0  0  0  0  0  0  0  0  0  0  0  0
  132.6897   73.6110  223.1525 H   0  0  0  0  0  0  0  0  0  0  0  0
  133.4003   71.9612  223.1525 H   0  0  0  0  0  0  0  0  0  0  0  0
  135.7210   72.9860  223.3440 C   0  0  0  0  0  0  0  0  0  0  0  0
  136.5944   72.7596  223.9731 H   0  0  0  0  0  0  0  0  0  0  0  0
  135.4067   72.0945  222.7815 H   0  0  0  0  0  0  0  0  0  0  0  0
  136.0970   74.0840  222.3430 C   0  0  0  0  0  0  0  0  0  0  0  0
  136.9013   73.7122  221.6912 H   0  0  0  0  0  0  0  0  0  0  0  0
  135.2006   74.3363  221.7575 H   0  0  0  0  0  0  0  0  0  0  0  0
  137.6180   78.4870  223.0990 N   0  0  0  0  0  0  0  0  0  0  0  0
  138.8740   78.9730  223.0780 C   0  0  0  0  0  0  0  0  0  0  0  0
  139.6900   78.1710  222.3550 C   0  0  0  0  0  0  0  0  0  0  0  0
  141.0370   78.4920  222.2100 C   0  0  0  0  0  0  0  0  0  0  0  0
  141.8090   77.7460  221.5520 O   0  0  0  0  0  0  0  0  0  0  0  0
  141.5030   79.6380  222.8140 N   0  0  0  0  0  0  0  0  0  0  0  0
  142.9300   79.9890  222.7160 C   0  0  0  0  0  0  0  0  0  0  0  0
  143.3523   80.0929  223.7264 H   0  0  0  0  0  0  0  0  0  0  0  0
  143.4663   79.1960  222.1742 H   0  0  0  0  0  0  0  0  0  0  0  0
  143.0372   80.9403  222.1742 H   0  0  0  0  0  0  0  0  0  0  0  0
  140.6530   80.4200  223.5790 C   0  0  0  0  0  0  0  0  0  0  0  0
  141.1060   81.4320  224.1850 O   0  0  0  0  0  0  0  0  0  0  0  0
  139.3160   80.1050  223.6900 N   0  0  0  0  0  0  0  0  0  0  0  0
  138.4100   80.9170  224.5130 C   0  0  0  0  0  0  0  0  0  0  0  0
  138.6166   80.7319  225.5775 H   0  0  0  0  0  0  0  0  0  0  0  0
  138.5669   81.9824  224.2889 H   0  0  0  0  0  0  0  0  0  0  0  0
  137.3680   80.6448  224.2889 H   0  0  0  0  0  0  0  0  0  0  0  0
  1  2  1  0
  2  3  2  0
  3  4  1  0
  4  5  1  0
  3  6  1  0
  6  7  1  0
  6  8  1  0
  6  9  1  0
  9 10  1  0
 10 11  1  0
 11 12  1  0
 11 13  1  0
 11 14  1  0
 14 15  1  0
 15 16  1  0
 15 17  1  0
 15 18  1  0
 18 19  1  0
 18 20  1  0
 18 21  1  0
 21 22  1  0
 21 23  1  0
 23 24  1  0
 23 25  1  0
 23 26  1  0
 21 27  1  0
 27 28  1  0
 27 29  1  0
 27 30  1  0
 30 31  1  0
 30 32  1  0
 10 33  2  0
 33 34  1  0
 34 35  2  0
 35 36  1  0
 36 37  2  0
 36 38  1  0
 38 39  1  0
 39 40  1  0
 39 41  1  0
 39 42  1  0
 38 43  1  0
 43 44  2  0
 43 45  1  0
 45 46  1  0
 46 47  1  0
 46 48  1  0
 46 49  1  0
 35  9  1  0
 30 14  1  0
 45 34  1  0
M  END
>  <UniqueID>  (7) 
13

>  <SMILES>  (7) 
[H]/N=C(\O)Cn1c(CN2CCC(C)CC2)nc2c1c(=O)n(C)c(=O)n2C

>  <Energy>  (7) 
95.86916526205952

>  <Genealogy>  (7) 
CC1CCN(Cc2nc3c(c(=O)n(C)c(=O)n3C)n2CC(=N)O)CC1 (tautomer)
[H]/N=C(\O)Cn1c(CN2CCC(C)CC2)nc2c1c(=O)n(C)c(=O)n2C (cis-trans isomerization)
[H]/N=C(\O)Cn1c(CN2CCC(C)CC2)nc2c1c(=O)n(C)c(=O)n2C (3D coordinates assigned)
[H]/N=C(\O)Cn1c(CN2CCC(C)CC2)nc2c1c(=O)n(C)c(=O)n2C (nonaromatic ring conformer: 95.86916526205952 kcal/mol)

>  <smiles>  (7) 
CC1CCN(Cc2nc3c(c(=O)n(C)c(=O)n3C)n2CC(N)=O)CC1

>  <score_type>  (7) 
oracle

>  <origin>  (7) 
autodockgpu

>  <m_score__min__energy>  (7) 
-5.3200000000000003

>  <m_primary>  (7) 
energy

>  <meeko>  (7) 
{"free_energy": -4.99, "intermolecular_energy": -6.78, "internal_energy": -2.31, "cluster_size": 5, "cluster_id": 3, "rank_in_cluster": 4}

>  <energy>  (7) 
-5.2

>  <cluster_rmsd>  (7) 
0.66

>  <rmsd>  (7) 
271.49

>  <cluster>  (7) 
1

$$$$
IQOSOXOZFSRASN-DESYHMSQNA-N
     RDKit          3D

 49 51  0  0  0  0  0  0  0  0999 V2000
  141.5890   76.3760  221.9670 H   0  0  0  0  0  0  0  0  0  0  0  0
  141.4530   75.3440  221.8760 N   0  0  0  0  0  0  0  0  0  0  0  0
  140.2710   74.8230  221.7940 C   0  0  0  0  0  0  0  0  0  0  0  0
  139.9040   73.7630  222.6200 O   0  0  0  0  0  0  0  0  0  0  0  0
  138.9710   73.6930  223.0090 H   0  0  0  0  0  0  0  0  0  0  0  0
  139.2840   75.3710  220.8110 C   0  0  0  0  0  0  0  0  0  0  0  0
  139.8217   75.9295  220.0306 H   0  0  0  0  0  0  0  0  0  0  0  0
  138.7264   74.5358  220.3621 H   0  0  0  0  0  0  0  0  0  0  0  0
  138.3380   76.2680  221.4820 N   0  0  0  0  0  0  0  0  0  0  0  0
  138.4080   77.6250  221.5870 C   0  0  0  0  0  0  0  0  0  0  0  0
  139.4590   78.4760  220.9340 C   0  0  0  0  0  0  0  0  0  0  0  0
  139.5966   78.1471  219.8934 H   0  0  0  0  0  0  0  0  0  0  0  0
  139.1335   79.5264  220.9585 H   0  0  0  0  0  0  0  0  0  0  0  0
  140.7410   78.3550  221.6560 N   0  0  0  0  0  0  0  0  0  0  0  0
  141.8200   79.1680  221.0270 C   0  0  0  0  0  0  0  0  0  0  0  0
  142.7413   78.5676  220.9995 H   0  0  0  0  0  0  0  0  0  0  0  0
  141.4807   79.4429  220.0174 H   0  0  0  0  0  0  0  0  0  0  0  0
  142.1060   80.4690  221.7870 C   0  0  0  0  0  0  0  0  0  0  0  0
  142.9035   81.0211  221.2682 H   0  0  0  0  0  0  0  0  0  0  0  0
  141.1830   81.0665  221.8197 H   0  0  0  0  0  0  0  0  0  0  0  0
  142.5550   80.1750  223.2370 C   0  0  0  0  0  0  0  0  0  0  0  0
  143.6367   79.9762  223.2191 H   0  0  0  0  0  0  0  0  0  0  0  0
  142.3000   81.3940  224.1330 C   0  0  0  0  0  0  0  0  0  0  0  0
  142.3631   81.0925  225.1890 H   0  0  0  0  0  0  0  0  0  0  0  0
  143.0562   82.1656  223.9262 H   0  0  0  0  0  0  0  0  0  0  0  0
  141.2979   81.7979  223.9262 H   0  0  0  0  0  0  0  0  0  0  0  0
  141.8780   78.9040  223.8080 C   0  0  0  0  0  0  0  0  0  0  0  0
  142.5504   78.0451  223.6661 H   0  0  0  0  0  0  0  0  0  0  0  0
  141.6770   79.0674  224.8771 H   0  0  0  0  0  0  0  0  0  0  0  0
  140.5480   78.6190  223.1030 C   0  0  0  0  0  0  0  0  0  0  0  0
  140.0799   77.7383  223.5670 H   0  0  0  0  0  0  0  0  0  0  0  0
  139.9067   79.5066  223.2076 H   0  0  0  0  0  0  0  0  0  0  0  0
  137.4030   78.1610  222.3270 N   0  0  0  0  0  0  0  0  0  0  0  0
  136.6970   77.0780  222.7030 C   0  0  0  0  0  0  0  0  0  0  0  0
  137.2490   75.9460  222.2080 C   0  0  0  0  0  0  0  0  0  0  0  0
  136.6680   74.7090  222.4780 C   0  0  0  0  0  0  0  0  0  0  0  0
  137.1640   73.6500  222.0090 O   0  0  0  0  0  0  0  0  0  0  0  0
  135.5350   74.6770  223.2590 N   0  0  0  0  0  0  0  0  0  0  0  0
  134.8710   73.3910  223.5330 C   0  0  0  0  0  0  0  0  0  0  0  0
  134.7942   73.2423  224.6202 H   0  0  0  0  0  0  0  0  0  0  0  0
  133.8634   73.3972  223.0917 H   0  0  0  0  0  0  0  0  0  0  0  0
  135.4595   72.5731  223.0917 H   0  0  0  0  0  0  0  0  0  0  0  0
  134.9720   75.8550  223.7220 C   0  0  0  0  0  0  0  0  0  0  0  0
  133.8940   75.8180  224.3800 O   0  0  0  0  0  0  0  0  0  0  0  0
  135.5730   77.0690  223.4700 N   0  0  0  0  0  0  0  0  0  0  0  0
  134.9750   78.3250  223.9410 C   0  0  0  0  0  0  0  0  0  0  0  0
  134.9687   78.3383  225.0409 H   0  0  0  0  0  0  0  0  0  0  0  0
  135.5651   79.1748  223.5674 H   0  0  0  0  0  0  0  0  0  0  0  0
  133.9433   78.4026  223.5674 H   0  0  0  0  0  0  0  0  0  0  0  0
  1  2  1  0
  2  3  2  0
  3  4  1  0
  4  5  1  0
  3  6  1  0
  6  7  1  0
  6  8  1  0
  6  9  1  0
  9 10  1  0
 10 11  1  0
 11 12  1  0
 11 13  1  0
 11 14  1  0
 14 15  1  0
 15 16  1  0
 15 17  1  0
 15 18  1  0
 18 19  1  0
 18 20  1  0
 18 21  1  0
 21 22  1  0
 21 23  1  0
 23 24  1  0
 23 25  1  0
 23 26  1  0
 21 27  1  0
 27 28  1  0
 27 29  1  0
 27 30  1  0
 30 31  1  0
 30 32  1  0
 10 33  2  0
 33 34  1  0
 34 35  2  0
 35 36  1  0
 36 37  2  0
 36 38  1  0
 38 39  1  0
 39 40  1  0
 39 41  1  0
 39 42  1  0
 38 43  1  0
 43 44  2  0
 43 45  1  0
 45 46  1  0
 46 47  1  0
 46 48  1  0
 46 49  1  0
 35  9  1  0
 30 14  1  0
 45 34  1  0
M  END
>  <UniqueID>  (8) 
13

>  <SMILES>  (8) 
[H]/N=C(\O)Cn1c(CN2CCC(C)CC2)nc2c1c(=O)n(C)c(=O)n2C

>  <Energy>  (8) 
95.86916526205952

>  <Genealogy>  (8) 
CC1CCN(Cc2nc3c(c(=O)n(C)c(=O)n3C)n2CC(=N)O)CC1 (tautomer)
[H]/N=C(\O)Cn1c(CN2CCC(C)CC2)nc2c1c(=O)n(C)c(=O)n2C (cis-trans isomerization)
[H]/N=C(\O)Cn1c(CN2CCC(C)CC2)nc2c1c(=O)n(C)c(=O)n2C (3D coordinates assigned)
[H]/N=C(\O)Cn1c(CN2CCC(C)CC2)nc2c1c(=O)n(C)c(=O)n2C (nonaromatic ring conformer: 95.86916526205952 kcal/mol)

>  <smiles>  (8) 
CC1CCN(Cc2nc3c(c(=O)n(C)c(=O)n3C)n2CC(N)=O)CC1

>  <score_type>  (8) 
oracle

>  <origin>  (8) 
autodockgpu

>  <m_score__min__energy>  (8) 
-5.3200000000000003

>  <m_primary>  (8) 
energy

>  <meeko>  (8) 
{"free_energy": -5.22, "intermolecular_energy": -7.01, "internal_energy": -2.4, "cluster_size": 14, "cluster_id": 1, "rank_in_cluster": 2}

>  <energy>  (8) 
-5.2

>  <cluster_rmsd>  (8) 
0.87

>  <rmsd>  (8) 
271.47

>  <cluster>  (8) 
1

$$$$
IQOSOXOZFSRASN-DESYHMSQNA-N
     RDKit          3D

 49 51  0  0  0  0  0  0  0  0999 V2000
  142.1620   75.7840  221.7590 H   0  0  0  0  0  0  0  0  0  0  0  0
  141.5560   74.9630  221.5350 N   0  0  0  0  0  0  0  0  0  0  0  0
  140.2640   75.0400  221.5960 C   0  0  0  0  0  0  0  0  0  0  0  0
  139.5350   74.1300  222.3580 O   0  0  0  0  0  0  0  0  0  0  0  0
  138.6450   74.3800  222.7720 H   0  0  0  0  0  0  0  0  0  0  0  0
  139.5480   76.1230  220.8510 C   0  0  0  0  0  0  0  0  0  0  0  0
  140.2348   76.5758  220.1207 H   0  0  0  0  0  0  0  0  0  0  0  0
  138.6804   75.6872  220.3338 H   0  0  0  0  0  0  0  0  0  0  0  0
  139.0790   77.1570  221.7790 N   0  0  0  0  0  0  0  0  0  0  0  0
  137.8190   77.3250  222.2730 C   0  0  0  0  0  0  0  0  0  0  0  0
  136.6710   76.3930  222.0090 C   0  0  0  0  0  0  0  0  0  0  0  0
  135.7257   76.9484  222.0976 H   0  0  0  0  0  0  0  0  0  0  0  0
  136.7735   75.9796  220.9948 H   0  0  0  0  0  0  0  0  0  0  0  0
  136.6750   75.2820  222.9810 N   0  0  0  0  0  0  0  0  0  0  0  0
  135.9370   75.6230  224.2290 C   0  0  0  0  0  0  0  0  0  0  0  0
  136.5213   75.2680  225.0908 H   0  0  0  0  0  0  0  0  0  0  0  0
  135.8045   76.7148  224.2471 H   0  0  0  0  0  0  0  0  0  0  0  0
  134.5420   74.9880  224.2880 C   0  0  0  0  0  0  0  0  0  0  0  0
  134.0506   75.2847  225.2263 H   0  0  0  0  0  0  0  0  0  0  0  0
  133.9600   75.3372  223.4224 H   0  0  0  0  0  0  0  0  0  0  0  0
  134.6350   73.4460  224.2310 C   0  0  0  0  0  0  0  0  0  0  0  0
  134.8185   73.0825  225.2529 H   0  0  0  0  0  0  0  0  0  0  0  0
  133.3120   72.8500  223.7340 C   0  0  0  0  0  0  0  0  0  0  0  0
  132.6893   72.5695  224.5963 H   0  0  0  0  0  0  0  0  0  0  0  0
  132.7800   73.5954  223.1246 H   0  0  0  0  0  0  0  0  0  0  0  0
  133.5178   71.9576  223.1246 H   0  0  0  0  0  0  0  0  0  0  0  0
  135.8290   72.9680  223.3690 C   0  0  0  0  0  0  0  0  0  0  0  0
  136.6885   72.7689  224.0260 H   0  0  0  0  0  0  0  0  0  0  0  0
  135.5284   72.0546  222.8347 H   0  0  0  0  0  0  0  0  0  0  0  0
  136.2260   74.0260  222.3340 C   0  0  0  0  0  0  0  0  0  0  0  0
  137.0453   73.6305  221.7156 H   0  0  0  0  0  0  0  0  0  0  0  0
  135.3430   74.2530  221.7185 H   0  0  0  0  0  0  0  0  0  0  0  0
  137.6930   78.4180  223.0690 N   0  0  0  0  0  0  0  0  0  0  0  0
  138.9300   78.9500  223.0460 C   0  0  0  0  0  0  0  0  0  0  0  0
  139.7610   78.2070  222.2780 C   0  0  0  0  0  0  0  0  0  0  0  0
  141.0930   78.5830  222.1240 C   0  0  0  0  0  0  0  0  0  0  0  0
  141.8800   77.8920  221.4230 O   0  0  0  0  0  0  0  0  0  0  0  0
  141.5280   79.7210  222.7640 N   0  0  0  0  0  0  0  0  0  0  0  0
  142.9400   80.1280  222.6560 C   0  0  0  0  0  0  0  0  0  0  0  0
  143.3644   80.2503  223.6634 H   0  0  0  0  0  0  0  0  0  0  0  0
  143.5036   79.3557  222.1120 H   0  0  0  0  0  0  0  0  0  0  0  0
  143.0061   81.0818  222.1120 H   0  0  0  0  0  0  0  0  0  0  0  0
  140.6640   80.4410  223.5730 C   0  0  0  0  0  0  0  0  0  0  0  0
  141.0920   81.4450  224.2100 O   0  0  0  0  0  0  0  0  0  0  0  0
  139.3420   80.0730  223.6940 N   0  0  0  0  0  0  0  0  0  0  0  0
  138.4220   80.8190  224.5630 C   0  0  0  0  0  0  0  0  0  0  0  0
  138.6689   80.6188  225.6161 H   0  0  0  0  0  0  0  0  0  0  0  0
  138.5198   81.8960  224.3618 H   0  0  0  0  0  0  0  0  0  0  0  0
  137.3884   80.5008  224.3618 H   0  0  0  0  0  0  0  0  0  0  0  0
  1  2  1  0
  2  3  2  0
  3  4  1  0
  4  5  1  0
  3  6  1  0
  6  7  1  0
  6  8  1  0
  6  9  1  0
  9 10  1  0
 10 11  1  0
 11 12  1  0
 11 13  1  0
 11 14  1  0
 14 15  1  0
 15 16  1  0
 15 17  1  0
 15 18  1  0
 18 19  1  0
 18 20  1  0
 18 21  1  0
 21 22  1  0
 21 23  1  0
 23 24  1  0
 23 25  1  0
 23 26  1  0
 21 27  1  0
 27 28  1  0
 27 29  1  0
 27 30  1  0
 30 31  1  0
 30 32  1  0
 10 33  2  0
 33 34  1  0
 34 35  2  0
 35 36  1  0
 36 37  2  0
 36 38  1  0
 38 39  1  0
 39 40  1  0
 39 41  1  0
 39 42  1  0
 38 43  1  0
 43 44  2  0
 43 45  1  0
 45 46  1  0
 46 47  1  0
 46 48  1  0
 46 49  1  0
 35  9  1  0
 30 14  1  0
 45 34  1  0
M  END
>  <UniqueID>  (9) 
13

>  <SMILES>  (9) 
[H]/N=C(\O)Cn1c(CN2CCC(C)CC2)nc2c1c(=O)n(C)c(=O)n2C

>  <Energy>  (9) 
95.86916526205952

>  <Genealogy>  (9) 
CC1CCN(Cc2nc3c(c(=O)n(C)c(=O)n3C)n2CC(=N)O)CC1 (tautomer)
[H]/N=C(\O)Cn1c(CN2CCC(C)CC2)nc2c1c(=O)n(C)c(=O)n2C (cis-trans isomerization)
[H]/N=C(\O)Cn1c(CN2CCC(C)CC2)nc2c1c(=O)n(C)c(=O)n2C (3D coordinates assigned)
[H]/N=C(\O)Cn1c(CN2CCC(C)CC2)nc2c1c(=O)n(C)c(=O)n2C (nonaromatic ring conformer: 95.86916526205952 kcal/mol)

>  <smiles>  (9) 
CC1CCN(Cc2nc3c(c(=O)n(C)c(=O)n3C)n2CC(N)=O)CC1

>  <score_type>  (9) 
oracle

>  <origin>  (9) 
autodockgpu

>  <m_score__min__energy>  (9) 
-5.3200000000000003

>  <m_primary>  (9) 
energy

>  <meeko>  (9) 
{"free_energy": -5.0, "intermolecular_energy": -6.79, "internal_energy": -2.3, "cluster_size": 5, "cluster_id": 3, "rank_in_cluster": 1}

>  <energy>  (9) 
-5.2

>  <cluster_rmsd>  (9) 
0.69

>  <rmsd>  (9) 
271.5

>  <cluster>  (9) 
1

$$$$
IQOSOXOZFSRASN-DESYHMSQNA-N
     RDKit          3D

 49 51  0  0  0  0  0  0  0  0999 V2000
  141.6010   76.4100  221.9660 H   0  0  0  0  0  0  0  0  0  0  0  0
  141.4660   75.3850  221.8130 N   0  0  0  0  0  0  0  0  0  0  0  0
  140.2840   74.8700  221.6940 C   0  0  0  0  0  0  0  0  0  0  0  0
  139.9110   73.7670  222.4590 O   0  0  0  0  0  0  0  0  0  0  0  0
  138.9810   73.6850  222.8520 H   0  0  0  0  0  0  0  0  0  0  0  0
  139.3040   75.4710  220.7350 C   0  0  0  0  0  0  0  0  0  0  0  0
  139.8449   76.0905  220.0045 H   0  0  0  0  0  0  0  0  0  0  0  0
  138.7667   74.6615  220.2192 H   0  0  0  0  0  0  0  0  0  0  0  0
  138.3340   76.3050  221.4520 N   0  0  0  0  0  0  0  0  0  0  0  0
  138.3720   77.6550  221.6370 C   0  0  0  0  0  0  0  0  0  0  0  0
  139.4060   78.5670  221.0420 C   0  0  0  0  0  0  0  0  0  0  0  0
  139.5170   78.3394  219.9716 H   0  0  0  0  0  0  0  0  0  0  0  0
  139.0811   79.6094  221.1754 H   0  0  0  0  0  0  0  0  0  0  0  0
  140.7060   78.3810  221.7160 N   0  0  0  0  0  0  0  0  0  0  0  0
  141.7980   79.1500  221.0570 C   0  0  0  0  0  0  0  0  0  0  0  0
  142.6894   78.5088  220.9922 H   0  0  0  0  0  0  0  0  0  0  0  0
  141.4372   79.4501  220.0622 H   0  0  0  0  0  0  0  0  0  0  0  0
  142.1690   80.4290  221.8180 C   0  0  0  0  0  0  0  0  0  0  0  0
  142.9714   80.9507  221.2758 H   0  0  0  0  0  0  0  0  0  0  0  0
  141.2757   81.0669  221.8895 H   0  0  0  0  0  0  0  0  0  0  0  0
  142.6560   80.0990  223.2480 C   0  0  0  0  0  0  0  0  0  0  0  0
  143.7261   79.8511  223.1900 H   0  0  0  0  0  0  0  0  0  0  0  0
  142.4890   81.3190  224.1630 C   0  0  0  0  0  0  0  0  0  0  0  0
  142.5330   80.9977  225.2141 H   0  0  0  0  0  0  0  0  0  0  0  0
  143.2970   82.0388  223.9655 H   0  0  0  0  0  0  0  0  0  0  0  0
  141.5173   81.7952  223.9655 H   0  0  0  0  0  0  0  0  0  0  0  0
  141.9420   78.8540  223.8310 C   0  0  0  0  0  0  0  0  0  0  0  0
  142.5690   77.9670  223.6574 H   0  0  0  0  0  0  0  0  0  0  0  0
  141.7862   79.0150  224.9079 H   0  0  0  0  0  0  0  0  0  0  0  0
  140.5760   78.6370  223.1710 C   0  0  0  0  0  0  0  0  0  0  0  0
  140.0850   77.7731  223.6428 H   0  0  0  0  0  0  0  0  0  0  0  0
  139.9796   79.5512  223.3071 H   0  0  0  0  0  0  0  0  0  0  0  0
  137.3500   78.1230  222.4000 N   0  0  0  0  0  0  0  0  0  0  0  0
  136.6680   77.0040  222.7080 C   0  0  0  0  0  0  0  0  0  0  0  0
  137.2490   75.9160  222.1500 C   0  0  0  0  0  0  0  0  0  0  0  0
  136.6960   74.6520  222.3430 C   0  0  0  0  0  0  0  0  0  0  0  0
  137.2190   73.6340  221.8170 O   0  0  0  0  0  0  0  0  0  0  0  0
  135.5600   74.5480  223.1140 N   0  0  0  0  0  0  0  0  0  0  0  0
  134.9250   73.2330  223.3070 C   0  0  0  0  0  0  0  0  0  0  0  0
  134.8260   73.0280  224.3832 H   0  0  0  0  0  0  0  0  0  0  0  0
  133.9286   73.2350  222.8410 H   0  0  0  0  0  0  0  0  0  0  0  0
  135.5462   72.4539  222.8410 H   0  0  0  0  0  0  0  0  0  0  0  0
  134.9670   75.6830  223.6420 C   0  0  0  0  0  0  0  0  0  0  0  0
  133.8870   75.5830  224.2890 O   0  0  0  0  0  0  0  0  0  0  0  0
  135.5410   76.9230  223.4660 N   0  0  0  0  0  0  0  0  0  0  0  0
  134.9110   78.1350  224.0060 C   0  0  0  0  0  0  0  0  0  0  0  0
  134.9296   78.0993  225.1053 H   0  0  0  0  0  0  0  0  0  0  0  0
  135.4627   79.0209  223.6586 H   0  0  0  0  0  0  0  0  0  0  0  0
  133.8689   78.1925  223.6586 H   0  0  0  0  0  0  0  0  0  0  0  0
  1  2  1  0
  2  3  2  0
  3  4  1  0
  4  5  1  0
  3  6  1  0
  6  7  1  0
  6  8  1  0
  6  9  1  0
  9 10  1  0
 10 11  1  0
 11 12  1  0
 11 13  1  0
 11 14  1  0
 14 15  1  0
 15 16  1  0
 15 17  1  0
 15 18  1  0
 18 19  1  0
 18 20  1  0
 18 21  1  0
 21 22  1  0
 21 23  1  0
 23 24  1  0
 23 25  1  0
 23 26  1  0
 21 27  1  0
 27 28  1  0
 27 29  1  0
 27 30  1  0
 30 31  1  0
 30 32  1  0
 10 33  2  0
 33 34  1  0
 34 35  2  0
 35 36  1  0
 36 37  2  0
 36 38  1  0
 38 39  1  0
 39 40  1  0
 39 41  1  0
 39 42  1  0
 38 43  1  0
 43 44  2  0
 43 45  1  0
 45 46  1  0
 46 47  1  0
 46 48  1  0
 46 49  1  0
 35  9  1  0
 30 14  1  0
 45 34  1  0
M  END
>  <UniqueID>  (10) 
13

>  <SMILES>  (10) 
[H]/N=C(\O)Cn1c(CN2CCC(C)CC2)nc2c1c(=O)n(C)c(=O)n2C

>  <Energy>  (10) 
95.86916526205952

>  <Genealogy>  (10) 
CC1CCN(Cc2nc3c(c(=O)n(C)c(=O)n3C)n2CC(=N)O)CC1 (tautomer)
[H]/N=C(\O)Cn1c(CN2CCC(C)CC2)nc2c1c(=O)n(C)c(=O)n2C (cis-trans isomerization)
[H]/N=C(\O)Cn1c(CN2CCC(C)CC2)nc2c1c(=O)n(C)c(=O)n2C (3D coordinates assigned)
[H]/N=C(\O)Cn1c(CN2CCC(C)CC2)nc2c1c(=O)n(C)c(=O)n2C (nonaromatic ring conformer: 95.86916526205952 kcal/mol)

>  <smiles>  (10) 
CC1CCN(Cc2nc3c(c(=O)n(C)c(=O)n3C)n2CC(N)=O)CC1

>  <score_type>  (10) 
oracle

>  <origin>  (10) 
autodockgpu

>  <m_score__min__energy>  (10) 
-5.3200000000000003

>  <m_primary>  (10) 
energy

>  <meeko>  (10) 
{"free_energy": -5.2, "intermolecular_energy": -6.99, "internal_energy": -2.4, "cluster_size": 14, "cluster_id": 1, "rank_in_cluster": 10}

>  <energy>  (10) 
-5.2

>  <cluster_rmsd>  (10) 
0.74

>  <rmsd>  (10) 
271.45

>  <cluster>  (10) 
1

$$$$
IQOSOXOZFSRASN-DESYHMSQNA-N
     RDKit          3D

 49 51  0  0  0  0  0  0  0  0999 V2000
  141.5760   76.3960  221.9670 H   0  0  0  0  0  0  0  0  0  0  0  0
  141.4490   75.3600  221.9280 N   0  0  0  0  0  0  0  0  0  0  0  0
  140.2730   74.8270  221.8220 C   0  0  0  0  0  0  0  0  0  0  0  0
  139.9060   73.7530  222.6290 O   0  0  0  0  0  0  0  0  0  0  0  0
  138.9830   73.6930  223.0430 H   0  0  0  0  0  0  0  0  0  0  0  0
  139.2950   75.3760  220.8300 C   0  0  0  0  0  0  0  0  0  0  0  0
  139.8406   75.9240  220.0477 H   0  0  0  0  0  0  0  0  0  0  0  0
  138.7322   74.5428  220.3838 H   0  0  0  0  0  0  0  0  0  0  0  0
  138.3550   76.2860  221.4920 N   0  0  0  0  0  0  0  0  0  0  0  0
  138.4300   77.6440  221.5770 C   0  0  0  0  0  0  0  0  0  0  0  0
  139.4820   78.4820  220.9100 C   0  0  0  0  0  0  0  0  0  0  0  0
  139.6220   78.1326  219.8764 H   0  0  0  0  0  0  0  0  0  0  0  0
  139.1560   79.5326  220.9134 H   0  0  0  0  0  0  0  0  0  0  0  0
  140.7630   78.3760  221.6370 N   0  0  0  0  0  0  0  0  0  0  0  0
  141.8350   79.1990  221.0120 C   0  0  0  0  0  0  0  0  0  0  0  0
  142.7628   78.6085  220.9892 H   0  0  0  0  0  0  0  0  0  0  0  0
  141.4971   79.4689  220.0006 H   0  0  0  0  0  0  0  0  0  0  0  0
  142.1040   80.5050  221.7720 C   0  0  0  0  0  0  0  0  0  0  0  0
  142.8977   81.0652  221.2560 H   0  0  0  0  0  0  0  0  0  0  0  0
  141.1750   81.0933  221.8002 H   0  0  0  0  0  0  0  0  0  0  0  0
  142.5500   80.2160  223.2230 C   0  0  0  0  0  0  0  0  0  0  0  0
  143.6337   80.0277  223.2089 H   0  0  0  0  0  0  0  0  0  0  0  0
  142.2790   81.4330  224.1170 C   0  0  0  0  0  0  0  0  0  0  0  0
  142.3456   81.1340  225.1735 H   0  0  0  0  0  0  0  0  0  0  0  0
  143.0252   82.2140  223.9093 H   0  0  0  0  0  0  0  0  0  0  0  0
  141.2719   81.8236  223.9093 H   0  0  0  0  0  0  0  0  0  0  0  0
  141.8850   78.9380  223.7930 C   0  0  0  0  0  0  0  0  0  0  0  0
  142.5674   78.0864  223.6550 H   0  0  0  0  0  0  0  0  0  0  0  0
  141.6779   79.0999  224.8611 H   0  0  0  0  0  0  0  0  0  0  0  0
  140.5610   78.6380  223.0820 C   0  0  0  0  0  0  0  0  0  0  0  0
  140.1007   77.7523  223.5442 H   0  0  0  0  0  0  0  0  0  0  0  0
  139.9095   79.5185  223.1836 H   0  0  0  0  0  0  0  0  0  0  0  0
  137.4280   78.1940  222.3120 N   0  0  0  0  0  0  0  0  0  0  0  0
  136.7200   77.1190  222.7060 C   0  0  0  0  0  0  0  0  0  0  0  0
  137.2660   75.9780  222.2240 C   0  0  0  0  0  0  0  0  0  0  0  0
  136.6810   74.7480  222.5130 C   0  0  0  0  0  0  0  0  0  0  0  0
  137.1730   73.6800  222.0580 O   0  0  0  0  0  0  0  0  0  0  0  0
  135.5500   74.7300  223.2970 N   0  0  0  0  0  0  0  0  0  0  0  0
  134.8820   73.4500  223.5910 C   0  0  0  0  0  0  0  0  0  0  0  0
  134.8115   73.3149  224.6804 H   0  0  0  0  0  0  0  0  0  0  0  0
  133.8717   73.4553  223.1560 H   0  0  0  0  0  0  0  0  0  0  0  0
  135.4641   72.6242  223.1560 H   0  0  0  0  0  0  0  0  0  0  0  0
  134.9930   75.9160  223.7460 C   0  0  0  0  0  0  0  0  0  0  0  0
  133.9160   75.8930  224.4060 O   0  0  0  0  0  0  0  0  0  0  0  0
  135.5970   77.1240  223.4750 N   0  0  0  0  0  0  0  0  0  0  0  0
  135.0050   78.3890  223.9300 C   0  0  0  0  0  0  0  0  0  0  0  0
  134.9934   78.4138  225.0297 H   0  0  0  0  0  0  0  0  0  0  0  0
  135.6026   79.2309  223.5505 H   0  0  0  0  0  0  0  0  0  0  0  0
  133.9757   78.4696  223.5505 H   0  0  0  0  0  0  0  0  0  0  0  0
  1  2  1  0
  2  3  2  0
  3  4  1  0
  4  5  1  0
  3  6  1  0
  6  7  1  0
  6  8  1  0
  6  9  1  0
  9 10  1  0
 10 11  1  0
 11 12  1  0
 11 13  1  0
 11 14  1  0
 14 15  1  0
 15 16  1  0
 15 17  1  0
 15 18  1  0
 18 19  1  0
 18 20  1  0
 18 21  1  0
 21 22  1  0
 21 23  1  0
 23 24  1  0
 23 25  1  0
 23 26  1  0
 21 27  1  0
 27 28  1  0
 27 29  1  0
 27 30  1  0
 30 31  1  0
 30 32  1  0
 10 33  2  0
 33 34  1  0
 34 35  2  0
 35 36  1  0
 36 37  2  0
 36 38  1  0
 38 39  1  0
 39 40  1  0
 39 41  1  0
 39 42  1  0
 38 43  1  0
 43 44  2  0
 43 45  1  0
 45 46  1  0
 46 47  1  0
 46 48  1  0
 46 49  1  0
 35  9  1  0
 30 14  1  0
 45 34  1  0
M  END
>  <UniqueID>  (11) 
13

>  <SMILES>  (11) 
[H]/N=C(\O)Cn1c(CN2CCC(C)CC2)nc2c1c(=O)n(C)c(=O)n2C

>  <Energy>  (11) 
95.86916526205952

>  <Genealogy>  (11) 
CC1CCN(Cc2nc3c(c(=O)n(C)c(=O)n3C)n2CC(=N)O)CC1 (tautomer)
[H]/N=C(\O)Cn1c(CN2CCC(C)CC2)nc2c1c(=O)n(C)c(=O)n2C (cis-trans isomerization)
[H]/N=C(\O)Cn1c(CN2CCC(C)CC2)nc2c1c(=O)n(C)c(=O)n2C (3D coordinates assigned)
[H]/N=C(\O)Cn1c(CN2CCC(C)CC2)nc2c1c(=O)n(C)c(=O)n2C (nonaromatic ring conformer: 95.86916526205952 kcal/mol)

>  <smiles>  (11) 
CC1CCN(Cc2nc3c(c(=O)n(C)c(=O)n3C)n2CC(N)=O)CC1

>  <score_type>  (11) 
oracle

>  <origin>  (11) 
autodockgpu

>  <m_score__min__energy>  (11) 
-5.3200000000000003

>  <m_primary>  (11) 
energy

>  <meeko>  (11) 
{"free_energy": -5.22, "intermolecular_energy": -7.01, "internal_energy": -2.41, "cluster_size": 14, "cluster_id": 1, "rank_in_cluster": 3}

>  <energy>  (11) 
-5.18

>  <cluster_rmsd>  (11) 
0.6

>  <rmsd>  (11) 
271.5

>  <cluster>  (11) 
1

$$$$
IQOSOXOZFSRASN-DESYHMSQNA-N
     RDKit          3D

 49 51  0  0  0  0  0  0  0  0999 V2000
  141.5840   76.4930  221.9560 H   0  0  0  0  0  0  0  0  0  0  0  0
  141.4490   75.4570  221.9380 N   0  0  0  0  0  0  0  0  0  0  0  0
  140.2820   74.9320  221.7450 C   0  0  0  0  0  0  0  0  0  0  0  0
  139.8930   73.7910  222.4440 O   0  0  0  0  0  0  0  0  0  0  0  0
  138.9550   73.6890  222.8120 H   0  0  0  0  0  0  0  0  0  0  0  0
  139.3350   75.5600  220.7690 C   0  0  0  0  0  0  0  0  0  0  0  0
  139.9027   76.1836  220.0627 H   0  0  0  0  0  0  0  0  0  0  0  0
  138.8019   74.7654  220.2264 H   0  0  0  0  0  0  0  0  0  0  0  0
  138.3570   76.3950  221.4730 N   0  0  0  0  0  0  0  0  0  0  0  0
  138.3820   77.7480  221.6390 C   0  0  0  0  0  0  0  0  0  0  0  0
  139.4080   78.6610  221.0320 C   0  0  0  0  0  0  0  0  0  0  0  0
  139.5056   78.4347  219.9600 H   0  0  0  0  0  0  0  0  0  0  0  0
  139.0847   79.7033  221.1703 H   0  0  0  0  0  0  0  0  0  0  0  0
  140.7170   78.4740  221.6900 N   0  0  0  0  0  0  0  0  0  0  0  0
  141.7910   79.2810  221.0460 C   0  0  0  0  0  0  0  0  0  0  0  0
  142.6921   78.6568  220.9542 H   0  0  0  0  0  0  0  0  0  0  0  0
  141.4167   79.6056  220.0639 H   0  0  0  0  0  0  0  0  0  0  0  0
  142.1480   80.5420  221.8430 C   0  0  0  0  0  0  0  0  0  0  0  0
  142.9374   81.0930  221.3108 H   0  0  0  0  0  0  0  0  0  0  0  0
  141.2454   81.1630  221.9411 H   0  0  0  0  0  0  0  0  0  0  0  0
  142.6520   80.1760  223.2580 C   0  0  0  0  0  0  0  0  0  0  0  0
  143.7254   79.9474  223.1834 H   0  0  0  0  0  0  0  0  0  0  0  0
  142.4740   81.3640  224.2120 C   0  0  0  0  0  0  0  0  0  0  0  0
  142.5270   81.0101  225.2522 H   0  0  0  0  0  0  0  0  0  0  0  0
  143.2719   82.1000  224.0340 H   0  0  0  0  0  0  0  0  0  0  0  0
  141.4954   81.8338  224.0340 H   0  0  0  0  0  0  0  0  0  0  0  0
  141.9630   78.9020  223.8080 C   0  0  0  0  0  0  0  0  0  0  0  0
  142.6027   78.0312  223.6019 H   0  0  0  0  0  0  0  0  0  0  0  0
  141.8139   79.0273  224.8906 H   0  0  0  0  0  0  0  0  0  0  0  0
  140.5950   78.6830  223.1530 C   0  0  0  0  0  0  0  0  0  0  0  0
  140.1221   77.7971  223.6019 H   0  0  0  0  0  0  0  0  0  0  0  0
  139.9848   79.5825  223.3222 H   0  0  0  0  0  0  0  0  0  0  0  0
  137.3560   78.2170  222.3940 N   0  0  0  0  0  0  0  0  0  0  0  0
  136.6830   77.0970  222.7180 C   0  0  0  0  0  0  0  0  0  0  0  0
  137.2740   76.0060  222.1760 C   0  0  0  0  0  0  0  0  0  0  0  0
  136.7330   74.7400  222.3870 C   0  0  0  0  0  0  0  0  0  0  0  0
  137.2660   73.7190  221.8750 O   0  0  0  0  0  0  0  0  0  0  0  0
  135.5970   74.6370  223.1570 N   0  0  0  0  0  0  0  0  0  0  0  0
  134.9740   73.3180  223.3690 C   0  0  0  0  0  0  0  0  0  0  0  0
  134.8827   73.1248  224.4480 H   0  0  0  0  0  0  0  0  0  0  0  0
  133.9751   73.3060  222.9086 H   0  0  0  0  0  0  0  0  0  0  0  0
  135.5993   72.5389  222.9086 H   0  0  0  0  0  0  0  0  0  0  0  0
  134.9940   75.7740  223.6690 C   0  0  0  0  0  0  0  0  0  0  0  0
  133.9140   75.6730  224.3160 O   0  0  0  0  0  0  0  0  0  0  0  0
  135.5560   77.0160  223.4750 N   0  0  0  0  0  0  0  0  0  0  0  0
  134.9140   78.2300  223.9970 C   0  0  0  0  0  0  0  0  0  0  0  0
  134.9260   78.2073  225.0967 H   0  0  0  0  0  0  0  0  0  0  0  0
  135.4616   79.1157  223.6426 H   0  0  0  0  0  0  0  0  0  0  0  0
  133.8737   78.2760  223.6426 H   0  0  0  0  0  0  0  0  0  0  0  0
  1  2  1  0
  2  3  2  0
  3  4  1  0
  4  5  1  0
  3  6  1  0
  6  7  1  0
  6  8  1  0
  6  9  1  0
  9 10  1  0
 10 11  1  0
 11 12  1  0
 11 13  1  0
 11 14  1  0
 14 15  1  0
 15 16  1  0
 15 17  1  0
 15 18  1  0
 18 19  1  0
 18 20  1  0
 18 21  1  0
 21 22  1  0
 21 23  1  0
 23 24  1  0
 23 25  1  0
 23 26  1  0
 21 27  1  0
 27 28  1  0
 27 29  1  0
 27 30  1  0
 30 31  1  0
 30 32  1  0
 10 33  2  0
 33 34  1  0
 34 35  2  0
 35 36  1  0
 36 37  2  0
 36 38  1  0
 38 39  1  0
 39 40  1  0
 39 41  1  0
 39 42  1  0
 38 43  1  0
 43 44  2  0
 43 45  1  0
 45 46  1  0
 46 47  1  0
 46 48  1  0
 46 49  1  0
 35  9  1  0
 30 14  1  0
 45 34  1  0
M  END
>  <UniqueID>  (12) 
13

>  <SMILES>  (12) 
[H]/N=C(\O)Cn1c(CN2CCC(C)CC2)nc2c1c(=O)n(C)c(=O)n2C

>  <Energy>  (12) 
95.86916526205952

>  <Genealogy>  (12) 
CC1CCN(Cc2nc3c(c(=O)n(C)c(=O)n3C)n2CC(=N)O)CC1 (tautomer)
[H]/N=C(\O)Cn1c(CN2CCC(C)CC2)nc2c1c(=O)n(C)c(=O)n2C (cis-trans isomerization)
[H]/N=C(\O)Cn1c(CN2CCC(C)CC2)nc2c1c(=O)n(C)c(=O)n2C (3D coordinates assigned)
[H]/N=C(\O)Cn1c(CN2CCC(C)CC2)nc2c1c(=O)n(C)c(=O)n2C (nonaromatic ring conformer: 95.86916526205952 kcal/mol)

>  <smiles>  (12) 
CC1CCN(Cc2nc3c(c(=O)n(C)c(=O)n3C)n2CC(N)=O)CC1

>  <score_type>  (12) 
oracle

>  <origin>  (12) 
autodockgpu

>  <m_score__min__energy>  (12) 
-5.3200000000000003

>  <m_primary>  (12) 
energy

>  <meeko>  (12) 
{"free_energy": -5.2, "intermolecular_energy": -6.99, "internal_energy": -2.4, "cluster_size": 14, "cluster_id": 1, "rank_in_cluster": 7}

>  <energy>  (12) 
-5.16

>  <cluster_rmsd>  (12) 
0.27

>  <rmsd>  (12) 
271.57

>  <cluster>  (12) 
1

$$$$
IQOSOXOZFSRASN-DESYHMSQNA-N
     RDKit          3D

 49 51  0  0  0  0  0  0  0  0999 V2000
  137.7300   73.7600  222.8430 H   0  0  0  0  0  0  0  0  0  0  0  0
  136.9870   74.3230  222.3720 N   0  0  0  0  0  0  0  0  0  0  0  0
  137.1930   75.5510  222.0180 C   0  0  0  0  0  0  0  0  0  0  0  0
  136.5110   76.1000  220.9330 O   0  0  0  0  0  0  0  0  0  0  0  0
  136.9750   76.7100  220.2710 H   0  0  0  0  0  0  0  0  0  0  0  0
  138.1640   76.3930  222.7840 C   0  0  0  0  0  0  0  0  0  0  0  0
  137.6523   77.2961  223.1481 H   0  0  0  0  0  0  0  0  0  0  0  0
  138.5504   75.8096  223.6327 H   0  0  0  0  0  0  0  0  0  0  0  0
  139.2860   76.7860  221.9270 N   0  0  0  0  0  0  0  0  0  0  0  0
  139.5330   78.0140  221.3870 C   0  0  0  0  0  0  0  0  0  0  0  0
  138.7140   79.2430  221.6590 C   0  0  0  0  0  0  0  0  0  0  0  0
  138.5514   79.7861  220.7163 H   0  0  0  0  0  0  0  0  0  0  0  0
  137.7493   78.9401  222.0922 H   0  0  0  0  0  0  0  0  0  0  0  0
  139.4120   80.1260  222.6150 N   0  0  0  0  0  0  0  0  0  0  0  0
  139.9010   79.3850  223.8110 C   0  0  0  0  0  0  0  0  0  0  0  0
  139.6842   79.9836  224.7080 H   0  0  0  0  0  0  0  0  0  0  0  0
  139.3841   78.4143  223.8329 H   0  0  0  0  0  0  0  0  0  0  0  0
  141.4090   79.1040  223.7620 C   0  0  0  0  0  0  0  0  0  0  0  0
  141.7020   78.5509  224.6666 H   0  0  0  0  0  0  0  0  0  0  0  0
  141.6271   78.5107  222.8617 H   0  0  0  0  0  0  0  0  0  0  0  0
  142.2130   80.4220  223.6920 C   0  0  0  0  0  0  0  0  0  0  0  0
  142.3380   80.7930  224.7200 H   0  0  0  0  0  0  0  0  0  0  0  0
  143.6030   80.1680  223.0940 C   0  0  0  0  0  0  0  0  0  0  0  0
  144.3328   80.0346  223.9062 H   0  0  0  0  0  0  0  0  0  0  0  0
  143.5749   79.2601  222.4735 H   0  0  0  0  0  0  0  0  0  0  0  0
  143.8978   81.0271  222.4735 H   0  0  0  0  0  0  0  0  0  0  0  0
  141.4560   81.5250  222.9120 C   0  0  0  0  0  0  0  0  0  0  0  0
  140.9119   82.1604  223.6263 H   0  0  0  0  0  0  0  0  0  0  0  0
  142.1901   82.1177  222.3464 H   0  0  0  0  0  0  0  0  0  0  0  0
  140.4560   80.9170  221.9210 C   0  0  0  0  0  0  0  0  0  0  0  0
  139.9730   81.7291  221.3578 H   0  0  0  0  0  0  0  0  0  0  0  0
  141.0059   80.2441  221.2467 H   0  0  0  0  0  0  0  0  0  0  0  0
  140.6290   78.0400  220.5850 N   0  0  0  0  0  0  0  0  0  0  0  0
  141.0600   76.7650  220.6250 C   0  0  0  0  0  0  0  0  0  0  0  0
  140.2650   76.0100  221.4190 C   0  0  0  0  0  0  0  0  0  0  0  0
  140.5400   74.6580  221.6000 C   0  0  0  0  0  0  0  0  0  0  0  0
  139.8160   73.9490  222.3490 O   0  0  0  0  0  0  0  0  0  0  0  0
  141.6280   74.1200  220.9500 N   0  0  0  0  0  0  0  0  0  0  0  0
  141.9730   72.7020  221.1500 C   0  0  0  0  0  0  0  0  0  0  0  0
  142.0256   72.4859  222.2273 H   0  0  0  0  0  0  0  0  0  0  0  0
  141.2028   72.0683  220.6860 H   0  0  0  0  0  0  0  0  0  0  0  0
  142.9482   72.4929  220.6860 H   0  0  0  0  0  0  0  0  0  0  0  0
  142.4450   74.9250  220.1730 C   0  0  0  0  0  0  0  0  0  0  0  0
  143.4800   74.4360  219.6370 O   0  0  0  0  0  0  0  0  0  0  0  0
  142.1450   76.2550  219.9800 N   0  0  0  0  0  0  0  0  0  0  0  0
  143.0150   77.1210  219.1730 C   0  0  0  0  0  0  0  0  0  0  0  0
  143.6359   77.7391  219.8382 H   0  0  0  0  0  0  0  0  0  0  0  0
  143.6639   76.4997  218.5383 H   0  0  0  0  0  0  0  0  0  0  0  0
  142.3966   77.7727  218.5383 H   0  0  0  0  0  0  0  0  0  0  0  0
  1  2  1  0
  2  3  2  0
  3  4  1  0
  4  5  1  0
  3  6  1  0
  6  7  1  0
  6  8  1  0
  6  9  1  0
  9 10  1  0
 10 11  1  0
 11 12  1  0
 11 13  1  0
 11 14  1  0
 14 15  1  0
 15 16  1  0
 15 17  1  0
 15 18  1  0
 18 19  1  0
 18 20  1  0
 18 21  1  0
 21 22  1  0
 21 23  1  0
 23 24  1  0
 23 25  1  0
 23 26  1  0
 21 27  1  0
 27 28  1  0
 27 29  1  0
 27 30  1  0
 30 31  1  0
 30 32  1  0
 10 33  2  0
 33 34  1  0
 34 35  2  0
 35 36  1  0
 36 37  2  0
 36 38  1  0
 38 39  1  0
 39 40  1  0
 39 41  1  0
 39 42  1  0
 38 43  1  0
 43 44  2  0
 43 45  1  0
 45 46  1  0
 46 47  1  0
 46 48  1  0
 46 49  1  0
 35  9  1  0
 30 14  1  0
 45 34  1  0
M  END
>  <UniqueID>  (13) 
13

>  <SMILES>  (13) 
[H]/N=C(\O)Cn1c(CN2CCC(C)CC2)nc2c1c(=O)n(C)c(=O)n2C

>  <Energy>  (13) 
95.86916526205952

>  <Genealogy>  (13) 
CC1CCN(Cc2nc3c(c(=O)n(C)c(=O)n3C)n2CC(=N)O)CC1 (tautomer)
[H]/N=C(\O)Cn1c(CN2CCC(C)CC2)nc2c1c(=O)n(C)c(=O)n2C (cis-trans isomerization)
[H]/N=C(\O)Cn1c(CN2CCC(C)CC2)nc2c1c(=O)n(C)c(=O)n2C (3D coordinates assigned)
[H]/N=C(\O)Cn1c(CN2CCC(C)CC2)nc2c1c(=O)n(C)c(=O)n2C (nonaromatic ring conformer: 95.86916526205952 kcal/mol)

>  <smiles>  (13) 
CC1CCN(Cc2nc3c(c(=O)n(C)c(=O)n3C)n2CC(N)=O)CC1

>  <score_type>  (13) 
oracle

>  <origin>  (13) 
autodockgpu

>  <m_score__min__energy>  (13) 
-5.3200000000000003

>  <m_primary>  (13) 
energy

>  <meeko>  (13) 
{"free_energy": -5.25, "intermolecular_energy": -7.04, "internal_energy": -1.95, "cluster_size": 1, "cluster_id": 2, "rank_in_cluster": 1}

>  <energy>  (13) 
-5.16

>  <cluster_rmsd>  (13) 
0.53

>  <rmsd>  (13) 
271.53

>  <cluster>  (13) 
1

$$$$
IQOSOXOZFSRASN-DESYHMSQNA-N
     RDKit          3D

 49 51  0  0  0  0  0  0  0  0999 V2000
  141.6010   76.6680  221.6540 H   0  0  0  0  0  0  0  0  0  0  0  0
  141.4220   75.6790  221.9410 N   0  0  0  0  0  0  0  0  0  0  0  0
  140.2920   75.0980  221.6920 C   0  0  0  0  0  0  0  0  0  0  0  0
  139.9430   73.9180  222.3450 O   0  0  0  0  0  0  0  0  0  0  0  0
  139.0200   73.7870  222.7440 H   0  0  0  0  0  0  0  0  0  0  0  0
  139.3470   75.7040  220.7020 C   0  0  0  0  0  0  0  0  0  0  0  0
  139.9228   76.2323  219.9278 H   0  0  0  0  0  0  0  0  0  0  0  0
  138.7462   74.9033  220.2460 H   0  0  0  0  0  0  0  0  0  0  0  0
  138.4490   76.6520  221.3670 N   0  0  0  0  0  0  0  0  0  0  0  0
  138.5400   78.0130  221.3880 C   0  0  0  0  0  0  0  0  0  0  0  0
  139.5650   78.8080  220.6310 C   0  0  0  0  0  0  0  0  0  0  0  0
  139.6394   78.4194  219.6046 H   0  0  0  0  0  0  0  0  0  0  0  0
  139.2564   79.8637  220.6142 H   0  0  0  0  0  0  0  0  0  0  0  0
  140.8840   78.7050  221.2870 N   0  0  0  0  0  0  0  0  0  0  0  0
  141.8470   79.7210  220.7770 C   0  0  0  0  0  0  0  0  0  0  0  0
  142.8216   79.2348  220.6227 H   0  0  0  0  0  0  0  0  0  0  0  0
  141.4374   80.1228  219.8385 H   0  0  0  0  0  0  0  0  0  0  0  0
  142.0350   80.9000  221.7400 C   0  0  0  0  0  0  0  0  0  0  0  0
  142.7491   81.6128  221.3017 H   0  0  0  0  0  0  0  0  0  0  0  0
  141.0595   81.3827  221.8995 H   0  0  0  0  0  0  0  0  0  0  0  0
  142.5760   80.4160  223.1050 C   0  0  0  0  0  0  0  0  0  0  0  0
  143.6702   80.3370  223.0238 H   0  0  0  0  0  0  0  0  0  0  0  0
  142.2410   81.4350  224.2020 C   0  0  0  0  0  0  0  0  0  0  0  0
  142.3925   80.9741  225.1892 H   0  0  0  0  0  0  0  0  0  0  0  0
  142.8984   82.3112  224.1016 H   0  0  0  0  0  0  0  0  0  0  0  0
  141.1919   81.7502  224.1016 H   0  0  0  0  0  0  0  0  0  0  0  0
  142.0550   79.0040  223.4690 C   0  0  0  0  0  0  0  0  0  0  0  0
  142.8028   78.2566  223.1654 H   0  0  0  0  0  0  0  0  0  0  0  0
  141.8856   78.9652  224.5552 H   0  0  0  0  0  0  0  0  0  0  0  0
  140.7300   78.7010  222.7610 C   0  0  0  0  0  0  0  0  0  0  0  0
  140.3737   77.7103  223.0797 H   0  0  0  0  0  0  0  0  0  0  0  0
  140.0081   79.4852  223.0330 H   0  0  0  0  0  0  0  0  0  0  0  0
  137.5820   78.6060  222.1460 N   0  0  0  0  0  0  0  0  0  0  0  0
  136.8850   77.5580  222.6230 C   0  0  0  0  0  0  0  0  0  0  0  0
  137.3960   76.3900  222.1670 C   0  0  0  0  0  0  0  0  0  0  0  0
  136.8160   75.1800  222.5400 C   0  0  0  0  0  0  0  0  0  0  0  0
  137.2740   74.0880  222.1100 O   0  0  0  0  0  0  0  0  0  0  0  0
  135.7260   75.2110  223.3800 N   0  0  0  0  0  0  0  0  0  0  0  0
  135.0620   73.9520  223.7640 C   0  0  0  0  0  0  0  0  0  0  0  0
  135.0229   73.8778  224.8608 H   0  0  0  0  0  0  0  0  0  0  0  0
  134.0394   73.9384  223.3589 H   0  0  0  0  0  0  0  0  0  0  0  0
  135.6283   73.1004  223.3589 H   0  0  0  0  0  0  0  0  0  0  0  0
  135.2020   76.4220  223.8010 C   0  0  0  0  0  0  0  0  0  0  0  0
  134.1600   76.4400  224.5150 O   0  0  0  0  0  0  0  0  0  0  0  0
  135.8030   77.6100  223.4470 N   0  0  0  0  0  0  0  0  0  0  0  0
  135.2450   78.9000  223.8730 C   0  0  0  0  0  0  0  0  0  0  0  0
  135.2251   78.9460  224.9719 H   0  0  0  0  0  0  0  0  0  0  0  0
  135.8703   79.7167  223.4831 H   0  0  0  0  0  0  0  0  0  0  0  0
  134.2216   79.0035  223.4831 H   0  0  0  0  0  0  0  0  0  0  0  0
  1  2  1  0
  2  3  2  0
  3  4  1  0
  4  5  1  0
  3  6  1  0
  6  7  1  0
  6  8  1  0
  6  9  1  0
  9 10  1  0
 10 11  1  0
 11 12  1  0
 11 13  1  0
 11 14  1  0
 14 15  1  0
 15 16  1  0
 15 17  1  0
 15 18  1  0
 18 19  1  0
 18 20  1  0
 18 21  1  0
 21 22  1  0
 21 23  1  0
 23 24  1  0
 23 25  1  0
 23 26  1  0
 21 27  1  0
 27 28  1  0
 27 29  1  0
 27 30  1  0
 30 31  1  0
 30 32  1  0
 10 33  2  0
 33 34  1  0
 34 35  2  0
 35 36  1  0
 36 37  2  0
 36 38  1  0
 38 39  1  0
 39 40  1  0
 39 41  1  0
 39 42  1  0
 38 43  1  0
 43 44  2  0
 43 45  1  0
 45 46  1  0
 46 47  1  0
 46 48  1  0
 46 49  1  0
 35  9  1  0
 30 14  1  0
 45 34  1  0
M  END
>  <UniqueID>  (14) 
13

>  <SMILES>  (14) 
[H]/N=C(\O)Cn1c(CN2CCC(C)CC2)nc2c1c(=O)n(C)c(=O)n2C

>  <Energy>  (14) 
95.86916526205952

>  <Genealogy>  (14) 
CC1CCN(Cc2nc3c(c(=O)n(C)c(=O)n3C)n2CC(=N)O)CC1 (tautomer)
[H]/N=C(\O)Cn1c(CN2CCC(C)CC2)nc2c1c(=O)n(C)c(=O)n2C (cis-trans isomerization)
[H]/N=C(\O)Cn1c(CN2CCC(C)CC2)nc2c1c(=O)n(C)c(=O)n2C (3D coordinates assigned)
[H]/N=C(\O)Cn1c(CN2CCC(C)CC2)nc2c1c(=O)n(C)c(=O)n2C (nonaromatic ring conformer: 95.86916526205952 kcal/mol)

>  <smiles>  (14) 
CC1CCN(Cc2nc3c(c(=O)n(C)c(=O)n3C)n2CC(N)=O)CC1

>  <score_type>  (14) 
oracle

>  <origin>  (14) 
autodockgpu

>  <m_score__min__energy>  (14) 
-5.3200000000000003

>  <m_primary>  (14) 
energy

>  <meeko>  (14) 
{"free_energy": -5.16, "intermolecular_energy": -6.95, "internal_energy": -2.43, "cluster_size": 14, "cluster_id": 1, "rank_in_cluster": 12}

>  <energy>  (14) 
-5.14

>  <cluster_rmsd>  (14) 
0.8

>  <rmsd>  (14) 
271.47

>  <cluster>  (14) 
1

$$$$
IQOSOXOZFSRASN-DESYHMSQNA-N
     RDKit          3D

 49 51  0  0  0  0  0  0  0  0999 V2000
  141.7650   76.4880  221.6770 H   0  0  0  0  0  0  0  0  0  0  0  0
  141.1480   75.9470  222.3230 N   0  0  0  0  0  0  0  0  0  0  0  0
  140.1630   75.2350  221.8770 C   0  0  0  0  0  0  0  0  0  0  0  0
  139.9620   73.9360  222.3400 O   0  0  0  0  0  0  0  0  0  0  0  0
  139.1000   73.6650  222.7980 H   0  0  0  0  0  0  0  0  0  0  0  0
  139.2260   75.8130  220.8630 C   0  0  0  0  0  0  0  0  0  0  0  0
  139.8087   76.2894  220.0608 H   0  0  0  0  0  0  0  0  0  0  0  0
  138.6045   75.0051  220.4495 H   0  0  0  0  0  0  0  0  0  0  0  0
  138.3540   76.8130  221.4860 N   0  0  0  0  0  0  0  0  0  0  0  0
  138.4870   78.1700  221.4560 C   0  0  0  0  0  0  0  0  0  0  0  0
  139.5400   78.9040  220.6760 C   0  0  0  0  0  0  0  0  0  0  0  0
  139.5954   78.4863  219.6599 H   0  0  0  0  0  0  0  0  0  0  0  0
  139.2733   79.9703  220.6325 H   0  0  0  0  0  0  0  0  0  0  0  0
  140.8560   78.7660  221.3310 N   0  0  0  0  0  0  0  0  0  0  0  0
  141.8520   79.7410  220.8040 C   0  0  0  0  0  0  0  0  0  0  0  0
  142.8093   79.2199  220.6555 H   0  0  0  0  0  0  0  0  0  0  0  0
  141.4551   80.1423  219.8598 H   0  0  0  0  0  0  0  0  0  0  0  0
  142.0810   80.9270  221.7500 C   0  0  0  0  0  0  0  0  0  0  0  0
  142.8170   81.6095  221.3001 H   0  0  0  0  0  0  0  0  0  0  0  0
  141.1220   81.4432  221.9045 H   0  0  0  0  0  0  0  0  0  0  0  0
  142.6090   80.4460  223.1210 C   0  0  0  0  0  0  0  0  0  0  0  0
  143.6998   80.3305  223.0392 H   0  0  0  0  0  0  0  0  0  0  0  0
  142.3110   81.4910  224.2040 C   0  0  0  0  0  0  0  0  0  0  0  0
  142.4405   81.0367  225.1974 H   0  0  0  0  0  0  0  0  0  0  0  0
  143.0031   82.3391  224.0955 H   0  0  0  0  0  0  0  0  0  0  0  0
  141.2757   81.8465  224.0955 H   0  0  0  0  0  0  0  0  0  0  0  0
  142.0420   79.0570  223.5060 C   0  0  0  0  0  0  0  0  0  0  0  0
  142.7633   78.2809  223.2105 H   0  0  0  0  0  0  0  0  0  0  0  0
  141.8751   79.0387  224.5931 H   0  0  0  0  0  0  0  0  0  0  0  0
  140.7050   78.7890  222.8060 C   0  0  0  0  0  0  0  0  0  0  0  0
  140.3158   77.8159  223.1402 H   0  0  0  0  0  0  0  0  0  0  0  0
  140.0106   79.6009  223.0681 H   0  0  0  0  0  0  0  0  0  0  0  0
  137.5440   78.8210  222.1840 N   0  0  0  0  0  0  0  0  0  0  0  0
  136.8120   77.8140  222.6960 C   0  0  0  0  0  0  0  0  0  0  0  0
  137.2890   76.6140  222.2890 C   0  0  0  0  0  0  0  0  0  0  0  0
  136.6710   75.4380  222.7040 C   0  0  0  0  0  0  0  0  0  0  0  0
  137.0970   74.3160  222.3190 O   0  0  0  0  0  0  0  0  0  0  0  0
  135.5780   75.5340  223.5350 N   0  0  0  0  0  0  0  0  0  0  0  0
  134.8740   74.3120  223.9630 C   0  0  0  0  0  0  0  0  0  0  0  0
  134.8492   74.2689  225.0619 H   0  0  0  0  0  0  0  0  0  0  0  0
  133.8454   74.3258  223.5733 H   0  0  0  0  0  0  0  0  0  0  0  0
  135.4019   73.4291  223.5733 H   0  0  0  0  0  0  0  0  0  0  0  0
  135.0890   76.7760  223.9070 C   0  0  0  0  0  0  0  0  0  0  0  0
  134.0450   76.8530  224.6130 O   0  0  0  0  0  0  0  0  0  0  0  0
  135.7280   77.9300  223.5110 N   0  0  0  0  0  0  0  0  0  0  0  0
  135.2080   79.2520  223.8840 C   0  0  0  0  0  0  0  0  0  0  0  0
  135.1746   79.3369  224.9802 H   0  0  0  0  0  0  0  0  0  0  0  0
  135.8658   80.0333  223.4756 H   0  0  0  0  0  0  0  0  0  0  0  0
  134.1942   79.3758  223.4756 H   0  0  0  0  0  0  0  0  0  0  0  0
  1  2  1  0
  2  3  2  0
  3  4  1  0
  4  5  1  0
  3  6  1  0
  6  7  1  0
  6  8  1  0
  6  9  1  0
  9 10  1  0
 10 11  1  0
 11 12  1  0
 11 13  1  0
 11 14  1  0
 14 15  1  0
 15 16  1  0
 15 17  1  0
 15 18  1  0
 18 19  1  0
 18 20  1  0
 18 21  1  0
 21 22  1  0
 21 23  1  0
 23 24  1  0
 23 25  1  0
 23 26  1  0
 21 27  1  0
 27 28  1  0
 27 29  1  0
 27 30  1  0
 30 31  1  0
 30 32  1  0
 10 33  2  0
 33 34  1  0
 34 35  2  0
 35 36  1  0
 36 37  2  0
 36 38  1  0
 38 39  1  0
 39 40  1  0
 39 41  1  0
 39 42  1  0
 38 43  1  0
 43 44  2  0
 43 45  1  0
 45 46  1  0
 46 47  1  0
 46 48  1  0
 46 49  1  0
 35  9  1  0
 30 14  1  0
 45 34  1  0
M  END
>  <UniqueID>  (15) 
13

>  <SMILES>  (15) 
[H]/N=C(\O)Cn1c(CN2CCC(C)CC2)nc2c1c(=O)n(C)c(=O)n2C

>  <Energy>  (15) 
95.86916526205952

>  <Genealogy>  (15) 
CC1CCN(Cc2nc3c(c(=O)n(C)c(=O)n3C)n2CC(=N)O)CC1 (tautomer)
[H]/N=C(\O)Cn1c(CN2CCC(C)CC2)nc2c1c(=O)n(C)c(=O)n2C (cis-trans isomerization)
[H]/N=C(\O)Cn1c(CN2CCC(C)CC2)nc2c1c(=O)n(C)c(=O)n2C (3D coordinates assigned)
[H]/N=C(\O)Cn1c(CN2CCC(C)CC2)nc2c1c(=O)n(C)c(=O)n2C (nonaromatic ring conformer: 95.86916526205952 kcal/mol)

>  <smiles>  (15) 
CC1CCN(Cc2nc3c(c(=O)n(C)c(=O)n3C)n2CC(N)=O)CC1

>  <score_type>  (15) 
oracle

>  <origin>  (15) 
autodockgpu

>  <m_score__min__energy>  (15) 
-5.3200000000000003

>  <m_primary>  (15) 
energy

>  <meeko>  (15) 
{"free_energy": -5.32, "intermolecular_energy": -7.11, "internal_energy": -2.04, "cluster_size": 14, "cluster_id": 1, "rank_in_cluster": 1}

>  <energy>  (15) 
-5.25

>  <cluster_rmsd>  (15) 
0.0

>  <rmsd>  (15) 
271.62

>  <cluster>  (15) 
2

$$$$
IQOSOXOZFSRASN-DESYHMSQNA-N
     RDKit          3D

 49 51  0  0  0  0  0  0  0  0999 V2000
  138.9980   73.6490  222.8100 H   0  0  0  0  0  0  0  0  0  0  0  0
  139.9300   73.7700  222.3550 N   0  0  0  0  0  0  0  0  0  0  0  0
  140.2400   74.8630  221.7330 C   0  0  0  0  0  0  0  0  0  0  0  0
  141.4620   75.4900  221.9690 O   0  0  0  0  0  0  0  0  0  0  0  0
  141.6360   76.4410  221.6650 H   0  0  0  0  0  0  0  0  0  0  0  0
  139.2840   75.4540  220.7450 C   0  0  0  0  0  0  0  0  0  0  0  0
  139.8495   75.9979  219.9740 H   0  0  0  0  0  0  0  0  0  0  0  0
  138.7004   74.6434  220.2841 H   0  0  0  0  0  0  0  0  0  0  0  0
  138.3660   76.3800  221.4140 N   0  0  0  0  0  0  0  0  0  0  0  0
  138.4490   77.7400  221.4740 C   0  0  0  0  0  0  0  0  0  0  0  0
  139.4880   78.5600  220.7630 C   0  0  0  0  0  0  0  0  0  0  0  0
  139.5730   78.2140  219.7223 H   0  0  0  0  0  0  0  0  0  0  0  0
  139.1854   79.6173  220.7864 H   0  0  0  0  0  0  0  0  0  0  0  0
  140.7980   78.4220  221.4300 N   0  0  0  0  0  0  0  0  0  0  0  0
  141.8280   79.3190  220.8360 C   0  0  0  0  0  0  0  0  0  0  0  0
  142.7654   78.7538  220.7274 H   0  0  0  0  0  0  0  0  0  0  0  0
  141.4444   79.6652  219.8649 H   0  0  0  0  0  0  0  0  0  0  0  0
  142.1020   80.5620  221.6930 C   0  0  0  0  0  0  0  0  0  0  0  0
  142.8636   81.1811  221.1963 H   0  0  0  0  0  0  0  0  0  0  0  0
  141.1635   81.1245  221.8062 H   0  0  0  0  0  0  0  0  0  0  0  0
  142.6110   80.1630  223.0970 C   0  0  0  0  0  0  0  0  0  0  0  0
  143.6967   80.0010  223.0269 H   0  0  0  0  0  0  0  0  0  0  0  0
  142.3520   81.2950  224.1000 C   0  0  0  0  0  0  0  0  0  0  0  0
  142.4413   80.9047  225.1245 H   0  0  0  0  0  0  0  0  0  0  0  0
  143.0900   82.0962  223.9473 H   0  0  0  0  0  0  0  0  0  0  0  0
  141.3390   81.6956  223.9473 H   0  0  0  0  0  0  0  0  0  0  0  0
  141.9930   78.8280  223.5810 C   0  0  0  0  0  0  0  0  0  0  0  0
  142.6855   78.0064  223.3456 H   0  0  0  0  0  0  0  0  0  0  0  0
  141.8248   78.8963  224.6659 H   0  0  0  0  0  0  0  0  0  0  0  0
  140.6480   78.5580  222.8990 C   0  0  0  0  0  0  0  0  0  0  0  0
  140.2240   77.6265  223.3022 H   0  0  0  0  0  0  0  0  0  0  0  0
  139.9834   79.4114  223.0993 H   0  0  0  0  0  0  0  0  0  0  0  0
  137.4710   78.3080  222.2240 N   0  0  0  0  0  0  0  0  0  0  0  0
  136.7680   77.2440  222.6560 C   0  0  0  0  0  0  0  0  0  0  0  0
  137.2950   76.0910  222.1810 C   0  0  0  0  0  0  0  0  0  0  0  0
  136.7130   74.8690  222.5080 C   0  0  0  0  0  0  0  0  0  0  0  0
  137.1870   73.7910  222.0590 O   0  0  0  0  0  0  0  0  0  0  0  0
  135.6040   74.8720  223.3220 N   0  0  0  0  0  0  0  0  0  0  0  0
  134.9380   73.6000  223.6560 C   0  0  0  0  0  0  0  0  0  0  0  0
  134.8813   73.4918  224.7492 H   0  0  0  0  0  0  0  0  0  0  0  0
  133.9222   73.5961  223.2340 H   0  0  0  0  0  0  0  0  0  0  0  0
  135.5135   72.7629  223.2340 H   0  0  0  0  0  0  0  0  0  0  0  0
  135.0640   76.0680  223.7630 C   0  0  0  0  0  0  0  0  0  0  0  0
  134.0050   76.0620  224.4530 O   0  0  0  0  0  0  0  0  0  0  0  0
  135.6660   77.2680  223.4550 N   0  0  0  0  0  0  0  0  0  0  0  0
  135.0920   78.5440  223.9030 C   0  0  0  0  0  0  0  0  0  0  0  0
  135.0785   78.5740  225.0025 H   0  0  0  0  0  0  0  0  0  0  0  0
  135.7029   79.3751  223.5210 H   0  0  0  0  0  0  0  0  0  0  0  0
  134.0648   78.6382  223.5210 H   0  0  0  0  0  0  0  0  0  0  0  0
  1  2  1  0
  2  3  2  0
  3  4  1  0
  4  5  1  0
  3  6  1  0
  6  7  1  0
  6  8  1  0
  6  9  1  0
  9 10  1  0
 10 11  1  0
 11 12  1  0
 11 13  1  0
 11 14  1  0
 14 15  1  0
 15 16  1  0
 15 17  1  0
 15 18  1  0
 18 19  1  0
 18 20  1  0
 18 21  1  0
 21 22  1  0
 21 23  1  0
 23 24  1  0
 23 25  1  0
 23 26  1  0
 21 27  1  0
 27 28  1  0
 27 29  1  0
 27 30  1  0
 30 31  1  0
 30 32  1  0
 10 33  2  0
 33 34  1  0
 34 35  2  0
 35 36  1  0
 36 37  2  0
 36 38  1  0
 38 39  1  0
 39 40  1  0
 39 41  1  0
 39 42  1  0
 38 43  1  0
 43 44  2  0
 43 45  1  0
 45 46  1  0
 46 47  1  0
 46 48  1  0
 46 49  1  0
 35  9  1  0
 30 14  1  0
 45 34  1  0
M  END
>  <UniqueID>  (16) 
13

>  <SMILES>  (16) 
[H]/N=C(\O)Cn1c(CN2CCC(C)CC2)nc2c1c(=O)n(C)c(=O)n2C

>  <Energy>  (16) 
95.86916526205952

>  <Genealogy>  (16) 
CC1CCN(Cc2nc3c(c(=O)n(C)c(=O)n3C)n2CC(=N)O)CC1 (tautomer)
[H]/N=C(\O)Cn1c(CN2CCC(C)CC2)nc2c1c(=O)n(C)c(=O)n2C (cis-trans isomerization)
[H]/N=C(\O)Cn1c(CN2CCC(C)CC2)nc2c1c(=O)n(C)c(=O)n2C (3D coordinates assigned)
[H]/N=C(\O)Cn1c(CN2CCC(C)CC2)nc2c1c(=O)n(C)c(=O)n2C (nonaromatic ring conformer: 95.86916526205952 kcal/mol)

>  <smiles>  (16) 
CC1CCN(Cc2nc3c(c(=O)n(C)c(=O)n3C)n2CC(N)=O)CC1

>  <score_type>  (16) 
oracle

>  <origin>  (16) 
autodockgpu

>  <m_score__min__energy>  (16) 
-5.3200000000000003

>  <m_primary>  (16) 
energy

>  <meeko>  (16) 
{"free_energy": -5.14, "intermolecular_energy": -6.93, "internal_energy": -2.43, "cluster_size": 14, "cluster_id": 1, "rank_in_cluster": 14}

>  <energy>  (16) 
-5.0

>  <cluster_rmsd>  (16) 
0.0

>  <rmsd>  (16) 
271.7

>  <cluster>  (16) 
3

$$$$
IQOSOXOZFSRASN-DESYHMSQNA-N
     RDKit          3D

 49 51  0  0  0  0  0  0  0  0999 V2000
  142.1810   75.7690  221.7020 H   0  0  0  0  0  0  0  0  0  0  0  0
  141.5710   74.9420  221.5140 N   0  0  0  0  0  0  0  0  0  0  0  0
  140.2810   75.0240  221.5840 C   0  0  0  0  0  0  0  0  0  0  0  0
  139.5540   74.1190  222.3540 O   0  0  0  0  0  0  0  0  0  0  0  0
  138.6620   74.3690  222.7640 H   0  0  0  0  0  0  0  0  0  0  0  0
  139.5630   76.1070  220.8400 C   0  0  0  0  0  0  0  0  0  0  0  0
  140.2496   76.5635  220.1119 H   0  0  0  0  0  0  0  0  0  0  0  0
  138.6976   75.6703  220.3201 H   0  0  0  0  0  0  0  0  0  0  0  0
  139.0900   77.1370  221.7700 N   0  0  0  0  0  0  0  0  0  0  0  0
  137.8290   77.3000  222.2630 C   0  0  0  0  0  0  0  0  0  0  0  0
  136.6840   76.3650  221.9960 C   0  0  0  0  0  0  0  0  0  0  0  0
  135.7371   76.9188  222.0779 H   0  0  0  0  0  0  0  0  0  0  0  0
  136.7918   75.9485  220.9836 H   0  0  0  0  0  0  0  0  0  0  0  0
  136.6860   75.2580  222.9720 N   0  0  0  0  0  0  0  0  0  0  0  0
  135.9460   75.6040  224.2180 C   0  0  0  0  0  0  0  0  0  0  0  0
  136.5287   75.2514  225.0818 H   0  0  0  0  0  0  0  0  0  0  0  0
  135.8143   76.6960  224.2315 H   0  0  0  0  0  0  0  0  0  0  0  0
  134.5500   74.9710  224.2780 C   0  0  0  0  0  0  0  0  0  0  0  0
  134.0583   75.2714  225.2150 H   0  0  0  0  0  0  0  0  0  0  0  0
  133.9691   75.3182  223.4108 H   0  0  0  0  0  0  0  0  0  0  0  0
  134.6410   73.4280  224.2260 C   0  0  0  0  0  0  0  0  0  0  0  0
  134.8225   73.0681  225.2495 H   0  0  0  0  0  0  0  0  0  0  0  0
  133.3180   72.8320  223.7280 C   0  0  0  0  0  0  0  0  0  0  0  0
  132.6948   72.5513  224.5899 H   0  0  0  0  0  0  0  0  0  0  0  0
  132.7864   73.5776  223.1185 H   0  0  0  0  0  0  0  0  0  0  0  0
  133.5242   71.9398  223.1185 H   0  0  0  0  0  0  0  0  0  0  0  0
  135.8360   72.9450  223.3660 C   0  0  0  0  0  0  0  0  0  0  0  0
  136.6946   72.7463  224.0243 H   0  0  0  0  0  0  0  0  0  0  0  0
  135.5350   72.0304  222.8341 H   0  0  0  0  0  0  0  0  0  0  0  0
  136.2350   74.0000  222.3290 C   0  0  0  0  0  0  0  0  0  0  0  0
  137.0539   73.6015  221.7120 H   0  0  0  0  0  0  0  0  0  0  0  0
  135.3521   74.2269  221.7134 H   0  0  0  0  0  0  0  0  0  0  0  0
  137.6990   78.3910  223.0610 N   0  0  0  0  0  0  0  0  0  0  0  0
  138.9340   78.9270  223.0400 C   0  0  0  0  0  0  0  0  0  0  0  0
  139.7680   78.1890  222.2710 C   0  0  0  0  0  0  0  0  0  0  0  0
  141.0990   78.5690  222.1190 C   0  0  0  0  0  0  0  0  0  0  0  0
  141.8880   77.8820  221.4180 O   0  0  0  0  0  0  0  0  0  0  0  0
  141.5290   79.7080  222.7620 N   0  0  0  0  0  0  0  0  0  0  0  0
  142.9400   80.1190  222.6550 C   0  0  0  0  0  0  0  0  0  0  0  0
  143.3634   80.2423  223.6627 H   0  0  0  0  0  0  0  0  0  0  0  0
  143.5061   79.3484  222.1112 H   0  0  0  0  0  0  0  0  0  0  0  0
  143.0038   81.0731  222.1112 H   0  0  0  0  0  0  0  0  0  0  0  0
  140.6630   80.4230  223.5710 C   0  0  0  0  0  0  0  0  0  0  0  0
  141.0870   81.4270  224.2110 O   0  0  0  0  0  0  0  0  0  0  0  0
  139.3420   80.0510  223.6910 N   0  0  0  0  0  0  0  0  0  0  0  0
  138.4190   80.7920  224.5610 C   0  0  0  0  0  0  0  0  0  0  0  0
  138.6676   80.5924  225.6138 H   0  0  0  0  0  0  0  0  0  0  0  0
  138.5114   81.8696  224.3603 H   0  0  0  0  0  0  0  0  0  0  0  0
  137.3869   80.4689  224.3603 H   0  0  0  0  0  0  0  0  0  0  0  0
  1  2  1  0
  2  3  2  0
  3  4  1  0
  4  5  1  0
  3  6  1  0
  6  7  1  0
  6  8  1  0
  6  9  1  0
  9 10  1  0
 10 11  1  0
 11 12  1  0
 11 13  1  0
 11 14  1  0
 14 15  1  0
 15 16  1  0
 15 17  1  0
 15 18  1  0
 18 19  1  0
 18 20  1  0
 18 21  1  0
 21 22  1  0
 21 23  1  0
 23 24  1  0
 23 25  1  0
 23 26  1  0
 21 27  1  0
 27 28  1  0
 27 29  1  0
 27 30  1  0
 30 31  1  0
 30 32  1  0
 10 33  2  0
 33 34  1  0
 34 35  2  0
 35 36  1  0
 36 37  2  0
 36 38  1  0
 38 39  1  0
 39 40  1  0
 39 41  1  0
 39 42  1  0
 38 43  1  0
 43 44  2  0
 43 45  1  0
 45 46  1  0
 46 47  1  0
 46 48  1  0
 46 49  1  0
 35  9  1  0
 30 14  1  0
 45 34  1  0
M  END
>  <UniqueID>  (17) 
13

>  <SMILES>  (17) 
[H]/N=C(\O)Cn1c(CN2CCC(C)CC2)nc2c1c(=O)n(C)c(=O)n2C

>  <Energy>  (17) 
95.86916526205952

>  <Genealogy>  (17) 
CC1CCN(Cc2nc3c(c(=O)n(C)c(=O)n3C)n2CC(=N)O)CC1 (tautomer)
[H]/N=C(\O)Cn1c(CN2CCC(C)CC2)nc2c1c(=O)n(C)c(=O)n2C (cis-trans isomerization)
[H]/N=C(\O)Cn1c(CN2CCC(C)CC2)nc2c1c(=O)n(C)c(=O)n2C (3D coordinates assigned)
[H]/N=C(\O)Cn1c(CN2CCC(C)CC2)nc2c1c(=O)n(C)c(=O)n2C (nonaromatic ring conformer: 95.86916526205952 kcal/mol)

>  <smiles>  (17) 
CC1CCN(Cc2nc3c(c(=O)n(C)c(=O)n3C)n2CC(N)=O)CC1

>  <score_type>  (17) 
oracle

>  <origin>  (17) 
autodockgpu

>  <m_score__min__energy>  (17) 
-5.3200000000000003

>  <m_primary>  (17) 
energy

>  <meeko>  (17) 
{"free_energy": -5.0, "intermolecular_energy": -6.79, "internal_energy": -2.3, "cluster_size": 5, "cluster_id": 3, "rank_in_cluster": 2}

>  <energy>  (17) 
-5.0

>  <cluster_rmsd>  (17) 
0.03

>  <rmsd>  (17) 
271.69

>  <cluster>  (17) 
3

$$$$
IQOSOXOZFSRASN-DESYHMSQNA-N
     RDKit          3D

 49 51  0  0  0  0  0  0  0  0999 V2000
  141.5590   76.4330  221.9900 H   0  0  0  0  0  0  0  0  0  0  0  0
  141.4360   75.3970  221.9510 N   0  0  0  0  0  0  0  0  0  0  0  0
  140.2660   74.8610  221.8120 C   0  0  0  0  0  0  0  0  0  0  0  0
  139.8950   73.7600  222.5820 O   0  0  0  0  0  0  0  0  0  0  0  0
  138.9620   73.6740  222.9670 H   0  0  0  0  0  0  0  0  0  0  0  0
  139.2970   75.4340  220.8250 C   0  0  0  0  0  0  0  0  0  0  0  0
  139.8496   76.0014  220.0617 H   0  0  0  0  0  0  0  0  0  0  0  0
  138.7389   74.6117  220.3534 H   0  0  0  0  0  0  0  0  0  0  0  0
  138.3500   76.3270  221.5000 N   0  0  0  0  0  0  0  0  0  0  0  0
  138.4160   77.6850  221.6060 C   0  0  0  0  0  0  0  0  0  0  0  0
  139.4630   78.5400  220.9520 C   0  0  0  0  0  0  0  0  0  0  0  0
  139.5997   78.2125  219.9108 H   0  0  0  0  0  0  0  0  0  0  0  0
  139.1339   79.5893  220.9786 H   0  0  0  0  0  0  0  0  0  0  0  0
  140.7470   78.4230  221.6710 N   0  0  0  0  0  0  0  0  0  0  0  0
  141.8150   79.2600  221.0570 C   0  0  0  0  0  0  0  0  0  0  0  0
  142.7439   78.6720  221.0194 H   0  0  0  0  0  0  0  0  0  0  0  0
  141.4726   79.5481  220.0521 H   0  0  0  0  0  0  0  0  0  0  0  0
  142.0840   80.5510  221.8400 C   0  0  0  0  0  0  0  0  0  0  0  0
  142.8741   81.1227  221.3311 H   0  0  0  0  0  0  0  0  0  0  0  0
  141.1533   81.1358  221.8833 H   0  0  0  0  0  0  0  0  0  0  0  0
  142.5370   80.2370  223.2840 C   0  0  0  0  0  0  0  0  0  0  0  0
  143.6211   80.0517  223.2623 H   0  0  0  0  0  0  0  0  0  0  0  0
  142.2670   81.4370  224.2010 C   0  0  0  0  0  0  0  0  0  0  0  0
  142.3385   81.1190  225.2516 H   0  0  0  0  0  0  0  0  0  0  0  0
  143.0107   82.2233  224.0044 H   0  0  0  0  0  0  0  0  0  0  0  0
  141.2582   81.8290  224.0044 H   0  0  0  0  0  0  0  0  0  0  0  0
  141.8770   78.9480  223.8330 C   0  0  0  0  0  0  0  0  0  0  0  0
  142.5605   78.1004  223.6766 H   0  0  0  0  0  0  0  0  0  0  0  0
  141.6739   79.0901  224.9047 H   0  0  0  0  0  0  0  0  0  0  0  0
  140.5500   78.6580  223.1220 C   0  0  0  0  0  0  0  0  0  0  0  0
  140.0935   77.7629  223.5697 H   0  0  0  0  0  0  0  0  0  0  0  0
  139.8968   79.5348  223.2425 H   0  0  0  0  0  0  0  0  0  0  0  0
  137.4100   78.2170  222.3480 N   0  0  0  0  0  0  0  0  0  0  0  0
  136.7090   77.1310  222.7250 C   0  0  0  0  0  0  0  0  0  0  0  0
  137.2630   76.0010  222.2270 C   0  0  0  0  0  0  0  0  0  0  0  0
  136.6870   74.7630  222.4970 C   0  0  0  0  0  0  0  0  0  0  0  0
  137.1850   73.7050  222.0260 O   0  0  0  0  0  0  0  0  0  0  0  0
  135.5550   74.7260  223.2800 N   0  0  0  0  0  0  0  0  0  0  0  0
  134.8960   73.4370  223.5540 C   0  0  0  0  0  0  0  0  0  0  0  0
  134.8198   73.2879  224.6412 H   0  0  0  0  0  0  0  0  0  0  0  0
  133.8884   73.4392  223.1127 H   0  0  0  0  0  0  0  0  0  0  0  0
  135.4878   72.6215  223.1127 H   0  0  0  0  0  0  0  0  0  0  0  0
  134.9900   75.9010  223.7450 C   0  0  0  0  0  0  0  0  0  0  0  0
  133.9130   75.8610  224.4050 O   0  0  0  0  0  0  0  0  0  0  0  0
  135.5860   77.1170  223.4940 N   0  0  0  0  0  0  0  0  0  0  0  0
  134.9850   78.3710  223.9670 C   0  0  0  0  0  0  0  0  0  0  0  0
  134.9793   78.3829  225.0669 H   0  0  0  0  0  0  0  0  0  0  0  0
  135.5727   79.2228  223.5941 H   0  0  0  0  0  0  0  0  0  0  0  0
  133.9529   78.4465  223.5941 H   0  0  0  0  0  0  0  0  0  0  0  0
  1  2  1  0
  2  3  2  0
  3  4  1  0
  4  5  1  0
  3  6  1  0
  6  7  1  0
  6  8  1  0
  6  9  1  0
  9 10  1  0
 10 11  1  0
 11 12  1  0
 11 13  1  0
 11 14  1  0
 14 15  1  0
 15 16  1  0
 15 17  1  0
 15 18  1  0
 18 19  1  0
 18 20  1  0
 18 21  1  0
 21 22  1  0
 21 23  1  0
 23 24  1  0
 23 25  1  0
 23 26  1  0
 21 27  1  0
 27 28  1  0
 27 29  1  0
 27 30  1  0
 30 31  1  0
 30 32  1  0
 10 33  2  0
 33 34  1  0
 34 35  2  0
 35 36  1  0
 36 37  2  0
 36 38  1  0
 38 39  1  0
 39 40  1  0
 39 41  1  0
 39 42  1  0
 38 43  1  0
 43 44  2  0
 43 45  1  0
 45 46  1  0
 46 47  1  0
 46 48  1  0
 46 49  1  0
 35  9  1  0
 30 14  1  0
 45 34  1  0
M  END
>  <UniqueID>  (18) 
13

>  <SMILES>  (18) 
[H]/N=C(\O)Cn1c(CN2CCC(C)CC2)nc2c1c(=O)n(C)c(=O)n2C

>  <Energy>  (18) 
95.86916526205952

>  <Genealogy>  (18) 
CC1CCN(Cc2nc3c(c(=O)n(C)c(=O)n3C)n2CC(=N)O)CC1 (tautomer)
[H]/N=C(\O)Cn1c(CN2CCC(C)CC2)nc2c1c(=O)n(C)c(=O)n2C (cis-trans isomerization)
[H]/N=C(\O)Cn1c(CN2CCC(C)CC2)nc2c1c(=O)n(C)c(=O)n2C (3D coordinates assigned)
[H]/N=C(\O)Cn1c(CN2CCC(C)CC2)nc2c1c(=O)n(C)c(=O)n2C (nonaromatic ring conformer: 95.86916526205952 kcal/mol)

>  <smiles>  (18) 
CC1CCN(Cc2nc3c(c(=O)n(C)c(=O)n3C)n2CC(N)=O)CC1

>  <score_type>  (18) 
oracle

>  <origin>  (18) 
autodockgpu

>  <m_score__min__energy>  (18) 
-5.3200000000000003

>  <m_primary>  (18) 
energy

>  <meeko>  (18) 
{"free_energy": -5.21, "intermolecular_energy": -7.0, "internal_energy": -2.42, "cluster_size": 14, "cluster_id": 1, "rank_in_cluster": 4}

>  <energy>  (18) 
-4.99

>  <cluster_rmsd>  (18) 
0.05

>  <rmsd>  (18) 
271.68

>  <cluster>  (18) 
3

$$$$
IQOSOXOZFSRASN-DESYHMSQNA-N
     RDKit          3D

 49 51  0  0  0  0  0  0  0  0999 V2000
  141.5800   76.3440  222.0230 H   0  0  0  0  0  0  0  0  0  0  0  0
  141.4370   75.3320  221.8050 N   0  0  0  0  0  0  0  0  0  0  0  0
  140.2550   74.8020  221.8060 C   0  0  0  0  0  0  0  0  0  0  0  0
  139.9480   73.7570  222.6750 O   0  0  0  0  0  0  0  0  0  0  0  0
  139.0190   73.6470  223.0630 H   0  0  0  0  0  0  0  0  0  0  0  0
  139.2060   75.3210  220.8730 C   0  0  0  0  0  0  0  0  0  0  0  0
  139.6812   75.9529  220.1082 H   0  0  0  0  0  0  0  0  0  0  0  0
  138.6984   74.4694  220.3964 H   0  0  0  0  0  0  0  0  0  0  0  0
  138.2170   76.1140  221.6090 N   0  0  0  0  0  0  0  0  0  0  0  0
  138.2110   77.4630  221.8080 C   0  0  0  0  0  0  0  0  0  0  0  0
  139.2070   78.4160  221.2120 C   0  0  0  0  0  0  0  0  0  0  0  0
  139.2915   78.2238  220.1322 H   0  0  0  0  0  0  0  0  0  0  0  0
  138.8639   79.4465  221.3865 H   0  0  0  0  0  0  0  0  0  0  0  0
  140.5300   78.2380  221.8430 N   0  0  0  0  0  0  0  0  0  0  0  0
  141.6190   78.8830  221.0580 C   0  0  0  0  0  0  0  0  0  0  0  0
  142.4782   78.1971  221.0205 H   0  0  0  0  0  0  0  0  0  0  0  0
  141.2211   79.0960  220.0549 H   0  0  0  0  0  0  0  0  0  0  0  0
  142.0820   80.2150  221.6620 C   0  0  0  0  0  0  0  0  0  0  0  0
  142.8781   80.6388  221.0322 H   0  0  0  0  0  0  0  0  0  0  0  0
  141.2218   80.8993  221.7057 H   0  0  0  0  0  0  0  0  0  0  0  0
  142.6250   80.0110  223.0960 C   0  0  0  0  0  0  0  0  0  0  0  0
  143.6794   79.7077  223.0163 H   0  0  0  0  0  0  0  0  0  0  0  0
  142.5560   81.3250  223.8840 C   0  0  0  0  0  0  0  0  0  0  0  0
  142.5674   81.1070  224.9621 H   0  0  0  0  0  0  0  0  0  0  0  0
  143.4224   81.9523  223.6275 H   0  0  0  0  0  0  0  0  0  0  0  0
  141.6286   81.8581  223.6275 H   0  0  0  0  0  0  0  0  0  0  0  0
  141.8890   78.8680  223.8380 C   0  0  0  0  0  0  0  0  0  0  0  0
  142.4685   77.9392  223.7304 H   0  0  0  0  0  0  0  0  0  0  0  0
  141.7940   79.1462  224.8980 H   0  0  0  0  0  0  0  0  0  0  0  0
  140.4840   78.6490  223.2670 C   0  0  0  0  0  0  0  0  0  0  0  0
  139.9809   77.8628  223.8491 H   0  0  0  0  0  0  0  0  0  0  0  0
  139.9346   79.5997  223.3325 H   0  0  0  0  0  0  0  0  0  0  0  0
  137.1830   77.8880  222.5870 N   0  0  0  0  0  0  0  0  0  0  0  0
  136.5420   76.7440  222.8900 C   0  0  0  0  0  0  0  0  0  0  0  0
  137.1520   75.6810  222.3140 C   0  0  0  0  0  0  0  0  0  0  0  0
  136.6450   74.3980  222.4990 C   0  0  0  0  0  0  0  0  0  0  0  0
  137.1960   73.4040  221.9560 O   0  0  0  0  0  0  0  0  0  0  0  0
  135.5210   74.2480  223.2800 N   0  0  0  0  0  0  0  0  0  0  0  0
  134.9330   72.9100  223.4660 C   0  0  0  0  0  0  0  0  0  0  0  0
  134.8393   72.6969  224.5411 H   0  0  0  0  0  0  0  0  0  0  0  0
  133.9381   72.8784  222.9979 H   0  0  0  0  0  0  0  0  0  0  0  0
  135.5826   72.1557  222.9979 H   0  0  0  0  0  0  0  0  0  0  0  0
  134.8960   75.3560  223.8270 C   0  0  0  0  0  0  0  0  0  0  0  0
  133.8270   75.2130  224.4840 O   0  0  0  0  0  0  0  0  0  0  0  0
  135.4260   76.6170  223.6580 N   0  0  0  0  0  0  0  0  0  0  0  0
  134.7610   77.8010  224.2180 C   0  0  0  0  0  0  0  0  0  0  0  0
  134.7886   77.7518  225.3166 H   0  0  0  0  0  0  0  0  0  0  0  0
  135.2813   78.7087  223.8784 H   0  0  0  0  0  0  0  0  0  0  0  0
  133.7151   77.8291  223.8784 H   0  0  0  0  0  0  0  0  0  0  0  0
  1  2  1  0
  2  3  2  0
  3  4  1  0
  4  5  1  0
  3  6  1  0
  6  7  1  0
  6  8  1  0
  6  9  1  0
  9 10  1  0
 10 11  1  0
 11 12  1  0
 11 13  1  0
 11 14  1  0
 14 15  1  0
 15 16  1  0
 15 17  1  0
 15 18  1  0
 18 19  1  0
 18 20  1  0
 18 21  1  0
 21 22  1  0
 21 23  1  0
 23 24  1  0
 23 25  1  0
 23 26  1  0
 21 27  1  0
 27 28  1  0
 27 29  1  0
 27 30  1  0
 30 31  1  0
 30 32  1  0
 10 33  2  0
 33 34  1  0
 34 35  2  0
 35 36  1  0
 36 37  2  0
 36 38  1  0
 38 39  1  0
 39 40  1  0
 39 41  1  0
 39 42  1  0
 38 43  1  0
 43 44  2  0
 43 45  1  0
 45 46  1  0
 46 47  1  0
 46 48  1  0
 46 49  1  0
 35  9  1  0
 30 14  1  0
 45 34  1  0
M  END
>  <UniqueID>  (19) 
13

>  <SMILES>  (19) 
[H]/N=C(\O)Cn1c(CN2CCC(C)CC2)nc2c1c(=O)n(C)c(=O)n2C

>  <Energy>  (19) 
95.86916526205952

>  <Genealogy>  (19) 
CC1CCN(Cc2nc3c(c(=O)n(C)c(=O)n3C)n2CC(=N)O)CC1 (tautomer)
[H]/N=C(\O)Cn1c(CN2CCC(C)CC2)nc2c1c(=O)n(C)c(=O)n2C (cis-trans isomerization)
[H]/N=C(\O)Cn1c(CN2CCC(C)CC2)nc2c1c(=O)n(C)c(=O)n2C (3D coordinates assigned)
[H]/N=C(\O)Cn1c(CN2CCC(C)CC2)nc2c1c(=O)n(C)c(=O)n2C (nonaromatic ring conformer: 95.86916526205952 kcal/mol)

>  <smiles>  (19) 
CC1CCN(Cc2nc3c(c(=O)n(C)c(=O)n3C)n2CC(N)=O)CC1

>  <score_type>  (19) 
oracle

>  <origin>  (19) 
autodockgpu

>  <m_score__min__energy>  (19) 
-5.3200000000000003

>  <m_primary>  (19) 
energy

>  <meeko>  (19) 
{"free_energy": -5.21, "intermolecular_energy": -7.0, "internal_energy": -2.39, "cluster_size": 14, "cluster_id": 1, "rank_in_cluster": 5}

>  <energy>  (19) 
-4.99

>  <cluster_rmsd>  (19) 
0.65

>  <rmsd>  (19) 
271.71

>  <cluster>  (19) 
3

$$$$
IQOSOXOZFSRASN-DESYHMSQNA-N
     RDKit          3D

 49 51  0  0  0  0  0  0  0  0999 V2000
  141.5600   76.4470  221.9710 H   0  0  0  0  0  0  0  0  0  0  0  0
  141.4380   75.4100  221.9610 N   0  0  0  0  0  0  0  0  0  0  0  0
  140.2680   74.8690  221.8330 C   0  0  0  0  0  0  0  0  0  0  0  0
  139.8980   73.7830  222.6240 O   0  0  0  0  0  0  0  0  0  0  0  0
  138.9490   73.6710  222.9590 H   0  0  0  0  0  0  0  0  0  0  0  0
  139.2990   75.4210  220.8350 C   0  0  0  0  0  0  0  0  0  0  0  0
  139.8530   75.9545  220.0486 H   0  0  0  0  0  0  0  0  0  0  0  0
  138.7262   74.5904  220.3967 H   0  0  0  0  0  0  0  0  0  0  0  0
  138.3690   76.3490  221.4850 N   0  0  0  0  0  0  0  0  0  0  0  0
  138.4450   77.7090  221.5330 C   0  0  0  0  0  0  0  0  0  0  0  0
  139.4870   78.5280  220.8260 C   0  0  0  0  0  0  0  0  0  0  0  0
  139.5960   78.1632  219.7940 H   0  0  0  0  0  0  0  0  0  0  0  0
  139.1713   79.5817  220.8230 H   0  0  0  0  0  0  0  0  0  0  0  0
  140.7850   78.4190  221.5200 N   0  0  0  0  0  0  0  0  0  0  0  0
  141.8220   79.3040  220.9170 C   0  0  0  0  0  0  0  0  0  0  0  0
  142.7645   78.7416  220.8438 H   0  0  0  0  0  0  0  0  0  0  0  0
  141.4555   79.6172  219.9283 H   0  0  0  0  0  0  0  0  0  0  0  0
  142.0720   80.5740  221.7400 C   0  0  0  0  0  0  0  0  0  0  0  0
  142.8385   81.1830  221.2384 H   0  0  0  0  0  0  0  0  0  0  0  0
  141.1278   81.1328  221.8190 H   0  0  0  0  0  0  0  0  0  0  0  0
  142.5580   80.2220  223.1650 C   0  0  0  0  0  0  0  0  0  0  0  0
  143.6458   80.0653  223.1194 H   0  0  0  0  0  0  0  0  0  0  0  0
  142.2750   81.3820  224.1270 C   0  0  0  0  0  0  0  0  0  0  0  0
  142.3615   81.0273  225.1646 H   0  0  0  0  0  0  0  0  0  0  0  0
  143.0028   82.1883  223.9532 H   0  0  0  0  0  0  0  0  0  0  0  0
  141.2577   81.7626  223.9532 H   0  0  0  0  0  0  0  0  0  0  0  0
  141.9400   78.8980  223.6790 C   0  0  0  0  0  0  0  0  0  0  0  0
  142.6415   78.0742  223.4810 H   0  0  0  0  0  0  0  0  0  0  0  0
  141.7525   78.9975  224.7583 H   0  0  0  0  0  0  0  0  0  0  0  0
  140.6080   78.5990  222.9810 C   0  0  0  0  0  0  0  0  0  0  0  0
  140.1818   77.6778  223.4050 H   0  0  0  0  0  0  0  0  0  0  0  0
  139.9354   79.4542  223.1430 H   0  0  0  0  0  0  0  0  0  0  0  0
  137.4550   78.2800  222.2670 N   0  0  0  0  0  0  0  0  0  0  0  0
  136.7530   77.2160  222.7010 C   0  0  0  0  0  0  0  0  0  0  0  0
  137.2910   76.0620  222.2430 C   0  0  0  0  0  0  0  0  0  0  0  0
  136.7120   74.8400  222.5740 C   0  0  0  0  0  0  0  0  0  0  0  0
  137.1960   73.7600  222.1410 O   0  0  0  0  0  0  0  0  0  0  0  0
  135.5930   74.8450  223.3760 N   0  0  0  0  0  0  0  0  0  0  0  0
  134.9300   73.5730  223.7150 C   0  0  0  0  0  0  0  0  0  0  0  0
  134.8753   73.4681  224.8086 H   0  0  0  0  0  0  0  0  0  0  0  0
  133.9135   73.5659  223.2947 H   0  0  0  0  0  0  0  0  0  0  0  0
  135.5064   72.7357  223.2947 H   0  0  0  0  0  0  0  0  0  0  0  0
  135.0420   76.0430  223.8000 C   0  0  0  0  0  0  0  0  0  0  0  0
  133.9760   76.0380  224.4780 O   0  0  0  0  0  0  0  0  0  0  0  0
  135.6430   77.2430  223.4880 N   0  0  0  0  0  0  0  0  0  0  0  0
  135.0570   78.5190  223.9170 C   0  0  0  0  0  0  0  0  0  0  0  0
  135.0371   78.5623  225.0160 H   0  0  0  0  0  0  0  0  0  0  0  0
  135.6636   79.3502  223.5282 H   0  0  0  0  0  0  0  0  0  0  0  0
  134.0312   78.6005  223.5282 H   0  0  0  0  0  0  0  0  0  0  0  0
  1  2  1  0
  2  3  2  0
  3  4  1  0
  4  5  1  0
  3  6  1  0
  6  7  1  0
  6  8  1  0
  6  9  1  0
  9 10  1  0
 10 11  1  0
 11 12  1  0
 11 13  1  0
 11 14  1  0
 14 15  1  0
 15 16  1  0
 15 17  1  0
 15 18  1  0
 18 19  1  0
 18 20  1  0
 18 21  1  0
 21 22  1  0
 21 23  1  0
 23 24  1  0
 23 25  1  0
 23 26  1  0
 21 27  1  0
 27 28  1  0
 27 29  1  0
 27 30  1  0
 30 31  1  0
 30 32  1  0
 10 33  2  0
 33 34  1  0
 34 35  2  0
 35 36  1  0
 36 37  2  0
 36 38  1  0
 38 39  1  0
 39 40  1  0
 39 41  1  0
 39 42  1  0
 38 43  1  0
 43 44  2  0
 43 45  1  0
 45 46  1  0
 46 47  1  0
 46 48  1  0
 46 49  1  0
 35  9  1  0
 30 14  1  0
 45 34  1  0
M  END
>  <UniqueID>  (20) 
13

>  <SMILES>  (20) 
[H]/N=C(\O)Cn1c(CN2CCC(C)CC2)nc2c1c(=O)n(C)c(=O)n2C

>  <Energy>  (20) 
95.86916526205952

>  <Genealogy>  (20) 
CC1CCN(Cc2nc3c(c(=O)n(C)c(=O)n3C)n2CC(=N)O)CC1 (tautomer)
[H]/N=C(\O)Cn1c(CN2CCC(C)CC2)nc2c1c(=O)n(C)c(=O)n2C (cis-trans isomerization)
[H]/N=C(\O)Cn1c(CN2CCC(C)CC2)nc2c1c(=O)n(C)c(=O)n2C (3D coordinates assigned)
[H]/N=C(\O)Cn1c(CN2CCC(C)CC2)nc2c1c(=O)n(C)c(=O)n2C (nonaromatic ring conformer: 95.86916526205952 kcal/mol)

>  <smiles>  (20) 
CC1CCN(Cc2nc3c(c(=O)n(C)c(=O)n3C)n2CC(N)=O)CC1

>  <score_type>  (20) 
oracle

>  <origin>  (20) 
autodockgpu

>  <m_score__min__energy>  (20) 
-5.3200000000000003

>  <m_primary>  (20) 
energy

>  <meeko>  (20) 
{"free_energy": -5.16, "intermolecular_energy": -6.95, "internal_energy": -2.44, "cluster_size": 14, "cluster_id": 1, "rank_in_cluster": 13}

>  <energy>  (20) 
-4.98

>  <cluster_rmsd>  (20) 
0.65

>  <rmsd>  (20) 
271.72

>  <cluster>  (20) 
3

$$$$
IQOSOXOZFSRASN-WAHAVJNONA-N
     RDKit          3D

 49 51  0  0  0  0  0  0  0  0999 V2000
  143.4000   78.9210  217.0100 H   0  0  0  0  0  0  0  0  0  0  0  0
  142.9470   79.5710  217.6910 N   0  0  0  0  0  0  0  0  0  0  0  0
  142.2070   79.1460  218.6670 C   0  0  0  0  0  0  0  0  0  0  0  0
  142.2350   79.8080  219.8910 O   0  0  0  0  0  0  0  0  0  0  0  0
  142.4340   79.3110  220.7510 H   0  0  0  0  0  0  0  0  0  0  0  0
  141.3230   77.9440  218.5030 C   0  0  0  0  0  0  0  0  0  0  0  0
  140.3288   78.1639  218.9193 H   0  0  0  0  0  0  0  0  0  0  0  0
  141.2359   77.7043  217.4330 H   0  0  0  0  0  0  0  0  0  0  0  0
  141.9010   76.7930  219.2080 N   0  0  0  0  0  0  0  0  0  0  0  0
  141.5570   76.3080  220.4370 C   0  0  0  0  0  0  0  0  0  0  0  0
  140.5370   76.9210  221.3560 C   0  0  0  0  0  0  0  0  0  0  0  0
  139.6482   77.2057  220.7738 H   0  0  0  0  0  0  0  0  0  0  0  0
  140.2619   76.1864  222.1272 H   0  0  0  0  0  0  0  0  0  0  0  0
  141.0950   78.1200  222.0110 N   0  0  0  0  0  0  0  0  0  0  0  0
  141.4480   77.8170  223.4180 C   0  0  0  0  0  0  0  0  0  0  0  0
  140.6181   77.2586  223.8757 H   0  0  0  0  0  0  0  0  0  0  0  0
  142.3784   77.2303  223.4062 H   0  0  0  0  0  0  0  0  0  0  0  0
  141.7110   79.0880  224.2590 C   0  0  0  0  0  0  0  0  0  0  0  0
  140.8221   79.2933  224.8736 H   0  0  0  0  0  0  0  0  0  0  0  0
  142.5995   78.8979  224.8790 H   0  0  0  0  0  0  0  0  0  0  0  0
  142.0060   80.3250  223.3910 C   0  0  0  0  0  0  0  0  0  0  0  0
  142.0441   81.2038  224.0515 H   0  0  0  0  0  0  0  0  0  0  0  0
  143.3800   80.2160  222.7080 C   0  0  0  0  0  0  0  0  0  0  0  0
  144.1666   80.1536  223.4744 H   0  0  0  0  0  0  0  0  0  0  0  0
  143.4070   79.3129  222.0806 H   0  0  0  0  0  0  0  0  0  0  0  0
  143.5490   81.1036  222.0806 H   0  0  0  0  0  0  0  0  0  0  0  0
  140.8710   80.5590  222.3640 C   0  0  0  0  0  0  0  0  0  0  0  0
  140.1263   81.2327  222.8129 H   0  0  0  0  0  0  0  0  0  0  0  0
  141.3289   80.9926  221.4627 H   0  0  0  0  0  0  0  0  0  0  0  0
  140.1630   79.2600  221.9390 C   0  0  0  0  0  0  0  0  0  0  0  0
  139.3114   79.0750  222.6102 H   0  0  0  0  0  0  0  0  0  0  0  0
  139.8106   79.3681  220.9026 H   0  0  0  0  0  0  0  0  0  0  0  0
  142.2510   75.1970  220.7900 N   0  0  0  0  0  0  0  0  0  0  0  0
  143.0390   74.9790  219.7220 C   0  0  0  0  0  0  0  0  0  0  0  0
  142.8330   75.9200  218.7690 C   0  0  0  0  0  0  0  0  0  0  0  0
  143.5460   75.8660  217.5730 C   0  0  0  0  0  0  0  0  0  0  0  0
  143.3660   76.7340  216.6750 O   0  0  0  0  0  0  0  0  0  0  0  0
  144.4530   74.8470  217.3970 N   0  0  0  0  0  0  0  0  0  0  0  0
  145.2530   74.7830  216.1620 C   0  0  0  0  0  0  0  0  0  0  0  0
  146.3190   74.6977  216.4197 H   0  0  0  0  0  0  0  0  0  0  0  0
  144.9471   73.9065  215.5720 H   0  0  0  0  0  0  0  0  0  0  0  0
  145.0904   75.6970  215.5720 H   0  0  0  0  0  0  0  0  0  0  0  0
  144.6710   73.9240  218.4060 C   0  0  0  0  0  0  0  0  0  0  0  0
  145.5560   73.0340  218.2620 O   0  0  0  0  0  0  0  0  0  0  0  0
  143.9360   73.9670  219.5700 N   0  0  0  0  0  0  0  0  0  0  0  0
  144.1690   73.0020  220.6520 C   0  0  0  0  0  0  0  0  0  0  0  0
  144.0478   73.5039  221.6233 H   0  0  0  0  0  0  0  0  0  0  0  0
  143.4438   72.1788  220.5716 H   0  0  0  0  0  0  0  0  0  0  0  0
  145.1899   72.6004  220.5716 H   0  0  0  0  0  0  0  0  0  0  0  0
  1  2  1  0
  2  3  2  0
  3  4  1  0
  4  5  1  0
  3  6  1  0
  6  7  1  0
  6  8  1  0
  6  9  1  0
  9 10  1  0
 10 11  1  0
 11 12  1  0
 11 13  1  0
 11 14  1  0
 14 15  1  0
 15 16  1  0
 15 17  1  0
 15 18  1  0
 18 19  1  0
 18 20  1  0
 18 21  1  0
 21 22  1  0
 21 23  1  0
 23 24  1  0
 23 25  1  0
 23 26  1  0
 21 27  1  0
 27 28  1  0
 27 29  1  0
 27 30  1  0
 30 31  1  0
 30 32  1  0
 10 33  2  0
 33 34  1  0
 34 35  2  0
 35 36  1  0
 36 37  2  0
 36 38  1  0
 38 39  1  0
 39 40  1  0
 39 41  1  0
 39 42  1  0
 38 43  1  0
 43 44  2  0
 43 45  1  0
 45 46  1  0
 46 47  1  0
 46 48  1  0
 46 49  1  0
 35  9  1  0
 30 14  1  0
 45 34  1  0
M  END
>  <UniqueID>  (21) 
14

>  <SMILES>  (21) 
[H]/N=C(/O)Cn1c(CN2CCC(C)CC2)nc2c1c(=O)n(C)c(=O)n2C

>  <Energy>  (21) 
97.5351420649112

>  <Genealogy>  (21) 
CC1CCN(Cc2nc3c(c(=O)n(C)c(=O)n3C)n2CC(=N)O)CC1 (tautomer)
[H]/N=C(/O)Cn1c(CN2CCC(C)CC2)nc2c1c(=O)n(C)c(=O)n2C (cis-trans isomerization)
[H]/N=C(/O)Cn1c(CN2CCC(C)CC2)nc2c1c(=O)n(C)c(=O)n2C (3D coordinates assigned)
[H]/N=C(/O)Cn1c(CN2CCC(C)CC2)nc2c1c(=O)n(C)c(=O)n2C (nonaromatic ring conformer: 97.5351420649112 kcal/mol)

>  <smiles>  (21) 
CC1CCN(Cc2nc3c(c(=O)n(C)c(=O)n3C)n2CC(N)=O)CC1

>  <score_type>  (21) 
oracle

>  <origin>  (21) 
autodockgpu

>  <m_score__min__energy>  (21) 
-5.3399999999999999

>  <m_primary>  (21) 
energy

>  <meeko>  (21) 
{"free_energy": -4.9, "intermolecular_energy": -6.69, "internal_energy": -2.38, "cluster_size": 8, "cluster_id": 2, "rank_in_cluster": 2}

>  <energy>  (21) 
-5.34

>  <cluster_rmsd>  (21) 
0.0

>  <rmsd>  (21) 
271.71

>  <cluster>  (21) 
1

$$$$
IQOSOXOZFSRASN-WAHAVJNONA-N
     RDKit          3D

 49 51  0  0  0  0  0  0  0  0999 V2000
  143.4490   78.8940  217.0700 H   0  0  0  0  0  0  0  0  0  0  0  0
  142.9210   79.5390  217.7000 N   0  0  0  0  0  0  0  0  0  0  0  0
  142.1900   79.1070  218.6780 C   0  0  0  0  0  0  0  0  0  0  0  0
  142.2240   79.7640  219.9060 O   0  0  0  0  0  0  0  0  0  0  0  0
  142.3890   79.2560  220.7670 H   0  0  0  0  0  0  0  0  0  0  0  0
  141.3080   77.9030  218.5160 C   0  0  0  0  0  0  0  0  0  0  0  0
  140.3096   78.1263  218.9202 H   0  0  0  0  0  0  0  0  0  0  0  0
  141.2318   77.6535  217.4474 H   0  0  0  0  0  0  0  0  0  0  0  0
  141.8790   76.7590  219.2370 N   0  0  0  0  0  0  0  0  0  0  0  0
  141.5260   76.2890  220.4690 C   0  0  0  0  0  0  0  0  0  0  0  0
  140.5010   76.9150  221.3750 C   0  0  0  0  0  0  0  0  0  0  0  0
  139.6260   77.2161  220.7803 H   0  0  0  0  0  0  0  0  0  0  0  0
  140.2020   76.1821  222.1388 H   0  0  0  0  0  0  0  0  0  0  0  0
  141.0680   78.1020  222.0430 N   0  0  0  0  0  0  0  0  0  0  0  0
  141.4560   77.7720  223.4340 C   0  0  0  0  0  0  0  0  0  0  0  0
  140.6407   77.1982  223.8987 H   0  0  0  0  0  0  0  0  0  0  0  0
  142.3901   77.1930  223.3869 H   0  0  0  0  0  0  0  0  0  0  0  0
  141.7310   79.0250  224.2970 C   0  0  0  0  0  0  0  0  0  0  0  0
  140.8554   79.2113  224.9362 H   0  0  0  0  0  0  0  0  0  0  0  0
  142.6343   78.8268  224.8926 H   0  0  0  0  0  0  0  0  0  0  0  0
  141.9990   80.2830  223.4490 C   0  0  0  0  0  0  0  0  0  0  0  0
  142.0487   81.1478  224.1269 H   0  0  0  0  0  0  0  0  0  0  0  0
  143.3560   80.1970  222.7320 C   0  0  0  0  0  0  0  0  0  0  0  0
  144.1625   80.1459  223.4783 H   0  0  0  0  0  0  0  0  0  0  0  0
  143.3815   79.2954  222.1023 H   0  0  0  0  0  0  0  0  0  0  0  0
  143.4951   81.0881  222.1023 H   0  0  0  0  0  0  0  0  0  0  0  0
  140.8380   80.5320  222.4550 C   0  0  0  0  0  0  0  0  0  0  0  0
  140.1004   81.1909  222.9366 H   0  0  0  0  0  0  0  0  0  0  0  0
  141.2716   80.9880  221.5528 H   0  0  0  0  0  0  0  0  0  0  0  0
  140.1270   79.2380  222.0180 C   0  0  0  0  0  0  0  0  0  0  0  0
  139.2926   79.0330  222.7048 H   0  0  0  0  0  0  0  0  0  0  0  0
  139.7491   79.3666  220.9930 H   0  0  0  0  0  0  0  0  0  0  0  0
  142.2150   75.1800  220.8400 N   0  0  0  0  0  0  0  0  0  0  0  0
  143.0100   74.9480  219.7790 C   0  0  0  0  0  0  0  0  0  0  0  0
  142.8110   75.8790  218.8150 C   0  0  0  0  0  0  0  0  0  0  0  0
  143.5320   75.8100  217.6240 C   0  0  0  0  0  0  0  0  0  0  0  0
  143.3590   76.6680  216.7150 O   0  0  0  0  0  0  0  0  0  0  0  0
  144.4380   74.7870  217.4650 N   0  0  0  0  0  0  0  0  0  0  0  0
  145.2460   74.7070  216.2360 C   0  0  0  0  0  0  0  0  0  0  0  0
  146.3082   74.6018  216.5017 H   0  0  0  0  0  0  0  0  0  0  0  0
  144.9281   73.8359  215.6442 H   0  0  0  0  0  0  0  0  0  0  0  0
  145.1051   75.6235  215.6442 H   0  0  0  0  0  0  0  0  0  0  0  0
  144.6470   73.8750  218.4860 C   0  0  0  0  0  0  0  0  0  0  0  0
  145.5310   72.9820  218.3570 O   0  0  0  0  0  0  0  0  0  0  0  0
  143.9050   73.9330  219.6440 N   0  0  0  0  0  0  0  0  0  0  0  0
  144.1290   72.9800  220.7390 C   0  0  0  0  0  0  0  0  0  0  0  0
  144.0080   73.4947  221.7036 H   0  0  0  0  0  0  0  0  0  0  0  0
  143.3991   72.1603  220.6667 H   0  0  0  0  0  0  0  0  0  0  0  0
  145.1477   72.5713  220.6667 H   0  0  0  0  0  0  0  0  0  0  0  0
  1  2  1  0
  2  3  2  0
  3  4  1  0
  4  5  1  0
  3  6  1  0
  6  7  1  0
  6  8  1  0
  6  9  1  0
  9 10  1  0
 10 11  1  0
 11 12  1  0
 11 13  1  0
 11 14  1  0
 14 15  1  0
 15 16  1  0
 15 17  1  0
 15 18  1  0
 18 19  1  0
 18 20  1  0
 18 21  1  0
 21 22  1  0
 21 23  1  0
 23 24  1  0
 23 25  1  0
 23 26  1  0
 21 27  1  0
 27 28  1  0
 27 29  1  0
 27 30  1  0
 30 31  1  0
 30 32  1  0
 10 33  2  0
 33 34  1  0
 34 35  2  0
 35 36  1  0
 36 37  2  0
 36 38  1  0
 38 39  1  0
 39 40  1  0
 39 41  1  0
 39 42  1  0
 38 43  1  0
 43 44  2  0
 43 45  1  0
 45 46  1  0
 46 47  1  0
 46 48  1  0
 46 49  1  0
 35  9  1  0
 30 14  1  0
 45 34  1  0
M  END
>  <UniqueID>  (22) 
14

>  <SMILES>  (22) 
[H]/N=C(/O)Cn1c(CN2CCC(C)CC2)nc2c1c(=O)n(C)c(=O)n2C

>  <Energy>  (22) 
97.5351420649112

>  <Genealogy>  (22) 
CC1CCN(Cc2nc3c(c(=O)n(C)c(=O)n3C)n2CC(=N)O)CC1 (tautomer)
[H]/N=C(/O)Cn1c(CN2CCC(C)CC2)nc2c1c(=O)n(C)c(=O)n2C (cis-trans isomerization)
[H]/N=C(/O)Cn1c(CN2CCC(C)CC2)nc2c1c(=O)n(C)c(=O)n2C (3D coordinates assigned)
[H]/N=C(/O)Cn1c(CN2CCC(C)CC2)nc2c1c(=O)n(C)c(=O)n2C (nonaromatic ring conformer: 97.5351420649112 kcal/mol)

>  <smiles>  (22) 
CC1CCN(Cc2nc3c(c(=O)n(C)c(=O)n3C)n2CC(N)=O)CC1

>  <score_type>  (22) 
oracle

>  <origin>  (22) 
autodockgpu

>  <m_score__min__energy>  (22) 
-5.3399999999999999

>  <m_primary>  (22) 
energy

>  <meeko>  (22) 
{"free_energy": -4.89, "intermolecular_energy": -6.68, "internal_energy": -2.37, "cluster_size": 8, "cluster_id": 2, "rank_in_cluster": 4}

>  <energy>  (22) 
-4.9

>  <cluster_rmsd>  (22) 
0.0

>  <rmsd>  (22) 
271.71

>  <cluster>  (22) 
2

$$$$
IQOSOXOZFSRASN-WAHAVJNONA-N
     RDKit          3D

 49 51  0  0  0  0  0  0  0  0999 V2000
  143.4350   78.8970  217.0740 H   0  0  0  0  0  0  0  0  0  0  0  0
  142.9160   79.5490  217.7050 N   0  0  0  0  0  0  0  0  0  0  0  0
  142.1880   79.1250  218.6900 C   0  0  0  0  0  0  0  0  0  0  0  0
  142.2300   79.7910  219.9120 O   0  0  0  0  0  0  0  0  0  0  0  0
  142.4150   79.2910  220.7740 H   0  0  0  0  0  0  0  0  0  0  0  0
  141.3030   77.9220  218.5400 C   0  0  0  0  0  0  0  0  0  0  0  0
  140.3096   78.1470  218.9553 H   0  0  0  0  0  0  0  0  0  0  0  0
  141.2141   77.6710  217.4727 H   0  0  0  0  0  0  0  0  0  0  0  0
  141.8810   76.7790  219.2560 N   0  0  0  0  0  0  0  0  0  0  0  0
  141.5350   76.3040  220.4890 C   0  0  0  0  0  0  0  0  0  0  0  0
  140.5120   76.9240  221.4010 C   0  0  0  0  0  0  0  0  0  0  0  0
  139.6283   77.2125  220.8129 H   0  0  0  0  0  0  0  0  0  0  0  0
  140.2278   76.1923  222.1716 H   0  0  0  0  0  0  0  0  0  0  0  0
  141.0730   78.1210  222.0570 N   0  0  0  0  0  0  0  0  0  0  0  0
  141.4740   77.8030  223.4480 C   0  0  0  0  0  0  0  0  0  0  0  0
  140.6671   77.2252  223.9225 H   0  0  0  0  0  0  0  0  0  0  0  0
  142.4124   77.2312  223.3984 H   0  0  0  0  0  0  0  0  0  0  0  0
  141.7440   79.0650  224.3000 C   0  0  0  0  0  0  0  0  0  0  0  0
  140.8715   79.2478  224.9445 H   0  0  0  0  0  0  0  0  0  0  0  0
  142.6537   78.8793  224.8899 H   0  0  0  0  0  0  0  0  0  0  0  0
  141.9940   80.3190  223.4420 C   0  0  0  0  0  0  0  0  0  0  0  0
  142.0403   81.1887  224.1139 H   0  0  0  0  0  0  0  0  0  0  0  0
  143.3470   80.2410  222.7160 C   0  0  0  0  0  0  0  0  0  0  0  0
  144.1586   80.1942  223.4570 H   0  0  0  0  0  0  0  0  0  0  0  0
  143.3735   79.3398  222.0858 H   0  0  0  0  0  0  0  0  0  0  0  0
  143.4769   81.1331  222.0858 H   0  0  0  0  0  0  0  0  0  0  0  0
  140.8240   80.5510  222.4550 C   0  0  0  0  0  0  0  0  0  0  0  0
  140.0838   81.2060  222.9378 H   0  0  0  0  0  0  0  0  0  0  0  0
  141.2471   81.0053  221.5469 H   0  0  0  0  0  0  0  0  0  0  0  0
  140.1220   79.2480  222.0310 C   0  0  0  0  0  0  0  0  0  0  0  0
  139.2940   79.0399  222.7246 H   0  0  0  0  0  0  0  0  0  0  0  0
  139.7364   79.3666  221.0077 H   0  0  0  0  0  0  0  0  0  0  0  0
  142.2300   75.1970  220.8540 N   0  0  0  0  0  0  0  0  0  0  0  0
  143.0210   74.9700  219.7880 C   0  0  0  0  0  0  0  0  0  0  0  0
  142.8150   75.9030  218.8270 C   0  0  0  0  0  0  0  0  0  0  0  0
  143.5300   75.8390  217.6330 C   0  0  0  0  0  0  0  0  0  0  0  0
  143.3500   76.6980  216.7270 O   0  0  0  0  0  0  0  0  0  0  0  0
  144.4380   74.8190  217.4680 N   0  0  0  0  0  0  0  0  0  0  0  0
  145.2410   74.7460  216.2350 C   0  0  0  0  0  0  0  0  0  0  0  0
  146.3053   74.6493  216.4957 H   0  0  0  0  0  0  0  0  0  0  0  0
  144.9273   73.8727  215.6443 H   0  0  0  0  0  0  0  0  0  0  0  0
  145.0900   75.6616  215.6443 H   0  0  0  0  0  0  0  0  0  0  0  0
  144.6550   73.9060  218.4850 C   0  0  0  0  0  0  0  0  0  0  0  0
  145.5420   73.0160  218.3500 O   0  0  0  0  0  0  0  0  0  0  0  0
  143.9190   73.9580  219.6470 N   0  0  0  0  0  0  0  0  0  0  0  0
  144.1510   73.0030  220.7380 C   0  0  0  0  0  0  0  0  0  0  0  0
  144.0270   73.5133  221.7046 H   0  0  0  0  0  0  0  0  0  0  0  0
  143.4271   72.1781  220.6634 H   0  0  0  0  0  0  0  0  0  0  0  0
  145.1726   72.6022  220.6634 H   0  0  0  0  0  0  0  0  0  0  0  0
  1  2  1  0
  2  3  2  0
  3  4  1  0
  4  5  1  0
  3  6  1  0
  6  7  1  0
  6  8  1  0
  6  9  1  0
  9 10  1  0
 10 11  1  0
 11 12  1  0
 11 13  1  0
 11 14  1  0
 14 15  1  0
 15 16  1  0
 15 17  1  0
 15 18  1  0
 18 19  1  0
 18 20  1  0
 18 21  1  0
 21 22  1  0
 21 23  1  0
 23 24  1  0
 23 25  1  0
 23 26  1  0
 21 27  1  0
 27 28  1  0
 27 29  1  0
 27 30  1  0
 30 31  1  0
 30 32  1  0
 10 33  2  0
 33 34  1  0
 34 35  2  0
 35 36  1  0
 36 37  2  0
 36 38  1  0
 38 39  1  0
 39 40  1  0
 39 41  1  0
 39 42  1  0
 38 43  1  0
 43 44  2  0
 43 45  1  0
 45 46  1  0
 46 47  1  0
 46 48  1  0
 46 49  1  0
 35  9  1  0
 30 14  1  0
 45 34  1  0
M  END
>  <UniqueID>  (23) 
14

>  <SMILES>  (23) 
[H]/N=C(/O)Cn1c(CN2CCC(C)CC2)nc2c1c(=O)n(C)c(=O)n2C

>  <Energy>  (23) 
97.5351420649112

>  <Genealogy>  (23) 
CC1CCN(Cc2nc3c(c(=O)n(C)c(=O)n3C)n2CC(=N)O)CC1 (tautomer)
[H]/N=C(/O)Cn1c(CN2CCC(C)CC2)nc2c1c(=O)n(C)c(=O)n2C (cis-trans isomerization)
[H]/N=C(/O)Cn1c(CN2CCC(C)CC2)nc2c1c(=O)n(C)c(=O)n2C (3D coordinates assigned)
[H]/N=C(/O)Cn1c(CN2CCC(C)CC2)nc2c1c(=O)n(C)c(=O)n2C (nonaromatic ring conformer: 97.5351420649112 kcal/mol)

>  <smiles>  (23) 
CC1CCN(Cc2nc3c(c(=O)n(C)c(=O)n3C)n2CC(N)=O)CC1

>  <score_type>  (23) 
oracle

>  <origin>  (23) 
autodockgpu

>  <m_score__min__energy>  (23) 
-5.3399999999999999

>  <m_primary>  (23) 
energy

>  <meeko>  (23) 
{"free_energy": -4.87, "intermolecular_energy": -6.66, "internal_energy": -2.39, "cluster_size": 8, "cluster_id": 2, "rank_in_cluster": 7}

>  <energy>  (23) 
-4.9

>  <cluster_rmsd>  (23) 
0.04

>  <rmsd>  (23) 
271.69

>  <cluster>  (23) 
2

$$$$
IQOSOXOZFSRASN-WAHAVJNONA-N
     RDKit          3D

 49 51  0  0  0  0  0  0  0  0999 V2000
  143.4510   78.9000  217.0220 H   0  0  0  0  0  0  0  0  0  0  0  0
  142.9230   79.5530  217.6440 N   0  0  0  0  0  0  0  0  0  0  0  0
  142.1870   79.1330  218.6240 C   0  0  0  0  0  0  0  0  0  0  0  0
  142.2180   79.8020  219.8450 O   0  0  0  0  0  0  0  0  0  0  0  0
  142.3970   79.3060  220.7100 H   0  0  0  0  0  0  0  0  0  0  0  0
  141.3050   77.9280  218.4700 C   0  0  0  0  0  0  0  0  0  0  0  0
  140.3076   78.1530  218.8757 H   0  0  0  0  0  0  0  0  0  0  0  0
  141.2264   77.6735  217.4027 H   0  0  0  0  0  0  0  0  0  0  0  0
  141.8780   76.7870  219.1950 N   0  0  0  0  0  0  0  0  0  0  0  0
  141.5230   76.3170  220.4270 C   0  0  0  0  0  0  0  0  0  0  0  0
  140.4930   76.9400  221.3280 C   0  0  0  0  0  0  0  0  0  0  0  0
  139.6121   77.2213  220.7323 H   0  0  0  0  0  0  0  0  0  0  0  0
  140.2072   76.2126  222.1021 H   0  0  0  0  0  0  0  0  0  0  0  0
  141.0450   78.1440  221.9800 N   0  0  0  0  0  0  0  0  0  0  0  0
  141.4400   77.8360  223.3740 C   0  0  0  0  0  0  0  0  0  0  0  0
  140.6330   77.2582  223.8482 H   0  0  0  0  0  0  0  0  0  0  0  0
  142.3805   77.2670  223.3330 H   0  0  0  0  0  0  0  0  0  0  0  0
  141.7010   79.1050  224.2190 C   0  0  0  0  0  0  0  0  0  0  0  0
  140.8248   79.2886  224.8581 H   0  0  0  0  0  0  0  0  0  0  0  0
  142.6086   78.9269  224.8143 H   0  0  0  0  0  0  0  0  0  0  0  0
  141.9500   80.3540  223.3540 C   0  0  0  0  0  0  0  0  0  0  0  0
  141.9885   81.2282  224.0205 H   0  0  0  0  0  0  0  0  0  0  0  0
  143.3080   80.2770  222.6360 C   0  0  0  0  0  0  0  0  0  0  0  0
  144.1151   80.2312  223.3820 H   0  0  0  0  0  0  0  0  0  0  0  0
  143.3392   79.3756  222.0063 H   0  0  0  0  0  0  0  0  0  0  0  0
  143.4409   81.1691  222.0063 H   0  0  0  0  0  0  0  0  0  0  0  0
  140.7840   80.5760  222.3590 C   0  0  0  0  0  0  0  0  0  0  0  0
  140.0387   81.2313  222.8334 H   0  0  0  0  0  0  0  0  0  0  0  0
  141.2091   81.0269  221.4502 H   0  0  0  0  0  0  0  0  0  0  0  0
  140.0900   79.2660  221.9410 C   0  0  0  0  0  0  0  0  0  0  0  0
  139.2594   79.0593  222.6319 H   0  0  0  0  0  0  0  0  0  0  0  0
  139.7094   79.3753  220.9148 H   0  0  0  0  0  0  0  0  0  0  0  0
  142.2160   75.2110  220.8010 N   0  0  0  0  0  0  0  0  0  0  0  0
  143.0150   74.9820  219.7430 C   0  0  0  0  0  0  0  0  0  0  0  0
  142.8160   75.9100  218.7770 C   0  0  0  0  0  0  0  0  0  0  0  0
  143.5400   75.8430  217.5880 C   0  0  0  0  0  0  0  0  0  0  0  0
  143.3670   76.6980  216.6780 O   0  0  0  0  0  0  0  0  0  0  0  0
  144.4510   74.8220  217.4340 N   0  0  0  0  0  0  0  0  0  0  0  0
  145.2630   74.7450  216.2080 C   0  0  0  0  0  0  0  0  0  0  0  0
  146.3248   74.6443  216.4772 H   0  0  0  0  0  0  0  0  0  0  0  0
  144.9506   73.8725  215.6155 H   0  0  0  0  0  0  0  0  0  0  0  0
  145.1202   75.6607  215.6155 H   0  0  0  0  0  0  0  0  0  0  0  0
  144.6600   73.9130  218.4570 C   0  0  0  0  0  0  0  0  0  0  0  0
  145.5490   73.0230  218.3320 O   0  0  0  0  0  0  0  0  0  0  0  0
  143.9140   73.9700  219.6130 N   0  0  0  0  0  0  0  0  0  0  0  0
  144.1390   73.0190  220.7090 C   0  0  0  0  0  0  0  0  0  0  0  0
  144.0170   73.5348  221.6729 H   0  0  0  0  0  0  0  0  0  0  0  0
  143.4103   72.1981  220.6376 H   0  0  0  0  0  0  0  0  0  0  0  0
  145.1583   72.6117  220.6376 H   0  0  0  0  0  0  0  0  0  0  0  0
  1  2  1  0
  2  3  2  0
  3  4  1  0
  4  5  1  0
  3  6  1  0
  6  7  1  0
  6  8  1  0
  6  9  1  0
  9 10  1  0
 10 11  1  0
 11 12  1  0
 11 13  1  0
 11 14  1  0
 14 15  1  0
 15 16  1  0
 15 17  1  0
 15 18  1  0
 18 19  1  0
 18 20  1  0
 18 21  1  0
 21 22  1  0
 21 23  1  0
 23 24  1  0
 23 25  1  0
 23 26  1  0
 21 27  1  0
 27 28  1  0
 27 29  1  0
 27 30  1  0
 30 31  1  0
 30 32  1  0
 10 33  2  0
 33 34  1  0
 34 35  2  0
 35 36  1  0
 36 37  2  0
 36 38  1  0
 38 39  1  0
 39 40  1  0
 39 41  1  0
 39 42  1  0
 38 43  1  0
 43 44  2  0
 43 45  1  0
 45 46  1  0
 46 47  1  0
 46 48  1  0
 46 49  1  0
 35  9  1  0
 30 14  1  0
 45 34  1  0
M  END
>  <UniqueID>  (24) 
14

>  <SMILES>  (24) 
[H]/N=C(/O)Cn1c(CN2CCC(C)CC2)nc2c1c(=O)n(C)c(=O)n2C

>  <Energy>  (24) 
97.5351420649112

>  <Genealogy>  (24) 
CC1CCN(Cc2nc3c(c(=O)n(C)c(=O)n3C)n2CC(=N)O)CC1 (tautomer)
[H]/N=C(/O)Cn1c(CN2CCC(C)CC2)nc2c1c(=O)n(C)c(=O)n2C (cis-trans isomerization)
[H]/N=C(/O)Cn1c(CN2CCC(C)CC2)nc2c1c(=O)n(C)c(=O)n2C (3D coordinates assigned)
[H]/N=C(/O)Cn1c(CN2CCC(C)CC2)nc2c1c(=O)n(C)c(=O)n2C (nonaromatic ring conformer: 97.5351420649112 kcal/mol)

>  <smiles>  (24) 
CC1CCN(Cc2nc3c(c(=O)n(C)c(=O)n3C)n2CC(N)=O)CC1

>  <score_type>  (24) 
oracle

>  <origin>  (24) 
autodockgpu

>  <m_score__min__energy>  (24) 
-5.3399999999999999

>  <m_primary>  (24) 
energy

>  <meeko>  (24) 
{"free_energy": -4.88, "intermolecular_energy": -6.67, "internal_energy": -2.39, "cluster_size": 8, "cluster_id": 2, "rank_in_cluster": 5}

>  <energy>  (24) 
-4.9

>  <cluster_rmsd>  (24) 
0.04

>  <rmsd>  (24) 
271.71

>  <cluster>  (24) 
2

$$$$
IQOSOXOZFSRASN-WAHAVJNONA-N
     RDKit          3D

 49 51  0  0  0  0  0  0  0  0999 V2000
  142.3570   79.3100  220.6500 H   0  0  0  0  0  0  0  0  0  0  0  0
  142.1910   79.7780  219.7310 N   0  0  0  0  0  0  0  0  0  0  0  0
  142.1650   79.1210  218.6140 C   0  0  0  0  0  0  0  0  0  0  0  0
  142.9430   79.5520  217.5430 O   0  0  0  0  0  0  0  0  0  0  0  0
  143.4490   78.8910  216.9640 H   0  0  0  0  0  0  0  0  0  0  0  0
  141.3010   77.9040  218.4500 C   0  0  0  0  0  0  0  0  0  0  0  0
  140.2965   78.1150  218.8454 H   0  0  0  0  0  0  0  0  0  0  0  0
  141.2368   77.6493  217.3818 H   0  0  0  0  0  0  0  0  0  0  0  0
  141.8820   76.7710  219.1800 N   0  0  0  0  0  0  0  0  0  0  0  0
  141.5350   76.3080  220.4170 C   0  0  0  0  0  0  0  0  0  0  0  0
  140.5060   76.9340  221.3190 C   0  0  0  0  0  0  0  0  0  0  0  0
  139.6329   77.2337  220.7208 H   0  0  0  0  0  0  0  0  0  0  0  0
  140.2052   76.2014  222.0824 H   0  0  0  0  0  0  0  0  0  0  0  0
  141.0690   78.1220  221.9880 N   0  0  0  0  0  0  0  0  0  0  0  0
  141.4500   77.7940  223.3820 C   0  0  0  0  0  0  0  0  0  0  0  0
  140.6322   77.2215  223.8439 H   0  0  0  0  0  0  0  0  0  0  0  0
  142.3837   77.2140  223.3411 H   0  0  0  0  0  0  0  0  0  0  0  0
  141.7210   79.0490  224.2430 C   0  0  0  0  0  0  0  0  0  0  0  0
  140.8426   79.2362  224.8782 H   0  0  0  0  0  0  0  0  0  0  0  0
  142.6223   78.8522  224.8421 H   0  0  0  0  0  0  0  0  0  0  0  0
  141.9920   80.3050  223.3950 C   0  0  0  0  0  0  0  0  0  0  0  0
  142.0366   81.1709  224.0720 H   0  0  0  0  0  0  0  0  0  0  0  0
  143.3540   80.2190  222.6860 C   0  0  0  0  0  0  0  0  0  0  0  0
  144.1559   80.1684  223.4373 H   0  0  0  0  0  0  0  0  0  0  0  0
  143.3836   79.3172  222.0568 H   0  0  0  0  0  0  0  0  0  0  0  0
  143.4967   81.1099  222.0568 H   0  0  0  0  0  0  0  0  0  0  0  0
  140.8370   80.5530  222.3950 C   0  0  0  0  0  0  0  0  0  0  0  0
  140.0967   81.2123  222.8718 H   0  0  0  0  0  0  0  0  0  0  0  0
  141.2751   81.0085  221.4947 H   0  0  0  0  0  0  0  0  0  0  0  0
  140.1290   79.2580  221.9560 C   0  0  0  0  0  0  0  0  0  0  0  0
  139.2906   79.0541  222.6383 H   0  0  0  0  0  0  0  0  0  0  0  0
  139.7577   79.3851  220.9284 H   0  0  0  0  0  0  0  0  0  0  0  0
  142.2340   75.2080  220.7960 N   0  0  0  0  0  0  0  0  0  0  0  0
  143.0280   74.9740  219.7350 C   0  0  0  0  0  0  0  0  0  0  0  0
  142.8210   75.8950  218.7630 C   0  0  0  0  0  0  0  0  0  0  0  0
  143.5400   75.8220  217.5720 C   0  0  0  0  0  0  0  0  0  0  0  0
  143.3590   76.6710  216.6560 O   0  0  0  0  0  0  0  0  0  0  0  0
  144.4540   74.8050  217.4210 N   0  0  0  0  0  0  0  0  0  0  0  0
  145.2610   74.7220  216.1910 C   0  0  0  0  0  0  0  0  0  0  0  0
  146.3230   74.6128  216.4559 H   0  0  0  0  0  0  0  0  0  0  0  0
  144.9393   73.8522  215.5994 H   0  0  0  0  0  0  0  0  0  0  0  0
  145.1231   75.6391  215.5994 H   0  0  0  0  0  0  0  0  0  0  0  0
  144.6720   73.9040  218.4490 C   0  0  0  0  0  0  0  0  0  0  0  0
  145.5640   73.0160  218.3260 O   0  0  0  0  0  0  0  0  0  0  0  0
  143.9320   73.9650  219.6080 N   0  0  0  0  0  0  0  0  0  0  0  0
  144.1650   73.0230  220.7100 C   0  0  0  0  0  0  0  0  0  0  0  0
  144.0363   73.5434  221.6706 H   0  0  0  0  0  0  0  0  0  0  0  0
  143.4447   72.1943  220.6425 H   0  0  0  0  0  0  0  0  0  0  0  0
  145.1885   72.6256  220.6425 H   0  0  0  0  0  0  0  0  0  0  0  0
  1  2  1  0
  2  3  2  0
  3  4  1  0
  4  5  1  0
  3  6  1  0
  6  7  1  0
  6  8  1  0
  6  9  1  0
  9 10  1  0
 10 11  1  0
 11 12  1  0
 11 13  1  0
 11 14  1  0
 14 15  1  0
 15 16  1  0
 15 17  1  0
 15 18  1  0
 18 19  1  0
 18 20  1  0
 18 21  1  0
 21 22  1  0
 21 23  1  0
 23 24  1  0
 23 25  1  0
 23 26  1  0
 21 27  1  0
 27 28  1  0
 27 29  1  0
 27 30  1  0
 30 31  1  0
 30 32  1  0
 10 33  2  0
 33 34  1  0
 34 35  2  0
 35 36  1  0
 36 37  2  0
 36 38  1  0
 38 39  1  0
 39 40  1  0
 39 41  1  0
 39 42  1  0
 38 43  1  0
 43 44  2  0
 43 45  1  0
 45 46  1  0
 46 47  1  0
 46 48  1  0
 46 49  1  0
 35  9  1  0
 30 14  1  0
 45 34  1  0
M  END
>  <UniqueID>  (25) 
14

>  <SMILES>  (25) 
[H]/N=C(/O)Cn1c(CN2CCC(C)CC2)nc2c1c(=O)n(C)c(=O)n2C

>  <Energy>  (25) 
97.5351420649112

>  <Genealogy>  (25) 
CC1CCN(Cc2nc3c(c(=O)n(C)c(=O)n3C)n2CC(=N)O)CC1 (tautomer)
[H]/N=C(/O)Cn1c(CN2CCC(C)CC2)nc2c1c(=O)n(C)c(=O)n2C (cis-trans isomerization)
[H]/N=C(/O)Cn1c(CN2CCC(C)CC2)nc2c1c(=O)n(C)c(=O)n2C (3D coordinates assigned)
[H]/N=C(/O)Cn1c(CN2CCC(C)CC2)nc2c1c(=O)n(C)c(=O)n2C (nonaromatic ring conformer: 97.5351420649112 kcal/mol)

>  <smiles>  (25) 
CC1CCN(Cc2nc3c(c(=O)n(C)c(=O)n3C)n2CC(N)=O)CC1

>  <score_type>  (25) 
oracle

>  <origin>  (25) 
autodockgpu

>  <m_score__min__energy>  (25) 
-5.3399999999999999

>  <m_primary>  (25) 
energy

>  <meeko>  (25) 
{"free_energy": -4.87, "intermolecular_energy": -6.66, "internal_energy": -2.35, "cluster_size": 8, "cluster_id": 2, "rank_in_cluster": 6}

>  <energy>  (25) 
-4.89

>  <cluster_rmsd>  (25) 
0.06

>  <rmsd>  (25) 
271.71

>  <cluster>  (25) 
2

$$$$
IQOSOXOZFSRASN-WAHAVJNONA-N
     RDKit          3D

 49 51  0  0  0  0  0  0  0  0999 V2000
  139.8130   78.7610  222.6340 H   0  0  0  0  0  0  0  0  0  0  0  0
  139.2560   77.9970  223.0800 N   0  0  0  0  0  0  0  0  0  0  0  0
  138.8000   76.9880  222.4070 C   0  0  0  0  0  0  0  0  0  0  0  0
  138.1070   75.9770  223.0670 O   0  0  0  0  0  0  0  0  0  0  0  0
  138.4620   75.0280  223.0910 H   0  0  0  0  0  0  0  0  0  0  0  0
  139.0110   76.8850  220.9250 C   0  0  0  0  0  0  0  0  0  0  0  0
  138.3141   76.1425  220.5089 H   0  0  0  0  0  0  0  0  0  0  0  0
  138.8283   77.8678  220.4659 H   0  0  0  0  0  0  0  0  0  0  0  0
  140.3900   76.4700  220.6400 N   0  0  0  0  0  0  0  0  0  0  0  0
  141.4340   77.2560  220.2430 C   0  0  0  0  0  0  0  0  0  0  0  0
  141.3460   78.7280  219.9470 C   0  0  0  0  0  0  0  0  0  0  0  0
  142.2506   79.0446  219.4072 H   0  0  0  0  0  0  0  0  0  0  0  0
  140.4547   78.9170  219.3306 H   0  0  0  0  0  0  0  0  0  0  0  0
  141.2340   79.4960  221.2030 N   0  0  0  0  0  0  0  0  0  0  0  0
  141.4140   80.9420  220.9380 C   0  0  0  0  0  0  0  0  0  0  0  0
  142.2804   81.0719  220.2728 H   0  0  0  0  0  0  0  0  0  0  0  0
  140.4858   81.3116  220.4777 H   0  0  0  0  0  0  0  0  0  0  0  0
  141.6530   81.7640  222.2260 C   0  0  0  0  0  0  0  0  0  0  0  0
  142.7277   81.9831  222.3092 H   0  0  0  0  0  0  0  0  0  0  0  0
  141.0549   82.6839  222.1486 H   0  0  0  0  0  0  0  0  0  0  0  0
  141.2020   81.0220  223.4970 C   0  0  0  0  0  0  0  0  0  0  0  0
  141.5285   81.6084  224.3685 H   0  0  0  0  0  0  0  0  0  0  0  0
  139.6690   80.9210  223.5730 C   0  0  0  0  0  0  0  0  0  0  0  0
  139.3547   80.9003  224.6269 H   0  0  0  0  0  0  0  0  0  0  0  0
  139.2190   81.7914  223.0732 H   0  0  0  0  0  0  0  0  0  0  0  0
  139.3371   79.9990  223.0732 H   0  0  0  0  0  0  0  0  0  0  0  0
  141.8760   79.6310  223.5900 C   0  0  0  0  0  0  0  0  0  0  0  0
  142.8131   79.7332  224.1568 H   0  0  0  0  0  0  0  0  0  0  0  0
  141.1654   78.9547  224.0877 H   0  0  0  0  0  0  0  0  0  0  0  0
  142.2000   79.0240  222.2130 C   0  0  0  0  0  0  0  0  0  0  0  0
  143.2144   79.3260  221.9133 H   0  0  0  0  0  0  0  0  0  0  0  0
  142.1370   77.9280  222.2823 H   0  0  0  0  0  0  0  0  0  0  0  0
  142.5990   76.5750  220.1060 N   0  0  0  0  0  0  0  0  0  0  0  0
  142.2600   75.3210  220.4570 C   0  0  0  0  0  0  0  0  0  0  0  0
  140.9470   75.2490  220.7850 C   0  0  0  0  0  0  0  0  0  0  0  0
  140.3970   74.0340  221.1900 C   0  0  0  0  0  0  0  0  0  0  0  0
  139.1770   73.9500  221.4990 O   0  0  0  0  0  0  0  0  0  0  0  0
  141.2160   72.9300  221.2400 N   0  0  0  0  0  0  0  0  0  0  0  0
  140.6590   71.6210  221.6240 C   0  0  0  0  0  0  0  0  0  0  0  0
  140.6262   71.5440  222.7208 H   0  0  0  0  0  0  0  0  0  0  0  0
  139.6410   71.5226  221.2189 H   0  0  0  0  0  0  0  0  0  0  0  0
  141.2939   70.8193  221.2189 H   0  0  0  0  0  0  0  0  0  0  0  0
  142.5440   73.0270  220.8600 C   0  0  0  0  0  0  0  0  0  0  0  0
  143.2690   71.9920  220.8430 O   0  0  0  0  0  0  0  0  0  0  0  0
  143.0840   74.2390  220.4940 N   0  0  0  0  0  0  0  0  0  0  0  0
  144.4870   74.3500  220.0750 C   0  0  0  0  0  0  0  0  0  0  0  0
  145.1323   74.4011  220.9643 H   0  0  0  0  0  0  0  0  0  0  0  0
  144.7607   73.4707  219.4734 H   0  0  0  0  0  0  0  0  0  0  0  0
  144.6190   75.2614  219.4734 H   0  0  0  0  0  0  0  0  0  0  0  0
  1  2  1  0
  2  3  2  0
  3  4  1  0
  4  5  1  0
  3  6  1  0
  6  7  1  0
  6  8  1  0
  6  9  1  0
  9 10  1  0
 10 11  1  0
 11 12  1  0
 11 13  1  0
 11 14  1  0
 14 15  1  0
 15 16  1  0
 15 17  1  0
 15 18  1  0
 18 19  1  0
 18 20  1  0
 18 21  1  0
 21 22  1  0
 21 23  1  0
 23 24  1  0
 23 25  1  0
 23 26  1  0
 21 27  1  0
 27 28  1  0
 27 29  1  0
 27 30  1  0
 30 31  1  0
 30 32  1  0
 10 33  2  0
 33 34  1  0
 34 35  2  0
 35 36  1  0
 36 37  2  0
 36 38  1  0
 38 39  1  0
 39 40  1  0
 39 41  1  0
 39 42  1  0
 38 43  1  0
 43 44  2  0
 43 45  1  0
 45 46  1  0
 46 47  1  0
 46 48  1  0
 46 49  1  0
 35  9  1  0
 30 14  1  0
 45 34  1  0
M  END
>  <UniqueID>  (26) 
14

>  <SMILES>  (26) 
[H]/N=C(/O)Cn1c(CN2CCC(C)CC2)nc2c1c(=O)n(C)c(=O)n2C

>  <Energy>  (26) 
97.5351420649112

>  <Genealogy>  (26) 
CC1CCN(Cc2nc3c(c(=O)n(C)c(=O)n3C)n2CC(=N)O)CC1 (tautomer)
[H]/N=C(/O)Cn1c(CN2CCC(C)CC2)nc2c1c(=O)n(C)c(=O)n2C (cis-trans isomerization)
[H]/N=C(/O)Cn1c(CN2CCC(C)CC2)nc2c1c(=O)n(C)c(=O)n2C (3D coordinates assigned)
[H]/N=C(/O)Cn1c(CN2CCC(C)CC2)nc2c1c(=O)n(C)c(=O)n2C (nonaromatic ring conformer: 97.5351420649112 kcal/mol)

>  <smiles>  (26) 
CC1CCN(Cc2nc3c(c(=O)n(C)c(=O)n3C)n2CC(N)=O)CC1

>  <score_type>  (26) 
oracle

>  <origin>  (26) 
autodockgpu

>  <m_score__min__energy>  (26) 
-5.3399999999999999

>  <m_primary>  (26) 
energy

>  <meeko>  (26) 
{"free_energy": -4.65, "intermolecular_energy": -6.44, "internal_energy": -2.47, "cluster_size": 11, "cluster_id": 3, "rank_in_cluster": 7}

>  <energy>  (26) 
-4.88

>  <cluster_rmsd>  (26) 
0.05

>  <rmsd>  (26) 
271.68

>  <cluster>  (26) 
2

$$$$
IQOSOXOZFSRASN-WAHAVJNONA-N
     RDKit          3D

 49 51  0  0  0  0  0  0  0  0999 V2000
  139.7540   78.7780  222.5620 H   0  0  0  0  0  0  0  0  0  0  0  0
  139.2480   78.0000  223.0430 N   0  0  0  0  0  0  0  0  0  0  0  0
  138.7840   76.9750  222.3990 C   0  0  0  0  0  0  0  0  0  0  0  0
  138.0900   75.9850  223.0900 O   0  0  0  0  0  0  0  0  0  0  0  0
  138.4090   75.0230  223.0870 H   0  0  0  0  0  0  0  0  0  0  0  0
  138.9890   76.8300  220.9190 C   0  0  0  0  0  0  0  0  0  0  0  0
  138.2973   76.0689  220.5287 H   0  0  0  0  0  0  0  0  0  0  0  0
  138.7948   77.7971  220.4322 H   0  0  0  0  0  0  0  0  0  0  0  0
  140.3700   76.4200  220.6390 N   0  0  0  0  0  0  0  0  0  0  0  0
  141.4090   77.2070  220.2330 C   0  0  0  0  0  0  0  0  0  0  0  0
  141.3130   78.6760  219.9210 C   0  0  0  0  0  0  0  0  0  0  0  0
  142.2074   78.9876  219.3615 H   0  0  0  0  0  0  0  0  0  0  0  0
  140.4105   78.8561  219.3184 H   0  0  0  0  0  0  0  0  0  0  0  0
  141.2220   79.4580  221.1680 N   0  0  0  0  0  0  0  0  0  0  0  0
  141.4070   80.9000  220.8840 C   0  0  0  0  0  0  0  0  0  0  0  0
  142.2656   81.0167  220.2064 H   0  0  0  0  0  0  0  0  0  0  0  0
  140.4746   81.2691  220.4318 H   0  0  0  0  0  0  0  0  0  0  0  0
  141.6670   81.7370  222.1580 C   0  0  0  0  0  0  0  0  0  0  0  0
  142.7438   81.9520  222.2244 H   0  0  0  0  0  0  0  0  0  0  0  0
  141.0728   82.6591  222.0772 H   0  0  0  0  0  0  0  0  0  0  0  0
  141.2290   81.0120  223.4440 C   0  0  0  0  0  0  0  0  0  0  0  0
  141.5712   81.6067  224.3038 H   0  0  0  0  0  0  0  0  0  0  0  0
  139.6970   80.9210  223.5420 C   0  0  0  0  0  0  0  0  0  0  0  0
  139.3977   80.9032  224.6004 H   0  0  0  0  0  0  0  0  0  0  0  0
  139.2455   81.7939  223.0479 H   0  0  0  0  0  0  0  0  0  0  0  0
  139.3520   80.0008  223.0479 H   0  0  0  0  0  0  0  0  0  0  0  0
  141.8960   79.6180  223.5450 C   0  0  0  0  0  0  0  0  0  0  0  0
  142.8408   79.7212  224.0988 H   0  0  0  0  0  0  0  0  0  0  0  0
  141.1879   78.9519  224.0596 H   0  0  0  0  0  0  0  0  0  0  0  0
  142.1990   78.9930  222.1710 C   0  0  0  0  0  0  0  0  0  0  0  0
  143.2109   79.2863  221.8546 H   0  0  0  0  0  0  0  0  0  0  0  0
  142.1316   77.8982  222.2542 H   0  0  0  0  0  0  0  0  0  0  0  0
  142.5790   76.5310  220.1040 N   0  0  0  0  0  0  0  0  0  0  0  0
  142.2470   75.2790  220.4690 C   0  0  0  0  0  0  0  0  0  0  0  0
  140.9340   75.2030  220.7970 C   0  0  0  0  0  0  0  0  0  0  0  0
  140.3910   73.9900  221.2170 C   0  0  0  0  0  0  0  0  0  0  0  0
  139.1720   73.9020  221.5270 O   0  0  0  0  0  0  0  0  0  0  0  0
  141.2170   72.8910  221.2800 N   0  0  0  0  0  0  0  0  0  0  0  0
  140.6670   71.5840  221.6790 C   0  0  0  0  0  0  0  0  0  0  0  0
  140.6391   71.5176  222.7766 H   0  0  0  0  0  0  0  0  0  0  0  0
  139.6478   71.4776  221.2792 H   0  0  0  0  0  0  0  0  0  0  0  0
  141.3035   70.7809  221.2792 H   0  0  0  0  0  0  0  0  0  0  0  0
  142.5440   72.9920  220.8980 C   0  0  0  0  0  0  0  0  0  0  0  0
  143.2750   71.9610  220.8920 O   0  0  0  0  0  0  0  0  0  0  0  0
  143.0770   74.2030  220.5180 N   0  0  0  0  0  0  0  0  0  0  0  0
  144.4800   74.3170  220.0980 C   0  0  0  0  0  0  0  0  0  0  0  0
  145.1257   74.3695  220.9870 H   0  0  0  0  0  0  0  0  0  0  0  0
  144.7552   73.4383  219.4963 H   0  0  0  0  0  0  0  0  0  0  0  0
  144.6097   75.2286  219.4963 H   0  0  0  0  0  0  0  0  0  0  0  0
  1  2  1  0
  2  3  2  0
  3  4  1  0
  4  5  1  0
  3  6  1  0
  6  7  1  0
  6  8  1  0
  6  9  1  0
  9 10  1  0
 10 11  1  0
 11 12  1  0
 11 13  1  0
 11 14  1  0
 14 15  1  0
 15 16  1  0
 15 17  1  0
 15 18  1  0
 18 19  1  0
 18 20  1  0
 18 21  1  0
 21 22  1  0
 21 23  1  0
 23 24  1  0
 23 25  1  0
 23 26  1  0
 21 27  1  0
 27 28  1  0
 27 29  1  0
 27 30  1  0
 30 31  1  0
 30 32  1  0
 10 33  2  0
 33 34  1  0
 34 35  2  0
 35 36  1  0
 36 37  2  0
 36 38  1  0
 38 39  1  0
 39 40  1  0
 39 41  1  0
 39 42  1  0
 38 43  1  0
 43 44  2  0
 43 45  1  0
 45 46  1  0
 46 47  1  0
 46 48  1  0
 46 49  1  0
 35  9  1  0
 30 14  1  0
 45 34  1  0
M  END
>  <UniqueID>  (27) 
14

>  <SMILES>  (27) 
[H]/N=C(/O)Cn1c(CN2CCC(C)CC2)nc2c1c(=O)n(C)c(=O)n2C

>  <Energy>  (27) 
97.5351420649112

>  <Genealogy>  (27) 
CC1CCN(Cc2nc3c(c(=O)n(C)c(=O)n3C)n2CC(=N)O)CC1 (tautomer)
[H]/N=C(/O)Cn1c(CN2CCC(C)CC2)nc2c1c(=O)n(C)c(=O)n2C (cis-trans isomerization)
[H]/N=C(/O)Cn1c(CN2CCC(C)CC2)nc2c1c(=O)n(C)c(=O)n2C (3D coordinates assigned)
[H]/N=C(/O)Cn1c(CN2CCC(C)CC2)nc2c1c(=O)n(C)c(=O)n2C (nonaromatic ring conformer: 97.5351420649112 kcal/mol)

>  <smiles>  (27) 
CC1CCN(Cc2nc3c(c(=O)n(C)c(=O)n3C)n2CC(N)=O)CC1

>  <score_type>  (27) 
oracle

>  <origin>  (27) 
autodockgpu

>  <m_score__min__energy>  (27) 
-5.3399999999999999

>  <m_primary>  (27) 
energy

>  <meeko>  (27) 
{"free_energy": -4.63, "intermolecular_energy": -6.42, "internal_energy": -2.49, "cluster_size": 11, "cluster_id": 3, "rank_in_cluster": 11}

>  <energy>  (27) 
-4.87

>  <cluster_rmsd>  (27) 
0.64

>  <rmsd>  (27) 
271.67

>  <cluster>  (27) 
2

$$$$
IQOSOXOZFSRASN-WAHAVJNONA-N
     RDKit          3D

 49 51  0  0  0  0  0  0  0  0999 V2000
  143.4190   78.9410  217.0450 H   0  0  0  0  0  0  0  0  0  0  0  0
  142.9270   79.5890  217.7010 N   0  0  0  0  0  0  0  0  0  0  0  0
  142.1960   79.1580  218.6810 C   0  0  0  0  0  0  0  0  0  0  0  0
  142.2330   79.8140  219.9080 O   0  0  0  0  0  0  0  0  0  0  0  0
  142.4350   79.3120  220.7650 H   0  0  0  0  0  0  0  0  0  0  0  0
  141.3110   77.9560  218.5190 C   0  0  0  0  0  0  0  0  0  0  0  0
  140.3163   78.1782  218.9328 H   0  0  0  0  0  0  0  0  0  0  0  0
  141.2259   77.7132  217.4495 H   0  0  0  0  0  0  0  0  0  0  0  0
  141.8860   76.8070  219.2280 N   0  0  0  0  0  0  0  0  0  0  0  0
  141.5360   76.3230  220.4560 C   0  0  0  0  0  0  0  0  0  0  0  0
  140.5100   76.9370  221.3690 C   0  0  0  0  0  0  0  0  0  0  0  0
  139.6256   77.2233  220.7809 H   0  0  0  0  0  0  0  0  0  0  0  0
  140.2288   76.2022  222.1377 H   0  0  0  0  0  0  0  0  0  0  0  0
  141.0650   78.1350  222.0290 N   0  0  0  0  0  0  0  0  0  0  0  0
  141.4490   77.8200  223.4240 C   0  0  0  0  0  0  0  0  0  0  0  0
  140.6358   77.2445  223.8904 H   0  0  0  0  0  0  0  0  0  0  0  0
  142.3871   77.2468  223.3866 H   0  0  0  0  0  0  0  0  0  0  0  0
  141.7110   79.0830  224.2760 C   0  0  0  0  0  0  0  0  0  0  0  0
  140.8311   79.2690  224.9094 H   0  0  0  0  0  0  0  0  0  0  0  0
  142.6131   78.8968  224.8773 H   0  0  0  0  0  0  0  0  0  0  0  0
  141.9740   80.3350  223.4180 C   0  0  0  0  0  0  0  0  0  0  0  0
  142.0142   81.2061  224.0884 H   0  0  0  0  0  0  0  0  0  0  0  0
  143.3350   80.2520  222.7080 C   0  0  0  0  0  0  0  0  0  0  0  0
  144.1377   80.2030  223.4585 H   0  0  0  0  0  0  0  0  0  0  0  0
  143.3659   79.3503  222.0787 H   0  0  0  0  0  0  0  0  0  0  0  0
  143.4752   81.1433  222.0787 H   0  0  0  0  0  0  0  0  0  0  0  0
  140.8160   80.5670  222.4160 C   0  0  0  0  0  0  0  0  0  0  0  0
  140.0716   81.2253  222.8878 H   0  0  0  0  0  0  0  0  0  0  0  0
  141.2505   81.0178  221.5116 H   0  0  0  0  0  0  0  0  0  0  0  0
  140.1160   79.2630  221.9880 C   0  0  0  0  0  0  0  0  0  0  0  0
  139.2797   79.0586  222.6727 H   0  0  0  0  0  0  0  0  0  0  0  0
  139.7420   79.3786  220.9600 H   0  0  0  0  0  0  0  0  0  0  0  0
  142.2290   75.2130  220.8150 N   0  0  0  0  0  0  0  0  0  0  0  0
  143.0230   74.9950  219.7510 C   0  0  0  0  0  0  0  0  0  0  0  0
  142.8210   75.9340  218.7960 C   0  0  0  0  0  0  0  0  0  0  0  0
  143.5400   75.8790  217.6030 C   0  0  0  0  0  0  0  0  0  0  0  0
  143.3640   76.7460  216.7030 O   0  0  0  0  0  0  0  0  0  0  0  0
  144.4490   74.8600  217.4340 N   0  0  0  0  0  0  0  0  0  0  0  0
  145.2560   74.7960  216.2030 C   0  0  0  0  0  0  0  0  0  0  0  0
  146.3206   74.7116  216.4665 H   0  0  0  0  0  0  0  0  0  0  0  0
  144.9539   73.9190  215.6117 H   0  0  0  0  0  0  0  0  0  0  0  0
  145.0959   75.7097  215.6117 H   0  0  0  0  0  0  0  0  0  0  0  0
  144.6620   73.9390  218.4450 C   0  0  0  0  0  0  0  0  0  0  0  0
  145.5490   73.0500  218.3070 O   0  0  0  0  0  0  0  0  0  0  0  0
  143.9210   73.9830  219.6050 N   0  0  0  0  0  0  0  0  0  0  0  0
  144.1500   73.0200  220.6890 C   0  0  0  0  0  0  0  0  0  0  0  0
  144.0300   73.5245  221.6591 H   0  0  0  0  0  0  0  0  0  0  0  0
  143.4220   72.1992  220.6101 H   0  0  0  0  0  0  0  0  0  0  0  0
  145.1696   72.6147  220.6101 H   0  0  0  0  0  0  0  0  0  0  0  0
  1  2  1  0
  2  3  2  0
  3  4  1  0
  4  5  1  0
  3  6  1  0
  6  7  1  0
  6  8  1  0
  6  9  1  0
  9 10  1  0
 10 11  1  0
 11 12  1  0
 11 13  1  0
 11 14  1  0
 14 15  1  0
 15 16  1  0
 15 17  1  0
 15 18  1  0
 18 19  1  0
 18 20  1  0
 18 21  1  0
 21 22  1  0
 21 23  1  0
 23 24  1  0
 23 25  1  0
 23 26  1  0
 21 27  1  0
 27 28  1  0
 27 29  1  0
 27 30  1  0
 30 31  1  0
 30 32  1  0
 10 33  2  0
 33 34  1  0
 34 35  2  0
 35 36  1  0
 36 37  2  0
 36 38  1  0
 38 39  1  0
 39 40  1  0
 39 41  1  0
 39 42  1  0
 38 43  1  0
 43 44  2  0
 43 45  1  0
 45 46  1  0
 46 47  1  0
 46 48  1  0
 46 49  1  0
 35  9  1  0
 30 14  1  0
 45 34  1  0
M  END
>  <UniqueID>  (28) 
14

>  <SMILES>  (28) 
[H]/N=C(/O)Cn1c(CN2CCC(C)CC2)nc2c1c(=O)n(C)c(=O)n2C

>  <Energy>  (28) 
97.5351420649112

>  <Genealogy>  (28) 
CC1CCN(Cc2nc3c(c(=O)n(C)c(=O)n3C)n2CC(=N)O)CC1 (tautomer)
[H]/N=C(/O)Cn1c(CN2CCC(C)CC2)nc2c1c(=O)n(C)c(=O)n2C (cis-trans isomerization)
[H]/N=C(/O)Cn1c(CN2CCC(C)CC2)nc2c1c(=O)n(C)c(=O)n2C (3D coordinates assigned)
[H]/N=C(/O)Cn1c(CN2CCC(C)CC2)nc2c1c(=O)n(C)c(=O)n2C (nonaromatic ring conformer: 97.5351420649112 kcal/mol)

>  <smiles>  (28) 
CC1CCN(Cc2nc3c(c(=O)n(C)c(=O)n3C)n2CC(N)=O)CC1

>  <score_type>  (28) 
oracle

>  <origin>  (28) 
autodockgpu

>  <m_score__min__energy>  (28) 
-5.3399999999999999

>  <m_primary>  (28) 
energy

>  <meeko>  (28) 
{"free_energy": -4.9, "intermolecular_energy": -6.69, "internal_energy": -2.39, "cluster_size": 8, "cluster_id": 2, "rank_in_cluster": 1}

>  <energy>  (28) 
-4.87

>  <cluster_rmsd>  (28) 
0.04

>  <rmsd>  (28) 
271.73

>  <cluster>  (28) 
2

$$$$
IQOSOXOZFSRASN-WAHAVJNONA-N
     RDKit          3D

 49 51  0  0  0  0  0  0  0  0999 V2000
  139.8140   78.7430  222.6060 H   0  0  0  0  0  0  0  0  0  0  0  0
  139.2810   77.9630  223.0530 N   0  0  0  0  0  0  0  0  0  0  0  0
  138.7890   76.9790  222.3670 C   0  0  0  0  0  0  0  0  0  0  0  0
  138.0440   75.9950  223.0110 O   0  0  0  0  0  0  0  0  0  0  0  0
  138.3890   75.0460  223.0910 H   0  0  0  0  0  0  0  0  0  0  0  0
  139.0150   76.8770  220.8860 C   0  0  0  0  0  0  0  0  0  0  0  0
  138.3199   76.1373  220.4620 H   0  0  0  0  0  0  0  0  0  0  0  0
  138.8404   77.8611  220.4266 H   0  0  0  0  0  0  0  0  0  0  0  0
  140.3950   76.4580  220.6140 N   0  0  0  0  0  0  0  0  0  0  0  0
  141.4430   77.2390  220.2190 C   0  0  0  0  0  0  0  0  0  0  0  0
  141.3600   78.7090  219.9130 C   0  0  0  0  0  0  0  0  0  0  0  0
  142.2723   79.0217  219.3839 H   0  0  0  0  0  0  0  0  0  0  0  0
  140.4773   78.8945  219.2833 H   0  0  0  0  0  0  0  0  0  0  0  0
  141.2310   79.4850  221.1620 N   0  0  0  0  0  0  0  0  0  0  0  0
  141.3880   80.9310  220.8850 C   0  0  0  0  0  0  0  0  0  0  0  0
  142.2548   81.0695  220.2221 H   0  0  0  0  0  0  0  0  0  0  0  0
  140.4558   81.2811  220.4176 H   0  0  0  0  0  0  0  0  0  0  0  0
  141.6080   81.7680  222.1670 C   0  0  0  0  0  0  0  0  0  0  0  0
  142.6787   82.0052  222.2530 H   0  0  0  0  0  0  0  0  0  0  0  0
  140.9956   82.6775  222.0791 H   0  0  0  0  0  0  0  0  0  0  0  0
  141.1630   81.0290  223.4430 C   0  0  0  0  0  0  0  0  0  0  0  0
  141.4759   81.6276  224.3112 H   0  0  0  0  0  0  0  0  0  0  0  0
  139.6320   80.9040  223.5130 C   0  0  0  0  0  0  0  0  0  0  0  0
  139.3140   80.8780  224.5657 H   0  0  0  0  0  0  0  0  0  0  0  0
  139.1703   81.7674  223.0117 H   0  0  0  0  0  0  0  0  0  0  0  0
  139.3165   79.9771  223.0117 H   0  0  0  0  0  0  0  0  0  0  0  0
  141.8590   79.6500  223.5500 C   0  0  0  0  0  0  0  0  0  0  0  0
  142.7915   79.7719  224.1206 H   0  0  0  0  0  0  0  0  0  0  0  0
  141.1568   78.9662  224.0493 H   0  0  0  0  0  0  0  0  0  0  0  0
  142.2000   79.0370  222.1790 C   0  0  0  0  0  0  0  0  0  0  0  0
  143.2106   79.3535  221.8814 H   0  0  0  0  0  0  0  0  0  0  0  0
  142.1556   77.9406  222.2566 H   0  0  0  0  0  0  0  0  0  0  0  0
  142.6080   76.5540  220.0960 N   0  0  0  0  0  0  0  0  0  0  0  0
  142.2640   75.3030  220.4530 C   0  0  0  0  0  0  0  0  0  0  0  0
  140.9490   75.2360  220.7710 C   0  0  0  0  0  0  0  0  0  0  0  0
  140.3940   74.0260  221.1810 C   0  0  0  0  0  0  0  0  0  0  0  0
  139.1720   73.9450  221.4830 O   0  0  0  0  0  0  0  0  0  0  0  0
  141.2110   72.9200  221.2460 N   0  0  0  0  0  0  0  0  0  0  0  0
  140.6480   71.6150  221.6350 C   0  0  0  0  0  0  0  0  0  0  0  0
  140.6164   71.5417  222.7321 H   0  0  0  0  0  0  0  0  0  0  0  0
  139.6290   71.5204  221.2316 H   0  0  0  0  0  0  0  0  0  0  0  0
  141.2783   70.8088  221.2316 H   0  0  0  0  0  0  0  0  0  0  0  0
  142.5410   73.0120  220.8740 C   0  0  0  0  0  0  0  0  0  0  0  0
  143.2640   71.9750  220.8690 O   0  0  0  0  0  0  0  0  0  0  0  0
  143.0860   74.2210  220.5030 N   0  0  0  0  0  0  0  0  0  0  0  0
  144.4930   74.3260  220.0940 C   0  0  0  0  0  0  0  0  0  0  0  0
  145.1321   74.3737  220.9880 H   0  0  0  0  0  0  0  0  0  0  0  0
  144.7670   73.4458  219.4939 H   0  0  0  0  0  0  0  0  0  0  0  0
  144.6334   75.2371  219.4939 H   0  0  0  0  0  0  0  0  0  0  0  0
  1  2  1  0
  2  3  2  0
  3  4  1  0
  4  5  1  0
  3  6  1  0
  6  7  1  0
  6  8  1  0
  6  9  1  0
  9 10  1  0
 10 11  1  0
 11 12  1  0
 11 13  1  0
 11 14  1  0
 14 15  1  0
 15 16  1  0
 15 17  1  0
 15 18  1  0
 18 19  1  0
 18 20  1  0
 18 21  1  0
 21 22  1  0
 21 23  1  0
 23 24  1  0
 23 25  1  0
 23 26  1  0
 21 27  1  0
 27 28  1  0
 27 29  1  0
 27 30  1  0
 30 31  1  0
 30 32  1  0
 10 33  2  0
 33 34  1  0
 34 35  2  0
 35 36  1  0
 36 37  2  0
 36 38  1  0
 38 39  1  0
 39 40  1  0
 39 41  1  0
 39 42  1  0
 38 43  1  0
 43 44  2  0
 43 45  1  0
 45 46  1  0
 46 47  1  0
 46 48  1  0
 46 49  1  0
 35  9  1  0
 30 14  1  0
 45 34  1  0
M  END
>  <UniqueID>  (29) 
14

>  <SMILES>  (29) 
[H]/N=C(/O)Cn1c(CN2CCC(C)CC2)nc2c1c(=O)n(C)c(=O)n2C

>  <Energy>  (29) 
97.5351420649112

>  <Genealogy>  (29) 
CC1CCN(Cc2nc3c(c(=O)n(C)c(=O)n3C)n2CC(=N)O)CC1 (tautomer)
[H]/N=C(/O)Cn1c(CN2CCC(C)CC2)nc2c1c(=O)n(C)c(=O)n2C (cis-trans isomerization)
[H]/N=C(/O)Cn1c(CN2CCC(C)CC2)nc2c1c(=O)n(C)c(=O)n2C (3D coordinates assigned)
[H]/N=C(/O)Cn1c(CN2CCC(C)CC2)nc2c1c(=O)n(C)c(=O)n2C (nonaromatic ring conformer: 97.5351420649112 kcal/mol)

>  <smiles>  (29) 
CC1CCN(Cc2nc3c(c(=O)n(C)c(=O)n3C)n2CC(N)=O)CC1

>  <score_type>  (29) 
oracle

>  <origin>  (29) 
autodockgpu

>  <m_score__min__energy>  (29) 
-5.3399999999999999

>  <m_primary>  (29) 
energy

>  <meeko>  (29) 
{"free_energy": -4.66, "intermolecular_energy": -6.45, "internal_energy": -2.47, "cluster_size": 11, "cluster_id": 3, "rank_in_cluster": 1}

>  <energy>  (29) 
-4.87

>  <cluster_rmsd>  (29) 
0.09

>  <rmsd>  (29) 
271.67

>  <cluster>  (29) 
2

$$$$
IQOSOXOZFSRASN-WAHAVJNONA-N
     RDKit          3D

 49 51  0  0  0  0  0  0  0  0999 V2000
  139.8030   78.7750  222.5790 H   0  0  0  0  0  0  0  0  0  0  0  0
  139.2580   78.0150  223.0460 N   0  0  0  0  0  0  0  0  0  0  0  0
  138.8080   76.9870  222.3980 C   0  0  0  0  0  0  0  0  0  0  0  0
  138.1270   75.9850  223.0830 O   0  0  0  0  0  0  0  0  0  0  0  0
  138.4780   75.0340  223.1050 H   0  0  0  0  0  0  0  0  0  0  0  0
  139.0140   76.8530  220.9170 C   0  0  0  0  0  0  0  0  0  0  0  0
  138.3203   76.0971  220.5201 H   0  0  0  0  0  0  0  0  0  0  0  0
  138.8232   77.8245  220.4376 H   0  0  0  0  0  0  0  0  0  0  0  0
  140.3940   76.4410  220.6350 N   0  0  0  0  0  0  0  0  0  0  0  0
  141.4340   77.2270  220.2300 C   0  0  0  0  0  0  0  0  0  0  0  0
  141.3410   78.6970  219.9220 C   0  0  0  0  0  0  0  0  0  0  0  0
  142.2414   79.0107  219.3734 H   0  0  0  0  0  0  0  0  0  0  0  0
  140.4452   78.8789  219.3101 H   0  0  0  0  0  0  0  0  0  0  0  0
  141.2360   79.4750  221.1710 N   0  0  0  0  0  0  0  0  0  0  0  0
  141.4010   80.9200  220.8910 C   0  0  0  0  0  0  0  0  0  0  0  0
  142.2595   81.0507  220.2157 H   0  0  0  0  0  0  0  0  0  0  0  0
  140.4647   81.2770  220.4373 H   0  0  0  0  0  0  0  0  0  0  0  0
  141.6460   81.7570  222.1680 C   0  0  0  0  0  0  0  0  0  0  0  0
  142.7197   81.9854  222.2385 H   0  0  0  0  0  0  0  0  0  0  0  0
  141.0401   82.6715  222.0872 H   0  0  0  0  0  0  0  0  0  0  0  0
  141.2130   81.0240  223.4510 C   0  0  0  0  0  0  0  0  0  0  0  0
  141.5429   81.6217  224.3135 H   0  0  0  0  0  0  0  0  0  0  0  0
  139.6820   80.9110  223.5430 C   0  0  0  0  0  0  0  0  0  0  0  0
  139.3789   80.8886  224.6002 H   0  0  0  0  0  0  0  0  0  0  0  0
  139.2199   81.7775  223.0473 H   0  0  0  0  0  0  0  0  0  0  0  0
  139.3522   79.9861  223.0473 H   0  0  0  0  0  0  0  0  0  0  0  0
  141.8990   79.6390  223.5500 C   0  0  0  0  0  0  0  0  0  0  0  0
  142.8403   79.7539  224.1075 H   0  0  0  0  0  0  0  0  0  0  0  0
  141.1977   78.9619  224.0596 H   0  0  0  0  0  0  0  0  0  0  0  0
  142.2160   79.0210  222.1760 C   0  0  0  0  0  0  0  0  0  0  0  0
  143.2248   79.3290  221.8638 H   0  0  0  0  0  0  0  0  0  0  0  0
  142.1640   77.9252  222.2564 H   0  0  0  0  0  0  0  0  0  0  0  0
  142.6030   76.5490  220.0990 N   0  0  0  0  0  0  0  0  0  0  0  0
  142.2680   75.2970  220.4610 C   0  0  0  0  0  0  0  0  0  0  0  0
  140.9560   75.2230  220.7900 C   0  0  0  0  0  0  0  0  0  0  0  0
  140.4110   74.0100  221.2070 C   0  0  0  0  0  0  0  0  0  0  0  0
  139.1910   73.9240  221.5170 O   0  0  0  0  0  0  0  0  0  0  0  0
  141.2340   72.9090  221.2670 N   0  0  0  0  0  0  0  0  0  0  0  0
  140.6820   71.6020  221.6620 C   0  0  0  0  0  0  0  0  0  0  0  0
  140.6528   71.5328  222.7594 H   0  0  0  0  0  0  0  0  0  0  0  0
  139.6631   71.4979  221.2608 H   0  0  0  0  0  0  0  0  0  0  0  0
  141.3179   70.7990  221.2608 H   0  0  0  0  0  0  0  0  0  0  0  0
  142.5610   73.0080  220.8840 C   0  0  0  0  0  0  0  0  0  0  0  0
  143.2900   71.9750  220.8760 O   0  0  0  0  0  0  0  0  0  0  0  0
  143.0970   74.2190  220.5070 N   0  0  0  0  0  0  0  0  0  0  0  0
  144.4990   74.3310  220.0870 C   0  0  0  0  0  0  0  0  0  0  0  0
  145.1450   74.3826  220.9758 H   0  0  0  0  0  0  0  0  0  0  0  0
  144.7728   73.4519  219.4852 H   0  0  0  0  0  0  0  0  0  0  0  0
  144.6298   75.2425  219.4852 H   0  0  0  0  0  0  0  0  0  0  0  0
  1  2  1  0
  2  3  2  0
  3  4  1  0
  4  5  1  0
  3  6  1  0
  6  7  1  0
  6  8  1  0
  6  9  1  0
  9 10  1  0
 10 11  1  0
 11 12  1  0
 11 13  1  0
 11 14  1  0
 14 15  1  0
 15 16  1  0
 15 17  1  0
 15 18  1  0
 18 19  1  0
 18 20  1  0
 18 21  1  0
 21 22  1  0
 21 23  1  0
 23 24  1  0
 23 25  1  0
 23 26  1  0
 21 27  1  0
 27 28  1  0
 27 29  1  0
 27 30  1  0
 30 31  1  0
 30 32  1  0
 10 33  2  0
 33 34  1  0
 34 35  2  0
 35 36  1  0
 36 37  2  0
 36 38  1  0
 38 39  1  0
 39 40  1  0
 39 41  1  0
 39 42  1  0
 38 43  1  0
 43 44  2  0
 43 45  1  0
 45 46  1  0
 46 47  1  0
 46 48  1  0
 46 49  1  0
 35  9  1  0
 30 14  1  0
 45 34  1  0
M  END
>  <UniqueID>  (30) 
14

>  <SMILES>  (30) 
[H]/N=C(/O)Cn1c(CN2CCC(C)CC2)nc2c1c(=O)n(C)c(=O)n2C

>  <Energy>  (30) 
97.5351420649112

>  <Genealogy>  (30) 
CC1CCN(Cc2nc3c(c(=O)n(C)c(=O)n3C)n2CC(=N)O)CC1 (tautomer)
[H]/N=C(/O)Cn1c(CN2CCC(C)CC2)nc2c1c(=O)n(C)c(=O)n2C (cis-trans isomerization)
[H]/N=C(/O)Cn1c(CN2CCC(C)CC2)nc2c1c(=O)n(C)c(=O)n2C (3D coordinates assigned)
[H]/N=C(/O)Cn1c(CN2CCC(C)CC2)nc2c1c(=O)n(C)c(=O)n2C (nonaromatic ring conformer: 97.5351420649112 kcal/mol)

>  <smiles>  (30) 
CC1CCN(Cc2nc3c(c(=O)n(C)c(=O)n3C)n2CC(N)=O)CC1

>  <score_type>  (30) 
oracle

>  <origin>  (30) 
autodockgpu

>  <m_score__min__energy>  (30) 
-5.3399999999999999

>  <m_primary>  (30) 
energy

>  <meeko>  (30) 
{"free_energy": -4.65, "intermolecular_energy": -6.44, "internal_energy": -2.47, "cluster_size": 11, "cluster_id": 3, "rank_in_cluster": 3}

>  <energy>  (30) 
-4.66

>  <cluster_rmsd>  (30) 
0.0

>  <rmsd>  (30) 
272.01

>  <cluster>  (30) 
3

$$$$
IQOSOXOZFSRASN-WAHAVJNONA-N
     RDKit          3D

 49 51  0  0  0  0  0  0  0  0999 V2000
  139.8310   78.7520  222.6180 H   0  0  0  0  0  0  0  0  0  0  0  0
  139.2600   78.0030  223.0720 N   0  0  0  0  0  0  0  0  0  0  0  0
  138.8000   76.9880  222.4110 C   0  0  0  0  0  0  0  0  0  0  0  0
  138.1120   75.9830  223.0840 O   0  0  0  0  0  0  0  0  0  0  0  0
  138.4580   75.0300  223.1000 H   0  0  0  0  0  0  0  0  0  0  0  0
  139.0040   76.8710  220.9280 C   0  0  0  0  0  0  0  0  0  0  0  0
  138.3047   76.1250  220.5224 H   0  0  0  0  0  0  0  0  0  0  0  0
  138.8197   77.8499  220.4612 H   0  0  0  0  0  0  0  0  0  0  0  0
  140.3810   76.4530  220.6390 N   0  0  0  0  0  0  0  0  0  0  0  0
  141.4240   77.2360  220.2370 C   0  0  0  0  0  0  0  0  0  0  0  0
  141.3390   78.7080  219.9400 C   0  0  0  0  0  0  0  0  0  0  0  0
  142.2418   79.0211  219.3951 H   0  0  0  0  0  0  0  0  0  0  0  0
  140.4449   78.8989  219.3283 H   0  0  0  0  0  0  0  0  0  0  0  0
  141.2360   79.4780  221.1950 N   0  0  0  0  0  0  0  0  0  0  0  0
  141.3840   80.9260  220.9220 C   0  0  0  0  0  0  0  0  0  0  0  0
  142.2359   81.0694  220.2411 H   0  0  0  0  0  0  0  0  0  0  0  0
  140.4408   81.2760  220.4772 H   0  0  0  0  0  0  0  0  0  0  0  0
  141.6300   81.7580  222.2020 C   0  0  0  0  0  0  0  0  0  0  0  0
  142.7016   81.9983  222.2651 H   0  0  0  0  0  0  0  0  0  0  0  0
  141.0131   82.6660  222.1319 H   0  0  0  0  0  0  0  0  0  0  0  0
  141.2160   81.0120  223.4840 C   0  0  0  0  0  0  0  0  0  0  0  0
  141.5474   81.6078  224.3472 H   0  0  0  0  0  0  0  0  0  0  0  0
  139.6870   80.8820  223.5880 C   0  0  0  0  0  0  0  0  0  0  0  0
  139.3924   80.8570  224.6475 H   0  0  0  0  0  0  0  0  0  0  0  0
  139.2115   81.7430  223.0954 H   0  0  0  0  0  0  0  0  0  0  0  0
  139.3636   79.9531  223.0954 H   0  0  0  0  0  0  0  0  0  0  0  0
  141.9170   79.6340  223.5690 C   0  0  0  0  0  0  0  0  0  0  0  0
  142.8620   79.7553  224.1189 H   0  0  0  0  0  0  0  0  0  0  0  0
  141.2277   78.9465  224.0811 H   0  0  0  0  0  0  0  0  0  0  0  0
  142.2280   79.0280  222.1880 C   0  0  0  0  0  0  0  0  0  0  0  0
  143.2310   79.3479  221.8692 H   0  0  0  0  0  0  0  0  0  0  0  0
  142.1872   77.9312  222.2619 H   0  0  0  0  0  0  0  0  0  0  0  0
  142.5880   76.5520  220.0980 N   0  0  0  0  0  0  0  0  0  0  0  0
  142.2480   75.2990  220.4520 C   0  0  0  0  0  0  0  0  0  0  0  0
  140.9360   75.2310  220.7840 C   0  0  0  0  0  0  0  0  0  0  0  0
  140.3850   74.0180  221.1930 C   0  0  0  0  0  0  0  0  0  0  0  0
  139.1660   73.9360  221.5060 O   0  0  0  0  0  0  0  0  0  0  0  0
  141.2020   72.9120  221.2430 N   0  0  0  0  0  0  0  0  0  0  0  0
  140.6440   71.6050  221.6300 C   0  0  0  0  0  0  0  0  0  0  0  0
  140.6121   71.5303  222.7270 H   0  0  0  0  0  0  0  0  0  0  0  0
  139.6256   71.5070  221.2260 H   0  0  0  0  0  0  0  0  0  0  0  0
  141.2776   70.8017  221.2260 H   0  0  0  0  0  0  0  0  0  0  0  0
  142.5290   73.0060  220.8570 C   0  0  0  0  0  0  0  0  0  0  0  0
  143.2520   71.9690  220.8390 O   0  0  0  0  0  0  0  0  0  0  0  0
  143.0700   74.2160  220.4880 N   0  0  0  0  0  0  0  0  0  0  0  0
  144.4720   74.3240  220.0640 C   0  0  0  0  0  0  0  0  0  0  0  0
  145.1205   74.3740  220.9511 H   0  0  0  0  0  0  0  0  0  0  0  0
  144.7417   73.4440  219.4617 H   0  0  0  0  0  0  0  0  0  0  0  0
  144.6038   75.2350  219.4617 H   0  0  0  0  0  0  0  0  0  0  0  0
  1  2  1  0
  2  3  2  0
  3  4  1  0
  4  5  1  0
  3  6  1  0
  6  7  1  0
  6  8  1  0
  6  9  1  0
  9 10  1  0
 10 11  1  0
 11 12  1  0
 11 13  1  0
 11 14  1  0
 14 15  1  0
 15 16  1  0
 15 17  1  0
 15 18  1  0
 18 19  1  0
 18 20  1  0
 18 21  1  0
 21 22  1  0
 21 23  1  0
 23 24  1  0
 23 25  1  0
 23 26  1  0
 21 27  1  0
 27 28  1  0
 27 29  1  0
 27 30  1  0
 30 31  1  0
 30 32  1  0
 10 33  2  0
 33 34  1  0
 34 35  2  0
 35 36  1  0
 36 37  2  0
 36 38  1  0
 38 39  1  0
 39 40  1  0
 39 41  1  0
 39 42  1  0
 38 43  1  0
 43 44  2  0
 43 45  1  0
 45 46  1  0
 46 47  1  0
 46 48  1  0
 46 49  1  0
 35  9  1  0
 30 14  1  0
 45 34  1  0
M  END
>  <UniqueID>  (31) 
14

>  <SMILES>  (31) 
[H]/N=C(/O)Cn1c(CN2CCC(C)CC2)nc2c1c(=O)n(C)c(=O)n2C

>  <Energy>  (31) 
97.5351420649112

>  <Genealogy>  (31) 
CC1CCN(Cc2nc3c(c(=O)n(C)c(=O)n3C)n2CC(=N)O)CC1 (tautomer)
[H]/N=C(/O)Cn1c(CN2CCC(C)CC2)nc2c1c(=O)n(C)c(=O)n2C (cis-trans isomerization)
[H]/N=C(/O)Cn1c(CN2CCC(C)CC2)nc2c1c(=O)n(C)c(=O)n2C (3D coordinates assigned)
[H]/N=C(/O)Cn1c(CN2CCC(C)CC2)nc2c1c(=O)n(C)c(=O)n2C (nonaromatic ring conformer: 97.5351420649112 kcal/mol)

>  <smiles>  (31) 
CC1CCN(Cc2nc3c(c(=O)n(C)c(=O)n3C)n2CC(N)=O)CC1

>  <score_type>  (31) 
oracle

>  <origin>  (31) 
autodockgpu

>  <m_score__min__energy>  (31) 
-5.3399999999999999

>  <m_primary>  (31) 
energy

>  <meeko>  (31) 
{"free_energy": -4.66, "intermolecular_energy": -6.45, "internal_energy": -2.47, "cluster_size": 11, "cluster_id": 3, "rank_in_cluster": 2}

>  <energy>  (31) 
-4.66

>  <cluster_rmsd>  (31) 
0.04

>  <rmsd>  (31) 
272.02

>  <cluster>  (31) 
3

$$$$
IQOSOXOZFSRASN-WAHAVJNONA-N
     RDKit          3D

 49 51  0  0  0  0  0  0  0  0999 V2000
  141.9450   76.0030  222.0140 H   0  0  0  0  0  0  0  0  0  0  0  0
  141.6210   75.1070  221.5840 N   0  0  0  0  0  0  0  0  0  0  0  0
  140.3740   74.7560  221.5720 C   0  0  0  0  0  0  0  0  0  0  0  0
  139.9280   73.7640  222.4420 O   0  0  0  0  0  0  0  0  0  0  0  0
  138.9730   73.7530  222.7790 H   0  0  0  0  0  0  0  0  0  0  0  0
  139.3970   75.3960  220.6280 C   0  0  0  0  0  0  0  0  0  0  0  0
  139.9484   75.9483  219.8528 H   0  0  0  0  0  0  0  0  0  0  0  0
  138.7804   74.6131  220.1623 H   0  0  0  0  0  0  0  0  0  0  0  0
  138.5250   76.3240  221.3580 N   0  0  0  0  0  0  0  0  0  0  0  0
  138.5940   77.6870  221.3860 C   0  0  0  0  0  0  0  0  0  0  0  0
  139.6510   78.5160  220.7090 C   0  0  0  0  0  0  0  0  0  0  0  0
  140.2314   77.8778  220.0265 H   0  0  0  0  0  0  0  0  0  0  0  0
  139.1651   79.3255  220.1445 H   0  0  0  0  0  0  0  0  0  0  0  0
  140.5570   79.1060  221.7130 N   0  0  0  0  0  0  0  0  0  0  0  0
  141.0600   78.0570  222.6290 C   0  0  0  0  0  0  0  0  0  0  0  0
  140.2144   77.4240  222.9360 H   0  0  0  0  0  0  0  0  0  0  0  0
  141.8247   77.4827  222.0855 H   0  0  0  0  0  0  0  0  0  0  0  0
  141.7290   78.6370  223.8980 C   0  0  0  0  0  0  0  0  0  0  0  0
  141.0195   78.5621  224.7353 H   0  0  0  0  0  0  0  0  0  0  0  0
  142.6437   78.0557  224.0864 H   0  0  0  0  0  0  0  0  0  0  0  0
  142.1410   80.1110  223.7320 C   0  0  0  0  0  0  0  0  0  0  0  0
  142.4772   80.4830  224.7111 H   0  0  0  0  0  0  0  0  0  0  0  0
  143.3280   80.2560  222.7640 C   0  0  0  0  0  0  0  0  0  0  0  0
  144.2586   80.3697  223.3394 H   0  0  0  0  0  0  0  0  0  0  0  0
  143.3960   79.3595  222.1303 H   0  0  0  0  0  0  0  0  0  0  0  0
  143.1781   81.1425  222.1303 H   0  0  0  0  0  0  0  0  0  0  0  0
  140.9330   80.9740  223.2930 C   0  0  0  0  0  0  0  0  0  0  0  0
  140.4378   81.3667  224.1933 H   0  0  0  0  0  0  0  0  0  0  0  0
  141.3210   81.7792  222.6518 H   0  0  0  0  0  0  0  0  0  0  0  0
  139.8970   80.1880  222.4670 C   0  0  0  0  0  0  0  0  0  0  0  0
  139.1474   79.7531  223.1445 H   0  0  0  0  0  0  0  0  0  0  0  0
  139.4112   80.8736  221.7571 H   0  0  0  0  0  0  0  0  0  0  0  0
  137.6080   78.2610  222.1220 N   0  0  0  0  0  0  0  0  0  0  0  0
  136.8910   77.2030  222.5450 C   0  0  0  0  0  0  0  0  0  0  0  0
  137.4240   76.0440  222.0880 C   0  0  0  0  0  0  0  0  0  0  0  0
  136.8200   74.8290  222.4050 C   0  0  0  0  0  0  0  0  0  0  0  0
  137.3030   73.7410  221.9880 O   0  0  0  0  0  0  0  0  0  0  0  0
  135.6880   74.8450  223.1870 N   0  0  0  0  0  0  0  0  0  0  0  0
  135.0470   73.5770  223.5750 C   0  0  0  0  0  0  0  0  0  0  0  0
  135.0107   73.5052  224.6720 H   0  0  0  0  0  0  0  0  0  0  0  0
  134.0242   73.5446  223.1714 H   0  0  0  0  0  0  0  0  0  0  0  0
  135.6273   72.7342  223.1714 H   0  0  0  0  0  0  0  0  0  0  0  0
  135.1910   76.0430  223.6720 C   0  0  0  0  0  0  0  0  0  0  0  0
  134.1930   76.0410  224.4460 O   0  0  0  0  0  0  0  0  0  0  0  0
  135.7760   77.2400  223.3240 N   0  0  0  0  0  0  0  0  0  0  0  0
  135.2660   78.5150  223.8450 C   0  0  0  0  0  0  0  0  0  0  0  0
  135.2753   78.4917  224.9447 H   0  0  0  0  0  0  0  0  0  0  0  0
  135.9043   79.3376  223.4902 H   0  0  0  0  0  0  0  0  0  0  0  0
  134.2365   78.6705  223.4902 H   0  0  0  0  0  0  0  0  0  0  0  0
  1  2  1  0
  2  3  2  0
  3  4  1  0
  4  5  1  0
  3  6  1  0
  6  7  1  0
  6  8  1  0
  6  9  1  0
  9 10  1  0
 10 11  1  0
 11 12  1  0
 11 13  1  0
 11 14  1  0
 14 15  1  0
 15 16  1  0
 15 17  1  0
 15 18  1  0
 18 19  1  0
 18 20  1  0
 18 21  1  0
 21 22  1  0
 21 23  1  0
 23 24  1  0
 23 25  1  0
 23 26  1  0
 21 27  1  0
 27 28  1  0
 27 29  1  0
 27 30  1  0
 30 31  1  0
 30 32  1  0
 10 33  2  0
 33 34  1  0
 34 35  2  0
 35 36  1  0
 36 37  2  0
 36 38  1  0
 38 39  1  0
 39 40  1  0
 39 41  1  0
 39 42  1  0
 38 43  1  0
 43 44  2  0
 43 45  1  0
 45 46  1  0
 46 47  1  0
 46 48  1  0
 46 49  1  0
 35  9  1  0
 30 14  1  0
 45 34  1  0
M  END
>  <UniqueID>  (32) 
14

>  <SMILES>  (32) 
[H]/N=C(/O)Cn1c(CN2CCC(C)CC2)nc2c1c(=O)n(C)c(=O)n2C

>  <Energy>  (32) 
97.5351420649112

>  <Genealogy>  (32) 
CC1CCN(Cc2nc3c(c(=O)n(C)c(=O)n3C)n2CC(=N)O)CC1 (tautomer)
[H]/N=C(/O)Cn1c(CN2CCC(C)CC2)nc2c1c(=O)n(C)c(=O)n2C (cis-trans isomerization)
[H]/N=C(/O)Cn1c(CN2CCC(C)CC2)nc2c1c(=O)n(C)c(=O)n2C (3D coordinates assigned)
[H]/N=C(/O)Cn1c(CN2CCC(C)CC2)nc2c1c(=O)n(C)c(=O)n2C (nonaromatic ring conformer: 97.5351420649112 kcal/mol)

>  <smiles>  (32) 
CC1CCN(Cc2nc3c(c(=O)n(C)c(=O)n3C)n2CC(N)=O)CC1

>  <score_type>  (32) 
oracle

>  <origin>  (32) 
autodockgpu

>  <m_score__min__energy>  (32) 
-5.3399999999999999

>  <m_primary>  (32) 
energy

>  <meeko>  (32) 
{"free_energy": -5.34, "intermolecular_energy": -7.13, "internal_energy": -1.78, "cluster_size": 1, "cluster_id": 1, "rank_in_cluster": 1}

>  <energy>  (32) 
-4.65

>  <cluster_rmsd>  (32) 
0.04

>  <rmsd>  (32) 
272.02

>  <cluster>  (32) 
3

$$$$
IQOSOXOZFSRASN-WAHAVJNONA-N
     RDKit          3D

 49 51  0  0  0  0  0  0  0  0999 V2000
  139.8120   78.7260  222.5950 H   0  0  0  0  0  0  0  0  0  0  0  0
  139.2560   77.9640  223.0460 N   0  0  0  0  0  0  0  0  0  0  0  0
  138.7920   76.9560  222.3780 C   0  0  0  0  0  0  0  0  0  0  0  0
  138.0860   75.9560  223.0410 O   0  0  0  0  0  0  0  0  0  0  0  0
  138.4300   75.0030  223.0700 H   0  0  0  0  0  0  0  0  0  0  0  0
  139.0100   76.8410  220.8970 C   0  0  0  0  0  0  0  0  0  0  0  0
  138.3138   76.0964  220.4838 H   0  0  0  0  0  0  0  0  0  0  0  0
  138.8314   77.8209  220.4302 H   0  0  0  0  0  0  0  0  0  0  0  0
  140.3890   76.4220  220.6200 N   0  0  0  0  0  0  0  0  0  0  0  0
  141.4340   77.2030  220.2180 C   0  0  0  0  0  0  0  0  0  0  0  0
  141.3490   78.6720  219.9070 C   0  0  0  0  0  0  0  0  0  0  0  0
  142.2575   78.9827  219.3703 H   0  0  0  0  0  0  0  0  0  0  0  0
  140.4621   78.8555  219.2827 H   0  0  0  0  0  0  0  0  0  0  0  0
  141.2290   79.4520  221.1540 N   0  0  0  0  0  0  0  0  0  0  0  0
  141.3880   80.8980  220.8720 C   0  0  0  0  0  0  0  0  0  0  0  0
  142.2511   81.0325  220.2034 H   0  0  0  0  0  0  0  0  0  0  0  0
  140.4537   81.2491  220.4096 H   0  0  0  0  0  0  0  0  0  0  0  0
  141.6180   81.7380  222.1500 C   0  0  0  0  0  0  0  0  0  0  0  0
  142.6898   81.9724  222.2287 H   0  0  0  0  0  0  0  0  0  0  0  0
  141.0072   82.6487  222.0629 H   0  0  0  0  0  0  0  0  0  0  0  0
  141.1790   81.0050  223.4310 C   0  0  0  0  0  0  0  0  0  0  0  0
  141.4985   81.6064  224.2948 H   0  0  0  0  0  0  0  0  0  0  0  0
  139.6480   80.8830  223.5110 C   0  0  0  0  0  0  0  0  0  0  0  0
  139.3368   80.8582  224.5658 H   0  0  0  0  0  0  0  0  0  0  0  0
  139.1848   81.7471  223.0122 H   0  0  0  0  0  0  0  0  0  0  0  0
  139.3274   79.9565  223.0122 H   0  0  0  0  0  0  0  0  0  0  0  0
  141.8720   79.6240  223.5380 C   0  0  0  0  0  0  0  0  0  0  0  0
  142.8082   79.7450  224.1026 H   0  0  0  0  0  0  0  0  0  0  0  0
  141.1709   78.9437  224.0436 H   0  0  0  0  0  0  0  0  0  0  0  0
  142.2030   79.0060  222.1670 C   0  0  0  0  0  0  0  0  0  0  0  0
  143.2124   79.3195  221.8622 H   0  0  0  0  0  0  0  0  0  0  0  0
  142.1564   77.9100  222.2488 H   0  0  0  0  0  0  0  0  0  0  0  0
  142.6000   76.5190  220.0930 N   0  0  0  0  0  0  0  0  0  0  0  0
  142.2580   75.2690  220.4550 C   0  0  0  0  0  0  0  0  0  0  0  0
  140.9440   75.2020  220.7790 C   0  0  0  0  0  0  0  0  0  0  0  0
  140.3920   73.9920  221.1960 C   0  0  0  0  0  0  0  0  0  0  0  0
  139.1710   73.9120  221.5020 O   0  0  0  0  0  0  0  0  0  0  0  0
  141.2100   72.8870  221.2600 N   0  0  0  0  0  0  0  0  0  0  0  0
  140.6500   71.5830  221.6560 C   0  0  0  0  0  0  0  0  0  0  0  0
  140.6206   71.5146  222.7535 H   0  0  0  0  0  0  0  0  0  0  0  0
  139.6304   71.4848  221.2551 H   0  0  0  0  0  0  0  0  0  0  0  0
  141.2809   70.7760  221.2551 H   0  0  0  0  0  0  0  0  0  0  0  0
  142.5390   72.9790  220.8830 C   0  0  0  0  0  0  0  0  0  0  0  0
  143.2630   71.9430  220.8790 O   0  0  0  0  0  0  0  0  0  0  0  0
  143.0810   74.1870  220.5060 N   0  0  0  0  0  0  0  0  0  0  0  0
  144.4860   74.2920  220.0900 C   0  0  0  0  0  0  0  0  0  0  0  0
  145.1295   74.3401  220.9808 H   0  0  0  0  0  0  0  0  0  0  0  0
  144.7572   73.4116  219.4888 H   0  0  0  0  0  0  0  0  0  0  0  0
  144.6233   75.2029  219.4888 H   0  0  0  0  0  0  0  0  0  0  0  0
  1  2  1  0
  2  3  2  0
  3  4  1  0
  4  5  1  0
  3  6  1  0
  6  7  1  0
  6  8  1  0
  6  9  1  0
  9 10  1  0
 10 11  1  0
 11 12  1  0
 11 13  1  0
 11 14  1  0
 14 15  1  0
 15 16  1  0
 15 17  1  0
 15 18  1  0
 18 19  1  0
 18 20  1  0
 18 21  1  0
 21 22  1  0
 21 23  1  0
 23 24  1  0
 23 25  1  0
 23 26  1  0
 21 27  1  0
 27 28  1  0
 27 29  1  0
 27 30  1  0
 30 31  1  0
 30 32  1  0
 10 33  2  0
 33 34  1  0
 34 35  2  0
 35 36  1  0
 36 37  2  0
 36 38  1  0
 38 39  1  0
 39 40  1  0
 39 41  1  0
 39 42  1  0
 38 43  1  0
 43 44  2  0
 43 45  1  0
 45 46  1  0
 46 47  1  0
 46 48  1  0
 46 49  1  0
 35  9  1  0
 30 14  1  0
 45 34  1  0
M  END
>  <UniqueID>  (33) 
14

>  <SMILES>  (33) 
[H]/N=C(/O)Cn1c(CN2CCC(C)CC2)nc2c1c(=O)n(C)c(=O)n2C

>  <Energy>  (33) 
97.5351420649112

>  <Genealogy>  (33) 
CC1CCN(Cc2nc3c(c(=O)n(C)c(=O)n3C)n2CC(=N)O)CC1 (tautomer)
[H]/N=C(/O)Cn1c(CN2CCC(C)CC2)nc2c1c(=O)n(C)c(=O)n2C (cis-trans isomerization)
[H]/N=C(/O)Cn1c(CN2CCC(C)CC2)nc2c1c(=O)n(C)c(=O)n2C (3D coordinates assigned)
[H]/N=C(/O)Cn1c(CN2CCC(C)CC2)nc2c1c(=O)n(C)c(=O)n2C (nonaromatic ring conformer: 97.5351420649112 kcal/mol)

>  <smiles>  (33) 
CC1CCN(Cc2nc3c(c(=O)n(C)c(=O)n3C)n2CC(N)=O)CC1

>  <score_type>  (33) 
oracle

>  <origin>  (33) 
autodockgpu

>  <m_score__min__energy>  (33) 
-5.3399999999999999

>  <m_primary>  (33) 
energy

>  <meeko>  (33) 
{"free_energy": -4.65, "intermolecular_energy": -6.44, "internal_energy": -2.47, "cluster_size": 11, "cluster_id": 3, "rank_in_cluster": 8}

>  <energy>  (33) 
-4.65

>  <cluster_rmsd>  (33) 
0.05

>  <rmsd>  (33) 
272.03

>  <cluster>  (33) 
3

$$$$
IQOSOXOZFSRASN-WAHAVJNONA-N
     RDKit          3D

 49 51  0  0  0  0  0  0  0  0999 V2000
  139.8000   78.7520  222.6030 H   0  0  0  0  0  0  0  0  0  0  0  0
  139.2430   77.9970  223.0640 N   0  0  0  0  0  0  0  0  0  0  0  0
  138.7910   76.9740  222.4110 C   0  0  0  0  0  0  0  0  0  0  0  0
  138.1080   75.9690  223.0920 O   0  0  0  0  0  0  0  0  0  0  0  0
  138.4460   75.0140  223.0930 H   0  0  0  0  0  0  0  0  0  0  0  0
  138.9970   76.8460  220.9290 C   0  0  0  0  0  0  0  0  0  0  0  0
  138.3007   76.0946  220.5284 H   0  0  0  0  0  0  0  0  0  0  0  0
  138.8099   77.8203  220.4538 H   0  0  0  0  0  0  0  0  0  0  0  0
  140.3760   76.4300  220.6460 N   0  0  0  0  0  0  0  0  0  0  0  0
  141.4190   77.2140  220.2450 C   0  0  0  0  0  0  0  0  0  0  0  0
  141.3310   78.6850  219.9430 C   0  0  0  0  0  0  0  0  0  0  0  0
  142.2326   78.9979  219.3960 H   0  0  0  0  0  0  0  0  0  0  0  0
  140.4359   78.8723  219.3316 H   0  0  0  0  0  0  0  0  0  0  0  0
  141.2280   79.4590  221.1960 N   0  0  0  0  0  0  0  0  0  0  0  0
  141.3910   80.9050  220.9200 C   0  0  0  0  0  0  0  0  0  0  0  0
  142.2474   81.0386  220.2427 H   0  0  0  0  0  0  0  0  0  0  0  0
  140.4532   81.2627  220.4700 H   0  0  0  0  0  0  0  0  0  0  0  0
  141.6390   81.7380  222.1990 C   0  0  0  0  0  0  0  0  0  0  0  0
  142.7125   81.9683  222.2664 H   0  0  0  0  0  0  0  0  0  0  0  0
  141.0312   82.6517  222.1238 H   0  0  0  0  0  0  0  0  0  0  0  0
  141.2120   80.9990  223.4810 C   0  0  0  0  0  0  0  0  0  0  0  0
  141.5446   81.5941  224.3442 H   0  0  0  0  0  0  0  0  0  0  0  0
  139.6810   80.8830  223.5780 C   0  0  0  0  0  0  0  0  0  0  0  0
  139.3813   80.8603  224.6361 H   0  0  0  0  0  0  0  0  0  0  0  0
  139.2157   81.7485  223.0836 H   0  0  0  0  0  0  0  0  0  0  0  0
  139.3514   79.9573  223.0836 H   0  0  0  0  0  0  0  0  0  0  0  0
  141.9000   79.6150  223.5730 C   0  0  0  0  0  0  0  0  0  0  0  0
  142.8434   79.7293  224.1269 H   0  0  0  0  0  0  0  0  0  0  0  0
  141.2020   78.9353  224.0836 H   0  0  0  0  0  0  0  0  0  0  0  0
  142.2120   79.0020  222.1950 C   0  0  0  0  0  0  0  0  0  0  0  0
  143.2194   79.3117  221.8799 H   0  0  0  0  0  0  0  0  0  0  0  0
  142.1610   77.9058  222.2715 H   0  0  0  0  0  0  0  0  0  0  0  0
  142.5850   76.5330  220.1110 N   0  0  0  0  0  0  0  0  0  0  0  0
  142.2460   75.2800  220.4670 C   0  0  0  0  0  0  0  0  0  0  0  0
  140.9330   75.2100  220.7960 C   0  0  0  0  0  0  0  0  0  0  0  0
  140.3840   73.9970  221.2070 C   0  0  0  0  0  0  0  0  0  0  0  0
  139.1640   73.9130  221.5170 O   0  0  0  0  0  0  0  0  0  0  0  0
  141.2030   72.8920  221.2620 N   0  0  0  0  0  0  0  0  0  0  0  0
  140.6460   71.5860  221.6520 C   0  0  0  0  0  0  0  0  0  0  0  0
  140.6151   71.5135  222.7492 H   0  0  0  0  0  0  0  0  0  0  0  0
  139.6273   71.4868  221.2491 H   0  0  0  0  0  0  0  0  0  0  0  0
  141.2795   70.7821  221.2491 H   0  0  0  0  0  0  0  0  0  0  0  0
  142.5310   72.9880  220.8800 C   0  0  0  0  0  0  0  0  0  0  0  0
  143.2560   71.9530  220.8670 O   0  0  0  0  0  0  0  0  0  0  0  0
  143.0710   74.1990  220.5090 N   0  0  0  0  0  0  0  0  0  0  0  0
  144.4740   74.3090  220.0890 C   0  0  0  0  0  0  0  0  0  0  0  0
  145.1200   74.3596  220.9779 H   0  0  0  0  0  0  0  0  0  0  0  0
  144.7466   73.4295  219.4873 H   0  0  0  0  0  0  0  0  0  0  0  0
  144.6062   75.2203  219.4873 H   0  0  0  0  0  0  0  0  0  0  0  0
  1  2  1  0
  2  3  2  0
  3  4  1  0
  4  5  1  0
  3  6  1  0
  6  7  1  0
  6  8  1  0
  6  9  1  0
  9 10  1  0
 10 11  1  0
 11 12  1  0
 11 13  1  0
 11 14  1  0
 14 15  1  0
 15 16  1  0
 15 17  1  0
 15 18  1  0
 18 19  1  0
 18 20  1  0
 18 21  1  0
 21 22  1  0
 21 23  1  0
 23 24  1  0
 23 25  1  0
 23 26  1  0
 21 27  1  0
 27 28  1  0
 27 29  1  0
 27 30  1  0
 30 31  1  0
 30 32  1  0
 10 33  2  0
 33 34  1  0
 34 35  2  0
 35 36  1  0
 36 37  2  0
 36 38  1  0
 38 39  1  0
 39 40  1  0
 39 41  1  0
 39 42  1  0
 38 43  1  0
 43 44  2  0
 43 45  1  0
 45 46  1  0
 46 47  1  0
 46 48  1  0
 46 49  1  0
 35  9  1  0
 30 14  1  0
 45 34  1  0
M  END
>  <UniqueID>  (34) 
14

>  <SMILES>  (34) 
[H]/N=C(/O)Cn1c(CN2CCC(C)CC2)nc2c1c(=O)n(C)c(=O)n2C

>  <Energy>  (34) 
97.5351420649112

>  <Genealogy>  (34) 
CC1CCN(Cc2nc3c(c(=O)n(C)c(=O)n3C)n2CC(=N)O)CC1 (tautomer)
[H]/N=C(/O)Cn1c(CN2CCC(C)CC2)nc2c1c(=O)n(C)c(=O)n2C (cis-trans isomerization)
[H]/N=C(/O)Cn1c(CN2CCC(C)CC2)nc2c1c(=O)n(C)c(=O)n2C (3D coordinates assigned)
[H]/N=C(/O)Cn1c(CN2CCC(C)CC2)nc2c1c(=O)n(C)c(=O)n2C (nonaromatic ring conformer: 97.5351420649112 kcal/mol)

>  <smiles>  (34) 
CC1CCN(Cc2nc3c(c(=O)n(C)c(=O)n3C)n2CC(N)=O)CC1

>  <score_type>  (34) 
oracle

>  <origin>  (34) 
autodockgpu

>  <m_score__min__energy>  (34) 
-5.3399999999999999

>  <m_primary>  (34) 
energy

>  <meeko>  (34) 
{"free_energy": -4.65, "intermolecular_energy": -6.44, "internal_energy": -2.47, "cluster_size": 11, "cluster_id": 3, "rank_in_cluster": 6}

>  <energy>  (34) 
-4.65

>  <cluster_rmsd>  (34) 
0.04

>  <rmsd>  (34) 
272.01

>  <cluster>  (34) 
3

$$$$
IQOSOXOZFSRASN-WAHAVJNONA-N
     RDKit          3D

 49 51  0  0  0  0  0  0  0  0999 V2000
  139.8280   78.7550  222.6000 H   0  0  0  0  0  0  0  0  0  0  0  0
  139.2660   78.0040  223.0600 N   0  0  0  0  0  0  0  0  0  0  0  0
  138.8100   76.9820  222.4060 C   0  0  0  0  0  0  0  0  0  0  0  0
  138.1240   75.9800  223.0860 O   0  0  0  0  0  0  0  0  0  0  0  0
  138.4640   75.0250  223.0950 H   0  0  0  0  0  0  0  0  0  0  0  0
  139.0150   76.8550  220.9240 C   0  0  0  0  0  0  0  0  0  0  0  0
  138.3194   76.1029  220.5235 H   0  0  0  0  0  0  0  0  0  0  0  0
  138.8262   77.8292  220.4493 H   0  0  0  0  0  0  0  0  0  0  0  0
  140.3940   76.4410  220.6400 N   0  0  0  0  0  0  0  0  0  0  0  0
  141.4350   77.2260  220.2360 C   0  0  0  0  0  0  0  0  0  0  0  0
  141.3440   78.6970  219.9310 C   0  0  0  0  0  0  0  0  0  0  0  0
  142.2434   79.0103  219.3806 H   0  0  0  0  0  0  0  0  0  0  0  0
  140.4472   78.8823  219.3216 H   0  0  0  0  0  0  0  0  0  0  0  0
  141.2440   79.4720  221.1830 N   0  0  0  0  0  0  0  0  0  0  0  0
  141.4070   80.9180  220.9040 C   0  0  0  0  0  0  0  0  0  0  0  0
  142.2629   81.0504  220.2259 H   0  0  0  0  0  0  0  0  0  0  0  0
  140.4691   81.2752  220.4537 H   0  0  0  0  0  0  0  0  0  0  0  0
  141.6560   81.7530  222.1820 C   0  0  0  0  0  0  0  0  0  0  0  0
  142.7295   81.9840  222.2479 H   0  0  0  0  0  0  0  0  0  0  0  0
  141.0475   82.6662  222.1062 H   0  0  0  0  0  0  0  0  0  0  0  0
  141.2310   81.0160  223.4650 C   0  0  0  0  0  0  0  0  0  0  0  0
  141.5656   81.6119  224.3270 H   0  0  0  0  0  0  0  0  0  0  0  0
  139.7010   80.9020  223.5650 C   0  0  0  0  0  0  0  0  0  0  0  0
  139.4034   80.8798  224.6237 H   0  0  0  0  0  0  0  0  0  0  0  0
  139.2358   81.7680  223.0714 H   0  0  0  0  0  0  0  0  0  0  0  0
  139.3692   79.9766  223.0714 H   0  0  0  0  0  0  0  0  0  0  0  0
  141.9190   79.6320  223.5590 C   0  0  0  0  0  0  0  0  0  0  0  0
  142.8632   79.7471  224.1115 H   0  0  0  0  0  0  0  0  0  0  0  0
  141.2220   78.9531  224.0721 H   0  0  0  0  0  0  0  0  0  0  0  0
  142.2290   79.0170  222.1810 C   0  0  0  0  0  0  0  0  0  0  0  0
  143.2359   79.3264  221.8640 H   0  0  0  0  0  0  0  0  0  0  0  0
  142.1781   77.9210  222.2593 H   0  0  0  0  0  0  0  0  0  0  0  0
  142.6020   76.5460  220.1010 N   0  0  0  0  0  0  0  0  0  0  0  0
  142.2660   75.2940  220.4600 C   0  0  0  0  0  0  0  0  0  0  0  0
  140.9540   75.2220  220.7910 C   0  0  0  0  0  0  0  0  0  0  0  0
  140.4070   74.0090  221.2050 C   0  0  0  0  0  0  0  0  0  0  0  0
  139.1870   73.9240  221.5170 O   0  0  0  0  0  0  0  0  0  0  0  0
  141.2280   72.9060  221.2610 N   0  0  0  0  0  0  0  0  0  0  0  0
  140.6740   71.5990  221.6550 C   0  0  0  0  0  0  0  0  0  0  0  0
  140.6444   71.5291  222.7524 H   0  0  0  0  0  0  0  0  0  0  0  0
  139.6551   71.4965  221.2534 H   0  0  0  0  0  0  0  0  0  0  0  0
  141.3089   70.7955  221.2534 H   0  0  0  0  0  0  0  0  0  0  0  0
  142.5550   73.0030  220.8770 C   0  0  0  0  0  0  0  0  0  0  0  0
  143.2820   71.9690  220.8660 O   0  0  0  0  0  0  0  0  0  0  0  0
  143.0920   74.2140  220.5030 N   0  0  0  0  0  0  0  0  0  0  0  0
  144.4940   74.3250  220.0810 C   0  0  0  0  0  0  0  0  0  0  0  0
  145.1412   74.3762  220.9689 H   0  0  0  0  0  0  0  0  0  0  0  0
  144.7664   73.4456  219.4789 H   0  0  0  0  0  0  0  0  0  0  0  0
  144.6247   75.2363  219.4789 H   0  0  0  0  0  0  0  0  0  0  0  0
  1  2  1  0
  2  3  2  0
  3  4  1  0
  4  5  1  0
  3  6  1  0
  6  7  1  0
  6  8  1  0
  6  9  1  0
  9 10  1  0
 10 11  1  0
 11 12  1  0
 11 13  1  0
 11 14  1  0
 14 15  1  0
 15 16  1  0
 15 17  1  0
 15 18  1  0
 18 19  1  0
 18 20  1  0
 18 21  1  0
 21 22  1  0
 21 23  1  0
 23 24  1  0
 23 25  1  0
 23 26  1  0
 21 27  1  0
 27 28  1  0
 27 29  1  0
 27 30  1  0
 30 31  1  0
 30 32  1  0
 10 33  2  0
 33 34  1  0
 34 35  2  0
 35 36  1  0
 36 37  2  0
 36 38  1  0
 38 39  1  0
 39 40  1  0
 39 41  1  0
 39 42  1  0
 38 43  1  0
 43 44  2  0
 43 45  1  0
 45 46  1  0
 46 47  1  0
 46 48  1  0
 46 49  1  0
 35  9  1  0
 30 14  1  0
 45 34  1  0
M  END
>  <UniqueID>  (35) 
14

>  <SMILES>  (35) 
[H]/N=C(/O)Cn1c(CN2CCC(C)CC2)nc2c1c(=O)n(C)c(=O)n2C

>  <Energy>  (35) 
97.5351420649112

>  <Genealogy>  (35) 
CC1CCN(Cc2nc3c(c(=O)n(C)c(=O)n3C)n2CC(=N)O)CC1 (tautomer)
[H]/N=C(/O)Cn1c(CN2CCC(C)CC2)nc2c1c(=O)n(C)c(=O)n2C (cis-trans isomerization)
[H]/N=C(/O)Cn1c(CN2CCC(C)CC2)nc2c1c(=O)n(C)c(=O)n2C (3D coordinates assigned)
[H]/N=C(/O)Cn1c(CN2CCC(C)CC2)nc2c1c(=O)n(C)c(=O)n2C (nonaromatic ring conformer: 97.5351420649112 kcal/mol)

>  <smiles>  (35) 
CC1CCN(Cc2nc3c(c(=O)n(C)c(=O)n3C)n2CC(N)=O)CC1

>  <score_type>  (35) 
oracle

>  <origin>  (35) 
autodockgpu

>  <m_score__min__energy>  (35) 
-5.3399999999999999

>  <m_primary>  (35) 
energy

>  <meeko>  (35) 
{"free_energy": -4.65, "intermolecular_energy": -6.44, "internal_energy": -2.47, "cluster_size": 11, "cluster_id": 3, "rank_in_cluster": 4}

>  <energy>  (35) 
-4.65

>  <cluster_rmsd>  (35) 
0.05

>  <rmsd>  (35) 
272.02

>  <cluster>  (35) 
3

$$$$
IQOSOXOZFSRASN-WAHAVJNONA-N
     RDKit          3D

 49 51  0  0  0  0  0  0  0  0999 V2000
  143.4540   78.8490  217.0200 H   0  0  0  0  0  0  0  0  0  0  0  0
  142.8810   79.4920  217.6110 N   0  0  0  0  0  0  0  0  0  0  0  0
  142.1910   79.0700  218.6240 C   0  0  0  0  0  0  0  0  0  0  0  0
  142.2800   79.7360  219.8430 O   0  0  0  0  0  0  0  0  0  0  0  0
  142.4400   79.2300  220.7060 H   0  0  0  0  0  0  0  0  0  0  0  0
  141.2990   77.8680  218.5090 C   0  0  0  0  0  0  0  0  0  0  0  0
  140.3184   78.0990  218.9508 H   0  0  0  0  0  0  0  0  0  0  0  0
  141.1792   77.6089  217.4467 H   0  0  0  0  0  0  0  0  0  0  0  0
  141.8940   76.7290  219.2170 N   0  0  0  0  0  0  0  0  0  0  0  0
  141.5640   76.2480  220.4520 C   0  0  0  0  0  0  0  0  0  0  0  0
  140.5440   76.8570  221.3740 C   0  0  0  0  0  0  0  0  0  0  0  0
  139.6422   77.1139  220.7988 H   0  0  0  0  0  0  0  0  0  0  0  0
  140.2940   76.1307  222.1614 H   0  0  0  0  0  0  0  0  0  0  0  0
  141.0860   78.0780  222.0010 N   0  0  0  0  0  0  0  0  0  0  0  0
  141.4430   77.8140  223.4140 C   0  0  0  0  0  0  0  0  0  0  0  0
  140.6205   77.2561  223.8854 H   0  0  0  0  0  0  0  0  0  0  0  0
  142.3812   77.2397  223.4154 H   0  0  0  0  0  0  0  0  0  0  0  0
  141.6900   79.1080  224.2250 C   0  0  0  0  0  0  0  0  0  0  0  0
  140.7990   79.3162  224.8355 H   0  0  0  0  0  0  0  0  0  0  0  0
  142.5812   78.9442  224.8487 H   0  0  0  0  0  0  0  0  0  0  0  0
  141.9680   80.3270  223.3280 C   0  0  0  0  0  0  0  0  0  0  0  0
  141.9945   81.2212  223.9682 H   0  0  0  0  0  0  0  0  0  0  0  0
  143.3430   80.2210  222.6470 C   0  0  0  0  0  0  0  0  0  0  0  0
  144.1286   80.1604  223.4146 H   0  0  0  0  0  0  0  0  0  0  0  0
  143.3728   79.3179  222.0197 H   0  0  0  0  0  0  0  0  0  0  0  0
  143.5109   81.1089  222.0197 H   0  0  0  0  0  0  0  0  0  0  0  0
  140.8300   80.5230  222.2970 C   0  0  0  0  0  0  0  0  0  0  0  0
  140.0765   81.1967  222.7310 H   0  0  0  0  0  0  0  0  0  0  0  0
  141.2814   80.9426  221.3859 H   0  0  0  0  0  0  0  0  0  0  0  0
  140.1390   79.2040  221.9020 C   0  0  0  0  0  0  0  0  0  0  0  0
  139.2895   79.0236  222.5770 H   0  0  0  0  0  0  0  0  0  0  0  0
  139.7861   79.2832  220.8632 H   0  0  0  0  0  0  0  0  0  0  0  0
  142.2730   75.1470  220.8090 N   0  0  0  0  0  0  0  0  0  0  0  0
  143.0560   74.9310  219.7360 C   0  0  0  0  0  0  0  0  0  0  0  0
  142.8330   75.8630  218.7780 C   0  0  0  0  0  0  0  0  0  0  0  0
  143.5370   75.8080  217.5770 C   0  0  0  0  0  0  0  0  0  0  0  0
  143.3410   76.6670  216.6750 O   0  0  0  0  0  0  0  0  0  0  0  0
  144.4540   74.7970  217.4020 N   0  0  0  0  0  0  0  0  0  0  0  0
  145.2470   74.7340  216.1620 C   0  0  0  0  0  0  0  0  0  0  0  0
  146.3145   74.6492  216.4134 H   0  0  0  0  0  0  0  0  0  0  0  0
  144.9382   73.8576  215.5734 H   0  0  0  0  0  0  0  0  0  0  0  0
  145.0804   75.6482  215.5734 H   0  0  0  0  0  0  0  0  0  0  0  0
  144.6890   73.8840  218.4160 C   0  0  0  0  0  0  0  0  0  0  0  0
  145.5840   73.0030  218.2720 O   0  0  0  0  0  0  0  0  0  0  0  0
  143.9630   73.9280  219.5850 N   0  0  0  0  0  0  0  0  0  0  0  0
  144.2140   72.9730  220.6720 C   0  0  0  0  0  0  0  0  0  0  0  0
  144.0815   73.4770  221.6407 H   0  0  0  0  0  0  0  0  0  0  0  0
  143.5056   72.1350  220.5947 H   0  0  0  0  0  0  0  0  0  0  0  0
  145.2429   72.5916  220.5947 H   0  0  0  0  0  0  0  0  0  0  0  0
  1  2  1  0
  2  3  2  0
  3  4  1  0
  4  5  1  0
  3  6  1  0
  6  7  1  0
  6  8  1  0
  6  9  1  0
  9 10  1  0
 10 11  1  0
 11 12  1  0
 11 13  1  0
 11 14  1  0
 14 15  1  0
 15 16  1  0
 15 17  1  0
 15 18  1  0
 18 19  1  0
 18 20  1  0
 18 21  1  0
 21 22  1  0
 21 23  1  0
 23 24  1  0
 23 25  1  0
 23 26  1  0
 21 27  1  0
 27 28  1  0
 27 29  1  0
 27 30  1  0
 30 31  1  0
 30 32  1  0
 10 33  2  0
 33 34  1  0
 34 35  2  0
 35 36  1  0
 36 37  2  0
 36 38  1  0
 38 39  1  0
 39 40  1  0
 39 41  1  0
 39 42  1  0
 38 43  1  0
 43 44  2  0
 43 45  1  0
 45 46  1  0
 46 47  1  0
 46 48  1  0
 46 49  1  0
 35  9  1  0
 30 14  1  0
 45 34  1  0
M  END
>  <UniqueID>  (36) 
14

>  <SMILES>  (36) 
[H]/N=C(/O)Cn1c(CN2CCC(C)CC2)nc2c1c(=O)n(C)c(=O)n2C

>  <Energy>  (36) 
97.5351420649112

>  <Genealogy>  (36) 
CC1CCN(Cc2nc3c(c(=O)n(C)c(=O)n3C)n2CC(=N)O)CC1 (tautomer)
[H]/N=C(/O)Cn1c(CN2CCC(C)CC2)nc2c1c(=O)n(C)c(=O)n2C (cis-trans isomerization)
[H]/N=C(/O)Cn1c(CN2CCC(C)CC2)nc2c1c(=O)n(C)c(=O)n2C (3D coordinates assigned)
[H]/N=C(/O)Cn1c(CN2CCC(C)CC2)nc2c1c(=O)n(C)c(=O)n2C (nonaromatic ring conformer: 97.5351420649112 kcal/mol)

>  <smiles>  (36) 
CC1CCN(Cc2nc3c(c(=O)n(C)c(=O)n3C)n2CC(N)=O)CC1

>  <score_type>  (36) 
oracle

>  <origin>  (36) 
autodockgpu

>  <m_score__min__energy>  (36) 
-5.3399999999999999

>  <m_primary>  (36) 
energy

>  <meeko>  (36) 
{"free_energy": -4.87, "intermolecular_energy": -6.66, "internal_energy": -2.39, "cluster_size": 8, "cluster_id": 2, "rank_in_cluster": 8}

>  <energy>  (36) 
-4.65

>  <cluster_rmsd>  (36) 
0.04

>  <rmsd>  (36) 
272.03

>  <cluster>  (36) 
3

$$$$
IQOSOXOZFSRASN-WAHAVJNONA-N
     RDKit          3D

 49 51  0  0  0  0  0  0  0  0999 V2000
  139.8170   78.7440  222.5860 H   0  0  0  0  0  0  0  0  0  0  0  0
  139.2560   77.9910  223.0460 N   0  0  0  0  0  0  0  0  0  0  0  0
  138.7960   76.9720  222.3900 C   0  0  0  0  0  0  0  0  0  0  0  0
  138.0990   75.9750  223.0670 O   0  0  0  0  0  0  0  0  0  0  0  0
  138.4400   75.0210  223.0900 H   0  0  0  0  0  0  0  0  0  0  0  0
  139.0060   76.8430  220.9090 C   0  0  0  0  0  0  0  0  0  0  0  0
  138.3106   76.0916  220.5067 H   0  0  0  0  0  0  0  0  0  0  0  0
  138.8205   77.8168  220.4322 H   0  0  0  0  0  0  0  0  0  0  0  0
  140.3860   76.4260  220.6310 N   0  0  0  0  0  0  0  0  0  0  0  0
  141.4300   77.2080  220.2280 C   0  0  0  0  0  0  0  0  0  0  0  0
  141.3420   78.6780  219.9180 C   0  0  0  0  0  0  0  0  0  0  0  0
  142.2454   78.9889  219.3728 H   0  0  0  0  0  0  0  0  0  0  0  0
  140.4493   78.8618  219.3022 H   0  0  0  0  0  0  0  0  0  0  0  0
  141.2340   79.4570  221.1660 N   0  0  0  0  0  0  0  0  0  0  0  0
  141.4020   80.9020  220.8840 C   0  0  0  0  0  0  0  0  0  0  0  0
  142.2628   81.0306  220.2114 H   0  0  0  0  0  0  0  0  0  0  0  0
  140.4679   81.2599  220.4263 H   0  0  0  0  0  0  0  0  0  0  0  0
  141.6440   81.7400  222.1610 C   0  0  0  0  0  0  0  0  0  0  0  0
  142.7176   81.9684  222.2338 H   0  0  0  0  0  0  0  0  0  0  0  0
  141.0381   82.6544  222.0780 H   0  0  0  0  0  0  0  0  0  0  0  0
  141.2080   81.0080  223.4440 C   0  0  0  0  0  0  0  0  0  0  0  0
  141.5375   81.6062  224.3063 H   0  0  0  0  0  0  0  0  0  0  0  0
  139.6770   80.8970  223.5330 C   0  0  0  0  0  0  0  0  0  0  0  0
  139.3718   80.8749  224.5896 H   0  0  0  0  0  0  0  0  0  0  0  0
  139.2170   81.7642  223.0366 H   0  0  0  0  0  0  0  0  0  0  0  0
  139.3469   79.9726  223.0366 H   0  0  0  0  0  0  0  0  0  0  0  0
  141.8920   79.6230  223.5470 C   0  0  0  0  0  0  0  0  0  0  0  0
  142.8322   79.7374  224.1064 H   0  0  0  0  0  0  0  0  0  0  0  0
  141.1897   78.9470  224.0567 H   0  0  0  0  0  0  0  0  0  0  0  0
  142.2110   79.0040  222.1730 C   0  0  0  0  0  0  0  0  0  0  0  0
  143.2205   79.3114  221.8625 H   0  0  0  0  0  0  0  0  0  0  0  0
  142.1578   77.9083  222.2542 H   0  0  0  0  0  0  0  0  0  0  0  0
  142.5960   76.5260  220.1000 N   0  0  0  0  0  0  0  0  0  0  0  0
  142.2560   75.2750  220.4620 C   0  0  0  0  0  0  0  0  0  0  0  0
  140.9430   75.2060  220.7880 C   0  0  0  0  0  0  0  0  0  0  0  0
  140.3930   73.9960  221.2050 C   0  0  0  0  0  0  0  0  0  0  0  0
  139.1720   73.9140  221.5130 O   0  0  0  0  0  0  0  0  0  0  0  0
  141.2120   72.8920  221.2670 N   0  0  0  0  0  0  0  0  0  0  0  0
  140.6540   71.5870  221.6630 C   0  0  0  0  0  0  0  0  0  0  0  0
  140.6247   71.5185  222.7605 H   0  0  0  0  0  0  0  0  0  0  0  0
  139.6345   71.4872  221.2621 H   0  0  0  0  0  0  0  0  0  0  0  0
  141.2862   70.7810  221.2621 H   0  0  0  0  0  0  0  0  0  0  0  0
  142.5400   72.9860  220.8880 C   0  0  0  0  0  0  0  0  0  0  0  0
  143.2650   71.9510  220.8820 O   0  0  0  0  0  0  0  0  0  0  0  0
  143.0810   74.1940  220.5110 N   0  0  0  0  0  0  0  0  0  0  0  0
  144.4850   74.3020  220.0930 C   0  0  0  0  0  0  0  0  0  0  0  0
  145.1297   74.3516  220.9829 H   0  0  0  0  0  0  0  0  0  0  0  0
  144.7572   73.4221  219.4916 H   0  0  0  0  0  0  0  0  0  0  0  0
  144.6195   75.2131  219.4916 H   0  0  0  0  0  0  0  0  0  0  0  0
  1  2  1  0
  2  3  2  0
  3  4  1  0
  4  5  1  0
  3  6  1  0
  6  7  1  0
  6  8  1  0
  6  9  1  0
  9 10  1  0
 10 11  1  0
 11 12  1  0
 11 13  1  0
 11 14  1  0
 14 15  1  0
 15 16  1  0
 15 17  1  0
 15 18  1  0
 18 19  1  0
 18 20  1  0
 18 21  1  0
 21 22  1  0
 21 23  1  0
 23 24  1  0
 23 25  1  0
 23 26  1  0
 21 27  1  0
 27 28  1  0
 27 29  1  0
 27 30  1  0
 30 31  1  0
 30 32  1  0
 10 33  2  0
 33 34  1  0
 34 35  2  0
 35 36  1  0
 36 37  2  0
 36 38  1  0
 38 39  1  0
 39 40  1  0
 39 41  1  0
 39 42  1  0
 38 43  1  0
 43 44  2  0
 43 45  1  0
 45 46  1  0
 46 47  1  0
 46 48  1  0
 46 49  1  0
 35  9  1  0
 30 14  1  0
 45 34  1  0
M  END
>  <UniqueID>  (37) 
14

>  <SMILES>  (37) 
[H]/N=C(/O)Cn1c(CN2CCC(C)CC2)nc2c1c(=O)n(C)c(=O)n2C

>  <Energy>  (37) 
97.5351420649112

>  <Genealogy>  (37) 
CC1CCN(Cc2nc3c(c(=O)n(C)c(=O)n3C)n2CC(=N)O)CC1 (tautomer)
[H]/N=C(/O)Cn1c(CN2CCC(C)CC2)nc2c1c(=O)n(C)c(=O)n2C (cis-trans isomerization)
[H]/N=C(/O)Cn1c(CN2CCC(C)CC2)nc2c1c(=O)n(C)c(=O)n2C (3D coordinates assigned)
[H]/N=C(/O)Cn1c(CN2CCC(C)CC2)nc2c1c(=O)n(C)c(=O)n2C (nonaromatic ring conformer: 97.5351420649112 kcal/mol)

>  <smiles>  (37) 
CC1CCN(Cc2nc3c(c(=O)n(C)c(=O)n3C)n2CC(N)=O)CC1

>  <score_type>  (37) 
oracle

>  <origin>  (37) 
autodockgpu

>  <m_score__min__energy>  (37) 
-5.3399999999999999

>  <m_primary>  (37) 
energy

>  <meeko>  (37) 
{"free_energy": -4.65, "intermolecular_energy": -6.44, "internal_energy": -2.48, "cluster_size": 11, "cluster_id": 3, "rank_in_cluster": 5}

>  <energy>  (37) 
-4.65

>  <cluster_rmsd>  (37) 
0.04

>  <rmsd>  (37) 
272.0

>  <cluster>  (37) 
3

$$$$
IQOSOXOZFSRASN-WAHAVJNONA-N
     RDKit          3D

 49 51  0  0  0  0  0  0  0  0999 V2000
  139.8140   78.7340  222.6030 H   0  0  0  0  0  0  0  0  0  0  0  0
  139.2540   77.9790  223.0600 N   0  0  0  0  0  0  0  0  0  0  0  0
  138.7960   76.9620  222.4000 C   0  0  0  0  0  0  0  0  0  0  0  0
  138.1000   75.9620  223.0740 O   0  0  0  0  0  0  0  0  0  0  0  0
  138.4350   75.0060  223.0830 H   0  0  0  0  0  0  0  0  0  0  0  0
  139.0090   76.8380  220.9200 C   0  0  0  0  0  0  0  0  0  0  0  0
  138.3153   76.0869  220.5143 H   0  0  0  0  0  0  0  0  0  0  0  0
  138.8233   77.8134  220.4465 H   0  0  0  0  0  0  0  0  0  0  0  0
  140.3900   76.4240  220.6420 N   0  0  0  0  0  0  0  0  0  0  0  0
  141.4340   77.2100  220.2460 C   0  0  0  0  0  0  0  0  0  0  0  0
  141.3450   78.6810  219.9450 C   0  0  0  0  0  0  0  0  0  0  0  0
  142.2476   78.9954  219.4005 H   0  0  0  0  0  0  0  0  0  0  0  0
  140.4512   78.8676  219.3316 H   0  0  0  0  0  0  0  0  0  0  0  0
  141.2380   79.4540  221.1980 N   0  0  0  0  0  0  0  0  0  0  0  0
  141.4050   80.9000  220.9250 C   0  0  0  0  0  0  0  0  0  0  0  0
  142.2650   81.0331  220.2522 H   0  0  0  0  0  0  0  0  0  0  0  0
  140.4702   81.2602  220.4708 H   0  0  0  0  0  0  0  0  0  0  0  0
  141.6480   81.7300  222.2060 C   0  0  0  0  0  0  0  0  0  0  0  0
  142.7217   81.9572  222.2796 H   0  0  0  0  0  0  0  0  0  0  0  0
  141.0427   82.6452  222.1285 H   0  0  0  0  0  0  0  0  0  0  0  0
  141.2120   80.9910  223.4850 C   0  0  0  0  0  0  0  0  0  0  0  0
  141.5406   81.5843  224.3510 H   0  0  0  0  0  0  0  0  0  0  0  0
  139.6810   80.8790  223.5740 C   0  0  0  0  0  0  0  0  0  0  0  0
  139.3758   80.8567  224.6306 H   0  0  0  0  0  0  0  0  0  0  0  0
  139.2205   81.7459  223.0776 H   0  0  0  0  0  0  0  0  0  0  0  0
  139.3515   79.9543  223.0776 H   0  0  0  0  0  0  0  0  0  0  0  0
  141.8970   79.6060  223.5790 C   0  0  0  0  0  0  0  0  0  0  0  0
  142.8378   79.7181  224.1379 H   0  0  0  0  0  0  0  0  0  0  0  0
  141.1952   78.9269  224.0853 H   0  0  0  0  0  0  0  0  0  0  0  0
  142.2150   78.9940  222.2020 C   0  0  0  0  0  0  0  0  0  0  0  0
  143.2248   79.3018  221.8929 H   0  0  0  0  0  0  0  0  0  0  0  0
  142.1608   77.8979  222.2771 H   0  0  0  0  0  0  0  0  0  0  0  0
  142.6010   76.5300  220.1170 N   0  0  0  0  0  0  0  0  0  0  0  0
  142.2620   75.2770  220.4710 C   0  0  0  0  0  0  0  0  0  0  0  0
  140.9490   75.2040  220.7930 C   0  0  0  0  0  0  0  0  0  0  0  0
  140.3990   73.9900  221.2010 C   0  0  0  0  0  0  0  0  0  0  0  0
  139.1780   73.9050  221.5060 O   0  0  0  0  0  0  0  0  0  0  0  0
  141.2200   72.8870  221.2590 N   0  0  0  0  0  0  0  0  0  0  0  0
  140.6630   71.5790  221.6450 C   0  0  0  0  0  0  0  0  0  0  0  0
  140.6308   71.5035  222.7419 H   0  0  0  0  0  0  0  0  0  0  0  0
  139.6448   71.4803  221.2407 H   0  0  0  0  0  0  0  0  0  0  0  0
  141.2975   70.7765  221.2407 H   0  0  0  0  0  0  0  0  0  0  0  0
  142.5490   72.9850  220.8830 C   0  0  0  0  0  0  0  0  0  0  0  0
  143.2760   71.9510  220.8730 O   0  0  0  0  0  0  0  0  0  0  0  0
  143.0890   74.1970  220.5150 N   0  0  0  0  0  0  0  0  0  0  0  0
  144.4930   74.3090  220.1010 C   0  0  0  0  0  0  0  0  0  0  0  0
  145.1352   74.3602  220.9926 H   0  0  0  0  0  0  0  0  0  0  0  0
  144.7693   73.4300  219.5001 H   0  0  0  0  0  0  0  0  0  0  0  0
  144.6265   75.2206  219.5001 H   0  0  0  0  0  0  0  0  0  0  0  0
  1  2  1  0
  2  3  2  0
  3  4  1  0
  4  5  1  0
  3  6  1  0
  6  7  1  0
  6  8  1  0
  6  9  1  0
  9 10  1  0
 10 11  1  0
 11 12  1  0
 11 13  1  0
 11 14  1  0
 14 15  1  0
 15 16  1  0
 15 17  1  0
 15 18  1  0
 18 19  1  0
 18 20  1  0
 18 21  1  0
 21 22  1  0
 21 23  1  0
 23 24  1  0
 23 25  1  0
 23 26  1  0
 21 27  1  0
 27 28  1  0
 27 29  1  0
 27 30  1  0
 30 31  1  0
 30 32  1  0
 10 33  2  0
 33 34  1  0
 34 35  2  0
 35 36  1  0
 36 37  2  0
 36 38  1  0
 38 39  1  0
 39 40  1  0
 39 41  1  0
 39 42  1  0
 38 43  1  0
 43 44  2  0
 43 45  1  0
 45 46  1  0
 46 47  1  0
 46 48  1  0
 46 49  1  0
 35  9  1  0
 30 14  1  0
 45 34  1  0
M  END
>  <UniqueID>  (38) 
14

>  <SMILES>  (38) 
[H]/N=C(/O)Cn1c(CN2CCC(C)CC2)nc2c1c(=O)n(C)c(=O)n2C

>  <Energy>  (38) 
97.5351420649112

>  <Genealogy>  (38) 
CC1CCN(Cc2nc3c(c(=O)n(C)c(=O)n3C)n2CC(=N)O)CC1 (tautomer)
[H]/N=C(/O)Cn1c(CN2CCC(C)CC2)nc2c1c(=O)n(C)c(=O)n2C (cis-trans isomerization)
[H]/N=C(/O)Cn1c(CN2CCC(C)CC2)nc2c1c(=O)n(C)c(=O)n2C (3D coordinates assigned)
[H]/N=C(/O)Cn1c(CN2CCC(C)CC2)nc2c1c(=O)n(C)c(=O)n2C (nonaromatic ring conformer: 97.5351420649112 kcal/mol)

>  <smiles>  (38) 
CC1CCN(Cc2nc3c(c(=O)n(C)c(=O)n3C)n2CC(N)=O)CC1

>  <score_type>  (38) 
oracle

>  <origin>  (38) 
autodockgpu

>  <m_score__min__energy>  (38) 
-5.3399999999999999

>  <m_primary>  (38) 
energy

>  <meeko>  (38) 
{"free_energy": -4.64, "intermolecular_energy": -6.43, "internal_energy": -2.48, "cluster_size": 11, "cluster_id": 3, "rank_in_cluster": 10}

>  <energy>  (38) 
-4.64

>  <cluster_rmsd>  (38) 
0.04

>  <rmsd>  (38) 
272.01

>  <cluster>  (38) 
3

$$$$
IQOSOXOZFSRASN-WAHAVJNONA-N
     RDKit          3D

 49 51  0  0  0  0  0  0  0  0999 V2000
  139.8190   78.7290  222.6010 H   0  0  0  0  0  0  0  0  0  0  0  0
  139.2530   77.9760  223.0550 N   0  0  0  0  0  0  0  0  0  0  0  0
  138.7970   76.9580  222.3950 C   0  0  0  0  0  0  0  0  0  0  0  0
  138.1080   75.9530  223.0680 O   0  0  0  0  0  0  0  0  0  0  0  0
  138.4510   74.9990  223.0770 H   0  0  0  0  0  0  0  0  0  0  0  0
  139.0060   76.8390  220.9130 C   0  0  0  0  0  0  0  0  0  0  0  0
  138.3110   76.0894  220.5066 H   0  0  0  0  0  0  0  0  0  0  0  0
  138.8192   77.8160  220.4434 H   0  0  0  0  0  0  0  0  0  0  0  0
  140.3850   76.4260  220.6300 N   0  0  0  0  0  0  0  0  0  0  0  0
  141.4260   77.2110  220.2240 C   0  0  0  0  0  0  0  0  0  0  0  0
  141.3340   78.6800  219.9150 C   0  0  0  0  0  0  0  0  0  0  0  0
  142.2347   78.9931  219.3667 H   0  0  0  0  0  0  0  0  0  0  0  0
  140.4390   78.8626  219.3022 H   0  0  0  0  0  0  0  0  0  0  0  0
  141.2290   79.4580  221.1650 N   0  0  0  0  0  0  0  0  0  0  0  0
  141.3910   80.9040  220.8830 C   0  0  0  0  0  0  0  0  0  0  0  0
  142.2484   81.0359  220.2066 H   0  0  0  0  0  0  0  0  0  0  0  0
  140.4539   81.2592  220.4295 H   0  0  0  0  0  0  0  0  0  0  0  0
  141.6360   81.7420  222.1600 C   0  0  0  0  0  0  0  0  0  0  0  0
  142.7092   81.9731  222.2287 H   0  0  0  0  0  0  0  0  0  0  0  0
  141.0275   82.6549  222.0801 H   0  0  0  0  0  0  0  0  0  0  0  0
  141.2070   81.0080  223.4440 C   0  0  0  0  0  0  0  0  0  0  0  0
  141.5370   81.6066  224.3058 H   0  0  0  0  0  0  0  0  0  0  0  0
  139.6770   80.8920  223.5390 C   0  0  0  0  0  0  0  0  0  0  0  0
  139.3760   80.8692  224.5968 H   0  0  0  0  0  0  0  0  0  0  0  0
  139.2122   81.7575  223.0441 H   0  0  0  0  0  0  0  0  0  0  0  0
  139.3480   79.9663  223.0441 H   0  0  0  0  0  0  0  0  0  0  0  0
  141.8970   79.6250  223.5430 C   0  0  0  0  0  0  0  0  0  0  0  0
  142.8394   79.7429  224.0980 H   0  0  0  0  0  0  0  0  0  0  0  0
  141.1993   78.9464  224.0555 H   0  0  0  0  0  0  0  0  0  0  0  0
  142.2120   79.0070  222.1680 C   0  0  0  0  0  0  0  0  0  0  0  0
  143.2194   79.3171  221.8533 H   0  0  0  0  0  0  0  0  0  0  0  0
  142.1623   77.9111  222.2492 H   0  0  0  0  0  0  0  0  0  0  0  0
  142.5940   76.5310  220.0920 N   0  0  0  0  0  0  0  0  0  0  0  0
  142.2580   75.2790  220.4540 C   0  0  0  0  0  0  0  0  0  0  0  0
  140.9460   75.2070  220.7840 C   0  0  0  0  0  0  0  0  0  0  0  0
  140.4000   73.9950  221.2010 C   0  0  0  0  0  0  0  0  0  0  0  0
  139.1810   73.9090  221.5130 O   0  0  0  0  0  0  0  0  0  0  0  0
  141.2220   72.8930  221.2600 N   0  0  0  0  0  0  0  0  0  0  0  0
  140.6690   71.5860  221.6570 C   0  0  0  0  0  0  0  0  0  0  0  0
  140.6403   71.5181  222.7545 H   0  0  0  0  0  0  0  0  0  0  0  0
  139.6498   71.4821  221.2564 H   0  0  0  0  0  0  0  0  0  0  0  0
  141.3041   70.7822  221.2564 H   0  0  0  0  0  0  0  0  0  0  0  0
  142.5490   72.9900  220.8770 C   0  0  0  0  0  0  0  0  0  0  0  0
  143.2770   71.9570  220.8680 O   0  0  0  0  0  0  0  0  0  0  0  0
  143.0860   74.2000  220.4990 N   0  0  0  0  0  0  0  0  0  0  0  0
  144.4880   74.3110  220.0770 C   0  0  0  0  0  0  0  0  0  0  0  0
  145.1352   74.3622  220.9650 H   0  0  0  0  0  0  0  0  0  0  0  0
  144.7604   73.4316  219.4749 H   0  0  0  0  0  0  0  0  0  0  0  0
  144.6187   75.2223  219.4749 H   0  0  0  0  0  0  0  0  0  0  0  0
  1  2  1  0
  2  3  2  0
  3  4  1  0
  4  5  1  0
  3  6  1  0
  6  7  1  0
  6  8  1  0
  6  9  1  0
  9 10  1  0
 10 11  1  0
 11 12  1  0
 11 13  1  0
 11 14  1  0
 14 15  1  0
 15 16  1  0
 15 17  1  0
 15 18  1  0
 18 19  1  0
 18 20  1  0
 18 21  1  0
 21 22  1  0
 21 23  1  0
 23 24  1  0
 23 25  1  0
 23 26  1  0
 21 27  1  0
 27 28  1  0
 27 29  1  0
 27 30  1  0
 30 31  1  0
 30 32  1  0
 10 33  2  0
 33 34  1  0
 34 35  2  0
 35 36  1  0
 36 37  2  0
 36 38  1  0
 38 39  1  0
 39 40  1  0
 39 41  1  0
 39 42  1  0
 38 43  1  0
 43 44  2  0
 43 45  1  0
 45 46  1  0
 46 47  1  0
 46 48  1  0
 46 49  1  0
 35  9  1  0
 30 14  1  0
 45 34  1  0
M  END
>  <UniqueID>  (39) 
14

>  <SMILES>  (39) 
[H]/N=C(/O)Cn1c(CN2CCC(C)CC2)nc2c1c(=O)n(C)c(=O)n2C

>  <Energy>  (39) 
97.5351420649112

>  <Genealogy>  (39) 
CC1CCN(Cc2nc3c(c(=O)n(C)c(=O)n3C)n2CC(=N)O)CC1 (tautomer)
[H]/N=C(/O)Cn1c(CN2CCC(C)CC2)nc2c1c(=O)n(C)c(=O)n2C (cis-trans isomerization)
[H]/N=C(/O)Cn1c(CN2CCC(C)CC2)nc2c1c(=O)n(C)c(=O)n2C (3D coordinates assigned)
[H]/N=C(/O)Cn1c(CN2CCC(C)CC2)nc2c1c(=O)n(C)c(=O)n2C (nonaromatic ring conformer: 97.5351420649112 kcal/mol)

>  <smiles>  (39) 
CC1CCN(Cc2nc3c(c(=O)n(C)c(=O)n3C)n2CC(N)=O)CC1

>  <score_type>  (39) 
oracle

>  <origin>  (39) 
autodockgpu

>  <m_score__min__energy>  (39) 
-5.3399999999999999

>  <m_primary>  (39) 
energy

>  <meeko>  (39) 
{"free_energy": -4.64, "intermolecular_energy": -6.43, "internal_energy": -2.48, "cluster_size": 11, "cluster_id": 3, "rank_in_cluster": 9}

>  <energy>  (39) 
-4.64

>  <cluster_rmsd>  (39) 
0.05

>  <rmsd>  (39) 
272.02

>  <cluster>  (39) 
3

$$$$
IQOSOXOZFSRASN-WAHAVJNONA-N
     RDKit          3D

 49 51  0  0  0  0  0  0  0  0999 V2000
  143.3930   78.9320  217.0840 H   0  0  0  0  0  0  0  0  0  0  0  0
  142.8910   79.5760  217.7370 N   0  0  0  0  0  0  0  0  0  0  0  0
  142.1660   79.1390  218.7190 C   0  0  0  0  0  0  0  0  0  0  0  0
  142.2090   79.7900  219.9490 O   0  0  0  0  0  0  0  0  0  0  0  0
  142.4170   79.2840  220.8020 H   0  0  0  0  0  0  0  0  0  0  0  0
  141.2850   77.9350  218.5560 C   0  0  0  0  0  0  0  0  0  0  0  0
  140.2929   78.1503  218.9795 H   0  0  0  0  0  0  0  0  0  0  0  0
  141.1924   77.6994  217.4855 H   0  0  0  0  0  0  0  0  0  0  0  0
  141.8700   76.7830  219.2520 N   0  0  0  0  0  0  0  0  0  0  0  0
  141.5330   76.2890  220.4800 C   0  0  0  0  0  0  0  0  0  0  0  0
  140.5140   76.8930  221.4070 C   0  0  0  0  0  0  0  0  0  0  0  0
  139.6201   77.1738  220.8307 H   0  0  0  0  0  0  0  0  0  0  0  0
  140.2480   76.1545  222.1776 H   0  0  0  0  0  0  0  0  0  0  0  0
  141.0680   78.0930  222.0620 N   0  0  0  0  0  0  0  0  0  0  0  0
  141.4470   77.7850  223.4610 C   0  0  0  0  0  0  0  0  0  0  0  0
  140.6317   77.2125  223.9274 H   0  0  0  0  0  0  0  0  0  0  0  0
  142.3850   77.2113  223.4297 H   0  0  0  0  0  0  0  0  0  0  0  0
  141.7070   79.0520  224.3080 C   0  0  0  0  0  0  0  0  0  0  0  0
  140.8250   79.2419  224.9373 H   0  0  0  0  0  0  0  0  0  0  0  0
  142.6065   78.8683  224.9139 H   0  0  0  0  0  0  0  0  0  0  0  0
  141.9740   80.2990  223.4440 C   0  0  0  0  0  0  0  0  0  0  0  0
  142.0122   81.1737  224.1099 H   0  0  0  0  0  0  0  0  0  0  0  0
  143.3380   80.2120  222.7400 C   0  0  0  0  0  0  0  0  0  0  0  0
  144.1372   80.1610  223.4941 H   0  0  0  0  0  0  0  0  0  0  0  0
  143.3692   79.3100  222.1111 H   0  0  0  0  0  0  0  0  0  0  0  0
  143.4835   81.1027  222.1111 H   0  0  0  0  0  0  0  0  0  0  0  0
  140.8200   80.5270  222.4370 C   0  0  0  0  0  0  0  0  0  0  0  0
  140.0744   81.1880  222.9029 H   0  0  0  0  0  0  0  0  0  0  0  0
  141.2580   80.9732  221.5320 H   0  0  0  0  0  0  0  0  0  0  0  0
  140.1210   79.2220  222.0130 C   0  0  0  0  0  0  0  0  0  0  0  0
  139.2823   79.0216  222.6959 H   0  0  0  0  0  0  0  0  0  0  0  0
  139.7512   79.3334  220.9830 H   0  0  0  0  0  0  0  0  0  0  0  0
  142.2340   75.1790  220.8240 N   0  0  0  0  0  0  0  0  0  0  0  0
  143.0190   74.9710  219.7510 C   0  0  0  0  0  0  0  0  0  0  0  0
  142.8040   75.9170  218.8050 C   0  0  0  0  0  0  0  0  0  0  0  0
  143.5120   75.8730  217.6050 C   0  0  0  0  0  0  0  0  0  0  0  0
  143.3240   76.7450  216.7130 O   0  0  0  0  0  0  0  0  0  0  0  0
  144.4230   74.8580  217.4200 N   0  0  0  0  0  0  0  0  0  0  0  0
  145.2190   74.8060  216.1810 C   0  0  0  0  0  0  0  0  0  0  0  0
  146.2872   74.7362  216.4341 H   0  0  0  0  0  0  0  0  0  0  0  0
  144.9234   73.9252  215.5920 H   0  0  0  0  0  0  0  0  0  0  0  0
  145.0405   75.7177  215.5920 H   0  0  0  0  0  0  0  0  0  0  0  0
  144.6490   73.9310  218.4220 C   0  0  0  0  0  0  0  0  0  0  0  0
  145.5380   73.0460  218.2690 O   0  0  0  0  0  0  0  0  0  0  0  0
  143.9190   73.9640  219.5890 N   0  0  0  0  0  0  0  0  0  0  0  0
  144.1610   72.9940  220.6650 C   0  0  0  0  0  0  0  0  0  0  0  0
  144.0375   73.4890  221.6395 H   0  0  0  0  0  0  0  0  0  0  0  0
  143.4419   72.1659  220.5807 H   0  0  0  0  0  0  0  0  0  0  0  0
  145.1848   72.6007  220.5807 H   0  0  0  0  0  0  0  0  0  0  0  0
  1  2  1  0
  2  3  2  0
  3  4  1  0
  4  5  1  0
  3  6  1  0
  6  7  1  0
  6  8  1  0
  6  9  1  0
  9 10  1  0
 10 11  1  0
 11 12  1  0
 11 13  1  0
 11 14  1  0
 14 15  1  0
 15 16  1  0
 15 17  1  0
 15 18  1  0
 18 19  1  0
 18 20  1  0
 18 21  1  0
 21 22  1  0
 21 23  1  0
 23 24  1  0
 23 25  1  0
 23 26  1  0
 21 27  1  0
 27 28  1  0
 27 29  1  0
 27 30  1  0
 30 31  1  0
 30 32  1  0
 10 33  2  0
 33 34  1  0
 34 35  2  0
 35 36  1  0
 36 37  2  0
 36 38  1  0
 38 39  1  0
 39 40  1  0
 39 41  1  0
 39 42  1  0
 38 43  1  0
 43 44  2  0
 43 45  1  0
 45 46  1  0
 46 47  1  0
 46 48  1  0
 46 49  1  0
 35  9  1  0
 30 14  1  0
 45 34  1  0
M  END
>  <UniqueID>  (40) 
14

>  <SMILES>  (40) 
[H]/N=C(/O)Cn1c(CN2CCC(C)CC2)nc2c1c(=O)n(C)c(=O)n2C

>  <Energy>  (40) 
97.5351420649112

>  <Genealogy>  (40) 
CC1CCN(Cc2nc3c(c(=O)n(C)c(=O)n3C)n2CC(=N)O)CC1 (tautomer)
[H]/N=C(/O)Cn1c(CN2CCC(C)CC2)nc2c1c(=O)n(C)c(=O)n2C (cis-trans isomerization)
[H]/N=C(/O)Cn1c(CN2CCC(C)CC2)nc2c1c(=O)n(C)c(=O)n2C (3D coordinates assigned)
[H]/N=C(/O)Cn1c(CN2CCC(C)CC2)nc2c1c(=O)n(C)c(=O)n2C (nonaromatic ring conformer: 97.5351420649112 kcal/mol)

>  <smiles>  (40) 
CC1CCN(Cc2nc3c(c(=O)n(C)c(=O)n3C)n2CC(N)=O)CC1

>  <score_type>  (40) 
oracle

>  <origin>  (40) 
autodockgpu

>  <m_score__min__energy>  (40) 
-5.3399999999999999

>  <m_primary>  (40) 
energy

>  <meeko>  (40) 
{"free_energy": -4.9, "intermolecular_energy": -6.69, "internal_energy": -2.37, "cluster_size": 8, "cluster_id": 2, "rank_in_cluster": 3}

>  <energy>  (40) 
-4.63

>  <cluster_rmsd>  (40) 
0.05

>  <rmsd>  (40) 
272.01

>  <cluster>  (40) 
3

$$$$
IQOSOXOZFSRASN-DESYHMSQNA-N
     RDKit          3D

 49 51  0  0  0  0  0  0  0  0999 V2000
  138.4540   74.2580  222.8200 H   0  0  0  0  0  0  0  0  0  0  0  0
  139.3570   74.0360  222.3430 N   0  0  0  0  0  0  0  0  0  0  0  0
  140.0820   74.9640  221.8050 C   0  0  0  0  0  0  0  0  0  0  0  0
  141.4670   74.9560  221.9520 O   0  0  0  0  0  0  0  0  0  0  0  0
  141.9970   75.8170  222.0240 H   0  0  0  0  0  0  0  0  0  0  0  0
  139.4290   76.0500  221.0080 C   0  0  0  0  0  0  0  0  0  0  0  0
  140.1508   76.4500  220.2806 H   0  0  0  0  0  0  0  0  0  0  0  0
  138.5564   75.6330  220.4839 H   0  0  0  0  0  0  0  0  0  0  0  0
  138.9820   77.1320  221.8900 N   0  0  0  0  0  0  0  0  0  0  0  0
  137.7210   77.3610  222.3560 C   0  0  0  0  0  0  0  0  0  0  0  0
  136.5450   76.4610  222.1060 C   0  0  0  0  0  0  0  0  0  0  0  0
  135.6153   77.0318  222.2468 H   0  0  0  0  0  0  0  0  0  0  0  0
  136.6011   76.0781  221.0763 H   0  0  0  0  0  0  0  0  0  0  0  0
  136.5620   75.3200  223.0430 N   0  0  0  0  0  0  0  0  0  0  0  0
  135.8590   75.6300  224.3200 C   0  0  0  0  0  0  0  0  0  0  0  0
  136.4613   75.2433  225.1553 H   0  0  0  0  0  0  0  0  0  0  0  0
  135.7383   76.7220  224.3743 H   0  0  0  0  0  0  0  0  0  0  0  0
  134.4590   75.0070  224.3960 C   0  0  0  0  0  0  0  0  0  0  0  0
  133.9957   75.2787  225.3560 H   0  0  0  0  0  0  0  0  0  0  0  0
  133.8586   75.3893  223.5573 H   0  0  0  0  0  0  0  0  0  0  0  0
  134.5330   73.4670  224.2880 C   0  0  0  0  0  0  0  0  0  0  0  0
  134.7380   73.0705  225.2933 H   0  0  0  0  0  0  0  0  0  0  0  0
  133.1920   72.9000  223.8070 C   0  0  0  0  0  0  0  0  0  0  0  0
  132.5717   72.6377  224.6767 H   0  0  0  0  0  0  0  0  0  0  0  0
  132.6714   73.6550  223.1996 H   0  0  0  0  0  0  0  0  0  0  0  0
  133.3709   72.0005  223.1996 H   0  0  0  0  0  0  0  0  0  0  0  0
  135.7000   73.0030  223.3810 C   0  0  0  0  0  0  0  0  0  0  0  0
  136.5737   72.7746  224.0091 H   0  0  0  0  0  0  0  0  0  0  0  0
  135.3764   72.1095  222.8269 H   0  0  0  0  0  0  0  0  0  0  0  0
  136.0820   74.0900  222.3690 C   0  0  0  0  0  0  0  0  0  0  0  0
  136.8803   73.7058  221.7170 H   0  0  0  0  0  0  0  0  0  0  0  0
  135.1858   74.3458  221.7847 H   0  0  0  0  0  0  0  0  0  0  0  0
  137.6210   78.4860  223.1100 N   0  0  0  0  0  0  0  0  0  0  0  0
  138.8760   78.9740  223.0890 C   0  0  0  0  0  0  0  0  0  0  0  0
  139.6930   78.1760  222.3620 C   0  0  0  0  0  0  0  0  0  0  0  0
  141.0390   78.5000  222.2170 C   0  0  0  0  0  0  0  0  0  0  0  0
  141.8120   77.7560  221.5550 O   0  0  0  0  0  0  0  0  0  0  0  0
  141.5030   79.6450  222.8240 N   0  0  0  0  0  0  0  0  0  0  0  0
  142.9300   79.9980  222.7250 C   0  0  0  0  0  0  0  0  0  0  0  0
  143.3528   80.1026  223.7351 H   0  0  0  0  0  0  0  0  0  0  0  0
  143.4670   79.2056  222.1830 H   0  0  0  0  0  0  0  0  0  0  0  0
  143.0356   80.9494  222.1830 H   0  0  0  0  0  0  0  0  0  0  0  0
  140.6530   80.4230  223.5920 C   0  0  0  0  0  0  0  0  0  0  0  0
  141.1060   81.4340  224.2000 O   0  0  0  0  0  0  0  0  0  0  0  0
  139.3170   80.1050  223.7030 N   0  0  0  0  0  0  0  0  0  0  0  0
  138.4110   80.9140  224.5300 C   0  0  0  0  0  0  0  0  0  0  0  0
  138.6203   80.7271  225.5936 H   0  0  0  0  0  0  0  0  0  0  0  0
  138.5654   81.9802  224.3077 H   0  0  0  0  0  0  0  0  0  0  0  0
  137.3690   80.6403  224.3077 H   0  0  0  0  0  0  0  0  0  0  0  0
  1  2  1  0
  2  3  2  0
  3  4  1  0
  4  5  1  0
  3  6  1  0
  6  7  1  0
  6  8  1  0
  6  9  1  0
  9 10  1  0
 10 11  1  0
 11 12  1  0
 11 13  1  0
 11 14  1  0
 14 15  1  0
 15 16  1  0
 15 17  1  0
 15 18  1  0
 18 19  1  0
 18 20  1  0
 18 21  1  0
 21 22  1  0
 21 23  1  0
 23 24  1  0
 23 25  1  0
 23 26  1  0
 21 27  1  0
 27 28  1  0
 27 29  1  0
 27 30  1  0
 30 31  1  0
 30 32  1  0
 10 33  2  0
 33 34  1  0
 34 35  2  0
 35 36  1  0
 36 37  2  0
 36 38  1  0
 38 39  1  0
 39 40  1  0
 39 41  1  0
 39 42  1  0
 38 43  1  0
 43 44  2  0
 43 45  1  0
 45 46  1  0
 46 47  1  0
 46 48  1  0
 46 49  1  0
 35  9  1  0
 30 14  1  0
 45 34  1  0
M  END
>  <UniqueID>  (41) 
15

>  <SMILES>  (41) 
[H]/N=C(\O)Cn1c(CN2CCC(C)CC2)nc2c1c(=O)n(C)c(=O)n2C

>  <Energy>  (41) 
97.6665817170871

>  <Genealogy>  (41) 
CC1CCN(Cc2nc3c(c(=O)n(C)c(=O)n3C)n2CC(=N)O)CC1 (tautomer)
[H]/N=C(\O)Cn1c(CN2CCC(C)CC2)nc2c1c(=O)n(C)c(=O)n2C (cis-trans isomerization)
[H]/N=C(\O)Cn1c(CN2CCC(C)CC2)nc2c1c(=O)n(C)c(=O)n2C (3D coordinates assigned)
[H]/N=C(\O)Cn1c(CN2CCC(C)CC2)nc2c1c(=O)n(C)c(=O)n2C (nonaromatic ring conformer: 97.6665817170871 kcal/mol)

>  <smiles>  (41) 
CC1CCN(Cc2nc3c(c(=O)n(C)c(=O)n3C)n2CC(N)=O)CC1

>  <score_type>  (41) 
oracle

>  <origin>  (41) 
autodockgpu

>  <m_score__min__energy>  (41) 
-5.3200000000000003

>  <m_primary>  (41) 
energy

>  <meeko>  (41) 
{"free_energy": -4.98, "intermolecular_energy": -6.77, "internal_energy": -2.32, "cluster_size": 5, "cluster_id": 3, "rank_in_cluster": 5}

>  <energy>  (41) 
-5.32

>  <cluster_rmsd>  (41) 
0.0

>  <rmsd>  (41) 
271.66

>  <cluster>  (41) 
1

$$$$
IQOSOXOZFSRASN-DESYHMSQNA-N
     RDKit          3D

 49 51  0  0  0  0  0  0  0  0999 V2000
  141.5850   76.3620  221.9660 H   0  0  0  0  0  0  0  0  0  0  0  0
  141.4460   75.3310  221.8790 N   0  0  0  0  0  0  0  0  0  0  0  0
  140.2610   74.8140  221.8010 C   0  0  0  0  0  0  0  0  0  0  0  0
  139.8920   73.7590  222.6330 O   0  0  0  0  0  0  0  0  0  0  0  0
  138.9560   73.6900  223.0160 H   0  0  0  0  0  0  0  0  0  0  0  0
  139.2750   75.3590  220.8160 C   0  0  0  0  0  0  0  0  0  0  0  0
  139.8114   75.9321  220.0454 H   0  0  0  0  0  0  0  0  0  0  0  0
  138.7316   74.5215  220.3542 H   0  0  0  0  0  0  0  0  0  0  0  0
  138.3130   76.2370  221.4890 N   0  0  0  0  0  0  0  0  0  0  0  0
  138.3660   77.5940  221.6100 C   0  0  0  0  0  0  0  0  0  0  0  0
  139.4120   78.4650  220.9750 C   0  0  0  0  0  0  0  0  0  0  0  0
  139.5445   78.1652  219.9250 H   0  0  0  0  0  0  0  0  0  0  0  0
  139.0846   79.5137  221.0305 H   0  0  0  0  0  0  0  0  0  0  0  0
  140.6980   78.3270  221.6860 N   0  0  0  0  0  0  0  0  0  0  0  0
  141.7930   79.0890  221.0220 C   0  0  0  0  0  0  0  0  0  0  0  0
  142.6961   78.4613  221.0026 H   0  0  0  0  0  0  0  0  0  0  0  0
  141.4509   79.3440  220.0081 H   0  0  0  0  0  0  0  0  0  0  0  0
  142.1250   80.4030  221.7410 C   0  0  0  0  0  0  0  0  0  0  0  0
  142.9319   80.9168  221.1979 H   0  0  0  0  0  0  0  0  0  0  0  0
  141.2202   81.0280  221.7663 H   0  0  0  0  0  0  0  0  0  0  0  0
  142.5820   80.1370  223.1930 C   0  0  0  0  0  0  0  0  0  0  0  0
  143.6569   79.9046  223.1684 H   0  0  0  0  0  0  0  0  0  0  0  0
  142.3740   81.3890  224.0560 C   0  0  0  0  0  0  0  0  0  0  0  0
  142.4199   81.1128  225.1198 H   0  0  0  0  0  0  0  0  0  0  0  0
  143.1625   82.1229  223.8334 H   0  0  0  0  0  0  0  0  0  0  0  0
  141.3905   81.8285  223.8334 H   0  0  0  0  0  0  0  0  0  0  0  0
  141.8750   78.9040  223.8090 C   0  0  0  0  0  0  0  0  0  0  0  0
  142.5203   78.0217  223.6859 H   0  0  0  0  0  0  0  0  0  0  0  0
  141.6911   79.1045  224.8748 H   0  0  0  0  0  0  0  0  0  0  0  0
  140.5290   78.6380  223.1260 C   0  0  0  0  0  0  0  0  0  0  0  0
  140.0406   77.7852  223.6202 H   0  0  0  0  0  0  0  0  0  0  0  0
  139.9151   79.5467  223.2113 H   0  0  0  0  0  0  0  0  0  0  0  0
  137.3490   78.1100  222.3470 N   0  0  0  0  0  0  0  0  0  0  0  0
  136.6530   77.0150  222.7060 C   0  0  0  0  0  0  0  0  0  0  0  0
  137.2220   75.8940  222.2030 C   0  0  0  0  0  0  0  0  0  0  0  0
  136.6540   74.6480  222.4540 C   0  0  0  0  0  0  0  0  0  0  0  0
  137.1670   73.6000  221.9780 O   0  0  0  0  0  0  0  0  0  0  0  0
  135.5160   74.5940  223.2260 N   0  0  0  0  0  0  0  0  0  0  0  0
  134.8650   73.2960  223.4800 C   0  0  0  0  0  0  0  0  0  0  0  0
  134.7832   73.1329  224.5648 H   0  0  0  0  0  0  0  0  0  0  0  0
  133.8602   73.2959  223.0324 H   0  0  0  0  0  0  0  0  0  0  0  0
  135.4659   72.4906  223.0324 H   0  0  0  0  0  0  0  0  0  0  0  0
  134.9350   75.7590  223.6980 C   0  0  0  0  0  0  0  0  0  0  0  0
  133.8520   75.7030  224.3460 O   0  0  0  0  0  0  0  0  0  0  0  0
  135.5230   76.9830  223.4640 N   0  0  0  0  0  0  0  0  0  0  0  0
  134.9060   78.2260  223.9440 C   0  0  0  0  0  0  0  0  0  0  0  0
  134.9027   78.2327  225.0440 H   0  0  0  0  0  0  0  0  0  0  0  0
  135.4811   79.0875  223.5738 H   0  0  0  0  0  0  0  0  0  0  0  0
  133.8721   78.2889  223.5738 H   0  0  0  0  0  0  0  0  0  0  0  0
  1  2  1  0
  2  3  2  0
  3  4  1  0
  4  5  1  0
  3  6  1  0
  6  7  1  0
  6  8  1  0
  6  9  1  0
  9 10  1  0
 10 11  1  0
 11 12  1  0
 11 13  1  0
 11 14  1  0
 14 15  1  0
 15 16  1  0
 15 17  1  0
 15 18  1  0
 18 19  1  0
 18 20  1  0
 18 21  1  0
 21 22  1  0
 21 23  1  0
 23 24  1  0
 23 25  1  0
 23 26  1  0
 21 27  1  0
 27 28  1  0
 27 29  1  0
 27 30  1  0
 30 31  1  0
 30 32  1  0
 10 33  2  0
 33 34  1  0
 34 35  2  0
 35 36  1  0
 36 37  2  0
 36 38  1  0
 38 39  1  0
 39 40  1  0
 39 41  1  0
 39 42  1  0
 38 43  1  0
 43 44  2  0
 43 45  1  0
 45 46  1  0
 46 47  1  0
 46 48  1  0
 46 49  1  0
 35  9  1  0
 30 14  1  0
 45 34  1  0
M  END
>  <UniqueID>  (42) 
15

>  <SMILES>  (42) 
[H]/N=C(\O)Cn1c(CN2CCC(C)CC2)nc2c1c(=O)n(C)c(=O)n2C

>  <Energy>  (42) 
97.6665817170871

>  <Genealogy>  (42) 
CC1CCN(Cc2nc3c(c(=O)n(C)c(=O)n3C)n2CC(=N)O)CC1 (tautomer)
[H]/N=C(\O)Cn1c(CN2CCC(C)CC2)nc2c1c(=O)n(C)c(=O)n2C (cis-trans isomerization)
[H]/N=C(\O)Cn1c(CN2CCC(C)CC2)nc2c1c(=O)n(C)c(=O)n2C (3D coordinates assigned)
[H]/N=C(\O)Cn1c(CN2CCC(C)CC2)nc2c1c(=O)n(C)c(=O)n2C (nonaromatic ring conformer: 97.6665817170871 kcal/mol)

>  <smiles>  (42) 
CC1CCN(Cc2nc3c(c(=O)n(C)c(=O)n3C)n2CC(N)=O)CC1

>  <score_type>  (42) 
oracle

>  <origin>  (42) 
autodockgpu

>  <m_score__min__energy>  (42) 
-5.3200000000000003

>  <m_primary>  (42) 
energy

>  <meeko>  (42) 
{"free_energy": -5.2, "intermolecular_energy": -6.99, "internal_energy": -2.41, "cluster_size": 14, "cluster_id": 1, "rank_in_cluster": 6}

>  <energy>  (42) 
-5.22

>  <cluster_rmsd>  (42) 
0.66

>  <rmsd>  (42) 
271.48

>  <cluster>  (42) 
1

$$$$
IQOSOXOZFSRASN-DESYHMSQNA-N
     RDKit          3D

 49 51  0  0  0  0  0  0  0  0999 V2000
  141.6080   76.4880  221.8680 H   0  0  0  0  0  0  0  0  0  0  0  0
  141.4550   75.4580  221.9480 N   0  0  0  0  0  0  0  0  0  0  0  0
  140.2910   74.9300  221.7420 C   0  0  0  0  0  0  0  0  0  0  0  0
  139.9000   73.7830  222.4310 O   0  0  0  0  0  0  0  0  0  0  0  0
  138.9580   73.6740  222.7860 H   0  0  0  0  0  0  0  0  0  0  0  0
  139.3510   75.5610  220.7630 C   0  0  0  0  0  0  0  0  0  0  0  0
  139.9256   76.1684  220.0482 H   0  0  0  0  0  0  0  0  0  0  0  0
  138.8043   74.7687  220.2307 H   0  0  0  0  0  0  0  0  0  0  0  0
  138.3880   76.4180  221.4610 N   0  0  0  0  0  0  0  0  0  0  0  0
  138.4230   77.7740  221.5950 C   0  0  0  0  0  0  0  0  0  0  0  0
  139.4470   78.6660  220.9530 C   0  0  0  0  0  0  0  0  0  0  0  0
  139.5150   78.4269  219.8815 H   0  0  0  0  0  0  0  0  0  0  0  0
  139.1417   79.7141  221.0881 H   0  0  0  0  0  0  0  0  0  0  0  0
  140.7680   78.4680  221.5800 N   0  0  0  0  0  0  0  0  0  0  0  0
  141.8220   79.3130  220.9520 C   0  0  0  0  0  0  0  0  0  0  0  0
  142.7278   78.7032  220.8190 H   0  0  0  0  0  0  0  0  0  0  0  0
  141.4268   79.6738  219.9909 H   0  0  0  0  0  0  0  0  0  0  0  0
  142.1800   80.5440  221.7940 C   0  0  0  0  0  0  0  0  0  0  0  0
  142.9545   81.1247  221.2717 H   0  0  0  0  0  0  0  0  0  0  0  0
  141.2730   81.1507  221.9328 H   0  0  0  0  0  0  0  0  0  0  0  0
  142.7120   80.1260  223.1840 C   0  0  0  0  0  0  0  0  0  0  0  0
  143.7863   79.9129  223.0817 H   0  0  0  0  0  0  0  0  0  0  0  0
  142.5370   81.2720  224.1890 C   0  0  0  0  0  0  0  0  0  0  0  0
  142.5977   80.8743  225.2128 H   0  0  0  0  0  0  0  0  0  0  0  0
  143.3318   82.0172  224.0374 H   0  0  0  0  0  0  0  0  0  0  0  0
  141.5561   81.7461  224.0374 H   0  0  0  0  0  0  0  0  0  0  0  0
  142.0470   78.8230  223.6930 C   0  0  0  0  0  0  0  0  0  0  0  0
  142.6923   77.9686  223.4406 H   0  0  0  0  0  0  0  0  0  0  0  0
  141.9157   78.9016  224.7823 H   0  0  0  0  0  0  0  0  0  0  0  0
  140.6700   78.6160  223.0520 C   0  0  0  0  0  0  0  0  0  0  0  0
  140.2139   77.7075  223.4722 H   0  0  0  0  0  0  0  0  0  0  0  0
  140.0542   79.5016  223.2678 H   0  0  0  0  0  0  0  0  0  0  0  0
  137.4100   78.2680  222.3530 N   0  0  0  0  0  0  0  0  0  0  0  0
  136.7360   77.1590  222.7110 C   0  0  0  0  0  0  0  0  0  0  0  0
  137.3120   76.0520  222.1870 C   0  0  0  0  0  0  0  0  0  0  0  0
  136.7660   74.7960  222.4350 C   0  0  0  0  0  0  0  0  0  0  0  0
  137.2860   73.7600  221.9400 O   0  0  0  0  0  0  0  0  0  0  0  0
  135.6410   74.7170  223.2230 N   0  0  0  0  0  0  0  0  0  0  0  0
  135.0120   73.4080  223.4730 C   0  0  0  0  0  0  0  0  0  0  0  0
  134.9317   73.2409  224.5573 H   0  0  0  0  0  0  0  0  0  0  0  0
  134.0079   73.3920  223.0242 H   0  0  0  0  0  0  0  0  0  0  0  0
  135.6269   72.6140  223.0242 H   0  0  0  0  0  0  0  0  0  0  0  0
  135.0510   75.8700  223.7150 C   0  0  0  0  0  0  0  0  0  0  0  0
  133.9790   75.7910  224.3800 O   0  0  0  0  0  0  0  0  0  0  0  0
  135.6180   77.1040  223.4860 N   0  0  0  0  0  0  0  0  0  0  0  0
  134.9910   78.3330  223.9880 C   0  0  0  0  0  0  0  0  0  0  0  0
  134.9956   78.3241  225.0880 H   0  0  0  0  0  0  0  0  0  0  0  0
  135.5539   79.2060  223.6261 H   0  0  0  0  0  0  0  0  0  0  0  0
  133.9538   78.3897  223.6261 H   0  0  0  0  0  0  0  0  0  0  0  0
  1  2  1  0
  2  3  2  0
  3  4  1  0
  4  5  1  0
  3  6  1  0
  6  7  1  0
  6  8  1  0
  6  9  1  0
  9 10  1  0
 10 11  1  0
 11 12  1  0
 11 13  1  0
 11 14  1  0
 14 15  1  0
 15 16  1  0
 15 17  1  0
 15 18  1  0
 18 19  1  0
 18 20  1  0
 18 21  1  0
 21 22  1  0
 21 23  1  0
 23 24  1  0
 23 25  1  0
 23 26  1  0
 21 27  1  0
 27 28  1  0
 27 29  1  0
 27 30  1  0
 30 31  1  0
 30 32  1  0
 10 33  2  0
 33 34  1  0
 34 35  2  0
 35 36  1  0
 36 37  2  0
 36 38  1  0
 38 39  1  0
 39 40  1  0
 39 41  1  0
 39 42  1  0
 38 43  1  0
 43 44  2  0
 43 45  1  0
 45 46  1  0
 46 47  1  0
 46 48  1  0
 46 49  1  0
 35  9  1  0
 30 14  1  0
 45 34  1  0
M  END
>  <UniqueID>  (43) 
15

>  <SMILES>  (43) 
[H]/N=C(\O)Cn1c(CN2CCC(C)CC2)nc2c1c(=O)n(C)c(=O)n2C

>  <Energy>  (43) 
97.6665817170871

>  <Genealogy>  (43) 
CC1CCN(Cc2nc3c(c(=O)n(C)c(=O)n3C)n2CC(=N)O)CC1 (tautomer)
[H]/N=C(\O)Cn1c(CN2CCC(C)CC2)nc2c1c(=O)n(C)c(=O)n2C (cis-trans isomerization)
[H]/N=C(\O)Cn1c(CN2CCC(C)CC2)nc2c1c(=O)n(C)c(=O)n2C (3D coordinates assigned)
[H]/N=C(\O)Cn1c(CN2CCC(C)CC2)nc2c1c(=O)n(C)c(=O)n2C (nonaromatic ring conformer: 97.6665817170871 kcal/mol)

>  <smiles>  (43) 
CC1CCN(Cc2nc3c(c(=O)n(C)c(=O)n3C)n2CC(N)=O)CC1

>  <score_type>  (43) 
oracle

>  <origin>  (43) 
autodockgpu

>  <m_score__min__energy>  (43) 
-5.3200000000000003

>  <m_primary>  (43) 
energy

>  <meeko>  (43) 
{"free_energy": -5.18, "intermolecular_energy": -6.97, "internal_energy": -2.42, "cluster_size": 14, "cluster_id": 1, "rank_in_cluster": 11}

>  <energy>  (43) 
-5.22

>  <cluster_rmsd>  (43) 
0.62

>  <rmsd>  (43) 
271.51

>  <cluster>  (43) 
1

$$$$
IQOSOXOZFSRASN-DESYHMSQNA-N
     RDKit          3D

 49 51  0  0  0  0  0  0  0  0999 V2000
  141.5370   76.5830  221.9760 H   0  0  0  0  0  0  0  0  0  0  0  0
  141.4310   75.5460  221.9050 N   0  0  0  0  0  0  0  0  0  0  0  0
  140.2740   74.9970  221.7180 C   0  0  0  0  0  0  0  0  0  0  0  0
  139.9330   73.8190  222.3780 O   0  0  0  0  0  0  0  0  0  0  0  0
  139.0100   73.6810  222.7730 H   0  0  0  0  0  0  0  0  0  0  0  0
  139.2880   75.6380  220.7910 C   0  0  0  0  0  0  0  0  0  0  0  0
  139.8151   76.3444  220.1328 H   0  0  0  0  0  0  0  0  0  0  0  0
  138.8003   74.8555  220.1911 H   0  0  0  0  0  0  0  0  0  0  0  0
  138.2650   76.3600  221.5550 N   0  0  0  0  0  0  0  0  0  0  0  0
  138.2000   77.6990  221.8030 C   0  0  0  0  0  0  0  0  0  0  0  0
  139.1540   78.7150  221.2420 C   0  0  0  0  0  0  0  0  0  0  0  0
  139.1693   78.6309  220.1453 H   0  0  0  0  0  0  0  0  0  0  0  0
  138.8203   79.7200  221.5397 H   0  0  0  0  0  0  0  0  0  0  0  0
  140.5150   78.4880  221.7660 N   0  0  0  0  0  0  0  0  0  0  0  0
  141.5380   79.2940  221.0440 C   0  0  0  0  0  0  0  0  0  0  0  0
  142.4134   78.6570  220.8492 H   0  0  0  0  0  0  0  0  0  0  0  0
  141.0778   79.6532  220.1117 H   0  0  0  0  0  0  0  0  0  0  0  0
  141.9950   80.5250  221.8360 C   0  0  0  0  0  0  0  0  0  0  0  0
  142.7407   81.0769  221.2449 H   0  0  0  0  0  0  0  0  0  0  0  0
  141.1184   81.1583  222.0372 H   0  0  0  0  0  0  0  0  0  0  0  0
  142.6250   80.1110  223.1860 C   0  0  0  0  0  0  0  0  0  0  0  0
  143.6816   79.8659  223.0030 H   0  0  0  0  0  0  0  0  0  0  0  0
  142.5620   81.2750  224.1830 C   0  0  0  0  0  0  0  0  0  0  0  0
  142.5834   80.8801  225.2095 H   0  0  0  0  0  0  0  0  0  0  0  0
  143.4256   81.9383  224.0272 H   0  0  0  0  0  0  0  0  0  0  0  0
  141.6319   81.8413  224.0272 H   0  0  0  0  0  0  0  0  0  0  0  0
  141.9660   78.8350  223.7660 C   0  0  0  0  0  0  0  0  0  0  0  0
  142.5657   77.9591  223.4776 H   0  0  0  0  0  0  0  0  0  0  0  0
  141.9227   78.9332  224.8608 H   0  0  0  0  0  0  0  0  0  0  0  0
  140.5380   78.6580  223.2390 C   0  0  0  0  0  0  0  0  0  0  0  0
  140.0926   77.7681  223.7077 H   0  0  0  0  0  0  0  0  0  0  0  0
  139.9651   79.5631  223.4891 H   0  0  0  0  0  0  0  0  0  0  0  0
  137.1550   78.0500  222.5960 N   0  0  0  0  0  0  0  0  0  0  0  0
  136.5650   76.8680  222.8560 C   0  0  0  0  0  0  0  0  0  0  0  0
  137.2210   75.8550  222.2430 C   0  0  0  0  0  0  0  0  0  0  0  0
  136.7710   74.5460  222.3810 C   0  0  0  0  0  0  0  0  0  0  0  0
  137.3650   73.5960  221.8030 O   0  0  0  0  0  0  0  0  0  0  0  0
  135.6550   74.3180  223.1550 N   0  0  0  0  0  0  0  0  0  0  0  0
  135.1270   72.9490  223.2920 C   0  0  0  0  0  0  0  0  0  0  0  0
  135.0303   72.6983  224.3587 H   0  0  0  0  0  0  0  0  0  0  0  0
  134.1403   72.8866  222.8098 H   0  0  0  0  0  0  0  0  0  0  0  0
  135.8163   72.2402  222.8098 H   0  0  0  0  0  0  0  0  0  0  0  0
  134.9830   75.3770  223.7410 C   0  0  0  0  0  0  0  0  0  0  0  0
  133.9220   75.1640  224.3920 O   0  0  0  0  0  0  0  0  0  0  0  0
  135.4570   76.6650  223.6190 N   0  0  0  0  0  0  0  0  0  0  0  0
  134.7410   77.7980  224.2200 C   0  0  0  0  0  0  0  0  0  0  0  0
  134.7890   77.7221  225.3163 H   0  0  0  0  0  0  0  0  0  0  0  0
  135.2082   78.7400  223.8969 H   0  0  0  0  0  0  0  0  0  0  0  0
  133.6897   77.7804  223.8969 H   0  0  0  0  0  0  0  0  0  0  0  0
  1  2  1  0
  2  3  2  0
  3  4  1  0
  4  5  1  0
  3  6  1  0
  6  7  1  0
  6  8  1  0
  6  9  1  0
  9 10  1  0
 10 11  1  0
 11 12  1  0
 11 13  1  0
 11 14  1  0
 14 15  1  0
 15 16  1  0
 15 17  1  0
 15 18  1  0
 18 19  1  0
 18 20  1  0
 18 21  1  0
 21 22  1  0
 21 23  1  0
 23 24  1  0
 23 25  1  0
 23 26  1  0
 21 27  1  0
 27 28  1  0
 27 29  1  0
 27 30  1  0
 30 31  1  0
 30 32  1  0
 10 33  2  0
 33 34  1  0
 34 35  2  0
 35 36  1  0
 36 37  2  0
 36 38  1  0
 38 39  1  0
 39 40  1  0
 39 41  1  0
 39 42  1  0
 38 43  1  0
 43 44  2  0
 43 45  1  0
 45 46  1  0
 46 47  1  0
 46 48  1  0
 46 49  1  0
 35  9  1  0
 30 14  1  0
 45 34  1  0
M  END
>  <UniqueID>  (44) 
15

>  <SMILES>  (44) 
[H]/N=C(\O)Cn1c(CN2CCC(C)CC2)nc2c1c(=O)n(C)c(=O)n2C

>  <Energy>  (44) 
97.6665817170871

>  <Genealogy>  (44) 
CC1CCN(Cc2nc3c(c(=O)n(C)c(=O)n3C)n2CC(=N)O)CC1 (tautomer)
[H]/N=C(\O)Cn1c(CN2CCC(C)CC2)nc2c1c(=O)n(C)c(=O)n2C (cis-trans isomerization)
[H]/N=C(\O)Cn1c(CN2CCC(C)CC2)nc2c1c(=O)n(C)c(=O)n2C (3D coordinates assigned)
[H]/N=C(\O)Cn1c(CN2CCC(C)CC2)nc2c1c(=O)n(C)c(=O)n2C (nonaromatic ring conformer: 97.6665817170871 kcal/mol)

>  <smiles>  (44) 
CC1CCN(Cc2nc3c(c(=O)n(C)c(=O)n3C)n2CC(N)=O)CC1

>  <score_type>  (44) 
oracle

>  <origin>  (44) 
autodockgpu

>  <m_score__min__energy>  (44) 
-5.3200000000000003

>  <m_primary>  (44) 
energy

>  <meeko>  (44) 
{"free_energy": -5.2, "intermolecular_energy": -6.99, "internal_energy": -2.39, "cluster_size": 14, "cluster_id": 1, "rank_in_cluster": 8}

>  <energy>  (44) 
-5.21

>  <cluster_rmsd>  (44) 
0.61

>  <rmsd>  (44) 
271.52

>  <cluster>  (44) 
1

$$$$
IQOSOXOZFSRASN-DESYHMSQNA-N
     RDKit          3D

 49 51  0  0  0  0  0  0  0  0999 V2000
  142.0850   75.8210  221.8570 H   0  0  0  0  0  0  0  0  0  0  0  0
  141.5060   74.9880  221.6090 N   0  0  0  0  0  0  0  0  0  0  0  0
  140.2120   75.0370  221.6220 C   0  0  0  0  0  0  0  0  0  0  0  0
  139.4750   74.1010  222.3450 O   0  0  0  0  0  0  0  0  0  0  0  0
  138.6030   74.3490  222.7980 H   0  0  0  0  0  0  0  0  0  0  0  0
  139.5010   76.1130  220.8640 C   0  0  0  0  0  0  0  0  0  0  0  0
  140.1882   76.5508  220.1250 H   0  0  0  0  0  0  0  0  0  0  0  0
  138.6291   75.6757  220.3556 H   0  0  0  0  0  0  0  0  0  0  0  0
  139.0420   77.1630  221.7790 N   0  0  0  0  0  0  0  0  0  0  0  0
  137.7840   77.3500  222.2700 C   0  0  0  0  0  0  0  0  0  0  0  0
  136.6260   76.4260  222.0180 C   0  0  0  0  0  0  0  0  0  0  0  0
  135.6850   76.9826  222.1388 H   0  0  0  0  0  0  0  0  0  0  0  0
  136.7013   76.0296  220.9947 H   0  0  0  0  0  0  0  0  0  0  0  0
  136.6510   75.2990  222.9720 N   0  0  0  0  0  0  0  0  0  0  0  0
  135.9190   75.6110  224.2310 C   0  0  0  0  0  0  0  0  0  0  0  0
  136.5140   75.2483  225.0821 H   0  0  0  0  0  0  0  0  0  0  0  0
  135.7746   76.7009  224.2677 H   0  0  0  0  0  0  0  0  0  0  0  0
  134.5310   74.9600  224.2910 C   0  0  0  0  0  0  0  0  0  0  0  0
  134.0446   75.2355  225.2384 H   0  0  0  0  0  0  0  0  0  0  0  0
  133.9378   75.3176  223.4364 H   0  0  0  0  0  0  0  0  0  0  0  0
  134.6400   73.4200  224.2070 C   0  0  0  0  0  0  0  0  0  0  0  0
  134.8360   73.0412  225.2209 H   0  0  0  0  0  0  0  0  0  0  0  0
  133.3190   72.8190  223.7100 C   0  0  0  0  0  0  0  0  0  0  0  0
  132.6974   72.5362  224.5724 H   0  0  0  0  0  0  0  0  0  0  0  0
  132.7842   73.5624  223.1006 H   0  0  0  0  0  0  0  0  0  0  0  0
  133.5281   71.9274  223.1006 H   0  0  0  0  0  0  0  0  0  0  0  0
  135.8320   72.9690  223.3270 C   0  0  0  0  0  0  0  0  0  0  0  0
  136.6990   72.7679  223.9734 H   0  0  0  0  0  0  0  0  0  0  0  0
  135.5367   72.0616  222.7798 H   0  0  0  0  0  0  0  0  0  0  0  0
  136.2090   74.0490  222.3070 C   0  0  0  0  0  0  0  0  0  0  0  0
  137.0268   73.6728  221.6748 H   0  0  0  0  0  0  0  0  0  0  0  0
  135.3183   74.2774  221.7033 H   0  0  0  0  0  0  0  0  0  0  0  0
  137.6680   78.4540  223.0520 N   0  0  0  0  0  0  0  0  0  0  0  0
  138.9100   78.9740  223.0230 C   0  0  0  0  0  0  0  0  0  0  0  0
  139.7340   78.2140  222.2640 C   0  0  0  0  0  0  0  0  0  0  0  0
  141.0690   78.5750  222.1050 C   0  0  0  0  0  0  0  0  0  0  0  0
  141.8490   77.8670  221.4140 O   0  0  0  0  0  0  0  0  0  0  0  0
  141.5150   79.7170  222.7310 N   0  0  0  0  0  0  0  0  0  0  0  0
  142.9310   80.1090  222.6170 C   0  0  0  0  0  0  0  0  0  0  0  0
  143.3606   80.2279  223.6226 H   0  0  0  0  0  0  0  0  0  0  0  0
  143.4843   79.3302  222.0716 H   0  0  0  0  0  0  0  0  0  0  0  0
  143.0050   81.0614  222.0716 H   0  0  0  0  0  0  0  0  0  0  0  0
  140.6580   80.4550  223.5300 C   0  0  0  0  0  0  0  0  0  0  0  0
  141.0960   81.4630  224.1550 O   0  0  0  0  0  0  0  0  0  0  0  0
  139.3330   80.1020  223.6560 N   0  0  0  0  0  0  0  0  0  0  0  0
  138.4210   80.8670  224.5150 C   0  0  0  0  0  0  0  0  0  0  0  0
  138.6582   80.6681  225.5705 H   0  0  0  0  0  0  0  0  0  0  0  0
  138.5379   81.9412  224.3091 H   0  0  0  0  0  0  0  0  0  0  0  0
  137.3835   80.5650  224.3091 H   0  0  0  0  0  0  0  0  0  0  0  0
  1  2  1  0
  2  3  2  0
  3  4  1  0
  4  5  1  0
  3  6  1  0
  6  7  1  0
  6  8  1  0
  6  9  1  0
  9 10  1  0
 10 11  1  0
 11 12  1  0
 11 13  1  0
 11 14  1  0
 14 15  1  0
 15 16  1  0
 15 17  1  0
 15 18  1  0
 18 19  1  0
 18 20  1  0
 18 21  1  0
 21 22  1  0
 21 23  1  0
 23 24  1  0
 23 25  1  0
 23 26  1  0
 21 27  1  0
 27 28  1  0
 27 29  1  0
 27 30  1  0
 30 31  1  0
 30 32  1  0
 10 33  2  0
 33 34  1  0
 34 35  2  0
 35 36  1  0
 36 37  2  0
 36 38  1  0
 38 39  1  0
 39 40  1  0
 39 41  1  0
 39 42  1  0
 38 43  1  0
 43 44  2  0
 43 45  1  0
 45 46  1  0
 46 47  1  0
 46 48  1  0
 46 49  1  0
 35  9  1  0
 30 14  1  0
 45 34  1  0
M  END
>  <UniqueID>  (45) 
15

>  <SMILES>  (45) 
[H]/N=C(\O)Cn1c(CN2CCC(C)CC2)nc2c1c(=O)n(C)c(=O)n2C

>  <Energy>  (45) 
97.6665817170871

>  <Genealogy>  (45) 
CC1CCN(Cc2nc3c(c(=O)n(C)c(=O)n3C)n2CC(=N)O)CC1 (tautomer)
[H]/N=C(\O)Cn1c(CN2CCC(C)CC2)nc2c1c(=O)n(C)c(=O)n2C (cis-trans isomerization)
[H]/N=C(\O)Cn1c(CN2CCC(C)CC2)nc2c1c(=O)n(C)c(=O)n2C (3D coordinates assigned)
[H]/N=C(\O)Cn1c(CN2CCC(C)CC2)nc2c1c(=O)n(C)c(=O)n2C (nonaromatic ring conformer: 97.6665817170871 kcal/mol)

>  <smiles>  (45) 
CC1CCN(Cc2nc3c(c(=O)n(C)c(=O)n3C)n2CC(N)=O)CC1

>  <score_type>  (45) 
oracle

>  <origin>  (45) 
autodockgpu

>  <m_score__min__energy>  (45) 
-5.3200000000000003

>  <m_primary>  (45) 
energy

>  <meeko>  (45) 
{"free_energy": -4.99, "intermolecular_energy": -6.78, "internal_energy": -2.3, "cluster_size": 5, "cluster_id": 3, "rank_in_cluster": 3}

>  <energy>  (45) 
-5.21

>  <cluster_rmsd>  (45) 
0.93

>  <rmsd>  (45) 
271.45

>  <cluster>  (45) 
1

$$$$
IQOSOXOZFSRASN-DESYHMSQNA-N
     RDKit          3D

 49 51  0  0  0  0  0  0  0  0999 V2000
  141.5910   76.4470  221.9660 H   0  0  0  0  0  0  0  0  0  0  0  0
  141.4580   75.4110  221.9620 N   0  0  0  0  0  0  0  0  0  0  0  0
  140.2870   74.8810  221.8050 C   0  0  0  0  0  0  0  0  0  0  0  0
  139.9060   73.7690  222.5530 O   0  0  0  0  0  0  0  0  0  0  0  0
  138.9700   73.6810  222.9300 H   0  0  0  0  0  0  0  0  0  0  0  0
  139.3300   75.4720  220.8180 C   0  0  0  0  0  0  0  0  0  0  0  0
  139.8891   76.0742  220.0867 H   0  0  0  0  0  0  0  0  0  0  0  0
  138.7957   74.6576  220.3068 H   0  0  0  0  0  0  0  0  0  0  0  0
  138.3540   76.3260  221.5020 N   0  0  0  0  0  0  0  0  0  0  0  0
  138.3890   77.6810  221.6480 C   0  0  0  0  0  0  0  0  0  0  0  0
  139.4280   78.5760  221.0350 C   0  0  0  0  0  0  0  0  0  0  0  0
  139.5544   78.3113  219.9748 H   0  0  0  0  0  0  0  0  0  0  0  0
  139.0976   79.6212  221.1271 H   0  0  0  0  0  0  0  0  0  0  0  0
  140.7200   78.4190  221.7330 N   0  0  0  0  0  0  0  0  0  0  0  0
  141.8080   79.2020  221.0850 C   0  0  0  0  0  0  0  0  0  0  0  0
  142.7117   78.5765  221.0397 H   0  0  0  0  0  0  0  0  0  0  0  0
  141.4576   79.4874  220.0821 H   0  0  0  0  0  0  0  0  0  0  0  0
  142.1440   80.4940  221.8410 C   0  0  0  0  0  0  0  0  0  0  0  0
  142.9463   81.0249  221.3078 H   0  0  0  0  0  0  0  0  0  0  0  0
  141.2387   81.1168  221.8919 H   0  0  0  0  0  0  0  0  0  0  0  0
  142.6120   80.1850  223.2810 C   0  0  0  0  0  0  0  0  0  0  0  0
  143.6871   79.9554  223.2420 H   0  0  0  0  0  0  0  0  0  0  0  0
  142.4080   81.4100  224.1830 C   0  0  0  0  0  0  0  0  0  0  0  0
  142.4594   81.1015  225.2376 H   0  0  0  0  0  0  0  0  0  0  0  0
  143.1952   82.1508  223.9789 H   0  0  0  0  0  0  0  0  0  0  0  0
  141.4233   81.8557  223.9789 H   0  0  0  0  0  0  0  0  0  0  0  0
  141.9110   78.9330  223.8640 C   0  0  0  0  0  0  0  0  0  0  0  0
  142.5569   78.0560  223.7099 H   0  0  0  0  0  0  0  0  0  0  0  0
  141.7339   79.1013  224.9365 H   0  0  0  0  0  0  0  0  0  0  0  0
  140.5610   78.6850  223.1830 C   0  0  0  0  0  0  0  0  0  0  0  0
  140.0781   77.8162  223.6542 H   0  0  0  0  0  0  0  0  0  0  0  0
  139.9458   79.5892  223.3008 H   0  0  0  0  0  0  0  0  0  0  0  0
  137.3620   78.1710  222.3900 N   0  0  0  0  0  0  0  0  0  0  0  0
  136.6780   77.0600  222.7240 C   0  0  0  0  0  0  0  0  0  0  0  0
  137.2630   75.9570  222.2030 C   0  0  0  0  0  0  0  0  0  0  0  0
  136.7090   74.6990  222.4280 C   0  0  0  0  0  0  0  0  0  0  0  0
  137.2370   73.6660  221.9360 O   0  0  0  0  0  0  0  0  0  0  0  0
  135.5670   74.6170  223.1920 N   0  0  0  0  0  0  0  0  0  0  0  0
  134.9310   73.3070  223.4190 C   0  0  0  0  0  0  0  0  0  0  0  0
  134.8425   73.1248  224.5002 H   0  0  0  0  0  0  0  0  0  0  0  0
  133.9299   73.3015  222.9631 H   0  0  0  0  0  0  0  0  0  0  0  0
  135.5458   72.5170  222.9631 H   0  0  0  0  0  0  0  0  0  0  0  0
  134.9700   75.7660  223.6820 C   0  0  0  0  0  0  0  0  0  0  0  0
  133.8840   75.6850  224.3240 O   0  0  0  0  0  0  0  0  0  0  0  0
  135.5440   77.0010  223.4750 N   0  0  0  0  0  0  0  0  0  0  0  0
  134.9090   78.2280  223.9750 C   0  0  0  0  0  0  0  0  0  0  0  0
  134.9127   78.2208  225.0750 H   0  0  0  0  0  0  0  0  0  0  0  0
  135.4671   79.1037  223.6122 H   0  0  0  0  0  0  0  0  0  0  0  0
  133.8718   78.2781  223.6122 H   0  0  0  0  0  0  0  0  0  0  0  0
  1  2  1  0
  2  3  2  0
  3  4  1  0
  4  5  1  0
  3  6  1  0
  6  7  1  0
  6  8  1  0
  6  9  1  0
  9 10  1  0
 10 11  1  0
 11 12  1  0
 11 13  1  0
 11 14  1  0
 14 15  1  0
 15 16  1  0
 15 17  1  0
 15 18  1  0
 18 19  1  0
 18 20  1  0
 18 21  1  0
 21 22  1  0
 21 23  1  0
 23 24  1  0
 23 25  1  0
 23 26  1  0
 21 27  1  0
 27 28  1  0
 27 29  1  0
 27 30  1  0
 30 31  1  0
 30 32  1  0
 10 33  2  0
 33 34  1  0
 34 35  2  0
 35 36  1  0
 36 37  2  0
 36 38  1  0
 38 39  1  0
 39 40  1  0
 39 41  1  0
 39 42  1  0
 38 43  1  0
 43 44  2  0
 43 45  1  0
 45 46  1  0
 46 47  1  0
 46 48  1  0
 46 49  1  0
 35  9  1  0
 30 14  1  0
 45 34  1  0
M  END
>  <UniqueID>  (46) 
15

>  <SMILES>  (46) 
[H]/N=C(\O)Cn1c(CN2CCC(C)CC2)nc2c1c(=O)n(C)c(=O)n2C

>  <Energy>  (46) 
97.6665817170871

>  <Genealogy>  (46) 
CC1CCN(Cc2nc3c(c(=O)n(C)c(=O)n3C)n2CC(=N)O)CC1 (tautomer)
[H]/N=C(\O)Cn1c(CN2CCC(C)CC2)nc2c1c(=O)n(C)c(=O)n2C (cis-trans isomerization)
[H]/N=C(\O)Cn1c(CN2CCC(C)CC2)nc2c1c(=O)n(C)c(=O)n2C (3D coordinates assigned)
[H]/N=C(\O)Cn1c(CN2CCC(C)CC2)nc2c1c(=O)n(C)c(=O)n2C (nonaromatic ring conformer: 97.6665817170871 kcal/mol)

>  <smiles>  (46) 
CC1CCN(Cc2nc3c(c(=O)n(C)c(=O)n3C)n2CC(N)=O)CC1

>  <score_type>  (46) 
oracle

>  <origin>  (46) 
autodockgpu

>  <m_score__min__energy>  (46) 
-5.3200000000000003

>  <m_primary>  (46) 
energy

>  <meeko>  (46) 
{"free_energy": -5.2, "intermolecular_energy": -6.99, "internal_energy": -2.41, "cluster_size": 14, "cluster_id": 1, "rank_in_cluster": 9}

>  <energy>  (46) 
-5.2

>  <cluster_rmsd>  (46) 
0.72

>  <rmsd>  (46) 
271.46

>  <cluster>  (46) 
1

$$$$
IQOSOXOZFSRASN-DESYHMSQNA-N
     RDKit          3D

 49 51  0  0  0  0  0  0  0  0999 V2000
  138.4650   74.2470  222.8270 H   0  0  0  0  0  0  0  0  0  0  0  0
  139.3660   74.0300  222.3450 N   0  0  0  0  0  0  0  0  0  0  0  0
  140.0850   74.9620  221.8050 C   0  0  0  0  0  0  0  0  0  0  0  0
  141.4700   74.9660  221.9540 O   0  0  0  0  0  0  0  0  0  0  0  0
  141.9920   75.8300  222.0350 H   0  0  0  0  0  0  0  0  0  0  0  0
  139.4240   76.0420  221.0060 C   0  0  0  0  0  0  0  0  0  0  0  0
  140.1405   76.4407  220.2728 H   0  0  0  0  0  0  0  0  0  0  0  0
  138.5500   75.6194  220.4887 H   0  0  0  0  0  0  0  0  0  0  0  0
  138.9780   77.1270  221.8850 N   0  0  0  0  0  0  0  0  0  0  0  0
  137.7170   77.3600  222.3480 C   0  0  0  0  0  0  0  0  0  0  0  0
  136.5400   76.4610  222.1000 C   0  0  0  0  0  0  0  0  0  0  0  0
  135.6111   77.0304  222.2512 H   0  0  0  0  0  0  0  0  0  0  0  0
  136.5900   76.0854  221.0673 H   0  0  0  0  0  0  0  0  0  0  0  0
  136.5630   75.3130  223.0280 N   0  0  0  0  0  0  0  0  0  0  0  0
  135.8540   75.6070  224.3040 C   0  0  0  0  0  0  0  0  0  0  0  0
  136.4568   75.2191  225.1383 H   0  0  0  0  0  0  0  0  0  0  0  0
  135.7239   76.6975  224.3667 H   0  0  0  0  0  0  0  0  0  0  0  0
  134.4590   74.9710  224.3700 C   0  0  0  0  0  0  0  0  0  0  0  0
  133.9897   75.2315  225.3301 H   0  0  0  0  0  0  0  0  0  0  0  0
  133.8585   75.3542  223.5318 H   0  0  0  0  0  0  0  0  0  0  0  0
  134.5470   73.4330  224.2510 C   0  0  0  0  0  0  0  0  0  0  0  0
  134.7524   73.0307  225.2540 H   0  0  0  0  0  0  0  0  0  0  0  0
  133.2120   72.8580  223.7610 C   0  0  0  0  0  0  0  0  0  0  0  0
  132.5886   72.5895  224.6266 H   0  0  0  0  0  0  0  0  0  0  0  0
  132.6897   73.6110  223.1525 H   0  0  0  0  0  0  0  0  0  0  0  0
  133.4003   71.9612  223.1525 H   0  0  0  0  0  0  0  0  0  0  0  0
  135.7210   72.9860  223.3440 C   0  0  0  0  0  0  0  0  0  0  0  0
  136.5944   72.7596  223.9731 H   0  0  0  0  0  0  0  0  0  0  0  0
  135.4067   72.0945  222.7815 H   0  0  0  0  0  0  0  0  0  0  0  0
  136.0970   74.0840  222.3430 C   0  0  0  0  0  0  0  0  0  0  0  0
  136.9013   73.7122  221.6912 H   0  0  0  0  0  0  0  0  0  0  0  0
  135.2006   74.3363  221.7575 H   0  0  0  0  0  0  0  0  0  0  0  0
  137.6180   78.4870  223.0990 N   0  0  0  0  0  0  0  0  0  0  0  0
  138.8740   78.9730  223.0780 C   0  0  0  0  0  0  0  0  0  0  0  0
  139.6900   78.1710  222.3550 C   0  0  0  0  0  0  0  0  0  0  0  0
  141.0370   78.4920  222.2100 C   0  0  0  0  0  0  0  0  0  0  0  0
  141.8090   77.7460  221.5520 O   0  0  0  0  0  0  0  0  0  0  0  0
  141.5030   79.6380  222.8140 N   0  0  0  0  0  0  0  0  0  0  0  0
  142.9300   79.9890  222.7160 C   0  0  0  0  0  0  0  0  0  0  0  0
  143.3523   80.0929  223.7264 H   0  0  0  0  0  0  0  0  0  0  0  0
  143.4663   79.1960  222.1742 H   0  0  0  0  0  0  0  0  0  0  0  0
  143.0372   80.9403  222.1742 H   0  0  0  0  0  0  0  0  0  0  0  0
  140.6530   80.4200  223.5790 C   0  0  0  0  0  0  0  0  0  0  0  0
  141.1060   81.4320  224.1850 O   0  0  0  0  0  0  0  0  0  0  0  0
  139.3160   80.1050  223.6900 N   0  0  0  0  0  0  0  0  0  0  0  0
  138.4100   80.9170  224.5130 C   0  0  0  0  0  0  0  0  0  0  0  0
  138.6166   80.7319  225.5775 H   0  0  0  0  0  0  0  0  0  0  0  0
  138.5669   81.9824  224.2889 H   0  0  0  0  0  0  0  0  0  0  0  0
  137.3680   80.6448  224.2889 H   0  0  0  0  0  0  0  0  0  0  0  0
  1  2  1  0
  2  3  2  0
  3  4  1  0
  4  5  1  0
  3  6  1  0
  6  7  1  0
  6  8  1  0
  6  9  1  0
  9 10  1  0
 10 11  1  0
 11 12  1  0
 11 13  1  0
 11 14  1  0
 14 15  1  0
 15 16  1  0
 15 17  1  0
 15 18  1  0
 18 19  1  0
 18 20  1  0
 18 21  1  0
 21 22  1  0
 21 23  1  0
 23 24  1  0
 23 25  1  0
 23 26  1  0
 21 27  1  0
 27 28  1  0
 27 29  1  0
 27 30  1  0
 30 31  1  0
 30 32  1  0
 10 33  2  0
 33 34  1  0
 34 35  2  0
 35 36  1  0
 36 37  2  0
 36 38  1  0
 38 39  1  0
 39 40  1  0
 39 41  1  0
 39 42  1  0
 38 43  1  0
 43 44  2  0
 43 45  1  0
 45 46  1  0
 46 47  1  0
 46 48  1  0
 46 49  1  0
 35  9  1  0
 30 14  1  0
 45 34  1  0
M  END
>  <UniqueID>  (47) 
15

>  <SMILES>  (47) 
[H]/N=C(\O)Cn1c(CN2CCC(C)CC2)nc2c1c(=O)n(C)c(=O)n2C

>  <Energy>  (47) 
97.6665817170871

>  <Genealogy>  (47) 
CC1CCN(Cc2nc3c(c(=O)n(C)c(=O)n3C)n2CC(=N)O)CC1 (tautomer)
[H]/N=C(\O)Cn1c(CN2CCC(C)CC2)nc2c1c(=O)n(C)c(=O)n2C (cis-trans isomerization)
[H]/N=C(\O)Cn1c(CN2CCC(C)CC2)nc2c1c(=O)n(C)c(=O)n2C (3D coordinates assigned)
[H]/N=C(\O)Cn1c(CN2CCC(C)CC2)nc2c1c(=O)n(C)c(=O)n2C (nonaromatic ring conformer: 97.6665817170871 kcal/mol)

>  <smiles>  (47) 
CC1CCN(Cc2nc3c(c(=O)n(C)c(=O)n3C)n2CC(N)=O)CC1

>  <score_type>  (47) 
oracle

>  <origin>  (47) 
autodockgpu

>  <m_score__min__energy>  (47) 
-5.3200000000000003

>  <m_primary>  (47) 
energy

>  <meeko>  (47) 
{"free_energy": -4.99, "intermolecular_energy": -6.78, "internal_energy": -2.31, "cluster_size": 5, "cluster_id": 3, "rank_in_cluster": 4}

>  <energy>  (47) 
-5.2

>  <cluster_rmsd>  (47) 
0.66

>  <rmsd>  (47) 
271.49

>  <cluster>  (47) 
1

$$$$
IQOSOXOZFSRASN-DESYHMSQNA-N
     RDKit          3D

 49 51  0  0  0  0  0  0  0  0999 V2000
  141.5890   76.3760  221.9670 H   0  0  0  0  0  0  0  0  0  0  0  0
  141.4530   75.3440  221.8760 N   0  0  0  0  0  0  0  0  0  0  0  0
  140.2710   74.8230  221.7940 C   0  0  0  0  0  0  0  0  0  0  0  0
  139.9040   73.7630  222.6200 O   0  0  0  0  0  0  0  0  0  0  0  0
  138.9710   73.6930  223.0090 H   0  0  0  0  0  0  0  0  0  0  0  0
  139.2840   75.3710  220.8110 C   0  0  0  0  0  0  0  0  0  0  0  0
  139.8217   75.9295  220.0306 H   0  0  0  0  0  0  0  0  0  0  0  0
  138.7264   74.5358  220.3621 H   0  0  0  0  0  0  0  0  0  0  0  0
  138.3380   76.2680  221.4820 N   0  0  0  0  0  0  0  0  0  0  0  0
  138.4080   77.6250  221.5870 C   0  0  0  0  0  0  0  0  0  0  0  0
  139.4590   78.4760  220.9340 C   0  0  0  0  0  0  0  0  0  0  0  0
  139.5966   78.1471  219.8934 H   0  0  0  0  0  0  0  0  0  0  0  0
  139.1335   79.5264  220.9585 H   0  0  0  0  0  0  0  0  0  0  0  0
  140.7410   78.3550  221.6560 N   0  0  0  0  0  0  0  0  0  0  0  0
  141.8200   79.1680  221.0270 C   0  0  0  0  0  0  0  0  0  0  0  0
  142.7413   78.5676  220.9995 H   0  0  0  0  0  0  0  0  0  0  0  0
  141.4807   79.4429  220.0174 H   0  0  0  0  0  0  0  0  0  0  0  0
  142.1060   80.4690  221.7870 C   0  0  0  0  0  0  0  0  0  0  0  0
  142.9035   81.0211  221.2682 H   0  0  0  0  0  0  0  0  0  0  0  0
  141.1830   81.0665  221.8197 H   0  0  0  0  0  0  0  0  0  0  0  0
  142.5550   80.1750  223.2370 C   0  0  0  0  0  0  0  0  0  0  0  0
  143.6367   79.9762  223.2191 H   0  0  0  0  0  0  0  0  0  0  0  0
  142.3000   81.3940  224.1330 C   0  0  0  0  0  0  0  0  0  0  0  0
  142.3631   81.0925  225.1890 H   0  0  0  0  0  0  0  0  0  0  0  0
  143.0562   82.1656  223.9262 H   0  0  0  0  0  0  0  0  0  0  0  0
  141.2979   81.7979  223.9262 H   0  0  0  0  0  0  0  0  0  0  0  0
  141.8780   78.9040  223.8080 C   0  0  0  0  0  0  0  0  0  0  0  0
  142.5504   78.0451  223.6661 H   0  0  0  0  0  0  0  0  0  0  0  0
  141.6770   79.0674  224.8771 H   0  0  0  0  0  0  0  0  0  0  0  0
  140.5480   78.6190  223.1030 C   0  0  0  0  0  0  0  0  0  0  0  0
  140.0799   77.7383  223.5670 H   0  0  0  0  0  0  0  0  0  0  0  0
  139.9067   79.5066  223.2076 H   0  0  0  0  0  0  0  0  0  0  0  0
  137.4030   78.1610  222.3270 N   0  0  0  0  0  0  0  0  0  0  0  0
  136.6970   77.0780  222.7030 C   0  0  0  0  0  0  0  0  0  0  0  0
  137.2490   75.9460  222.2080 C   0  0  0  0  0  0  0  0  0  0  0  0
  136.6680   74.7090  222.4780 C   0  0  0  0  0  0  0  0  0  0  0  0
  137.1640   73.6500  222.0090 O   0  0  0  0  0  0  0  0  0  0  0  0
  135.5350   74.6770  223.2590 N   0  0  0  0  0  0  0  0  0  0  0  0
  134.8710   73.3910  223.5330 C   0  0  0  0  0  0  0  0  0  0  0  0
  134.7942   73.2423  224.6202 H   0  0  0  0  0  0  0  0  0  0  0  0
  133.8634   73.3972  223.0917 H   0  0  0  0  0  0  0  0  0  0  0  0
  135.4595   72.5731  223.0917 H   0  0  0  0  0  0  0  0  0  0  0  0
  134.9720   75.8550  223.7220 C   0  0  0  0  0  0  0  0  0  0  0  0
  133.8940   75.8180  224.3800 O   0  0  0  0  0  0  0  0  0  0  0  0
  135.5730   77.0690  223.4700 N   0  0  0  0  0  0  0  0  0  0  0  0
  134.9750   78.3250  223.9410 C   0  0  0  0  0  0  0  0  0  0  0  0
  134.9687   78.3383  225.0409 H   0  0  0  0  0  0  0  0  0  0  0  0
  135.5651   79.1748  223.5674 H   0  0  0  0  0  0  0  0  0  0  0  0
  133.9433   78.4026  223.5674 H   0  0  0  0  0  0  0  0  0  0  0  0
  1  2  1  0
  2  3  2  0
  3  4  1  0
  4  5  1  0
  3  6  1  0
  6  7  1  0
  6  8  1  0
  6  9  1  0
  9 10  1  0
 10 11  1  0
 11 12  1  0
 11 13  1  0
 11 14  1  0
 14 15  1  0
 15 16  1  0
 15 17  1  0
 15 18  1  0
 18 19  1  0
 18 20  1  0
 18 21  1  0
 21 22  1  0
 21 23  1  0
 23 24  1  0
 23 25  1  0
 23 26  1  0
 21 27  1  0
 27 28  1  0
 27 29  1  0
 27 30  1  0
 30 31  1  0
 30 32  1  0
 10 33  2  0
 33 34  1  0
 34 35  2  0
 35 36  1  0
 36 37  2  0
 36 38  1  0
 38 39  1  0
 39 40  1  0
 39 41  1  0
 39 42  1  0
 38 43  1  0
 43 44  2  0
 43 45  1  0
 45 46  1  0
 46 47  1  0
 46 48  1  0
 46 49  1  0
 35  9  1  0
 30 14  1  0
 45 34  1  0
M  END
>  <UniqueID>  (48) 
15

>  <SMILES>  (48) 
[H]/N=C(\O)Cn1c(CN2CCC(C)CC2)nc2c1c(=O)n(C)c(=O)n2C

>  <Energy>  (48) 
97.6665817170871

>  <Genealogy>  (48) 
CC1CCN(Cc2nc3c(c(=O)n(C)c(=O)n3C)n2CC(=N)O)CC1 (tautomer)
[H]/N=C(\O)Cn1c(CN2CCC(C)CC2)nc2c1c(=O)n(C)c(=O)n2C (cis-trans isomerization)
[H]/N=C(\O)Cn1c(CN2CCC(C)CC2)nc2c1c(=O)n(C)c(=O)n2C (3D coordinates assigned)
[H]/N=C(\O)Cn1c(CN2CCC(C)CC2)nc2c1c(=O)n(C)c(=O)n2C (nonaromatic ring conformer: 97.6665817170871 kcal/mol)

>  <smiles>  (48) 
CC1CCN(Cc2nc3c(c(=O)n(C)c(=O)n3C)n2CC(N)=O)CC1

>  <score_type>  (48) 
oracle

>  <origin>  (48) 
autodockgpu

>  <m_score__min__energy>  (48) 
-5.3200000000000003

>  <m_primary>  (48) 
energy

>  <meeko>  (48) 
{"free_energy": -5.22, "intermolecular_energy": -7.01, "internal_energy": -2.4, "cluster_size": 14, "cluster_id": 1, "rank_in_cluster": 2}

>  <energy>  (48) 
-5.2

>  <cluster_rmsd>  (48) 
0.87

>  <rmsd>  (48) 
271.47

>  <cluster>  (48) 
1

$$$$
IQOSOXOZFSRASN-DESYHMSQNA-N
     RDKit          3D

 49 51  0  0  0  0  0  0  0  0999 V2000
  142.1620   75.7840  221.7590 H   0  0  0  0  0  0  0  0  0  0  0  0
  141.5560   74.9630  221.5350 N   0  0  0  0  0  0  0  0  0  0  0  0
  140.2640   75.0400  221.5960 C   0  0  0  0  0  0  0  0  0  0  0  0
  139.5350   74.1300  222.3580 O   0  0  0  0  0  0  0  0  0  0  0  0
  138.6450   74.3800  222.7720 H   0  0  0  0  0  0  0  0  0  0  0  0
  139.5480   76.1230  220.8510 C   0  0  0  0  0  0  0  0  0  0  0  0
  140.2348   76.5758  220.1207 H   0  0  0  0  0  0  0  0  0  0  0  0
  138.6804   75.6872  220.3338 H   0  0  0  0  0  0  0  0  0  0  0  0
  139.0790   77.1570  221.7790 N   0  0  0  0  0  0  0  0  0  0  0  0
  137.8190   77.3250  222.2730 C   0  0  0  0  0  0  0  0  0  0  0  0
  136.6710   76.3930  222.0090 C   0  0  0  0  0  0  0  0  0  0  0  0
  135.7257   76.9484  222.0976 H   0  0  0  0  0  0  0  0  0  0  0  0
  136.7735   75.9796  220.9948 H   0  0  0  0  0  0  0  0  0  0  0  0
  136.6750   75.2820  222.9810 N   0  0  0  0  0  0  0  0  0  0  0  0
  135.9370   75.6230  224.2290 C   0  0  0  0  0  0  0  0  0  0  0  0
  136.5213   75.2680  225.0908 H   0  0  0  0  0  0  0  0  0  0  0  0
  135.8045   76.7148  224.2471 H   0  0  0  0  0  0  0  0  0  0  0  0
  134.5420   74.9880  224.2880 C   0  0  0  0  0  0  0  0  0  0  0  0
  134.0506   75.2847  225.2263 H   0  0  0  0  0  0  0  0  0  0  0  0
  133.9600   75.3372  223.4224 H   0  0  0  0  0  0  0  0  0  0  0  0
  134.6350   73.4460  224.2310 C   0  0  0  0  0  0  0  0  0  0  0  0
  134.8185   73.0825  225.2529 H   0  0  0  0  0  0  0  0  0  0  0  0
  133.3120   72.8500  223.7340 C   0  0  0  0  0  0  0  0  0  0  0  0
  132.6893   72.5695  224.5963 H   0  0  0  0  0  0  0  0  0  0  0  0
  132.7800   73.5954  223.1246 H   0  0  0  0  0  0  0  0  0  0  0  0
  133.5178   71.9576  223.1246 H   0  0  0  0  0  0  0  0  0  0  0  0
  135.8290   72.9680  223.3690 C   0  0  0  0  0  0  0  0  0  0  0  0
  136.6885   72.7689  224.0260 H   0  0  0  0  0  0  0  0  0  0  0  0
  135.5284   72.0546  222.8347 H   0  0  0  0  0  0  0  0  0  0  0  0
  136.2260   74.0260  222.3340 C   0  0  0  0  0  0  0  0  0  0  0  0
  137.0453   73.6305  221.7156 H   0  0  0  0  0  0  0  0  0  0  0  0
  135.3430   74.2530  221.7185 H   0  0  0  0  0  0  0  0  0  0  0  0
  137.6930   78.4180  223.0690 N   0  0  0  0  0  0  0  0  0  0  0  0
  138.9300   78.9500  223.0460 C   0  0  0  0  0  0  0  0  0  0  0  0
  139.7610   78.2070  222.2780 C   0  0  0  0  0  0  0  0  0  0  0  0
  141.0930   78.5830  222.1240 C   0  0  0  0  0  0  0  0  0  0  0  0
  141.8800   77.8920  221.4230 O   0  0  0  0  0  0  0  0  0  0  0  0
  141.5280   79.7210  222.7640 N   0  0  0  0  0  0  0  0  0  0  0  0
  142.9400   80.1280  222.6560 C   0  0  0  0  0  0  0  0  0  0  0  0
  143.3644   80.2503  223.6634 H   0  0  0  0  0  0  0  0  0  0  0  0
  143.5036   79.3557  222.1120 H   0  0  0  0  0  0  0  0  0  0  0  0
  143.0061   81.0818  222.1120 H   0  0  0  0  0  0  0  0  0  0  0  0
  140.6640   80.4410  223.5730 C   0  0  0  0  0  0  0  0  0  0  0  0
  141.0920   81.4450  224.2100 O   0  0  0  0  0  0  0  0  0  0  0  0
  139.3420   80.0730  223.6940 N   0  0  0  0  0  0  0  0  0  0  0  0
  138.4220   80.8190  224.5630 C   0  0  0  0  0  0  0  0  0  0  0  0
  138.6689   80.6188  225.6161 H   0  0  0  0  0  0  0  0  0  0  0  0
  138.5198   81.8960  224.3618 H   0  0  0  0  0  0  0  0  0  0  0  0
  137.3884   80.5008  224.3618 H   0  0  0  0  0  0  0  0  0  0  0  0
  1  2  1  0
  2  3  2  0
  3  4  1  0
  4  5  1  0
  3  6  1  0
  6  7  1  0
  6  8  1  0
  6  9  1  0
  9 10  1  0
 10 11  1  0
 11 12  1  0
 11 13  1  0
 11 14  1  0
 14 15  1  0
 15 16  1  0
 15 17  1  0
 15 18  1  0
 18 19  1  0
 18 20  1  0
 18 21  1  0
 21 22  1  0
 21 23  1  0
 23 24  1  0
 23 25  1  0
 23 26  1  0
 21 27  1  0
 27 28  1  0
 27 29  1  0
 27 30  1  0
 30 31  1  0
 30 32  1  0
 10 33  2  0
 33 34  1  0
 34 35  2  0
 35 36  1  0
 36 37  2  0
 36 38  1  0
 38 39  1  0
 39 40  1  0
 39 41  1  0
 39 42  1  0
 38 43  1  0
 43 44  2  0
 43 45  1  0
 45 46  1  0
 46 47  1  0
 46 48  1  0
 46 49  1  0
 35  9  1  0
 30 14  1  0
 45 34  1  0
M  END
>  <UniqueID>  (49) 
15

>  <SMILES>  (49) 
[H]/N=C(\O)Cn1c(CN2CCC(C)CC2)nc2c1c(=O)n(C)c(=O)n2C

>  <Energy>  (49) 
97.6665817170871

>  <Genealogy>  (49) 
CC1CCN(Cc2nc3c(c(=O)n(C)c(=O)n3C)n2CC(=N)O)CC1 (tautomer)
[H]/N=C(\O)Cn1c(CN2CCC(C)CC2)nc2c1c(=O)n(C)c(=O)n2C (cis-trans isomerization)
[H]/N=C(\O)Cn1c(CN2CCC(C)CC2)nc2c1c(=O)n(C)c(=O)n2C (3D coordinates assigned)
[H]/N=C(\O)Cn1c(CN2CCC(C)CC2)nc2c1c(=O)n(C)c(=O)n2C (nonaromatic ring conformer: 97.6665817170871 kcal/mol)

>  <smiles>  (49) 
CC1CCN(Cc2nc3c(c(=O)n(C)c(=O)n3C)n2CC(N)=O)CC1

>  <score_type>  (49) 
oracle

>  <origin>  (49) 
autodockgpu

>  <m_score__min__energy>  (49) 
-5.3200000000000003

>  <m_primary>  (49) 
energy

>  <meeko>  (49) 
{"free_energy": -5.0, "intermolecular_energy": -6.79, "internal_energy": -2.3, "cluster_size": 5, "cluster_id": 3, "rank_in_cluster": 1}

>  <energy>  (49) 
-5.2

>  <cluster_rmsd>  (49) 
0.69

>  <rmsd>  (49) 
271.5

>  <cluster>  (49) 
1

$$$$
IQOSOXOZFSRASN-DESYHMSQNA-N
     RDKit          3D

 49 51  0  0  0  0  0  0  0  0999 V2000
  141.6010   76.4100  221.9660 H   0  0  0  0  0  0  0  0  0  0  0  0
  141.4660   75.3850  221.8130 N   0  0  0  0  0  0  0  0  0  0  0  0
  140.2840   74.8700  221.6940 C   0  0  0  0  0  0  0  0  0  0  0  0
  139.9110   73.7670  222.4590 O   0  0  0  0  0  0  0  0  0  0  0  0
  138.9810   73.6850  222.8520 H   0  0  0  0  0  0  0  0  0  0  0  0
  139.3040   75.4710  220.7350 C   0  0  0  0  0  0  0  0  0  0  0  0
  139.8449   76.0905  220.0045 H   0  0  0  0  0  0  0  0  0  0  0  0
  138.7667   74.6615  220.2192 H   0  0  0  0  0  0  0  0  0  0  0  0
  138.3340   76.3050  221.4520 N   0  0  0  0  0  0  0  0  0  0  0  0
  138.3720   77.6550  221.6370 C   0  0  0  0  0  0  0  0  0  0  0  0
  139.4060   78.5670  221.0420 C   0  0  0  0  0  0  0  0  0  0  0  0
  139.5170   78.3394  219.9716 H   0  0  0  0  0  0  0  0  0  0  0  0
  139.0811   79.6094  221.1754 H   0  0  0  0  0  0  0  0  0  0  0  0
  140.7060   78.3810  221.7160 N   0  0  0  0  0  0  0  0  0  0  0  0
  141.7980   79.1500  221.0570 C   0  0  0  0  0  0  0  0  0  0  0  0
  142.6894   78.5088  220.9922 H   0  0  0  0  0  0  0  0  0  0  0  0
  141.4372   79.4501  220.0622 H   0  0  0  0  0  0  0  0  0  0  0  0
  142.1690   80.4290  221.8180 C   0  0  0  0  0  0  0  0  0  0  0  0
  142.9714   80.9507  221.2758 H   0  0  0  0  0  0  0  0  0  0  0  0
  141.2757   81.0669  221.8895 H   0  0  0  0  0  0  0  0  0  0  0  0
  142.6560   80.0990  223.2480 C   0  0  0  0  0  0  0  0  0  0  0  0
  143.7261   79.8511  223.1900 H   0  0  0  0  0  0  0  0  0  0  0  0
  142.4890   81.3190  224.1630 C   0  0  0  0  0  0  0  0  0  0  0  0
  142.5330   80.9977  225.2141 H   0  0  0  0  0  0  0  0  0  0  0  0
  143.2970   82.0388  223.9655 H   0  0  0  0  0  0  0  0  0  0  0  0
  141.5173   81.7952  223.9655 H   0  0  0  0  0  0  0  0  0  0  0  0
  141.9420   78.8540  223.8310 C   0  0  0  0  0  0  0  0  0  0  0  0
  142.5690   77.9670  223.6574 H   0  0  0  0  0  0  0  0  0  0  0  0
  141.7862   79.0150  224.9079 H   0  0  0  0  0  0  0  0  0  0  0  0
  140.5760   78.6370  223.1710 C   0  0  0  0  0  0  0  0  0  0  0  0
  140.0850   77.7731  223.6428 H   0  0  0  0  0  0  0  0  0  0  0  0
  139.9796   79.5512  223.3071 H   0  0  0  0  0  0  0  0  0  0  0  0
  137.3500   78.1230  222.4000 N   0  0  0  0  0  0  0  0  0  0  0  0
  136.6680   77.0040  222.7080 C   0  0  0  0  0  0  0  0  0  0  0  0
  137.2490   75.9160  222.1500 C   0  0  0  0  0  0  0  0  0  0  0  0
  136.6960   74.6520  222.3430 C   0  0  0  0  0  0  0  0  0  0  0  0
  137.2190   73.6340  221.8170 O   0  0  0  0  0  0  0  0  0  0  0  0
  135.5600   74.5480  223.1140 N   0  0  0  0  0  0  0  0  0  0  0  0
  134.9250   73.2330  223.3070 C   0  0  0  0  0  0  0  0  0  0  0  0
  134.8260   73.0280  224.3832 H   0  0  0  0  0  0  0  0  0  0  0  0
  133.9286   73.2350  222.8410 H   0  0  0  0  0  0  0  0  0  0  0  0
  135.5462   72.4539  222.8410 H   0  0  0  0  0  0  0  0  0  0  0  0
  134.9670   75.6830  223.6420 C   0  0  0  0  0  0  0  0  0  0  0  0
  133.8870   75.5830  224.2890 O   0  0  0  0  0  0  0  0  0  0  0  0
  135.5410   76.9230  223.4660 N   0  0  0  0  0  0  0  0  0  0  0  0
  134.9110   78.1350  224.0060 C   0  0  0  0  0  0  0  0  0  0  0  0
  134.9296   78.0993  225.1053 H   0  0  0  0  0  0  0  0  0  0  0  0
  135.4627   79.0209  223.6586 H   0  0  0  0  0  0  0  0  0  0  0  0
  133.8689   78.1925  223.6586 H   0  0  0  0  0  0  0  0  0  0  0  0
  1  2  1  0
  2  3  2  0
  3  4  1  0
  4  5  1  0
  3  6  1  0
  6  7  1  0
  6  8  1  0
  6  9  1  0
  9 10  1  0
 10 11  1  0
 11 12  1  0
 11 13  1  0
 11 14  1  0
 14 15  1  0
 15 16  1  0
 15 17  1  0
 15 18  1  0
 18 19  1  0
 18 20  1  0
 18 21  1  0
 21 22  1  0
 21 23  1  0
 23 24  1  0
 23 25  1  0
 23 26  1  0
 21 27  1  0
 27 28  1  0
 27 29  1  0
 27 30  1  0
 30 31  1  0
 30 32  1  0
 10 33  2  0
 33 34  1  0
 34 35  2  0
 35 36  1  0
 36 37  2  0
 36 38  1  0
 38 39  1  0
 39 40  1  0
 39 41  1  0
 39 42  1  0
 38 43  1  0
 43 44  2  0
 43 45  1  0
 45 46  1  0
 46 47  1  0
 46 48  1  0
 46 49  1  0
 35  9  1  0
 30 14  1  0
 45 34  1  0
M  END
>  <UniqueID>  (50) 
15

>  <SMILES>  (50) 
[H]/N=C(\O)Cn1c(CN2CCC(C)CC2)nc2c1c(=O)n(C)c(=O)n2C

>  <Energy>  (50) 
97.6665817170871

>  <Genealogy>  (50) 
CC1CCN(Cc2nc3c(c(=O)n(C)c(=O)n3C)n2CC(=N)O)CC1 (tautomer)
[H]/N=C(\O)Cn1c(CN2CCC(C)CC2)nc2c1c(=O)n(C)c(=O)n2C (cis-trans isomerization)
[H]/N=C(\O)Cn1c(CN2CCC(C)CC2)nc2c1c(=O)n(C)c(=O)n2C (3D coordinates assigned)
[H]/N=C(\O)Cn1c(CN2CCC(C)CC2)nc2c1c(=O)n(C)c(=O)n2C (nonaromatic ring conformer: 97.6665817170871 kcal/mol)

>  <smiles>  (50) 
CC1CCN(Cc2nc3c(c(=O)n(C)c(=O)n3C)n2CC(N)=O)CC1

>  <score_type>  (50) 
oracle

>  <origin>  (50) 
autodockgpu

>  <m_score__min__energy>  (50) 
-5.3200000000000003

>  <m_primary>  (50) 
energy

>  <meeko>  (50) 
{"free_energy": -5.2, "intermolecular_energy": -6.99, "internal_energy": -2.4, "cluster_size": 14, "cluster_id": 1, "rank_in_cluster": 10}

>  <energy>  (50) 
-5.2

>  <cluster_rmsd>  (50) 
0.74

>  <rmsd>  (50) 
271.45

>  <cluster>  (50) 
1

$$$$
IQOSOXOZFSRASN-DESYHMSQNA-N
     RDKit          3D

 49 51  0  0  0  0  0  0  0  0999 V2000
  141.5760   76.3960  221.9670 H   0  0  0  0  0  0  0  0  0  0  0  0
  141.4490   75.3600  221.9280 N   0  0  0  0  0  0  0  0  0  0  0  0
  140.2730   74.8270  221.8220 C   0  0  0  0  0  0  0  0  0  0  0  0
  139.9060   73.7530  222.6290 O   0  0  0  0  0  0  0  0  0  0  0  0
  138.9830   73.6930  223.0430 H   0  0  0  0  0  0  0  0  0  0  0  0
  139.2950   75.3760  220.8300 C   0  0  0  0  0  0  0  0  0  0  0  0
  139.8406   75.9240  220.0477 H   0  0  0  0  0  0  0  0  0  0  0  0
  138.7322   74.5428  220.3838 H   0  0  0  0  0  0  0  0  0  0  0  0
  138.3550   76.2860  221.4920 N   0  0  0  0  0  0  0  0  0  0  0  0
  138.4300   77.6440  221.5770 C   0  0  0  0  0  0  0  0  0  0  0  0
  139.4820   78.4820  220.9100 C   0  0  0  0  0  0  0  0  0  0  0  0
  139.6220   78.1326  219.8764 H   0  0  0  0  0  0  0  0  0  0  0  0
  139.1560   79.5326  220.9134 H   0  0  0  0  0  0  0  0  0  0  0  0
  140.7630   78.3760  221.6370 N   0  0  0  0  0  0  0  0  0  0  0  0
  141.8350   79.1990  221.0120 C   0  0  0  0  0  0  0  0  0  0  0  0
  142.7628   78.6085  220.9892 H   0  0  0  0  0  0  0  0  0  0  0  0
  141.4971   79.4689  220.0006 H   0  0  0  0  0  0  0  0  0  0  0  0
  142.1040   80.5050  221.7720 C   0  0  0  0  0  0  0  0  0  0  0  0
  142.8977   81.0652  221.2560 H   0  0  0  0  0  0  0  0  0  0  0  0
  141.1750   81.0933  221.8002 H   0  0  0  0  0  0  0  0  0  0  0  0
  142.5500   80.2160  223.2230 C   0  0  0  0  0  0  0  0  0  0  0  0
  143.6337   80.0277  223.2089 H   0  0  0  0  0  0  0  0  0  0  0  0
  142.2790   81.4330  224.1170 C   0  0  0  0  0  0  0  0  0  0  0  0
  142.3456   81.1340  225.1735 H   0  0  0  0  0  0  0  0  0  0  0  0
  143.0252   82.2140  223.9093 H   0  0  0  0  0  0  0  0  0  0  0  0
  141.2719   81.8236  223.9093 H   0  0  0  0  0  0  0  0  0  0  0  0
  141.8850   78.9380  223.7930 C   0  0  0  0  0  0  0  0  0  0  0  0
  142.5674   78.0864  223.6550 H   0  0  0  0  0  0  0  0  0  0  0  0
  141.6779   79.0999  224.8611 H   0  0  0  0  0  0  0  0  0  0  0  0
  140.5610   78.6380  223.0820 C   0  0  0  0  0  0  0  0  0  0  0  0
  140.1007   77.7523  223.5442 H   0  0  0  0  0  0  0  0  0  0  0  0
  139.9095   79.5185  223.1836 H   0  0  0  0  0  0  0  0  0  0  0  0
  137.4280   78.1940  222.3120 N   0  0  0  0  0  0  0  0  0  0  0  0
  136.7200   77.1190  222.7060 C   0  0  0  0  0  0  0  0  0  0  0  0
  137.2660   75.9780  222.2240 C   0  0  0  0  0  0  0  0  0  0  0  0
  136.6810   74.7480  222.5130 C   0  0  0  0  0  0  0  0  0  0  0  0
  137.1730   73.6800  222.0580 O   0  0  0  0  0  0  0  0  0  0  0  0
  135.5500   74.7300  223.2970 N   0  0  0  0  0  0  0  0  0  0  0  0
  134.8820   73.4500  223.5910 C   0  0  0  0  0  0  0  0  0  0  0  0
  134.8115   73.3149  224.6804 H   0  0  0  0  0  0  0  0  0  0  0  0
  133.8717   73.4553  223.1560 H   0  0  0  0  0  0  0  0  0  0  0  0
  135.4641   72.6242  223.1560 H   0  0  0  0  0  0  0  0  0  0  0  0
  134.9930   75.9160  223.7460 C   0  0  0  0  0  0  0  0  0  0  0  0
  133.9160   75.8930  224.4060 O   0  0  0  0  0  0  0  0  0  0  0  0
  135.5970   77.1240  223.4750 N   0  0  0  0  0  0  0  0  0  0  0  0
  135.0050   78.3890  223.9300 C   0  0  0  0  0  0  0  0  0  0  0  0
  134.9934   78.4138  225.0297 H   0  0  0  0  0  0  0  0  0  0  0  0
  135.6026   79.2309  223.5505 H   0  0  0  0  0  0  0  0  0  0  0  0
  133.9757   78.4696  223.5505 H   0  0  0  0  0  0  0  0  0  0  0  0
  1  2  1  0
  2  3  2  0
  3  4  1  0
  4  5  1  0
  3  6  1  0
  6  7  1  0
  6  8  1  0
  6  9  1  0
  9 10  1  0
 10 11  1  0
 11 12  1  0
 11 13  1  0
 11 14  1  0
 14 15  1  0
 15 16  1  0
 15 17  1  0
 15 18  1  0
 18 19  1  0
 18 20  1  0
 18 21  1  0
 21 22  1  0
 21 23  1  0
 23 24  1  0
 23 25  1  0
 23 26  1  0
 21 27  1  0
 27 28  1  0
 27 29  1  0
 27 30  1  0
 30 31  1  0
 30 32  1  0
 10 33  2  0
 33 34  1  0
 34 35  2  0
 35 36  1  0
 36 37  2  0
 36 38  1  0
 38 39  1  0
 39 40  1  0
 39 41  1  0
 39 42  1  0
 38 43  1  0
 43 44  2  0
 43 45  1  0
 45 46  1  0
 46 47  1  0
 46 48  1  0
 46 49  1  0
 35  9  1  0
 30 14  1  0
 45 34  1  0
M  END
>  <UniqueID>  (51) 
15

>  <SMILES>  (51) 
[H]/N=C(\O)Cn1c(CN2CCC(C)CC2)nc2c1c(=O)n(C)c(=O)n2C

>  <Energy>  (51) 
97.6665817170871

>  <Genealogy>  (51) 
CC1CCN(Cc2nc3c(c(=O)n(C)c(=O)n3C)n2CC(=N)O)CC1 (tautomer)
[H]/N=C(\O)Cn1c(CN2CCC(C)CC2)nc2c1c(=O)n(C)c(=O)n2C (cis-trans isomerization)
[H]/N=C(\O)Cn1c(CN2CCC(C)CC2)nc2c1c(=O)n(C)c(=O)n2C (3D coordinates assigned)
[H]/N=C(\O)Cn1c(CN2CCC(C)CC2)nc2c1c(=O)n(C)c(=O)n2C (nonaromatic ring conformer: 97.6665817170871 kcal/mol)

>  <smiles>  (51) 
CC1CCN(Cc2nc3c(c(=O)n(C)c(=O)n3C)n2CC(N)=O)CC1

>  <score_type>  (51) 
oracle

>  <origin>  (51) 
autodockgpu

>  <m_score__min__energy>  (51) 
-5.3200000000000003

>  <m_primary>  (51) 
energy

>  <meeko>  (51) 
{"free_energy": -5.22, "intermolecular_energy": -7.01, "internal_energy": -2.41, "cluster_size": 14, "cluster_id": 1, "rank_in_cluster": 3}

>  <energy>  (51) 
-5.18

>  <cluster_rmsd>  (51) 
0.6

>  <rmsd>  (51) 
271.5

>  <cluster>  (51) 
1

$$$$
IQOSOXOZFSRASN-DESYHMSQNA-N
     RDKit          3D

 49 51  0  0  0  0  0  0  0  0999 V2000
  141.5840   76.4930  221.9560 H   0  0  0  0  0  0  0  0  0  0  0  0
  141.4490   75.4570  221.9380 N   0  0  0  0  0  0  0  0  0  0  0  0
  140.2820   74.9320  221.7450 C   0  0  0  0  0  0  0  0  0  0  0  0
  139.8930   73.7910  222.4440 O   0  0  0  0  0  0  0  0  0  0  0  0
  138.9550   73.6890  222.8120 H   0  0  0  0  0  0  0  0  0  0  0  0
  139.3350   75.5600  220.7690 C   0  0  0  0  0  0  0  0  0  0  0  0
  139.9027   76.1836  220.0627 H   0  0  0  0  0  0  0  0  0  0  0  0
  138.8019   74.7654  220.2264 H   0  0  0  0  0  0  0  0  0  0  0  0
  138.3570   76.3950  221.4730 N   0  0  0  0  0  0  0  0  0  0  0  0
  138.3820   77.7480  221.6390 C   0  0  0  0  0  0  0  0  0  0  0  0
  139.4080   78.6610  221.0320 C   0  0  0  0  0  0  0  0  0  0  0  0
  139.5056   78.4347  219.9600 H   0  0  0  0  0  0  0  0  0  0  0  0
  139.0847   79.7033  221.1703 H   0  0  0  0  0  0  0  0  0  0  0  0
  140.7170   78.4740  221.6900 N   0  0  0  0  0  0  0  0  0  0  0  0
  141.7910   79.2810  221.0460 C   0  0  0  0  0  0  0  0  0  0  0  0
  142.6921   78.6568  220.9542 H   0  0  0  0  0  0  0  0  0  0  0  0
  141.4167   79.6056  220.0639 H   0  0  0  0  0  0  0  0  0  0  0  0
  142.1480   80.5420  221.8430 C   0  0  0  0  0  0  0  0  0  0  0  0
  142.9374   81.0930  221.3108 H   0  0  0  0  0  0  0  0  0  0  0  0
  141.2454   81.1630  221.9411 H   0  0  0  0  0  0  0  0  0  0  0  0
  142.6520   80.1760  223.2580 C   0  0  0  0  0  0  0  0  0  0  0  0
  143.7254   79.9474  223.1834 H   0  0  0  0  0  0  0  0  0  0  0  0
  142.4740   81.3640  224.2120 C   0  0  0  0  0  0  0  0  0  0  0  0
  142.5270   81.0101  225.2522 H   0  0  0  0  0  0  0  0  0  0  0  0
  143.2719   82.1000  224.0340 H   0  0  0  0  0  0  0  0  0  0  0  0
  141.4954   81.8338  224.0340 H   0  0  0  0  0  0  0  0  0  0  0  0
  141.9630   78.9020  223.8080 C   0  0  0  0  0  0  0  0  0  0  0  0
  142.6027   78.0312  223.6019 H   0  0  0  0  0  0  0  0  0  0  0  0
  141.8139   79.0273  224.8906 H   0  0  0  0  0  0  0  0  0  0  0  0
  140.5950   78.6830  223.1530 C   0  0  0  0  0  0  0  0  0  0  0  0
  140.1221   77.7971  223.6019 H   0  0  0  0  0  0  0  0  0  0  0  0
  139.9848   79.5825  223.3222 H   0  0  0  0  0  0  0  0  0  0  0  0
  137.3560   78.2170  222.3940 N   0  0  0  0  0  0  0  0  0  0  0  0
  136.6830   77.0970  222.7180 C   0  0  0  0  0  0  0  0  0  0  0  0
  137.2740   76.0060  222.1760 C   0  0  0  0  0  0  0  0  0  0  0  0
  136.7330   74.7400  222.3870 C   0  0  0  0  0  0  0  0  0  0  0  0
  137.2660   73.7190  221.8750 O   0  0  0  0  0  0  0  0  0  0  0  0
  135.5970   74.6370  223.1570 N   0  0  0  0  0  0  0  0  0  0  0  0
  134.9740   73.3180  223.3690 C   0  0  0  0  0  0  0  0  0  0  0  0
  134.8827   73.1248  224.4480 H   0  0  0  0  0  0  0  0  0  0  0  0
  133.9751   73.3060  222.9086 H   0  0  0  0  0  0  0  0  0  0  0  0
  135.5993   72.5389  222.9086 H   0  0  0  0  0  0  0  0  0  0  0  0
  134.9940   75.7740  223.6690 C   0  0  0  0  0  0  0  0  0  0  0  0
  133.9140   75.6730  224.3160 O   0  0  0  0  0  0  0  0  0  0  0  0
  135.5560   77.0160  223.4750 N   0  0  0  0  0  0  0  0  0  0  0  0
  134.9140   78.2300  223.9970 C   0  0  0  0  0  0  0  0  0  0  0  0
  134.9260   78.2073  225.0967 H   0  0  0  0  0  0  0  0  0  0  0  0
  135.4616   79.1157  223.6426 H   0  0  0  0  0  0  0  0  0  0  0  0
  133.8737   78.2760  223.6426 H   0  0  0  0  0  0  0  0  0  0  0  0
  1  2  1  0
  2  3  2  0
  3  4  1  0
  4  5  1  0
  3  6  1  0
  6  7  1  0
  6  8  1  0
  6  9  1  0
  9 10  1  0
 10 11  1  0
 11 12  1  0
 11 13  1  0
 11 14  1  0
 14 15  1  0
 15 16  1  0
 15 17  1  0
 15 18  1  0
 18 19  1  0
 18 20  1  0
 18 21  1  0
 21 22  1  0
 21 23  1  0
 23 24  1  0
 23 25  1  0
 23 26  1  0
 21 27  1  0
 27 28  1  0
 27 29  1  0
 27 30  1  0
 30 31  1  0
 30 32  1  0
 10 33  2  0
 33 34  1  0
 34 35  2  0
 35 36  1  0
 36 37  2  0
 36 38  1  0
 38 39  1  0
 39 40  1  0
 39 41  1  0
 39 42  1  0
 38 43  1  0
 43 44  2  0
 43 45  1  0
 45 46  1  0
 46 47  1  0
 46 48  1  0
 46 49  1  0
 35  9  1  0
 30 14  1  0
 45 34  1  0
M  END
>  <UniqueID>  (52) 
15

>  <SMILES>  (52) 
[H]/N=C(\O)Cn1c(CN2CCC(C)CC2)nc2c1c(=O)n(C)c(=O)n2C

>  <Energy>  (52) 
97.6665817170871

>  <Genealogy>  (52) 
CC1CCN(Cc2nc3c(c(=O)n(C)c(=O)n3C)n2CC(=N)O)CC1 (tautomer)
[H]/N=C(\O)Cn1c(CN2CCC(C)CC2)nc2c1c(=O)n(C)c(=O)n2C (cis-trans isomerization)
[H]/N=C(\O)Cn1c(CN2CCC(C)CC2)nc2c1c(=O)n(C)c(=O)n2C (3D coordinates assigned)
[H]/N=C(\O)Cn1c(CN2CCC(C)CC2)nc2c1c(=O)n(C)c(=O)n2C (nonaromatic ring conformer: 97.6665817170871 kcal/mol)

>  <smiles>  (52) 
CC1CCN(Cc2nc3c(c(=O)n(C)c(=O)n3C)n2CC(N)=O)CC1

>  <score_type>  (52) 
oracle

>  <origin>  (52) 
autodockgpu

>  <m_score__min__energy>  (52) 
-5.3200000000000003

>  <m_primary>  (52) 
energy

>  <meeko>  (52) 
{"free_energy": -5.2, "intermolecular_energy": -6.99, "internal_energy": -2.4, "cluster_size": 14, "cluster_id": 1, "rank_in_cluster": 7}

>  <energy>  (52) 
-5.16

>  <cluster_rmsd>  (52) 
0.27

>  <rmsd>  (52) 
271.57

>  <cluster>  (52) 
1

$$$$
IQOSOXOZFSRASN-DESYHMSQNA-N
     RDKit          3D

 49 51  0  0  0  0  0  0  0  0999 V2000
  137.7300   73.7600  222.8430 H   0  0  0  0  0  0  0  0  0  0  0  0
  136.9870   74.3230  222.3720 N   0  0  0  0  0  0  0  0  0  0  0  0
  137.1930   75.5510  222.0180 C   0  0  0  0  0  0  0  0  0  0  0  0
  136.5110   76.1000  220.9330 O   0  0  0  0  0  0  0  0  0  0  0  0
  136.9750   76.7100  220.2710 H   0  0  0  0  0  0  0  0  0  0  0  0
  138.1640   76.3930  222.7840 C   0  0  0  0  0  0  0  0  0  0  0  0
  137.6523   77.2961  223.1481 H   0  0  0  0  0  0  0  0  0  0  0  0
  138.5504   75.8096  223.6327 H   0  0  0  0  0  0  0  0  0  0  0  0
  139.2860   76.7860  221.9270 N   0  0  0  0  0  0  0  0  0  0  0  0
  139.5330   78.0140  221.3870 C   0  0  0  0  0  0  0  0  0  0  0  0
  138.7140   79.2430  221.6590 C   0  0  0  0  0  0  0  0  0  0  0  0
  138.5514   79.7861  220.7163 H   0  0  0  0  0  0  0  0  0  0  0  0
  137.7493   78.9401  222.0922 H   0  0  0  0  0  0  0  0  0  0  0  0
  139.4120   80.1260  222.6150 N   0  0  0  0  0  0  0  0  0  0  0  0
  139.9010   79.3850  223.8110 C   0  0  0  0  0  0  0  0  0  0  0  0
  139.6842   79.9836  224.7080 H   0  0  0  0  0  0  0  0  0  0  0  0
  139.3841   78.4143  223.8329 H   0  0  0  0  0  0  0  0  0  0  0  0
  141.4090   79.1040  223.7620 C   0  0  0  0  0  0  0  0  0  0  0  0
  141.7020   78.5509  224.6666 H   0  0  0  0  0  0  0  0  0  0  0  0
  141.6271   78.5107  222.8617 H   0  0  0  0  0  0  0  0  0  0  0  0
  142.2130   80.4220  223.6920 C   0  0  0  0  0  0  0  0  0  0  0  0
  142.3380   80.7930  224.7200 H   0  0  0  0  0  0  0  0  0  0  0  0
  143.6030   80.1680  223.0940 C   0  0  0  0  0  0  0  0  0  0  0  0
  144.3328   80.0346  223.9062 H   0  0  0  0  0  0  0  0  0  0  0  0
  143.5749   79.2601  222.4735 H   0  0  0  0  0  0  0  0  0  0  0  0
  143.8978   81.0271  222.4735 H   0  0  0  0  0  0  0  0  0  0  0  0
  141.4560   81.5250  222.9120 C   0  0  0  0  0  0  0  0  0  0  0  0
  140.9119   82.1604  223.6263 H   0  0  0  0  0  0  0  0  0  0  0  0
  142.1901   82.1177  222.3464 H   0  0  0  0  0  0  0  0  0  0  0  0
  140.4560   80.9170  221.9210 C   0  0  0  0  0  0  0  0  0  0  0  0
  139.9730   81.7291  221.3578 H   0  0  0  0  0  0  0  0  0  0  0  0
  141.0059   80.2441  221.2467 H   0  0  0  0  0  0  0  0  0  0  0  0
  140.6290   78.0400  220.5850 N   0  0  0  0  0  0  0  0  0  0  0  0
  141.0600   76.7650  220.6250 C   0  0  0  0  0  0  0  0  0  0  0  0
  140.2650   76.0100  221.4190 C   0  0  0  0  0  0  0  0  0  0  0  0
  140.5400   74.6580  221.6000 C   0  0  0  0  0  0  0  0  0  0  0  0
  139.8160   73.9490  222.3490 O   0  0  0  0  0  0  0  0  0  0  0  0
  141.6280   74.1200  220.9500 N   0  0  0  0  0  0  0  0  0  0  0  0
  141.9730   72.7020  221.1500 C   0  0  0  0  0  0  0  0  0  0  0  0
  142.0256   72.4859  222.2273 H   0  0  0  0  0  0  0  0  0  0  0  0
  141.2028   72.0683  220.6860 H   0  0  0  0  0  0  0  0  0  0  0  0
  142.9482   72.4929  220.6860 H   0  0  0  0  0  0  0  0  0  0  0  0
  142.4450   74.9250  220.1730 C   0  0  0  0  0  0  0  0  0  0  0  0
  143.4800   74.4360  219.6370 O   0  0  0  0  0  0  0  0  0  0  0  0
  142.1450   76.2550  219.9800 N   0  0  0  0  0  0  0  0  0  0  0  0
  143.0150   77.1210  219.1730 C   0  0  0  0  0  0  0  0  0  0  0  0
  143.6359   77.7391  219.8382 H   0  0  0  0  0  0  0  0  0  0  0  0
  143.6639   76.4997  218.5383 H   0  0  0  0  0  0  0  0  0  0  0  0
  142.3966   77.7727  218.5383 H   0  0  0  0  0  0  0  0  0  0  0  0
  1  2  1  0
  2  3  2  0
  3  4  1  0
  4  5  1  0
  3  6  1  0
  6  7  1  0
  6  8  1  0
  6  9  1  0
  9 10  1  0
 10 11  1  0
 11 12  1  0
 11 13  1  0
 11 14  1  0
 14 15  1  0
 15 16  1  0
 15 17  1  0
 15 18  1  0
 18 19  1  0
 18 20  1  0
 18 21  1  0
 21 22  1  0
 21 23  1  0
 23 24  1  0
 23 25  1  0
 23 26  1  0
 21 27  1  0
 27 28  1  0
 27 29  1  0
 27 30  1  0
 30 31  1  0
 30 32  1  0
 10 33  2  0
 33 34  1  0
 34 35  2  0
 35 36  1  0
 36 37  2  0
 36 38  1  0
 38 39  1  0
 39 40  1  0
 39 41  1  0
 39 42  1  0
 38 43  1  0
 43 44  2  0
 43 45  1  0
 45 46  1  0
 46 47  1  0
 46 48  1  0
 46 49  1  0
 35  9  1  0
 30 14  1  0
 45 34  1  0
M  END
>  <UniqueID>  (53) 
15

>  <SMILES>  (53) 
[H]/N=C(\O)Cn1c(CN2CCC(C)CC2)nc2c1c(=O)n(C)c(=O)n2C

>  <Energy>  (53) 
97.6665817170871

>  <Genealogy>  (53) 
CC1CCN(Cc2nc3c(c(=O)n(C)c(=O)n3C)n2CC(=N)O)CC1 (tautomer)
[H]/N=C(\O)Cn1c(CN2CCC(C)CC2)nc2c1c(=O)n(C)c(=O)n2C (cis-trans isomerization)
[H]/N=C(\O)Cn1c(CN2CCC(C)CC2)nc2c1c(=O)n(C)c(=O)n2C (3D coordinates assigned)
[H]/N=C(\O)Cn1c(CN2CCC(C)CC2)nc2c1c(=O)n(C)c(=O)n2C (nonaromatic ring conformer: 97.6665817170871 kcal/mol)

>  <smiles>  (53) 
CC1CCN(Cc2nc3c(c(=O)n(C)c(=O)n3C)n2CC(N)=O)CC1

>  <score_type>  (53) 
oracle

>  <origin>  (53) 
autodockgpu

>  <m_score__min__energy>  (53) 
-5.3200000000000003

>  <m_primary>  (53) 
energy

>  <meeko>  (53) 
{"free_energy": -5.25, "intermolecular_energy": -7.04, "internal_energy": -1.95, "cluster_size": 1, "cluster_id": 2, "rank_in_cluster": 1}

>  <energy>  (53) 
-5.16

>  <cluster_rmsd>  (53) 
0.53

>  <rmsd>  (53) 
271.53

>  <cluster>  (53) 
1

$$$$
IQOSOXOZFSRASN-DESYHMSQNA-N
     RDKit          3D

 49 51  0  0  0  0  0  0  0  0999 V2000
  141.6010   76.6680  221.6540 H   0  0  0  0  0  0  0  0  0  0  0  0
  141.4220   75.6790  221.9410 N   0  0  0  0  0  0  0  0  0  0  0  0
  140.2920   75.0980  221.6920 C   0  0  0  0  0  0  0  0  0  0  0  0
  139.9430   73.9180  222.3450 O   0  0  0  0  0  0  0  0  0  0  0  0
  139.0200   73.7870  222.7440 H   0  0  0  0  0  0  0  0  0  0  0  0
  139.3470   75.7040  220.7020 C   0  0  0  0  0  0  0  0  0  0  0  0
  139.9228   76.2323  219.9278 H   0  0  0  0  0  0  0  0  0  0  0  0
  138.7462   74.9033  220.2460 H   0  0  0  0  0  0  0  0  0  0  0  0
  138.4490   76.6520  221.3670 N   0  0  0  0  0  0  0  0  0  0  0  0
  138.5400   78.0130  221.3880 C   0  0  0  0  0  0  0  0  0  0  0  0
  139.5650   78.8080  220.6310 C   0  0  0  0  0  0  0  0  0  0  0  0
  139.6394   78.4194  219.6046 H   0  0  0  0  0  0  0  0  0  0  0  0
  139.2564   79.8637  220.6142 H   0  0  0  0  0  0  0  0  0  0  0  0
  140.8840   78.7050  221.2870 N   0  0  0  0  0  0  0  0  0  0  0  0
  141.8470   79.7210  220.7770 C   0  0  0  0  0  0  0  0  0  0  0  0
  142.8216   79.2348  220.6227 H   0  0  0  0  0  0  0  0  0  0  0  0
  141.4374   80.1228  219.8385 H   0  0  0  0  0  0  0  0  0  0  0  0
  142.0350   80.9000  221.7400 C   0  0  0  0  0  0  0  0  0  0  0  0
  142.7491   81.6128  221.3017 H   0  0  0  0  0  0  0  0  0  0  0  0
  141.0595   81.3827  221.8995 H   0  0  0  0  0  0  0  0  0  0  0  0
  142.5760   80.4160  223.1050 C   0  0  0  0  0  0  0  0  0  0  0  0
  143.6702   80.3370  223.0238 H   0  0  0  0  0  0  0  0  0  0  0  0
  142.2410   81.4350  224.2020 C   0  0  0  0  0  0  0  0  0  0  0  0
  142.3925   80.9741  225.1892 H   0  0  0  0  0  0  0  0  0  0  0  0
  142.8984   82.3112  224.1016 H   0  0  0  0  0  0  0  0  0  0  0  0
  141.1919   81.7502  224.1016 H   0  0  0  0  0  0  0  0  0  0  0  0
  142.0550   79.0040  223.4690 C   0  0  0  0  0  0  0  0  0  0  0  0
  142.8028   78.2566  223.1654 H   0  0  0  0  0  0  0  0  0  0  0  0
  141.8856   78.9652  224.5552 H   0  0  0  0  0  0  0  0  0  0  0  0
  140.7300   78.7010  222.7610 C   0  0  0  0  0  0  0  0  0  0  0  0
  140.3737   77.7103  223.0797 H   0  0  0  0  0  0  0  0  0  0  0  0
  140.0081   79.4852  223.0330 H   0  0  0  0  0  0  0  0  0  0  0  0
  137.5820   78.6060  222.1460 N   0  0  0  0  0  0  0  0  0  0  0  0
  136.8850   77.5580  222.6230 C   0  0  0  0  0  0  0  0  0  0  0  0
  137.3960   76.3900  222.1670 C   0  0  0  0  0  0  0  0  0  0  0  0
  136.8160   75.1800  222.5400 C   0  0  0  0  0  0  0  0  0  0  0  0
  137.2740   74.0880  222.1100 O   0  0  0  0  0  0  0  0  0  0  0  0
  135.7260   75.2110  223.3800 N   0  0  0  0  0  0  0  0  0  0  0  0
  135.0620   73.9520  223.7640 C   0  0  0  0  0  0  0  0  0  0  0  0
  135.0229   73.8778  224.8608 H   0  0  0  0  0  0  0  0  0  0  0  0
  134.0394   73.9384  223.3589 H   0  0  0  0  0  0  0  0  0  0  0  0
  135.6283   73.1004  223.3589 H   0  0  0  0  0  0  0  0  0  0  0  0
  135.2020   76.4220  223.8010 C   0  0  0  0  0  0  0  0  0  0  0  0
  134.1600   76.4400  224.5150 O   0  0  0  0  0  0  0  0  0  0  0  0
  135.8030   77.6100  223.4470 N   0  0  0  0  0  0  0  0  0  0  0  0
  135.2450   78.9000  223.8730 C   0  0  0  0  0  0  0  0  0  0  0  0
  135.2251   78.9460  224.9719 H   0  0  0  0  0  0  0  0  0  0  0  0
  135.8703   79.7167  223.4831 H   0  0  0  0  0  0  0  0  0  0  0  0
  134.2216   79.0035  223.4831 H   0  0  0  0  0  0  0  0  0  0  0  0
  1  2  1  0
  2  3  2  0
  3  4  1  0
  4  5  1  0
  3  6  1  0
  6  7  1  0
  6  8  1  0
  6  9  1  0
  9 10  1  0
 10 11  1  0
 11 12  1  0
 11 13  1  0
 11 14  1  0
 14 15  1  0
 15 16  1  0
 15 17  1  0
 15 18  1  0
 18 19  1  0
 18 20  1  0
 18 21  1  0
 21 22  1  0
 21 23  1  0
 23 24  1  0
 23 25  1  0
 23 26  1  0
 21 27  1  0
 27 28  1  0
 27 29  1  0
 27 30  1  0
 30 31  1  0
 30 32  1  0
 10 33  2  0
 33 34  1  0
 34 35  2  0
 35 36  1  0
 36 37  2  0
 36 38  1  0
 38 39  1  0
 39 40  1  0
 39 41  1  0
 39 42  1  0
 38 43  1  0
 43 44  2  0
 43 45  1  0
 45 46  1  0
 46 47  1  0
 46 48  1  0
 46 49  1  0
 35  9  1  0
 30 14  1  0
 45 34  1  0
M  END
>  <UniqueID>  (54) 
15

>  <SMILES>  (54) 
[H]/N=C(\O)Cn1c(CN2CCC(C)CC2)nc2c1c(=O)n(C)c(=O)n2C

>  <Energy>  (54) 
97.6665817170871

>  <Genealogy>  (54) 
CC1CCN(Cc2nc3c(c(=O)n(C)c(=O)n3C)n2CC(=N)O)CC1 (tautomer)
[H]/N=C(\O)Cn1c(CN2CCC(C)CC2)nc2c1c(=O)n(C)c(=O)n2C (cis-trans isomerization)
[H]/N=C(\O)Cn1c(CN2CCC(C)CC2)nc2c1c(=O)n(C)c(=O)n2C (3D coordinates assigned)
[H]/N=C(\O)Cn1c(CN2CCC(C)CC2)nc2c1c(=O)n(C)c(=O)n2C (nonaromatic ring conformer: 97.6665817170871 kcal/mol)

>  <smiles>  (54) 
CC1CCN(Cc2nc3c(c(=O)n(C)c(=O)n3C)n2CC(N)=O)CC1

>  <score_type>  (54) 
oracle

>  <origin>  (54) 
autodockgpu

>  <m_score__min__energy>  (54) 
-5.3200000000000003

>  <m_primary>  (54) 
energy

>  <meeko>  (54) 
{"free_energy": -5.16, "intermolecular_energy": -6.95, "internal_energy": -2.43, "cluster_size": 14, "cluster_id": 1, "rank_in_cluster": 12}

>  <energy>  (54) 
-5.14

>  <cluster_rmsd>  (54) 
0.8

>  <rmsd>  (54) 
271.47

>  <cluster>  (54) 
1

$$$$
IQOSOXOZFSRASN-DESYHMSQNA-N
     RDKit          3D

 49 51  0  0  0  0  0  0  0  0999 V2000
  141.7650   76.4880  221.6770 H   0  0  0  0  0  0  0  0  0  0  0  0
  141.1480   75.9470  222.3230 N   0  0  0  0  0  0  0  0  0  0  0  0
  140.1630   75.2350  221.8770 C   0  0  0  0  0  0  0  0  0  0  0  0
  139.9620   73.9360  222.3400 O   0  0  0  0  0  0  0  0  0  0  0  0
  139.1000   73.6650  222.7980 H   0  0  0  0  0  0  0  0  0  0  0  0
  139.2260   75.8130  220.8630 C   0  0  0  0  0  0  0  0  0  0  0  0
  139.8087   76.2894  220.0608 H   0  0  0  0  0  0  0  0  0  0  0  0
  138.6045   75.0051  220.4495 H   0  0  0  0  0  0  0  0  0  0  0  0
  138.3540   76.8130  221.4860 N   0  0  0  0  0  0  0  0  0  0  0  0
  138.4870   78.1700  221.4560 C   0  0  0  0  0  0  0  0  0  0  0  0
  139.5400   78.9040  220.6760 C   0  0  0  0  0  0  0  0  0  0  0  0
  139.5954   78.4863  219.6599 H   0  0  0  0  0  0  0  0  0  0  0  0
  139.2733   79.9703  220.6325 H   0  0  0  0  0  0  0  0  0  0  0  0
  140.8560   78.7660  221.3310 N   0  0  0  0  0  0  0  0  0  0  0  0
  141.8520   79.7410  220.8040 C   0  0  0  0  0  0  0  0  0  0  0  0
  142.8093   79.2199  220.6555 H   0  0  0  0  0  0  0  0  0  0  0  0
  141.4551   80.1423  219.8598 H   0  0  0  0  0  0  0  0  0  0  0  0
  142.0810   80.9270  221.7500 C   0  0  0  0  0  0  0  0  0  0  0  0
  142.8170   81.6095  221.3001 H   0  0  0  0  0  0  0  0  0  0  0  0
  141.1220   81.4432  221.9045 H   0  0  0  0  0  0  0  0  0  0  0  0
  142.6090   80.4460  223.1210 C   0  0  0  0  0  0  0  0  0  0  0  0
  143.6998   80.3305  223.0392 H   0  0  0  0  0  0  0  0  0  0  0  0
  142.3110   81.4910  224.2040 C   0  0  0  0  0  0  0  0  0  0  0  0
  142.4405   81.0367  225.1974 H   0  0  0  0  0  0  0  0  0  0  0  0
  143.0031   82.3391  224.0955 H   0  0  0  0  0  0  0  0  0  0  0  0
  141.2757   81.8465  224.0955 H   0  0  0  0  0  0  0  0  0  0  0  0
  142.0420   79.0570  223.5060 C   0  0  0  0  0  0  0  0  0  0  0  0
  142.7633   78.2809  223.2105 H   0  0  0  0  0  0  0  0  0  0  0  0
  141.8751   79.0387  224.5931 H   0  0  0  0  0  0  0  0  0  0  0  0
  140.7050   78.7890  222.8060 C   0  0  0  0  0  0  0  0  0  0  0  0
  140.3158   77.8159  223.1402 H   0  0  0  0  0  0  0  0  0  0  0  0
  140.0106   79.6009  223.0681 H   0  0  0  0  0  0  0  0  0  0  0  0
  137.5440   78.8210  222.1840 N   0  0  0  0  0  0  0  0  0  0  0  0
  136.8120   77.8140  222.6960 C   0  0  0  0  0  0  0  0  0  0  0  0
  137.2890   76.6140  222.2890 C   0  0  0  0  0  0  0  0  0  0  0  0
  136.6710   75.4380  222.7040 C   0  0  0  0  0  0  0  0  0  0  0  0
  137.0970   74.3160  222.3190 O   0  0  0  0  0  0  0  0  0  0  0  0
  135.5780   75.5340  223.5350 N   0  0  0  0  0  0  0  0  0  0  0  0
  134.8740   74.3120  223.9630 C   0  0  0  0  0  0  0  0  0  0  0  0
  134.8492   74.2689  225.0619 H   0  0  0  0  0  0  0  0  0  0  0  0
  133.8454   74.3258  223.5733 H   0  0  0  0  0  0  0  0  0  0  0  0
  135.4019   73.4291  223.5733 H   0  0  0  0  0  0  0  0  0  0  0  0
  135.0890   76.7760  223.9070 C   0  0  0  0  0  0  0  0  0  0  0  0
  134.0450   76.8530  224.6130 O   0  0  0  0  0  0  0  0  0  0  0  0
  135.7280   77.9300  223.5110 N   0  0  0  0  0  0  0  0  0  0  0  0
  135.2080   79.2520  223.8840 C   0  0  0  0  0  0  0  0  0  0  0  0
  135.1746   79.3369  224.9802 H   0  0  0  0  0  0  0  0  0  0  0  0
  135.8658   80.0333  223.4756 H   0  0  0  0  0  0  0  0  0  0  0  0
  134.1942   79.3758  223.4756 H   0  0  0  0  0  0  0  0  0  0  0  0
  1  2  1  0
  2  3  2  0
  3  4  1  0
  4  5  1  0
  3  6  1  0
  6  7  1  0
  6  8  1  0
  6  9  1  0
  9 10  1  0
 10 11  1  0
 11 12  1  0
 11 13  1  0
 11 14  1  0
 14 15  1  0
 15 16  1  0
 15 17  1  0
 15 18  1  0
 18 19  1  0
 18 20  1  0
 18 21  1  0
 21 22  1  0
 21 23  1  0
 23 24  1  0
 23 25  1  0
 23 26  1  0
 21 27  1  0
 27 28  1  0
 27 29  1  0
 27 30  1  0
 30 31  1  0
 30 32  1  0
 10 33  2  0
 33 34  1  0
 34 35  2  0
 35 36  1  0
 36 37  2  0
 36 38  1  0
 38 39  1  0
 39 40  1  0
 39 41  1  0
 39 42  1  0
 38 43  1  0
 43 44  2  0
 43 45  1  0
 45 46  1  0
 46 47  1  0
 46 48  1  0
 46 49  1  0
 35  9  1  0
 30 14  1  0
 45 34  1  0
M  END
>  <UniqueID>  (55) 
15

>  <SMILES>  (55) 
[H]/N=C(\O)Cn1c(CN2CCC(C)CC2)nc2c1c(=O)n(C)c(=O)n2C

>  <Energy>  (55) 
97.6665817170871

>  <Genealogy>  (55) 
CC1CCN(Cc2nc3c(c(=O)n(C)c(=O)n3C)n2CC(=N)O)CC1 (tautomer)
[H]/N=C(\O)Cn1c(CN2CCC(C)CC2)nc2c1c(=O)n(C)c(=O)n2C (cis-trans isomerization)
[H]/N=C(\O)Cn1c(CN2CCC(C)CC2)nc2c1c(=O)n(C)c(=O)n2C (3D coordinates assigned)
[H]/N=C(\O)Cn1c(CN2CCC(C)CC2)nc2c1c(=O)n(C)c(=O)n2C (nonaromatic ring conformer: 97.6665817170871 kcal/mol)

>  <smiles>  (55) 
CC1CCN(Cc2nc3c(c(=O)n(C)c(=O)n3C)n2CC(N)=O)CC1

>  <score_type>  (55) 
oracle

>  <origin>  (55) 
autodockgpu

>  <m_score__min__energy>  (55) 
-5.3200000000000003

>  <m_primary>  (55) 
energy

>  <meeko>  (55) 
{"free_energy": -5.32, "intermolecular_energy": -7.11, "internal_energy": -2.04, "cluster_size": 14, "cluster_id": 1, "rank_in_cluster": 1}

>  <energy>  (55) 
-5.25

>  <cluster_rmsd>  (55) 
0.0

>  <rmsd>  (55) 
271.62

>  <cluster>  (55) 
2

$$$$
IQOSOXOZFSRASN-DESYHMSQNA-N
     RDKit          3D

 49 51  0  0  0  0  0  0  0  0999 V2000
  138.9980   73.6490  222.8100 H   0  0  0  0  0  0  0  0  0  0  0  0
  139.9300   73.7700  222.3550 N   0  0  0  0  0  0  0  0  0  0  0  0
  140.2400   74.8630  221.7330 C   0  0  0  0  0  0  0  0  0  0  0  0
  141.4620   75.4900  221.9690 O   0  0  0  0  0  0  0  0  0  0  0  0
  141.6360   76.4410  221.6650 H   0  0  0  0  0  0  0  0  0  0  0  0
  139.2840   75.4540  220.7450 C   0  0  0  0  0  0  0  0  0  0  0  0
  139.8495   75.9979  219.9740 H   0  0  0  0  0  0  0  0  0  0  0  0
  138.7004   74.6434  220.2841 H   0  0  0  0  0  0  0  0  0  0  0  0
  138.3660   76.3800  221.4140 N   0  0  0  0  0  0  0  0  0  0  0  0
  138.4490   77.7400  221.4740 C   0  0  0  0  0  0  0  0  0  0  0  0
  139.4880   78.5600  220.7630 C   0  0  0  0  0  0  0  0  0  0  0  0
  139.5730   78.2140  219.7223 H   0  0  0  0  0  0  0  0  0  0  0  0
  139.1854   79.6173  220.7864 H   0  0  0  0  0  0  0  0  0  0  0  0
  140.7980   78.4220  221.4300 N   0  0  0  0  0  0  0  0  0  0  0  0
  141.8280   79.3190  220.8360 C   0  0  0  0  0  0  0  0  0  0  0  0
  142.7654   78.7538  220.7274 H   0  0  0  0  0  0  0  0  0  0  0  0
  141.4444   79.6652  219.8649 H   0  0  0  0  0  0  0  0  0  0  0  0
  142.1020   80.5620  221.6930 C   0  0  0  0  0  0  0  0  0  0  0  0
  142.8636   81.1811  221.1963 H   0  0  0  0  0  0  0  0  0  0  0  0
  141.1635   81.1245  221.8062 H   0  0  0  0  0  0  0  0  0  0  0  0
  142.6110   80.1630  223.0970 C   0  0  0  0  0  0  0  0  0  0  0  0
  143.6967   80.0010  223.0269 H   0  0  0  0  0  0  0  0  0  0  0  0
  142.3520   81.2950  224.1000 C   0  0  0  0  0  0  0  0  0  0  0  0
  142.4413   80.9047  225.1245 H   0  0  0  0  0  0  0  0  0  0  0  0
  143.0900   82.0962  223.9473 H   0  0  0  0  0  0  0  0  0  0  0  0
  141.3390   81.6956  223.9473 H   0  0  0  0  0  0  0  0  0  0  0  0
  141.9930   78.8280  223.5810 C   0  0  0  0  0  0  0  0  0  0  0  0
  142.6855   78.0064  223.3456 H   0  0  0  0  0  0  0  0  0  0  0  0
  141.8248   78.8963  224.6659 H   0  0  0  0  0  0  0  0  0  0  0  0
  140.6480   78.5580  222.8990 C   0  0  0  0  0  0  0  0  0  0  0  0
  140.2240   77.6265  223.3022 H   0  0  0  0  0  0  0  0  0  0  0  0
  139.9834   79.4114  223.0993 H   0  0  0  0  0  0  0  0  0  0  0  0
  137.4710   78.3080  222.2240 N   0  0  0  0  0  0  0  0  0  0  0  0
  136.7680   77.2440  222.6560 C   0  0  0  0  0  0  0  0  0  0  0  0
  137.2950   76.0910  222.1810 C   0  0  0  0  0  0  0  0  0  0  0  0
  136.7130   74.8690  222.5080 C   0  0  0  0  0  0  0  0  0  0  0  0
  137.1870   73.7910  222.0590 O   0  0  0  0  0  0  0  0  0  0  0  0
  135.6040   74.8720  223.3220 N   0  0  0  0  0  0  0  0  0  0  0  0
  134.9380   73.6000  223.6560 C   0  0  0  0  0  0  0  0  0  0  0  0
  134.8813   73.4918  224.7492 H   0  0  0  0  0  0  0  0  0  0  0  0
  133.9222   73.5961  223.2340 H   0  0  0  0  0  0  0  0  0  0  0  0
  135.5135   72.7629  223.2340 H   0  0  0  0  0  0  0  0  0  0  0  0
  135.0640   76.0680  223.7630 C   0  0  0  0  0  0  0  0  0  0  0  0
  134.0050   76.0620  224.4530 O   0  0  0  0  0  0  0  0  0  0  0  0
  135.6660   77.2680  223.4550 N   0  0  0  0  0  0  0  0  0  0  0  0
  135.0920   78.5440  223.9030 C   0  0  0  0  0  0  0  0  0  0  0  0
  135.0785   78.5740  225.0025 H   0  0  0  0  0  0  0  0  0  0  0  0
  135.7029   79.3751  223.5210 H   0  0  0  0  0  0  0  0  0  0  0  0
  134.0648   78.6382  223.5210 H   0  0  0  0  0  0  0  0  0  0  0  0
  1  2  1  0
  2  3  2  0
  3  4  1  0
  4  5  1  0
  3  6  1  0
  6  7  1  0
  6  8  1  0
  6  9  1  0
  9 10  1  0
 10 11  1  0
 11 12  1  0
 11 13  1  0
 11 14  1  0
 14 15  1  0
 15 16  1  0
 15 17  1  0
 15 18  1  0
 18 19  1  0
 18 20  1  0
 18 21  1  0
 21 22  1  0
 21 23  1  0
 23 24  1  0
 23 25  1  0
 23 26  1  0
 21 27  1  0
 27 28  1  0
 27 29  1  0
 27 30  1  0
 30 31  1  0
 30 32  1  0
 10 33  2  0
 33 34  1  0
 34 35  2  0
 35 36  1  0
 36 37  2  0
 36 38  1  0
 38 39  1  0
 39 40  1  0
 39 41  1  0
 39 42  1  0
 38 43  1  0
 43 44  2  0
 43 45  1  0
 45 46  1  0
 46 47  1  0
 46 48  1  0
 46 49  1  0
 35  9  1  0
 30 14  1  0
 45 34  1  0
M  END
>  <UniqueID>  (56) 
15

>  <SMILES>  (56) 
[H]/N=C(\O)Cn1c(CN2CCC(C)CC2)nc2c1c(=O)n(C)c(=O)n2C

>  <Energy>  (56) 
97.6665817170871

>  <Genealogy>  (56) 
CC1CCN(Cc2nc3c(c(=O)n(C)c(=O)n3C)n2CC(=N)O)CC1 (tautomer)
[H]/N=C(\O)Cn1c(CN2CCC(C)CC2)nc2c1c(=O)n(C)c(=O)n2C (cis-trans isomerization)
[H]/N=C(\O)Cn1c(CN2CCC(C)CC2)nc2c1c(=O)n(C)c(=O)n2C (3D coordinates assigned)
[H]/N=C(\O)Cn1c(CN2CCC(C)CC2)nc2c1c(=O)n(C)c(=O)n2C (nonaromatic ring conformer: 97.6665817170871 kcal/mol)

>  <smiles>  (56) 
CC1CCN(Cc2nc3c(c(=O)n(C)c(=O)n3C)n2CC(N)=O)CC1

>  <score_type>  (56) 
oracle

>  <origin>  (56) 
autodockgpu

>  <m_score__min__energy>  (56) 
-5.3200000000000003

>  <m_primary>  (56) 
energy

>  <meeko>  (56) 
{"free_energy": -5.14, "intermolecular_energy": -6.93, "internal_energy": -2.43, "cluster_size": 14, "cluster_id": 1, "rank_in_cluster": 14}

>  <energy>  (56) 
-5.0

>  <cluster_rmsd>  (56) 
0.0

>  <rmsd>  (56) 
271.7

>  <cluster>  (56) 
3

$$$$
IQOSOXOZFSRASN-DESYHMSQNA-N
     RDKit          3D

 49 51  0  0  0  0  0  0  0  0999 V2000
  142.1810   75.7690  221.7020 H   0  0  0  0  0  0  0  0  0  0  0  0
  141.5710   74.9420  221.5140 N   0  0  0  0  0  0  0  0  0  0  0  0
  140.2810   75.0240  221.5840 C   0  0  0  0  0  0  0  0  0  0  0  0
  139.5540   74.1190  222.3540 O   0  0  0  0  0  0  0  0  0  0  0  0
  138.6620   74.3690  222.7640 H   0  0  0  0  0  0  0  0  0  0  0  0
  139.5630   76.1070  220.8400 C   0  0  0  0  0  0  0  0  0  0  0  0
  140.2496   76.5635  220.1119 H   0  0  0  0  0  0  0  0  0  0  0  0
  138.6976   75.6703  220.3201 H   0  0  0  0  0  0  0  0  0  0  0  0
  139.0900   77.1370  221.7700 N   0  0  0  0  0  0  0  0  0  0  0  0
  137.8290   77.3000  222.2630 C   0  0  0  0  0  0  0  0  0  0  0  0
  136.6840   76.3650  221.9960 C   0  0  0  0  0  0  0  0  0  0  0  0
  135.7371   76.9188  222.0779 H   0  0  0  0  0  0  0  0  0  0  0  0
  136.7918   75.9485  220.9836 H   0  0  0  0  0  0  0  0  0  0  0  0
  136.6860   75.2580  222.9720 N   0  0  0  0  0  0  0  0  0  0  0  0
  135.9460   75.6040  224.2180 C   0  0  0  0  0  0  0  0  0  0  0  0
  136.5287   75.2514  225.0818 H   0  0  0  0  0  0  0  0  0  0  0  0
  135.8143   76.6960  224.2315 H   0  0  0  0  0  0  0  0  0  0  0  0
  134.5500   74.9710  224.2780 C   0  0  0  0  0  0  0  0  0  0  0  0
  134.0583   75.2714  225.2150 H   0  0  0  0  0  0  0  0  0  0  0  0
  133.9691   75.3182  223.4108 H   0  0  0  0  0  0  0  0  0  0  0  0
  134.6410   73.4280  224.2260 C   0  0  0  0  0  0  0  0  0  0  0  0
  134.8225   73.0681  225.2495 H   0  0  0  0  0  0  0  0  0  0  0  0
  133.3180   72.8320  223.7280 C   0  0  0  0  0  0  0  0  0  0  0  0
  132.6948   72.5513  224.5899 H   0  0  0  0  0  0  0  0  0  0  0  0
  132.7864   73.5776  223.1185 H   0  0  0  0  0  0  0  0  0  0  0  0
  133.5242   71.9398  223.1185 H   0  0  0  0  0  0  0  0  0  0  0  0
  135.8360   72.9450  223.3660 C   0  0  0  0  0  0  0  0  0  0  0  0
  136.6946   72.7463  224.0243 H   0  0  0  0  0  0  0  0  0  0  0  0
  135.5350   72.0304  222.8341 H   0  0  0  0  0  0  0  0  0  0  0  0
  136.2350   74.0000  222.3290 C   0  0  0  0  0  0  0  0  0  0  0  0
  137.0539   73.6015  221.7120 H   0  0  0  0  0  0  0  0  0  0  0  0
  135.3521   74.2269  221.7134 H   0  0  0  0  0  0  0  0  0  0  0  0
  137.6990   78.3910  223.0610 N   0  0  0  0  0  0  0  0  0  0  0  0
  138.9340   78.9270  223.0400 C   0  0  0  0  0  0  0  0  0  0  0  0
  139.7680   78.1890  222.2710 C   0  0  0  0  0  0  0  0  0  0  0  0
  141.0990   78.5690  222.1190 C   0  0  0  0  0  0  0  0  0  0  0  0
  141.8880   77.8820  221.4180 O   0  0  0  0  0  0  0  0  0  0  0  0
  141.5290   79.7080  222.7620 N   0  0  0  0  0  0  0  0  0  0  0  0
  142.9400   80.1190  222.6550 C   0  0  0  0  0  0  0  0  0  0  0  0
  143.3634   80.2423  223.6627 H   0  0  0  0  0  0  0  0  0  0  0  0
  143.5061   79.3484  222.1112 H   0  0  0  0  0  0  0  0  0  0  0  0
  143.0038   81.0731  222.1112 H   0  0  0  0  0  0  0  0  0  0  0  0
  140.6630   80.4230  223.5710 C   0  0  0  0  0  0  0  0  0  0  0  0
  141.0870   81.4270  224.2110 O   0  0  0  0  0  0  0  0  0  0  0  0
  139.3420   80.0510  223.6910 N   0  0  0  0  0  0  0  0  0  0  0  0
  138.4190   80.7920  224.5610 C   0  0  0  0  0  0  0  0  0  0  0  0
  138.6676   80.5924  225.6138 H   0  0  0  0  0  0  0  0  0  0  0  0
  138.5114   81.8696  224.3603 H   0  0  0  0  0  0  0  0  0  0  0  0
  137.3869   80.4689  224.3603 H   0  0  0  0  0  0  0  0  0  0  0  0
  1  2  1  0
  2  3  2  0
  3  4  1  0
  4  5  1  0
  3  6  1  0
  6  7  1  0
  6  8  1  0
  6  9  1  0
  9 10  1  0
 10 11  1  0
 11 12  1  0
 11 13  1  0
 11 14  1  0
 14 15  1  0
 15 16  1  0
 15 17  1  0
 15 18  1  0
 18 19  1  0
 18 20  1  0
 18 21  1  0
 21 22  1  0
 21 23  1  0
 23 24  1  0
 23 25  1  0
 23 26  1  0
 21 27  1  0
 27 28  1  0
 27 29  1  0
 27 30  1  0
 30 31  1  0
 30 32  1  0
 10 33  2  0
 33 34  1  0
 34 35  2  0
 35 36  1  0
 36 37  2  0
 36 38  1  0
 38 39  1  0
 39 40  1  0
 39 41  1  0
 39 42  1  0
 38 43  1  0
 43 44  2  0
 43 45  1  0
 45 46  1  0
 46 47  1  0
 46 48  1  0
 46 49  1  0
 35  9  1  0
 30 14  1  0
 45 34  1  0
M  END
>  <UniqueID>  (57) 
15

>  <SMILES>  (57) 
[H]/N=C(\O)Cn1c(CN2CCC(C)CC2)nc2c1c(=O)n(C)c(=O)n2C

>  <Energy>  (57) 
97.6665817170871

>  <Genealogy>  (57) 
CC1CCN(Cc2nc3c(c(=O)n(C)c(=O)n3C)n2CC(=N)O)CC1 (tautomer)
[H]/N=C(\O)Cn1c(CN2CCC(C)CC2)nc2c1c(=O)n(C)c(=O)n2C (cis-trans isomerization)
[H]/N=C(\O)Cn1c(CN2CCC(C)CC2)nc2c1c(=O)n(C)c(=O)n2C (3D coordinates assigned)
[H]/N=C(\O)Cn1c(CN2CCC(C)CC2)nc2c1c(=O)n(C)c(=O)n2C (nonaromatic ring conformer: 97.6665817170871 kcal/mol)

>  <smiles>  (57) 
CC1CCN(Cc2nc3c(c(=O)n(C)c(=O)n3C)n2CC(N)=O)CC1

>  <score_type>  (57) 
oracle

>  <origin>  (57) 
autodockgpu

>  <m_score__min__energy>  (57) 
-5.3200000000000003

>  <m_primary>  (57) 
energy

>  <meeko>  (57) 
{"free_energy": -5.0, "intermolecular_energy": -6.79, "internal_energy": -2.3, "cluster_size": 5, "cluster_id": 3, "rank_in_cluster": 2}

>  <energy>  (57) 
-5.0

>  <cluster_rmsd>  (57) 
0.03

>  <rmsd>  (57) 
271.69

>  <cluster>  (57) 
3

$$$$
IQOSOXOZFSRASN-DESYHMSQNA-N
     RDKit          3D

 49 51  0  0  0  0  0  0  0  0999 V2000
  141.5590   76.4330  221.9900 H   0  0  0  0  0  0  0  0  0  0  0  0
  141.4360   75.3970  221.9510 N   0  0  0  0  0  0  0  0  0  0  0  0
  140.2660   74.8610  221.8120 C   0  0  0  0  0  0  0  0  0  0  0  0
  139.8950   73.7600  222.5820 O   0  0  0  0  0  0  0  0  0  0  0  0
  138.9620   73.6740  222.9670 H   0  0  0  0  0  0  0  0  0  0  0  0
  139.2970   75.4340  220.8250 C   0  0  0  0  0  0  0  0  0  0  0  0
  139.8496   76.0014  220.0617 H   0  0  0  0  0  0  0  0  0  0  0  0
  138.7389   74.6117  220.3534 H   0  0  0  0  0  0  0  0  0  0  0  0
  138.3500   76.3270  221.5000 N   0  0  0  0  0  0  0  0  0  0  0  0
  138.4160   77.6850  221.6060 C   0  0  0  0  0  0  0  0  0  0  0  0
  139.4630   78.5400  220.9520 C   0  0  0  0  0  0  0  0  0  0  0  0
  139.5997   78.2125  219.9108 H   0  0  0  0  0  0  0  0  0  0  0  0
  139.1339   79.5893  220.9786 H   0  0  0  0  0  0  0  0  0  0  0  0
  140.7470   78.4230  221.6710 N   0  0  0  0  0  0  0  0  0  0  0  0
  141.8150   79.2600  221.0570 C   0  0  0  0  0  0  0  0  0  0  0  0
  142.7439   78.6720  221.0194 H   0  0  0  0  0  0  0  0  0  0  0  0
  141.4726   79.5481  220.0521 H   0  0  0  0  0  0  0  0  0  0  0  0
  142.0840   80.5510  221.8400 C   0  0  0  0  0  0  0  0  0  0  0  0
  142.8741   81.1227  221.3311 H   0  0  0  0  0  0  0  0  0  0  0  0
  141.1533   81.1358  221.8833 H   0  0  0  0  0  0  0  0  0  0  0  0
  142.5370   80.2370  223.2840 C   0  0  0  0  0  0  0  0  0  0  0  0
  143.6211   80.0517  223.2623 H   0  0  0  0  0  0  0  0  0  0  0  0
  142.2670   81.4370  224.2010 C   0  0  0  0  0  0  0  0  0  0  0  0
  142.3385   81.1190  225.2516 H   0  0  0  0  0  0  0  0  0  0  0  0
  143.0107   82.2233  224.0044 H   0  0  0  0  0  0  0  0  0  0  0  0
  141.2582   81.8290  224.0044 H   0  0  0  0  0  0  0  0  0  0  0  0
  141.8770   78.9480  223.8330 C   0  0  0  0  0  0  0  0  0  0  0  0
  142.5605   78.1004  223.6766 H   0  0  0  0  0  0  0  0  0  0  0  0
  141.6739   79.0901  224.9047 H   0  0  0  0  0  0  0  0  0  0  0  0
  140.5500   78.6580  223.1220 C   0  0  0  0  0  0  0  0  0  0  0  0
  140.0935   77.7629  223.5697 H   0  0  0  0  0  0  0  0  0  0  0  0
  139.8968   79.5348  223.2425 H   0  0  0  0  0  0  0  0  0  0  0  0
  137.4100   78.2170  222.3480 N   0  0  0  0  0  0  0  0  0  0  0  0
  136.7090   77.1310  222.7250 C   0  0  0  0  0  0  0  0  0  0  0  0
  137.2630   76.0010  222.2270 C   0  0  0  0  0  0  0  0  0  0  0  0
  136.6870   74.7630  222.4970 C   0  0  0  0  0  0  0  0  0  0  0  0
  137.1850   73.7050  222.0260 O   0  0  0  0  0  0  0  0  0  0  0  0
  135.5550   74.7260  223.2800 N   0  0  0  0  0  0  0  0  0  0  0  0
  134.8960   73.4370  223.5540 C   0  0  0  0  0  0  0  0  0  0  0  0
  134.8198   73.2879  224.6412 H   0  0  0  0  0  0  0  0  0  0  0  0
  133.8884   73.4392  223.1127 H   0  0  0  0  0  0  0  0  0  0  0  0
  135.4878   72.6215  223.1127 H   0  0  0  0  0  0  0  0  0  0  0  0
  134.9900   75.9010  223.7450 C   0  0  0  0  0  0  0  0  0  0  0  0
  133.9130   75.8610  224.4050 O   0  0  0  0  0  0  0  0  0  0  0  0
  135.5860   77.1170  223.4940 N   0  0  0  0  0  0  0  0  0  0  0  0
  134.9850   78.3710  223.9670 C   0  0  0  0  0  0  0  0  0  0  0  0
  134.9793   78.3829  225.0669 H   0  0  0  0  0  0  0  0  0  0  0  0
  135.5727   79.2228  223.5941 H   0  0  0  0  0  0  0  0  0  0  0  0
  133.9529   78.4465  223.5941 H   0  0  0  0  0  0  0  0  0  0  0  0
  1  2  1  0
  2  3  2  0
  3  4  1  0
  4  5  1  0
  3  6  1  0
  6  7  1  0
  6  8  1  0
  6  9  1  0
  9 10  1  0
 10 11  1  0
 11 12  1  0
 11 13  1  0
 11 14  1  0
 14 15  1  0
 15 16  1  0
 15 17  1  0
 15 18  1  0
 18 19  1  0
 18 20  1  0
 18 21  1  0
 21 22  1  0
 21 23  1  0
 23 24  1  0
 23 25  1  0
 23 26  1  0
 21 27  1  0
 27 28  1  0
 27 29  1  0
 27 30  1  0
 30 31  1  0
 30 32  1  0
 10 33  2  0
 33 34  1  0
 34 35  2  0
 35 36  1  0
 36 37  2  0
 36 38  1  0
 38 39  1  0
 39 40  1  0
 39 41  1  0
 39 42  1  0
 38 43  1  0
 43 44  2  0
 43 45  1  0
 45 46  1  0
 46 47  1  0
 46 48  1  0
 46 49  1  0
 35  9  1  0
 30 14  1  0
 45 34  1  0
M  END
>  <UniqueID>  (58) 
15

>  <SMILES>  (58) 
[H]/N=C(\O)Cn1c(CN2CCC(C)CC2)nc2c1c(=O)n(C)c(=O)n2C

>  <Energy>  (58) 
97.6665817170871

>  <Genealogy>  (58) 
CC1CCN(Cc2nc3c(c(=O)n(C)c(=O)n3C)n2CC(=N)O)CC1 (tautomer)
[H]/N=C(\O)Cn1c(CN2CCC(C)CC2)nc2c1c(=O)n(C)c(=O)n2C (cis-trans isomerization)
[H]/N=C(\O)Cn1c(CN2CCC(C)CC2)nc2c1c(=O)n(C)c(=O)n2C (3D coordinates assigned)
[H]/N=C(\O)Cn1c(CN2CCC(C)CC2)nc2c1c(=O)n(C)c(=O)n2C (nonaromatic ring conformer: 97.6665817170871 kcal/mol)

>  <smiles>  (58) 
CC1CCN(Cc2nc3c(c(=O)n(C)c(=O)n3C)n2CC(N)=O)CC1

>  <score_type>  (58) 
oracle

>  <origin>  (58) 
autodockgpu

>  <m_score__min__energy>  (58) 
-5.3200000000000003

>  <m_primary>  (58) 
energy

>  <meeko>  (58) 
{"free_energy": -5.21, "intermolecular_energy": -7.0, "internal_energy": -2.42, "cluster_size": 14, "cluster_id": 1, "rank_in_cluster": 4}

>  <energy>  (58) 
-4.99

>  <cluster_rmsd>  (58) 
0.05

>  <rmsd>  (58) 
271.68

>  <cluster>  (58) 
3

$$$$
IQOSOXOZFSRASN-DESYHMSQNA-N
     RDKit          3D

 49 51  0  0  0  0  0  0  0  0999 V2000
  141.5800   76.3440  222.0230 H   0  0  0  0  0  0  0  0  0  0  0  0
  141.4370   75.3320  221.8050 N   0  0  0  0  0  0  0  0  0  0  0  0
  140.2550   74.8020  221.8060 C   0  0  0  0  0  0  0  0  0  0  0  0
  139.9480   73.7570  222.6750 O   0  0  0  0  0  0  0  0  0  0  0  0
  139.0190   73.6470  223.0630 H   0  0  0  0  0  0  0  0  0  0  0  0
  139.2060   75.3210  220.8730 C   0  0  0  0  0  0  0  0  0  0  0  0
  139.6812   75.9529  220.1082 H   0  0  0  0  0  0  0  0  0  0  0  0
  138.6984   74.4694  220.3964 H   0  0  0  0  0  0  0  0  0  0  0  0
  138.2170   76.1140  221.6090 N   0  0  0  0  0  0  0  0  0  0  0  0
  138.2110   77.4630  221.8080 C   0  0  0  0  0  0  0  0  0  0  0  0
  139.2070   78.4160  221.2120 C   0  0  0  0  0  0  0  0  0  0  0  0
  139.2915   78.2238  220.1322 H   0  0  0  0  0  0  0  0  0  0  0  0
  138.8639   79.4465  221.3865 H   0  0  0  0  0  0  0  0  0  0  0  0
  140.5300   78.2380  221.8430 N   0  0  0  0  0  0  0  0  0  0  0  0
  141.6190   78.8830  221.0580 C   0  0  0  0  0  0  0  0  0  0  0  0
  142.4782   78.1971  221.0205 H   0  0  0  0  0  0  0  0  0  0  0  0
  141.2211   79.0960  220.0549 H   0  0  0  0  0  0  0  0  0  0  0  0
  142.0820   80.2150  221.6620 C   0  0  0  0  0  0  0  0  0  0  0  0
  142.8781   80.6388  221.0322 H   0  0  0  0  0  0  0  0  0  0  0  0
  141.2218   80.8993  221.7057 H   0  0  0  0  0  0  0  0  0  0  0  0
  142.6250   80.0110  223.0960 C   0  0  0  0  0  0  0  0  0  0  0  0
  143.6794   79.7077  223.0163 H   0  0  0  0  0  0  0  0  0  0  0  0
  142.5560   81.3250  223.8840 C   0  0  0  0  0  0  0  0  0  0  0  0
  142.5674   81.1070  224.9621 H   0  0  0  0  0  0  0  0  0  0  0  0
  143.4224   81.9523  223.6275 H   0  0  0  0  0  0  0  0  0  0  0  0
  141.6286   81.8581  223.6275 H   0  0  0  0  0  0  0  0  0  0  0  0
  141.8890   78.8680  223.8380 C   0  0  0  0  0  0  0  0  0  0  0  0
  142.4685   77.9392  223.7304 H   0  0  0  0  0  0  0  0  0  0  0  0
  141.7940   79.1462  224.8980 H   0  0  0  0  0  0  0  0  0  0  0  0
  140.4840   78.6490  223.2670 C   0  0  0  0  0  0  0  0  0  0  0  0
  139.9809   77.8628  223.8491 H   0  0  0  0  0  0  0  0  0  0  0  0
  139.9346   79.5997  223.3325 H   0  0  0  0  0  0  0  0  0  0  0  0
  137.1830   77.8880  222.5870 N   0  0  0  0  0  0  0  0  0  0  0  0
  136.5420   76.7440  222.8900 C   0  0  0  0  0  0  0  0  0  0  0  0
  137.1520   75.6810  222.3140 C   0  0  0  0  0  0  0  0  0  0  0  0
  136.6450   74.3980  222.4990 C   0  0  0  0  0  0  0  0  0  0  0  0
  137.1960   73.4040  221.9560 O   0  0  0  0  0  0  0  0  0  0  0  0
  135.5210   74.2480  223.2800 N   0  0  0  0  0  0  0  0  0  0  0  0
  134.9330   72.9100  223.4660 C   0  0  0  0  0  0  0  0  0  0  0  0
  134.8393   72.6969  224.5411 H   0  0  0  0  0  0  0  0  0  0  0  0
  133.9381   72.8784  222.9979 H   0  0  0  0  0  0  0  0  0  0  0  0
  135.5826   72.1557  222.9979 H   0  0  0  0  0  0  0  0  0  0  0  0
  134.8960   75.3560  223.8270 C   0  0  0  0  0  0  0  0  0  0  0  0
  133.8270   75.2130  224.4840 O   0  0  0  0  0  0  0  0  0  0  0  0
  135.4260   76.6170  223.6580 N   0  0  0  0  0  0  0  0  0  0  0  0
  134.7610   77.8010  224.2180 C   0  0  0  0  0  0  0  0  0  0  0  0
  134.7886   77.7518  225.3166 H   0  0  0  0  0  0  0  0  0  0  0  0
  135.2813   78.7087  223.8784 H   0  0  0  0  0  0  0  0  0  0  0  0
  133.7151   77.8291  223.8784 H   0  0  0  0  0  0  0  0  0  0  0  0
  1  2  1  0
  2  3  2  0
  3  4  1  0
  4  5  1  0
  3  6  1  0
  6  7  1  0
  6  8  1  0
  6  9  1  0
  9 10  1  0
 10 11  1  0
 11 12  1  0
 11 13  1  0
 11 14  1  0
 14 15  1  0
 15 16  1  0
 15 17  1  0
 15 18  1  0
 18 19  1  0
 18 20  1  0
 18 21  1  0
 21 22  1  0
 21 23  1  0
 23 24  1  0
 23 25  1  0
 23 26  1  0
 21 27  1  0
 27 28  1  0
 27 29  1  0
 27 30  1  0
 30 31  1  0
 30 32  1  0
 10 33  2  0
 33 34  1  0
 34 35  2  0
 35 36  1  0
 36 37  2  0
 36 38  1  0
 38 39  1  0
 39 40  1  0
 39 41  1  0
 39 42  1  0
 38 43  1  0
 43 44  2  0
 43 45  1  0
 45 46  1  0
 46 47  1  0
 46 48  1  0
 46 49  1  0
 35  9  1  0
 30 14  1  0
 45 34  1  0
M  END
>  <UniqueID>  (59) 
15

>  <SMILES>  (59) 
[H]/N=C(\O)Cn1c(CN2CCC(C)CC2)nc2c1c(=O)n(C)c(=O)n2C

>  <Energy>  (59) 
97.6665817170871

>  <Genealogy>  (59) 
CC1CCN(Cc2nc3c(c(=O)n(C)c(=O)n3C)n2CC(=N)O)CC1 (tautomer)
[H]/N=C(\O)Cn1c(CN2CCC(C)CC2)nc2c1c(=O)n(C)c(=O)n2C (cis-trans isomerization)
[H]/N=C(\O)Cn1c(CN2CCC(C)CC2)nc2c1c(=O)n(C)c(=O)n2C (3D coordinates assigned)
[H]/N=C(\O)Cn1c(CN2CCC(C)CC2)nc2c1c(=O)n(C)c(=O)n2C (nonaromatic ring conformer: 97.6665817170871 kcal/mol)

>  <smiles>  (59) 
CC1CCN(Cc2nc3c(c(=O)n(C)c(=O)n3C)n2CC(N)=O)CC1

>  <score_type>  (59) 
oracle

>  <origin>  (59) 
autodockgpu

>  <m_score__min__energy>  (59) 
-5.3200000000000003

>  <m_primary>  (59) 
energy

>  <meeko>  (59) 
{"free_energy": -5.21, "intermolecular_energy": -7.0, "internal_energy": -2.39, "cluster_size": 14, "cluster_id": 1, "rank_in_cluster": 5}

>  <energy>  (59) 
-4.99

>  <cluster_rmsd>  (59) 
0.65

>  <rmsd>  (59) 
271.71

>  <cluster>  (59) 
3

$$$$
IQOSOXOZFSRASN-DESYHMSQNA-N
     RDKit          3D

 49 51  0  0  0  0  0  0  0  0999 V2000
  141.5600   76.4470  221.9710 H   0  0  0  0  0  0  0  0  0  0  0  0
  141.4380   75.4100  221.9610 N   0  0  0  0  0  0  0  0  0  0  0  0
  140.2680   74.8690  221.8330 C   0  0  0  0  0  0  0  0  0  0  0  0
  139.8980   73.7830  222.6240 O   0  0  0  0  0  0  0  0  0  0  0  0
  138.9490   73.6710  222.9590 H   0  0  0  0  0  0  0  0  0  0  0  0
  139.2990   75.4210  220.8350 C   0  0  0  0  0  0  0  0  0  0  0  0
  139.8530   75.9545  220.0486 H   0  0  0  0  0  0  0  0  0  0  0  0
  138.7262   74.5904  220.3967 H   0  0  0  0  0  0  0  0  0  0  0  0
  138.3690   76.3490  221.4850 N   0  0  0  0  0  0  0  0  0  0  0  0
  138.4450   77.7090  221.5330 C   0  0  0  0  0  0  0  0  0  0  0  0
  139.4870   78.5280  220.8260 C   0  0  0  0  0  0  0  0  0  0  0  0
  139.5960   78.1632  219.7940 H   0  0  0  0  0  0  0  0  0  0  0  0
  139.1713   79.5817  220.8230 H   0  0  0  0  0  0  0  0  0  0  0  0
  140.7850   78.4190  221.5200 N   0  0  0  0  0  0  0  0  0  0  0  0
  141.8220   79.3040  220.9170 C   0  0  0  0  0  0  0  0  0  0  0  0
  142.7645   78.7416  220.8438 H   0  0  0  0  0  0  0  0  0  0  0  0
  141.4555   79.6172  219.9283 H   0  0  0  0  0  0  0  0  0  0  0  0
  142.0720   80.5740  221.7400 C   0  0  0  0  0  0  0  0  0  0  0  0
  142.8385   81.1830  221.2384 H   0  0  0  0  0  0  0  0  0  0  0  0
  141.1278   81.1328  221.8190 H   0  0  0  0  0  0  0  0  0  0  0  0
  142.5580   80.2220  223.1650 C   0  0  0  0  0  0  0  0  0  0  0  0
  143.6458   80.0653  223.1194 H   0  0  0  0  0  0  0  0  0  0  0  0
  142.2750   81.3820  224.1270 C   0  0  0  0  0  0  0  0  0  0  0  0
  142.3615   81.0273  225.1646 H   0  0  0  0  0  0  0  0  0  0  0  0
  143.0028   82.1883  223.9532 H   0  0  0  0  0  0  0  0  0  0  0  0
  141.2577   81.7626  223.9532 H   0  0  0  0  0  0  0  0  0  0  0  0
  141.9400   78.8980  223.6790 C   0  0  0  0  0  0  0  0  0  0  0  0
  142.6415   78.0742  223.4810 H   0  0  0  0  0  0  0  0  0  0  0  0
  141.7525   78.9975  224.7583 H   0  0  0  0  0  0  0  0  0  0  0  0
  140.6080   78.5990  222.9810 C   0  0  0  0  0  0  0  0  0  0  0  0
  140.1818   77.6778  223.4050 H   0  0  0  0  0  0  0  0  0  0  0  0
  139.9354   79.4542  223.1430 H   0  0  0  0  0  0  0  0  0  0  0  0
  137.4550   78.2800  222.2670 N   0  0  0  0  0  0  0  0  0  0  0  0
  136.7530   77.2160  222.7010 C   0  0  0  0  0  0  0  0  0  0  0  0
  137.2910   76.0620  222.2430 C   0  0  0  0  0  0  0  0  0  0  0  0
  136.7120   74.8400  222.5740 C   0  0  0  0  0  0  0  0  0  0  0  0
  137.1960   73.7600  222.1410 O   0  0  0  0  0  0  0  0  0  0  0  0
  135.5930   74.8450  223.3760 N   0  0  0  0  0  0  0  0  0  0  0  0
  134.9300   73.5730  223.7150 C   0  0  0  0  0  0  0  0  0  0  0  0
  134.8753   73.4681  224.8086 H   0  0  0  0  0  0  0  0  0  0  0  0
  133.9135   73.5659  223.2947 H   0  0  0  0  0  0  0  0  0  0  0  0
  135.5064   72.7357  223.2947 H   0  0  0  0  0  0  0  0  0  0  0  0
  135.0420   76.0430  223.8000 C   0  0  0  0  0  0  0  0  0  0  0  0
  133.9760   76.0380  224.4780 O   0  0  0  0  0  0  0  0  0  0  0  0
  135.6430   77.2430  223.4880 N   0  0  0  0  0  0  0  0  0  0  0  0
  135.0570   78.5190  223.9170 C   0  0  0  0  0  0  0  0  0  0  0  0
  135.0371   78.5623  225.0160 H   0  0  0  0  0  0  0  0  0  0  0  0
  135.6636   79.3502  223.5282 H   0  0  0  0  0  0  0  0  0  0  0  0
  134.0312   78.6005  223.5282 H   0  0  0  0  0  0  0  0  0  0  0  0
  1  2  1  0
  2  3  2  0
  3  4  1  0
  4  5  1  0
  3  6  1  0
  6  7  1  0
  6  8  1  0
  6  9  1  0
  9 10  1  0
 10 11  1  0
 11 12  1  0
 11 13  1  0
 11 14  1  0
 14 15  1  0
 15 16  1  0
 15 17  1  0
 15 18  1  0
 18 19  1  0
 18 20  1  0
 18 21  1  0
 21 22  1  0
 21 23  1  0
 23 24  1  0
 23 25  1  0
 23 26  1  0
 21 27  1  0
 27 28  1  0
 27 29  1  0
 27 30  1  0
 30 31  1  0
 30 32  1  0
 10 33  2  0
 33 34  1  0
 34 35  2  0
 35 36  1  0
 36 37  2  0
 36 38  1  0
 38 39  1  0
 39 40  1  0
 39 41  1  0
 39 42  1  0
 38 43  1  0
 43 44  2  0
 43 45  1  0
 45 46  1  0
 46 47  1  0
 46 48  1  0
 46 49  1  0
 35  9  1  0
 30 14  1  0
 45 34  1  0
M  END
>  <UniqueID>  (60) 
15

>  <SMILES>  (60) 
[H]/N=C(\O)Cn1c(CN2CCC(C)CC2)nc2c1c(=O)n(C)c(=O)n2C

>  <Energy>  (60) 
97.6665817170871

>  <Genealogy>  (60) 
CC1CCN(Cc2nc3c(c(=O)n(C)c(=O)n3C)n2CC(=N)O)CC1 (tautomer)
[H]/N=C(\O)Cn1c(CN2CCC(C)CC2)nc2c1c(=O)n(C)c(=O)n2C (cis-trans isomerization)
[H]/N=C(\O)Cn1c(CN2CCC(C)CC2)nc2c1c(=O)n(C)c(=O)n2C (3D coordinates assigned)
[H]/N=C(\O)Cn1c(CN2CCC(C)CC2)nc2c1c(=O)n(C)c(=O)n2C (nonaromatic ring conformer: 97.6665817170871 kcal/mol)

>  <smiles>  (60) 
CC1CCN(Cc2nc3c(c(=O)n(C)c(=O)n3C)n2CC(N)=O)CC1

>  <score_type>  (60) 
oracle

>  <origin>  (60) 
autodockgpu

>  <m_score__min__energy>  (60) 
-5.3200000000000003

>  <m_primary>  (60) 
energy

>  <meeko>  (60) 
{"free_energy": -5.16, "intermolecular_energy": -6.95, "internal_energy": -2.44, "cluster_size": 14, "cluster_id": 1, "rank_in_cluster": 13}

>  <energy>  (60) 
-4.98

>  <cluster_rmsd>  (60) 
0.65

>  <rmsd>  (60) 
271.72

>  <cluster>  (60) 
3

$$$$
IQOSOXOZFSRASN-DESYHMSQNA-N
     RDKit          3D

 49 51  0  0  0  0  0  0  0  0999 V2000
  138.4540   74.2580  222.8200 H   0  0  0  0  0  0  0  0  0  0  0  0
  139.3570   74.0360  222.3430 N   0  0  0  0  0  0  0  0  0  0  0  0
  140.0820   74.9640  221.8050 C   0  0  0  0  0  0  0  0  0  0  0  0
  141.4670   74.9560  221.9520 O   0  0  0  0  0  0  0  0  0  0  0  0
  141.9970   75.8170  222.0240 H   0  0  0  0  0  0  0  0  0  0  0  0
  139.4290   76.0500  221.0080 C   0  0  0  0  0  0  0  0  0  0  0  0
  140.1508   76.4500  220.2806 H   0  0  0  0  0  0  0  0  0  0  0  0
  138.5564   75.6330  220.4839 H   0  0  0  0  0  0  0  0  0  0  0  0
  138.9820   77.1320  221.8900 N   0  0  0  0  0  0  0  0  0  0  0  0
  137.7210   77.3610  222.3560 C   0  0  0  0  0  0  0  0  0  0  0  0
  136.5450   76.4610  222.1060 C   0  0  0  0  0  0  0  0  0  0  0  0
  135.6153   77.0318  222.2468 H   0  0  0  0  0  0  0  0  0  0  0  0
  136.6011   76.0781  221.0763 H   0  0  0  0  0  0  0  0  0  0  0  0
  136.5620   75.3200  223.0430 N   0  0  0  0  0  0  0  0  0  0  0  0
  135.8590   75.6300  224.3200 C   0  0  0  0  0  0  0  0  0  0  0  0
  136.4613   75.2433  225.1553 H   0  0  0  0  0  0  0  0  0  0  0  0
  135.7383   76.7220  224.3743 H   0  0  0  0  0  0  0  0  0  0  0  0
  134.4590   75.0070  224.3960 C   0  0  0  0  0  0  0  0  0  0  0  0
  133.9957   75.2787  225.3560 H   0  0  0  0  0  0  0  0  0  0  0  0
  133.8586   75.3893  223.5573 H   0  0  0  0  0  0  0  0  0  0  0  0
  134.5330   73.4670  224.2880 C   0  0  0  0  0  0  0  0  0  0  0  0
  134.7380   73.0705  225.2933 H   0  0  0  0  0  0  0  0  0  0  0  0
  133.1920   72.9000  223.8070 C   0  0  0  0  0  0  0  0  0  0  0  0
  132.5717   72.6377  224.6767 H   0  0  0  0  0  0  0  0  0  0  0  0
  132.6714   73.6550  223.1996 H   0  0  0  0  0  0  0  0  0  0  0  0
  133.3709   72.0005  223.1996 H   0  0  0  0  0  0  0  0  0  0  0  0
  135.7000   73.0030  223.3810 C   0  0  0  0  0  0  0  0  0  0  0  0
  136.5737   72.7746  224.0091 H   0  0  0  0  0  0  0  0  0  0  0  0
  135.3764   72.1095  222.8269 H   0  0  0  0  0  0  0  0  0  0  0  0
  136.0820   74.0900  222.3690 C   0  0  0  0  0  0  0  0  0  0  0  0
  136.8803   73.7058  221.7170 H   0  0  0  0  0  0  0  0  0  0  0  0
  135.1858   74.3458  221.7847 H   0  0  0  0  0  0  0  0  0  0  0  0
  137.6210   78.4860  223.1100 N   0  0  0  0  0  0  0  0  0  0  0  0
  138.8760   78.9740  223.0890 C   0  0  0  0  0  0  0  0  0  0  0  0
  139.6930   78.1760  222.3620 C   0  0  0  0  0  0  0  0  0  0  0  0
  141.0390   78.5000  222.2170 C   0  0  0  0  0  0  0  0  0  0  0  0
  141.8120   77.7560  221.5550 O   0  0  0  0  0  0  0  0  0  0  0  0
  141.5030   79.6450  222.8240 N   0  0  0  0  0  0  0  0  0  0  0  0
  142.9300   79.9980  222.7250 C   0  0  0  0  0  0  0  0  0  0  0  0
  143.3528   80.1026  223.7351 H   0  0  0  0  0  0  0  0  0  0  0  0
  143.4670   79.2056  222.1830 H   0  0  0  0  0  0  0  0  0  0  0  0
  143.0356   80.9494  222.1830 H   0  0  0  0  0  0  0  0  0  0  0  0
  140.6530   80.4230  223.5920 C   0  0  0  0  0  0  0  0  0  0  0  0
  141.1060   81.4340  224.2000 O   0  0  0  0  0  0  0  0  0  0  0  0
  139.3170   80.1050  223.7030 N   0  0  0  0  0  0  0  0  0  0  0  0
  138.4110   80.9140  224.5300 C   0  0  0  0  0  0  0  0  0  0  0  0
  138.6203   80.7271  225.5936 H   0  0  0  0  0  0  0  0  0  0  0  0
  138.5654   81.9802  224.3077 H   0  0  0  0  0  0  0  0  0  0  0  0
  137.3690   80.6403  224.3077 H   0  0  0  0  0  0  0  0  0  0  0  0
  1  2  1  0
  2  3  2  0
  3  4  1  0
  4  5  1  0
  3  6  1  0
  6  7  1  0
  6  8  1  0
  6  9  1  0
  9 10  1  0
 10 11  1  0
 11 12  1  0
 11 13  1  0
 11 14  1  0
 14 15  1  0
 15 16  1  0
 15 17  1  0
 15 18  1  0
 18 19  1  0
 18 20  1  0
 18 21  1  0
 21 22  1  0
 21 23  1  0
 23 24  1  0
 23 25  1  0
 23 26  1  0
 21 27  1  0
 27 28  1  0
 27 29  1  0
 27 30  1  0
 30 31  1  0
 30 32  1  0
 10 33  2  0
 33 34  1  0
 34 35  2  0
 35 36  1  0
 36 37  2  0
 36 38  1  0
 38 39  1  0
 39 40  1  0
 39 41  1  0
 39 42  1  0
 38 43  1  0
 43 44  2  0
 43 45  1  0
 45 46  1  0
 46 47  1  0
 46 48  1  0
 46 49  1  0
 35  9  1  0
 30 14  1  0
 45 34  1  0
M  END
>  <UniqueID>  (61) 
16

>  <SMILES>  (61) 
[H]/N=C(\O)Cn1c(CN2CCC(C)CC2)nc2c1c(=O)n(C)c(=O)n2C

>  <Energy>  (61) 
97.78650455958997

>  <Genealogy>  (61) 
CC1CCN(Cc2nc3c(c(=O)n(C)c(=O)n3C)n2CC(=N)O)CC1 (tautomer)
[H]/N=C(\O)Cn1c(CN2CCC(C)CC2)nc2c1c(=O)n(C)c(=O)n2C (cis-trans isomerization)
[H]/N=C(\O)Cn1c(CN2CCC(C)CC2)nc2c1c(=O)n(C)c(=O)n2C (3D coordinates assigned)
[H]/N=C(\O)Cn1c(CN2CCC(C)CC2)nc2c1c(=O)n(C)c(=O)n2C (nonaromatic ring conformer: 97.78650455958997 kcal/mol)

>  <smiles>  (61) 
CC1CCN(Cc2nc3c(c(=O)n(C)c(=O)n3C)n2CC(N)=O)CC1

>  <score_type>  (61) 
oracle

>  <origin>  (61) 
autodockgpu

>  <m_score__min__energy>  (61) 
-5.3200000000000003

>  <m_primary>  (61) 
energy

>  <meeko>  (61) 
{"free_energy": -4.98, "intermolecular_energy": -6.77, "internal_energy": -2.32, "cluster_size": 5, "cluster_id": 3, "rank_in_cluster": 5}

>  <energy>  (61) 
-5.32

>  <cluster_rmsd>  (61) 
0.0

>  <rmsd>  (61) 
271.66

>  <cluster>  (61) 
1

$$$$
IQOSOXOZFSRASN-DESYHMSQNA-N
     RDKit          3D

 49 51  0  0  0  0  0  0  0  0999 V2000
  141.5850   76.3620  221.9660 H   0  0  0  0  0  0  0  0  0  0  0  0
  141.4460   75.3310  221.8790 N   0  0  0  0  0  0  0  0  0  0  0  0
  140.2610   74.8140  221.8010 C   0  0  0  0  0  0  0  0  0  0  0  0
  139.8920   73.7590  222.6330 O   0  0  0  0  0  0  0  0  0  0  0  0
  138.9560   73.6900  223.0160 H   0  0  0  0  0  0  0  0  0  0  0  0
  139.2750   75.3590  220.8160 C   0  0  0  0  0  0  0  0  0  0  0  0
  139.8114   75.9321  220.0454 H   0  0  0  0  0  0  0  0  0  0  0  0
  138.7316   74.5215  220.3542 H   0  0  0  0  0  0  0  0  0  0  0  0
  138.3130   76.2370  221.4890 N   0  0  0  0  0  0  0  0  0  0  0  0
  138.3660   77.5940  221.6100 C   0  0  0  0  0  0  0  0  0  0  0  0
  139.4120   78.4650  220.9750 C   0  0  0  0  0  0  0  0  0  0  0  0
  139.5445   78.1652  219.9250 H   0  0  0  0  0  0  0  0  0  0  0  0
  139.0846   79.5137  221.0305 H   0  0  0  0  0  0  0  0  0  0  0  0
  140.6980   78.3270  221.6860 N   0  0  0  0  0  0  0  0  0  0  0  0
  141.7930   79.0890  221.0220 C   0  0  0  0  0  0  0  0  0  0  0  0
  142.6961   78.4613  221.0026 H   0  0  0  0  0  0  0  0  0  0  0  0
  141.4509   79.3440  220.0081 H   0  0  0  0  0  0  0  0  0  0  0  0
  142.1250   80.4030  221.7410 C   0  0  0  0  0  0  0  0  0  0  0  0
  142.9319   80.9168  221.1979 H   0  0  0  0  0  0  0  0  0  0  0  0
  141.2202   81.0280  221.7663 H   0  0  0  0  0  0  0  0  0  0  0  0
  142.5820   80.1370  223.1930 C   0  0  0  0  0  0  0  0  0  0  0  0
  143.6569   79.9046  223.1684 H   0  0  0  0  0  0  0  0  0  0  0  0
  142.3740   81.3890  224.0560 C   0  0  0  0  0  0  0  0  0  0  0  0
  142.4199   81.1128  225.1198 H   0  0  0  0  0  0  0  0  0  0  0  0
  143.1625   82.1229  223.8334 H   0  0  0  0  0  0  0  0  0  0  0  0
  141.3905   81.8285  223.8334 H   0  0  0  0  0  0  0  0  0  0  0  0
  141.8750   78.9040  223.8090 C   0  0  0  0  0  0  0  0  0  0  0  0
  142.5203   78.0217  223.6859 H   0  0  0  0  0  0  0  0  0  0  0  0
  141.6911   79.1045  224.8748 H   0  0  0  0  0  0  0  0  0  0  0  0
  140.5290   78.6380  223.1260 C   0  0  0  0  0  0  0  0  0  0  0  0
  140.0406   77.7852  223.6202 H   0  0  0  0  0  0  0  0  0  0  0  0
  139.9151   79.5467  223.2113 H   0  0  0  0  0  0  0  0  0  0  0  0
  137.3490   78.1100  222.3470 N   0  0  0  0  0  0  0  0  0  0  0  0
  136.6530   77.0150  222.7060 C   0  0  0  0  0  0  0  0  0  0  0  0
  137.2220   75.8940  222.2030 C   0  0  0  0  0  0  0  0  0  0  0  0
  136.6540   74.6480  222.4540 C   0  0  0  0  0  0  0  0  0  0  0  0
  137.1670   73.6000  221.9780 O   0  0  0  0  0  0  0  0  0  0  0  0
  135.5160   74.5940  223.2260 N   0  0  0  0  0  0  0  0  0  0  0  0
  134.8650   73.2960  223.4800 C   0  0  0  0  0  0  0  0  0  0  0  0
  134.7832   73.1329  224.5648 H   0  0  0  0  0  0  0  0  0  0  0  0
  133.8602   73.2959  223.0324 H   0  0  0  0  0  0  0  0  0  0  0  0
  135.4659   72.4906  223.0324 H   0  0  0  0  0  0  0  0  0  0  0  0
  134.9350   75.7590  223.6980 C   0  0  0  0  0  0  0  0  0  0  0  0
  133.8520   75.7030  224.3460 O   0  0  0  0  0  0  0  0  0  0  0  0
  135.5230   76.9830  223.4640 N   0  0  0  0  0  0  0  0  0  0  0  0
  134.9060   78.2260  223.9440 C   0  0  0  0  0  0  0  0  0  0  0  0
  134.9027   78.2327  225.0440 H   0  0  0  0  0  0  0  0  0  0  0  0
  135.4811   79.0875  223.5738 H   0  0  0  0  0  0  0  0  0  0  0  0
  133.8721   78.2889  223.5738 H   0  0  0  0  0  0  0  0  0  0  0  0
  1  2  1  0
  2  3  2  0
  3  4  1  0
  4  5  1  0
  3  6  1  0
  6  7  1  0
  6  8  1  0
  6  9  1  0
  9 10  1  0
 10 11  1  0
 11 12  1  0
 11 13  1  0
 11 14  1  0
 14 15  1  0
 15 16  1  0
 15 17  1  0
 15 18  1  0
 18 19  1  0
 18 20  1  0
 18 21  1  0
 21 22  1  0
 21 23  1  0
 23 24  1  0
 23 25  1  0
 23 26  1  0
 21 27  1  0
 27 28  1  0
 27 29  1  0
 27 30  1  0
 30 31  1  0
 30 32  1  0
 10 33  2  0
 33 34  1  0
 34 35  2  0
 35 36  1  0
 36 37  2  0
 36 38  1  0
 38 39  1  0
 39 40  1  0
 39 41  1  0
 39 42  1  0
 38 43  1  0
 43 44  2  0
 43 45  1  0
 45 46  1  0
 46 47  1  0
 46 48  1  0
 46 49  1  0
 35  9  1  0
 30 14  1  0
 45 34  1  0
M  END
>  <UniqueID>  (62) 
16

>  <SMILES>  (62) 
[H]/N=C(\O)Cn1c(CN2CCC(C)CC2)nc2c1c(=O)n(C)c(=O)n2C

>  <Energy>  (62) 
97.78650455958997

>  <Genealogy>  (62) 
CC1CCN(Cc2nc3c(c(=O)n(C)c(=O)n3C)n2CC(=N)O)CC1 (tautomer)
[H]/N=C(\O)Cn1c(CN2CCC(C)CC2)nc2c1c(=O)n(C)c(=O)n2C (cis-trans isomerization)
[H]/N=C(\O)Cn1c(CN2CCC(C)CC2)nc2c1c(=O)n(C)c(=O)n2C (3D coordinates assigned)
[H]/N=C(\O)Cn1c(CN2CCC(C)CC2)nc2c1c(=O)n(C)c(=O)n2C (nonaromatic ring conformer: 97.78650455958997 kcal/mol)

>  <smiles>  (62) 
CC1CCN(Cc2nc3c(c(=O)n(C)c(=O)n3C)n2CC(N)=O)CC1

>  <score_type>  (62) 
oracle

>  <origin>  (62) 
autodockgpu

>  <m_score__min__energy>  (62) 
-5.3200000000000003

>  <m_primary>  (62) 
energy

>  <meeko>  (62) 
{"free_energy": -5.2, "intermolecular_energy": -6.99, "internal_energy": -2.41, "cluster_size": 14, "cluster_id": 1, "rank_in_cluster": 6}

>  <energy>  (62) 
-5.22

>  <cluster_rmsd>  (62) 
0.66

>  <rmsd>  (62) 
271.48

>  <cluster>  (62) 
1

$$$$
IQOSOXOZFSRASN-DESYHMSQNA-N
     RDKit          3D

 49 51  0  0  0  0  0  0  0  0999 V2000
  141.6080   76.4880  221.8680 H   0  0  0  0  0  0  0  0  0  0  0  0
  141.4550   75.4580  221.9480 N   0  0  0  0  0  0  0  0  0  0  0  0
  140.2910   74.9300  221.7420 C   0  0  0  0  0  0  0  0  0  0  0  0
  139.9000   73.7830  222.4310 O   0  0  0  0  0  0  0  0  0  0  0  0
  138.9580   73.6740  222.7860 H   0  0  0  0  0  0  0  0  0  0  0  0
  139.3510   75.5610  220.7630 C   0  0  0  0  0  0  0  0  0  0  0  0
  139.9256   76.1684  220.0482 H   0  0  0  0  0  0  0  0  0  0  0  0
  138.8043   74.7687  220.2307 H   0  0  0  0  0  0  0  0  0  0  0  0
  138.3880   76.4180  221.4610 N   0  0  0  0  0  0  0  0  0  0  0  0
  138.4230   77.7740  221.5950 C   0  0  0  0  0  0  0  0  0  0  0  0
  139.4470   78.6660  220.9530 C   0  0  0  0  0  0  0  0  0  0  0  0
  139.5150   78.4269  219.8815 H   0  0  0  0  0  0  0  0  0  0  0  0
  139.1417   79.7141  221.0881 H   0  0  0  0  0  0  0  0  0  0  0  0
  140.7680   78.4680  221.5800 N   0  0  0  0  0  0  0  0  0  0  0  0
  141.8220   79.3130  220.9520 C   0  0  0  0  0  0  0  0  0  0  0  0
  142.7278   78.7032  220.8190 H   0  0  0  0  0  0  0  0  0  0  0  0
  141.4268   79.6738  219.9909 H   0  0  0  0  0  0  0  0  0  0  0  0
  142.1800   80.5440  221.7940 C   0  0  0  0  0  0  0  0  0  0  0  0
  142.9545   81.1247  221.2717 H   0  0  0  0  0  0  0  0  0  0  0  0
  141.2730   81.1507  221.9328 H   0  0  0  0  0  0  0  0  0  0  0  0
  142.7120   80.1260  223.1840 C   0  0  0  0  0  0  0  0  0  0  0  0
  143.7863   79.9129  223.0817 H   0  0  0  0  0  0  0  0  0  0  0  0
  142.5370   81.2720  224.1890 C   0  0  0  0  0  0  0  0  0  0  0  0
  142.5977   80.8743  225.2128 H   0  0  0  0  0  0  0  0  0  0  0  0
  143.3318   82.0172  224.0374 H   0  0  0  0  0  0  0  0  0  0  0  0
  141.5561   81.7461  224.0374 H   0  0  0  0  0  0  0  0  0  0  0  0
  142.0470   78.8230  223.6930 C   0  0  0  0  0  0  0  0  0  0  0  0
  142.6923   77.9686  223.4406 H   0  0  0  0  0  0  0  0  0  0  0  0
  141.9157   78.9016  224.7823 H   0  0  0  0  0  0  0  0  0  0  0  0
  140.6700   78.6160  223.0520 C   0  0  0  0  0  0  0  0  0  0  0  0
  140.2139   77.7075  223.4722 H   0  0  0  0  0  0  0  0  0  0  0  0
  140.0542   79.5016  223.2678 H   0  0  0  0  0  0  0  0  0  0  0  0
  137.4100   78.2680  222.3530 N   0  0  0  0  0  0  0  0  0  0  0  0
  136.7360   77.1590  222.7110 C   0  0  0  0  0  0  0  0  0  0  0  0
  137.3120   76.0520  222.1870 C   0  0  0  0  0  0  0  0  0  0  0  0
  136.7660   74.7960  222.4350 C   0  0  0  0  0  0  0  0  0  0  0  0
  137.2860   73.7600  221.9400 O   0  0  0  0  0  0  0  0  0  0  0  0
  135.6410   74.7170  223.2230 N   0  0  0  0  0  0  0  0  0  0  0  0
  135.0120   73.4080  223.4730 C   0  0  0  0  0  0  0  0  0  0  0  0
  134.9317   73.2409  224.5573 H   0  0  0  0  0  0  0  0  0  0  0  0
  134.0079   73.3920  223.0242 H   0  0  0  0  0  0  0  0  0  0  0  0
  135.6269   72.6140  223.0242 H   0  0  0  0  0  0  0  0  0  0  0  0
  135.0510   75.8700  223.7150 C   0  0  0  0  0  0  0  0  0  0  0  0
  133.9790   75.7910  224.3800 O   0  0  0  0  0  0  0  0  0  0  0  0
  135.6180   77.1040  223.4860 N   0  0  0  0  0  0  0  0  0  0  0  0
  134.9910   78.3330  223.9880 C   0  0  0  0  0  0  0  0  0  0  0  0
  134.9956   78.3241  225.0880 H   0  0  0  0  0  0  0  0  0  0  0  0
  135.5539   79.2060  223.6261 H   0  0  0  0  0  0  0  0  0  0  0  0
  133.9538   78.3897  223.6261 H   0  0  0  0  0  0  0  0  0  0  0  0
  1  2  1  0
  2  3  2  0
  3  4  1  0
  4  5  1  0
  3  6  1  0
  6  7  1  0
  6  8  1  0
  6  9  1  0
  9 10  1  0
 10 11  1  0
 11 12  1  0
 11 13  1  0
 11 14  1  0
 14 15  1  0
 15 16  1  0
 15 17  1  0
 15 18  1  0
 18 19  1  0
 18 20  1  0
 18 21  1  0
 21 22  1  0
 21 23  1  0
 23 24  1  0
 23 25  1  0
 23 26  1  0
 21 27  1  0
 27 28  1  0
 27 29  1  0
 27 30  1  0
 30 31  1  0
 30 32  1  0
 10 33  2  0
 33 34  1  0
 34 35  2  0
 35 36  1  0
 36 37  2  0
 36 38  1  0
 38 39  1  0
 39 40  1  0
 39 41  1  0
 39 42  1  0
 38 43  1  0
 43 44  2  0
 43 45  1  0
 45 46  1  0
 46 47  1  0
 46 48  1  0
 46 49  1  0
 35  9  1  0
 30 14  1  0
 45 34  1  0
M  END
>  <UniqueID>  (63) 
16

>  <SMILES>  (63) 
[H]/N=C(\O)Cn1c(CN2CCC(C)CC2)nc2c1c(=O)n(C)c(=O)n2C

>  <Energy>  (63) 
97.78650455958997

>  <Genealogy>  (63) 
CC1CCN(Cc2nc3c(c(=O)n(C)c(=O)n3C)n2CC(=N)O)CC1 (tautomer)
[H]/N=C(\O)Cn1c(CN2CCC(C)CC2)nc2c1c(=O)n(C)c(=O)n2C (cis-trans isomerization)
[H]/N=C(\O)Cn1c(CN2CCC(C)CC2)nc2c1c(=O)n(C)c(=O)n2C (3D coordinates assigned)
[H]/N=C(\O)Cn1c(CN2CCC(C)CC2)nc2c1c(=O)n(C)c(=O)n2C (nonaromatic ring conformer: 97.78650455958997 kcal/mol)

>  <smiles>  (63) 
CC1CCN(Cc2nc3c(c(=O)n(C)c(=O)n3C)n2CC(N)=O)CC1

>  <score_type>  (63) 
oracle

>  <origin>  (63) 
autodockgpu

>  <m_score__min__energy>  (63) 
-5.3200000000000003

>  <m_primary>  (63) 
energy

>  <meeko>  (63) 
{"free_energy": -5.18, "intermolecular_energy": -6.97, "internal_energy": -2.42, "cluster_size": 14, "cluster_id": 1, "rank_in_cluster": 11}

>  <energy>  (63) 
-5.22

>  <cluster_rmsd>  (63) 
0.62

>  <rmsd>  (63) 
271.51

>  <cluster>  (63) 
1

$$$$
IQOSOXOZFSRASN-DESYHMSQNA-N
     RDKit          3D

 49 51  0  0  0  0  0  0  0  0999 V2000
  141.5370   76.5830  221.9760 H   0  0  0  0  0  0  0  0  0  0  0  0
  141.4310   75.5460  221.9050 N   0  0  0  0  0  0  0  0  0  0  0  0
  140.2740   74.9970  221.7180 C   0  0  0  0  0  0  0  0  0  0  0  0
  139.9330   73.8190  222.3780 O   0  0  0  0  0  0  0  0  0  0  0  0
  139.0100   73.6810  222.7730 H   0  0  0  0  0  0  0  0  0  0  0  0
  139.2880   75.6380  220.7910 C   0  0  0  0  0  0  0  0  0  0  0  0
  139.8151   76.3444  220.1328 H   0  0  0  0  0  0  0  0  0  0  0  0
  138.8003   74.8555  220.1911 H   0  0  0  0  0  0  0  0  0  0  0  0
  138.2650   76.3600  221.5550 N   0  0  0  0  0  0  0  0  0  0  0  0
  138.2000   77.6990  221.8030 C   0  0  0  0  0  0  0  0  0  0  0  0
  139.1540   78.7150  221.2420 C   0  0  0  0  0  0  0  0  0  0  0  0
  139.1693   78.6309  220.1453 H   0  0  0  0  0  0  0  0  0  0  0  0
  138.8203   79.7200  221.5397 H   0  0  0  0  0  0  0  0  0  0  0  0
  140.5150   78.4880  221.7660 N   0  0  0  0  0  0  0  0  0  0  0  0
  141.5380   79.2940  221.0440 C   0  0  0  0  0  0  0  0  0  0  0  0
  142.4134   78.6570  220.8492 H   0  0  0  0  0  0  0  0  0  0  0  0
  141.0778   79.6532  220.1117 H   0  0  0  0  0  0  0  0  0  0  0  0
  141.9950   80.5250  221.8360 C   0  0  0  0  0  0  0  0  0  0  0  0
  142.7407   81.0769  221.2449 H   0  0  0  0  0  0  0  0  0  0  0  0
  141.1184   81.1583  222.0372 H   0  0  0  0  0  0  0  0  0  0  0  0
  142.6250   80.1110  223.1860 C   0  0  0  0  0  0  0  0  0  0  0  0
  143.6816   79.8659  223.0030 H   0  0  0  0  0  0  0  0  0  0  0  0
  142.5620   81.2750  224.1830 C   0  0  0  0  0  0  0  0  0  0  0  0
  142.5834   80.8801  225.2095 H   0  0  0  0  0  0  0  0  0  0  0  0
  143.4256   81.9383  224.0272 H   0  0  0  0  0  0  0  0  0  0  0  0
  141.6319   81.8413  224.0272 H   0  0  0  0  0  0  0  0  0  0  0  0
  141.9660   78.8350  223.7660 C   0  0  0  0  0  0  0  0  0  0  0  0
  142.5657   77.9591  223.4776 H   0  0  0  0  0  0  0  0  0  0  0  0
  141.9227   78.9332  224.8608 H   0  0  0  0  0  0  0  0  0  0  0  0
  140.5380   78.6580  223.2390 C   0  0  0  0  0  0  0  0  0  0  0  0
  140.0926   77.7681  223.7077 H   0  0  0  0  0  0  0  0  0  0  0  0
  139.9651   79.5631  223.4891 H   0  0  0  0  0  0  0  0  0  0  0  0
  137.1550   78.0500  222.5960 N   0  0  0  0  0  0  0  0  0  0  0  0
  136.5650   76.8680  222.8560 C   0  0  0  0  0  0  0  0  0  0  0  0
  137.2210   75.8550  222.2430 C   0  0  0  0  0  0  0  0  0  0  0  0
  136.7710   74.5460  222.3810 C   0  0  0  0  0  0  0  0  0  0  0  0
  137.3650   73.5960  221.8030 O   0  0  0  0  0  0  0  0  0  0  0  0
  135.6550   74.3180  223.1550 N   0  0  0  0  0  0  0  0  0  0  0  0
  135.1270   72.9490  223.2920 C   0  0  0  0  0  0  0  0  0  0  0  0
  135.0303   72.6983  224.3587 H   0  0  0  0  0  0  0  0  0  0  0  0
  134.1403   72.8866  222.8098 H   0  0  0  0  0  0  0  0  0  0  0  0
  135.8163   72.2402  222.8098 H   0  0  0  0  0  0  0  0  0  0  0  0
  134.9830   75.3770  223.7410 C   0  0  0  0  0  0  0  0  0  0  0  0
  133.9220   75.1640  224.3920 O   0  0  0  0  0  0  0  0  0  0  0  0
  135.4570   76.6650  223.6190 N   0  0  0  0  0  0  0  0  0  0  0  0
  134.7410   77.7980  224.2200 C   0  0  0  0  0  0  0  0  0  0  0  0
  134.7890   77.7221  225.3163 H   0  0  0  0  0  0  0  0  0  0  0  0
  135.2082   78.7400  223.8969 H   0  0  0  0  0  0  0  0  0  0  0  0
  133.6897   77.7804  223.8969 H   0  0  0  0  0  0  0  0  0  0  0  0
  1  2  1  0
  2  3  2  0
  3  4  1  0
  4  5  1  0
  3  6  1  0
  6  7  1  0
  6  8  1  0
  6  9  1  0
  9 10  1  0
 10 11  1  0
 11 12  1  0
 11 13  1  0
 11 14  1  0
 14 15  1  0
 15 16  1  0
 15 17  1  0
 15 18  1  0
 18 19  1  0
 18 20  1  0
 18 21  1  0
 21 22  1  0
 21 23  1  0
 23 24  1  0
 23 25  1  0
 23 26  1  0
 21 27  1  0
 27 28  1  0
 27 29  1  0
 27 30  1  0
 30 31  1  0
 30 32  1  0
 10 33  2  0
 33 34  1  0
 34 35  2  0
 35 36  1  0
 36 37  2  0
 36 38  1  0
 38 39  1  0
 39 40  1  0
 39 41  1  0
 39 42  1  0
 38 43  1  0
 43 44  2  0
 43 45  1  0
 45 46  1  0
 46 47  1  0
 46 48  1  0
 46 49  1  0
 35  9  1  0
 30 14  1  0
 45 34  1  0
M  END
>  <UniqueID>  (64) 
16

>  <SMILES>  (64) 
[H]/N=C(\O)Cn1c(CN2CCC(C)CC2)nc2c1c(=O)n(C)c(=O)n2C

>  <Energy>  (64) 
97.78650455958997

>  <Genealogy>  (64) 
CC1CCN(Cc2nc3c(c(=O)n(C)c(=O)n3C)n2CC(=N)O)CC1 (tautomer)
[H]/N=C(\O)Cn1c(CN2CCC(C)CC2)nc2c1c(=O)n(C)c(=O)n2C (cis-trans isomerization)
[H]/N=C(\O)Cn1c(CN2CCC(C)CC2)nc2c1c(=O)n(C)c(=O)n2C (3D coordinates assigned)
[H]/N=C(\O)Cn1c(CN2CCC(C)CC2)nc2c1c(=O)n(C)c(=O)n2C (nonaromatic ring conformer: 97.78650455958997 kcal/mol)

>  <smiles>  (64) 
CC1CCN(Cc2nc3c(c(=O)n(C)c(=O)n3C)n2CC(N)=O)CC1

>  <score_type>  (64) 
oracle

>  <origin>  (64) 
autodockgpu

>  <m_score__min__energy>  (64) 
-5.3200000000000003

>  <m_primary>  (64) 
energy

>  <meeko>  (64) 
{"free_energy": -5.2, "intermolecular_energy": -6.99, "internal_energy": -2.39, "cluster_size": 14, "cluster_id": 1, "rank_in_cluster": 8}

>  <energy>  (64) 
-5.21

>  <cluster_rmsd>  (64) 
0.61

>  <rmsd>  (64) 
271.52

>  <cluster>  (64) 
1

$$$$
IQOSOXOZFSRASN-DESYHMSQNA-N
     RDKit          3D

 49 51  0  0  0  0  0  0  0  0999 V2000
  142.0850   75.8210  221.8570 H   0  0  0  0  0  0  0  0  0  0  0  0
  141.5060   74.9880  221.6090 N   0  0  0  0  0  0  0  0  0  0  0  0
  140.2120   75.0370  221.6220 C   0  0  0  0  0  0  0  0  0  0  0  0
  139.4750   74.1010  222.3450 O   0  0  0  0  0  0  0  0  0  0  0  0
  138.6030   74.3490  222.7980 H   0  0  0  0  0  0  0  0  0  0  0  0
  139.5010   76.1130  220.8640 C   0  0  0  0  0  0  0  0  0  0  0  0
  140.1882   76.5508  220.1250 H   0  0  0  0  0  0  0  0  0  0  0  0
  138.6291   75.6757  220.3556 H   0  0  0  0  0  0  0  0  0  0  0  0
  139.0420   77.1630  221.7790 N   0  0  0  0  0  0  0  0  0  0  0  0
  137.7840   77.3500  222.2700 C   0  0  0  0  0  0  0  0  0  0  0  0
  136.6260   76.4260  222.0180 C   0  0  0  0  0  0  0  0  0  0  0  0
  135.6850   76.9826  222.1388 H   0  0  0  0  0  0  0  0  0  0  0  0
  136.7013   76.0296  220.9947 H   0  0  0  0  0  0  0  0  0  0  0  0
  136.6510   75.2990  222.9720 N   0  0  0  0  0  0  0  0  0  0  0  0
  135.9190   75.6110  224.2310 C   0  0  0  0  0  0  0  0  0  0  0  0
  136.5140   75.2483  225.0821 H   0  0  0  0  0  0  0  0  0  0  0  0
  135.7746   76.7009  224.2677 H   0  0  0  0  0  0  0  0  0  0  0  0
  134.5310   74.9600  224.2910 C   0  0  0  0  0  0  0  0  0  0  0  0
  134.0446   75.2355  225.2384 H   0  0  0  0  0  0  0  0  0  0  0  0
  133.9378   75.3176  223.4364 H   0  0  0  0  0  0  0  0  0  0  0  0
  134.6400   73.4200  224.2070 C   0  0  0  0  0  0  0  0  0  0  0  0
  134.8360   73.0412  225.2209 H   0  0  0  0  0  0  0  0  0  0  0  0
  133.3190   72.8190  223.7100 C   0  0  0  0  0  0  0  0  0  0  0  0
  132.6974   72.5362  224.5724 H   0  0  0  0  0  0  0  0  0  0  0  0
  132.7842   73.5624  223.1006 H   0  0  0  0  0  0  0  0  0  0  0  0
  133.5281   71.9274  223.1006 H   0  0  0  0  0  0  0  0  0  0  0  0
  135.8320   72.9690  223.3270 C   0  0  0  0  0  0  0  0  0  0  0  0
  136.6990   72.7679  223.9734 H   0  0  0  0  0  0  0  0  0  0  0  0
  135.5367   72.0616  222.7798 H   0  0  0  0  0  0  0  0  0  0  0  0
  136.2090   74.0490  222.3070 C   0  0  0  0  0  0  0  0  0  0  0  0
  137.0268   73.6728  221.6748 H   0  0  0  0  0  0  0  0  0  0  0  0
  135.3183   74.2774  221.7033 H   0  0  0  0  0  0  0  0  0  0  0  0
  137.6680   78.4540  223.0520 N   0  0  0  0  0  0  0  0  0  0  0  0
  138.9100   78.9740  223.0230 C   0  0  0  0  0  0  0  0  0  0  0  0
  139.7340   78.2140  222.2640 C   0  0  0  0  0  0  0  0  0  0  0  0
  141.0690   78.5750  222.1050 C   0  0  0  0  0  0  0  0  0  0  0  0
  141.8490   77.8670  221.4140 O   0  0  0  0  0  0  0  0  0  0  0  0
  141.5150   79.7170  222.7310 N   0  0  0  0  0  0  0  0  0  0  0  0
  142.9310   80.1090  222.6170 C   0  0  0  0  0  0  0  0  0  0  0  0
  143.3606   80.2279  223.6226 H   0  0  0  0  0  0  0  0  0  0  0  0
  143.4843   79.3302  222.0716 H   0  0  0  0  0  0  0  0  0  0  0  0
  143.0050   81.0614  222.0716 H   0  0  0  0  0  0  0  0  0  0  0  0
  140.6580   80.4550  223.5300 C   0  0  0  0  0  0  0  0  0  0  0  0
  141.0960   81.4630  224.1550 O   0  0  0  0  0  0  0  0  0  0  0  0
  139.3330   80.1020  223.6560 N   0  0  0  0  0  0  0  0  0  0  0  0
  138.4210   80.8670  224.5150 C   0  0  0  0  0  0  0  0  0  0  0  0
  138.6582   80.6681  225.5705 H   0  0  0  0  0  0  0  0  0  0  0  0
  138.5379   81.9412  224.3091 H   0  0  0  0  0  0  0  0  0  0  0  0
  137.3835   80.5650  224.3091 H   0  0  0  0  0  0  0  0  0  0  0  0
  1  2  1  0
  2  3  2  0
  3  4  1  0
  4  5  1  0
  3  6  1  0
  6  7  1  0
  6  8  1  0
  6  9  1  0
  9 10  1  0
 10 11  1  0
 11 12  1  0
 11 13  1  0
 11 14  1  0
 14 15  1  0
 15 16  1  0
 15 17  1  0
 15 18  1  0
 18 19  1  0
 18 20  1  0
 18 21  1  0
 21 22  1  0
 21 23  1  0
 23 24  1  0
 23 25  1  0
 23 26  1  0
 21 27  1  0
 27 28  1  0
 27 29  1  0
 27 30  1  0
 30 31  1  0
 30 32  1  0
 10 33  2  0
 33 34  1  0
 34 35  2  0
 35 36  1  0
 36 37  2  0
 36 38  1  0
 38 39  1  0
 39 40  1  0
 39 41  1  0
 39 42  1  0
 38 43  1  0
 43 44  2  0
 43 45  1  0
 45 46  1  0
 46 47  1  0
 46 48  1  0
 46 49  1  0
 35  9  1  0
 30 14  1  0
 45 34  1  0
M  END
>  <UniqueID>  (65) 
16

>  <SMILES>  (65) 
[H]/N=C(\O)Cn1c(CN2CCC(C)CC2)nc2c1c(=O)n(C)c(=O)n2C

>  <Energy>  (65) 
97.78650455958997

>  <Genealogy>  (65) 
CC1CCN(Cc2nc3c(c(=O)n(C)c(=O)n3C)n2CC(=N)O)CC1 (tautomer)
[H]/N=C(\O)Cn1c(CN2CCC(C)CC2)nc2c1c(=O)n(C)c(=O)n2C (cis-trans isomerization)
[H]/N=C(\O)Cn1c(CN2CCC(C)CC2)nc2c1c(=O)n(C)c(=O)n2C (3D coordinates assigned)
[H]/N=C(\O)Cn1c(CN2CCC(C)CC2)nc2c1c(=O)n(C)c(=O)n2C (nonaromatic ring conformer: 97.78650455958997 kcal/mol)

>  <smiles>  (65) 
CC1CCN(Cc2nc3c(c(=O)n(C)c(=O)n3C)n2CC(N)=O)CC1

>  <score_type>  (65) 
oracle

>  <origin>  (65) 
autodockgpu

>  <m_score__min__energy>  (65) 
-5.3200000000000003

>  <m_primary>  (65) 
energy

>  <meeko>  (65) 
{"free_energy": -4.99, "intermolecular_energy": -6.78, "internal_energy": -2.3, "cluster_size": 5, "cluster_id": 3, "rank_in_cluster": 3}

>  <energy>  (65) 
-5.21

>  <cluster_rmsd>  (65) 
0.93

>  <rmsd>  (65) 
271.45

>  <cluster>  (65) 
1

$$$$
IQOSOXOZFSRASN-DESYHMSQNA-N
     RDKit          3D

 49 51  0  0  0  0  0  0  0  0999 V2000
  141.5910   76.4470  221.9660 H   0  0  0  0  0  0  0  0  0  0  0  0
  141.4580   75.4110  221.9620 N   0  0  0  0  0  0  0  0  0  0  0  0
  140.2870   74.8810  221.8050 C   0  0  0  0  0  0  0  0  0  0  0  0
  139.9060   73.7690  222.5530 O   0  0  0  0  0  0  0  0  0  0  0  0
  138.9700   73.6810  222.9300 H   0  0  0  0  0  0  0  0  0  0  0  0
  139.3300   75.4720  220.8180 C   0  0  0  0  0  0  0  0  0  0  0  0
  139.8891   76.0742  220.0867 H   0  0  0  0  0  0  0  0  0  0  0  0
  138.7957   74.6576  220.3068 H   0  0  0  0  0  0  0  0  0  0  0  0
  138.3540   76.3260  221.5020 N   0  0  0  0  0  0  0  0  0  0  0  0
  138.3890   77.6810  221.6480 C   0  0  0  0  0  0  0  0  0  0  0  0
  139.4280   78.5760  221.0350 C   0  0  0  0  0  0  0  0  0  0  0  0
  139.5544   78.3113  219.9748 H   0  0  0  0  0  0  0  0  0  0  0  0
  139.0976   79.6212  221.1271 H   0  0  0  0  0  0  0  0  0  0  0  0
  140.7200   78.4190  221.7330 N   0  0  0  0  0  0  0  0  0  0  0  0
  141.8080   79.2020  221.0850 C   0  0  0  0  0  0  0  0  0  0  0  0
  142.7117   78.5765  221.0397 H   0  0  0  0  0  0  0  0  0  0  0  0
  141.4576   79.4874  220.0821 H   0  0  0  0  0  0  0  0  0  0  0  0
  142.1440   80.4940  221.8410 C   0  0  0  0  0  0  0  0  0  0  0  0
  142.9463   81.0249  221.3078 H   0  0  0  0  0  0  0  0  0  0  0  0
  141.2387   81.1168  221.8919 H   0  0  0  0  0  0  0  0  0  0  0  0
  142.6120   80.1850  223.2810 C   0  0  0  0  0  0  0  0  0  0  0  0
  143.6871   79.9554  223.2420 H   0  0  0  0  0  0  0  0  0  0  0  0
  142.4080   81.4100  224.1830 C   0  0  0  0  0  0  0  0  0  0  0  0
  142.4594   81.1015  225.2376 H   0  0  0  0  0  0  0  0  0  0  0  0
  143.1952   82.1508  223.9789 H   0  0  0  0  0  0  0  0  0  0  0  0
  141.4233   81.8557  223.9789 H   0  0  0  0  0  0  0  0  0  0  0  0
  141.9110   78.9330  223.8640 C   0  0  0  0  0  0  0  0  0  0  0  0
  142.5569   78.0560  223.7099 H   0  0  0  0  0  0  0  0  0  0  0  0
  141.7339   79.1013  224.9365 H   0  0  0  0  0  0  0  0  0  0  0  0
  140.5610   78.6850  223.1830 C   0  0  0  0  0  0  0  0  0  0  0  0
  140.0781   77.8162  223.6542 H   0  0  0  0  0  0  0  0  0  0  0  0
  139.9458   79.5892  223.3008 H   0  0  0  0  0  0  0  0  0  0  0  0
  137.3620   78.1710  222.3900 N   0  0  0  0  0  0  0  0  0  0  0  0
  136.6780   77.0600  222.7240 C   0  0  0  0  0  0  0  0  0  0  0  0
  137.2630   75.9570  222.2030 C   0  0  0  0  0  0  0  0  0  0  0  0
  136.7090   74.6990  222.4280 C   0  0  0  0  0  0  0  0  0  0  0  0
  137.2370   73.6660  221.9360 O   0  0  0  0  0  0  0  0  0  0  0  0
  135.5670   74.6170  223.1920 N   0  0  0  0  0  0  0  0  0  0  0  0
  134.9310   73.3070  223.4190 C   0  0  0  0  0  0  0  0  0  0  0  0
  134.8425   73.1248  224.5002 H   0  0  0  0  0  0  0  0  0  0  0  0
  133.9299   73.3015  222.9631 H   0  0  0  0  0  0  0  0  0  0  0  0
  135.5458   72.5170  222.9631 H   0  0  0  0  0  0  0  0  0  0  0  0
  134.9700   75.7660  223.6820 C   0  0  0  0  0  0  0  0  0  0  0  0
  133.8840   75.6850  224.3240 O   0  0  0  0  0  0  0  0  0  0  0  0
  135.5440   77.0010  223.4750 N   0  0  0  0  0  0  0  0  0  0  0  0
  134.9090   78.2280  223.9750 C   0  0  0  0  0  0  0  0  0  0  0  0
  134.9127   78.2208  225.0750 H   0  0  0  0  0  0  0  0  0  0  0  0
  135.4671   79.1037  223.6122 H   0  0  0  0  0  0  0  0  0  0  0  0
  133.8718   78.2781  223.6122 H   0  0  0  0  0  0  0  0  0  0  0  0
  1  2  1  0
  2  3  2  0
  3  4  1  0
  4  5  1  0
  3  6  1  0
  6  7  1  0
  6  8  1  0
  6  9  1  0
  9 10  1  0
 10 11  1  0
 11 12  1  0
 11 13  1  0
 11 14  1  0
 14 15  1  0
 15 16  1  0
 15 17  1  0
 15 18  1  0
 18 19  1  0
 18 20  1  0
 18 21  1  0
 21 22  1  0
 21 23  1  0
 23 24  1  0
 23 25  1  0
 23 26  1  0
 21 27  1  0
 27 28  1  0
 27 29  1  0
 27 30  1  0
 30 31  1  0
 30 32  1  0
 10 33  2  0
 33 34  1  0
 34 35  2  0
 35 36  1  0
 36 37  2  0
 36 38  1  0
 38 39  1  0
 39 40  1  0
 39 41  1  0
 39 42  1  0
 38 43  1  0
 43 44  2  0
 43 45  1  0
 45 46  1  0
 46 47  1  0
 46 48  1  0
 46 49  1  0
 35  9  1  0
 30 14  1  0
 45 34  1  0
M  END
>  <UniqueID>  (66) 
16

>  <SMILES>  (66) 
[H]/N=C(\O)Cn1c(CN2CCC(C)CC2)nc2c1c(=O)n(C)c(=O)n2C

>  <Energy>  (66) 
97.78650455958997

>  <Genealogy>  (66) 
CC1CCN(Cc2nc3c(c(=O)n(C)c(=O)n3C)n2CC(=N)O)CC1 (tautomer)
[H]/N=C(\O)Cn1c(CN2CCC(C)CC2)nc2c1c(=O)n(C)c(=O)n2C (cis-trans isomerization)
[H]/N=C(\O)Cn1c(CN2CCC(C)CC2)nc2c1c(=O)n(C)c(=O)n2C (3D coordinates assigned)
[H]/N=C(\O)Cn1c(CN2CCC(C)CC2)nc2c1c(=O)n(C)c(=O)n2C (nonaromatic ring conformer: 97.78650455958997 kcal/mol)

>  <smiles>  (66) 
CC1CCN(Cc2nc3c(c(=O)n(C)c(=O)n3C)n2CC(N)=O)CC1

>  <score_type>  (66) 
oracle

>  <origin>  (66) 
autodockgpu

>  <m_score__min__energy>  (66) 
-5.3200000000000003

>  <m_primary>  (66) 
energy

>  <meeko>  (66) 
{"free_energy": -5.2, "intermolecular_energy": -6.99, "internal_energy": -2.41, "cluster_size": 14, "cluster_id": 1, "rank_in_cluster": 9}

>  <energy>  (66) 
-5.2

>  <cluster_rmsd>  (66) 
0.72

>  <rmsd>  (66) 
271.46

>  <cluster>  (66) 
1

$$$$
IQOSOXOZFSRASN-DESYHMSQNA-N
     RDKit          3D

 49 51  0  0  0  0  0  0  0  0999 V2000
  138.4650   74.2470  222.8270 H   0  0  0  0  0  0  0  0  0  0  0  0
  139.3660   74.0300  222.3450 N   0  0  0  0  0  0  0  0  0  0  0  0
  140.0850   74.9620  221.8050 C   0  0  0  0  0  0  0  0  0  0  0  0
  141.4700   74.9660  221.9540 O   0  0  0  0  0  0  0  0  0  0  0  0
  141.9920   75.8300  222.0350 H   0  0  0  0  0  0  0  0  0  0  0  0
  139.4240   76.0420  221.0060 C   0  0  0  0  0  0  0  0  0  0  0  0
  140.1405   76.4407  220.2728 H   0  0  0  0  0  0  0  0  0  0  0  0
  138.5500   75.6194  220.4887 H   0  0  0  0  0  0  0  0  0  0  0  0
  138.9780   77.1270  221.8850 N   0  0  0  0  0  0  0  0  0  0  0  0
  137.7170   77.3600  222.3480 C   0  0  0  0  0  0  0  0  0  0  0  0
  136.5400   76.4610  222.1000 C   0  0  0  0  0  0  0  0  0  0  0  0
  135.6111   77.0304  222.2512 H   0  0  0  0  0  0  0  0  0  0  0  0
  136.5900   76.0854  221.0673 H   0  0  0  0  0  0  0  0  0  0  0  0
  136.5630   75.3130  223.0280 N   0  0  0  0  0  0  0  0  0  0  0  0
  135.8540   75.6070  224.3040 C   0  0  0  0  0  0  0  0  0  0  0  0
  136.4568   75.2191  225.1383 H   0  0  0  0  0  0  0  0  0  0  0  0
  135.7239   76.6975  224.3667 H   0  0  0  0  0  0  0  0  0  0  0  0
  134.4590   74.9710  224.3700 C   0  0  0  0  0  0  0  0  0  0  0  0
  133.9897   75.2315  225.3301 H   0  0  0  0  0  0  0  0  0  0  0  0
  133.8585   75.3542  223.5318 H   0  0  0  0  0  0  0  0  0  0  0  0
  134.5470   73.4330  224.2510 C   0  0  0  0  0  0  0  0  0  0  0  0
  134.7524   73.0307  225.2540 H   0  0  0  0  0  0  0  0  0  0  0  0
  133.2120   72.8580  223.7610 C   0  0  0  0  0  0  0  0  0  0  0  0
  132.5886   72.5895  224.6266 H   0  0  0  0  0  0  0  0  0  0  0  0
  132.6897   73.6110  223.1525 H   0  0  0  0  0  0  0  0  0  0  0  0
  133.4003   71.9612  223.1525 H   0  0  0  0  0  0  0  0  0  0  0  0
  135.7210   72.9860  223.3440 C   0  0  0  0  0  0  0  0  0  0  0  0
  136.5944   72.7596  223.9731 H   0  0  0  0  0  0  0  0  0  0  0  0
  135.4067   72.0945  222.7815 H   0  0  0  0  0  0  0  0  0  0  0  0
  136.0970   74.0840  222.3430 C   0  0  0  0  0  0  0  0  0  0  0  0
  136.9013   73.7122  221.6912 H   0  0  0  0  0  0  0  0  0  0  0  0
  135.2006   74.3363  221.7575 H   0  0  0  0  0  0  0  0  0  0  0  0
  137.6180   78.4870  223.0990 N   0  0  0  0  0  0  0  0  0  0  0  0
  138.8740   78.9730  223.0780 C   0  0  0  0  0  0  0  0  0  0  0  0
  139.6900   78.1710  222.3550 C   0  0  0  0  0  0  0  0  0  0  0  0
  141.0370   78.4920  222.2100 C   0  0  0  0  0  0  0  0  0  0  0  0
  141.8090   77.7460  221.5520 O   0  0  0  0  0  0  0  0  0  0  0  0
  141.5030   79.6380  222.8140 N   0  0  0  0  0  0  0  0  0  0  0  0
  142.9300   79.9890  222.7160 C   0  0  0  0  0  0  0  0  0  0  0  0
  143.3523   80.0929  223.7264 H   0  0  0  0  0  0  0  0  0  0  0  0
  143.4663   79.1960  222.1742 H   0  0  0  0  0  0  0  0  0  0  0  0
  143.0372   80.9403  222.1742 H   0  0  0  0  0  0  0  0  0  0  0  0
  140.6530   80.4200  223.5790 C   0  0  0  0  0  0  0  0  0  0  0  0
  141.1060   81.4320  224.1850 O   0  0  0  0  0  0  0  0  0  0  0  0
  139.3160   80.1050  223.6900 N   0  0  0  0  0  0  0  0  0  0  0  0
  138.4100   80.9170  224.5130 C   0  0  0  0  0  0  0  0  0  0  0  0
  138.6166   80.7319  225.5775 H   0  0  0  0  0  0  0  0  0  0  0  0
  138.5669   81.9824  224.2889 H   0  0  0  0  0  0  0  0  0  0  0  0
  137.3680   80.6448  224.2889 H   0  0  0  0  0  0  0  0  0  0  0  0
  1  2  1  0
  2  3  2  0
  3  4  1  0
  4  5  1  0
  3  6  1  0
  6  7  1  0
  6  8  1  0
  6  9  1  0
  9 10  1  0
 10 11  1  0
 11 12  1  0
 11 13  1  0
 11 14  1  0
 14 15  1  0
 15 16  1  0
 15 17  1  0
 15 18  1  0
 18 19  1  0
 18 20  1  0
 18 21  1  0
 21 22  1  0
 21 23  1  0
 23 24  1  0
 23 25  1  0
 23 26  1  0
 21 27  1  0
 27 28  1  0
 27 29  1  0
 27 30  1  0
 30 31  1  0
 30 32  1  0
 10 33  2  0
 33 34  1  0
 34 35  2  0
 35 36  1  0
 36 37  2  0
 36 38  1  0
 38 39  1  0
 39 40  1  0
 39 41  1  0
 39 42  1  0
 38 43  1  0
 43 44  2  0
 43 45  1  0
 45 46  1  0
 46 47  1  0
 46 48  1  0
 46 49  1  0
 35  9  1  0
 30 14  1  0
 45 34  1  0
M  END
>  <UniqueID>  (67) 
16

>  <SMILES>  (67) 
[H]/N=C(\O)Cn1c(CN2CCC(C)CC2)nc2c1c(=O)n(C)c(=O)n2C

>  <Energy>  (67) 
97.78650455958997

>  <Genealogy>  (67) 
CC1CCN(Cc2nc3c(c(=O)n(C)c(=O)n3C)n2CC(=N)O)CC1 (tautomer)
[H]/N=C(\O)Cn1c(CN2CCC(C)CC2)nc2c1c(=O)n(C)c(=O)n2C (cis-trans isomerization)
[H]/N=C(\O)Cn1c(CN2CCC(C)CC2)nc2c1c(=O)n(C)c(=O)n2C (3D coordinates assigned)
[H]/N=C(\O)Cn1c(CN2CCC(C)CC2)nc2c1c(=O)n(C)c(=O)n2C (nonaromatic ring conformer: 97.78650455958997 kcal/mol)

>  <smiles>  (67) 
CC1CCN(Cc2nc3c(c(=O)n(C)c(=O)n3C)n2CC(N)=O)CC1

>  <score_type>  (67) 
oracle

>  <origin>  (67) 
autodockgpu

>  <m_score__min__energy>  (67) 
-5.3200000000000003

>  <m_primary>  (67) 
energy

>  <meeko>  (67) 
{"free_energy": -4.99, "intermolecular_energy": -6.78, "internal_energy": -2.31, "cluster_size": 5, "cluster_id": 3, "rank_in_cluster": 4}

>  <energy>  (67) 
-5.2

>  <cluster_rmsd>  (67) 
0.66

>  <rmsd>  (67) 
271.49

>  <cluster>  (67) 
1

$$$$
IQOSOXOZFSRASN-DESYHMSQNA-N
     RDKit          3D

 49 51  0  0  0  0  0  0  0  0999 V2000
  141.5890   76.3760  221.9670 H   0  0  0  0  0  0  0  0  0  0  0  0
  141.4530   75.3440  221.8760 N   0  0  0  0  0  0  0  0  0  0  0  0
  140.2710   74.8230  221.7940 C   0  0  0  0  0  0  0  0  0  0  0  0
  139.9040   73.7630  222.6200 O   0  0  0  0  0  0  0  0  0  0  0  0
  138.9710   73.6930  223.0090 H   0  0  0  0  0  0  0  0  0  0  0  0
  139.2840   75.3710  220.8110 C   0  0  0  0  0  0  0  0  0  0  0  0
  139.8217   75.9295  220.0306 H   0  0  0  0  0  0  0  0  0  0  0  0
  138.7264   74.5358  220.3621 H   0  0  0  0  0  0  0  0  0  0  0  0
  138.3380   76.2680  221.4820 N   0  0  0  0  0  0  0  0  0  0  0  0
  138.4080   77.6250  221.5870 C   0  0  0  0  0  0  0  0  0  0  0  0
  139.4590   78.4760  220.9340 C   0  0  0  0  0  0  0  0  0  0  0  0
  139.5966   78.1471  219.8934 H   0  0  0  0  0  0  0  0  0  0  0  0
  139.1335   79.5264  220.9585 H   0  0  0  0  0  0  0  0  0  0  0  0
  140.7410   78.3550  221.6560 N   0  0  0  0  0  0  0  0  0  0  0  0
  141.8200   79.1680  221.0270 C   0  0  0  0  0  0  0  0  0  0  0  0
  142.7413   78.5676  220.9995 H   0  0  0  0  0  0  0  0  0  0  0  0
  141.4807   79.4429  220.0174 H   0  0  0  0  0  0  0  0  0  0  0  0
  142.1060   80.4690  221.7870 C   0  0  0  0  0  0  0  0  0  0  0  0
  142.9035   81.0211  221.2682 H   0  0  0  0  0  0  0  0  0  0  0  0
  141.1830   81.0665  221.8197 H   0  0  0  0  0  0  0  0  0  0  0  0
  142.5550   80.1750  223.2370 C   0  0  0  0  0  0  0  0  0  0  0  0
  143.6367   79.9762  223.2191 H   0  0  0  0  0  0  0  0  0  0  0  0
  142.3000   81.3940  224.1330 C   0  0  0  0  0  0  0  0  0  0  0  0
  142.3631   81.0925  225.1890 H   0  0  0  0  0  0  0  0  0  0  0  0
  143.0562   82.1656  223.9262 H   0  0  0  0  0  0  0  0  0  0  0  0
  141.2979   81.7979  223.9262 H   0  0  0  0  0  0  0  0  0  0  0  0
  141.8780   78.9040  223.8080 C   0  0  0  0  0  0  0  0  0  0  0  0
  142.5504   78.0451  223.6661 H   0  0  0  0  0  0  0  0  0  0  0  0
  141.6770   79.0674  224.8771 H   0  0  0  0  0  0  0  0  0  0  0  0
  140.5480   78.6190  223.1030 C   0  0  0  0  0  0  0  0  0  0  0  0
  140.0799   77.7383  223.5670 H   0  0  0  0  0  0  0  0  0  0  0  0
  139.9067   79.5066  223.2076 H   0  0  0  0  0  0  0  0  0  0  0  0
  137.4030   78.1610  222.3270 N   0  0  0  0  0  0  0  0  0  0  0  0
  136.6970   77.0780  222.7030 C   0  0  0  0  0  0  0  0  0  0  0  0
  137.2490   75.9460  222.2080 C   0  0  0  0  0  0  0  0  0  0  0  0
  136.6680   74.7090  222.4780 C   0  0  0  0  0  0  0  0  0  0  0  0
  137.1640   73.6500  222.0090 O   0  0  0  0  0  0  0  0  0  0  0  0
  135.5350   74.6770  223.2590 N   0  0  0  0  0  0  0  0  0  0  0  0
  134.8710   73.3910  223.5330 C   0  0  0  0  0  0  0  0  0  0  0  0
  134.7942   73.2423  224.6202 H   0  0  0  0  0  0  0  0  0  0  0  0
  133.8634   73.3972  223.0917 H   0  0  0  0  0  0  0  0  0  0  0  0
  135.4595   72.5731  223.0917 H   0  0  0  0  0  0  0  0  0  0  0  0
  134.9720   75.8550  223.7220 C   0  0  0  0  0  0  0  0  0  0  0  0
  133.8940   75.8180  224.3800 O   0  0  0  0  0  0  0  0  0  0  0  0
  135.5730   77.0690  223.4700 N   0  0  0  0  0  0  0  0  0  0  0  0
  134.9750   78.3250  223.9410 C   0  0  0  0  0  0  0  0  0  0  0  0
  134.9687   78.3383  225.0409 H   0  0  0  0  0  0  0  0  0  0  0  0
  135.5651   79.1748  223.5674 H   0  0  0  0  0  0  0  0  0  0  0  0
  133.9433   78.4026  223.5674 H   0  0  0  0  0  0  0  0  0  0  0  0
  1  2  1  0
  2  3  2  0
  3  4  1  0
  4  5  1  0
  3  6  1  0
  6  7  1  0
  6  8  1  0
  6  9  1  0
  9 10  1  0
 10 11  1  0
 11 12  1  0
 11 13  1  0
 11 14  1  0
 14 15  1  0
 15 16  1  0
 15 17  1  0
 15 18  1  0
 18 19  1  0
 18 20  1  0
 18 21  1  0
 21 22  1  0
 21 23  1  0
 23 24  1  0
 23 25  1  0
 23 26  1  0
 21 27  1  0
 27 28  1  0
 27 29  1  0
 27 30  1  0
 30 31  1  0
 30 32  1  0
 10 33  2  0
 33 34  1  0
 34 35  2  0
 35 36  1  0
 36 37  2  0
 36 38  1  0
 38 39  1  0
 39 40  1  0
 39 41  1  0
 39 42  1  0
 38 43  1  0
 43 44  2  0
 43 45  1  0
 45 46  1  0
 46 47  1  0
 46 48  1  0
 46 49  1  0
 35  9  1  0
 30 14  1  0
 45 34  1  0
M  END
>  <UniqueID>  (68) 
16

>  <SMILES>  (68) 
[H]/N=C(\O)Cn1c(CN2CCC(C)CC2)nc2c1c(=O)n(C)c(=O)n2C

>  <Energy>  (68) 
97.78650455958997

>  <Genealogy>  (68) 
CC1CCN(Cc2nc3c(c(=O)n(C)c(=O)n3C)n2CC(=N)O)CC1 (tautomer)
[H]/N=C(\O)Cn1c(CN2CCC(C)CC2)nc2c1c(=O)n(C)c(=O)n2C (cis-trans isomerization)
[H]/N=C(\O)Cn1c(CN2CCC(C)CC2)nc2c1c(=O)n(C)c(=O)n2C (3D coordinates assigned)
[H]/N=C(\O)Cn1c(CN2CCC(C)CC2)nc2c1c(=O)n(C)c(=O)n2C (nonaromatic ring conformer: 97.78650455958997 kcal/mol)

>  <smiles>  (68) 
CC1CCN(Cc2nc3c(c(=O)n(C)c(=O)n3C)n2CC(N)=O)CC1

>  <score_type>  (68) 
oracle

>  <origin>  (68) 
autodockgpu

>  <m_score__min__energy>  (68) 
-5.3200000000000003

>  <m_primary>  (68) 
energy

>  <meeko>  (68) 
{"free_energy": -5.22, "intermolecular_energy": -7.01, "internal_energy": -2.4, "cluster_size": 14, "cluster_id": 1, "rank_in_cluster": 2}

>  <energy>  (68) 
-5.2

>  <cluster_rmsd>  (68) 
0.87

>  <rmsd>  (68) 
271.47

>  <cluster>  (68) 
1

$$$$
IQOSOXOZFSRASN-DESYHMSQNA-N
     RDKit          3D

 49 51  0  0  0  0  0  0  0  0999 V2000
  142.1620   75.7840  221.7590 H   0  0  0  0  0  0  0  0  0  0  0  0
  141.5560   74.9630  221.5350 N   0  0  0  0  0  0  0  0  0  0  0  0
  140.2640   75.0400  221.5960 C   0  0  0  0  0  0  0  0  0  0  0  0
  139.5350   74.1300  222.3580 O   0  0  0  0  0  0  0  0  0  0  0  0
  138.6450   74.3800  222.7720 H   0  0  0  0  0  0  0  0  0  0  0  0
  139.5480   76.1230  220.8510 C   0  0  0  0  0  0  0  0  0  0  0  0
  140.2348   76.5758  220.1207 H   0  0  0  0  0  0  0  0  0  0  0  0
  138.6804   75.6872  220.3338 H   0  0  0  0  0  0  0  0  0  0  0  0
  139.0790   77.1570  221.7790 N   0  0  0  0  0  0  0  0  0  0  0  0
  137.8190   77.3250  222.2730 C   0  0  0  0  0  0  0  0  0  0  0  0
  136.6710   76.3930  222.0090 C   0  0  0  0  0  0  0  0  0  0  0  0
  135.7257   76.9484  222.0976 H   0  0  0  0  0  0  0  0  0  0  0  0
  136.7735   75.9796  220.9948 H   0  0  0  0  0  0  0  0  0  0  0  0
  136.6750   75.2820  222.9810 N   0  0  0  0  0  0  0  0  0  0  0  0
  135.9370   75.6230  224.2290 C   0  0  0  0  0  0  0  0  0  0  0  0
  136.5213   75.2680  225.0908 H   0  0  0  0  0  0  0  0  0  0  0  0
  135.8045   76.7148  224.2471 H   0  0  0  0  0  0  0  0  0  0  0  0
  134.5420   74.9880  224.2880 C   0  0  0  0  0  0  0  0  0  0  0  0
  134.0506   75.2847  225.2263 H   0  0  0  0  0  0  0  0  0  0  0  0
  133.9600   75.3372  223.4224 H   0  0  0  0  0  0  0  0  0  0  0  0
  134.6350   73.4460  224.2310 C   0  0  0  0  0  0  0  0  0  0  0  0
  134.8185   73.0825  225.2529 H   0  0  0  0  0  0  0  0  0  0  0  0
  133.3120   72.8500  223.7340 C   0  0  0  0  0  0  0  0  0  0  0  0
  132.6893   72.5695  224.5963 H   0  0  0  0  0  0  0  0  0  0  0  0
  132.7800   73.5954  223.1246 H   0  0  0  0  0  0  0  0  0  0  0  0
  133.5178   71.9576  223.1246 H   0  0  0  0  0  0  0  0  0  0  0  0
  135.8290   72.9680  223.3690 C   0  0  0  0  0  0  0  0  0  0  0  0
  136.6885   72.7689  224.0260 H   0  0  0  0  0  0  0  0  0  0  0  0
  135.5284   72.0546  222.8347 H   0  0  0  0  0  0  0  0  0  0  0  0
  136.2260   74.0260  222.3340 C   0  0  0  0  0  0  0  0  0  0  0  0
  137.0453   73.6305  221.7156 H   0  0  0  0  0  0  0  0  0  0  0  0
  135.3430   74.2530  221.7185 H   0  0  0  0  0  0  0  0  0  0  0  0
  137.6930   78.4180  223.0690 N   0  0  0  0  0  0  0  0  0  0  0  0
  138.9300   78.9500  223.0460 C   0  0  0  0  0  0  0  0  0  0  0  0
  139.7610   78.2070  222.2780 C   0  0  0  0  0  0  0  0  0  0  0  0
  141.0930   78.5830  222.1240 C   0  0  0  0  0  0  0  0  0  0  0  0
  141.8800   77.8920  221.4230 O   0  0  0  0  0  0  0  0  0  0  0  0
  141.5280   79.7210  222.7640 N   0  0  0  0  0  0  0  0  0  0  0  0
  142.9400   80.1280  222.6560 C   0  0  0  0  0  0  0  0  0  0  0  0
  143.3644   80.2503  223.6634 H   0  0  0  0  0  0  0  0  0  0  0  0
  143.5036   79.3557  222.1120 H   0  0  0  0  0  0  0  0  0  0  0  0
  143.0061   81.0818  222.1120 H   0  0  0  0  0  0  0  0  0  0  0  0
  140.6640   80.4410  223.5730 C   0  0  0  0  0  0  0  0  0  0  0  0
  141.0920   81.4450  224.2100 O   0  0  0  0  0  0  0  0  0  0  0  0
  139.3420   80.0730  223.6940 N   0  0  0  0  0  0  0  0  0  0  0  0
  138.4220   80.8190  224.5630 C   0  0  0  0  0  0  0  0  0  0  0  0
  138.6689   80.6188  225.6161 H   0  0  0  0  0  0  0  0  0  0  0  0
  138.5198   81.8960  224.3618 H   0  0  0  0  0  0  0  0  0  0  0  0
  137.3884   80.5008  224.3618 H   0  0  0  0  0  0  0  0  0  0  0  0
  1  2  1  0
  2  3  2  0
  3  4  1  0
  4  5  1  0
  3  6  1  0
  6  7  1  0
  6  8  1  0
  6  9  1  0
  9 10  1  0
 10 11  1  0
 11 12  1  0
 11 13  1  0
 11 14  1  0
 14 15  1  0
 15 16  1  0
 15 17  1  0
 15 18  1  0
 18 19  1  0
 18 20  1  0
 18 21  1  0
 21 22  1  0
 21 23  1  0
 23 24  1  0
 23 25  1  0
 23 26  1  0
 21 27  1  0
 27 28  1  0
 27 29  1  0
 27 30  1  0
 30 31  1  0
 30 32  1  0
 10 33  2  0
 33 34  1  0
 34 35  2  0
 35 36  1  0
 36 37  2  0
 36 38  1  0
 38 39  1  0
 39 40  1  0
 39 41  1  0
 39 42  1  0
 38 43  1  0
 43 44  2  0
 43 45  1  0
 45 46  1  0
 46 47  1  0
 46 48  1  0
 46 49  1  0
 35  9  1  0
 30 14  1  0
 45 34  1  0
M  END
>  <UniqueID>  (69) 
16

>  <SMILES>  (69) 
[H]/N=C(\O)Cn1c(CN2CCC(C)CC2)nc2c1c(=O)n(C)c(=O)n2C

>  <Energy>  (69) 
97.78650455958997

>  <Genealogy>  (69) 
CC1CCN(Cc2nc3c(c(=O)n(C)c(=O)n3C)n2CC(=N)O)CC1 (tautomer)
[H]/N=C(\O)Cn1c(CN2CCC(C)CC2)nc2c1c(=O)n(C)c(=O)n2C (cis-trans isomerization)
[H]/N=C(\O)Cn1c(CN2CCC(C)CC2)nc2c1c(=O)n(C)c(=O)n2C (3D coordinates assigned)
[H]/N=C(\O)Cn1c(CN2CCC(C)CC2)nc2c1c(=O)n(C)c(=O)n2C (nonaromatic ring conformer: 97.78650455958997 kcal/mol)

>  <smiles>  (69) 
CC1CCN(Cc2nc3c(c(=O)n(C)c(=O)n3C)n2CC(N)=O)CC1

>  <score_type>  (69) 
oracle

>  <origin>  (69) 
autodockgpu

>  <m_score__min__energy>  (69) 
-5.3200000000000003

>  <m_primary>  (69) 
energy

>  <meeko>  (69) 
{"free_energy": -5.0, "intermolecular_energy": -6.79, "internal_energy": -2.3, "cluster_size": 5, "cluster_id": 3, "rank_in_cluster": 1}

>  <energy>  (69) 
-5.2

>  <cluster_rmsd>  (69) 
0.69

>  <rmsd>  (69) 
271.5

>  <cluster>  (69) 
1

$$$$
IQOSOXOZFSRASN-DESYHMSQNA-N
     RDKit          3D

 49 51  0  0  0  0  0  0  0  0999 V2000
  141.6010   76.4100  221.9660 H   0  0  0  0  0  0  0  0  0  0  0  0
  141.4660   75.3850  221.8130 N   0  0  0  0  0  0  0  0  0  0  0  0
  140.2840   74.8700  221.6940 C   0  0  0  0  0  0  0  0  0  0  0  0
  139.9110   73.7670  222.4590 O   0  0  0  0  0  0  0  0  0  0  0  0
  138.9810   73.6850  222.8520 H   0  0  0  0  0  0  0  0  0  0  0  0
  139.3040   75.4710  220.7350 C   0  0  0  0  0  0  0  0  0  0  0  0
  139.8449   76.0905  220.0045 H   0  0  0  0  0  0  0  0  0  0  0  0
  138.7667   74.6615  220.2192 H   0  0  0  0  0  0  0  0  0  0  0  0
  138.3340   76.3050  221.4520 N   0  0  0  0  0  0  0  0  0  0  0  0
  138.3720   77.6550  221.6370 C   0  0  0  0  0  0  0  0  0  0  0  0
  139.4060   78.5670  221.0420 C   0  0  0  0  0  0  0  0  0  0  0  0
  139.5170   78.3394  219.9716 H   0  0  0  0  0  0  0  0  0  0  0  0
  139.0811   79.6094  221.1754 H   0  0  0  0  0  0  0  0  0  0  0  0
  140.7060   78.3810  221.7160 N   0  0  0  0  0  0  0  0  0  0  0  0
  141.7980   79.1500  221.0570 C   0  0  0  0  0  0  0  0  0  0  0  0
  142.6894   78.5088  220.9922 H   0  0  0  0  0  0  0  0  0  0  0  0
  141.4372   79.4501  220.0622 H   0  0  0  0  0  0  0  0  0  0  0  0
  142.1690   80.4290  221.8180 C   0  0  0  0  0  0  0  0  0  0  0  0
  142.9714   80.9507  221.2758 H   0  0  0  0  0  0  0  0  0  0  0  0
  141.2757   81.0669  221.8895 H   0  0  0  0  0  0  0  0  0  0  0  0
  142.6560   80.0990  223.2480 C   0  0  0  0  0  0  0  0  0  0  0  0
  143.7261   79.8511  223.1900 H   0  0  0  0  0  0  0  0  0  0  0  0
  142.4890   81.3190  224.1630 C   0  0  0  0  0  0  0  0  0  0  0  0
  142.5330   80.9977  225.2141 H   0  0  0  0  0  0  0  0  0  0  0  0
  143.2970   82.0388  223.9655 H   0  0  0  0  0  0  0  0  0  0  0  0
  141.5173   81.7952  223.9655 H   0  0  0  0  0  0  0  0  0  0  0  0
  141.9420   78.8540  223.8310 C   0  0  0  0  0  0  0  0  0  0  0  0
  142.5690   77.9670  223.6574 H   0  0  0  0  0  0  0  0  0  0  0  0
  141.7862   79.0150  224.9079 H   0  0  0  0  0  0  0  0  0  0  0  0
  140.5760   78.6370  223.1710 C   0  0  0  0  0  0  0  0  0  0  0  0
  140.0850   77.7731  223.6428 H   0  0  0  0  0  0  0  0  0  0  0  0
  139.9796   79.5512  223.3071 H   0  0  0  0  0  0  0  0  0  0  0  0
  137.3500   78.1230  222.4000 N   0  0  0  0  0  0  0  0  0  0  0  0
  136.6680   77.0040  222.7080 C   0  0  0  0  0  0  0  0  0  0  0  0
  137.2490   75.9160  222.1500 C   0  0  0  0  0  0  0  0  0  0  0  0
  136.6960   74.6520  222.3430 C   0  0  0  0  0  0  0  0  0  0  0  0
  137.2190   73.6340  221.8170 O   0  0  0  0  0  0  0  0  0  0  0  0
  135.5600   74.5480  223.1140 N   0  0  0  0  0  0  0  0  0  0  0  0
  134.9250   73.2330  223.3070 C   0  0  0  0  0  0  0  0  0  0  0  0
  134.8260   73.0280  224.3832 H   0  0  0  0  0  0  0  0  0  0  0  0
  133.9286   73.2350  222.8410 H   0  0  0  0  0  0  0  0  0  0  0  0
  135.5462   72.4539  222.8410 H   0  0  0  0  0  0  0  0  0  0  0  0
  134.9670   75.6830  223.6420 C   0  0  0  0  0  0  0  0  0  0  0  0
  133.8870   75.5830  224.2890 O   0  0  0  0  0  0  0  0  0  0  0  0
  135.5410   76.9230  223.4660 N   0  0  0  0  0  0  0  0  0  0  0  0
  134.9110   78.1350  224.0060 C   0  0  0  0  0  0  0  0  0  0  0  0
  134.9296   78.0993  225.1053 H   0  0  0  0  0  0  0  0  0  0  0  0
  135.4627   79.0209  223.6586 H   0  0  0  0  0  0  0  0  0  0  0  0
  133.8689   78.1925  223.6586 H   0  0  0  0  0  0  0  0  0  0  0  0
  1  2  1  0
  2  3  2  0
  3  4  1  0
  4  5  1  0
  3  6  1  0
  6  7  1  0
  6  8  1  0
  6  9  1  0
  9 10  1  0
 10 11  1  0
 11 12  1  0
 11 13  1  0
 11 14  1  0
 14 15  1  0
 15 16  1  0
 15 17  1  0
 15 18  1  0
 18 19  1  0
 18 20  1  0
 18 21  1  0
 21 22  1  0
 21 23  1  0
 23 24  1  0
 23 25  1  0
 23 26  1  0
 21 27  1  0
 27 28  1  0
 27 29  1  0
 27 30  1  0
 30 31  1  0
 30 32  1  0
 10 33  2  0
 33 34  1  0
 34 35  2  0
 35 36  1  0
 36 37  2  0
 36 38  1  0
 38 39  1  0
 39 40  1  0
 39 41  1  0
 39 42  1  0
 38 43  1  0
 43 44  2  0
 43 45  1  0
 45 46  1  0
 46 47  1  0
 46 48  1  0
 46 49  1  0
 35  9  1  0
 30 14  1  0
 45 34  1  0
M  END
>  <UniqueID>  (70) 
16

>  <SMILES>  (70) 
[H]/N=C(\O)Cn1c(CN2CCC(C)CC2)nc2c1c(=O)n(C)c(=O)n2C

>  <Energy>  (70) 
97.78650455958997

>  <Genealogy>  (70) 
CC1CCN(Cc2nc3c(c(=O)n(C)c(=O)n3C)n2CC(=N)O)CC1 (tautomer)
[H]/N=C(\O)Cn1c(CN2CCC(C)CC2)nc2c1c(=O)n(C)c(=O)n2C (cis-trans isomerization)
[H]/N=C(\O)Cn1c(CN2CCC(C)CC2)nc2c1c(=O)n(C)c(=O)n2C (3D coordinates assigned)
[H]/N=C(\O)Cn1c(CN2CCC(C)CC2)nc2c1c(=O)n(C)c(=O)n2C (nonaromatic ring conformer: 97.78650455958997 kcal/mol)

>  <smiles>  (70) 
CC1CCN(Cc2nc3c(c(=O)n(C)c(=O)n3C)n2CC(N)=O)CC1

>  <score_type>  (70) 
oracle

>  <origin>  (70) 
autodockgpu

>  <m_score__min__energy>  (70) 
-5.3200000000000003

>  <m_primary>  (70) 
energy

>  <meeko>  (70) 
{"free_energy": -5.2, "intermolecular_energy": -6.99, "internal_energy": -2.4, "cluster_size": 14, "cluster_id": 1, "rank_in_cluster": 10}

>  <energy>  (70) 
-5.2

>  <cluster_rmsd>  (70) 
0.74

>  <rmsd>  (70) 
271.45

>  <cluster>  (70) 
1

$$$$
IQOSOXOZFSRASN-DESYHMSQNA-N
     RDKit          3D

 49 51  0  0  0  0  0  0  0  0999 V2000
  141.5760   76.3960  221.9670 H   0  0  0  0  0  0  0  0  0  0  0  0
  141.4490   75.3600  221.9280 N   0  0  0  0  0  0  0  0  0  0  0  0
  140.2730   74.8270  221.8220 C   0  0  0  0  0  0  0  0  0  0  0  0
  139.9060   73.7530  222.6290 O   0  0  0  0  0  0  0  0  0  0  0  0
  138.9830   73.6930  223.0430 H   0  0  0  0  0  0  0  0  0  0  0  0
  139.2950   75.3760  220.8300 C   0  0  0  0  0  0  0  0  0  0  0  0
  139.8406   75.9240  220.0477 H   0  0  0  0  0  0  0  0  0  0  0  0
  138.7322   74.5428  220.3838 H   0  0  0  0  0  0  0  0  0  0  0  0
  138.3550   76.2860  221.4920 N   0  0  0  0  0  0  0  0  0  0  0  0
  138.4300   77.6440  221.5770 C   0  0  0  0  0  0  0  0  0  0  0  0
  139.4820   78.4820  220.9100 C   0  0  0  0  0  0  0  0  0  0  0  0
  139.6220   78.1326  219.8764 H   0  0  0  0  0  0  0  0  0  0  0  0
  139.1560   79.5326  220.9134 H   0  0  0  0  0  0  0  0  0  0  0  0
  140.7630   78.3760  221.6370 N   0  0  0  0  0  0  0  0  0  0  0  0
  141.8350   79.1990  221.0120 C   0  0  0  0  0  0  0  0  0  0  0  0
  142.7628   78.6085  220.9892 H   0  0  0  0  0  0  0  0  0  0  0  0
  141.4971   79.4689  220.0006 H   0  0  0  0  0  0  0  0  0  0  0  0
  142.1040   80.5050  221.7720 C   0  0  0  0  0  0  0  0  0  0  0  0
  142.8977   81.0652  221.2560 H   0  0  0  0  0  0  0  0  0  0  0  0
  141.1750   81.0933  221.8002 H   0  0  0  0  0  0  0  0  0  0  0  0
  142.5500   80.2160  223.2230 C   0  0  0  0  0  0  0  0  0  0  0  0
  143.6337   80.0277  223.2089 H   0  0  0  0  0  0  0  0  0  0  0  0
  142.2790   81.4330  224.1170 C   0  0  0  0  0  0  0  0  0  0  0  0
  142.3456   81.1340  225.1735 H   0  0  0  0  0  0  0  0  0  0  0  0
  143.0252   82.2140  223.9093 H   0  0  0  0  0  0  0  0  0  0  0  0
  141.2719   81.8236  223.9093 H   0  0  0  0  0  0  0  0  0  0  0  0
  141.8850   78.9380  223.7930 C   0  0  0  0  0  0  0  0  0  0  0  0
  142.5674   78.0864  223.6550 H   0  0  0  0  0  0  0  0  0  0  0  0
  141.6779   79.0999  224.8611 H   0  0  0  0  0  0  0  0  0  0  0  0
  140.5610   78.6380  223.0820 C   0  0  0  0  0  0  0  0  0  0  0  0
  140.1007   77.7523  223.5442 H   0  0  0  0  0  0  0  0  0  0  0  0
  139.9095   79.5185  223.1836 H   0  0  0  0  0  0  0  0  0  0  0  0
  137.4280   78.1940  222.3120 N   0  0  0  0  0  0  0  0  0  0  0  0
  136.7200   77.1190  222.7060 C   0  0  0  0  0  0  0  0  0  0  0  0
  137.2660   75.9780  222.2240 C   0  0  0  0  0  0  0  0  0  0  0  0
  136.6810   74.7480  222.5130 C   0  0  0  0  0  0  0  0  0  0  0  0
  137.1730   73.6800  222.0580 O   0  0  0  0  0  0  0  0  0  0  0  0
  135.5500   74.7300  223.2970 N   0  0  0  0  0  0  0  0  0  0  0  0
  134.8820   73.4500  223.5910 C   0  0  0  0  0  0  0  0  0  0  0  0
  134.8115   73.3149  224.6804 H   0  0  0  0  0  0  0  0  0  0  0  0
  133.8717   73.4553  223.1560 H   0  0  0  0  0  0  0  0  0  0  0  0
  135.4641   72.6242  223.1560 H   0  0  0  0  0  0  0  0  0  0  0  0
  134.9930   75.9160  223.7460 C   0  0  0  0  0  0  0  0  0  0  0  0
  133.9160   75.8930  224.4060 O   0  0  0  0  0  0  0  0  0  0  0  0
  135.5970   77.1240  223.4750 N   0  0  0  0  0  0  0  0  0  0  0  0
  135.0050   78.3890  223.9300 C   0  0  0  0  0  0  0  0  0  0  0  0
  134.9934   78.4138  225.0297 H   0  0  0  0  0  0  0  0  0  0  0  0
  135.6026   79.2309  223.5505 H   0  0  0  0  0  0  0  0  0  0  0  0
  133.9757   78.4696  223.5505 H   0  0  0  0  0  0  0  0  0  0  0  0
  1  2  1  0
  2  3  2  0
  3  4  1  0
  4  5  1  0
  3  6  1  0
  6  7  1  0
  6  8  1  0
  6  9  1  0
  9 10  1  0
 10 11  1  0
 11 12  1  0
 11 13  1  0
 11 14  1  0
 14 15  1  0
 15 16  1  0
 15 17  1  0
 15 18  1  0
 18 19  1  0
 18 20  1  0
 18 21  1  0
 21 22  1  0
 21 23  1  0
 23 24  1  0
 23 25  1  0
 23 26  1  0
 21 27  1  0
 27 28  1  0
 27 29  1  0
 27 30  1  0
 30 31  1  0
 30 32  1  0
 10 33  2  0
 33 34  1  0
 34 35  2  0
 35 36  1  0
 36 37  2  0
 36 38  1  0
 38 39  1  0
 39 40  1  0
 39 41  1  0
 39 42  1  0
 38 43  1  0
 43 44  2  0
 43 45  1  0
 45 46  1  0
 46 47  1  0
 46 48  1  0
 46 49  1  0
 35  9  1  0
 30 14  1  0
 45 34  1  0
M  END
>  <UniqueID>  (71) 
16

>  <SMILES>  (71) 
[H]/N=C(\O)Cn1c(CN2CCC(C)CC2)nc2c1c(=O)n(C)c(=O)n2C

>  <Energy>  (71) 
97.78650455958997

>  <Genealogy>  (71) 
CC1CCN(Cc2nc3c(c(=O)n(C)c(=O)n3C)n2CC(=N)O)CC1 (tautomer)
[H]/N=C(\O)Cn1c(CN2CCC(C)CC2)nc2c1c(=O)n(C)c(=O)n2C (cis-trans isomerization)
[H]/N=C(\O)Cn1c(CN2CCC(C)CC2)nc2c1c(=O)n(C)c(=O)n2C (3D coordinates assigned)
[H]/N=C(\O)Cn1c(CN2CCC(C)CC2)nc2c1c(=O)n(C)c(=O)n2C (nonaromatic ring conformer: 97.78650455958997 kcal/mol)

>  <smiles>  (71) 
CC1CCN(Cc2nc3c(c(=O)n(C)c(=O)n3C)n2CC(N)=O)CC1

>  <score_type>  (71) 
oracle

>  <origin>  (71) 
autodockgpu

>  <m_score__min__energy>  (71) 
-5.3200000000000003

>  <m_primary>  (71) 
energy

>  <meeko>  (71) 
{"free_energy": -5.22, "intermolecular_energy": -7.01, "internal_energy": -2.41, "cluster_size": 14, "cluster_id": 1, "rank_in_cluster": 3}

>  <energy>  (71) 
-5.18

>  <cluster_rmsd>  (71) 
0.6

>  <rmsd>  (71) 
271.5

>  <cluster>  (71) 
1

$$$$
IQOSOXOZFSRASN-DESYHMSQNA-N
     RDKit          3D

 49 51  0  0  0  0  0  0  0  0999 V2000
  141.5840   76.4930  221.9560 H   0  0  0  0  0  0  0  0  0  0  0  0
  141.4490   75.4570  221.9380 N   0  0  0  0  0  0  0  0  0  0  0  0
  140.2820   74.9320  221.7450 C   0  0  0  0  0  0  0  0  0  0  0  0
  139.8930   73.7910  222.4440 O   0  0  0  0  0  0  0  0  0  0  0  0
  138.9550   73.6890  222.8120 H   0  0  0  0  0  0  0  0  0  0  0  0
  139.3350   75.5600  220.7690 C   0  0  0  0  0  0  0  0  0  0  0  0
  139.9027   76.1836  220.0627 H   0  0  0  0  0  0  0  0  0  0  0  0
  138.8019   74.7654  220.2264 H   0  0  0  0  0  0  0  0  0  0  0  0
  138.3570   76.3950  221.4730 N   0  0  0  0  0  0  0  0  0  0  0  0
  138.3820   77.7480  221.6390 C   0  0  0  0  0  0  0  0  0  0  0  0
  139.4080   78.6610  221.0320 C   0  0  0  0  0  0  0  0  0  0  0  0
  139.5056   78.4347  219.9600 H   0  0  0  0  0  0  0  0  0  0  0  0
  139.0847   79.7033  221.1703 H   0  0  0  0  0  0  0  0  0  0  0  0
  140.7170   78.4740  221.6900 N   0  0  0  0  0  0  0  0  0  0  0  0
  141.7910   79.2810  221.0460 C   0  0  0  0  0  0  0  0  0  0  0  0
  142.6921   78.6568  220.9542 H   0  0  0  0  0  0  0  0  0  0  0  0
  141.4167   79.6056  220.0639 H   0  0  0  0  0  0  0  0  0  0  0  0
  142.1480   80.5420  221.8430 C   0  0  0  0  0  0  0  0  0  0  0  0
  142.9374   81.0930  221.3108 H   0  0  0  0  0  0  0  0  0  0  0  0
  141.2454   81.1630  221.9411 H   0  0  0  0  0  0  0  0  0  0  0  0
  142.6520   80.1760  223.2580 C   0  0  0  0  0  0  0  0  0  0  0  0
  143.7254   79.9474  223.1834 H   0  0  0  0  0  0  0  0  0  0  0  0
  142.4740   81.3640  224.2120 C   0  0  0  0  0  0  0  0  0  0  0  0
  142.5270   81.0101  225.2522 H   0  0  0  0  0  0  0  0  0  0  0  0
  143.2719   82.1000  224.0340 H   0  0  0  0  0  0  0  0  0  0  0  0
  141.4954   81.8338  224.0340 H   0  0  0  0  0  0  0  0  0  0  0  0
  141.9630   78.9020  223.8080 C   0  0  0  0  0  0  0  0  0  0  0  0
  142.6027   78.0312  223.6019 H   0  0  0  0  0  0  0  0  0  0  0  0
  141.8139   79.0273  224.8906 H   0  0  0  0  0  0  0  0  0  0  0  0
  140.5950   78.6830  223.1530 C   0  0  0  0  0  0  0  0  0  0  0  0
  140.1221   77.7971  223.6019 H   0  0  0  0  0  0  0  0  0  0  0  0
  139.9848   79.5825  223.3222 H   0  0  0  0  0  0  0  0  0  0  0  0
  137.3560   78.2170  222.3940 N   0  0  0  0  0  0  0  0  0  0  0  0
  136.6830   77.0970  222.7180 C   0  0  0  0  0  0  0  0  0  0  0  0
  137.2740   76.0060  222.1760 C   0  0  0  0  0  0  0  0  0  0  0  0
  136.7330   74.7400  222.3870 C   0  0  0  0  0  0  0  0  0  0  0  0
  137.2660   73.7190  221.8750 O   0  0  0  0  0  0  0  0  0  0  0  0
  135.5970   74.6370  223.1570 N   0  0  0  0  0  0  0  0  0  0  0  0
  134.9740   73.3180  223.3690 C   0  0  0  0  0  0  0  0  0  0  0  0
  134.8827   73.1248  224.4480 H   0  0  0  0  0  0  0  0  0  0  0  0
  133.9751   73.3060  222.9086 H   0  0  0  0  0  0  0  0  0  0  0  0
  135.5993   72.5389  222.9086 H   0  0  0  0  0  0  0  0  0  0  0  0
  134.9940   75.7740  223.6690 C   0  0  0  0  0  0  0  0  0  0  0  0
  133.9140   75.6730  224.3160 O   0  0  0  0  0  0  0  0  0  0  0  0
  135.5560   77.0160  223.4750 N   0  0  0  0  0  0  0  0  0  0  0  0
  134.9140   78.2300  223.9970 C   0  0  0  0  0  0  0  0  0  0  0  0
  134.9260   78.2073  225.0967 H   0  0  0  0  0  0  0  0  0  0  0  0
  135.4616   79.1157  223.6426 H   0  0  0  0  0  0  0  0  0  0  0  0
  133.8737   78.2760  223.6426 H   0  0  0  0  0  0  0  0  0  0  0  0
  1  2  1  0
  2  3  2  0
  3  4  1  0
  4  5  1  0
  3  6  1  0
  6  7  1  0
  6  8  1  0
  6  9  1  0
  9 10  1  0
 10 11  1  0
 11 12  1  0
 11 13  1  0
 11 14  1  0
 14 15  1  0
 15 16  1  0
 15 17  1  0
 15 18  1  0
 18 19  1  0
 18 20  1  0
 18 21  1  0
 21 22  1  0
 21 23  1  0
 23 24  1  0
 23 25  1  0
 23 26  1  0
 21 27  1  0
 27 28  1  0
 27 29  1  0
 27 30  1  0
 30 31  1  0
 30 32  1  0
 10 33  2  0
 33 34  1  0
 34 35  2  0
 35 36  1  0
 36 37  2  0
 36 38  1  0
 38 39  1  0
 39 40  1  0
 39 41  1  0
 39 42  1  0
 38 43  1  0
 43 44  2  0
 43 45  1  0
 45 46  1  0
 46 47  1  0
 46 48  1  0
 46 49  1  0
 35  9  1  0
 30 14  1  0
 45 34  1  0
M  END
>  <UniqueID>  (72) 
16

>  <SMILES>  (72) 
[H]/N=C(\O)Cn1c(CN2CCC(C)CC2)nc2c1c(=O)n(C)c(=O)n2C

>  <Energy>  (72) 
97.78650455958997

>  <Genealogy>  (72) 
CC1CCN(Cc2nc3c(c(=O)n(C)c(=O)n3C)n2CC(=N)O)CC1 (tautomer)
[H]/N=C(\O)Cn1c(CN2CCC(C)CC2)nc2c1c(=O)n(C)c(=O)n2C (cis-trans isomerization)
[H]/N=C(\O)Cn1c(CN2CCC(C)CC2)nc2c1c(=O)n(C)c(=O)n2C (3D coordinates assigned)
[H]/N=C(\O)Cn1c(CN2CCC(C)CC2)nc2c1c(=O)n(C)c(=O)n2C (nonaromatic ring conformer: 97.78650455958997 kcal/mol)

>  <smiles>  (72) 
CC1CCN(Cc2nc3c(c(=O)n(C)c(=O)n3C)n2CC(N)=O)CC1

>  <score_type>  (72) 
oracle

>  <origin>  (72) 
autodockgpu

>  <m_score__min__energy>  (72) 
-5.3200000000000003

>  <m_primary>  (72) 
energy

>  <meeko>  (72) 
{"free_energy": -5.2, "intermolecular_energy": -6.99, "internal_energy": -2.4, "cluster_size": 14, "cluster_id": 1, "rank_in_cluster": 7}

>  <energy>  (72) 
-5.16

>  <cluster_rmsd>  (72) 
0.27

>  <rmsd>  (72) 
271.57

>  <cluster>  (72) 
1

$$$$
IQOSOXOZFSRASN-DESYHMSQNA-N
     RDKit          3D

 49 51  0  0  0  0  0  0  0  0999 V2000
  137.7300   73.7600  222.8430 H   0  0  0  0  0  0  0  0  0  0  0  0
  136.9870   74.3230  222.3720 N   0  0  0  0  0  0  0  0  0  0  0  0
  137.1930   75.5510  222.0180 C   0  0  0  0  0  0  0  0  0  0  0  0
  136.5110   76.1000  220.9330 O   0  0  0  0  0  0  0  0  0  0  0  0
  136.9750   76.7100  220.2710 H   0  0  0  0  0  0  0  0  0  0  0  0
  138.1640   76.3930  222.7840 C   0  0  0  0  0  0  0  0  0  0  0  0
  137.6523   77.2961  223.1481 H   0  0  0  0  0  0  0  0  0  0  0  0
  138.5504   75.8096  223.6327 H   0  0  0  0  0  0  0  0  0  0  0  0
  139.2860   76.7860  221.9270 N   0  0  0  0  0  0  0  0  0  0  0  0
  139.5330   78.0140  221.3870 C   0  0  0  0  0  0  0  0  0  0  0  0
  138.7140   79.2430  221.6590 C   0  0  0  0  0  0  0  0  0  0  0  0
  138.5514   79.7861  220.7163 H   0  0  0  0  0  0  0  0  0  0  0  0
  137.7493   78.9401  222.0922 H   0  0  0  0  0  0  0  0  0  0  0  0
  139.4120   80.1260  222.6150 N   0  0  0  0  0  0  0  0  0  0  0  0
  139.9010   79.3850  223.8110 C   0  0  0  0  0  0  0  0  0  0  0  0
  139.6842   79.9836  224.7080 H   0  0  0  0  0  0  0  0  0  0  0  0
  139.3841   78.4143  223.8329 H   0  0  0  0  0  0  0  0  0  0  0  0
  141.4090   79.1040  223.7620 C   0  0  0  0  0  0  0  0  0  0  0  0
  141.7020   78.5509  224.6666 H   0  0  0  0  0  0  0  0  0  0  0  0
  141.6271   78.5107  222.8617 H   0  0  0  0  0  0  0  0  0  0  0  0
  142.2130   80.4220  223.6920 C   0  0  0  0  0  0  0  0  0  0  0  0
  142.3380   80.7930  224.7200 H   0  0  0  0  0  0  0  0  0  0  0  0
  143.6030   80.1680  223.0940 C   0  0  0  0  0  0  0  0  0  0  0  0
  144.3328   80.0346  223.9062 H   0  0  0  0  0  0  0  0  0  0  0  0
  143.5749   79.2601  222.4735 H   0  0  0  0  0  0  0  0  0  0  0  0
  143.8978   81.0271  222.4735 H   0  0  0  0  0  0  0  0  0  0  0  0
  141.4560   81.5250  222.9120 C   0  0  0  0  0  0  0  0  0  0  0  0
  140.9119   82.1604  223.6263 H   0  0  0  0  0  0  0  0  0  0  0  0
  142.1901   82.1177  222.3464 H   0  0  0  0  0  0  0  0  0  0  0  0
  140.4560   80.9170  221.9210 C   0  0  0  0  0  0  0  0  0  0  0  0
  139.9730   81.7291  221.3578 H   0  0  0  0  0  0  0  0  0  0  0  0
  141.0059   80.2441  221.2467 H   0  0  0  0  0  0  0  0  0  0  0  0
  140.6290   78.0400  220.5850 N   0  0  0  0  0  0  0  0  0  0  0  0
  141.0600   76.7650  220.6250 C   0  0  0  0  0  0  0  0  0  0  0  0
  140.2650   76.0100  221.4190 C   0  0  0  0  0  0  0  0  0  0  0  0
  140.5400   74.6580  221.6000 C   0  0  0  0  0  0  0  0  0  0  0  0
  139.8160   73.9490  222.3490 O   0  0  0  0  0  0  0  0  0  0  0  0
  141.6280   74.1200  220.9500 N   0  0  0  0  0  0  0  0  0  0  0  0
  141.9730   72.7020  221.1500 C   0  0  0  0  0  0  0  0  0  0  0  0
  142.0256   72.4859  222.2273 H   0  0  0  0  0  0  0  0  0  0  0  0
  141.2028   72.0683  220.6860 H   0  0  0  0  0  0  0  0  0  0  0  0
  142.9482   72.4929  220.6860 H   0  0  0  0  0  0  0  0  0  0  0  0
  142.4450   74.9250  220.1730 C   0  0  0  0  0  0  0  0  0  0  0  0
  143.4800   74.4360  219.6370 O   0  0  0  0  0  0  0  0  0  0  0  0
  142.1450   76.2550  219.9800 N   0  0  0  0  0  0  0  0  0  0  0  0
  143.0150   77.1210  219.1730 C   0  0  0  0  0  0  0  0  0  0  0  0
  143.6359   77.7391  219.8382 H   0  0  0  0  0  0  0  0  0  0  0  0
  143.6639   76.4997  218.5383 H   0  0  0  0  0  0  0  0  0  0  0  0
  142.3966   77.7727  218.5383 H   0  0  0  0  0  0  0  0  0  0  0  0
  1  2  1  0
  2  3  2  0
  3  4  1  0
  4  5  1  0
  3  6  1  0
  6  7  1  0
  6  8  1  0
  6  9  1  0
  9 10  1  0
 10 11  1  0
 11 12  1  0
 11 13  1  0
 11 14  1  0
 14 15  1  0
 15 16  1  0
 15 17  1  0
 15 18  1  0
 18 19  1  0
 18 20  1  0
 18 21  1  0
 21 22  1  0
 21 23  1  0
 23 24  1  0
 23 25  1  0
 23 26  1  0
 21 27  1  0
 27 28  1  0
 27 29  1  0
 27 30  1  0
 30 31  1  0
 30 32  1  0
 10 33  2  0
 33 34  1  0
 34 35  2  0
 35 36  1  0
 36 37  2  0
 36 38  1  0
 38 39  1  0
 39 40  1  0
 39 41  1  0
 39 42  1  0
 38 43  1  0
 43 44  2  0
 43 45  1  0
 45 46  1  0
 46 47  1  0
 46 48  1  0
 46 49  1  0
 35  9  1  0
 30 14  1  0
 45 34  1  0
M  END
>  <UniqueID>  (73) 
16

>  <SMILES>  (73) 
[H]/N=C(\O)Cn1c(CN2CCC(C)CC2)nc2c1c(=O)n(C)c(=O)n2C

>  <Energy>  (73) 
97.78650455958997

>  <Genealogy>  (73) 
CC1CCN(Cc2nc3c(c(=O)n(C)c(=O)n3C)n2CC(=N)O)CC1 (tautomer)
[H]/N=C(\O)Cn1c(CN2CCC(C)CC2)nc2c1c(=O)n(C)c(=O)n2C (cis-trans isomerization)
[H]/N=C(\O)Cn1c(CN2CCC(C)CC2)nc2c1c(=O)n(C)c(=O)n2C (3D coordinates assigned)
[H]/N=C(\O)Cn1c(CN2CCC(C)CC2)nc2c1c(=O)n(C)c(=O)n2C (nonaromatic ring conformer: 97.78650455958997 kcal/mol)

>  <smiles>  (73) 
CC1CCN(Cc2nc3c(c(=O)n(C)c(=O)n3C)n2CC(N)=O)CC1

>  <score_type>  (73) 
oracle

>  <origin>  (73) 
autodockgpu

>  <m_score__min__energy>  (73) 
-5.3200000000000003

>  <m_primary>  (73) 
energy

>  <meeko>  (73) 
{"free_energy": -5.25, "intermolecular_energy": -7.04, "internal_energy": -1.95, "cluster_size": 1, "cluster_id": 2, "rank_in_cluster": 1}

>  <energy>  (73) 
-5.16

>  <cluster_rmsd>  (73) 
0.53

>  <rmsd>  (73) 
271.53

>  <cluster>  (73) 
1

$$$$
IQOSOXOZFSRASN-DESYHMSQNA-N
     RDKit          3D

 49 51  0  0  0  0  0  0  0  0999 V2000
  141.6010   76.6680  221.6540 H   0  0  0  0  0  0  0  0  0  0  0  0
  141.4220   75.6790  221.9410 N   0  0  0  0  0  0  0  0  0  0  0  0
  140.2920   75.0980  221.6920 C   0  0  0  0  0  0  0  0  0  0  0  0
  139.9430   73.9180  222.3450 O   0  0  0  0  0  0  0  0  0  0  0  0
  139.0200   73.7870  222.7440 H   0  0  0  0  0  0  0  0  0  0  0  0
  139.3470   75.7040  220.7020 C   0  0  0  0  0  0  0  0  0  0  0  0
  139.9228   76.2323  219.9278 H   0  0  0  0  0  0  0  0  0  0  0  0
  138.7462   74.9033  220.2460 H   0  0  0  0  0  0  0  0  0  0  0  0
  138.4490   76.6520  221.3670 N   0  0  0  0  0  0  0  0  0  0  0  0
  138.5400   78.0130  221.3880 C   0  0  0  0  0  0  0  0  0  0  0  0
  139.5650   78.8080  220.6310 C   0  0  0  0  0  0  0  0  0  0  0  0
  139.6394   78.4194  219.6046 H   0  0  0  0  0  0  0  0  0  0  0  0
  139.2564   79.8637  220.6142 H   0  0  0  0  0  0  0  0  0  0  0  0
  140.8840   78.7050  221.2870 N   0  0  0  0  0  0  0  0  0  0  0  0
  141.8470   79.7210  220.7770 C   0  0  0  0  0  0  0  0  0  0  0  0
  142.8216   79.2348  220.6227 H   0  0  0  0  0  0  0  0  0  0  0  0
  141.4374   80.1228  219.8385 H   0  0  0  0  0  0  0  0  0  0  0  0
  142.0350   80.9000  221.7400 C   0  0  0  0  0  0  0  0  0  0  0  0
  142.7491   81.6128  221.3017 H   0  0  0  0  0  0  0  0  0  0  0  0
  141.0595   81.3827  221.8995 H   0  0  0  0  0  0  0  0  0  0  0  0
  142.5760   80.4160  223.1050 C   0  0  0  0  0  0  0  0  0  0  0  0
  143.6702   80.3370  223.0238 H   0  0  0  0  0  0  0  0  0  0  0  0
  142.2410   81.4350  224.2020 C   0  0  0  0  0  0  0  0  0  0  0  0
  142.3925   80.9741  225.1892 H   0  0  0  0  0  0  0  0  0  0  0  0
  142.8984   82.3112  224.1016 H   0  0  0  0  0  0  0  0  0  0  0  0
  141.1919   81.7502  224.1016 H   0  0  0  0  0  0  0  0  0  0  0  0
  142.0550   79.0040  223.4690 C   0  0  0  0  0  0  0  0  0  0  0  0
  142.8028   78.2566  223.1654 H   0  0  0  0  0  0  0  0  0  0  0  0
  141.8856   78.9652  224.5552 H   0  0  0  0  0  0  0  0  0  0  0  0
  140.7300   78.7010  222.7610 C   0  0  0  0  0  0  0  0  0  0  0  0
  140.3737   77.7103  223.0797 H   0  0  0  0  0  0  0  0  0  0  0  0
  140.0081   79.4852  223.0330 H   0  0  0  0  0  0  0  0  0  0  0  0
  137.5820   78.6060  222.1460 N   0  0  0  0  0  0  0  0  0  0  0  0
  136.8850   77.5580  222.6230 C   0  0  0  0  0  0  0  0  0  0  0  0
  137.3960   76.3900  222.1670 C   0  0  0  0  0  0  0  0  0  0  0  0
  136.8160   75.1800  222.5400 C   0  0  0  0  0  0  0  0  0  0  0  0
  137.2740   74.0880  222.1100 O   0  0  0  0  0  0  0  0  0  0  0  0
  135.7260   75.2110  223.3800 N   0  0  0  0  0  0  0  0  0  0  0  0
  135.0620   73.9520  223.7640 C   0  0  0  0  0  0  0  0  0  0  0  0
  135.0229   73.8778  224.8608 H   0  0  0  0  0  0  0  0  0  0  0  0
  134.0394   73.9384  223.3589 H   0  0  0  0  0  0  0  0  0  0  0  0
  135.6283   73.1004  223.3589 H   0  0  0  0  0  0  0  0  0  0  0  0
  135.2020   76.4220  223.8010 C   0  0  0  0  0  0  0  0  0  0  0  0
  134.1600   76.4400  224.5150 O   0  0  0  0  0  0  0  0  0  0  0  0
  135.8030   77.6100  223.4470 N   0  0  0  0  0  0  0  0  0  0  0  0
  135.2450   78.9000  223.8730 C   0  0  0  0  0  0  0  0  0  0  0  0
  135.2251   78.9460  224.9719 H   0  0  0  0  0  0  0  0  0  0  0  0
  135.8703   79.7167  223.4831 H   0  0  0  0  0  0  0  0  0  0  0  0
  134.2216   79.0035  223.4831 H   0  0  0  0  0  0  0  0  0  0  0  0
  1  2  1  0
  2  3  2  0
  3  4  1  0
  4  5  1  0
  3  6  1  0
  6  7  1  0
  6  8  1  0
  6  9  1  0
  9 10  1  0
 10 11  1  0
 11 12  1  0
 11 13  1  0
 11 14  1  0
 14 15  1  0
 15 16  1  0
 15 17  1  0
 15 18  1  0
 18 19  1  0
 18 20  1  0
 18 21  1  0
 21 22  1  0
 21 23  1  0
 23 24  1  0
 23 25  1  0
 23 26  1  0
 21 27  1  0
 27 28  1  0
 27 29  1  0
 27 30  1  0
 30 31  1  0
 30 32  1  0
 10 33  2  0
 33 34  1  0
 34 35  2  0
 35 36  1  0
 36 37  2  0
 36 38  1  0
 38 39  1  0
 39 40  1  0
 39 41  1  0
 39 42  1  0
 38 43  1  0
 43 44  2  0
 43 45  1  0
 45 46  1  0
 46 47  1  0
 46 48  1  0
 46 49  1  0
 35  9  1  0
 30 14  1  0
 45 34  1  0
M  END
>  <UniqueID>  (74) 
16

>  <SMILES>  (74) 
[H]/N=C(\O)Cn1c(CN2CCC(C)CC2)nc2c1c(=O)n(C)c(=O)n2C

>  <Energy>  (74) 
97.78650455958997

>  <Genealogy>  (74) 
CC1CCN(Cc2nc3c(c(=O)n(C)c(=O)n3C)n2CC(=N)O)CC1 (tautomer)
[H]/N=C(\O)Cn1c(CN2CCC(C)CC2)nc2c1c(=O)n(C)c(=O)n2C (cis-trans isomerization)
[H]/N=C(\O)Cn1c(CN2CCC(C)CC2)nc2c1c(=O)n(C)c(=O)n2C (3D coordinates assigned)
[H]/N=C(\O)Cn1c(CN2CCC(C)CC2)nc2c1c(=O)n(C)c(=O)n2C (nonaromatic ring conformer: 97.78650455958997 kcal/mol)

>  <smiles>  (74) 
CC1CCN(Cc2nc3c(c(=O)n(C)c(=O)n3C)n2CC(N)=O)CC1

>  <score_type>  (74) 
oracle

>  <origin>  (74) 
autodockgpu

>  <m_score__min__energy>  (74) 
-5.3200000000000003

>  <m_primary>  (74) 
energy

>  <meeko>  (74) 
{"free_energy": -5.16, "intermolecular_energy": -6.95, "internal_energy": -2.43, "cluster_size": 14, "cluster_id": 1, "rank_in_cluster": 12}

>  <energy>  (74) 
-5.14

>  <cluster_rmsd>  (74) 
0.8

>  <rmsd>  (74) 
271.47

>  <cluster>  (74) 
1

$$$$
IQOSOXOZFSRASN-DESYHMSQNA-N
     RDKit          3D

 49 51  0  0  0  0  0  0  0  0999 V2000
  141.7650   76.4880  221.6770 H   0  0  0  0  0  0  0  0  0  0  0  0
  141.1480   75.9470  222.3230 N   0  0  0  0  0  0  0  0  0  0  0  0
  140.1630   75.2350  221.8770 C   0  0  0  0  0  0  0  0  0  0  0  0
  139.9620   73.9360  222.3400 O   0  0  0  0  0  0  0  0  0  0  0  0
  139.1000   73.6650  222.7980 H   0  0  0  0  0  0  0  0  0  0  0  0
  139.2260   75.8130  220.8630 C   0  0  0  0  0  0  0  0  0  0  0  0
  139.8087   76.2894  220.0608 H   0  0  0  0  0  0  0  0  0  0  0  0
  138.6045   75.0051  220.4495 H   0  0  0  0  0  0  0  0  0  0  0  0
  138.3540   76.8130  221.4860 N   0  0  0  0  0  0  0  0  0  0  0  0
  138.4870   78.1700  221.4560 C   0  0  0  0  0  0  0  0  0  0  0  0
  139.5400   78.9040  220.6760 C   0  0  0  0  0  0  0  0  0  0  0  0
  139.5954   78.4863  219.6599 H   0  0  0  0  0  0  0  0  0  0  0  0
  139.2733   79.9703  220.6325 H   0  0  0  0  0  0  0  0  0  0  0  0
  140.8560   78.7660  221.3310 N   0  0  0  0  0  0  0  0  0  0  0  0
  141.8520   79.7410  220.8040 C   0  0  0  0  0  0  0  0  0  0  0  0
  142.8093   79.2199  220.6555 H   0  0  0  0  0  0  0  0  0  0  0  0
  141.4551   80.1423  219.8598 H   0  0  0  0  0  0  0  0  0  0  0  0
  142.0810   80.9270  221.7500 C   0  0  0  0  0  0  0  0  0  0  0  0
  142.8170   81.6095  221.3001 H   0  0  0  0  0  0  0  0  0  0  0  0
  141.1220   81.4432  221.9045 H   0  0  0  0  0  0  0  0  0  0  0  0
  142.6090   80.4460  223.1210 C   0  0  0  0  0  0  0  0  0  0  0  0
  143.6998   80.3305  223.0392 H   0  0  0  0  0  0  0  0  0  0  0  0
  142.3110   81.4910  224.2040 C   0  0  0  0  0  0  0  0  0  0  0  0
  142.4405   81.0367  225.1974 H   0  0  0  0  0  0  0  0  0  0  0  0
  143.0031   82.3391  224.0955 H   0  0  0  0  0  0  0  0  0  0  0  0
  141.2757   81.8465  224.0955 H   0  0  0  0  0  0  0  0  0  0  0  0
  142.0420   79.0570  223.5060 C   0  0  0  0  0  0  0  0  0  0  0  0
  142.7633   78.2809  223.2105 H   0  0  0  0  0  0  0  0  0  0  0  0
  141.8751   79.0387  224.5931 H   0  0  0  0  0  0  0  0  0  0  0  0
  140.7050   78.7890  222.8060 C   0  0  0  0  0  0  0  0  0  0  0  0
  140.3158   77.8159  223.1402 H   0  0  0  0  0  0  0  0  0  0  0  0
  140.0106   79.6009  223.0681 H   0  0  0  0  0  0  0  0  0  0  0  0
  137.5440   78.8210  222.1840 N   0  0  0  0  0  0  0  0  0  0  0  0
  136.8120   77.8140  222.6960 C   0  0  0  0  0  0  0  0  0  0  0  0
  137.2890   76.6140  222.2890 C   0  0  0  0  0  0  0  0  0  0  0  0
  136.6710   75.4380  222.7040 C   0  0  0  0  0  0  0  0  0  0  0  0
  137.0970   74.3160  222.3190 O   0  0  0  0  0  0  0  0  0  0  0  0
  135.5780   75.5340  223.5350 N   0  0  0  0  0  0  0  0  0  0  0  0
  134.8740   74.3120  223.9630 C   0  0  0  0  0  0  0  0  0  0  0  0
  134.8492   74.2689  225.0619 H   0  0  0  0  0  0  0  0  0  0  0  0
  133.8454   74.3258  223.5733 H   0  0  0  0  0  0  0  0  0  0  0  0
  135.4019   73.4291  223.5733 H   0  0  0  0  0  0  0  0  0  0  0  0
  135.0890   76.7760  223.9070 C   0  0  0  0  0  0  0  0  0  0  0  0
  134.0450   76.8530  224.6130 O   0  0  0  0  0  0  0  0  0  0  0  0
  135.7280   77.9300  223.5110 N   0  0  0  0  0  0  0  0  0  0  0  0
  135.2080   79.2520  223.8840 C   0  0  0  0  0  0  0  0  0  0  0  0
  135.1746   79.3369  224.9802 H   0  0  0  0  0  0  0  0  0  0  0  0
  135.8658   80.0333  223.4756 H   0  0  0  0  0  0  0  0  0  0  0  0
  134.1942   79.3758  223.4756 H   0  0  0  0  0  0  0  0  0  0  0  0
  1  2  1  0
  2  3  2  0
  3  4  1  0
  4  5  1  0
  3  6  1  0
  6  7  1  0
  6  8  1  0
  6  9  1  0
  9 10  1  0
 10 11  1  0
 11 12  1  0
 11 13  1  0
 11 14  1  0
 14 15  1  0
 15 16  1  0
 15 17  1  0
 15 18  1  0
 18 19  1  0
 18 20  1  0
 18 21  1  0
 21 22  1  0
 21 23  1  0
 23 24  1  0
 23 25  1  0
 23 26  1  0
 21 27  1  0
 27 28  1  0
 27 29  1  0
 27 30  1  0
 30 31  1  0
 30 32  1  0
 10 33  2  0
 33 34  1  0
 34 35  2  0
 35 36  1  0
 36 37  2  0
 36 38  1  0
 38 39  1  0
 39 40  1  0
 39 41  1  0
 39 42  1  0
 38 43  1  0
 43 44  2  0
 43 45  1  0
 45 46  1  0
 46 47  1  0
 46 48  1  0
 46 49  1  0
 35  9  1  0
 30 14  1  0
 45 34  1  0
M  END
>  <UniqueID>  (75) 
16

>  <SMILES>  (75) 
[H]/N=C(\O)Cn1c(CN2CCC(C)CC2)nc2c1c(=O)n(C)c(=O)n2C

>  <Energy>  (75) 
97.78650455958997

>  <Genealogy>  (75) 
CC1CCN(Cc2nc3c(c(=O)n(C)c(=O)n3C)n2CC(=N)O)CC1 (tautomer)
[H]/N=C(\O)Cn1c(CN2CCC(C)CC2)nc2c1c(=O)n(C)c(=O)n2C (cis-trans isomerization)
[H]/N=C(\O)Cn1c(CN2CCC(C)CC2)nc2c1c(=O)n(C)c(=O)n2C (3D coordinates assigned)
[H]/N=C(\O)Cn1c(CN2CCC(C)CC2)nc2c1c(=O)n(C)c(=O)n2C (nonaromatic ring conformer: 97.78650455958997 kcal/mol)

>  <smiles>  (75) 
CC1CCN(Cc2nc3c(c(=O)n(C)c(=O)n3C)n2CC(N)=O)CC1

>  <score_type>  (75) 
oracle

>  <origin>  (75) 
autodockgpu

>  <m_score__min__energy>  (75) 
-5.3200000000000003

>  <m_primary>  (75) 
energy

>  <meeko>  (75) 
{"free_energy": -5.32, "intermolecular_energy": -7.11, "internal_energy": -2.04, "cluster_size": 14, "cluster_id": 1, "rank_in_cluster": 1}

>  <energy>  (75) 
-5.25

>  <cluster_rmsd>  (75) 
0.0

>  <rmsd>  (75) 
271.62

>  <cluster>  (75) 
2

$$$$
IQOSOXOZFSRASN-DESYHMSQNA-N
     RDKit          3D

 49 51  0  0  0  0  0  0  0  0999 V2000
  138.9980   73.6490  222.8100 H   0  0  0  0  0  0  0  0  0  0  0  0
  139.9300   73.7700  222.3550 N   0  0  0  0  0  0  0  0  0  0  0  0
  140.2400   74.8630  221.7330 C   0  0  0  0  0  0  0  0  0  0  0  0
  141.4620   75.4900  221.9690 O   0  0  0  0  0  0  0  0  0  0  0  0
  141.6360   76.4410  221.6650 H   0  0  0  0  0  0  0  0  0  0  0  0
  139.2840   75.4540  220.7450 C   0  0  0  0  0  0  0  0  0  0  0  0
  139.8495   75.9979  219.9740 H   0  0  0  0  0  0  0  0  0  0  0  0
  138.7004   74.6434  220.2841 H   0  0  0  0  0  0  0  0  0  0  0  0
  138.3660   76.3800  221.4140 N   0  0  0  0  0  0  0  0  0  0  0  0
  138.4490   77.7400  221.4740 C   0  0  0  0  0  0  0  0  0  0  0  0
  139.4880   78.5600  220.7630 C   0  0  0  0  0  0  0  0  0  0  0  0
  139.5730   78.2140  219.7223 H   0  0  0  0  0  0  0  0  0  0  0  0
  139.1854   79.6173  220.7864 H   0  0  0  0  0  0  0  0  0  0  0  0
  140.7980   78.4220  221.4300 N   0  0  0  0  0  0  0  0  0  0  0  0
  141.8280   79.3190  220.8360 C   0  0  0  0  0  0  0  0  0  0  0  0
  142.7654   78.7538  220.7274 H   0  0  0  0  0  0  0  0  0  0  0  0
  141.4444   79.6652  219.8649 H   0  0  0  0  0  0  0  0  0  0  0  0
  142.1020   80.5620  221.6930 C   0  0  0  0  0  0  0  0  0  0  0  0
  142.8636   81.1811  221.1963 H   0  0  0  0  0  0  0  0  0  0  0  0
  141.1635   81.1245  221.8062 H   0  0  0  0  0  0  0  0  0  0  0  0
  142.6110   80.1630  223.0970 C   0  0  0  0  0  0  0  0  0  0  0  0
  143.6967   80.0010  223.0269 H   0  0  0  0  0  0  0  0  0  0  0  0
  142.3520   81.2950  224.1000 C   0  0  0  0  0  0  0  0  0  0  0  0
  142.4413   80.9047  225.1245 H   0  0  0  0  0  0  0  0  0  0  0  0
  143.0900   82.0962  223.9473 H   0  0  0  0  0  0  0  0  0  0  0  0
  141.3390   81.6956  223.9473 H   0  0  0  0  0  0  0  0  0  0  0  0
  141.9930   78.8280  223.5810 C   0  0  0  0  0  0  0  0  0  0  0  0
  142.6855   78.0064  223.3456 H   0  0  0  0  0  0  0  0  0  0  0  0
  141.8248   78.8963  224.6659 H   0  0  0  0  0  0  0  0  0  0  0  0
  140.6480   78.5580  222.8990 C   0  0  0  0  0  0  0  0  0  0  0  0
  140.2240   77.6265  223.3022 H   0  0  0  0  0  0  0  0  0  0  0  0
  139.9834   79.4114  223.0993 H   0  0  0  0  0  0  0  0  0  0  0  0
  137.4710   78.3080  222.2240 N   0  0  0  0  0  0  0  0  0  0  0  0
  136.7680   77.2440  222.6560 C   0  0  0  0  0  0  0  0  0  0  0  0
  137.2950   76.0910  222.1810 C   0  0  0  0  0  0  0  0  0  0  0  0
  136.7130   74.8690  222.5080 C   0  0  0  0  0  0  0  0  0  0  0  0
  137.1870   73.7910  222.0590 O   0  0  0  0  0  0  0  0  0  0  0  0
  135.6040   74.8720  223.3220 N   0  0  0  0  0  0  0  0  0  0  0  0
  134.9380   73.6000  223.6560 C   0  0  0  0  0  0  0  0  0  0  0  0
  134.8813   73.4918  224.7492 H   0  0  0  0  0  0  0  0  0  0  0  0
  133.9222   73.5961  223.2340 H   0  0  0  0  0  0  0  0  0  0  0  0
  135.5135   72.7629  223.2340 H   0  0  0  0  0  0  0  0  0  0  0  0
  135.0640   76.0680  223.7630 C   0  0  0  0  0  0  0  0  0  0  0  0
  134.0050   76.0620  224.4530 O   0  0  0  0  0  0  0  0  0  0  0  0
  135.6660   77.2680  223.4550 N   0  0  0  0  0  0  0  0  0  0  0  0
  135.0920   78.5440  223.9030 C   0  0  0  0  0  0  0  0  0  0  0  0
  135.0785   78.5740  225.0025 H   0  0  0  0  0  0  0  0  0  0  0  0
  135.7029   79.3751  223.5210 H   0  0  0  0  0  0  0  0  0  0  0  0
  134.0648   78.6382  223.5210 H   0  0  0  0  0  0  0  0  0  0  0  0
  1  2  1  0
  2  3  2  0
  3  4  1  0
  4  5  1  0
  3  6  1  0
  6  7  1  0
  6  8  1  0
  6  9  1  0
  9 10  1  0
 10 11  1  0
 11 12  1  0
 11 13  1  0
 11 14  1  0
 14 15  1  0
 15 16  1  0
 15 17  1  0
 15 18  1  0
 18 19  1  0
 18 20  1  0
 18 21  1  0
 21 22  1  0
 21 23  1  0
 23 24  1  0
 23 25  1  0
 23 26  1  0
 21 27  1  0
 27 28  1  0
 27 29  1  0
 27 30  1  0
 30 31  1  0
 30 32  1  0
 10 33  2  0
 33 34  1  0
 34 35  2  0
 35 36  1  0
 36 37  2  0
 36 38  1  0
 38 39  1  0
 39 40  1  0
 39 41  1  0
 39 42  1  0
 38 43  1  0
 43 44  2  0
 43 45  1  0
 45 46  1  0
 46 47  1  0
 46 48  1  0
 46 49  1  0
 35  9  1  0
 30 14  1  0
 45 34  1  0
M  END
>  <UniqueID>  (76) 
16

>  <SMILES>  (76) 
[H]/N=C(\O)Cn1c(CN2CCC(C)CC2)nc2c1c(=O)n(C)c(=O)n2C

>  <Energy>  (76) 
97.78650455958997

>  <Genealogy>  (76) 
CC1CCN(Cc2nc3c(c(=O)n(C)c(=O)n3C)n2CC(=N)O)CC1 (tautomer)
[H]/N=C(\O)Cn1c(CN2CCC(C)CC2)nc2c1c(=O)n(C)c(=O)n2C (cis-trans isomerization)
[H]/N=C(\O)Cn1c(CN2CCC(C)CC2)nc2c1c(=O)n(C)c(=O)n2C (3D coordinates assigned)
[H]/N=C(\O)Cn1c(CN2CCC(C)CC2)nc2c1c(=O)n(C)c(=O)n2C (nonaromatic ring conformer: 97.78650455958997 kcal/mol)

>  <smiles>  (76) 
CC1CCN(Cc2nc3c(c(=O)n(C)c(=O)n3C)n2CC(N)=O)CC1

>  <score_type>  (76) 
oracle

>  <origin>  (76) 
autodockgpu

>  <m_score__min__energy>  (76) 
-5.3200000000000003

>  <m_primary>  (76) 
energy

>  <meeko>  (76) 
{"free_energy": -5.14, "intermolecular_energy": -6.93, "internal_energy": -2.43, "cluster_size": 14, "cluster_id": 1, "rank_in_cluster": 14}

>  <energy>  (76) 
-5.0

>  <cluster_rmsd>  (76) 
0.0

>  <rmsd>  (76) 
271.7

>  <cluster>  (76) 
3

$$$$
IQOSOXOZFSRASN-DESYHMSQNA-N
     RDKit          3D

 49 51  0  0  0  0  0  0  0  0999 V2000
  142.1810   75.7690  221.7020 H   0  0  0  0  0  0  0  0  0  0  0  0
  141.5710   74.9420  221.5140 N   0  0  0  0  0  0  0  0  0  0  0  0
  140.2810   75.0240  221.5840 C   0  0  0  0  0  0  0  0  0  0  0  0
  139.5540   74.1190  222.3540 O   0  0  0  0  0  0  0  0  0  0  0  0
  138.6620   74.3690  222.7640 H   0  0  0  0  0  0  0  0  0  0  0  0
  139.5630   76.1070  220.8400 C   0  0  0  0  0  0  0  0  0  0  0  0
  140.2496   76.5635  220.1119 H   0  0  0  0  0  0  0  0  0  0  0  0
  138.6976   75.6703  220.3201 H   0  0  0  0  0  0  0  0  0  0  0  0
  139.0900   77.1370  221.7700 N   0  0  0  0  0  0  0  0  0  0  0  0
  137.8290   77.3000  222.2630 C   0  0  0  0  0  0  0  0  0  0  0  0
  136.6840   76.3650  221.9960 C   0  0  0  0  0  0  0  0  0  0  0  0
  135.7371   76.9188  222.0779 H   0  0  0  0  0  0  0  0  0  0  0  0
  136.7918   75.9485  220.9836 H   0  0  0  0  0  0  0  0  0  0  0  0
  136.6860   75.2580  222.9720 N   0  0  0  0  0  0  0  0  0  0  0  0
  135.9460   75.6040  224.2180 C   0  0  0  0  0  0  0  0  0  0  0  0
  136.5287   75.2514  225.0818 H   0  0  0  0  0  0  0  0  0  0  0  0
  135.8143   76.6960  224.2315 H   0  0  0  0  0  0  0  0  0  0  0  0
  134.5500   74.9710  224.2780 C   0  0  0  0  0  0  0  0  0  0  0  0
  134.0583   75.2714  225.2150 H   0  0  0  0  0  0  0  0  0  0  0  0
  133.9691   75.3182  223.4108 H   0  0  0  0  0  0  0  0  0  0  0  0
  134.6410   73.4280  224.2260 C   0  0  0  0  0  0  0  0  0  0  0  0
  134.8225   73.0681  225.2495 H   0  0  0  0  0  0  0  0  0  0  0  0
  133.3180   72.8320  223.7280 C   0  0  0  0  0  0  0  0  0  0  0  0
  132.6948   72.5513  224.5899 H   0  0  0  0  0  0  0  0  0  0  0  0
  132.7864   73.5776  223.1185 H   0  0  0  0  0  0  0  0  0  0  0  0
  133.5242   71.9398  223.1185 H   0  0  0  0  0  0  0  0  0  0  0  0
  135.8360   72.9450  223.3660 C   0  0  0  0  0  0  0  0  0  0  0  0
  136.6946   72.7463  224.0243 H   0  0  0  0  0  0  0  0  0  0  0  0
  135.5350   72.0304  222.8341 H   0  0  0  0  0  0  0  0  0  0  0  0
  136.2350   74.0000  222.3290 C   0  0  0  0  0  0  0  0  0  0  0  0
  137.0539   73.6015  221.7120 H   0  0  0  0  0  0  0  0  0  0  0  0
  135.3521   74.2269  221.7134 H   0  0  0  0  0  0  0  0  0  0  0  0
  137.6990   78.3910  223.0610 N   0  0  0  0  0  0  0  0  0  0  0  0
  138.9340   78.9270  223.0400 C   0  0  0  0  0  0  0  0  0  0  0  0
  139.7680   78.1890  222.2710 C   0  0  0  0  0  0  0  0  0  0  0  0
  141.0990   78.5690  222.1190 C   0  0  0  0  0  0  0  0  0  0  0  0
  141.8880   77.8820  221.4180 O   0  0  0  0  0  0  0  0  0  0  0  0
  141.5290   79.7080  222.7620 N   0  0  0  0  0  0  0  0  0  0  0  0
  142.9400   80.1190  222.6550 C   0  0  0  0  0  0  0  0  0  0  0  0
  143.3634   80.2423  223.6627 H   0  0  0  0  0  0  0  0  0  0  0  0
  143.5061   79.3484  222.1112 H   0  0  0  0  0  0  0  0  0  0  0  0
  143.0038   81.0731  222.1112 H   0  0  0  0  0  0  0  0  0  0  0  0
  140.6630   80.4230  223.5710 C   0  0  0  0  0  0  0  0  0  0  0  0
  141.0870   81.4270  224.2110 O   0  0  0  0  0  0  0  0  0  0  0  0
  139.3420   80.0510  223.6910 N   0  0  0  0  0  0  0  0  0  0  0  0
  138.4190   80.7920  224.5610 C   0  0  0  0  0  0  0  0  0  0  0  0
  138.6676   80.5924  225.6138 H   0  0  0  0  0  0  0  0  0  0  0  0
  138.5114   81.8696  224.3603 H   0  0  0  0  0  0  0  0  0  0  0  0
  137.3869   80.4689  224.3603 H   0  0  0  0  0  0  0  0  0  0  0  0
  1  2  1  0
  2  3  2  0
  3  4  1  0
  4  5  1  0
  3  6  1  0
  6  7  1  0
  6  8  1  0
  6  9  1  0
  9 10  1  0
 10 11  1  0
 11 12  1  0
 11 13  1  0
 11 14  1  0
 14 15  1  0
 15 16  1  0
 15 17  1  0
 15 18  1  0
 18 19  1  0
 18 20  1  0
 18 21  1  0
 21 22  1  0
 21 23  1  0
 23 24  1  0
 23 25  1  0
 23 26  1  0
 21 27  1  0
 27 28  1  0
 27 29  1  0
 27 30  1  0
 30 31  1  0
 30 32  1  0
 10 33  2  0
 33 34  1  0
 34 35  2  0
 35 36  1  0
 36 37  2  0
 36 38  1  0
 38 39  1  0
 39 40  1  0
 39 41  1  0
 39 42  1  0
 38 43  1  0
 43 44  2  0
 43 45  1  0
 45 46  1  0
 46 47  1  0
 46 48  1  0
 46 49  1  0
 35  9  1  0
 30 14  1  0
 45 34  1  0
M  END
>  <UniqueID>  (77) 
16

>  <SMILES>  (77) 
[H]/N=C(\O)Cn1c(CN2CCC(C)CC2)nc2c1c(=O)n(C)c(=O)n2C

>  <Energy>  (77) 
97.78650455958997

>  <Genealogy>  (77) 
CC1CCN(Cc2nc3c(c(=O)n(C)c(=O)n3C)n2CC(=N)O)CC1 (tautomer)
[H]/N=C(\O)Cn1c(CN2CCC(C)CC2)nc2c1c(=O)n(C)c(=O)n2C (cis-trans isomerization)
[H]/N=C(\O)Cn1c(CN2CCC(C)CC2)nc2c1c(=O)n(C)c(=O)n2C (3D coordinates assigned)
[H]/N=C(\O)Cn1c(CN2CCC(C)CC2)nc2c1c(=O)n(C)c(=O)n2C (nonaromatic ring conformer: 97.78650455958997 kcal/mol)

>  <smiles>  (77) 
CC1CCN(Cc2nc3c(c(=O)n(C)c(=O)n3C)n2CC(N)=O)CC1

>  <score_type>  (77) 
oracle

>  <origin>  (77) 
autodockgpu

>  <m_score__min__energy>  (77) 
-5.3200000000000003

>  <m_primary>  (77) 
energy

>  <meeko>  (77) 
{"free_energy": -5.0, "intermolecular_energy": -6.79, "internal_energy": -2.3, "cluster_size": 5, "cluster_id": 3, "rank_in_cluster": 2}

>  <energy>  (77) 
-5.0

>  <cluster_rmsd>  (77) 
0.03

>  <rmsd>  (77) 
271.69

>  <cluster>  (77) 
3

$$$$
IQOSOXOZFSRASN-DESYHMSQNA-N
     RDKit          3D

 49 51  0  0  0  0  0  0  0  0999 V2000
  141.5590   76.4330  221.9900 H   0  0  0  0  0  0  0  0  0  0  0  0
  141.4360   75.3970  221.9510 N   0  0  0  0  0  0  0  0  0  0  0  0
  140.2660   74.8610  221.8120 C   0  0  0  0  0  0  0  0  0  0  0  0
  139.8950   73.7600  222.5820 O   0  0  0  0  0  0  0  0  0  0  0  0
  138.9620   73.6740  222.9670 H   0  0  0  0  0  0  0  0  0  0  0  0
  139.2970   75.4340  220.8250 C   0  0  0  0  0  0  0  0  0  0  0  0
  139.8496   76.0014  220.0617 H   0  0  0  0  0  0  0  0  0  0  0  0
  138.7389   74.6117  220.3534 H   0  0  0  0  0  0  0  0  0  0  0  0
  138.3500   76.3270  221.5000 N   0  0  0  0  0  0  0  0  0  0  0  0
  138.4160   77.6850  221.6060 C   0  0  0  0  0  0  0  0  0  0  0  0
  139.4630   78.5400  220.9520 C   0  0  0  0  0  0  0  0  0  0  0  0
  139.5997   78.2125  219.9108 H   0  0  0  0  0  0  0  0  0  0  0  0
  139.1339   79.5893  220.9786 H   0  0  0  0  0  0  0  0  0  0  0  0
  140.7470   78.4230  221.6710 N   0  0  0  0  0  0  0  0  0  0  0  0
  141.8150   79.2600  221.0570 C   0  0  0  0  0  0  0  0  0  0  0  0
  142.7439   78.6720  221.0194 H   0  0  0  0  0  0  0  0  0  0  0  0
  141.4726   79.5481  220.0521 H   0  0  0  0  0  0  0  0  0  0  0  0
  142.0840   80.5510  221.8400 C   0  0  0  0  0  0  0  0  0  0  0  0
  142.8741   81.1227  221.3311 H   0  0  0  0  0  0  0  0  0  0  0  0
  141.1533   81.1358  221.8833 H   0  0  0  0  0  0  0  0  0  0  0  0
  142.5370   80.2370  223.2840 C   0  0  0  0  0  0  0  0  0  0  0  0
  143.6211   80.0517  223.2623 H   0  0  0  0  0  0  0  0  0  0  0  0
  142.2670   81.4370  224.2010 C   0  0  0  0  0  0  0  0  0  0  0  0
  142.3385   81.1190  225.2516 H   0  0  0  0  0  0  0  0  0  0  0  0
  143.0107   82.2233  224.0044 H   0  0  0  0  0  0  0  0  0  0  0  0
  141.2582   81.8290  224.0044 H   0  0  0  0  0  0  0  0  0  0  0  0
  141.8770   78.9480  223.8330 C   0  0  0  0  0  0  0  0  0  0  0  0
  142.5605   78.1004  223.6766 H   0  0  0  0  0  0  0  0  0  0  0  0
  141.6739   79.0901  224.9047 H   0  0  0  0  0  0  0  0  0  0  0  0
  140.5500   78.6580  223.1220 C   0  0  0  0  0  0  0  0  0  0  0  0
  140.0935   77.7629  223.5697 H   0  0  0  0  0  0  0  0  0  0  0  0
  139.8968   79.5348  223.2425 H   0  0  0  0  0  0  0  0  0  0  0  0
  137.4100   78.2170  222.3480 N   0  0  0  0  0  0  0  0  0  0  0  0
  136.7090   77.1310  222.7250 C   0  0  0  0  0  0  0  0  0  0  0  0
  137.2630   76.0010  222.2270 C   0  0  0  0  0  0  0  0  0  0  0  0
  136.6870   74.7630  222.4970 C   0  0  0  0  0  0  0  0  0  0  0  0
  137.1850   73.7050  222.0260 O   0  0  0  0  0  0  0  0  0  0  0  0
  135.5550   74.7260  223.2800 N   0  0  0  0  0  0  0  0  0  0  0  0
  134.8960   73.4370  223.5540 C   0  0  0  0  0  0  0  0  0  0  0  0
  134.8198   73.2879  224.6412 H   0  0  0  0  0  0  0  0  0  0  0  0
  133.8884   73.4392  223.1127 H   0  0  0  0  0  0  0  0  0  0  0  0
  135.4878   72.6215  223.1127 H   0  0  0  0  0  0  0  0  0  0  0  0
  134.9900   75.9010  223.7450 C   0  0  0  0  0  0  0  0  0  0  0  0
  133.9130   75.8610  224.4050 O   0  0  0  0  0  0  0  0  0  0  0  0
  135.5860   77.1170  223.4940 N   0  0  0  0  0  0  0  0  0  0  0  0
  134.9850   78.3710  223.9670 C   0  0  0  0  0  0  0  0  0  0  0  0
  134.9793   78.3829  225.0669 H   0  0  0  0  0  0  0  0  0  0  0  0
  135.5727   79.2228  223.5941 H   0  0  0  0  0  0  0  0  0  0  0  0
  133.9529   78.4465  223.5941 H   0  0  0  0  0  0  0  0  0  0  0  0
  1  2  1  0
  2  3  2  0
  3  4  1  0
  4  5  1  0
  3  6  1  0
  6  7  1  0
  6  8  1  0
  6  9  1  0
  9 10  1  0
 10 11  1  0
 11 12  1  0
 11 13  1  0
 11 14  1  0
 14 15  1  0
 15 16  1  0
 15 17  1  0
 15 18  1  0
 18 19  1  0
 18 20  1  0
 18 21  1  0
 21 22  1  0
 21 23  1  0
 23 24  1  0
 23 25  1  0
 23 26  1  0
 21 27  1  0
 27 28  1  0
 27 29  1  0
 27 30  1  0
 30 31  1  0
 30 32  1  0
 10 33  2  0
 33 34  1  0
 34 35  2  0
 35 36  1  0
 36 37  2  0
 36 38  1  0
 38 39  1  0
 39 40  1  0
 39 41  1  0
 39 42  1  0
 38 43  1  0
 43 44  2  0
 43 45  1  0
 45 46  1  0
 46 47  1  0
 46 48  1  0
 46 49  1  0
 35  9  1  0
 30 14  1  0
 45 34  1  0
M  END
>  <UniqueID>  (78) 
16

>  <SMILES>  (78) 
[H]/N=C(\O)Cn1c(CN2CCC(C)CC2)nc2c1c(=O)n(C)c(=O)n2C

>  <Energy>  (78) 
97.78650455958997

>  <Genealogy>  (78) 
CC1CCN(Cc2nc3c(c(=O)n(C)c(=O)n3C)n2CC(=N)O)CC1 (tautomer)
[H]/N=C(\O)Cn1c(CN2CCC(C)CC2)nc2c1c(=O)n(C)c(=O)n2C (cis-trans isomerization)
[H]/N=C(\O)Cn1c(CN2CCC(C)CC2)nc2c1c(=O)n(C)c(=O)n2C (3D coordinates assigned)
[H]/N=C(\O)Cn1c(CN2CCC(C)CC2)nc2c1c(=O)n(C)c(=O)n2C (nonaromatic ring conformer: 97.78650455958997 kcal/mol)

>  <smiles>  (78) 
CC1CCN(Cc2nc3c(c(=O)n(C)c(=O)n3C)n2CC(N)=O)CC1

>  <score_type>  (78) 
oracle

>  <origin>  (78) 
autodockgpu

>  <m_score__min__energy>  (78) 
-5.3200000000000003

>  <m_primary>  (78) 
energy

>  <meeko>  (78) 
{"free_energy": -5.21, "intermolecular_energy": -7.0, "internal_energy": -2.42, "cluster_size": 14, "cluster_id": 1, "rank_in_cluster": 4}

>  <energy>  (78) 
-4.99

>  <cluster_rmsd>  (78) 
0.05

>  <rmsd>  (78) 
271.68

>  <cluster>  (78) 
3

$$$$
IQOSOXOZFSRASN-DESYHMSQNA-N
     RDKit          3D

 49 51  0  0  0  0  0  0  0  0999 V2000
  141.5800   76.3440  222.0230 H   0  0  0  0  0  0  0  0  0  0  0  0
  141.4370   75.3320  221.8050 N   0  0  0  0  0  0  0  0  0  0  0  0
  140.2550   74.8020  221.8060 C   0  0  0  0  0  0  0  0  0  0  0  0
  139.9480   73.7570  222.6750 O   0  0  0  0  0  0  0  0  0  0  0  0
  139.0190   73.6470  223.0630 H   0  0  0  0  0  0  0  0  0  0  0  0
  139.2060   75.3210  220.8730 C   0  0  0  0  0  0  0  0  0  0  0  0
  139.6812   75.9529  220.1082 H   0  0  0  0  0  0  0  0  0  0  0  0
  138.6984   74.4694  220.3964 H   0  0  0  0  0  0  0  0  0  0  0  0
  138.2170   76.1140  221.6090 N   0  0  0  0  0  0  0  0  0  0  0  0
  138.2110   77.4630  221.8080 C   0  0  0  0  0  0  0  0  0  0  0  0
  139.2070   78.4160  221.2120 C   0  0  0  0  0  0  0  0  0  0  0  0
  139.2915   78.2238  220.1322 H   0  0  0  0  0  0  0  0  0  0  0  0
  138.8639   79.4465  221.3865 H   0  0  0  0  0  0  0  0  0  0  0  0
  140.5300   78.2380  221.8430 N   0  0  0  0  0  0  0  0  0  0  0  0
  141.6190   78.8830  221.0580 C   0  0  0  0  0  0  0  0  0  0  0  0
  142.4782   78.1971  221.0205 H   0  0  0  0  0  0  0  0  0  0  0  0
  141.2211   79.0960  220.0549 H   0  0  0  0  0  0  0  0  0  0  0  0
  142.0820   80.2150  221.6620 C   0  0  0  0  0  0  0  0  0  0  0  0
  142.8781   80.6388  221.0322 H   0  0  0  0  0  0  0  0  0  0  0  0
  141.2218   80.8993  221.7057 H   0  0  0  0  0  0  0  0  0  0  0  0
  142.6250   80.0110  223.0960 C   0  0  0  0  0  0  0  0  0  0  0  0
  143.6794   79.7077  223.0163 H   0  0  0  0  0  0  0  0  0  0  0  0
  142.5560   81.3250  223.8840 C   0  0  0  0  0  0  0  0  0  0  0  0
  142.5674   81.1070  224.9621 H   0  0  0  0  0  0  0  0  0  0  0  0
  143.4224   81.9523  223.6275 H   0  0  0  0  0  0  0  0  0  0  0  0
  141.6286   81.8581  223.6275 H   0  0  0  0  0  0  0  0  0  0  0  0
  141.8890   78.8680  223.8380 C   0  0  0  0  0  0  0  0  0  0  0  0
  142.4685   77.9392  223.7304 H   0  0  0  0  0  0  0  0  0  0  0  0
  141.7940   79.1462  224.8980 H   0  0  0  0  0  0  0  0  0  0  0  0
  140.4840   78.6490  223.2670 C   0  0  0  0  0  0  0  0  0  0  0  0
  139.9809   77.8628  223.8491 H   0  0  0  0  0  0  0  0  0  0  0  0
  139.9346   79.5997  223.3325 H   0  0  0  0  0  0  0  0  0  0  0  0
  137.1830   77.8880  222.5870 N   0  0  0  0  0  0  0  0  0  0  0  0
  136.5420   76.7440  222.8900 C   0  0  0  0  0  0  0  0  0  0  0  0
  137.1520   75.6810  222.3140 C   0  0  0  0  0  0  0  0  0  0  0  0
  136.6450   74.3980  222.4990 C   0  0  0  0  0  0  0  0  0  0  0  0
  137.1960   73.4040  221.9560 O   0  0  0  0  0  0  0  0  0  0  0  0
  135.5210   74.2480  223.2800 N   0  0  0  0  0  0  0  0  0  0  0  0
  134.9330   72.9100  223.4660 C   0  0  0  0  0  0  0  0  0  0  0  0
  134.8393   72.6969  224.5411 H   0  0  0  0  0  0  0  0  0  0  0  0
  133.9381   72.8784  222.9979 H   0  0  0  0  0  0  0  0  0  0  0  0
  135.5826   72.1557  222.9979 H   0  0  0  0  0  0  0  0  0  0  0  0
  134.8960   75.3560  223.8270 C   0  0  0  0  0  0  0  0  0  0  0  0
  133.8270   75.2130  224.4840 O   0  0  0  0  0  0  0  0  0  0  0  0
  135.4260   76.6170  223.6580 N   0  0  0  0  0  0  0  0  0  0  0  0
  134.7610   77.8010  224.2180 C   0  0  0  0  0  0  0  0  0  0  0  0
  134.7886   77.7518  225.3166 H   0  0  0  0  0  0  0  0  0  0  0  0
  135.2813   78.7087  223.8784 H   0  0  0  0  0  0  0  0  0  0  0  0
  133.7151   77.8291  223.8784 H   0  0  0  0  0  0  0  0  0  0  0  0
  1  2  1  0
  2  3  2  0
  3  4  1  0
  4  5  1  0
  3  6  1  0
  6  7  1  0
  6  8  1  0
  6  9  1  0
  9 10  1  0
 10 11  1  0
 11 12  1  0
 11 13  1  0
 11 14  1  0
 14 15  1  0
 15 16  1  0
 15 17  1  0
 15 18  1  0
 18 19  1  0
 18 20  1  0
 18 21  1  0
 21 22  1  0
 21 23  1  0
 23 24  1  0
 23 25  1  0
 23 26  1  0
 21 27  1  0
 27 28  1  0
 27 29  1  0
 27 30  1  0
 30 31  1  0
 30 32  1  0
 10 33  2  0
 33 34  1  0
 34 35  2  0
 35 36  1  0
 36 37  2  0
 36 38  1  0
 38 39  1  0
 39 40  1  0
 39 41  1  0
 39 42  1  0
 38 43  1  0
 43 44  2  0
 43 45  1  0
 45 46  1  0
 46 47  1  0
 46 48  1  0
 46 49  1  0
 35  9  1  0
 30 14  1  0
 45 34  1  0
M  END
>  <UniqueID>  (79) 
16

>  <SMILES>  (79) 
[H]/N=C(\O)Cn1c(CN2CCC(C)CC2)nc2c1c(=O)n(C)c(=O)n2C

>  <Energy>  (79) 
97.78650455958997

>  <Genealogy>  (79) 
CC1CCN(Cc2nc3c(c(=O)n(C)c(=O)n3C)n2CC(=N)O)CC1 (tautomer)
[H]/N=C(\O)Cn1c(CN2CCC(C)CC2)nc2c1c(=O)n(C)c(=O)n2C (cis-trans isomerization)
[H]/N=C(\O)Cn1c(CN2CCC(C)CC2)nc2c1c(=O)n(C)c(=O)n2C (3D coordinates assigned)
[H]/N=C(\O)Cn1c(CN2CCC(C)CC2)nc2c1c(=O)n(C)c(=O)n2C (nonaromatic ring conformer: 97.78650455958997 kcal/mol)

>  <smiles>  (79) 
CC1CCN(Cc2nc3c(c(=O)n(C)c(=O)n3C)n2CC(N)=O)CC1

>  <score_type>  (79) 
oracle

>  <origin>  (79) 
autodockgpu

>  <m_score__min__energy>  (79) 
-5.3200000000000003

>  <m_primary>  (79) 
energy

>  <meeko>  (79) 
{"free_energy": -5.21, "intermolecular_energy": -7.0, "internal_energy": -2.39, "cluster_size": 14, "cluster_id": 1, "rank_in_cluster": 5}

>  <energy>  (79) 
-4.99

>  <cluster_rmsd>  (79) 
0.65

>  <rmsd>  (79) 
271.71

>  <cluster>  (79) 
3

$$$$
IQOSOXOZFSRASN-DESYHMSQNA-N
     RDKit          3D

 49 51  0  0  0  0  0  0  0  0999 V2000
  141.5600   76.4470  221.9710 H   0  0  0  0  0  0  0  0  0  0  0  0
  141.4380   75.4100  221.9610 N   0  0  0  0  0  0  0  0  0  0  0  0
  140.2680   74.8690  221.8330 C   0  0  0  0  0  0  0  0  0  0  0  0
  139.8980   73.7830  222.6240 O   0  0  0  0  0  0  0  0  0  0  0  0
  138.9490   73.6710  222.9590 H   0  0  0  0  0  0  0  0  0  0  0  0
  139.2990   75.4210  220.8350 C   0  0  0  0  0  0  0  0  0  0  0  0
  139.8530   75.9545  220.0486 H   0  0  0  0  0  0  0  0  0  0  0  0
  138.7262   74.5904  220.3967 H   0  0  0  0  0  0  0  0  0  0  0  0
  138.3690   76.3490  221.4850 N   0  0  0  0  0  0  0  0  0  0  0  0
  138.4450   77.7090  221.5330 C   0  0  0  0  0  0  0  0  0  0  0  0
  139.4870   78.5280  220.8260 C   0  0  0  0  0  0  0  0  0  0  0  0
  139.5960   78.1632  219.7940 H   0  0  0  0  0  0  0  0  0  0  0  0
  139.1713   79.5817  220.8230 H   0  0  0  0  0  0  0  0  0  0  0  0
  140.7850   78.4190  221.5200 N   0  0  0  0  0  0  0  0  0  0  0  0
  141.8220   79.3040  220.9170 C   0  0  0  0  0  0  0  0  0  0  0  0
  142.7645   78.7416  220.8438 H   0  0  0  0  0  0  0  0  0  0  0  0
  141.4555   79.6172  219.9283 H   0  0  0  0  0  0  0  0  0  0  0  0
  142.0720   80.5740  221.7400 C   0  0  0  0  0  0  0  0  0  0  0  0
  142.8385   81.1830  221.2384 H   0  0  0  0  0  0  0  0  0  0  0  0
  141.1278   81.1328  221.8190 H   0  0  0  0  0  0  0  0  0  0  0  0
  142.5580   80.2220  223.1650 C   0  0  0  0  0  0  0  0  0  0  0  0
  143.6458   80.0653  223.1194 H   0  0  0  0  0  0  0  0  0  0  0  0
  142.2750   81.3820  224.1270 C   0  0  0  0  0  0  0  0  0  0  0  0
  142.3615   81.0273  225.1646 H   0  0  0  0  0  0  0  0  0  0  0  0
  143.0028   82.1883  223.9532 H   0  0  0  0  0  0  0  0  0  0  0  0
  141.2577   81.7626  223.9532 H   0  0  0  0  0  0  0  0  0  0  0  0
  141.9400   78.8980  223.6790 C   0  0  0  0  0  0  0  0  0  0  0  0
  142.6415   78.0742  223.4810 H   0  0  0  0  0  0  0  0  0  0  0  0
  141.7525   78.9975  224.7583 H   0  0  0  0  0  0  0  0  0  0  0  0
  140.6080   78.5990  222.9810 C   0  0  0  0  0  0  0  0  0  0  0  0
  140.1818   77.6778  223.4050 H   0  0  0  0  0  0  0  0  0  0  0  0
  139.9354   79.4542  223.1430 H   0  0  0  0  0  0  0  0  0  0  0  0
  137.4550   78.2800  222.2670 N   0  0  0  0  0  0  0  0  0  0  0  0
  136.7530   77.2160  222.7010 C   0  0  0  0  0  0  0  0  0  0  0  0
  137.2910   76.0620  222.2430 C   0  0  0  0  0  0  0  0  0  0  0  0
  136.7120   74.8400  222.5740 C   0  0  0  0  0  0  0  0  0  0  0  0
  137.1960   73.7600  222.1410 O   0  0  0  0  0  0  0  0  0  0  0  0
  135.5930   74.8450  223.3760 N   0  0  0  0  0  0  0  0  0  0  0  0
  134.9300   73.5730  223.7150 C   0  0  0  0  0  0  0  0  0  0  0  0
  134.8753   73.4681  224.8086 H   0  0  0  0  0  0  0  0  0  0  0  0
  133.9135   73.5659  223.2947 H   0  0  0  0  0  0  0  0  0  0  0  0
  135.5064   72.7357  223.2947 H   0  0  0  0  0  0  0  0  0  0  0  0
  135.0420   76.0430  223.8000 C   0  0  0  0  0  0  0  0  0  0  0  0
  133.9760   76.0380  224.4780 O   0  0  0  0  0  0  0  0  0  0  0  0
  135.6430   77.2430  223.4880 N   0  0  0  0  0  0  0  0  0  0  0  0
  135.0570   78.5190  223.9170 C   0  0  0  0  0  0  0  0  0  0  0  0
  135.0371   78.5623  225.0160 H   0  0  0  0  0  0  0  0  0  0  0  0
  135.6636   79.3502  223.5282 H   0  0  0  0  0  0  0  0  0  0  0  0
  134.0312   78.6005  223.5282 H   0  0  0  0  0  0  0  0  0  0  0  0
  1  2  1  0
  2  3  2  0
  3  4  1  0
  4  5  1  0
  3  6  1  0
  6  7  1  0
  6  8  1  0
  6  9  1  0
  9 10  1  0
 10 11  1  0
 11 12  1  0
 11 13  1  0
 11 14  1  0
 14 15  1  0
 15 16  1  0
 15 17  1  0
 15 18  1  0
 18 19  1  0
 18 20  1  0
 18 21  1  0
 21 22  1  0
 21 23  1  0
 23 24  1  0
 23 25  1  0
 23 26  1  0
 21 27  1  0
 27 28  1  0
 27 29  1  0
 27 30  1  0
 30 31  1  0
 30 32  1  0
 10 33  2  0
 33 34  1  0
 34 35  2  0
 35 36  1  0
 36 37  2  0
 36 38  1  0
 38 39  1  0
 39 40  1  0
 39 41  1  0
 39 42  1  0
 38 43  1  0
 43 44  2  0
 43 45  1  0
 45 46  1  0
 46 47  1  0
 46 48  1  0
 46 49  1  0
 35  9  1  0
 30 14  1  0
 45 34  1  0
M  END
>  <UniqueID>  (80) 
16

>  <SMILES>  (80) 
[H]/N=C(\O)Cn1c(CN2CCC(C)CC2)nc2c1c(=O)n(C)c(=O)n2C

>  <Energy>  (80) 
97.78650455958997

>  <Genealogy>  (80) 
CC1CCN(Cc2nc3c(c(=O)n(C)c(=O)n3C)n2CC(=N)O)CC1 (tautomer)
[H]/N=C(\O)Cn1c(CN2CCC(C)CC2)nc2c1c(=O)n(C)c(=O)n2C (cis-trans isomerization)
[H]/N=C(\O)Cn1c(CN2CCC(C)CC2)nc2c1c(=O)n(C)c(=O)n2C (3D coordinates assigned)
[H]/N=C(\O)Cn1c(CN2CCC(C)CC2)nc2c1c(=O)n(C)c(=O)n2C (nonaromatic ring conformer: 97.78650455958997 kcal/mol)

>  <smiles>  (80) 
CC1CCN(Cc2nc3c(c(=O)n(C)c(=O)n3C)n2CC(N)=O)CC1

>  <score_type>  (80) 
oracle

>  <origin>  (80) 
autodockgpu

>  <m_score__min__energy>  (80) 
-5.3200000000000003

>  <m_primary>  (80) 
energy

>  <meeko>  (80) 
{"free_energy": -5.16, "intermolecular_energy": -6.95, "internal_energy": -2.44, "cluster_size": 14, "cluster_id": 1, "rank_in_cluster": 13}

>  <energy>  (80) 
-4.98

>  <cluster_rmsd>  (80) 
0.65

>  <rmsd>  (80) 
271.72

>  <cluster>  (80) 
3

$$$$
