
     RDKit          3D

 56 59  0  0  0  0  0  0  0  0999 V2000
  141.8780   80.1840  222.6260 C   0  0  0  0  0  0  0  0  0  0  0  0
  141.1400   78.8750  222.6490 C   0  0  0  0  0  0  0  0  0  0  0  0
  140.1300   78.8250  223.3750 O   0  0  0  0  0  0  0  0  0  0  0  0
  141.5910   77.7950  221.8850 N   0  0  0  0  0  0  0  0  0  0  0  0
  141.0100   76.5120  221.8010 C   0  0  0  0  0  0  0  0  0  0  0  0
  141.7340   75.4980  221.1980 C   0  0  0  0  0  0  0  0  0  0  0  0
  141.2280   74.2260  221.0830 C   0  0  0  0  0  0  0  0  0  0  0  0
  139.9610   73.8730  221.5620 C   0  0  0  0  0  0  0  0  0  0  0  0
  139.5000   72.5190  221.4050 C   0  0  0  0  0  0  0  0  0  0  0  0
  138.6310   71.9110  222.1930 C   0  0  0  0  0  0  0  0  0  0  0  0
  139.0560   71.1290  223.3520 C   0  0  0  0  0  0  0  0  0  0  0  0
  139.7900   71.7690  224.2800 N   0  0  0  0  0  0  0  0  0  0  0  0
  140.2190   71.1630  225.3790 C   0  0  0  0  0  0  0  0  0  0  0  0
  140.9720   71.8300  226.3260 C   0  0  0  0  0  0  0  0  0  0  0  0
  141.4150   71.1800  227.4760 C   0  0  0  0  0  0  0  0  0  0  0  0
  141.0750   69.8500  227.6370 C   0  0  0  0  0  0  0  0  0  0  0  0
  140.3220   69.2000  226.6830 C   0  0  0  0  0  0  0  0  0  0  0  0
  139.8930   67.5050  226.8960 Cl  0  0  0  0  0  0  0  0  0  0  0  0
  139.8800   69.8290  225.5450 C   0  0  0  0  0  0  0  0  0  0  0  0
  139.1260   69.1900  224.5830 C   0  0  0  0  0  0  0  0  0  0  0  0
  138.8560   67.9790  224.7990 O   0  0  0  0  0  0  0  0  0  0  0  0
  138.6960   69.8350  223.4570 N   0  0  0  0  0  0  0  0  0  0  0  0
  137.9200   69.1370  222.4950 C   0  0  0  0  0  0  0  0  0  0  0  0
  136.5480   68.7170  222.8550 C   0  0  0  0  0  0  0  0  0  0  0  0
  135.9940   69.2370  224.1360 C   0  0  0  0  0  0  0  0  0  0  0  0
  134.5650   68.7940  224.3120 C   0  0  0  0  0  0  0  0  0  0  0  0
  134.2750   67.6280  223.5020 N   0  0  0  0  0  0  0  0  0  0  0  0
  134.3580   67.9020  222.0960 C   0  0  0  0  0  0  0  0  0  0  0  0
  135.5260   68.8350  221.7450 C   0  0  0  0  0  0  0  0  0  0  0  0
  139.2470   74.8780  222.1580 C   0  0  0  0  0  0  0  0  0  0  0  0
  139.7660   76.1730  222.2740 C   0  0  0  0  0  0  0  0  0  0  0  0
  142.0659   80.5172  223.6574 H   0  0  0  0  0  0  0  0  0  0  0  0
  142.8365   80.0554  222.1019 H   0  0  0  0  0  0  0  0  0  0  0  0
  141.2718   80.9375  222.1019 H   0  0  0  0  0  0  0  0  0  0  0  0
  142.4680   77.9690  221.3060 H   0  0  0  0  0  0  0  0  0  0  0  0
  142.7369   75.7156  220.8020 H   0  0  0  0  0  0  0  0  0  0  0  0
  141.8425   73.4548  220.5955 H   0  0  0  0  0  0  0  0  0  0  0  0
  139.9042   71.9428  220.5596 H   0  0  0  0  0  0  0  0  0  0  0  0
  137.5571   71.9959  221.9703 H   0  0  0  0  0  0  0  0  0  0  0  0
  141.2253   72.8890  226.1699 H   0  0  0  0  0  0  0  0  0  0  0  0
  142.0157   71.7081  228.2312 H   0  0  0  0  0  0  0  0  0  0  0  0
  141.4079   69.3062  228.5333 H   0  0  0  0  0  0  0  0  0  0  0  0
  137.8377   69.7879  221.6121 H   0  0  0  0  0  0  0  0  0  0  0  0
  138.4601   68.1891  222.3546 H   0  0  0  0  0  0  0  0  0  0  0  0
  136.7284   67.6462  223.0307 H   0  0  0  0  0  0  0  0  0  0  0  0
  136.5971   68.8547  224.9727 H   0  0  0  0  0  0  0  0  0  0  0  0
  136.0255   70.3364  224.1167 H   0  0  0  0  0  0  0  0  0  0  0  0
  134.3933   68.5476  225.3702 H   0  0  0  0  0  0  0  0  0  0  0  0
  133.9042   69.6134  223.9927 H   0  0  0  0  0  0  0  0  0  0  0  0
  134.7620   66.7780  223.8240 H   0  0  0  0  0  0  0  0  0  0  0  0
  134.4926   66.9515  221.5590 H   0  0  0  0  0  0  0  0  0  0  0  0
  133.4269   68.4069  221.7991 H   0  0  0  0  0  0  0  0  0  0  0  0
  135.9744   68.5323  220.7872 H   0  0  0  0  0  0  0  0  0  0  0  0
  135.1776   69.8737  221.6463 H   0  0  0  0  0  0  0  0  0  0  0  0
  138.2436   74.6631  222.5543 H   0  0  0  0  0  0  0  0  0  0  0  0
  139.1553   76.9471  222.7617 H   0  0  0  0  0  0  0  0  0  0  0  0
  1  2  1  0
  2  3  2  0
  2  4  1  0
  4  5  1  0
  5  6  2  0
  6  7  1  0
  7  8  2  0
  8  9  1  0
  9 10  2  0
 10 11  1  0
 11 12  2  0
 12 13  1  0
 13 14  2  0
 14 15  1  0
 15 16  2  0
 16 17  1  0
 17 18  1  0
 17 19  2  0
 19 20  1  0
 20 21  2  0
 20 22  1  0
 22 23  1  0
 23 24  1  0
 24 25  1  0
 25 26  1  0
 26 27  1  0
 27 28  1  0
 28 29  1  0
  8 30  1  0
 30 31  2  0
 31  5  1  0
 22 11  1  0
 29 24  1  0
 19 13  1  0
  1 32  1  0
  1 33  1  0
  1 34  1  0
  4 35  1  0
  6 36  1  0
  7 37  1  0
  9 38  1  0
 10 39  1  0
 14 40  1  0
 15 41  1  0
 16 42  1  0
 23 43  1  0
 23 44  1  0
 24 45  1  0
 25 46  1  0
 25 47  1  0
 26 48  1  0
 26 49  1  0
 27 50  1  0
 28 51  1  0
 28 52  1  0
 29 53  1  0
 29 54  1  0
 30 55  1  0
 31 56  1  0
M  END
>  <smiles>  (1) 
CC(=O)Nc1ccc(/C=C/c2nc3cccc(Cl)c3c(=O)n2CC2CCNCC2)cc1

>  <score_type>  (1) 
oracle

>  <origin>  (1) 
autodockgpu

>  <m_score__min__energy>  (1) 
-8.9299999999999997

>  <m_primary>  (1) 
energy

>  <meeko>  (1) 
{"free_energy": -8.55, "intermolecular_energy": -10.34, "internal_energy": -1.35, "cluster_size": 4, "cluster_id": 2, "rank_in_cluster": 4}

>  <energy>  (1) 
-8.93

>  <cluster_rmsd>  (1) 
0.0

>  <rmsd>  (1) 
271.12

>  <cluster>  (1) 
1

$$$$

     RDKit          3D

 56 59  0  0  0  0  0  0  0  0999 V2000
  141.7310   79.9930  222.4500 C   0  0  0  0  0  0  0  0  0  0  0  0
  141.5190   78.5150  222.6250 C   0  0  0  0  0  0  0  0  0  0  0  0
  141.7500   78.0560  223.7590 O   0  0  0  0  0  0  0  0  0  0  0  0
  141.0850   77.7310  221.5530 N   0  0  0  0  0  0  0  0  0  0  0  0
  140.8410   76.3420  221.5600 C   0  0  0  0  0  0  0  0  0  0  0  0
  139.6030   75.8910  221.9830 C   0  0  0  0  0  0  0  0  0  0  0  0
  139.2990   74.5510  222.0160 C   0  0  0  0  0  0  0  0  0  0  0  0
  140.2110   73.5630  221.6270 C   0  0  0  0  0  0  0  0  0  0  0  0
  139.8200   72.1790  221.6890 C   0  0  0  0  0  0  0  0  0  0  0  0
  138.9220   71.6750  222.5160 C   0  0  0  0  0  0  0  0  0  0  0  0
  139.2970   71.1040  223.8080 C   0  0  0  0  0  0  0  0  0  0  0  0
  139.9950   71.8970  224.6430 N   0  0  0  0  0  0  0  0  0  0  0  0
  140.3770   71.4900  225.8450 C   0  0  0  0  0  0  0  0  0  0  0  0
  141.0930   72.3120  226.6930 C   0  0  0  0  0  0  0  0  0  0  0  0
  141.4870   71.8700  227.9550 C   0  0  0  0  0  0  0  0  0  0  0  0
  141.1380   70.5860  228.3270 C   0  0  0  0  0  0  0  0  0  0  0  0
  140.4230   69.7790  227.4680 C   0  0  0  0  0  0  0  0  0  0  0  0
  139.9820   68.1430  227.9500 Cl  0  0  0  0  0  0  0  0  0  0  0  0
  140.0290   70.2020  226.2230 C   0  0  0  0  0  0  0  0  0  0  0  0
  139.3130   69.4040  225.3540 C   0  0  0  0  0  0  0  0  0  0  0  0
  139.0320   68.2460  225.7630 O   0  0  0  0  0  0  0  0  0  0  0  0
  138.9310   69.8450  224.1190 N   0  0  0  0  0  0  0  0  0  0  0  0
  138.1940   68.9900  223.2590 C   0  0  0  0  0  0  0  0  0  0  0  0
  136.7460   68.8050  223.5080 C   0  0  0  0  0  0  0  0  0  0  0  0
  136.0930   69.7590  224.4460 C   0  0  0  0  0  0  0  0  0  0  0  0
  134.6120   69.4950  224.5220 C   0  0  0  0  0  0  0  0  0  0  0  0
  134.2980   68.1470  224.0930 N   0  0  0  0  0  0  0  0  0  0  0  0
  134.5960   67.9290  222.7060 C   0  0  0  0  0  0  0  0  0  0  0  0
  135.8990   68.6130  222.2680 C   0  0  0  0  0  0  0  0  0  0  0  0
  141.4350   74.0120  221.2090 C   0  0  0  0  0  0  0  0  0  0  0  0
  141.7410   75.3770  221.1770 C   0  0  0  0  0  0  0  0  0  0  0  0
  141.7999   80.4730  223.4374 H   0  0  0  0  0  0  0  0  0  0  0  0
  142.6632   80.1662  221.8923 H   0  0  0  0  0  0  0  0  0  0  0  0
  140.8851   80.4213  221.8923 H   0  0  0  0  0  0  0  0  0  0  0  0
  140.9220   78.2470  220.6350 H   0  0  0  0  0  0  0  0  0  0  0  0
  138.8446   76.6219  222.3002 H   0  0  0  0  0  0  0  0  0  0  0  0
  138.3010   74.2433  222.3613 H   0  0  0  0  0  0  0  0  0  0  0  0
  140.3092   71.4843  220.9904 H   0  0  0  0  0  0  0  0  0  0  0  0
  137.8615   71.6853  222.2240 H   0  0  0  0  0  0  0  0  0  0  0  0
  141.3560   73.3295  226.3681 H   0  0  0  0  0  0  0  0  0  0  0  0
  142.0573   72.5223  228.6327 H   0  0  0  0  0  0  0  0  0  0  0  0
  141.4328   70.2049  229.3158 H   0  0  0  0  0  0  0  0  0  0  0  0
  138.2985   69.3888  222.2392 H   0  0  0  0  0  0  0  0  0  0  0  0
  138.6248   67.9942  223.4403 H   0  0  0  0  0  0  0  0  0  0  0  0
  136.7765   67.8452  224.0445 H   0  0  0  0  0  0  0  0  0  0  0  0
  136.5334   69.6409  225.4470 H   0  0  0  0  0  0  0  0  0  0  0  0
  136.2530   70.7837  224.0793 H   0  0  0  0  0  0  0  0  0  0  0  0
  134.2765   69.6283  225.5611 H   0  0  0  0  0  0  0  0  0  0  0  0
  134.0972   70.2020  223.8548 H   0  0  0  0  0  0  0  0  0  0  0  0
  134.6370   67.4240  224.7440 H   0  0  0  0  0  0  0  0  0  0  0  0
  134.6901   66.8470  222.5316 H   0  0  0  0  0  0  0  0  0  0  0  0
  133.7761   68.3649  222.1163 H   0  0  0  0  0  0  0  0  0  0  0  0
  136.4313   67.9797  221.5430 H   0  0  0  0  0  0  0  0  0  0  0  0
  135.6886   69.5795  221.7868 H   0  0  0  0  0  0  0  0  0  0  0  0
  142.1951   73.2831  220.8911 H   0  0  0  0  0  0  0  0  0  0  0  0
  142.7381   75.6888  220.8328 H   0  0  0  0  0  0  0  0  0  0  0  0
  1  2  1  0
  2  3  2  0
  2  4  1  0
  4  5  1  0
  5  6  2  0
  6  7  1  0
  7  8  2  0
  8  9  1  0
  9 10  2  0
 10 11  1  0
 11 12  2  0
 12 13  1  0
 13 14  2  0
 14 15  1  0
 15 16  2  0
 16 17  1  0
 17 18  1  0
 17 19  2  0
 19 20  1  0
 20 21  2  0
 20 22  1  0
 22 23  1  0
 23 24  1  0
 24 25  1  0
 25 26  1  0
 26 27  1  0
 27 28  1  0
 28 29  1  0
  8 30  1  0
 30 31  2  0
 31  5  1  0
 22 11  1  0
 29 24  1  0
 19 13  1  0
  1 32  1  0
  1 33  1  0
  1 34  1  0
  4 35  1  0
  6 36  1  0
  7 37  1  0
  9 38  1  0
 10 39  1  0
 14 40  1  0
 15 41  1  0
 16 42  1  0
 23 43  1  0
 23 44  1  0
 24 45  1  0
 25 46  1  0
 25 47  1  0
 26 48  1  0
 26 49  1  0
 27 50  1  0
 28 51  1  0
 28 52  1  0
 29 53  1  0
 29 54  1  0
 30 55  1  0
 31 56  1  0
M  END
>  <smiles>  (2) 
CC(=O)Nc1ccc(/C=C/c2nc3cccc(Cl)c3c(=O)n2CC2CCNCC2)cc1

>  <score_type>  (2) 
oracle

>  <origin>  (2) 
autodockgpu

>  <m_score__min__energy>  (2) 
-8.9299999999999997

>  <m_primary>  (2) 
energy

>  <meeko>  (2) 
{"free_energy": -8.61, "intermolecular_energy": -10.4, "internal_energy": -1.45, "cluster_size": 4, "cluster_id": 2, "rank_in_cluster": 3}

>  <energy>  (2) 
-8.77

>  <cluster_rmsd>  (2) 
0.0

>  <rmsd>  (2) 
270.38

>  <cluster>  (2) 
2

$$$$

     RDKit          3D

 56 59  0  0  0  0  0  0  0  0999 V2000
  131.3260   72.8890  227.9170 C   0  0  0  0  0  0  0  0  0  0  0  0
  132.0040   72.1920  226.7710 C   0  0  0  0  0  0  0  0  0  0  0  0
  131.3490   72.1020  225.7160 O   0  0  0  0  0  0  0  0  0  0  0  0
  133.2990   71.6860  226.9160 N   0  0  0  0  0  0  0  0  0  0  0  0
  134.0620   71.0130  225.9400 C   0  0  0  0  0  0  0  0  0  0  0  0
  134.1940   69.6390  226.0370 C   0  0  0  0  0  0  0  0  0  0  0  0
  134.9240   68.9210  225.1200 C   0  0  0  0  0  0  0  0  0  0  0  0
  135.5760   69.5250  224.0380 C   0  0  0  0  0  0  0  0  0  0  0  0
  136.3220   68.7070  223.1190 C   0  0  0  0  0  0  0  0  0  0  0  0
  137.6250   68.4920  223.1700 C   0  0  0  0  0  0  0  0  0  0  0  0
  138.4570   69.0480  224.2350 C   0  0  0  0  0  0  0  0  0  0  0  0
  138.7800   68.2210  225.2470 N   0  0  0  0  0  0  0  0  0  0  0  0
  139.5410   68.6120  226.2600 C   0  0  0  0  0  0  0  0  0  0  0  0
  139.8660   67.7550  227.2940 C   0  0  0  0  0  0  0  0  0  0  0  0
  140.6670   68.1800  228.3520 C   0  0  0  0  0  0  0  0  0  0  0  0
  141.1250   69.4840  228.3300 C   0  0  0  0  0  0  0  0  0  0  0  0
  140.7920   70.3260  227.2910 C   0  0  0  0  0  0  0  0  0  0  0  0
  141.3790   71.9860  227.2710 Cl  0  0  0  0  0  0  0  0  0  0  0  0
  140.0030   69.9190  226.2430 C   0  0  0  0  0  0  0  0  0  0  0  0
  139.6620   70.7510  225.1970 C   0  0  0  0  0  0  0  0  0  0  0  0
  140.1160   71.9250  225.2470 O   0  0  0  0  0  0  0  0  0  0  0  0
  138.8750   70.3270  224.1640 N   0  0  0  0  0  0  0  0  0  0  0  0
  138.5520   71.2180  223.1070 C   0  0  0  0  0  0  0  0  0  0  0  0
  139.5390   71.4260  222.0240 C   0  0  0  0  0  0  0  0  0  0  0  0
  140.7140   72.2880  222.3350 C   0  0  0  0  0  0  0  0  0  0  0  0
  141.6630   72.3270  221.1660 C   0  0  0  0  0  0  0  0  0  0  0  0
  140.9930   71.9620  219.9340 N   0  0  0  0  0  0  0  0  0  0  0  0
  140.5390   70.6010  219.9390 C   0  0  0  0  0  0  0  0  0  0  0  0
  139.9750   70.1710  221.3000 C   0  0  0  0  0  0  0  0  0  0  0  0
  135.4440   70.8850  223.9450 C   0  0  0  0  0  0  0  0  0  0  0  0
  134.7000   71.6120  224.8810 C   0  0  0  0  0  0  0  0  0  0  0  0
  131.7120   72.4922  228.8676 H   0  0  0  0  0  0  0  0  0  0  0  0
  131.5287   73.9687  227.8611 H   0  0  0  0  0  0  0  0  0  0  0  0
  130.2411   72.7162  227.8611 H   0  0  0  0  0  0  0  0  0  0  0  0
  133.7500   71.8300  227.8710 H   0  0  0  0  0  0  0  0  0  0  0  0
  133.7035   69.1092  226.8669 H   0  0  0  0  0  0  0  0  0  0  0  0
  134.9988   67.8302  225.2408 H   0  0  0  0  0  0  0  0  0  0  0  0
  135.7616   68.2205  222.3070 H   0  0  0  0  0  0  0  0  0  0  0  0
  138.0964   67.8774  222.3890 H   0  0  0  0  0  0  0  0  0  0  0  0
  139.4870   66.7224  227.2818 H   0  0  0  0  0  0  0  0  0  0  0  0
  140.9262   67.5004  229.1772 H   0  0  0  0  0  0  0  0  0  0  0  0
  141.7605   69.8527  229.1486 H   0  0  0  0  0  0  0  0  0  0  0  0
  137.6309   70.8423  222.6374 H   0  0  0  0  0  0  0  0  0  0  0  0
  138.4843   72.2001  223.5979 H   0  0  0  0  0  0  0  0  0  0  0  0
  138.9225   72.0150  221.3290 H   0  0  0  0  0  0  0  0  0  0  0  0
  140.3667   73.3086  222.5536 H   0  0  0  0  0  0  0  0  0  0  0  0
  141.2400   71.8719  223.2069 H   0  0  0  0  0  0  0  0  0  0  0  0
  142.0676   73.3450  221.0663 H   0  0  0  0  0  0  0  0  0  0  0  0
  142.4716   71.6042  221.3498 H   0  0  0  0  0  0  0  0  0  0  0  0
  140.3050   72.6640  219.6230 H   0  0  0  0  0  0  0  0  0  0  0  0
  139.7505   70.4900  219.1801 H   0  0  0  0  0  0  0  0  0  0  0  0
  141.4060   69.9602  219.7206 H   0  0  0  0  0  0  0  0  0  0  0  0
  139.1143   69.5013  221.1561 H   0  0  0  0  0  0  0  0  0  0  0  0
  140.7349   69.6297  221.8827 H   0  0  0  0  0  0  0  0  0  0  0  0
  135.9336   71.4176  223.1163 H   0  0  0  0  0  0  0  0  0  0  0  0
  134.6232   72.7031  224.7646 H   0  0  0  0  0  0  0  0  0  0  0  0
  1  2  1  0
  2  3  2  0
  2  4  1  0
  4  5  1  0
  5  6  2  0
  6  7  1  0
  7  8  2  0
  8  9  1  0
  9 10  2  0
 10 11  1  0
 11 12  2  0
 12 13  1  0
 13 14  2  0
 14 15  1  0
 15 16  2  0
 16 17  1  0
 17 18  1  0
 17 19  2  0
 19 20  1  0
 20 21  2  0
 20 22  1  0
 22 23  1  0
 23 24  1  0
 24 25  1  0
 25 26  1  0
 26 27  1  0
 27 28  1  0
 28 29  1  0
  8 30  1  0
 30 31  2  0
 31  5  1  0
 22 11  1  0
 29 24  1  0
 19 13  1  0
  1 32  1  0
  1 33  1  0
  1 34  1  0
  4 35  1  0
  6 36  1  0
  7 37  1  0
  9 38  1  0
 10 39  1  0
 14 40  1  0
 15 41  1  0
 16 42  1  0
 23 43  1  0
 23 44  1  0
 24 45  1  0
 25 46  1  0
 25 47  1  0
 26 48  1  0
 26 49  1  0
 27 50  1  0
 28 51  1  0
 28 52  1  0
 29 53  1  0
 29 54  1  0
 30 55  1  0
 31 56  1  0
M  END
>  <smiles>  (3) 
CC(=O)Nc1ccc(/C=C/c2nc3cccc(Cl)c3c(=O)n2CC2CCNCC2)cc1

>  <score_type>  (3) 
oracle

>  <origin>  (3) 
autodockgpu

>  <m_score__min__energy>  (3) 
-8.9299999999999997

>  <m_primary>  (3) 
energy

>  <meeko>  (3) 
{"free_energy": -7.69, "intermolecular_energy": -9.48, "internal_energy": -1.85, "cluster_size": 4, "cluster_id": 5, "rank_in_cluster": 3}

>  <energy>  (3) 
-8.68

>  <cluster_rmsd>  (3) 
0.96

>  <rmsd>  (3) 
270.83

>  <cluster>  (3) 
2

$$$$

     RDKit          3D

 56 59  0  0  0  0  0  0  0  0999 V2000
  132.9530   71.4460  227.2790 C   0  0  0  0  0  0  0  0  0  0  0  0
  133.5630   72.5820  226.5070 C   0  0  0  0  0  0  0  0  0  0  0  0
  133.2890   73.7290  226.9060 O   0  0  0  0  0  0  0  0  0  0  0  0
  134.3880   72.3280  225.4080 N   0  0  0  0  0  0  0  0  0  0  0  0
  135.0300   73.2810  224.5900 C   0  0  0  0  0  0  0  0  0  0  0  0
  134.9920   74.6110  224.9700 C   0  0  0  0  0  0  0  0  0  0  0  0
  135.5970   75.5900  224.2190 C   0  0  0  0  0  0  0  0  0  0  0  0
  136.2830   75.3110  223.0310 C   0  0  0  0  0  0  0  0  0  0  0  0
  136.8910   76.3910  222.2980 C   0  0  0  0  0  0  0  0  0  0  0  0
  138.1080   76.8640  222.5030 C   0  0  0  0  0  0  0  0  0  0  0  0
  139.2970   76.1810  221.9980 C   0  0  0  0  0  0  0  0  0  0  0  0
  139.3800   74.8570  222.2250 N   0  0  0  0  0  0  0  0  0  0  0  0
  140.4060   74.1320  221.8010 C   0  0  0  0  0  0  0  0  0  0  0  0
  140.4810   72.7740  222.0410 C   0  0  0  0  0  0  0  0  0  0  0  0
  141.5660   72.0260  221.5880 C   0  0  0  0  0  0  0  0  0  0  0  0
  142.5600   72.6870  220.8920 C   0  0  0  0  0  0  0  0  0  0  0  0
  142.4690   74.0430  220.6620 C   0  0  0  0  0  0  0  0  0  0  0  0
  143.7410   74.8790  219.7740 Cl  0  0  0  0  0  0  0  0  0  0  0  0
  141.4060   74.7920  221.1030 C   0  0  0  0  0  0  0  0  0  0  0  0
  141.3030   76.1490  220.8790 C   0  0  0  0  0  0  0  0  0  0  0  0
  142.2480   76.6820  220.2380 O   0  0  0  0  0  0  0  0  0  0  0  0
  140.2360   76.8760  221.3260 N   0  0  0  0  0  0  0  0  0  0  0  0
  140.1720   78.2700  221.0710 C   0  0  0  0  0  0  0  0  0  0  0  0
  141.1650   79.1590  221.7150 C   0  0  0  0  0  0  0  0  0  0  0  0
  141.2030   80.5760  221.2590 C   0  0  0  0  0  0  0  0  0  0  0  0
  142.1970   81.3650  222.0690 C   0  0  0  0  0  0  0  0  0  0  0  0
  143.1710   80.4940  222.6970 N   0  0  0  0  0  0  0  0  0  0  0  0
  142.5790   79.6210  223.6690 C   0  0  0  0  0  0  0  0  0  0  0  0
  141.2110   79.0840  223.2260 C   0  0  0  0  0  0  0  0  0  0  0  0
  136.3190   73.9940  222.6570 C   0  0  0  0  0  0  0  0  0  0  0  0
  135.7030   73.0000  223.4250 C   0  0  0  0  0  0  0  0  0  0  0  0
  133.0562   71.6382  228.3572 H   0  0  0  0  0  0  0  0  0  0  0  0
  131.8869   71.3591  227.0225 H   0  0  0  0  0  0  0  0  0  0  0  0
  133.4694   70.5093  227.0225 H   0  0  0  0  0  0  0  0  0  0  0  0
  134.5440   71.3010  225.1710 H   0  0  0  0  0  0  0  0  0  0  0  0
  134.4655   74.8910  225.8943 H   0  0  0  0  0  0  0  0  0  0  0  0
  135.5401   76.6328  224.5645 H   0  0  0  0  0  0  0  0  0  0  0  0
  136.2939   76.8607  221.5025 H   0  0  0  0  0  0  0  0  0  0  0  0
  138.2293   77.7987  223.0701 H   0  0  0  0  0  0  0  0  0  0  0  0
  139.6732   72.2760  222.5974 H   0  0  0  0  0  0  0  0  0  0  0  0
  141.6291   70.9444  221.7783 H   0  0  0  0  0  0  0  0  0  0  0  0
  143.4302   72.1270  220.5188 H   0  0  0  0  0  0  0  0  0  0  0  0
  140.2742   78.4049  219.9841 H   0  0  0  0  0  0  0  0  0  0  0  0
  139.2131   78.5776  221.5135 H   0  0  0  0  0  0  0  0  0  0  0  0
  142.0897   78.7056  221.3285 H   0  0  0  0  0  0  0  0  0  0  0  0
  141.4942   80.6072  220.1987 H   0  0  0  0  0  0  0  0  0  0  0  0
  140.2049   81.0190  221.3918 H   0  0  0  0  0  0  0  0  0  0  0  0
  142.7206   82.0700  221.4066 H   0  0  0  0  0  0  0  0  0  0  0  0
  141.6529   81.9050  222.8579 H   0  0  0  0  0  0  0  0  0  0  0  0
  143.8100   80.0480  222.0220 H   0  0  0  0  0  0  0  0  0  0  0  0
  143.2547   78.7691  223.8350 H   0  0  0  0  0  0  0  0  0  0  0  0
  142.4257   80.2033  224.5896 H   0  0  0  0  0  0  0  0  0  0  0  0
  141.0917   78.0411  223.5548 H   0  0  0  0  0  0  0  0  0  0  0  0
  140.3978   79.6770  223.6700 H   0  0  0  0  0  0  0  0  0  0  0  0
  136.8438   73.7115  221.7324 H   0  0  0  0  0  0  0  0  0  0  0  0
  135.7593   71.9557  223.0841 H   0  0  0  0  0  0  0  0  0  0  0  0
  1  2  1  0
  2  3  2  0
  2  4  1  0
  4  5  1  0
  5  6  2  0
  6  7  1  0
  7  8  2  0
  8  9  1  0
  9 10  2  0
 10 11  1  0
 11 12  2  0
 12 13  1  0
 13 14  2  0
 14 15  1  0
 15 16  2  0
 16 17  1  0
 17 18  1  0
 17 19  2  0
 19 20  1  0
 20 21  2  0
 20 22  1  0
 22 23  1  0
 23 24  1  0
 24 25  1  0
 25 26  1  0
 26 27  1  0
 27 28  1  0
 28 29  1  0
  8 30  1  0
 30 31  2  0
 31  5  1  0
 22 11  1  0
 29 24  1  0
 19 13  1  0
  1 32  1  0
  1 33  1  0
  1 34  1  0
  4 35  1  0
  6 36  1  0
  7 37  1  0
  9 38  1  0
 10 39  1  0
 14 40  1  0
 15 41  1  0
 16 42  1  0
 23 43  1  0
 23 44  1  0
 24 45  1  0
 25 46  1  0
 25 47  1  0
 26 48  1  0
 26 49  1  0
 27 50  1  0
 28 51  1  0
 28 52  1  0
 29 53  1  0
 29 54  1  0
 30 55  1  0
 31 56  1  0
M  END
>  <smiles>  (4) 
CC(=O)Nc1ccc(/C=C/c2nc3cccc(Cl)c3c(=O)n2CC2CCNCC2)cc1

>  <score_type>  (4) 
oracle

>  <origin>  (4) 
autodockgpu

>  <m_score__min__energy>  (4) 
-8.9299999999999997

>  <m_primary>  (4) 
energy

>  <meeko>  (4) 
{"free_energy": -7.99, "intermolecular_energy": -9.78, "internal_energy": -1.37, "cluster_size": 1, "cluster_id": 8, "rank_in_cluster": 1}

>  <energy>  (4) 
-8.61

>  <cluster_rmsd>  (4) 
0.9

>  <rmsd>  (4) 
270.86

>  <cluster>  (4) 
2

$$$$

     RDKit          3D

 56 59  0  0  0  0  0  0  0  0999 V2000
  141.6440   79.9390  222.8580 C   0  0  0  0  0  0  0  0  0  0  0  0
  140.8510   78.6640  222.7930 C   0  0  0  0  0  0  0  0  0  0  0  0
  139.7540   78.6680  223.3820 O   0  0  0  0  0  0  0  0  0  0  0  0
  141.3470   77.5570  222.1000 N   0  0  0  0  0  0  0  0  0  0  0  0
  140.7240   76.3000  221.9500 C   0  0  0  0  0  0  0  0  0  0  0  0
  141.4940   75.2280  221.5340 C   0  0  0  0  0  0  0  0  0  0  0  0
  140.9510   73.9760  221.3670 C   0  0  0  0  0  0  0  0  0  0  0  0
  139.5980   73.7050  221.6030 C   0  0  0  0  0  0  0  0  0  0  0  0
  139.1030   72.3680  221.4060 C   0  0  0  0  0  0  0  0  0  0  0  0
  138.3080   71.7170  222.2370 C   0  0  0  0  0  0  0  0  0  0  0  0
  138.8310   70.9660  223.3770 C   0  0  0  0  0  0  0  0  0  0  0  0
  139.5100   71.6660  224.3040 N   0  0  0  0  0  0  0  0  0  0  0  0
  140.0180   71.0930  225.3870 C   0  0  0  0  0  0  0  0  0  0  0  0
  140.7140   71.8200  226.3320 C   0  0  0  0  0  0  0  0  0  0  0  0
  141.2410   71.2030  227.4650 C   0  0  0  0  0  0  0  0  0  0  0  0
  141.0430   69.8430  227.6100 C   0  0  0  0  0  0  0  0  0  0  0  0
  140.3460   69.1320  226.6570 C   0  0  0  0  0  0  0  0  0  0  0  0
  140.0980   67.3980  226.8490 Cl  0  0  0  0  0  0  0  0  0  0  0  0
  139.8220   69.7280  225.5360 C   0  0  0  0  0  0  0  0  0  0  0  0
  139.1220   69.0280  224.5750 C   0  0  0  0  0  0  0  0  0  0  0  0
  138.9830   67.7920  224.7760 O   0  0  0  0  0  0  0  0  0  0  0  0
  138.6090   69.6410  223.4670 N   0  0  0  0  0  0  0  0  0  0  0  0
  137.8940   68.8800  222.5050 C   0  0  0  0  0  0  0  0  0  0  0  0
  136.5100   68.4590  222.8160 C   0  0  0  0  0  0  0  0  0  0  0  0
  135.8680   69.0710  224.0120 C   0  0  0  0  0  0  0  0  0  0  0  0
  134.4390   68.6090  224.1390 C   0  0  0  0  0  0  0  0  0  0  0  0
  134.2220   67.3730  223.4150 N   0  0  0  0  0  0  0  0  0  0  0  0
  134.3880   67.5310  221.9980 C   0  0  0  0  0  0  0  0  0  0  0  0
  135.5570   68.4600  221.6400 C   0  0  0  0  0  0  0  0  0  0  0  0
  138.8390   74.7670  222.0140 C   0  0  0  0  0  0  0  0  0  0  0  0
  139.3960   76.0400  222.1840 C   0  0  0  0  0  0  0  0  0  0  0  0
  141.8138   80.2120  223.9100 H   0  0  0  0  0  0  0  0  0  0  0  0
  142.6120   79.7948  222.3558 H   0  0  0  0  0  0  0  0  0  0  0  0
  141.0866   80.7435  222.3558 H   0  0  0  0  0  0  0  0  0  0  0  0
  142.2990   77.6850  221.6390 H   0  0  0  0  0  0  0  0  0  0  0  0
  142.5645   75.3810  221.3324 H   0  0  0  0  0  0  0  0  0  0  0  0
  141.6047   73.1559  221.0353 H   0  0  0  0  0  0  0  0  0  0  0  0
  139.4117   71.8452  220.4887 H   0  0  0  0  0  0  0  0  0  0  0  0
  137.2216   71.7409  222.0660 H   0  0  0  0  0  0  0  0  0  0  0  0
  140.8546   72.9015  226.1886 H   0  0  0  0  0  0  0  0  0  0  0  0
  141.7964   71.7797  228.2193 H   0  0  0  0  0  0  0  0  0  0  0  0
  141.4447   69.3240  228.4927 H   0  0  0  0  0  0  0  0  0  0  0  0
  137.8502   69.4810  221.5847 H   0  0  0  0  0  0  0  0  0  0  0  0
  138.4528   67.9345  222.4444 H   0  0  0  0  0  0  0  0  0  0  0  0
  136.6987   67.4112  223.0927 H   0  0  0  0  0  0  0  0  0  0  0  0
  136.4254   68.7754  224.9131 H   0  0  0  0  0  0  0  0  0  0  0  0
  135.8794   70.1653  223.9008 H   0  0  0  0  0  0  0  0  0  0  0  0
  134.2072   68.4476  225.2021 H   0  0  0  0  0  0  0  0  0  0  0  0
  133.7835   69.3825  223.7123 H   0  0  0  0  0  0  0  0  0  0  0  0
  134.7040   66.5660  223.8360 H   0  0  0  0  0  0  0  0  0  0  0  0
  134.5745   66.5425  221.5528 H   0  0  0  0  0  0  0  0  0  0  0  0
  133.4677   67.9867  221.6037 H   0  0  0  0  0  0  0  0  0  0  0  0
  136.0697   68.0900  220.7399 H   0  0  0  0  0  0  0  0  0  0  0  0
  135.1957   69.4781  221.4328 H   0  0  0  0  0  0  0  0  0  0  0  0
  137.7680   74.6171  222.2152 H   0  0  0  0  0  0  0  0  0  0  0  0
  138.7460   76.8624  222.5173 H   0  0  0  0  0  0  0  0  0  0  0  0
  1  2  1  0
  2  3  2  0
  2  4  1  0
  4  5  1  0
  5  6  2  0
  6  7  1  0
  7  8  2  0
  8  9  1  0
  9 10  2  0
 10 11  1  0
 11 12  2  0
 12 13  1  0
 13 14  2  0
 14 15  1  0
 15 16  2  0
 16 17  1  0
 17 18  1  0
 17 19  2  0
 19 20  1  0
 20 21  2  0
 20 22  1  0
 22 23  1  0
 23 24  1  0
 24 25  1  0
 25 26  1  0
 26 27  1  0
 27 28  1  0
 28 29  1  0
  8 30  1  0
 30 31  2  0
 31  5  1  0
 22 11  1  0
 29 24  1  0
 19 13  1  0
  1 32  1  0
  1 33  1  0
  1 34  1  0
  4 35  1  0
  6 36  1  0
  7 37  1  0
  9 38  1  0
 10 39  1  0
 14 40  1  0
 15 41  1  0
 16 42  1  0
 23 43  1  0
 23 44  1  0
 24 45  1  0
 25 46  1  0
 25 47  1  0
 26 48  1  0
 26 49  1  0
 27 50  1  0
 28 51  1  0
 28 52  1  0
 29 53  1  0
 29 54  1  0
 30 55  1  0
 31 56  1  0
M  END
>  <smiles>  (5) 
CC(=O)Nc1ccc(/C=C/c2nc3cccc(Cl)c3c(=O)n2CC2CCNCC2)cc1

>  <score_type>  (5) 
oracle

>  <origin>  (5) 
autodockgpu

>  <m_score__min__energy>  (5) 
-8.9299999999999997

>  <m_primary>  (5) 
energy

>  <meeko>  (5) 
{"free_energy": -8.77, "intermolecular_energy": -10.55, "internal_energy": -1.42, "cluster_size": 4, "cluster_id": 2, "rank_in_cluster": 1}

>  <energy>  (5) 
-8.55

>  <cluster_rmsd>  (5) 
0.33

>  <rmsd>  (5) 
270.49

>  <cluster>  (5) 
2

$$$$

     RDKit          3D

 56 59  0  0  0  0  0  0  0  0999 V2000
  132.2190   73.7080  227.5440 C   0  0  0  0  0  0  0  0  0  0  0  0
  133.2300   73.0670  226.6350 C   0  0  0  0  0  0  0  0  0  0  0  0
  134.1730   73.7900  226.2640 O   0  0  0  0  0  0  0  0  0  0  0  0
  133.0890   71.7310  226.2500 N   0  0  0  0  0  0  0  0  0  0  0  0
  133.9490   70.9940  225.4090 C   0  0  0  0  0  0  0  0  0  0  0  0
  134.2190   69.6760  225.7340 C   0  0  0  0  0  0  0  0  0  0  0  0
  135.0470   68.9010  224.9580 C   0  0  0  0  0  0  0  0  0  0  0  0
  135.6670   69.3870  223.8020 C   0  0  0  0  0  0  0  0  0  0  0  0
  136.5230   68.5140  223.0400 C   0  0  0  0  0  0  0  0  0  0  0  0
  137.8410   68.5860  222.9950 C   0  0  0  0  0  0  0  0  0  0  0  0
  138.6250   69.1170  224.1080 C   0  0  0  0  0  0  0  0  0  0  0  0
  138.8810   68.2740  225.1260 N   0  0  0  0  0  0  0  0  0  0  0  0
  139.5930   68.6410  226.1820 C   0  0  0  0  0  0  0  0  0  0  0  0
  139.8490   67.7690  227.2220 C   0  0  0  0  0  0  0  0  0  0  0  0
  140.6000   68.1700  228.3250 C   0  0  0  0  0  0  0  0  0  0  0  0
  141.0790   69.4660  228.3430 C   0  0  0  0  0  0  0  0  0  0  0  0
  140.8140   70.3240  227.2970 C   0  0  0  0  0  0  0  0  0  0  0  0
  141.4280   71.9750  227.3280 Cl  0  0  0  0  0  0  0  0  0  0  0  0
  140.0750   69.9420  226.2050 C   0  0  0  0  0  0  0  0  0  0  0  0
  139.8030   70.7900  225.1520 C   0  0  0  0  0  0  0  0  0  0  0  0
  140.2730   71.9560  225.2390 O   0  0  0  0  0  0  0  0  0  0  0  0
  139.0660   70.3890  224.0740 N   0  0  0  0  0  0  0  0  0  0  0  0
  138.8130   71.2970  223.0120 C   0  0  0  0  0  0  0  0  0  0  0  0
  139.9370   71.7060  222.1410 C   0  0  0  0  0  0  0  0  0  0  0  0
  140.2860   70.7970  221.0140 C   0  0  0  0  0  0  0  0  0  0  0  0
  141.3840   71.3950  220.1740 C   0  0  0  0  0  0  0  0  0  0  0  0
  142.1290   72.3910  220.9170 N   0  0  0  0  0  0  0  0  0  0  0  0
  141.3280   73.5300  221.2630 C   0  0  0  0  0  0  0  0  0  0  0  0
  139.8990   73.1450  221.6740 C   0  0  0  0  0  0  0  0  0  0  0  0
  135.3990   70.6920  223.4830 C   0  0  0  0  0  0  0  0  0  0  0  0
  134.5540   71.4770  224.2750 C   0  0  0  0  0  0  0  0  0  0  0  0
  132.5021   73.5285  228.5917 H   0  0  0  0  0  0  0  0  0  0  0  0
  132.1884   74.7908  227.3528 H   0  0  0  0  0  0  0  0  0  0  0  0
  131.2266   73.2738  227.3528 H   0  0  0  0  0  0  0  0  0  0  0  0
  132.2370   71.2230  226.6390 H   0  0  0  0  0  0  0  0  0  0  0  0
  133.7606   69.2392  226.6335 H   0  0  0  0  0  0  0  0  0  0  0  0
  135.2293   67.8583  225.2573 H   0  0  0  0  0  0  0  0  0  0  0  0
  136.0396   67.7232  222.4475 H   0  0  0  0  0  0  0  0  0  0  0  0
  138.3641   68.2359  222.0929 H   0  0  0  0  0  0  0  0  0  0  0  0
  139.4543   66.7431  227.1789 H   0  0  0  0  0  0  0  0  0  0  0  0
  140.8050   67.4773  229.1546 H   0  0  0  0  0  0  0  0  0  0  0  0
  141.6761   69.8156  229.1981 H   0  0  0  0  0  0  0  0  0  0  0  0
  138.0541   70.8337  222.3643 H   0  0  0  0  0  0  0  0  0  0  0  0
  138.5191   72.2267  223.5212 H   0  0  0  0  0  0  0  0  0  0  0  0
  140.7654   71.6095  222.8583 H   0  0  0  0  0  0  0  0  0  0  0  0
  140.6249   69.8320  221.4190 H   0  0  0  0  0  0  0  0  0  0  0  0
  139.3954   70.6527  220.3847 H   0  0  0  0  0  0  0  0  0  0  0  0
  142.0702   70.5953  219.8584 H   0  0  0  0  0  0  0  0  0  0  0  0
  140.9276   71.8821  219.2997 H   0  0  0  0  0  0  0  0  0  0  0  0
  142.6930   71.9890  221.6820 H   0  0  0  0  0  0  0  0  0  0  0  0
  141.8066   74.0551  222.1028 H   0  0  0  0  0  0  0  0  0  0  0  0
  141.2569   74.1702  220.3713 H   0  0  0  0  0  0  0  0  0  0  0  0
  139.5536   73.7966  222.4902 H   0  0  0  0  0  0  0  0  0  0  0  0
  139.2058   73.2615  220.8279 H   0  0  0  0  0  0  0  0  0  0  0  0
  135.8578   71.1320  222.5853 H   0  0  0  0  0  0  0  0  0  0  0  0
  134.3674   72.5196  223.9782 H   0  0  0  0  0  0  0  0  0  0  0  0
  1  2  1  0
  2  3  2  0
  2  4  1  0
  4  5  1  0
  5  6  2  0
  6  7  1  0
  7  8  2  0
  8  9  1  0
  9 10  2  0
 10 11  1  0
 11 12  2  0
 12 13  1  0
 13 14  2  0
 14 15  1  0
 15 16  2  0
 16 17  1  0
 17 18  1  0
 17 19  2  0
 19 20  1  0
 20 21  2  0
 20 22  1  0
 22 23  1  0
 23 24  1  0
 24 25  1  0
 25 26  1  0
 26 27  1  0
 27 28  1  0
 28 29  1  0
  8 30  1  0
 30 31  2  0
 31  5  1  0
 22 11  1  0
 29 24  1  0
 19 13  1  0
  1 32  1  0
  1 33  1  0
  1 34  1  0
  4 35  1  0
  6 36  1  0
  7 37  1  0
  9 38  1  0
 10 39  1  0
 14 40  1  0
 15 41  1  0
 16 42  1  0
 23 43  1  0
 23 44  1  0
 24 45  1  0
 25 46  1  0
 25 47  1  0
 26 48  1  0
 26 49  1  0
 27 50  1  0
 28 51  1  0
 28 52  1  0
 29 53  1  0
 29 54  1  0
 30 55  1  0
 31 56  1  0
M  END
>  <smiles>  (6) 
CC(=O)Nc1ccc(/C=C/c2nc3cccc(Cl)c3c(=O)n2CC2CCNCC2)cc1

>  <score_type>  (6) 
oracle

>  <origin>  (6) 
autodockgpu

>  <m_score__min__energy>  (6) 
-8.9299999999999997

>  <m_primary>  (6) 
energy

>  <meeko>  (6) 
{"free_energy": -8.19, "intermolecular_energy": -9.98, "internal_energy": -1.76, "cluster_size": 4, "cluster_id": 5, "rank_in_cluster": 2}

>  <energy>  (6) 
-8.76

>  <cluster_rmsd>  (6) 
0.0

>  <rmsd>  (6) 
269.7

>  <cluster>  (6) 
3

$$$$

     RDKit          3D

 56 59  0  0  0  0  0  0  0  0999 V2000
  145.9530   67.3650  218.5150 C   0  0  0  0  0  0  0  0  0  0  0  0
  144.6930   67.5880  219.3030 C   0  0  0  0  0  0  0  0  0  0  0  0
  144.8270   68.1320  220.4150 O   0  0  0  0  0  0  0  0  0  0  0  0
  143.4560   67.1950  218.7860 N   0  0  0  0  0  0  0  0  0  0  0  0
  142.1940   67.3360  219.4000 C   0  0  0  0  0  0  0  0  0  0  0  0
  141.7510   68.6090  219.7140 C   0  0  0  0  0  0  0  0  0  0  0  0
  140.5320   68.8180  220.3130 C   0  0  0  0  0  0  0  0  0  0  0  0
  139.6660   67.7690  220.6430 C   0  0  0  0  0  0  0  0  0  0  0  0
  138.4050   68.0660  221.2700 C   0  0  0  0  0  0  0  0  0  0  0  0
  138.0750   67.7520  222.5100 C   0  0  0  0  0  0  0  0  0  0  0  0
  138.6860   68.4100  223.6620 C   0  0  0  0  0  0  0  0  0  0  0  0
  139.2860   67.6150  224.5680 N   0  0  0  0  0  0  0  0  0  0  0  0
  139.8850   68.1020  225.6450 C   0  0  0  0  0  0  0  0  0  0  0  0
  140.4980   67.2770  226.5680 C   0  0  0  0  0  0  0  0  0  0  0  0
  141.1240   67.8050  227.6960 C   0  0  0  0  0  0  0  0  0  0  0  0
  141.1120   69.1770  227.8580 C   0  0  0  0  0  0  0  0  0  0  0  0
  140.4960   69.9860  226.9270 C   0  0  0  0  0  0  0  0  0  0  0  0
  140.4850   71.7340  227.1410 Cl  0  0  0  0  0  0  0  0  0  0  0  0
  139.8760   69.4790  225.8120 C   0  0  0  0  0  0  0  0  0  0  0  0
  139.2560   70.2770  224.8730 C   0  0  0  0  0  0  0  0  0  0  0  0
  139.2860   71.5180  225.0890 O   0  0  0  0  0  0  0  0  0  0  0  0
  138.6440   69.7520  223.7700 N   0  0  0  0  0  0  0  0  0  0  0  0
  138.0210   70.6130  222.8290 C   0  0  0  0  0  0  0  0  0  0  0  0
  138.7010   71.8740  222.4580 C   0  0  0  0  0  0  0  0  0  0  0  0
  140.1880   71.8450  222.3830 C   0  0  0  0  0  0  0  0  0  0  0  0
  140.7190   73.1720  221.9070 C   0  0  0  0  0  0  0  0  0  0  0  0
  139.7530   74.2300  222.1230 N   0  0  0  0  0  0  0  0  0  0  0  0
  138.5640   74.0560  221.3390 C   0  0  0  0  0  0  0  0  0  0  0  0
  138.1210   72.5890  221.2560 C   0  0  0  0  0  0  0  0  0  0  0  0
  140.1070   66.5100  220.3320 C   0  0  0  0  0  0  0  0  0  0  0  0
  141.3490   66.3020  219.7210 C   0  0  0  0  0  0  0  0  0  0  0  0
  146.7959   67.2158  219.2058 H   0  0  0  0  0  0  0  0  0  0  0  0
  145.8362   66.4736  217.8812 H   0  0  0  0  0  0  0  0  0  0  0  0
  146.1492   68.2424  217.8812 H   0  0  0  0  0  0  0  0  0  0  0  0
  143.4780   66.7410  217.8220 H   0  0  0  0  0  0  0  0  0  0  0  0
  142.3894   69.4734  219.4787 H   0  0  0  0  0  0  0  0  0  0  0  0
  140.2250   69.8492  220.5419 H   0  0  0  0  0  0  0  0  0  0  0  0
  137.6544   68.5982  220.6672 H   0  0  0  0  0  0  0  0  0  0  0  0
  137.3180   66.9722  222.6799 H   0  0  0  0  0  0  0  0  0  0  0  0
  140.4921   66.1883  226.4106 H   0  0  0  0  0  0  0  0  0  0  0  0
  141.6118   67.1505  228.4333 H   0  0  0  0  0  0  0  0  0  0  0  0
  141.5976   69.6272  228.7364 H   0  0  0  0  0  0  0  0  0  0  0  0
  137.8838   70.0350  221.9032 H   0  0  0  0  0  0  0  0  0  0  0  0
  137.1040   70.9448  223.3380 H   0  0  0  0  0  0  0  0  0  0  0  0
  138.4667   72.4739  223.3497 H   0  0  0  0  0  0  0  0  0  0  0  0
  140.5965   71.6288  223.3812 H   0  0  0  0  0  0  0  0  0  0  0  0
  140.4928   71.0641  221.6708 H   0  0  0  0  0  0  0  0  0  0  0  0
  141.6403   73.4089  222.4593 H   0  0  0  0  0  0  0  0  0  0  0  0
  140.9216   73.0998  220.8282 H   0  0  0  0  0  0  0  0  0  0  0  0
  139.6060   74.4480  223.1200 H   0  0  0  0  0  0  0  0  0  0  0  0
  137.7530   74.6437  221.7939 H   0  0  0  0  0  0  0  0  0  0  0  0
  138.7866   74.3951  220.3165 H   0  0  0  0  0  0  0  0  0  0  0  0
  137.0230   72.5259  221.2743 H   0  0  0  0  0  0  0  0  0  0  0  0
  138.4739   72.1283  220.3215 H   0  0  0  0  0  0  0  0  0  0  0  0
  139.4713   65.6437  220.5675 H   0  0  0  0  0  0  0  0  0  0  0  0
  141.6597   65.2725  219.4894 H   0  0  0  0  0  0  0  0  0  0  0  0
  1  2  1  0
  2  3  2  0
  2  4  1  0
  4  5  1  0
  5  6  2  0
  6  7  1  0
  7  8  2  0
  8  9  1  0
  9 10  2  0
 10 11  1  0
 11 12  2  0
 12 13  1  0
 13 14  2  0
 14 15  1  0
 15 16  2  0
 16 17  1  0
 17 18  1  0
 17 19  2  0
 19 20  1  0
 20 21  2  0
 20 22  1  0
 22 23  1  0
 23 24  1  0
 24 25  1  0
 25 26  1  0
 26 27  1  0
 27 28  1  0
 28 29  1  0
  8 30  1  0
 30 31  2  0
 31  5  1  0
 22 11  1  0
 29 24  1  0
 19 13  1  0
  1 32  1  0
  1 33  1  0
  1 34  1  0
  4 35  1  0
  6 36  1  0
  7 37  1  0
  9 38  1  0
 10 39  1  0
 14 40  1  0
 15 41  1  0
 16 42  1  0
 23 43  1  0
 23 44  1  0
 24 45  1  0
 25 46  1  0
 25 47  1  0
 26 48  1  0
 26 49  1  0
 27 50  1  0
 28 51  1  0
 28 52  1  0
 29 53  1  0
 29 54  1  0
 30 55  1  0
 31 56  1  0
M  END
>  <smiles>  (7) 
CC(=O)Nc1ccc(/C=C/c2nc3cccc(Cl)c3c(=O)n2CC2CCNCC2)cc1

>  <score_type>  (7) 
oracle

>  <origin>  (7) 
autodockgpu

>  <m_score__min__energy>  (7) 
-8.9299999999999997

>  <m_primary>  (7) 
energy

>  <meeko>  (7) 
{"free_energy": -8.76, "intermolecular_energy": -10.55, "internal_energy": -1.53, "cluster_size": 4, "cluster_id": 3, "rank_in_cluster": 1}

>  <energy>  (7) 
-8.51

>  <cluster_rmsd>  (7) 
0.45

>  <rmsd>  (7) 
269.72

>  <cluster>  (7) 
3

$$$$

     RDKit          3D

 56 59  0  0  0  0  0  0  0  0999 V2000
  145.7400   68.3110  217.9010 C   0  0  0  0  0  0  0  0  0  0  0  0
  144.6320   68.1390  218.9020 C   0  0  0  0  0  0  0  0  0  0  0  0
  144.9670   68.1470  220.1010 O   0  0  0  0  0  0  0  0  0  0  0  0
  143.3110   67.9820  218.4760 N   0  0  0  0  0  0  0  0  0  0  0  0
  142.1700   67.8110  219.2870 C   0  0  0  0  0  0  0  0  0  0  0  0
  141.7360   66.5250  219.5540 C   0  0  0  0  0  0  0  0  0  0  0  0
  140.6320   66.2870  220.3380 C   0  0  0  0  0  0  0  0  0  0  0  0
  139.8810   67.3190  220.9120 C   0  0  0  0  0  0  0  0  0  0  0  0
  138.7360   66.9920  221.7210 C   0  0  0  0  0  0  0  0  0  0  0  0
  138.1060   67.8280  222.5270 C   0  0  0  0  0  0  0  0  0  0  0  0
  138.7860   68.4900  223.6380 C   0  0  0  0  0  0  0  0  0  0  0  0
  139.1810   67.7090  224.6600 N   0  0  0  0  0  0  0  0  0  0  0  0
  139.8190   68.1980  225.7140 C   0  0  0  0  0  0  0  0  0  0  0  0
  140.2200   67.3880  226.7580 C   0  0  0  0  0  0  0  0  0  0  0  0
  140.8900   67.9170  227.8600 C   0  0  0  0  0  0  0  0  0  0  0  0
  141.1390   69.2760  227.8710 C   0  0  0  0  0  0  0  0  0  0  0  0
  140.7320   70.0710  226.8210 C   0  0  0  0  0  0  0  0  0  0  0  0
  141.0550   71.8030  226.8430 Cl  0  0  0  0  0  0  0  0  0  0  0  0
  140.0710   69.5620  225.7300 C   0  0  0  0  0  0  0  0  0  0  0  0
  139.6590   70.3460  224.6730 C   0  0  0  0  0  0  0  0  0  0  0  0
  139.9220   71.5760  224.7540 O   0  0  0  0  0  0  0  0  0  0  0  0
  139.0030   69.8190  223.5970 N   0  0  0  0  0  0  0  0  0  0  0  0
  138.5990   70.6650  222.5300 C   0  0  0  0  0  0  0  0  0  0  0  0
  137.5180   71.6470  222.7710 C   0  0  0  0  0  0  0  0  0  0  0  0
  137.1920   72.5820  221.6580 C   0  0  0  0  0  0  0  0  0  0  0  0
  136.0190   73.4520  222.0250 C   0  0  0  0  0  0  0  0  0  0  0  0
  135.8430   73.5140  223.4620 N   0  0  0  0  0  0  0  0  0  0  0  0
  135.4940   72.2430  224.0280 C   0  0  0  0  0  0  0  0  0  0  0  0
  136.2530   71.0780  223.3760 C   0  0  0  0  0  0  0  0  0  0  0  0
  140.3120   68.5920  220.6460 C   0  0  0  0  0  0  0  0  0  0  0  0
  141.4370   68.8290  219.8480 C   0  0  0  0  0  0  0  0  0  0  0  0
  146.6928   68.4589  218.4305 H   0  0  0  0  0  0  0  0  0  0  0  0
  145.8068   67.4125  217.2700 H   0  0  0  0  0  0  0  0  0  0  0  0
  145.5313   69.1875  217.2700 H   0  0  0  0  0  0  0  0  0  0  0  0
  143.1580   67.9940  217.4210 H   0  0  0  0  0  0  0  0  0  0  0  0
  142.2870   65.6730  219.1292 H   0  0  0  0  0  0  0  0  0  0  0  0
  140.3274   65.2460  220.5210 H   0  0  0  0  0  0  0  0  0  0  0  0
  138.3545   65.9619  221.6634 H   0  0  0  0  0  0  0  0  0  0  0  0
  137.0385   68.0316  222.3567 H   0  0  0  0  0  0  0  0  0  0  0  0
  140.0076   66.3094  226.7195 H   0  0  0  0  0  0  0  0  0  0  0  0
  141.2098   67.2739  228.6931 H   0  0  0  0  0  0  0  0  0  0  0  0
  141.6663   69.7272  228.7245 H   0  0  0  0  0  0  0  0  0  0  0  0
  139.4866   71.2321  222.2127 H   0  0  0  0  0  0  0  0  0  0  0  0
  138.1713   69.9739  221.7888 H   0  0  0  0  0  0  0  0  0  0  0  0
  138.0059   72.2663  223.5381 H   0  0  0  0  0  0  0  0  0  0  0  0
  138.0650   73.2192  221.4534 H   0  0  0  0  0  0  0  0  0  0  0  0
  136.9329   71.9945  220.7649 H   0  0  0  0  0  0  0  0  0  0  0  0
  136.1914   74.4680  221.6403 H   0  0  0  0  0  0  0  0  0  0  0  0
  135.1108   73.0185  221.5808 H   0  0  0  0  0  0  0  0  0  0  0  0
  136.5970   74.0280  223.9420 H   0  0  0  0  0  0  0  0  0  0  0  0
  135.7291   72.2593  225.1025 H   0  0  0  0  0  0  0  0  0  0  0  0
  134.4204   72.0824  223.8501 H   0  0  0  0  0  0  0  0  0  0  0  0
  136.5054   70.3220  224.1342 H   0  0  0  0  0  0  0  0  0  0  0  0
  135.6358   70.5946  222.6044 H   0  0  0  0  0  0  0  0  0  0  0  0
  139.7622   69.4459  221.0686 H   0  0  0  0  0  0  0  0  0  0  0  0
  141.7459   69.8684  219.6631 H   0  0  0  0  0  0  0  0  0  0  0  0
  1  2  1  0
  2  3  2  0
  2  4  1  0
  4  5  1  0
  5  6  2  0
  6  7  1  0
  7  8  2  0
  8  9  1  0
  9 10  2  0
 10 11  1  0
 11 12  2  0
 12 13  1  0
 13 14  2  0
 14 15  1  0
 15 16  2  0
 16 17  1  0
 17 18  1  0
 17 19  2  0
 19 20  1  0
 20 21  2  0
 20 22  1  0
 22 23  1  0
 23 24  1  0
 24 25  1  0
 25 26  1  0
 26 27  1  0
 27 28  1  0
 28 29  1  0
  8 30  1  0
 30 31  2  0
 31  5  1  0
 22 11  1  0
 29 24  1  0
 19 13  1  0
  1 32  1  0
  1 33  1  0
  1 34  1  0
  4 35  1  0
  6 36  1  0
  7 37  1  0
  9 38  1  0
 10 39  1  0
 14 40  1  0
 15 41  1  0
 16 42  1  0
 23 43  1  0
 23 44  1  0
 24 45  1  0
 25 46  1  0
 25 47  1  0
 26 48  1  0
 26 49  1  0
 27 50  1  0
 28 51  1  0
 28 52  1  0
 29 53  1  0
 29 54  1  0
 30 55  1  0
 31 56  1  0
M  END
>  <smiles>  (8) 
CC(=O)Nc1ccc(/C=C/c2nc3cccc(Cl)c3c(=O)n2CC2CCNCC2)cc1

>  <score_type>  (8) 
oracle

>  <origin>  (8) 
autodockgpu

>  <m_score__min__energy>  (8) 
-8.9299999999999997

>  <m_primary>  (8) 
energy

>  <meeko>  (8) 
{"free_energy": -7.99, "intermolecular_energy": -9.78, "internal_energy": -1.63, "cluster_size": 4, "cluster_id": 3, "rank_in_cluster": 4}

>  <energy>  (8) 
-8.33

>  <cluster_rmsd>  (8) 
1.31

>  <rmsd>  (8) 
269.54

>  <cluster>  (8) 
3

$$$$

     RDKit          3D

 56 59  0  0  0  0  0  0  0  0999 V2000
  141.8090   80.3860  222.8080 C   0  0  0  0  0  0  0  0  0  0  0  0
  141.4930   78.9240  222.9460 C   0  0  0  0  0  0  0  0  0  0  0  0
  141.8540   78.3800  224.0070 O   0  0  0  0  0  0  0  0  0  0  0  0
  140.8280   78.2430  221.9220 N   0  0  0  0  0  0  0  0  0  0  0  0
  140.4630   76.8810  221.9040 C   0  0  0  0  0  0  0  0  0  0  0  0
  139.1730   76.5390  222.2710 C   0  0  0  0  0  0  0  0  0  0  0  0
  138.7520   75.2310  222.2760 C   0  0  0  0  0  0  0  0  0  0  0  0
  139.5890   74.1690  221.9140 C   0  0  0  0  0  0  0  0  0  0  0  0
  139.0750   72.8240  221.9440 C   0  0  0  0  0  0  0  0  0  0  0  0
  139.7930   71.7360  222.1570 C   0  0  0  0  0  0  0  0  0  0  0  0
  139.9250   71.1460  223.4870 C   0  0  0  0  0  0  0  0  0  0  0  0
  140.5120   71.9030  224.4320 N   0  0  0  0  0  0  0  0  0  0  0  0
  140.6730   71.4770  225.6770 C   0  0  0  0  0  0  0  0  0  0  0  0
  141.2760   72.2630  226.6390 C   0  0  0  0  0  0  0  0  0  0  0  0
  141.4380   71.8010  227.9440 C   0  0  0  0  0  0  0  0  0  0  0  0
  140.9740   70.5330  228.2410 C   0  0  0  0  0  0  0  0  0  0  0  0
  140.3740   69.7620  227.2690 C   0  0  0  0  0  0  0  0  0  0  0  0
  139.7860   68.1470  227.6560 Cl  0  0  0  0  0  0  0  0  0  0  0  0
  140.2090   70.2060  225.9800 C   0  0  0  0  0  0  0  0  0  0  0  0
  139.6100   69.4440  224.9980 C   0  0  0  0  0  0  0  0  0  0  0  0
  139.2130   68.3000  225.3440 O   0  0  0  0  0  0  0  0  0  0  0  0
  139.4560   69.9050  223.7210 N   0  0  0  0  0  0  0  0  0  0  0  0
  138.8320   69.0870  222.7440 C   0  0  0  0  0  0  0  0  0  0  0  0
  137.3750   68.8430  222.8440 C   0  0  0  0  0  0  0  0  0  0  0  0
  136.6670   69.4390  224.0110 C   0  0  0  0  0  0  0  0  0  0  0  0
  135.1860   69.1780  223.9190 C   0  0  0  0  0  0  0  0  0  0  0  0
  134.9050   68.0500  223.0540 N   0  0  0  0  0  0  0  0  0  0  0  0
  135.2760   68.3000  221.6900 C   0  0  0  0  0  0  0  0  0  0  0  0
  136.5940   69.0780  221.5690 C   0  0  0  0  0  0  0  0  0  0  0  0
  140.8640   74.5100  221.5520 C   0  0  0  0  0  0  0  0  0  0  0  0
  141.2900   75.8440  221.5480 C   0  0  0  0  0  0  0  0  0  0  0  0
  141.9063   80.8360  223.8070 H   0  0  0  0  0  0  0  0  0  0  0  0
  142.7540   80.5066  222.2580 H   0  0  0  0  0  0  0  0  0  0  0  0
  140.9982   80.8861  222.2580 H   0  0  0  0  0  0  0  0  0  0  0  0
  140.5740   78.8250  221.0670 H   0  0  0  0  0  0  0  0  0  0  0  0
  138.4694   77.3317  222.5651 H   0  0  0  0  0  0  0  0  0  0  0  0
  137.7171   75.0099  222.5761 H   0  0  0  0  0  0  0  0  0  0  0  0
  137.9960   72.6920  221.7757 H   0  0  0  0  0  0  0  0  0  0  0  0
  140.3064   71.2604  221.3084 H   0  0  0  0  0  0  0  0  0  0  0  0
  141.6337   73.2683  226.3716 H   0  0  0  0  0  0  0  0  0  0  0  0
  141.9190   72.4245  228.7120 H   0  0  0  0  0  0  0  0  0  0  0  0
  141.0846   70.1364  229.2610 H   0  0  0  0  0  0  0  0  0  0  0  0
  139.0152   69.5550  221.7655 H   0  0  0  0  0  0  0  0  0  0  0  0
  139.2797   68.0947  222.9021 H   0  0  0  0  0  0  0  0  0  0  0  0
  137.3860   67.7596  223.0341 H   0  0  0  0  0  0  0  0  0  0  0  0
  137.0565   68.9921  224.9376 H   0  0  0  0  0  0  0  0  0  0  0  0
  136.8373   70.5257  224.0135 H   0  0  0  0  0  0  0  0  0  0  0  0
  134.7962   68.9643  224.9252 H   0  0  0  0  0  0  0  0  0  0  0  0
  134.7009   70.0702  223.4963 H   0  0  0  0  0  0  0  0  0  0  0  0
  135.2180   67.1500  223.4460 H   0  0  0  0  0  0  0  0  0  0  0  0
  135.3876   67.3355  221.1730 H   0  0  0  0  0  0  0  0  0  0  0  0
  134.4840   68.9144  221.2369 H   0  0  0  0  0  0  0  0  0  0  0  0
  137.1677   68.7141  220.7038 H   0  0  0  0  0  0  0  0  0  0  0  0
  136.4005   70.1510  221.4234 H   0  0  0  0  0  0  0  0  0  0  0  0
  141.5695   73.7190  221.2578 H   0  0  0  0  0  0  0  0  0  0  0  0
  142.3243   76.0694  221.2489 H   0  0  0  0  0  0  0  0  0  0  0  0
  1  2  1  0
  2  3  2  0
  2  4  1  0
  4  5  1  0
  5  6  2  0
  6  7  1  0
  7  8  2  0
  8  9  1  0
  9 10  2  0
 10 11  1  0
 11 12  2  0
 12 13  1  0
 13 14  2  0
 14 15  1  0
 15 16  2  0
 16 17  1  0
 17 18  1  0
 17 19  2  0
 19 20  1  0
 20 21  2  0
 20 22  1  0
 22 23  1  0
 23 24  1  0
 24 25  1  0
 25 26  1  0
 26 27  1  0
 27 28  1  0
 28 29  1  0
  8 30  1  0
 30 31  2  0
 31  5  1  0
 22 11  1  0
 29 24  1  0
 19 13  1  0
  1 32  1  0
  1 33  1  0
  1 34  1  0
  4 35  1  0
  6 36  1  0
  7 37  1  0
  9 38  1  0
 10 39  1  0
 14 40  1  0
 15 41  1  0
 16 42  1  0
 23 43  1  0
 23 44  1  0
 24 45  1  0
 25 46  1  0
 25 47  1  0
 26 48  1  0
 26 49  1  0
 27 50  1  0
 28 51  1  0
 28 52  1  0
 29 53  1  0
 29 54  1  0
 30 55  1  0
 31 56  1  0
M  END
>  <smiles>  (9) 
CC(=O)Nc1ccc(/C=C/c2nc3cccc(Cl)c3c(=O)n2CC2CCNCC2)cc1

>  <score_type>  (9) 
oracle

>  <origin>  (9) 
autodockgpu

>  <m_score__min__energy>  (9) 
-8.9299999999999997

>  <m_primary>  (9) 
energy

>  <meeko>  (9) 
{"free_energy": -8.68, "intermolecular_energy": -10.47, "internal_energy": -1.45, "cluster_size": 4, "cluster_id": 2, "rank_in_cluster": 2}

>  <energy>  (9) 
-7.99

>  <cluster_rmsd>  (9) 
1.34

>  <rmsd>  (9) 
269.55

>  <cluster>  (9) 
3

$$$$

     RDKit          3D

 56 59  0  0  0  0  0  0  0  0999 V2000
  133.1670   76.4040  226.7900 C   0  0  0  0  0  0  0  0  0  0  0  0
  133.8760   75.2700  226.1050 C   0  0  0  0  0  0  0  0  0  0  0  0
  133.6820   74.1340  226.5770 O   0  0  0  0  0  0  0  0  0  0  0  0
  134.7000   75.5130  225.0030 N   0  0  0  0  0  0  0  0  0  0  0  0
  135.4270   74.5610  224.2590 C   0  0  0  0  0  0  0  0  0  0  0  0
  136.1690   74.9960  223.1740 C   0  0  0  0  0  0  0  0  0  0  0  0
  136.9000   74.1220  222.4070 C   0  0  0  0  0  0  0  0  0  0  0  0
  136.9430   72.7470  222.6670 C   0  0  0  0  0  0  0  0  0  0  0  0
  137.7320   71.8940  221.8170 C   0  0  0  0  0  0  0  0  0  0  0  0
  138.9460   71.4510  222.0950 C   0  0  0  0  0  0  0  0  0  0  0  0
  139.2940   70.9260  223.4130 C   0  0  0  0  0  0  0  0  0  0  0  0
  139.9930   71.7390  224.2260 N   0  0  0  0  0  0  0  0  0  0  0  0
  140.3520   71.3740  225.4480 C   0  0  0  0  0  0  0  0  0  0  0  0
  141.0710   72.2170  226.2740 C   0  0  0  0  0  0  0  0  0  0  0  0
  141.4400   71.8180  227.5570 C   0  0  0  0  0  0  0  0  0  0  0  0
  141.0640   70.5560  227.9740 C   0  0  0  0  0  0  0  0  0  0  0  0
  140.3470   69.7270  227.1380 C   0  0  0  0  0  0  0  0  0  0  0  0
  139.8720   68.1190  227.6770 Cl  0  0  0  0  0  0  0  0  0  0  0  0
  139.9770   70.1070  225.8710 C   0  0  0  0  0  0  0  0  0  0  0  0
  139.2600   69.2880  225.0240 C   0  0  0  0  0  0  0  0  0  0  0  0
  138.9530   68.1520  225.4740 O   0  0  0  0  0  0  0  0  0  0  0  0
  138.9010   69.6860  223.7670 N   0  0  0  0  0  0  0  0  0  0  0  0
  138.1620   68.8100  222.9310 C   0  0  0  0  0  0  0  0  0  0  0  0
  136.7360   68.5630  223.2430 C   0  0  0  0  0  0  0  0  0  0  0  0
  136.1980   69.1790  224.4870 C   0  0  0  0  0  0  0  0  0  0  0  0
  134.7210   68.9110  224.6140 C   0  0  0  0  0  0  0  0  0  0  0  0
  134.3270   67.7650  223.8190 N   0  0  0  0  0  0  0  0  0  0  0  0
  134.4970   67.9880  222.4120 C   0  0  0  0  0  0  0  0  0  0  0  0
  135.7790   68.7690  222.0890 C   0  0  0  0  0  0  0  0  0  0  0  0
  136.2080   72.3190  223.7400 C   0  0  0  0  0  0  0  0  0  0  0  0
  135.4650   73.2130  224.5190 C   0  0  0  0  0  0  0  0  0  0  0  0
  133.2446   76.2798  227.8802 H   0  0  0  0  0  0  0  0  0  0  0  0
  133.6302   77.3573  226.4956 H   0  0  0  0  0  0  0  0  0  0  0  0
  132.1071   76.4050  226.4956 H   0  0  0  0  0  0  0  0  0  0  0  0
  134.7810   76.5310  224.6980 H   0  0  0  0  0  0  0  0  0  0  0  0
  136.1732   76.0664  222.9204 H   0  0  0  0  0  0  0  0  0  0  0  0
  137.4736   74.5175  221.5558 H   0  0  0  0  0  0  0  0  0  0  0  0
  137.2887   71.5859  220.8586 H   0  0  0  0  0  0  0  0  0  0  0  0
  139.7169   71.4785  221.3108 H   0  0  0  0  0  0  0  0  0  0  0  0
  141.3558   73.2165  225.9137 H   0  0  0  0  0  0  0  0  0  0  0  0
  142.0125   72.4866  228.2167 H   0  0  0  0  0  0  0  0  0  0  0  0
  141.3389   70.2097  228.9812 H   0  0  0  0  0  0  0  0  0  0  0  0
  138.2036   69.2230  221.9123 H   0  0  0  0  0  0  0  0  0  0  0  0
  138.6412   67.8312  223.0803 H   0  0  0  0  0  0  0  0  0  0  0  0
  136.7820   67.4837  223.4504 H   0  0  0  0  0  0  0  0  0  0  0  0
  136.7192   68.7522  225.3566 H   0  0  0  0  0  0  0  0  0  0  0  0
  136.3592   70.2662  224.4434 H   0  0  0  0  0  0  0  0  0  0  0  0
  134.4811   68.7153  225.6695 H   0  0  0  0  0  0  0  0  0  0  0  0
  134.1739   69.7930  224.2496 H   0  0  0  0  0  0  0  0  0  0  0  0
  134.6980   66.8730  224.1800 H   0  0  0  0  0  0  0  0  0  0  0  0
  134.5404   67.0136  221.9035 H   0  0  0  0  0  0  0  0  0  0  0  0
  133.6439   68.5891  222.0643 H   0  0  0  0  0  0  0  0  0  0  0  0
  136.2256   68.3904  221.1578 H   0  0  0  0  0  0  0  0  0  0  0  0
  135.5590   69.8381  221.9524 H   0  0  0  0  0  0  0  0  0  0  0  0
  136.2014   71.2490  223.9952 H   0  0  0  0  0  0  0  0  0  0  0  0
  134.8901   72.8216  225.3712 H   0  0  0  0  0  0  0  0  0  0  0  0
  1  2  1  0
  2  3  2  0
  2  4  1  0
  4  5  1  0
  5  6  2  0
  6  7  1  0
  7  8  2  0
  8  9  1  0
  9 10  2  0
 10 11  1  0
 11 12  2  0
 12 13  1  0
 13 14  2  0
 14 15  1  0
 15 16  2  0
 16 17  1  0
 17 18  1  0
 17 19  2  0
 19 20  1  0
 20 21  2  0
 20 22  1  0
 22 23  1  0
 23 24  1  0
 24 25  1  0
 25 26  1  0
 26 27  1  0
 27 28  1  0
 28 29  1  0
  8 30  1  0
 30 31  2  0
 31  5  1  0
 22 11  1  0
 29 24  1  0
 19 13  1  0
  1 32  1  0
  1 33  1  0
  1 34  1  0
  4 35  1  0
  6 36  1  0
  7 37  1  0
  9 38  1  0
 10 39  1  0
 14 40  1  0
 15 41  1  0
 16 42  1  0
 23 43  1  0
 23 44  1  0
 24 45  1  0
 25 46  1  0
 25 47  1  0
 26 48  1  0
 26 49  1  0
 27 50  1  0
 28 51  1  0
 28 52  1  0
 29 53  1  0
 29 54  1  0
 30 55  1  0
 31 56  1  0
M  END
>  <smiles>  (10) 
CC(=O)Nc1ccc(/C=C/c2nc3cccc(Cl)c3c(=O)n2CC2CCNCC2)cc1

>  <score_type>  (10) 
oracle

>  <origin>  (10) 
autodockgpu

>  <m_score__min__energy>  (10) 
-8.9299999999999997

>  <m_primary>  (10) 
energy

>  <meeko>  (10) 
{"free_energy": -8.31, "intermolecular_energy": -10.1, "internal_energy": -1.98, "cluster_size": 4, "cluster_id": 4, "rank_in_cluster": 1}

>  <energy>  (10) 
-8.31

>  <cluster_rmsd>  (10) 
0.0

>  <rmsd>  (10) 
270.24

>  <cluster>  (10) 
4

$$$$

     RDKit          3D

 56 59  0  0  0  0  0  0  0  0999 V2000
  141.2030   80.9390  223.2420 C   0  0  0  0  0  0  0  0  0  0  0  0
  141.0210   79.4480  223.2520 C   0  0  0  0  0  0  0  0  0  0  0  0
  141.7600   78.8080  224.0230 O   0  0  0  0  0  0  0  0  0  0  0  0
  140.0650   78.8460  222.4290 N   0  0  0  0  0  0  0  0  0  0  0  0
  139.7770   77.4690  222.3280 C   0  0  0  0  0  0  0  0  0  0  0  0
  140.8180   76.5940  222.0680 C   0  0  0  0  0  0  0  0  0  0  0  0
  140.6080   75.2400  221.9570 C   0  0  0  0  0  0  0  0  0  0  0  0
  139.3410   74.6620  222.0960 C   0  0  0  0  0  0  0  0  0  0  0  0
  139.2000   73.2350  221.9660 C   0  0  0  0  0  0  0  0  0  0  0  0
  140.1480   72.3480  222.2090 C   0  0  0  0  0  0  0  0  0  0  0  0
  140.0780   71.4350  223.3480 C   0  0  0  0  0  0  0  0  0  0  0  0
  140.6130   71.8650  224.5050 N   0  0  0  0  0  0  0  0  0  0  0  0
  140.5950   71.1280  225.6070 C   0  0  0  0  0  0  0  0  0  0  0  0
  141.1480   71.5790  226.7890 C   0  0  0  0  0  0  0  0  0  0  0  0
  141.1210   70.7920  227.9390 C   0  0  0  0  0  0  0  0  0  0  0  0
  140.5220   69.5500  227.8570 C   0  0  0  0  0  0  0  0  0  0  0  0
  139.9750   69.1150  226.6690 C   0  0  0  0  0  0  0  0  0  0  0  0
  139.2140   67.5290  226.5710 Cl  0  0  0  0  0  0  0  0  0  0  0  0
  139.9960   69.8790  225.5290 C   0  0  0  0  0  0  0  0  0  0  0  0
  139.4510   69.4560  224.3340 C   0  0  0  0  0  0  0  0  0  0  0  0
  138.9240   68.3120  224.3360 O   0  0  0  0  0  0  0  0  0  0  0  0
  139.4830   70.2340  223.2110 N   0  0  0  0  0  0  0  0  0  0  0  0
  138.9080   69.7570  222.0040 C   0  0  0  0  0  0  0  0  0  0  0  0
  139.2500   68.3930  221.5430 C   0  0  0  0  0  0  0  0  0  0  0  0
  138.1900   67.3530  221.6590 C   0  0  0  0  0  0  0  0  0  0  0  0
  138.6610   66.0500  221.0680 C   0  0  0  0  0  0  0  0  0  0  0  0
  140.1070   65.9950  221.0070 N   0  0  0  0  0  0  0  0  0  0  0  0
  140.6570   66.9740  220.1140 C   0  0  0  0  0  0  0  0  0  0  0  0
  139.9210   68.3200  220.1880 C   0  0  0  0  0  0  0  0  0  0  0  0
  138.3130   75.5290  222.3520 C   0  0  0  0  0  0  0  0  0  0  0  0
  138.5310   76.9070  222.4660 C   0  0  0  0  0  0  0  0  0  0  0  0
  141.2483   81.3098  224.2766 H   0  0  0  0  0  0  0  0  0  0  0  0
  142.1385   81.1907  222.7210 H   0  0  0  0  0  0  0  0  0  0  0  0
  140.3555   81.4084  222.7210 H   0  0  0  0  0  0  0  0  0  0  0  0
  139.4960   79.5070  221.8160 H   0  0  0  0  0  0  0  0  0  0  0  0
  141.8366   76.9914  221.9475 H   0  0  0  0  0  0  0  0  0  0  0  0
  141.4683   74.5861  221.7512 H   0  0  0  0  0  0  0  0  0  0  0  0
  138.2226   72.8521  221.6374 H   0  0  0  0  0  0  0  0  0  0  0  0
  141.0153   72.2949  221.5345 H   0  0  0  0  0  0  0  0  0  0  0  0
  141.6165   72.5736  226.8236 H   0  0  0  0  0  0  0  0  0  0  0  0
  141.5624   71.1484  228.8814 H   0  0  0  0  0  0  0  0  0  0  0  0
  140.4813   68.9036  228.7461 H   0  0  0  0  0  0  0  0  0  0  0  0
  137.8158   69.7915  222.1302 H   0  0  0  0  0  0  0  0  0  0  0  0
  139.3308   70.4139  221.2296 H   0  0  0  0  0  0  0  0  0  0  0  0
  140.0005   68.1296  222.3029 H   0  0  0  0  0  0  0  0  0  0  0  0
  137.9464   67.2015  222.7209 H   0  0  0  0  0  0  0  0  0  0  0  0
  137.2990   67.6909  221.1095 H   0  0  0  0  0  0  0  0  0  0  0  0
  138.2963   65.2205  221.6917 H   0  0  0  0  0  0  0  0  0  0  0  0
  138.2658   65.9686  220.0447 H   0  0  0  0  0  0  0  0  0  0  0  0
  140.5500   65.9360  221.9360 H   0  0  0  0  0  0  0  0  0  0  0  0
  141.7133   67.1352  220.3752 H   0  0  0  0  0  0  0  0  0  0  0  0
  140.5467   66.5897  219.0892 H   0  0  0  0  0  0  0  0  0  0  0  0
  140.6376   69.1473  220.0779 H   0  0  0  0  0  0  0  0  0  0  0  0
  139.1781   68.4022  219.3809 H   0  0  0  0  0  0  0  0  0  0  0  0
  137.2932   75.1341  222.4707 H   0  0  0  0  0  0  0  0  0  0  0  0
  137.6734   77.5638  222.6737 H   0  0  0  0  0  0  0  0  0  0  0  0
  1  2  1  0
  2  3  2  0
  2  4  1  0
  4  5  1  0
  5  6  2  0
  6  7  1  0
  7  8  2  0
  8  9  1  0
  9 10  2  0
 10 11  1  0
 11 12  2  0
 12 13  1  0
 13 14  2  0
 14 15  1  0
 15 16  2  0
 16 17  1  0
 17 18  1  0
 17 19  2  0
 19 20  1  0
 20 21  2  0
 20 22  1  0
 22 23  1  0
 23 24  1  0
 24 25  1  0
 25 26  1  0
 26 27  1  0
 27 28  1  0
 28 29  1  0
  8 30  1  0
 30 31  2  0
 31  5  1  0
 22 11  1  0
 29 24  1  0
 19 13  1  0
  1 32  1  0
  1 33  1  0
  1 34  1  0
  4 35  1  0
  6 36  1  0
  7 37  1  0
  9 38  1  0
 10 39  1  0
 14 40  1  0
 15 41  1  0
 16 42  1  0
 23 43  1  0
 23 44  1  0
 24 45  1  0
 25 46  1  0
 25 47  1  0
 26 48  1  0
 26 49  1  0
 27 50  1  0
 28 51  1  0
 28 52  1  0
 29 53  1  0
 29 54  1  0
 30 55  1  0
 31 56  1  0
M  END
>  <smiles>  (11) 
CC(=O)Nc1ccc(/C=C/c2nc3cccc(Cl)c3c(=O)n2CC2CCNCC2)cc1

>  <score_type>  (11) 
oracle

>  <origin>  (11) 
autodockgpu

>  <m_score__min__energy>  (11) 
-8.9299999999999997

>  <m_primary>  (11) 
energy

>  <meeko>  (11) 
{"free_energy": -8.18, "intermolecular_energy": -9.97, "internal_energy": -1.24, "cluster_size": 1, "cluster_id": 6, "rank_in_cluster": 1}

>  <energy>  (11) 
-8.22

>  <cluster_rmsd>  (11) 
0.37

>  <rmsd>  (11) 
270.34

>  <cluster>  (11) 
4

$$$$

     RDKit          3D

 56 59  0  0  0  0  0  0  0  0999 V2000
  145.9780   66.9320  218.4620 C   0  0  0  0  0  0  0  0  0  0  0  0
  144.7250   67.3320  219.1890 C   0  0  0  0  0  0  0  0  0  0  0  0
  144.8660   68.1420  220.1250 O   0  0  0  0  0  0  0  0  0  0  0  0
  143.4880   66.8050  218.8100 N   0  0  0  0  0  0  0  0  0  0  0  0
  142.2320   67.0820  219.3910 C   0  0  0  0  0  0  0  0  0  0  0  0
  141.9030   68.4000  219.6540 C   0  0  0  0  0  0  0  0  0  0  0  0
  140.6970   68.7400  220.2180 C   0  0  0  0  0  0  0  0  0  0  0  0
  139.7310   67.7860  220.5610 C   0  0  0  0  0  0  0  0  0  0  0  0
  138.4900   68.2190  221.1490 C   0  0  0  0  0  0  0  0  0  0  0  0
  138.1100   67.9820  222.3910 C   0  0  0  0  0  0  0  0  0  0  0  0
  138.7870   68.5870  223.5360 C   0  0  0  0  0  0  0  0  0  0  0  0
  139.1960   67.7540  224.5110 N   0  0  0  0  0  0  0  0  0  0  0  0
  139.8330   68.1890  225.5890 C   0  0  0  0  0  0  0  0  0  0  0  0
  140.2470   67.3250  226.5830 C   0  0  0  0  0  0  0  0  0  0  0  0
  140.9160   67.7980  227.7110 C   0  0  0  0  0  0  0  0  0  0  0  0
  141.1510   69.1570  227.7980 C   0  0  0  0  0  0  0  0  0  0  0  0
  140.7310   70.0060  226.7970 C   0  0  0  0  0  0  0  0  0  0  0  0
  141.0340   71.7370  226.9160 Cl  0  0  0  0  0  0  0  0  0  0  0  0
  140.0710   69.5530  225.6810 C   0  0  0  0  0  0  0  0  0  0  0  0
  139.6450   70.3910  224.6720 C   0  0  0  0  0  0  0  0  0  0  0  0
  139.8950   71.6170  224.8220 O   0  0  0  0  0  0  0  0  0  0  0  0
  138.9900   69.9190  223.5700 N   0  0  0  0  0  0  0  0  0  0  0  0
  138.5720   70.8190  222.5550 C   0  0  0  0  0  0  0  0  0  0  0  0
  137.5000   71.7920  222.8630 C   0  0  0  0  0  0  0  0  0  0  0  0
  137.2750   72.8870  221.8790 C   0  0  0  0  0  0  0  0  0  0  0  0
  136.0990   73.7330  222.2900 C   0  0  0  0  0  0  0  0  0  0  0  0
  135.8230   73.5940  223.7050 N   0  0  0  0  0  0  0  0  0  0  0  0
  135.4060   72.2670  224.0560 C   0  0  0  0  0  0  0  0  0  0  0  0
  136.1830   71.1830  223.2940 C   0  0  0  0  0  0  0  0  0  0  0  0
  140.0600   66.4820  220.3000 C   0  0  0  0  0  0  0  0  0  0  0  0
  141.2890   66.1410  219.7250 C   0  0  0  0  0  0  0  0  0  0  0  0
  146.7616   66.6818  219.1923 H   0  0  0  0  0  0  0  0  0  0  0  0
  145.7716   66.0551  217.8308 H   0  0  0  0  0  0  0  0  0  0  0  0
  146.3179   67.7663  217.8308 H   0  0  0  0  0  0  0  0  0  0  0  0
  143.5040   66.1220  217.9920 H   0  0  0  0  0  0  0  0  0  0  0  0
  142.6232   69.1936  219.4060 H   0  0  0  0  0  0  0  0  0  0  0  0
  140.4822   69.8021  220.4073 H   0  0  0  0  0  0  0  0  0  0  0  0
  137.8025   68.7942  220.5114 H   0  0  0  0  0  0  0  0  0  0  0  0
  137.2583   67.3090  222.5692 H   0  0  0  0  0  0  0  0  0  0  0  0
  140.0462   66.2481  226.4836 H   0  0  0  0  0  0  0  0  0  0  0  0
  141.2458   67.1122  228.5053 H   0  0  0  0  0  0  0  0  0  0  0  0
  141.6777   69.5645  228.6735 H   0  0  0  0  0  0  0  0  0  0  0  0
  139.4568   71.3979  222.2516 H   0  0  0  0  0  0  0  0  0  0  0  0
  138.1281   70.1676  221.7878 H   0  0  0  0  0  0  0  0  0  0  0  0
  137.9467   72.2801  223.7418 H   0  0  0  0  0  0  0  0  0  0  0  0
  138.1745   73.5181  221.8279 H   0  0  0  0  0  0  0  0  0  0  0  0
  137.0665   72.4429  220.8945 H   0  0  0  0  0  0  0  0  0  0  0  0
  136.3212   74.7876  222.0696 H   0  0  0  0  0  0  0  0  0  0  0  0
  135.2150   73.3973  221.7280 H   0  0  0  0  0  0  0  0  0  0  0  0
  136.5530   74.0080  224.3040 H   0  0  0  0  0  0  0  0  0  0  0  0
  135.5645   72.1216  225.1348 H   0  0  0  0  0  0  0  0  0  0  0  0
  134.3444   72.1687  223.7852 H   0  0  0  0  0  0  0  0  0  0  0  0
  136.3646   70.3188  223.9499 H   0  0  0  0  0  0  0  0  0  0  0  0
  135.6110   70.8346  222.4214 H   0  0  0  0  0  0  0  0  0  0  0  0
  139.3424   65.6860  220.5478 H   0  0  0  0  0  0  0  0  0  0  0  0
  141.5081   65.0802  219.5334 H   0  0  0  0  0  0  0  0  0  0  0  0
  1  2  1  0
  2  3  2  0
  2  4  1  0
  4  5  1  0
  5  6  2  0
  6  7  1  0
  7  8  2  0
  8  9  1  0
  9 10  2  0
 10 11  1  0
 11 12  2  0
 12 13  1  0
 13 14  2  0
 14 15  1  0
 15 16  2  0
 16 17  1  0
 17 18  1  0
 17 19  2  0
 19 20  1  0
 20 21  2  0
 20 22  1  0
 22 23  1  0
 23 24  1  0
 24 25  1  0
 25 26  1  0
 26 27  1  0
 27 28  1  0
 28 29  1  0
  8 30  1  0
 30 31  2  0
 31  5  1  0
 22 11  1  0
 29 24  1  0
 19 13  1  0
  1 32  1  0
  1 33  1  0
  1 34  1  0
  4 35  1  0
  6 36  1  0
  7 37  1  0
  9 38  1  0
 10 39  1  0
 14 40  1  0
 15 41  1  0
 16 42  1  0
 23 43  1  0
 23 44  1  0
 24 45  1  0
 25 46  1  0
 25 47  1  0
 26 48  1  0
 26 49  1  0
 27 50  1  0
 28 51  1  0
 28 52  1  0
 29 53  1  0
 29 54  1  0
 30 55  1  0
 31 56  1  0
M  END
>  <smiles>  (12) 
CC(=O)Nc1ccc(/C=C/c2nc3cccc(Cl)c3c(=O)n2CC2CCNCC2)cc1

>  <score_type>  (12) 
oracle

>  <origin>  (12) 
autodockgpu

>  <m_score__min__energy>  (12) 
-8.9299999999999997

>  <m_primary>  (12) 
energy

>  <meeko>  (12) 
{"free_energy": -8.33, "intermolecular_energy": -10.12, "internal_energy": -1.42, "cluster_size": 4, "cluster_id": 3, "rank_in_cluster": 3}

>  <energy>  (12) 
-8.15

>  <cluster_rmsd>  (12) 
0.19

>  <rmsd>  (12) 
270.18

>  <cluster>  (12) 
4

$$$$

     RDKit          3D

 56 59  0  0  0  0  0  0  0  0999 V2000
  131.7860   73.0000  227.2400 C   0  0  0  0  0  0  0  0  0  0  0  0
  132.9230   72.3460  226.5070 C   0  0  0  0  0  0  0  0  0  0  0  0
  133.9970   72.9760  226.4830 O   0  0  0  0  0  0  0  0  0  0  0  0
  132.7490   71.1010  225.8980 N   0  0  0  0  0  0  0  0  0  0  0  0
  133.7140   70.3650  225.1790 C   0  0  0  0  0  0  0  0  0  0  0  0
  133.5870   70.2760  223.8040 C   0  0  0  0  0  0  0  0  0  0  0  0
  134.4910   69.5740  223.0430 C   0  0  0  0  0  0  0  0  0  0  0  0
  135.5890   68.9100  223.6010 C   0  0  0  0  0  0  0  0  0  0  0  0
  136.4940   68.1960  222.7380 C   0  0  0  0  0  0  0  0  0  0  0  0
  137.7910   68.4260  222.6330 C   0  0  0  0  0  0  0  0  0  0  0  0
  138.5680   68.9840  223.7380 C   0  0  0  0  0  0  0  0  0  0  0  0
  138.8080   68.1710  224.7830 N   0  0  0  0  0  0  0  0  0  0  0  0
  139.5130   68.5640  225.8350 C   0  0  0  0  0  0  0  0  0  0  0  0
  139.7520   67.7210  226.9020 C   0  0  0  0  0  0  0  0  0  0  0  0
  140.4960   68.1500  228.0000 C   0  0  0  0  0  0  0  0  0  0  0  0
  140.9850   69.4420  227.9830 C   0  0  0  0  0  0  0  0  0  0  0  0
  140.7370   70.2700  226.9100 C   0  0  0  0  0  0  0  0  0  0  0  0
  141.3640   71.9160  226.8960 Cl  0  0  0  0  0  0  0  0  0  0  0  0
  140.0060   69.8600  225.8220 C   0  0  0  0  0  0  0  0  0  0  0  0
  139.7510   70.6790  224.7410 C   0  0  0  0  0  0  0  0  0  0  0  0
  140.2290   71.8430  224.7980 O   0  0  0  0  0  0  0  0  0  0  0  0
  139.0200   70.2510  223.6690 N   0  0  0  0  0  0  0  0  0  0  0  0
  138.7840   71.1280  222.5780 C   0  0  0  0  0  0  0  0  0  0  0  0
  137.5470   71.9400  222.5720 C   0  0  0  0  0  0  0  0  0  0  0  0
  136.6750   71.8380  221.3690 C   0  0  0  0  0  0  0  0  0  0  0  0
  135.4200   72.6490  221.5560 C   0  0  0  0  0  0  0  0  0  0  0  0
  135.6010   73.6670  222.5720 N   0  0  0  0  0  0  0  0  0  0  0  0
  135.8230   73.1090  223.8740 C   0  0  0  0  0  0  0  0  0  0  0  0
  136.7200   71.8630  223.8380 C   0  0  0  0  0  0  0  0  0  0  0  0
  135.7130   69.0000  224.9620 C   0  0  0  0  0  0  0  0  0  0  0  0
  134.7900   69.7150  225.7330 C   0  0  0  0  0  0  0  0  0  0  0  0
  131.9471   72.9073  228.3242 H   0  0  0  0  0  0  0  0  0  0  0  0
  131.7371   74.0643  226.9662 H   0  0  0  0  0  0  0  0  0  0  0  0
  130.8415   72.5072  226.9662 H   0  0  0  0  0  0  0  0  0  0  0  0
  131.7800   70.6680  225.9920 H   0  0  0  0  0  0  0  0  0  0  0  0
  132.7432   70.7786  223.3086 H   0  0  0  0  0  0  0  0  0  0  0  0
  134.3457   69.5326  221.9534 H   0  0  0  0  0  0  0  0  0  0  0  0
  136.0712   67.3937  222.1154 H   0  0  0  0  0  0  0  0  0  0  0  0
  138.3005   68.1908  221.6869 H   0  0  0  0  0  0  0  0  0  0  0  0
  139.3500   66.6972  226.8854 H   0  0  0  0  0  0  0  0  0  0  0  0
  140.6875   67.4815  228.8523 H   0  0  0  0  0  0  0  0  0  0  0  0
  141.5770   69.8126  228.8328 H   0  0  0  0  0  0  0  0  0  0  0  0
  139.6310   71.8286  222.5370 H   0  0  0  0  0  0  0  0  0  0  0  0
  138.6651   70.4550  221.7161 H   0  0  0  0  0  0  0  0  0  0  0  0
  137.9918   72.9449  222.5233 H   0  0  0  0  0  0  0  0  0  0  0  0
  137.2222   72.2150  220.4924 H   0  0  0  0  0  0  0  0  0  0  0  0
  136.3980   70.7840  221.2191 H   0  0  0  0  0  0  0  0  0  0  0  0
  135.1612   73.1345  220.6035 H   0  0  0  0  0  0  0  0  0  0  0  0
  134.6136   71.9740  221.8786 H   0  0  0  0  0  0  0  0  0  0  0  0
  136.2510   74.4140  222.2860 H   0  0  0  0  0  0  0  0  0  0  0  0
  136.3030   73.8704  224.5063 H   0  0  0  0  0  0  0  0  0  0  0  0
  134.8458   72.8042  224.2766 H   0  0  0  0  0  0  0  0  0  0  0  0
  137.3796   71.8485  224.7182 H   0  0  0  0  0  0  0  0  0  0  0  0
  136.1131   70.9457  223.8515 H   0  0  0  0  0  0  0  0  0  0  0  0
  136.5565   68.4993  225.4597 H   0  0  0  0  0  0  0  0  0  0  0  0
  134.9311   69.7582  226.8231 H   0  0  0  0  0  0  0  0  0  0  0  0
  1  2  1  0
  2  3  2  0
  2  4  1  0
  4  5  1  0
  5  6  2  0
  6  7  1  0
  7  8  2  0
  8  9  1  0
  9 10  2  0
 10 11  1  0
 11 12  2  0
 12 13  1  0
 13 14  2  0
 14 15  1  0
 15 16  2  0
 16 17  1  0
 17 18  1  0
 17 19  2  0
 19 20  1  0
 20 21  2  0
 20 22  1  0
 22 23  1  0
 23 24  1  0
 24 25  1  0
 25 26  1  0
 26 27  1  0
 27 28  1  0
 28 29  1  0
  8 30  1  0
 30 31  2  0
 31  5  1  0
 22 11  1  0
 29 24  1  0
 19 13  1  0
  1 32  1  0
  1 33  1  0
  1 34  1  0
  4 35  1  0
  6 36  1  0
  7 37  1  0
  9 38  1  0
 10 39  1  0
 14 40  1  0
 15 41  1  0
 16 42  1  0
 23 43  1  0
 23 44  1  0
 24 45  1  0
 25 46  1  0
 25 47  1  0
 26 48  1  0
 26 49  1  0
 27 50  1  0
 28 51  1  0
 28 52  1  0
 29 53  1  0
 29 54  1  0
 30 55  1  0
 31 56  1  0
M  END
>  <smiles>  (13) 
CC(=O)Nc1ccc(/C=C/c2nc3cccc(Cl)c3c(=O)n2CC2CCNCC2)cc1

>  <score_type>  (13) 
oracle

>  <origin>  (13) 
autodockgpu

>  <m_score__min__energy>  (13) 
-8.9299999999999997

>  <m_primary>  (13) 
energy

>  <meeko>  (13) 
{"free_energy": -7.39, "intermolecular_energy": -9.18, "internal_energy": -2.59, "cluster_size": 4, "cluster_id": 5, "rank_in_cluster": 4}

>  <energy>  (13) 
-8.1

>  <cluster_rmsd>  (13) 
0.61

>  <rmsd>  (13) 
269.87

>  <cluster>  (13) 
4

$$$$

     RDKit          3D

 56 59  0  0  0  0  0  0  0  0999 V2000
  133.2040   76.0710  226.8270 C   0  0  0  0  0  0  0  0  0  0  0  0
  133.9320   74.9790  226.0950 C   0  0  0  0  0  0  0  0  0  0  0  0
  133.7290   73.8170  226.4960 O   0  0  0  0  0  0  0  0  0  0  0  0
  134.7810   75.2860  225.0290 N   0  0  0  0  0  0  0  0  0  0  0  0
  135.5280   74.3780  224.2480 C   0  0  0  0  0  0  0  0  0  0  0  0
  136.1880   74.8570  223.1310 C   0  0  0  0  0  0  0  0  0  0  0  0
  136.9330   74.0280  222.3270 C   0  0  0  0  0  0  0  0  0  0  0  0
  137.0720   72.6580  222.5810 C   0  0  0  0  0  0  0  0  0  0  0  0
  137.8690   71.8530  221.6930 C   0  0  0  0  0  0  0  0  0  0  0  0
  139.0470   71.3310  221.9860 C   0  0  0  0  0  0  0  0  0  0  0  0
  139.3620   70.8400  223.3250 C   0  0  0  0  0  0  0  0  0  0  0  0
  140.0380   71.6760  224.1350 N   0  0  0  0  0  0  0  0  0  0  0  0
  140.3670   71.3430  225.3750 C   0  0  0  0  0  0  0  0  0  0  0  0
  141.0600   72.2090  226.1980 C   0  0  0  0  0  0  0  0  0  0  0  0
  141.3980   71.8450  227.5000 C   0  0  0  0  0  0  0  0  0  0  0  0
  141.0160   70.5920  227.9390 C   0  0  0  0  0  0  0  0  0  0  0  0
  140.3240   69.7400  227.1050 C   0  0  0  0  0  0  0  0  0  0  0  0
  139.8400   68.1440  227.6720 Cl  0  0  0  0  0  0  0  0  0  0  0  0
  139.9850   70.0860  225.8210 C   0  0  0  0  0  0  0  0  0  0  0  0
  139.2920   69.2430  224.9760 C   0  0  0  0  0  0  0  0  0  0  0  0
  138.9780   68.1180  225.4470 O   0  0  0  0  0  0  0  0  0  0  0  0
  138.9650   69.6080  223.7010 N   0  0  0  0  0  0  0  0  0  0  0  0
  138.2500   68.7080  222.8680 C   0  0  0  0  0  0  0  0  0  0  0  0
  136.8060   68.5030  223.1160 C   0  0  0  0  0  0  0  0  0  0  0  0
  136.2360   69.1150  224.3500 C   0  0  0  0  0  0  0  0  0  0  0  0
  134.7480   68.8940  224.4100 C   0  0  0  0  0  0  0  0  0  0  0  0
  134.3500   67.7770  223.5770 N   0  0  0  0  0  0  0  0  0  0  0  0
  134.5860   68.0210  222.1830 C   0  0  0  0  0  0  0  0  0  0  0  0
  135.9050   68.7640  221.9280 C   0  0  0  0  0  0  0  0  0  0  0  0
  136.4170   72.1870  223.6880 C   0  0  0  0  0  0  0  0  0  0  0  0
  135.6600   73.0350  224.5040 C   0  0  0  0  0  0  0  0  0  0  0  0
  133.3066   75.9171  227.9113 H   0  0  0  0  0  0  0  0  0  0  0  0
  133.6336   77.0458  226.5527 H   0  0  0  0  0  0  0  0  0  0  0  0
  132.1390   76.0494  226.5527 H   0  0  0  0  0  0  0  0  0  0  0  0
  134.8670   76.3200  224.7860 H   0  0  0  0  0  0  0  0  0  0  0  0
  136.1150   75.9256  222.8805 H   0  0  0  0  0  0  0  0  0  0  0  0
  137.4397   74.4573  221.4501 H   0  0  0  0  0  0  0  0  0  0  0  0
  137.4647   71.6564  220.6891 H   0  0  0  0  0  0  0  0  0  0  0  0
  139.8124   71.2643  221.1988 H   0  0  0  0  0  0  0  0  0  0  0  0
  141.3494   73.2007  225.8201 H   0  0  0  0  0  0  0  0  0  0  0  0
  141.9508   72.5328  228.1567 H   0  0  0  0  0  0  0  0  0  0  0  0
  141.2658   70.2719  228.9613 H   0  0  0  0  0  0  0  0  0  0  0  0
  138.3523   69.0724  221.8352 H   0  0  0  0  0  0  0  0  0  0  0  0
  138.6996   67.7282  223.0866 H   0  0  0  0  0  0  0  0  0  0  0  0
  136.8083   67.4191  223.3033 H   0  0  0  0  0  0  0  0  0  0  0  0
  136.7059   68.6556  225.2321 H   0  0  0  0  0  0  0  0  0  0  0  0
  136.4344   70.1969  224.3345 H   0  0  0  0  0  0  0  0  0  0  0  0
  134.4577   68.6869  225.4506 H   0  0  0  0  0  0  0  0  0  0  0  0
  134.2461   69.8003  224.0403 H   0  0  0  0  0  0  0  0  0  0  0  0
  134.6760   66.8670  223.9350 H   0  0  0  0  0  0  0  0  0  0  0  0
  134.6183   67.0555  221.6570 H   0  0  0  0  0  0  0  0  0  0  0  0
  133.7686   68.6576  221.8135 H   0  0  0  0  0  0  0  0  0  0  0  0
  136.3768   68.3883  221.0081 H   0  0  0  0  0  0  0  0  0  0  0  0
  135.7267   69.8424  221.8041 H   0  0  0  0  0  0  0  0  0  0  0  0
  136.4876   71.1188  223.9410 H   0  0  0  0  0  0  0  0  0  0  0  0
  135.1521   72.6106  225.3826 H   0  0  0  0  0  0  0  0  0  0  0  0
  1  2  1  0
  2  3  2  0
  2  4  1  0
  4  5  1  0
  5  6  2  0
  6  7  1  0
  7  8  2  0
  8  9  1  0
  9 10  2  0
 10 11  1  0
 11 12  2  0
 12 13  1  0
 13 14  2  0
 14 15  1  0
 15 16  2  0
 16 17  1  0
 17 18  1  0
 17 19  2  0
 19 20  1  0
 20 21  2  0
 20 22  1  0
 22 23  1  0
 23 24  1  0
 24 25  1  0
 25 26  1  0
 26 27  1  0
 27 28  1  0
 28 29  1  0
  8 30  1  0
 30 31  2  0
 31  5  1  0
 22 11  1  0
 29 24  1  0
 19 13  1  0
  1 32  1  0
  1 33  1  0
  1 34  1  0
  4 35  1  0
  6 36  1  0
  7 37  1  0
  9 38  1  0
 10 39  1  0
 14 40  1  0
 15 41  1  0
 16 42  1  0
 23 43  1  0
 23 44  1  0
 24 45  1  0
 25 46  1  0
 25 47  1  0
 26 48  1  0
 26 49  1  0
 27 50  1  0
 28 51  1  0
 28 52  1  0
 29 53  1  0
 29 54  1  0
 30 55  1  0
 31 56  1  0
M  END
>  <smiles>  (14) 
CC(=O)Nc1ccc(/C=C/c2nc3cccc(Cl)c3c(=O)n2CC2CCNCC2)cc1

>  <score_type>  (14) 
oracle

>  <origin>  (14) 
autodockgpu

>  <m_score__min__energy>  (14) 
-8.9299999999999997

>  <m_primary>  (14) 
energy

>  <meeko>  (14) 
{"free_energy": -8.15, "intermolecular_energy": -9.94, "internal_energy": -2.03, "cluster_size": 4, "cluster_id": 4, "rank_in_cluster": 3}

>  <energy>  (14) 
-8.29

>  <cluster_rmsd>  (14) 
0.0

>  <rmsd>  (14) 
270.48

>  <cluster>  (14) 
5

$$$$

     RDKit          3D

 56 59  0  0  0  0  0  0  0  0999 V2000
  141.1240   68.1090  229.1000 C   0  0  0  0  0  0  0  0  0  0  0  0
  140.9340   68.5570  227.6780 C   0  0  0  0  0  0  0  0  0  0  0  0
  141.3800   67.7980  226.7980 O   0  0  0  0  0  0  0  0  0  0  0  0
  140.2860   69.7630  227.3960 N   0  0  0  0  0  0  0  0  0  0  0  0
  140.0330   70.3140  226.1230 C   0  0  0  0  0  0  0  0  0  0  0  0
  140.8790   71.3030  225.6510 C   0  0  0  0  0  0  0  0  0  0  0  0
  140.6900   71.8820  224.4200 C   0  0  0  0  0  0  0  0  0  0  0  0
  139.6410   71.5160  223.5690 C   0  0  0  0  0  0  0  0  0  0  0  0
  139.5070   72.1690  222.2920 C   0  0  0  0  0  0  0  0  0  0  0  0
  140.5090   72.5910  221.5420 C   0  0  0  0  0  0  0  0  0  0  0  0
  140.7060   74.0080  221.2440 C   0  0  0  0  0  0  0  0  0  0  0  0
  140.0820   74.8900  222.0470 N   0  0  0  0  0  0  0  0  0  0  0  0
  140.2000   76.2000  221.8810 C   0  0  0  0  0  0  0  0  0  0  0  0
  139.5550   77.0960  222.7110 C   0  0  0  0  0  0  0  0  0  0  0  0
  139.6880   78.4710  222.5230 C   0  0  0  0  0  0  0  0  0  0  0  0
  140.4860   78.9050  221.4810 C   0  0  0  0  0  0  0  0  0  0  0  0
  141.1230   77.9970  220.6620 C   0  0  0  0  0  0  0  0  0  0  0  0
  142.1380   78.5590  219.3370 Cl  0  0  0  0  0  0  0  0  0  0  0  0
  140.9990   76.6410  220.8360 C   0  0  0  0  0  0  0  0  0  0  0  0
  141.6310   75.7220  220.0240 C   0  0  0  0  0  0  0  0  0  0  0  0
  142.3410   76.1930  219.0960 O   0  0  0  0  0  0  0  0  0  0  0  0
  141.4950   74.3760  220.2150 N   0  0  0  0  0  0  0  0  0  0  0  0
  142.1650   73.4670  219.3550 C   0  0  0  0  0  0  0  0  0  0  0  0
  143.6260   73.2880  219.5090 C   0  0  0  0  0  0  0  0  0  0  0  0
  144.3000   74.0910  220.5660 C   0  0  0  0  0  0  0  0  0  0  0  0
  145.7600   73.7290  220.6550 C   0  0  0  0  0  0  0  0  0  0  0  0
  146.2210   73.1100  219.4290 N   0  0  0  0  0  0  0  0  0  0  0  0
  145.5880   71.8470  219.1810 C   0  0  0  0  0  0  0  0  0  0  0  0
  144.0980   71.8500  219.5500 C   0  0  0  0  0  0  0  0  0  0  0  0
  138.8050   70.5370  224.0370 C   0  0  0  0  0  0  0  0  0  0  0  0
  139.0020   69.9490  225.2920 C   0  0  0  0  0  0  0  0  0  0  0  0
  140.7872   68.9031  229.7827 H   0  0  0  0  0  0  0  0  0  0  0  0
  140.5350   67.1974  229.2790 H   0  0  0  0  0  0  0  0  0  0  0  0
  142.1888   67.8987  229.2790 H   0  0  0  0  0  0  0  0  0  0  0  0
  139.9510   70.3190  228.2410 H   0  0  0  0  0  0  0  0  0  0  0  0
  141.7219   71.6326  226.2762 H   0  0  0  0  0  0  0  0  0  0  0  0
  141.3902   72.6636  224.0902 H   0  0  0  0  0  0  0  0  0  0  0  0
  138.4877   72.3291  221.9106 H   0  0  0  0  0  0  0  0  0  0  0  0
  141.2152   71.8550  221.1301 H   0  0  0  0  0  0  0  0  0  0  0  0
  138.9274   76.7193  223.5321 H   0  0  0  0  0  0  0  0  0  0  0  0
  139.1749   79.1869  223.1820 H   0  0  0  0  0  0  0  0  0  0  0  0
  140.6138   79.9831  221.3039 H   0  0  0  0  0  0  0  0  0  0  0  0
  141.7008   72.4806  219.5016 H   0  0  0  0  0  0  0  0  0  0  0  0
  142.0546   73.9140  218.3560 H   0  0  0  0  0  0  0  0  0  0  0  0
  143.9612   73.7237  218.5562 H   0  0  0  0  0  0  0  0  0  0  0  0
  144.2064   75.1598  220.3232 H   0  0  0  0  0  0  0  0  0  0  0  0
  143.8216   73.8779  221.5333 H   0  0  0  0  0  0  0  0  0  0  0  0
  146.3457   74.6419  220.8385 H   0  0  0  0  0  0  0  0  0  0  0  0
  145.8919   73.0120  221.4787 H   0  0  0  0  0  0  0  0  0  0  0  0
  146.2510   73.7620  218.6310 H   0  0  0  0  0  0  0  0  0  0  0  0
  145.6855   71.6082  218.1117 H   0  0  0  0  0  0  0  0  0  0  0  0
  146.0856   71.0958  219.8119 H   0  0  0  0  0  0  0  0  0  0  0  0
  143.5300   71.2468  218.8265 H   0  0  0  0  0  0  0  0  0  0  0  0
  143.9440   71.4183  220.5500 H   0  0  0  0  0  0  0  0  0  0  0  0
  137.9613   70.2060  223.4137 H   0  0  0  0  0  0  0  0  0  0  0  0
  138.3053   69.1656  225.6251 H   0  0  0  0  0  0  0  0  0  0  0  0
  1  2  1  0
  2  3  2  0
  2  4  1  0
  4  5  1  0
  5  6  2  0
  6  7  1  0
  7  8  2  0
  8  9  1  0
  9 10  2  0
 10 11  1  0
 11 12  2  0
 12 13  1  0
 13 14  2  0
 14 15  1  0
 15 16  2  0
 16 17  1  0
 17 18  1  0
 17 19  2  0
 19 20  1  0
 20 21  2  0
 20 22  1  0
 22 23  1  0
 23 24  1  0
 24 25  1  0
 25 26  1  0
 26 27  1  0
 27 28  1  0
 28 29  1  0
  8 30  1  0
 30 31  2  0
 31  5  1  0
 22 11  1  0
 29 24  1  0
 19 13  1  0
  1 32  1  0
  1 33  1  0
  1 34  1  0
  4 35  1  0
  6 36  1  0
  7 37  1  0
  9 38  1  0
 10 39  1  0
 14 40  1  0
 15 41  1  0
 16 42  1  0
 23 43  1  0
 23 44  1  0
 24 45  1  0
 25 46  1  0
 25 47  1  0
 26 48  1  0
 26 49  1  0
 27 50  1  0
 28 51  1  0
 28 52  1  0
 29 53  1  0
 29 54  1  0
 30 55  1  0
 31 56  1  0
M  END
>  <smiles>  (15) 
CC(=O)Nc1ccc(/C=C/c2nc3cccc(Cl)c3c(=O)n2CC2CCNCC2)cc1

>  <score_type>  (15) 
oracle

>  <origin>  (15) 
autodockgpu

>  <m_score__min__energy>  (15) 
-8.9299999999999997

>  <m_primary>  (15) 
energy

>  <meeko>  (15) 
{"free_energy": -8.93, "intermolecular_energy": -10.72, "internal_energy": -1.37, "cluster_size": 1, "cluster_id": 1, "rank_in_cluster": 1}

>  <energy>  (15) 
-8.19

>  <cluster_rmsd>  (15) 
0.78

>  <rmsd>  (15) 
270.52

>  <cluster>  (15) 
5

$$$$

     RDKit          3D

 56 59  0  0  0  0  0  0  0  0999 V2000
  133.3930   76.3920  227.1840 C   0  0  0  0  0  0  0  0  0  0  0  0
  133.9500   75.3160  226.2950 C   0  0  0  0  0  0  0  0  0  0  0  0
  133.6130   74.1490  226.5660 O   0  0  0  0  0  0  0  0  0  0  0  0
  134.7960   75.6440  225.2320 N   0  0  0  0  0  0  0  0  0  0  0  0
  135.3940   74.7540  224.3160 C   0  0  0  0  0  0  0  0  0  0  0  0
  135.3950   73.4020  224.6140 C   0  0  0  0  0  0  0  0  0  0  0  0
  135.9600   72.4800  223.7650 C   0  0  0  0  0  0  0  0  0  0  0  0
  136.5650   72.8420  222.5570 C   0  0  0  0  0  0  0  0  0  0  0  0
  137.1360   71.8190  221.7200 C   0  0  0  0  0  0  0  0  0  0  0  0
  138.3720   71.3620  221.8070 C   0  0  0  0  0  0  0  0  0  0  0  0
  138.8800   70.7350  223.0260 C   0  0  0  0  0  0  0  0  0  0  0  0
  139.5610   71.5240  223.8760 N   0  0  0  0  0  0  0  0  0  0  0  0
  140.0560   71.0680  225.0190 C   0  0  0  0  0  0  0  0  0  0  0  0
  140.7540   71.8870  225.8840 C   0  0  0  0  0  0  0  0  0  0  0  0
  141.2670   71.3920  227.0810 C   0  0  0  0  0  0  0  0  0  0  0  0
  141.0540   70.0580  227.3720 C   0  0  0  0  0  0  0  0  0  0  0  0
  140.3540   69.2540  226.4970 C   0  0  0  0  0  0  0  0  0  0  0  0
  140.0860   67.5550  226.8760 Cl  0  0  0  0  0  0  0  0  0  0  0  0
  139.8440   69.7290  225.3150 C   0  0  0  0  0  0  0  0  0  0  0  0
  139.1420   68.9360  224.4310 C   0  0  0  0  0  0  0  0  0  0  0  0
  138.9880   67.7310  224.7640 O   0  0  0  0  0  0  0  0  0  0  0  0
  138.6420   69.4290  223.2590 N   0  0  0  0  0  0  0  0  0  0  0  0
  137.9250   68.5760  222.3800 C   0  0  0  0  0  0  0  0  0  0  0  0
  136.5300   68.2170  222.7190 C   0  0  0  0  0  0  0  0  0  0  0  0
  135.8930   68.9560  223.8440 C   0  0  0  0  0  0  0  0  0  0  0  0
  134.4540   68.5400  224.0020 C   0  0  0  0  0  0  0  0  0  0  0  0
  134.2140   67.2450  223.3990 N   0  0  0  0  0  0  0  0  0  0  0  0
  134.3930   67.2600  221.9760 C   0  0  0  0  0  0  0  0  0  0  0  0
  135.5850   68.1240  221.5400 C   0  0  0  0  0  0  0  0  0  0  0  0
  136.5630   74.1800  222.2640 C   0  0  0  0  0  0  0  0  0  0  0  0
  135.9860   75.1160  223.1310 C   0  0  0  0  0  0  0  0  0  0  0  0
  133.5391   76.1097  228.2371 H   0  0  0  0  0  0  0  0  0  0  0  0
  133.9137   77.3398  226.9828 H   0  0  0  0  0  0  0  0  0  0  0  0
  132.3185   76.5141  226.9828 H   0  0  0  0  0  0  0  0  0  0  0  0
  135.0060   76.6820  225.1080 H   0  0  0  0  0  0  0  0  0  0  0  0
  134.9333   73.0577  225.5512 H   0  0  0  0  0  0  0  0  0  0  0  0
  135.9353   71.4169  224.0465 H   0  0  0  0  0  0  0  0  0  0  0  0
  136.4897   71.3823  220.9444 H   0  0  0  0  0  0  0  0  0  0  0  0
  139.0386   71.4559  220.9370 H   0  0  0  0  0  0  0  0  0  0  0  0
  140.9072   72.9449  225.6245 H   0  0  0  0  0  0  0  0  0  0  0  0
  141.8236   72.0420  227.7721 H   0  0  0  0  0  0  0  0  0  0  0  0
  141.4457   69.6342  228.3085 H   0  0  0  0  0  0  0  0  0  0  0  0
  137.9027   69.0690  221.3969 H   0  0  0  0  0  0  0  0  0  0  0  0
  138.4673   67.6205  222.4337 H   0  0  0  0  0  0  0  0  0  0  0  0
  136.6944   67.1978  223.0988 H   0  0  0  0  0  0  0  0  0  0  0  0
  136.4371   68.7373  224.7746 H   0  0  0  0  0  0  0  0  0  0  0  0
  135.9296   70.0338  223.6271 H   0  0  0  0  0  0  0  0  0  0  0  0
  134.2113   68.4874  225.0736 H   0  0  0  0  0  0  0  0  0  0  0  0
  133.8191   69.2827  223.4966 H   0  0  0  0  0  0  0  0  0  0  0  0
  134.6750   66.4720  223.9020 H   0  0  0  0  0  0  0  0  0  0  0  0
  134.5603   66.2290  221.6311 H   0  0  0  0  0  0  0  0  0  0  0  0
  133.4859   67.6946  221.5306 H   0  0  0  0  0  0  0  0  0  0  0  0
  136.0953   67.6570  220.6847 H   0  0  0  0  0  0  0  0  0  0  0  0
  135.2480   69.1247  221.2317 H   0  0  0  0  0  0  0  0  0  0  0  0
  137.0245   74.5266  221.3276 H   0  0  0  0  0  0  0  0  0  0  0  0
  136.0077   76.1800  222.8527 H   0  0  0  0  0  0  0  0  0  0  0  0
  1  2  1  0
  2  3  2  0
  2  4  1  0
  4  5  1  0
  5  6  2  0
  6  7  1  0
  7  8  2  0
  8  9  1  0
  9 10  2  0
 10 11  1  0
 11 12  2  0
 12 13  1  0
 13 14  2  0
 14 15  1  0
 15 16  2  0
 16 17  1  0
 17 18  1  0
 17 19  2  0
 19 20  1  0
 20 21  2  0
 20 22  1  0
 22 23  1  0
 23 24  1  0
 24 25  1  0
 25 26  1  0
 26 27  1  0
 27 28  1  0
 28 29  1  0
  8 30  1  0
 30 31  2  0
 31  5  1  0
 22 11  1  0
 29 24  1  0
 19 13  1  0
  1 32  1  0
  1 33  1  0
  1 34  1  0
  4 35  1  0
  6 36  1  0
  7 37  1  0
  9 38  1  0
 10 39  1  0
 14 40  1  0
 15 41  1  0
 16 42  1  0
 23 43  1  0
 23 44  1  0
 24 45  1  0
 25 46  1  0
 25 47  1  0
 26 48  1  0
 26 49  1  0
 27 50  1  0
 28 51  1  0
 28 52  1  0
 29 53  1  0
 29 54  1  0
 30 55  1  0
 31 56  1  0
M  END
>  <smiles>  (16) 
CC(=O)Nc1ccc(/C=C/c2nc3cccc(Cl)c3c(=O)n2CC2CCNCC2)cc1

>  <score_type>  (16) 
oracle

>  <origin>  (16) 
autodockgpu

>  <m_score__min__energy>  (16) 
-8.9299999999999997

>  <m_primary>  (16) 
energy

>  <meeko>  (16) 
{"free_energy": -8.1, "intermolecular_energy": -9.89, "internal_energy": -1.85, "cluster_size": 4, "cluster_id": 4, "rank_in_cluster": 4}

>  <energy>  (16) 
-7.69

>  <cluster_rmsd>  (16) 
1.26

>  <rmsd>  (16) 
270.41

>  <cluster>  (16) 
5

$$$$

     RDKit          3D

 56 59  0  0  0  0  0  0  0  0999 V2000
  132.6290   75.8240  226.8570 C   0  0  0  0  0  0  0  0  0  0  0  0
  133.5750   74.8910  226.1540 C   0  0  0  0  0  0  0  0  0  0  0  0
  133.7610   73.7850  226.6940 O   0  0  0  0  0  0  0  0  0  0  0  0
  134.1940   75.2770  224.9620 N   0  0  0  0  0  0  0  0  0  0  0  0
  135.0990   74.5190  224.1900 C   0  0  0  0  0  0  0  0  0  0  0  0
  135.3040   73.1930  224.5280 C   0  0  0  0  0  0  0  0  0  0  0  0
  136.1710   72.3970  223.8180 C   0  0  0  0  0  0  0  0  0  0  0  0
  136.8970   72.8700  222.7190 C   0  0  0  0  0  0  0  0  0  0  0  0
  137.7880   71.9760  222.0250 C   0  0  0  0  0  0  0  0  0  0  0  0
  139.0330   71.7120  222.3770 C   0  0  0  0  0  0  0  0  0  0  0  0
  139.3600   71.1270  223.6760 C   0  0  0  0  0  0  0  0  0  0  0  0
  140.0740   71.8910  224.5230 N   0  0  0  0  0  0  0  0  0  0  0  0
  140.4170   71.4700  225.7330 C   0  0  0  0  0  0  0  0  0  0  0  0
  141.1500   72.2630  226.5940 C   0  0  0  0  0  0  0  0  0  0  0  0
  141.5030   71.8060  227.8630 C   0  0  0  0  0  0  0  0  0  0  0  0
  141.0940   70.5370  228.2280 C   0  0  0  0  0  0  0  0  0  0  0  0
  140.3630   69.7600  227.3560 C   0  0  0  0  0  0  0  0  0  0  0  0
  139.8450   68.1440  227.8300 Cl  0  0  0  0  0  0  0  0  0  0  0  0
  140.0090   70.1980  226.1040 C   0  0  0  0  0  0  0  0  0  0  0  0
  139.2770   69.4300  225.2220 C   0  0  0  0  0  0  0  0  0  0  0  0
  138.9410   68.2850  225.6260 O   0  0  0  0  0  0  0  0  0  0  0  0
  138.9360   69.8850  223.9800 N   0  0  0  0  0  0  0  0  0  0  0  0
  138.1810   69.0600  223.1060 C   0  0  0  0  0  0  0  0  0  0  0  0
  136.7480   68.8340  223.4020 C   0  0  0  0  0  0  0  0  0  0  0  0
  136.2390   69.3320  224.7100 C   0  0  0  0  0  0  0  0  0  0  0  0
  134.7540   69.1070  224.8190 C   0  0  0  0  0  0  0  0  0  0  0  0
  134.3130   68.0690  223.9100 N   0  0  0  0  0  0  0  0  0  0  0  0
  134.4860   68.4360  222.5340 C   0  0  0  0  0  0  0  0  0  0  0  0
  135.7950   69.1990  222.2850 C   0  0  0  0  0  0  0  0  0  0  0  0
  136.6920   74.1830  222.3870 C   0  0  0  0  0  0  0  0  0  0  0  0
  135.8080   74.9890  223.1120 C   0  0  0  0  0  0  0  0  0  0  0  0
  132.7436   75.7110  227.9452 H   0  0  0  0  0  0  0  0  0  0  0  0
  132.8563   76.8613  226.5701 H   0  0  0  0  0  0  0  0  0  0  0  0
  131.5949   75.5824  226.5701 H   0  0  0  0  0  0  0  0  0  0  0  0
  133.9490   76.2510  224.6050 H   0  0  0  0  0  0  0  0  0  0  0  0
  134.7609   72.7663  225.3841 H   0  0  0  0  0  0  0  0  0  0  0  0
  136.2990   71.3486  224.1252 H   0  0  0  0  0  0  0  0  0  0  0  0
  137.3993   71.4717  221.1280 H   0  0  0  0  0  0  0  0  0  0  0  0
  139.8470   71.9387  221.6728 H   0  0  0  0  0  0  0  0  0  0  0  0
  141.4595   73.2689  226.2742 H   0  0  0  0  0  0  0  0  0  0  0  0
  142.0876   72.4344  228.5510 H   0  0  0  0  0  0  0  0  0  0  0  0
  141.3541   70.1445  229.2221 H   0  0  0  0  0  0  0  0  0  0  0  0
  138.2373   69.5122  222.1048 H   0  0  0  0  0  0  0  0  0  0  0  0
  138.6368   68.0651  223.2179 H   0  0  0  0  0  0  0  0  0  0  0  0
  136.7537   67.7377  223.4922 H   0  0  0  0  0  0  0  0  0  0  0  0
  136.7471   68.7947  225.5243 H   0  0  0  0  0  0  0  0  0  0  0  0
  136.4414   70.4108  224.7828 H   0  0  0  0  0  0  0  0  0  0  0  0
  134.5111   68.8084  225.8495 H   0  0  0  0  0  0  0  0  0  0  0  0
  134.2398   70.0428  224.5547 H   0  0  0  0  0  0  0  0  0  0  0  0
  134.6520   67.1300  224.1700 H   0  0  0  0  0  0  0  0  0  0  0  0
  134.4903   67.5210  221.9235 H   0  0  0  0  0  0  0  0  0  0  0  0
  133.6551   69.1031  222.2607 H   0  0  0  0  0  0  0  0  0  0  0  0
  136.2226   68.9063  221.3147 H   0  0  0  0  0  0  0  0  0  0  0  0
  135.6155   70.2841  222.2652 H   0  0  0  0  0  0  0  0  0  0  0  0
  137.2342   74.6129  221.5319 H   0  0  0  0  0  0  0  0  0  0  0  0
  135.6760   76.0377  222.8074 H   0  0  0  0  0  0  0  0  0  0  0  0
  1  2  1  0
  2  3  2  0
  2  4  1  0
  4  5  1  0
  5  6  2  0
  6  7  1  0
  7  8  2  0
  8  9  1  0
  9 10  2  0
 10 11  1  0
 11 12  2  0
 12 13  1  0
 13 14  2  0
 14 15  1  0
 15 16  2  0
 16 17  1  0
 17 18  1  0
 17 19  2  0
 19 20  1  0
 20 21  2  0
 20 22  1  0
 22 23  1  0
 23 24  1  0
 24 25  1  0
 25 26  1  0
 26 27  1  0
 27 28  1  0
 28 29  1  0
  8 30  1  0
 30 31  2  0
 31  5  1  0
 22 11  1  0
 29 24  1  0
 19 13  1  0
  1 32  1  0
  1 33  1  0
  1 34  1  0
  4 35  1  0
  6 36  1  0
  7 37  1  0
  9 38  1  0
 10 39  1  0
 14 40  1  0
 15 41  1  0
 16 42  1  0
 23 43  1  0
 23 44  1  0
 24 45  1  0
 25 46  1  0
 25 47  1  0
 26 48  1  0
 26 49  1  0
 27 50  1  0
 28 51  1  0
 28 52  1  0
 29 53  1  0
 29 54  1  0
 30 55  1  0
 31 56  1  0
M  END
>  <smiles>  (17) 
CC(=O)Nc1ccc(/C=C/c2nc3cccc(Cl)c3c(=O)n2CC2CCNCC2)cc1

>  <score_type>  (17) 
oracle

>  <origin>  (17) 
autodockgpu

>  <m_score__min__energy>  (17) 
-8.9299999999999997

>  <m_primary>  (17) 
energy

>  <meeko>  (17) 
{"free_energy": -8.22, "intermolecular_energy": -10.01, "internal_energy": -1.86, "cluster_size": 4, "cluster_id": 4, "rank_in_cluster": 2}

>  <energy>  (17) 
-7.39

>  <cluster_rmsd>  (17) 
1.74

>  <rmsd>  (17) 
269.96

>  <cluster>  (17) 
5

$$$$

     RDKit          3D

 56 59  0  0  0  0  0  0  0  0999 V2000
  145.6200   68.2360  218.0690 C   0  0  0  0  0  0  0  0  0  0  0  0
  144.5040   68.0800  219.0640 C   0  0  0  0  0  0  0  0  0  0  0  0
  144.8220   68.1580  220.2650 O   0  0  0  0  0  0  0  0  0  0  0  0
  143.1950   67.8610  218.6290 N   0  0  0  0  0  0  0  0  0  0  0  0
  142.0480   67.6970  219.4340 C   0  0  0  0  0  0  0  0  0  0  0  0
  141.5640   66.4170  219.6400 C   0  0  0  0  0  0  0  0  0  0  0  0
  140.4520   66.1860  220.4130 C   0  0  0  0  0  0  0  0  0  0  0  0
  139.7410   67.2170  221.0370 C   0  0  0  0  0  0  0  0  0  0  0  0
  138.5850   66.8970  221.8330 C   0  0  0  0  0  0  0  0  0  0  0  0
  137.9470   67.7370  222.6270 C   0  0  0  0  0  0  0  0  0  0  0  0
  138.6130   68.3990  223.7470 C   0  0  0  0  0  0  0  0  0  0  0  0
  139.1870   67.6020  224.6670 N   0  0  0  0  0  0  0  0  0  0  0  0
  139.8310   68.0910  225.7180 C   0  0  0  0  0  0  0  0  0  0  0  0
  140.4160   67.2640  226.6570 C   0  0  0  0  0  0  0  0  0  0  0  0
  141.0900   67.7930  227.7570 C   0  0  0  0  0  0  0  0  0  0  0  0
  141.1530   69.1690  227.8740 C   0  0  0  0  0  0  0  0  0  0  0  0
  140.5630   69.9790  226.9280 C   0  0  0  0  0  0  0  0  0  0  0  0
  140.6480   71.7320  227.0850 Cl  0  0  0  0  0  0  0  0  0  0  0  0
  139.8960   69.4710  225.8410 C   0  0  0  0  0  0  0  0  0  0  0  0
  139.3020   70.2710  224.8860 C   0  0  0  0  0  0  0  0  0  0  0  0
  139.4010   71.5150  225.0610 O   0  0  0  0  0  0  0  0  0  0  0  0
  138.6430   69.7440  223.8110 N   0  0  0  0  0  0  0  0  0  0  0  0
  138.0490   70.6060  222.8540 C   0  0  0  0  0  0  0  0  0  0  0  0
  138.7710   71.8350  222.4560 C   0  0  0  0  0  0  0  0  0  0  0  0
  140.2540   71.7480  222.3560 C   0  0  0  0  0  0  0  0  0  0  0  0
  140.8280   73.0470  221.8570 C   0  0  0  0  0  0  0  0  0  0  0  0
  139.9080   74.1450  222.0770 N   0  0  0  0  0  0  0  0  0  0  0  0
  138.7000   74.0090  221.3160 C   0  0  0  0  0  0  0  0  0  0  0  0
  138.1980   72.5590  221.2570 C   0  0  0  0  0  0  0  0  0  0  0  0
  140.2220   68.4830  220.8320 C   0  0  0  0  0  0  0  0  0  0  0  0
  141.3560   68.7140  220.0440 C   0  0  0  0  0  0  0  0  0  0  0  0
  146.5720   68.3691  218.6037 H   0  0  0  0  0  0  0  0  0  0  0  0
  145.6766   67.3370  217.4376 H   0  0  0  0  0  0  0  0  0  0  0  0
  145.4280   69.1160  217.4376 H   0  0  0  0  0  0  0  0  0  0  0  0
  143.0560   67.8160  217.5730 H   0  0  0  0  0  0  0  0  0  0  0  0
  142.0813   65.5653  219.1743 H   0  0  0  0  0  0  0  0  0  0  0  0
  140.1071   65.1500  220.5466 H   0  0  0  0  0  0  0  0  0  0  0  0
  138.2016   65.8676  221.7749 H   0  0  0  0  0  0  0  0  0  0  0  0
  136.8831   67.9447  222.4402 H   0  0  0  0  0  0  0  0  0  0  0  0
  140.3492   66.1728  226.5353 H   0  0  0  0  0  0  0  0  0  0  0  0
  141.5562   67.1371  228.5070 H   0  0  0  0  0  0  0  0  0  0  0  0
  141.6780   69.6207  228.7286 H   0  0  0  0  0  0  0  0  0  0  0  0
  137.8902   70.0142  221.9405 H   0  0  0  0  0  0  0  0  0  0  0  0
  137.1453   70.9798  223.3575 H   0  0  0  0  0  0  0  0  0  0  0  0
  138.5760   72.4529  223.3449 H   0  0  0  0  0  0  0  0  0  0  0  0
  140.6710   71.5263  223.3495 H   0  0  0  0  0  0  0  0  0  0  0  0
  140.5155   70.9488  221.6468 H   0  0  0  0  0  0  0  0  0  0  0  0
  141.7671   73.2531  222.3914 H   0  0  0  0  0  0  0  0  0  0  0  0
  141.0091   72.9554  220.7759 H   0  0  0  0  0  0  0  0  0  0  0  0
  139.7870   74.3790  223.0740 H   0  0  0  0  0  0  0  0  0  0  0  0
  137.9207   74.6329  221.7780 H   0  0  0  0  0  0  0  0  0  0  0  0
  138.9180   74.3277  220.2860 H   0  0  0  0  0  0  0  0  0  0  0  0
  137.0988   72.5394  221.2954 H   0  0  0  0  0  0  0  0  0  0  0  0
  138.5153   72.0749  220.3216 H   0  0  0  0  0  0  0  0  0  0  0  0
  139.7063   69.3365  221.2964 H   0  0  0  0  0  0  0  0  0  0  0  0
  141.7054   69.7482  219.9086 H   0  0  0  0  0  0  0  0  0  0  0  0
  1  2  1  0
  2  3  2  0
  2  4  1  0
  4  5  1  0
  5  6  2  0
  6  7  1  0
  7  8  2  0
  8  9  1  0
  9 10  2  0
 10 11  1  0
 11 12  2  0
 12 13  1  0
 13 14  2  0
 14 15  1  0
 15 16  2  0
 16 17  1  0
 17 18  1  0
 17 19  2  0
 19 20  1  0
 20 21  2  0
 20 22  1  0
 22 23  1  0
 23 24  1  0
 24 25  1  0
 25 26  1  0
 26 27  1  0
 27 28  1  0
 28 29  1  0
  8 30  1  0
 30 31  2  0
 31  5  1  0
 22 11  1  0
 29 24  1  0
 19 13  1  0
  1 32  1  0
  1 33  1  0
  1 34  1  0
  4 35  1  0
  6 36  1  0
  7 37  1  0
  9 38  1  0
 10 39  1  0
 14 40  1  0
 15 41  1  0
 16 42  1  0
 23 43  1  0
 23 44  1  0
 24 45  1  0
 25 46  1  0
 25 47  1  0
 26 48  1  0
 26 49  1  0
 27 50  1  0
 28 51  1  0
 28 52  1  0
 29 53  1  0
 29 54  1  0
 30 55  1  0
 31 56  1  0
M  END
>  <smiles>  (18) 
CC(=O)Nc1ccc(/C=C/c2nc3cccc(Cl)c3c(=O)n2CC2CCNCC2)cc1

>  <score_type>  (18) 
oracle

>  <origin>  (18) 
autodockgpu

>  <m_score__min__energy>  (18) 
-8.9299999999999997

>  <m_primary>  (18) 
energy

>  <meeko>  (18) 
{"free_energy": -8.51, "intermolecular_energy": -10.3, "internal_energy": -1.65, "cluster_size": 4, "cluster_id": 3, "rank_in_cluster": 2}

>  <energy>  (18) 
-8.18

>  <cluster_rmsd>  (18) 
0.0

>  <rmsd>  (18) 
270.69

>  <cluster>  (18) 
6

$$$$

     RDKit          3D

 56 59  0  0  0  0  0  0  0  0999 V2000
  146.3120   67.0620  218.2090 C   0  0  0  0  0  0  0  0  0  0  0  0
  145.5010   67.9600  219.1000 C   0  0  0  0  0  0  0  0  0  0  0  0
  145.9280   68.1170  220.2590 O   0  0  0  0  0  0  0  0  0  0  0  0
  144.3390   68.5700  218.6210 N   0  0  0  0  0  0  0  0  0  0  0  0
  143.4780   69.4330  219.3300 C   0  0  0  0  0  0  0  0  0  0  0  0
  144.0270   70.5210  219.9850 C   0  0  0  0  0  0  0  0  0  0  0  0
  143.2460   71.4020  220.6950 C   0  0  0  0  0  0  0  0  0  0  0  0
  141.8580   71.2590  220.8010 C   0  0  0  0  0  0  0  0  0  0  0  0
  141.1060   72.2230  221.5620 C   0  0  0  0  0  0  0  0  0  0  0  0
  140.0240   71.9590  222.2720 C   0  0  0  0  0  0  0  0  0  0  0  0
  140.0970   71.3100  223.5790 C   0  0  0  0  0  0  0  0  0  0  0  0
  140.6530   72.0180  224.5790 N   0  0  0  0  0  0  0  0  0  0  0  0
  140.7600   71.5360  225.8100 C   0  0  0  0  0  0  0  0  0  0  0  0
  141.3330   72.2720  226.8280 C   0  0  0  0  0  0  0  0  0  0  0  0
  141.4370   71.7510  228.1170 C   0  0  0  0  0  0  0  0  0  0  0  0
  140.9500   70.4780  228.3390 C   0  0  0  0  0  0  0  0  0  0  0  0
  140.3810   69.7570  227.3110 C   0  0  0  0  0  0  0  0  0  0  0  0
  139.7610   68.1340  227.6030 Cl  0  0  0  0  0  0  0  0  0  0  0  0
  140.2720   70.2580  226.0380 C   0  0  0  0  0  0  0  0  0  0  0  0
  139.7050   69.5470  225.0000 C   0  0  0  0  0  0  0  0  0  0  0  0
  139.2830   68.3940  225.2790 O   0  0  0  0  0  0  0  0  0  0  0  0
  139.6060   70.0650  223.7400 N   0  0  0  0  0  0  0  0  0  0  0  0
  139.0130   69.2980  222.7030 C   0  0  0  0  0  0  0  0  0  0  0  0
  137.5560   69.0430  222.7510 C   0  0  0  0  0  0  0  0  0  0  0  0
  136.6970   70.1220  223.3140 C   0  0  0  0  0  0  0  0  0  0  0  0
  135.2420   69.7470  223.2080 C   0  0  0  0  0  0  0  0  0  0  0  0
  135.0780   68.3140  223.0700 N   0  0  0  0  0  0  0  0  0  0  0  0
  135.6320   67.8150  221.8440 C   0  0  0  0  0  0  0  0  0  0  0  0
  136.9560   68.4970  221.4720 C   0  0  0  0  0  0  0  0  0  0  0  0
  141.3170   70.1810  220.1520 C   0  0  0  0  0  0  0  0  0  0  0  0
  142.1160   69.2870  219.4310 C   0  0  0  0  0  0  0  0  0  0  0  0
  146.9220   66.3865  218.8267 H   0  0  0  0  0  0  0  0  0  0  0  0
  145.6373   66.4691  217.5740 H   0  0  0  0  0  0  0  0  0  0  0  0
  146.9704   67.6730  217.5740 H   0  0  0  0  0  0  0  0  0  0  0  0
  144.0830   68.3540  217.6090 H   0  0  0  0  0  0  0  0  0  0  0  0
  145.1136   70.6850  219.9366 H   0  0  0  0  0  0  0  0  0  0  0  0
  143.7305   72.2514  221.1988 H   0  0  0  0  0  0  0  0  0  0  0  0
  141.4616   73.2639  221.5511 H   0  0  0  0  0  0  0  0  0  0  0  0
  139.0392   72.2358  221.8675 H   0  0  0  0  0  0  0  0  0  0  0  0
  141.7126   73.2831  226.6192 H   0  0  0  0  0  0  0  0  0  0  0  0
  141.8921   72.3349  228.9306 H   0  0  0  0  0  0  0  0  0  0  0  0
  141.0166   70.0358  229.3440 H   0  0  0  0  0  0  0  0  0  0  0  0
  139.2193   69.8191  221.7565 H   0  0  0  0  0  0  0  0  0  0  0  0
  139.4623   68.3006  222.8186 H   0  0  0  0  0  0  0  0  0  0  0  0
  137.5384   68.2379  223.5003 H   0  0  0  0  0  0  0  0  0  0  0  0
  136.9552   70.2752  224.3722 H   0  0  0  0  0  0  0  0  0  0  0  0
  136.8685   71.0471  222.7441 H   0  0  0  0  0  0  0  0  0  0  0  0
  134.7182   70.0822  224.1154 H   0  0  0  0  0  0  0  0  0  0  0  0
  134.8217   70.2329  222.3151 H   0  0  0  0  0  0  0  0  0  0  0  0
  135.3320   67.7930  223.9220 H   0  0  0  0  0  0  0  0  0  0  0  0
  135.8106   66.7350  221.9523 H   0  0  0  0  0  0  0  0  0  0  0  0
  134.9107   68.0293  221.0417 H   0  0  0  0  0  0  0  0  0  0  0  0
  137.6409   67.7665  221.0167 H   0  0  0  0  0  0  0  0  0  0  0  0
  136.7871   69.3050  220.7450 H   0  0  0  0  0  0  0  0  0  0  0  0
  140.2307   70.0145  220.1986 H   0  0  0  0  0  0  0  0  0  0  0  0
  141.6357   68.4357  218.9264 H   0  0  0  0  0  0  0  0  0  0  0  0
  1  2  1  0
  2  3  2  0
  2  4  1  0
  4  5  1  0
  5  6  2  0
  6  7  1  0
  7  8  2  0
  8  9  1  0
  9 10  2  0
 10 11  1  0
 11 12  2  0
 12 13  1  0
 13 14  2  0
 14 15  1  0
 15 16  2  0
 16 17  1  0
 17 18  1  0
 17 19  2  0
 19 20  1  0
 20 21  2  0
 20 22  1  0
 22 23  1  0
 23 24  1  0
 24 25  1  0
 25 26  1  0
 26 27  1  0
 27 28  1  0
 28 29  1  0
  8 30  1  0
 30 31  2  0
 31  5  1  0
 22 11  1  0
 29 24  1  0
 19 13  1  0
  1 32  1  0
  1 33  1  0
  1 34  1  0
  4 35  1  0
  6 36  1  0
  7 37  1  0
  9 38  1  0
 10 39  1  0
 14 40  1  0
 15 41  1  0
 16 42  1  0
 23 43  1  0
 23 44  1  0
 24 45  1  0
 25 46  1  0
 25 47  1  0
 26 48  1  0
 26 49  1  0
 27 50  1  0
 28 51  1  0
 28 52  1  0
 29 53  1  0
 29 54  1  0
 30 55  1  0
 31 56  1  0
M  END
>  <smiles>  (19) 
CC(=O)Nc1ccc(/C=C/c2nc3cccc(Cl)c3c(=O)n2CC2CCNCC2)cc1

>  <score_type>  (19) 
oracle

>  <origin>  (19) 
autodockgpu

>  <m_score__min__energy>  (19) 
-8.9299999999999997

>  <m_primary>  (19) 
energy

>  <meeko>  (19) 
{"free_energy": -8.16, "intermolecular_energy": -9.95, "internal_energy": -1.58, "cluster_size": 1, "cluster_id": 7, "rank_in_cluster": 1}

>  <energy>  (19) 
-8.16

>  <cluster_rmsd>  (19) 
0.0

>  <rmsd>  (19) 
269.99

>  <cluster>  (19) 
7

$$$$

     RDKit          3D

 56 59  0  0  0  0  0  0  0  0999 V2000
  132.4410   73.9000  227.5010 C   0  0  0  0  0  0  0  0  0  0  0  0
  133.3640   73.1290  226.6000 C   0  0  0  0  0  0  0  0  0  0  0  0
  134.2980   73.7730  226.0870 O   0  0  0  0  0  0  0  0  0  0  0  0
  133.1560   71.7650  226.3730 N   0  0  0  0  0  0  0  0  0  0  0  0
  133.9310   70.9110  225.5610 C   0  0  0  0  0  0  0  0  0  0  0  0
  134.2210   71.3140  224.2690 C   0  0  0  0  0  0  0  0  0  0  0  0
  134.9700   70.5300  223.4240 C   0  0  0  0  0  0  0  0  0  0  0  0
  135.4840   69.2870  223.8090 C   0  0  0  0  0  0  0  0  0  0  0  0
  136.2600   68.5230  222.8680 C   0  0  0  0  0  0  0  0  0  0  0  0
  137.5760   68.4090  222.8770 C   0  0  0  0  0  0  0  0  0  0  0  0
  138.3910   68.9560  223.9600 C   0  0  0  0  0  0  0  0  0  0  0  0
  138.8270   68.0870  224.8910 N   0  0  0  0  0  0  0  0  0  0  0  0
  139.5840   68.4670  225.9100 C   0  0  0  0  0  0  0  0  0  0  0  0
  140.0250   67.5670  226.8600 C   0  0  0  0  0  0  0  0  0  0  0  0
  140.8210   67.9820  227.9260 C   0  0  0  0  0  0  0  0  0  0  0  0
  141.1530   69.3210  227.9990 C   0  0  0  0  0  0  0  0  0  0  0  0
  140.7040   70.2070  227.0430 C   0  0  0  0  0  0  0  0  0  0  0  0
  141.1320   71.9130  227.1440 Cl  0  0  0  0  0  0  0  0  0  0  0  0
  139.9200   69.8110  225.9880 C   0  0  0  0  0  0  0  0  0  0  0  0
  139.4640   70.6860  225.0240 C   0  0  0  0  0  0  0  0  0  0  0  0
  139.8070   71.8910  225.1580 O   0  0  0  0  0  0  0  0  0  0  0  0
  138.6840   70.2710  223.9830 N   0  0  0  0  0  0  0  0  0  0  0  0
  138.2400   71.2080  223.0130 C   0  0  0  0  0  0  0  0  0  0  0  0
  139.2170   72.1640  222.4470 C   0  0  0  0  0  0  0  0  0  0  0  0
  140.3290   71.5960  221.6350 C   0  0  0  0  0  0  0  0  0  0  0  0
  141.1790   72.6980  221.0590 C   0  0  0  0  0  0  0  0  0  0  0  0
  141.0210   73.9280  221.8090 N   0  0  0  0  0  0  0  0  0  0  0  0
  139.6920   74.4600  221.7150 C   0  0  0  0  0  0  0  0  0  0  0  0
  138.6130   73.3680  221.7550 C   0  0  0  0  0  0  0  0  0  0  0  0
  135.1950   68.8900  225.0880 C   0  0  0  0  0  0  0  0  0  0  0  0
  134.4320   69.6920  225.9450 C   0  0  0  0  0  0  0  0  0  0  0  0
  132.6930   73.6895  228.5509 H   0  0  0  0  0  0  0  0  0  0  0  0
  132.5530   74.9767  227.3059 H   0  0  0  0  0  0  0  0  0  0  0  0
  131.4014   73.5981  227.3059 H   0  0  0  0  0  0  0  0  0  0  0  0
  132.3210   71.3330  226.8740 H   0  0  0  0  0  0  0  0  0  0  0  0
  133.8438   72.2831  223.9104 H   0  0  0  0  0  0  0  0  0  0  0  0
  135.1730   70.8939  222.4060 H   0  0  0  0  0  0  0  0  0  0  0  0
  135.7124   67.9904  222.0765 H   0  0  0  0  0  0  0  0  0  0  0  0
  138.0728   67.8874  222.0456 H   0  0  0  0  0  0  0  0  0  0  0  0
  139.7439   66.5070  226.7741 H   0  0  0  0  0  0  0  0  0  0  0  0
  141.1733   67.2671  228.6841 H   0  0  0  0  0  0  0  0  0  0  0  0
  141.7807   69.6831  228.8266 H   0  0  0  0  0  0  0  0  0  0  0  0
  137.8269   70.6317  222.1720 H   0  0  0  0  0  0  0  0  0  0  0  0
  137.5318   71.8452  223.5629 H   0  0  0  0  0  0  0  0  0  0  0  0
  139.6869   72.5134  223.3782 H   0  0  0  0  0  0  0  0  0  0  0  0
  140.9530   70.9544  222.2746 H   0  0  0  0  0  0  0  0  0  0  0  0
  139.9018   71.0082  220.8092 H   0  0  0  0  0  0  0  0  0  0  0  0
  142.2348   72.3910  221.0915 H   0  0  0  0  0  0  0  0  0  0  0  0
  140.8594   72.8787  220.0221 H   0  0  0  0  0  0  0  0  0  0  0  0
  141.4190   73.8780  222.7580 H   0  0  0  0  0  0  0  0  0  0  0  0
  139.5279   75.1481  222.5574 H   0  0  0  0  0  0  0  0  0  0  0  0
  139.6078   74.9753  220.7468 H   0  0  0  0  0  0  0  0  0  0  0  0
  137.7369   73.7247  222.3164 H   0  0  0  0  0  0  0  0  0  0  0  0
  138.2835   73.1083  220.7381 H   0  0  0  0  0  0  0  0  0  0  0  0
  135.5703   67.9210  225.4490 H   0  0  0  0  0  0  0  0  0  0  0  0
  134.2263   69.3320  226.9639 H   0  0  0  0  0  0  0  0  0  0  0  0
  1  2  1  0
  2  3  2  0
  2  4  1  0
  4  5  1  0
  5  6  2  0
  6  7  1  0
  7  8  2  0
  8  9  1  0
  9 10  2  0
 10 11  1  0
 11 12  2  0
 12 13  1  0
 13 14  2  0
 14 15  1  0
 15 16  2  0
 16 17  1  0
 17 18  1  0
 17 19  2  0
 19 20  1  0
 20 21  2  0
 20 22  1  0
 22 23  1  0
 23 24  1  0
 24 25  1  0
 25 26  1  0
 26 27  1  0
 27 28  1  0
 28 29  1  0
  8 30  1  0
 30 31  2  0
 31  5  1  0
 22 11  1  0
 29 24  1  0
 19 13  1  0
  1 32  1  0
  1 33  1  0
  1 34  1  0
  4 35  1  0
  6 36  1  0
  7 37  1  0
  9 38  1  0
 10 39  1  0
 14 40  1  0
 15 41  1  0
 16 42  1  0
 23 43  1  0
 23 44  1  0
 24 45  1  0
 25 46  1  0
 25 47  1  0
 26 48  1  0
 26 49  1  0
 27 50  1  0
 28 51  1  0
 28 52  1  0
 29 53  1  0
 29 54  1  0
 30 55  1  0
 31 56  1  0
M  END
>  <smiles>  (20) 
CC(=O)Nc1ccc(/C=C/c2nc3cccc(Cl)c3c(=O)n2CC2CCNCC2)cc1

>  <score_type>  (20) 
oracle

>  <origin>  (20) 
autodockgpu

>  <m_score__min__energy>  (20) 
-8.9299999999999997

>  <m_primary>  (20) 
energy

>  <meeko>  (20) 
{"free_energy": -8.29, "intermolecular_energy": -10.08, "internal_energy": -1.84, "cluster_size": 4, "cluster_id": 5, "rank_in_cluster": 1}

>  <energy>  (20) 
-7.99

>  <cluster_rmsd>  (20) 
0.0

>  <rmsd>  (20) 
270.79

>  <cluster>  (20) 
8

$$$$
