SHJBAEJHBLGYCJ-BJMVGYQFNA-N
     RDKit          3D

 43 46  0  0  0  0  0  0  0  0999 V2000
  143.5158   69.9553  219.8600 H   0  0  0  0  0  0  0  0  0  0  0  0
  143.2870   71.0310  219.8840 C   0  0  0  0  0  0  0  0  0  0  0  0
  142.0040   71.4010  219.7850 C   0  0  0  0  0  0  0  0  0  0  0  0
  141.2859   70.7324  219.2877 H   0  0  0  0  0  0  0  0  0  0  0  0
  141.5370   72.6870  220.3300 C   0  0  0  0  0  0  0  0  0  0  0  0
  142.2160   73.8010  219.9550 N   0  0  0  0  0  0  0  0  0  0  0  0
  141.8580   75.0330  220.3830 C   0  0  0  0  0  0  0  0  0  0  0  0
  142.5910   76.1540  219.9800 C   0  0  0  0  0  0  0  0  0  0  0  0
  143.4583   76.0329  219.3143 H   0  0  0  0  0  0  0  0  0  0  0  0
  142.2230   77.4280  220.4220 C   0  0  0  0  0  0  0  0  0  0  0  0
  142.8017   78.3082  220.1053 H   0  0  0  0  0  0  0  0  0  0  0  0
  141.1190   77.5840  221.2670 C   0  0  0  0  0  0  0  0  0  0  0  0
  140.6590   79.1850  221.8190 Cl  0  0  0  0  0  0  0  0  0  0  0  0
  140.3810   76.4660  221.6730 C   0  0  0  0  0  0  0  0  0  0  0  0
  139.5134   76.5921  222.3373 H   0  0  0  0  0  0  0  0  0  0  0  0
  140.7480   75.1800  221.2320 C   0  0  0  0  0  0  0  0  0  0  0  0
  140.0360   74.0260  221.6020 C   0  0  0  0  0  0  0  0  0  0  0  0
  139.0220   74.1390  222.3490 O   0  0  0  0  0  0  0  0  0  0  0  0
  140.4310   72.7870  221.1500 N   0  0  0  0  0  0  0  0  0  0  0  0
  139.6330   71.5850  221.4880 C   0  0  0  0  0  0  0  0  0  0  0  0
  138.5760   71.7755  221.2504 H   0  0  0  0  0  0  0  0  0  0  0  0
  140.0107   70.7349  220.9009 H   0  0  0  0  0  0  0  0  0  0  0  0
  139.7580   71.2530  222.9540 C   0  0  0  0  0  0  0  0  0  0  0  0
  140.6890   71.9280  223.7620 C   0  0  0  0  0  0  0  0  0  0  0  0
  141.3247   72.7127  223.3260 H   0  0  0  0  0  0  0  0  0  0  0  0
  140.8110   71.6070  225.1170 C   0  0  0  0  0  0  0  0  0  0  0  0
  141.5448   72.1359  225.7429 H   0  0  0  0  0  0  0  0  0  0  0  0
  140.0010   70.6140  225.6780 C   0  0  0  0  0  0  0  0  0  0  0  0
  140.1550   70.2110  227.3770 Cl  0  0  0  0  0  0  0  0  0  0  0  0
  139.0660   69.9440  224.8820 C   0  0  0  0  0  0  0  0  0  0  0  0
  138.4266   69.1652  225.3233 H   0  0  0  0  0  0  0  0  0  0  0  0
  138.9430   70.2630  223.5260 C   0  0  0  0  0  0  0  0  0  0  0  0
  138.2042   69.7358  222.9045 H   0  0  0  0  0  0  0  0  0  0  0  0
  144.4200   71.9790  220.0240 C   0  0  0  0  0  0  0  0  0  0  0  0
  145.2440   72.2130  218.9110 C   0  0  0  0  0  0  0  0  0  0  0  0
  145.0414   71.6930  217.9631 H   0  0  0  0  0  0  0  0  0  0  0  0
  146.2900   73.0770  218.9960 N   0  0  0  0  0  0  0  0  0  0  0  0
  146.5810   73.7360  220.1480 C   0  0  0  0  0  0  0  0  0  0  0  0
  147.4323   74.4318  220.1834 H   0  0  0  0  0  0  0  0  0  0  0  0
  145.8020   73.5310  221.2840 C   0  0  0  0  0  0  0  0  0  0  0  0
  146.0368   74.0593  222.2198 H   0  0  0  0  0  0  0  0  0  0  0  0
  144.7210   72.6500  221.2260 C   0  0  0  0  0  0  0  0  0  0  0  0
  144.1031   72.4792  222.1199 H   0  0  0  0  0  0  0  0  0  0  0  0
  1  2  1  0
  2  3  2  0
  3  4  1  0
  3  5  1  0
  5  6  2  0
  6  7  1  0
  7  8  2  0
  8  9  1  0
  8 10  1  0
 10 11  1  0
 10 12  2  0
 12 13  1  0
 12 14  1  0
 14 15  1  0
 14 16  2  0
 16 17  1  0
 17 18  2  0
 17 19  1  0
 19 20  1  0
 20 21  1  0
 20 22  1  0
 20 23  1  0
 23 24  2  0
 24 25  1  0
 24 26  1  0
 26 27  1  0
 26 28  2  0
 28 29  1  0
 28 30  1  0
 30 31  1  0
 30 32  2  0
 32 33  1  0
  2 34  1  0
 34 35  2  0
 35 36  1  0
 35 37  1  0
 37 38  2  0
 38 39  1  0
 38 40  1  0
 40 41  1  0
 40 42  2  0
 42 43  1  0
 19  5  1  0
 32 23  1  0
 42 34  1  0
 16  7  1  0
M  END
>  <UniqueID>  (1) 
6

>  <SMILES>  (1) 
O=c1c2cc(Cl)ccc2nc(/C=C/c2cccnc2)n1Cc1ccc(Cl)cc1

>  <Energy>  (1) 
64.88639036852045

>  <Genealogy>  (1) 
O=c1c2cc(Cl)ccc2nc(/C=C/c2cccnc2)n1Cc1ccc(Cl)cc1 (cis-trans isomerization)
O=c1c2cc(Cl)ccc2nc(/C=C/c2cccnc2)n1Cc1ccc(Cl)cc1 (3D coordinates assigned)
O=c1c2cc(Cl)ccc2nc(/C=C/c2cccnc2)n1Cc1ccc(Cl)cc1 (optimized conformer: 64.88639036852045 kcal/mol)

>  <smiles>  (1) 
O=c1c2cc(Cl)ccc2nc(/C=C/c2cccnc2)n1Cc1ccc(Cl)cc1

>  <score_type>  (1) 
oracle

>  <origin>  (1) 
autodockgpu

>  <m_score__min__energy>  (1) 
-8.0099999999999998

>  <m_primary>  (1) 
energy

>  <meeko>  (1) 
{"free_energy": -7.93, "intermolecular_energy": -9.42, "internal_energy": -1.39, "cluster_size": 5, "cluster_id": 2, "rank_in_cluster": 1}

>  <energy>  (1) 
-8.01

>  <cluster_rmsd>  (1) 
0.0

>  <rmsd>  (1) 
270.5

>  <cluster>  (1) 
1

$$$$
SHJBAEJHBLGYCJ-BJMVGYQFNA-N
     RDKit          3D

 43 46  0  0  0  0  0  0  0  0999 V2000
  136.0373   72.4532  223.5542 H   0  0  0  0  0  0  0  0  0  0  0  0
  135.8020   73.5230  223.4540 C   0  0  0  0  0  0  0  0  0  0  0  0
  136.2090   74.1520  222.3450 C   0  0  0  0  0  0  0  0  0  0  0  0
  135.5758   74.1260  221.4459 H   0  0  0  0  0  0  0  0  0  0  0  0
  137.4890   74.8780  222.3070 C   0  0  0  0  0  0  0  0  0  0  0  0
  137.4700   76.1860  222.6700 N   0  0  0  0  0  0  0  0  0  0  0  0
  138.5940   76.9380  222.6890 C   0  0  0  0  0  0  0  0  0  0  0  0
  138.5290   78.2850  223.0620 C   0  0  0  0  0  0  0  0  0  0  0  0
  137.5633   78.7314  223.3415 H   0  0  0  0  0  0  0  0  0  0  0  0
  139.6890   79.0640  223.0800 C   0  0  0  0  0  0  0  0  0  0  0  0
  139.6351   80.1233  223.3713 H   0  0  0  0  0  0  0  0  0  0  0  0
  140.9180   78.4980  222.7280 C   0  0  0  0  0  0  0  0  0  0  0  0
  142.3730   79.4790  222.7540 Cl  0  0  0  0  0  0  0  0  0  0  0  0
  140.9900   77.1510  222.3560 C   0  0  0  0  0  0  0  0  0  0  0  0
  141.9588   76.7085  222.0810 H   0  0  0  0  0  0  0  0  0  0  0  0
  139.8250   76.3610  222.3330 C   0  0  0  0  0  0  0  0  0  0  0  0
  139.8430   75.0010  221.9760 C   0  0  0  0  0  0  0  0  0  0  0  0
  140.9440   74.4580  221.6730 O   0  0  0  0  0  0  0  0  0  0  0  0
  138.6790   74.2670  221.9650 N   0  0  0  0  0  0  0  0  0  0  0  0
  138.7200   72.8180  221.6560 C   0  0  0  0  0  0  0  0  0  0  0  0
  137.7323   72.4992  221.2916 H   0  0  0  0  0  0  0  0  0  0  0  0
  139.4872   72.6437  220.8872 H   0  0  0  0  0  0  0  0  0  0  0  0
  139.0760   72.0170  222.8830 C   0  0  0  0  0  0  0  0  0  0  0  0
  138.1490   71.1280  223.4500 C   0  0  0  0  0  0  0  0  0  0  0  0
  137.1575   71.0045  222.9898 H   0  0  0  0  0  0  0  0  0  0  0  0
  138.4790   70.3990  224.5960 C   0  0  0  0  0  0  0  0  0  0  0  0
  137.7458   69.7084  225.0382 H   0  0  0  0  0  0  0  0  0  0  0  0
  139.7410   70.5470  225.1810 C   0  0  0  0  0  0  0  0  0  0  0  0
  140.1550   69.6330  226.6190 Cl  0  0  0  0  0  0  0  0  0  0  0  0
  140.6730   71.4240  224.6180 C   0  0  0  0  0  0  0  0  0  0  0  0
  141.6662   71.5386  225.0767 H   0  0  0  0  0  0  0  0  0  0  0  0
  140.3440   72.1560  223.4720 C   0  0  0  0  0  0  0  0  0  0  0  0
  141.0809   72.8430  223.0304 H   0  0  0  0  0  0  0  0  0  0  0  0
  135.0540   74.1750  224.5570 C   0  0  0  0  0  0  0  0  0  0  0  0
  134.3330   73.3680  225.4520 C   0  0  0  0  0  0  0  0  0  0  0  0
  134.3304   72.2758  225.3212 H   0  0  0  0  0  0  0  0  0  0  0  0
  133.6380   73.9260  226.4790 N   0  0  0  0  0  0  0  0  0  0  0  0
  133.6080   75.2700  226.6750 C   0  0  0  0  0  0  0  0  0  0  0  0
  133.0390   75.6901  227.5174 H   0  0  0  0  0  0  0  0  0  0  0  0
  134.2980   76.1170  225.8090 C   0  0  0  0  0  0  0  0  0  0  0  0
  134.2738   77.2061  225.9619 H   0  0  0  0  0  0  0  0  0  0  0  0
  135.0200   75.5710  224.7460 C   0  0  0  0  0  0  0  0  0  0  0  0
  135.5634   76.2319  224.0547 H   0  0  0  0  0  0  0  0  0  0  0  0
  1  2  1  0
  2  3  2  0
  3  4  1  0
  3  5  1  0
  5  6  2  0
  6  7  1  0
  7  8  2  0
  8  9  1  0
  8 10  1  0
 10 11  1  0
 10 12  2  0
 12 13  1  0
 12 14  1  0
 14 15  1  0
 14 16  2  0
 16 17  1  0
 17 18  2  0
 17 19  1  0
 19 20  1  0
 20 21  1  0
 20 22  1  0
 20 23  1  0
 23 24  2  0
 24 25  1  0
 24 26  1  0
 26 27  1  0
 26 28  2  0
 28 29  1  0
 28 30  1  0
 30 31  1  0
 30 32  2  0
 32 33  1  0
  2 34  1  0
 34 35  2  0
 35 36  1  0
 35 37  1  0
 37 38  2  0
 38 39  1  0
 38 40  1  0
 40 41  1  0
 40 42  2  0
 42 43  1  0
 19  5  1  0
 32 23  1  0
 42 34  1  0
 16  7  1  0
M  END
>  <UniqueID>  (2) 
6

>  <SMILES>  (2) 
O=c1c2cc(Cl)ccc2nc(/C=C/c2cccnc2)n1Cc1ccc(Cl)cc1

>  <Energy>  (2) 
64.88639036852045

>  <Genealogy>  (2) 
O=c1c2cc(Cl)ccc2nc(/C=C/c2cccnc2)n1Cc1ccc(Cl)cc1 (cis-trans isomerization)
O=c1c2cc(Cl)ccc2nc(/C=C/c2cccnc2)n1Cc1ccc(Cl)cc1 (3D coordinates assigned)
O=c1c2cc(Cl)ccc2nc(/C=C/c2cccnc2)n1Cc1ccc(Cl)cc1 (optimized conformer: 64.88639036852045 kcal/mol)

>  <smiles>  (2) 
O=c1c2cc(Cl)ccc2nc(/C=C/c2cccnc2)n1Cc1ccc(Cl)cc1

>  <score_type>  (2) 
oracle

>  <origin>  (2) 
autodockgpu

>  <m_score__min__energy>  (2) 
-8.0099999999999998

>  <m_primary>  (2) 
energy

>  <meeko>  (2) 
{"free_energy": -8.01, "intermolecular_energy": -9.5, "internal_energy": -1.38, "cluster_size": 13, "cluster_id": 1, "rank_in_cluster": 1}

>  <energy>  (2) 
-7.99

>  <cluster_rmsd>  (2) 
0.12

>  <rmsd>  (2) 
270.47

>  <cluster>  (2) 
1

$$$$
SHJBAEJHBLGYCJ-BJMVGYQFNA-N
     RDKit          3D

 43 46  0  0  0  0  0  0  0  0999 V2000
  135.8203   71.5734  223.8948 H   0  0  0  0  0  0  0  0  0  0  0  0
  135.7120   72.6330  223.6200 C   0  0  0  0  0  0  0  0  0  0  0  0
  136.1830   73.0220  222.4290 C   0  0  0  0  0  0  0  0  0  0  0  0
  135.6742   72.6895  221.5122 H   0  0  0  0  0  0  0  0  0  0  0  0
  137.3700   73.8870  222.3240 C   0  0  0  0  0  0  0  0  0  0  0  0
  137.1740   75.2250  222.4470 N   0  0  0  0  0  0  0  0  0  0  0  0
  138.1990   76.1050  222.3860 C   0  0  0  0  0  0  0  0  0  0  0  0
  137.9520   77.4760  222.5090 C   0  0  0  0  0  0  0  0  0  0  0  0
  136.9238   77.8378  222.6571 H   0  0  0  0  0  0  0  0  0  0  0  0
  139.0100   78.3870  222.4440 C   0  0  0  0  0  0  0  0  0  0  0  0
  138.8132   79.4650  222.5393 H   0  0  0  0  0  0  0  0  0  0  0  0
  140.3180   77.9300  222.2580 C   0  0  0  0  0  0  0  0  0  0  0  0
  141.6440   79.0760  222.1800 Cl  0  0  0  0  0  0  0  0  0  0  0  0
  140.5720   76.5590  222.1360 C   0  0  0  0  0  0  0  0  0  0  0  0
  141.6023   76.2020  221.9908 H   0  0  0  0  0  0  0  0  0  0  0  0
  139.5100   75.6360  222.1990 C   0  0  0  0  0  0  0  0  0  0  0  0
  139.7110   74.2480  222.0900 C   0  0  0  0  0  0  0  0  0  0  0  0
  140.8850   73.8050  221.9420 O   0  0  0  0  0  0  0  0  0  0  0  0
  138.6430   73.3810  222.1550 N   0  0  0  0  0  0  0  0  0  0  0  0
  138.8730   71.9180  222.1100 C   0  0  0  0  0  0  0  0  0  0  0  0
  137.9564   71.4192  221.7621 H   0  0  0  0  0  0  0  0  0  0  0  0
  139.7053   71.7126  221.4208 H   0  0  0  0  0  0  0  0  0  0  0  0
  139.2350   71.3910  223.4770 C   0  0  0  0  0  0  0  0  0  0  0  0
  140.3480   71.9000  224.1670 C   0  0  0  0  0  0  0  0  0  0  0  0
  140.9555   72.6970  223.7135 H   0  0  0  0  0  0  0  0  0  0  0  0
  140.6870   71.3990  225.4260 C   0  0  0  0  0  0  0  0  0  0  0  0
  141.5618   71.7995  225.9592 H   0  0  0  0  0  0  0  0  0  0  0  0
  139.9150   70.3880  226.0100 C   0  0  0  0  0  0  0  0  0  0  0  0
  140.3420   69.7590  227.5890 Cl  0  0  0  0  0  0  0  0  0  0  0  0
  138.8010   69.8830  225.3330 C   0  0  0  0  0  0  0  0  0  0  0  0
  138.1914   69.0914  225.7932 H   0  0  0  0  0  0  0  0  0  0  0  0
  138.4600   70.3820  224.0720 C   0  0  0  0  0  0  0  0  0  0  0  0
  137.5814   69.9828  223.5440 H   0  0  0  0  0  0  0  0  0  0  0  0
  135.0530   73.5390  224.5940 C   0  0  0  0  0  0  0  0  0  0  0  0
  134.2110   72.9810  225.5690 C   0  0  0  0  0  0  0  0  0  0  0  0
  134.0506   71.8930  225.5941 H   0  0  0  0  0  0  0  0  0  0  0  0
  133.5920   73.7760  226.4830 N   0  0  0  0  0  0  0  0  0  0  0  0
  133.7560   75.1240  226.4850 C   0  0  0  0  0  0  0  0  0  0  0  0
  133.2435   75.7389  227.2395 H   0  0  0  0  0  0  0  0  0  0  0  0
  134.5730   75.7290  225.5320 C   0  0  0  0  0  0  0  0  0  0  0  0
  134.7056   76.8210  225.5282 H   0  0  0  0  0  0  0  0  0  0  0  0
  135.2220   74.9380  224.5820 C   0  0  0  0  0  0  0  0  0  0  0  0
  135.8658   75.4073  223.8235 H   0  0  0  0  0  0  0  0  0  0  0  0
  1  2  1  0
  2  3  2  0
  3  4  1  0
  3  5  1  0
  5  6  2  0
  6  7  1  0
  7  8  2  0
  8  9  1  0
  8 10  1  0
 10 11  1  0
 10 12  2  0
 12 13  1  0
 12 14  1  0
 14 15  1  0
 14 16  2  0
 16 17  1  0
 17 18  2  0
 17 19  1  0
 19 20  1  0
 20 21  1  0
 20 22  1  0
 20 23  1  0
 23 24  2  0
 24 25  1  0
 24 26  1  0
 26 27  1  0
 26 28  2  0
 28 29  1  0
 28 30  1  0
 30 31  1  0
 30 32  2  0
 32 33  1  0
  2 34  1  0
 34 35  2  0
 35 36  1  0
 35 37  1  0
 37 38  2  0
 38 39  1  0
 38 40  1  0
 40 41  1  0
 40 42  2  0
 42 43  1  0
 19  5  1  0
 32 23  1  0
 42 34  1  0
 16  7  1  0
M  END
>  <UniqueID>  (3) 
6

>  <SMILES>  (3) 
O=c1c2cc(Cl)ccc2nc(/C=C/c2cccnc2)n1Cc1ccc(Cl)cc1

>  <Energy>  (3) 
64.88639036852045

>  <Genealogy>  (3) 
O=c1c2cc(Cl)ccc2nc(/C=C/c2cccnc2)n1Cc1ccc(Cl)cc1 (cis-trans isomerization)
O=c1c2cc(Cl)ccc2nc(/C=C/c2cccnc2)n1Cc1ccc(Cl)cc1 (3D coordinates assigned)
O=c1c2cc(Cl)ccc2nc(/C=C/c2cccnc2)n1Cc1ccc(Cl)cc1 (optimized conformer: 64.88639036852045 kcal/mol)

>  <smiles>  (3) 
O=c1c2cc(Cl)ccc2nc(/C=C/c2cccnc2)n1Cc1ccc(Cl)cc1

>  <score_type>  (3) 
oracle

>  <origin>  (3) 
autodockgpu

>  <m_score__min__energy>  (3) 
-8.0099999999999998

>  <m_primary>  (3) 
energy

>  <meeko>  (3) 
{"free_energy": -7.93, "intermolecular_energy": -9.43, "internal_energy": -1.38, "cluster_size": 13, "cluster_id": 1, "rank_in_cluster": 6}

>  <energy>  (3) 
-7.99

>  <cluster_rmsd>  (3) 
0.06

>  <rmsd>  (3) 
270.48

>  <cluster>  (3) 
1

$$$$
SHJBAEJHBLGYCJ-BJMVGYQFNA-N
     RDKit          3D

 43 46  0  0  0  0  0  0  0  0999 V2000
  135.7944   71.9827  223.3453 H   0  0  0  0  0  0  0  0  0  0  0  0
  135.7740   73.0760  223.2260 C   0  0  0  0  0  0  0  0  0  0  0  0
  136.2810   73.5930  222.1000 C   0  0  0  0  0  0  0  0  0  0  0  0
  135.7649   73.4174  221.1446 H   0  0  0  0  0  0  0  0  0  0  0  0
  137.5180   74.3930  222.1180 C   0  0  0  0  0  0  0  0  0  0  0  0
  137.3940   75.7170  222.3890 N   0  0  0  0  0  0  0  0  0  0  0  0
  138.4680   76.5370  222.4490 C   0  0  0  0  0  0  0  0  0  0  0  0
  138.2950   77.8980  222.7220 C   0  0  0  0  0  0  0  0  0  0  0  0
  137.2851   78.3007  222.8889 H   0  0  0  0  0  0  0  0  0  0  0  0
  139.4040   78.7470  222.7830 C   0  0  0  0  0  0  0  0  0  0  0  0
  139.2658   79.8171  222.9971 H   0  0  0  0  0  0  0  0  0  0  0  0
  140.6890   78.2370  222.5720 C   0  0  0  0  0  0  0  0  0  0  0  0
  142.0790   79.3050  222.6510 Cl  0  0  0  0  0  0  0  0  0  0  0  0
  140.8680   76.8760  222.3000 C   0  0  0  0  0  0  0  0  0  0  0  0
  141.8801   76.4773  222.1367 H   0  0  0  0  0  0  0  0  0  0  0  0
  139.7550   76.0160  222.2350 C   0  0  0  0  0  0  0  0  0  0  0  0
  139.8810   74.6400  221.9740 C   0  0  0  0  0  0  0  0  0  0  0  0
  141.0320   74.1480  221.8000 O   0  0  0  0  0  0  0  0  0  0  0  0
  138.7640   73.8360  221.9180 N   0  0  0  0  0  0  0  0  0  0  0  0
  138.9130   72.3760  221.7120 C   0  0  0  0  0  0  0  0  0  0  0  0
  137.9827   71.9757  221.2827 H   0  0  0  0  0  0  0  0  0  0  0  0
  139.7569   72.2010  221.0285 H   0  0  0  0  0  0  0  0  0  0  0  0
  139.1960   71.6760  223.0180 C   0  0  0  0  0  0  0  0  0  0  0  0
  140.4130   71.8810  223.6890 C   0  0  0  0  0  0  0  0  0  0  0  0
  141.1629   72.5653  223.2654 H   0  0  0  0  0  0  0  0  0  0  0  0
  140.6760   71.2200  224.8920 C   0  0  0  0  0  0  0  0  0  0  0  0
  141.6328   71.3818  225.4100 H   0  0  0  0  0  0  0  0  0  0  0  0
  139.7240   70.3530  225.4380 C   0  0  0  0  0  0  0  0  0  0  0  0
  140.0550   69.5230  226.9460 Cl  0  0  0  0  0  0  0  0  0  0  0  0
  138.5060   70.1500  224.7800 C   0  0  0  0  0  0  0  0  0  0  0  0
  137.7558   69.4703  225.2104 H   0  0  0  0  0  0  0  0  0  0  0  0
  138.2410   70.8100  223.5760 C   0  0  0  0  0  0  0  0  0  0  0  0
  137.2807   70.6504  223.0637 H   0  0  0  0  0  0  0  0  0  0  0  0
  135.1860   73.8840  224.3240 C   0  0  0  0  0  0  0  0  0  0  0  0
  134.5090   73.2200  225.3600 C   0  0  0  0  0  0  0  0  0  0  0  0
  134.4216   72.1237  225.3402 H   0  0  0  0  0  0  0  0  0  0  0  0
  133.9610   73.9220  226.3870 N   0  0  0  0  0  0  0  0  0  0  0  0
  134.0380   75.2770  226.4490 C   0  0  0  0  0  0  0  0  0  0  0  0
  133.5857   75.8154  227.2949 H   0  0  0  0  0  0  0  0  0  0  0  0
  134.6900   75.9850  225.4410 C   0  0  0  0  0  0  0  0  0  0  0  0
  134.7521   77.0824  225.4854 H   0  0  0  0  0  0  0  0  0  0  0  0
  135.2640   75.2900  224.3740 C   0  0  0  0  0  0  0  0  0  0  0  0
  135.7774   75.8408  223.5720 H   0  0  0  0  0  0  0  0  0  0  0  0
  1  2  1  0
  2  3  2  0
  3  4  1  0
  3  5  1  0
  5  6  2  0
  6  7  1  0
  7  8  2  0
  8  9  1  0
  8 10  1  0
 10 11  1  0
 10 12  2  0
 12 13  1  0
 12 14  1  0
 14 15  1  0
 14 16  2  0
 16 17  1  0
 17 18  2  0
 17 19  1  0
 19 20  1  0
 20 21  1  0
 20 22  1  0
 20 23  1  0
 23 24  2  0
 24 25  1  0
 24 26  1  0
 26 27  1  0
 26 28  2  0
 28 29  1  0
 28 30  1  0
 30 31  1  0
 30 32  2  0
 32 33  1  0
  2 34  1  0
 34 35  2  0
 35 36  1  0
 35 37  1  0
 37 38  2  0
 38 39  1  0
 38 40  1  0
 40 41  1  0
 40 42  2  0
 42 43  1  0
 19  5  1  0
 32 23  1  0
 42 34  1  0
 16  7  1  0
M  END
>  <UniqueID>  (4) 
6

>  <SMILES>  (4) 
O=c1c2cc(Cl)ccc2nc(/C=C/c2cccnc2)n1Cc1ccc(Cl)cc1

>  <Energy>  (4) 
64.88639036852045

>  <Genealogy>  (4) 
O=c1c2cc(Cl)ccc2nc(/C=C/c2cccnc2)n1Cc1ccc(Cl)cc1 (cis-trans isomerization)
O=c1c2cc(Cl)ccc2nc(/C=C/c2cccnc2)n1Cc1ccc(Cl)cc1 (3D coordinates assigned)
O=c1c2cc(Cl)ccc2nc(/C=C/c2cccnc2)n1Cc1ccc(Cl)cc1 (optimized conformer: 64.88639036852045 kcal/mol)

>  <smiles>  (4) 
O=c1c2cc(Cl)ccc2nc(/C=C/c2cccnc2)n1Cc1ccc(Cl)cc1

>  <score_type>  (4) 
oracle

>  <origin>  (4) 
autodockgpu

>  <m_score__min__energy>  (4) 
-8.0099999999999998

>  <m_primary>  (4) 
energy

>  <meeko>  (4) 
{"free_energy": -7.92, "intermolecular_energy": -9.41, "internal_energy": -1.43, "cluster_size": 13, "cluster_id": 1, "rank_in_cluster": 8}

>  <energy>  (4) 
-7.99

>  <cluster_rmsd>  (4) 
0.1

>  <rmsd>  (4) 
270.46

>  <cluster>  (4) 
1

$$$$
SHJBAEJHBLGYCJ-BJMVGYQFNA-N
     RDKit          3D

 43 46  0  0  0  0  0  0  0  0999 V2000
  141.9367   71.3782  219.4689 H   0  0  0  0  0  0  0  0  0  0  0  0
  142.3550   71.8780  220.3550 C   0  0  0  0  0  0  0  0  0  0  0  0
  141.6000   71.9300  221.4590 C   0  0  0  0  0  0  0  0  0  0  0  0
  141.6685   71.1192  222.1992 H   0  0  0  0  0  0  0  0  0  0  0  0
  140.6790   73.0540  221.7000 C   0  0  0  0  0  0  0  0  0  0  0  0
  141.1970   74.3060  221.6200 N   0  0  0  0  0  0  0  0  0  0  0  0
  140.4330   75.4080  221.8050 C   0  0  0  0  0  0  0  0  0  0  0  0
  141.0080   76.6800  221.7210 C   0  0  0  0  0  0  0  0  0  0  0  0
  142.0812   76.7845  221.5035 H   0  0  0  0  0  0  0  0  0  0  0  0
  140.2210   77.8180  221.9130 C   0  0  0  0  0  0  0  0  0  0  0  0
  140.6755   78.8176  221.8478 H   0  0  0  0  0  0  0  0  0  0  0  0
  138.8560   77.6880  222.1880 C   0  0  0  0  0  0  0  0  0  0  0  0
  137.8710   79.1210  222.4270 Cl  0  0  0  0  0  0  0  0  0  0  0  0
  138.2750   76.4180  222.2710 C   0  0  0  0  0  0  0  0  0  0  0  0
  137.2008   76.3186  222.4858 H   0  0  0  0  0  0  0  0  0  0  0  0
  139.0630   75.2670  222.0800 C   0  0  0  0  0  0  0  0  0  0  0  0
  138.5270   73.9680  222.1440 C   0  0  0  0  0  0  0  0  0  0  0  0
  137.2920   73.8210  222.3700 O   0  0  0  0  0  0  0  0  0  0  0  0
  139.3350   72.8700  221.9530 N   0  0  0  0  0  0  0  0  0  0  0  0
  138.7470   71.5090  221.9520 C   0  0  0  0  0  0  0  0  0  0  0  0
  137.6527   71.5890  221.8741 H   0  0  0  0  0  0  0  0  0  0  0  0
  139.1520   70.9506  221.0952 H   0  0  0  0  0  0  0  0  0  0  0  0
  139.1000   70.7720  223.2200 C   0  0  0  0  0  0  0  0  0  0  0  0
  138.7590   69.4190  223.3780 C   0  0  0  0  0  0  0  0  0  0  0  0
  138.2403   68.8871  222.5668 H   0  0  0  0  0  0  0  0  0  0  0  0
  139.0750   68.7450  224.5600 C   0  0  0  0  0  0  0  0  0  0  0  0
  138.8002   67.6866  224.6792 H   0  0  0  0  0  0  0  0  0  0  0  0
  139.7410   69.4150  225.5930 C   0  0  0  0  0  0  0  0  0  0  0  0
  140.1370   68.5680  227.0760 Cl  0  0  0  0  0  0  0  0  0  0  0  0
  140.0910   70.7590  225.4400 C   0  0  0  0  0  0  0  0  0  0  0  0
  140.6160   71.2854  226.2507 H   0  0  0  0  0  0  0  0  0  0  0  0
  139.7750   71.4360  224.2580 C   0  0  0  0  0  0  0  0  0  0  0  0
  140.0561   72.4929  224.1403 H   0  0  0  0  0  0  0  0  0  0  0  0
  143.7200   72.4510  220.2490 C   0  0  0  0  0  0  0  0  0  0  0  0
  144.6790   71.7690  219.4840 C   0  0  0  0  0  0  0  0  0  0  0  0
  144.4087   70.8276  218.9832 H   0  0  0  0  0  0  0  0  0  0  0  0
  145.9400   72.2630  219.3570 N   0  0  0  0  0  0  0  0  0  0  0  0
  146.3190   73.4190  219.9620 C   0  0  0  0  0  0  0  0  0  0  0  0
  147.3455   73.7940  219.8369 H   0  0  0  0  0  0  0  0  0  0  0  0
  145.4080   74.1300  220.7410 C   0  0  0  0  0  0  0  0  0  0  0  0
  145.7117   75.0643  221.2358 H   0  0  0  0  0  0  0  0  0  0  0  0
  144.1060   73.6460  220.8880 C   0  0  0  0  0  0  0  0  0  0  0  0
  143.3809   74.1986  221.5035 H   0  0  0  0  0  0  0  0  0  0  0  0
  1  2  1  0
  2  3  2  0
  3  4  1  0
  3  5  1  0
  5  6  2  0
  6  7  1  0
  7  8  2  0
  8  9  1  0
  8 10  1  0
 10 11  1  0
 10 12  2  0
 12 13  1  0
 12 14  1  0
 14 15  1  0
 14 16  2  0
 16 17  1  0
 17 18  2  0
 17 19  1  0
 19 20  1  0
 20 21  1  0
 20 22  1  0
 20 23  1  0
 23 24  2  0
 24 25  1  0
 24 26  1  0
 26 27  1  0
 26 28  2  0
 28 29  1  0
 28 30  1  0
 30 31  1  0
 30 32  2  0
 32 33  1  0
  2 34  1  0
 34 35  2  0
 35 36  1  0
 35 37  1  0
 37 38  2  0
 38 39  1  0
 38 40  1  0
 40 41  1  0
 40 42  2  0
 42 43  1  0
 19  5  1  0
 32 23  1  0
 42 34  1  0
 16  7  1  0
M  END
>  <UniqueID>  (5) 
6

>  <SMILES>  (5) 
O=c1c2cc(Cl)ccc2nc(/C=C/c2cccnc2)n1Cc1ccc(Cl)cc1

>  <Energy>  (5) 
64.88639036852045

>  <Genealogy>  (5) 
O=c1c2cc(Cl)ccc2nc(/C=C/c2cccnc2)n1Cc1ccc(Cl)cc1 (cis-trans isomerization)
O=c1c2cc(Cl)ccc2nc(/C=C/c2cccnc2)n1Cc1ccc(Cl)cc1 (3D coordinates assigned)
O=c1c2cc(Cl)ccc2nc(/C=C/c2cccnc2)n1Cc1ccc(Cl)cc1 (optimized conformer: 64.88639036852045 kcal/mol)

>  <smiles>  (5) 
O=c1c2cc(Cl)ccc2nc(/C=C/c2cccnc2)n1Cc1ccc(Cl)cc1

>  <score_type>  (5) 
oracle

>  <origin>  (5) 
autodockgpu

>  <m_score__min__energy>  (5) 
-8.0099999999999998

>  <m_primary>  (5) 
energy

>  <meeko>  (5) 
{"free_energy": -7.66, "intermolecular_energy": -9.16, "internal_energy": -1.16, "cluster_size": 5, "cluster_id": 2, "rank_in_cluster": 5}

>  <energy>  (5) 
-7.98

>  <cluster_rmsd>  (5) 
0.17

>  <rmsd>  (5) 
270.45

>  <cluster>  (5) 
1

$$$$
SHJBAEJHBLGYCJ-BJMVGYQFNA-N
     RDKit          3D

 43 46  0  0  0  0  0  0  0  0999 V2000
  143.0681   69.6885  219.9101 H   0  0  0  0  0  0  0  0  0  0  0  0
  142.8940   70.7720  219.9860 C   0  0  0  0  0  0  0  0  0  0  0  0
  141.6270   71.2000  220.0390 C   0  0  0  0  0  0  0  0  0  0  0  0
  140.8132   70.5158  219.7567 H   0  0  0  0  0  0  0  0  0  0  0  0
  141.3030   72.5720  220.4690 C   0  0  0  0  0  0  0  0  0  0  0  0
  142.0970   73.5690  220.0040 N   0  0  0  0  0  0  0  0  0  0  0  0
  141.8760   74.8650  220.3220 C   0  0  0  0  0  0  0  0  0  0  0  0
  142.7240   75.8620  219.8280 C   0  0  0  0  0  0  0  0  0  0  0  0
  143.5705   75.5915  219.1798 H   0  0  0  0  0  0  0  0  0  0  0  0
  142.4970   77.2010  220.1570 C   0  0  0  0  0  0  0  0  0  0  0  0
  143.1662   77.9831  219.7690 H   0  0  0  0  0  0  0  0  0  0  0  0
  141.4200   77.5480  220.9790 C   0  0  0  0  0  0  0  0  0  0  0  0
  141.1370   79.2310  221.3880 Cl  0  0  0  0  0  0  0  0  0  0  0  0
  140.5670   76.5550  221.4750 C   0  0  0  0  0  0  0  0  0  0  0  0
  139.7205   76.8306  222.1212 H   0  0  0  0  0  0  0  0  0  0  0  0
  140.7910   75.2040  221.1480 C   0  0  0  0  0  0  0  0  0  0  0  0
  139.9600   74.1690  221.6120 C   0  0  0  0  0  0  0  0  0  0  0  0
  138.9670   74.4550  222.3410 O   0  0  0  0  0  0  0  0  0  0  0  0
  140.2180   72.8600  221.2710 N   0  0  0  0  0  0  0  0  0  0  0  0
  139.2950   71.7860  221.7070 C   0  0  0  0  0  0  0  0  0  0  0  0
  138.2633   72.1670  221.6866 H   0  0  0  0  0  0  0  0  0  0  0  0
  139.4013   70.9309  221.0232 H   0  0  0  0  0  0  0  0  0  0  0  0
  139.6260   71.3300  223.1060 C   0  0  0  0  0  0  0  0  0  0  0  0
  140.6580   71.9470  223.8330 C   0  0  0  0  0  0  0  0  0  0  0  0
  141.2230   72.7773  223.3842 H   0  0  0  0  0  0  0  0  0  0  0  0
  140.9700   71.5110  225.1230 C   0  0  0  0  0  0  0  0  0  0  0  0
  141.7829   71.9946  225.6845 H   0  0  0  0  0  0  0  0  0  0  0  0
  140.2500   70.4600  225.7020 C   0  0  0  0  0  0  0  0  0  0  0  0
  140.6430   69.9140  227.3210 Cl  0  0  0  0  0  0  0  0  0  0  0  0
  139.2160   69.8470  224.9880 C   0  0  0  0  0  0  0  0  0  0  0  0
  138.6480   69.0223  225.4431 H   0  0  0  0  0  0  0  0  0  0  0  0
  138.9030   70.2810  223.6960 C   0  0  0  0  0  0  0  0  0  0  0  0
  138.0864   69.7982  223.1392 H   0  0  0  0  0  0  0  0  0  0  0  0
  144.0790   71.6640  220.0230 C   0  0  0  0  0  0  0  0  0  0  0  0
  144.8200   71.8490  218.8450 C   0  0  0  0  0  0  0  0  0  0  0  0
  144.5160   71.3326  217.9226 H   0  0  0  0  0  0  0  0  0  0  0  0
  145.9100   72.6610  218.8350 N   0  0  0  0  0  0  0  0  0  0  0  0
  146.3250   73.3140  219.9520 C   0  0  0  0  0  0  0  0  0  0  0  0
  147.2093   73.9669  219.9105 H   0  0  0  0  0  0  0  0  0  0  0  0
  145.6310   73.1570  221.1500 C   0  0  0  0  0  0  0  0  0  0  0  0
  145.9653   73.6812  222.0574 H   0  0  0  0  0  0  0  0  0  0  0  0
  144.5080   72.3290  221.1890 C   0  0  0  0  0  0  0  0  0  0  0  0
  143.9569   72.1953  222.1315 H   0  0  0  0  0  0  0  0  0  0  0  0
  1  2  1  0
  2  3  2  0
  3  4  1  0
  3  5  1  0
  5  6  2  0
  6  7  1  0
  7  8  2  0
  8  9  1  0
  8 10  1  0
 10 11  1  0
 10 12  2  0
 12 13  1  0
 12 14  1  0
 14 15  1  0
 14 16  2  0
 16 17  1  0
 17 18  2  0
 17 19  1  0
 19 20  1  0
 20 21  1  0
 20 22  1  0
 20 23  1  0
 23 24  2  0
 24 25  1  0
 24 26  1  0
 26 27  1  0
 26 28  2  0
 28 29  1  0
 28 30  1  0
 30 31  1  0
 30 32  2  0
 32 33  1  0
  2 34  1  0
 34 35  2  0
 35 36  1  0
 35 37  1  0
 37 38  2  0
 38 39  1  0
 38 40  1  0
 40 41  1  0
 40 42  2  0
 42 43  1  0
 19  5  1  0
 32 23  1  0
 42 34  1  0
 16  7  1  0
M  END
>  <UniqueID>  (6) 
6

>  <SMILES>  (6) 
O=c1c2cc(Cl)ccc2nc(/C=C/c2cccnc2)n1Cc1ccc(Cl)cc1

>  <Energy>  (6) 
64.88639036852045

>  <Genealogy>  (6) 
O=c1c2cc(Cl)ccc2nc(/C=C/c2cccnc2)n1Cc1ccc(Cl)cc1 (cis-trans isomerization)
O=c1c2cc(Cl)ccc2nc(/C=C/c2cccnc2)n1Cc1ccc(Cl)cc1 (3D coordinates assigned)
O=c1c2cc(Cl)ccc2nc(/C=C/c2cccnc2)n1Cc1ccc(Cl)cc1 (optimized conformer: 64.88639036852045 kcal/mol)

>  <smiles>  (6) 
O=c1c2cc(Cl)ccc2nc(/C=C/c2cccnc2)n1Cc1ccc(Cl)cc1

>  <score_type>  (6) 
oracle

>  <origin>  (6) 
autodockgpu

>  <m_score__min__energy>  (6) 
-8.0099999999999998

>  <m_primary>  (6) 
energy

>  <meeko>  (6) 
{"free_energy": -7.74, "intermolecular_energy": -9.23, "internal_energy": -1.4, "cluster_size": 5, "cluster_id": 2, "rank_in_cluster": 4}

>  <energy>  (6) 
-7.93

>  <cluster_rmsd>  (6) 
0.82

>  <rmsd>  (6) 
270.37

>  <cluster>  (6) 
1

$$$$
SHJBAEJHBLGYCJ-BJMVGYQFNA-N
     RDKit          3D

 43 46  0  0  0  0  0  0  0  0999 V2000
  135.7518   71.9531  223.4127 H   0  0  0  0  0  0  0  0  0  0  0  0
  135.7250   73.0450  223.2820 C   0  0  0  0  0  0  0  0  0  0  0  0
  136.2320   73.5530  222.1520 C   0  0  0  0  0  0  0  0  0  0  0  0
  135.7192   73.3643  221.1973 H   0  0  0  0  0  0  0  0  0  0  0  0
  137.4640   74.3600  222.1640 C   0  0  0  0  0  0  0  0  0  0  0  0
  137.3350   75.6830  222.4350 N   0  0  0  0  0  0  0  0  0  0  0  0
  138.4050   76.5080  222.4890 C   0  0  0  0  0  0  0  0  0  0  0  0
  138.2280   77.8680  222.7640 C   0  0  0  0  0  0  0  0  0  0  0  0
  137.2172   78.2658  222.9373 H   0  0  0  0  0  0  0  0  0  0  0  0
  139.3320   78.7220  222.8190 C   0  0  0  0  0  0  0  0  0  0  0  0
  139.1891   79.7914  223.0332 H   0  0  0  0  0  0  0  0  0  0  0  0
  140.6190   78.2190  222.6020 C   0  0  0  0  0  0  0  0  0  0  0  0
  142.0040   79.2940  222.6740 Cl  0  0  0  0  0  0  0  0  0  0  0  0
  140.8030   76.8590  222.3280 C   0  0  0  0  0  0  0  0  0  0  0  0
  141.8160   76.4656  222.1576 H   0  0  0  0  0  0  0  0  0  0  0  0
  139.6940   75.9930  222.2700 C   0  0  0  0  0  0  0  0  0  0  0  0
  139.8250   74.6180  222.0080 C   0  0  0  0  0  0  0  0  0  0  0  0
  140.9780   74.1320  221.8270 O   0  0  0  0  0  0  0  0  0  0  0  0
  138.7130   73.8080  221.9570 N   0  0  0  0  0  0  0  0  0  0  0  0
  138.8680   72.3490  221.7500 C   0  0  0  0  0  0  0  0  0  0  0  0
  137.9417   71.9462  221.3144 H   0  0  0  0  0  0  0  0  0  0  0  0
  139.7165   72.1774  221.0714 H   0  0  0  0  0  0  0  0  0  0  0  0
  139.1450   71.6490  223.0570 C   0  0  0  0  0  0  0  0  0  0  0  0
  138.2040   70.7620  223.6060 C   0  0  0  0  0  0  0  0  0  0  0  0
  137.2613   70.5664  223.0740 H   0  0  0  0  0  0  0  0  0  0  0  0
  138.4590   70.1270  224.8240 C   0  0  0  0  0  0  0  0  0  0  0  0
  137.7155   69.4376  225.2504 H   0  0  0  0  0  0  0  0  0  0  0  0
  139.6590   70.3670  225.5020 C   0  0  0  0  0  0  0  0  0  0  0  0
  139.9790   69.5700  227.0310 Cl  0  0  0  0  0  0  0  0  0  0  0  0
  140.6050   71.2420  224.9580 C   0  0  0  0  0  0  0  0  0  0  0  0
  141.5503   71.4284  225.4887 H   0  0  0  0  0  0  0  0  0  0  0  0
  140.3500   71.8800  223.7400 C   0  0  0  0  0  0  0  0  0  0  0  0
  141.0971   72.5663  223.3148 H   0  0  0  0  0  0  0  0  0  0  0  0
  135.1290   73.8600  224.3700 C   0  0  0  0  0  0  0  0  0  0  0  0
  134.4450   73.2040  225.4050 C   0  0  0  0  0  0  0  0  0  0  0  0
  134.3587   72.1075  225.3927 H   0  0  0  0  0  0  0  0  0  0  0  0
  133.8880   73.9130  226.4230 N   0  0  0  0  0  0  0  0  0  0  0  0
  133.9650   75.2690  226.4760 C   0  0  0  0  0  0  0  0  0  0  0  0
  133.5073   75.8134  227.3151 H   0  0  0  0  0  0  0  0  0  0  0  0
  134.6240   75.9700  225.4670 C   0  0  0  0  0  0  0  0  0  0  0  0
  134.6850   77.0677  225.5032 H   0  0  0  0  0  0  0  0  0  0  0  0
  135.2060   75.2670  224.4100 C   0  0  0  0  0  0  0  0  0  0  0  0
  135.7251   75.8118  223.6077 H   0  0  0  0  0  0  0  0  0  0  0  0
  1  2  1  0
  2  3  2  0
  3  4  1  0
  3  5  1  0
  5  6  2  0
  6  7  1  0
  7  8  2  0
  8  9  1  0
  8 10  1  0
 10 11  1  0
 10 12  2  0
 12 13  1  0
 12 14  1  0
 14 15  1  0
 14 16  2  0
 16 17  1  0
 17 18  2  0
 17 19  1  0
 19 20  1  0
 20 21  1  0
 20 22  1  0
 20 23  1  0
 23 24  2  0
 24 25  1  0
 24 26  1  0
 26 27  1  0
 26 28  2  0
 28 29  1  0
 28 30  1  0
 30 31  1  0
 30 32  2  0
 32 33  1  0
  2 34  1  0
 34 35  2  0
 35 36  1  0
 35 37  1  0
 37 38  2  0
 38 39  1  0
 38 40  1  0
 40 41  1  0
 40 42  2  0
 42 43  1  0
 19  5  1  0
 32 23  1  0
 42 34  1  0
 16  7  1  0
M  END
>  <UniqueID>  (7) 
6

>  <SMILES>  (7) 
O=c1c2cc(Cl)ccc2nc(/C=C/c2cccnc2)n1Cc1ccc(Cl)cc1

>  <Energy>  (7) 
64.88639036852045

>  <Genealogy>  (7) 
O=c1c2cc(Cl)ccc2nc(/C=C/c2cccnc2)n1Cc1ccc(Cl)cc1 (cis-trans isomerization)
O=c1c2cc(Cl)ccc2nc(/C=C/c2cccnc2)n1Cc1ccc(Cl)cc1 (3D coordinates assigned)
O=c1c2cc(Cl)ccc2nc(/C=C/c2cccnc2)n1Cc1ccc(Cl)cc1 (optimized conformer: 64.88639036852045 kcal/mol)

>  <smiles>  (7) 
O=c1c2cc(Cl)ccc2nc(/C=C/c2cccnc2)n1Cc1ccc(Cl)cc1

>  <score_type>  (7) 
oracle

>  <origin>  (7) 
autodockgpu

>  <m_score__min__energy>  (7) 
-8.0099999999999998

>  <m_primary>  (7) 
energy

>  <meeko>  (7) 
{"free_energy": -7.92, "intermolecular_energy": -9.41, "internal_energy": -1.44, "cluster_size": 13, "cluster_id": 1, "rank_in_cluster": 10}

>  <energy>  (7) 
-7.92

>  <cluster_rmsd>  (7) 
0.42

>  <rmsd>  (7) 
270.38

>  <cluster>  (7) 
1

$$$$
SHJBAEJHBLGYCJ-BJMVGYQFNA-N
     RDKit          3D

 43 46  0  0  0  0  0  0  0  0999 V2000
  135.9755   72.3307  223.6037 H   0  0  0  0  0  0  0  0  0  0  0  0
  135.7610   73.4020  223.4760 C   0  0  0  0  0  0  0  0  0  0  0  0
  136.1840   73.9960  222.3540 C   0  0  0  0  0  0  0  0  0  0  0  0
  135.5706   73.9290  221.4434 H   0  0  0  0  0  0  0  0  0  0  0  0
  137.4560   74.7380  222.3160 C   0  0  0  0  0  0  0  0  0  0  0  0
  137.4180   76.0490  222.6680 N   0  0  0  0  0  0  0  0  0  0  0  0
  138.5320   76.8160  222.6860 C   0  0  0  0  0  0  0  0  0  0  0  0
  138.4470   78.1640  223.0470 C   0  0  0  0  0  0  0  0  0  0  0  0
  137.4739   78.5998  223.3173 H   0  0  0  0  0  0  0  0  0  0  0  0
  139.5970   78.9590  223.0650 C   0  0  0  0  0  0  0  0  0  0  0  0
  139.5275   80.0200  223.3468 H   0  0  0  0  0  0  0  0  0  0  0  0
  140.8350   78.4060  222.7250 C   0  0  0  0  0  0  0  0  0  0  0  0
  142.2770   79.4060  222.7510 Cl  0  0  0  0  0  0  0  0  0  0  0  0
  140.9270   77.0560  222.3650 C   0  0  0  0  0  0  0  0  0  0  0  0
  141.9028   76.6235  222.0991 H   0  0  0  0  0  0  0  0  0  0  0  0
  139.7710   76.2510  222.3430 C   0  0  0  0  0  0  0  0  0  0  0  0
  139.8100   74.8890  221.9980 C   0  0  0  0  0  0  0  0  0  0  0  0
  140.9190   74.3570  221.7050 O   0  0  0  0  0  0  0  0  0  0  0  0
  138.6550   74.1390  221.9870 N   0  0  0  0  0  0  0  0  0  0  0  0
  138.7160   72.6880  221.6900 C   0  0  0  0  0  0  0  0  0  0  0  0
  137.7388   72.3562  221.3092 H   0  0  0  0  0  0  0  0  0  0  0  0
  139.4988   72.5143  220.9369 H   0  0  0  0  0  0  0  0  0  0  0  0
  139.0560   71.9020  222.9320 C   0  0  0  0  0  0  0  0  0  0  0  0
  138.1130   71.0350  223.5090 C   0  0  0  0  0  0  0  0  0  0  0  0
  137.1215   70.9186  223.0470 H   0  0  0  0  0  0  0  0  0  0  0  0
  138.4290   70.3200  224.6670 C   0  0  0  0  0  0  0  0  0  0  0  0
  137.6842   69.6471  225.1170 H   0  0  0  0  0  0  0  0  0  0  0  0
  139.6900   70.4580  225.2550 C   0  0  0  0  0  0  0  0  0  0  0  0
  140.0850   69.5590  226.7080 Cl  0  0  0  0  0  0  0  0  0  0  0  0
  140.6380   71.3110  224.6810 C   0  0  0  0  0  0  0  0  0  0  0  0
  141.6316   71.4172  225.1409 H   0  0  0  0  0  0  0  0  0  0  0  0
  140.3240   72.0290  223.5230 C   0  0  0  0  0  0  0  0  0  0  0  0
  141.0735   72.6965  223.0727 H   0  0  0  0  0  0  0  0  0  0  0  0
  135.0210   74.0960  224.5590 C   0  0  0  0  0  0  0  0  0  0  0  0
  134.3040   73.3240  225.4870 C   0  0  0  0  0  0  0  0  0  0  0  0
  134.2988   72.2278  225.3962 H   0  0  0  0  0  0  0  0  0  0  0  0
  133.6160   73.9200  226.4970 N   0  0  0  0  0  0  0  0  0  0  0  0
  133.5890   75.2710  226.6440 C   0  0  0  0  0  0  0  0  0  0  0  0
  133.0259   75.7228  227.4739 H   0  0  0  0  0  0  0  0  0  0  0  0
  134.2750   76.0840  225.7430 C   0  0  0  0  0  0  0  0  0  0  0  0
  134.2523   77.1780  225.8553 H   0  0  0  0  0  0  0  0  0  0  0  0
  134.9910   75.4990  224.6970 C   0  0  0  0  0  0  0  0  0  0  0  0
  135.5324   76.1333  223.9797 H   0  0  0  0  0  0  0  0  0  0  0  0
  1  2  1  0
  2  3  2  0
  3  4  1  0
  3  5  1  0
  5  6  2  0
  6  7  1  0
  7  8  2  0
  8  9  1  0
  8 10  1  0
 10 11  1  0
 10 12  2  0
 12 13  1  0
 12 14  1  0
 14 15  1  0
 14 16  2  0
 16 17  1  0
 17 18  2  0
 17 19  1  0
 19 20  1  0
 20 21  1  0
 20 22  1  0
 20 23  1  0
 23 24  2  0
 24 25  1  0
 24 26  1  0
 26 27  1  0
 26 28  2  0
 28 29  1  0
 28 30  1  0
 30 31  1  0
 30 32  2  0
 32 33  1  0
  2 34  1  0
 34 35  2  0
 35 36  1  0
 35 37  1  0
 37 38  2  0
 38 39  1  0
 38 40  1  0
 40 41  1  0
 40 42  2  0
 42 43  1  0
 19  5  1  0
 32 23  1  0
 42 34  1  0
 16  7  1  0
M  END
>  <UniqueID>  (8) 
6

>  <SMILES>  (8) 
O=c1c2cc(Cl)ccc2nc(/C=C/c2cccnc2)n1Cc1ccc(Cl)cc1

>  <Energy>  (8) 
64.88639036852045

>  <Genealogy>  (8) 
O=c1c2cc(Cl)ccc2nc(/C=C/c2cccnc2)n1Cc1ccc(Cl)cc1 (cis-trans isomerization)
O=c1c2cc(Cl)ccc2nc(/C=C/c2cccnc2)n1Cc1ccc(Cl)cc1 (3D coordinates assigned)
O=c1c2cc(Cl)ccc2nc(/C=C/c2cccnc2)n1Cc1ccc(Cl)cc1 (optimized conformer: 64.88639036852045 kcal/mol)

>  <smiles>  (8) 
O=c1c2cc(Cl)ccc2nc(/C=C/c2cccnc2)n1Cc1ccc(Cl)cc1

>  <score_type>  (8) 
oracle

>  <origin>  (8) 
autodockgpu

>  <m_score__min__energy>  (8) 
-8.0099999999999998

>  <m_primary>  (8) 
energy

>  <meeko>  (8) 
{"free_energy": -7.99, "intermolecular_energy": -9.49, "internal_energy": -1.4, "cluster_size": 13, "cluster_id": 1, "rank_in_cluster": 2}

>  <energy>  (8) 
-7.92

>  <cluster_rmsd>  (8) 
0.43

>  <rmsd>  (8) 
270.38

>  <cluster>  (8) 
1

$$$$
SHJBAEJHBLGYCJ-BJMVGYQFNA-N
     RDKit          3D

 43 46  0  0  0  0  0  0  0  0999 V2000
  143.5571   69.8693  220.0746 H   0  0  0  0  0  0  0  0  0  0  0  0
  143.3020   70.9390  220.0490 C   0  0  0  0  0  0  0  0  0  0  0  0
  142.0070   71.2730  219.9900 C   0  0  0  0  0  0  0  0  0  0  0  0
  141.2820   70.5536  219.5815 H   0  0  0  0  0  0  0  0  0  0  0  0
  141.5350   72.5860  220.4620 C   0  0  0  0  0  0  0  0  0  0  0  0
  142.2350   73.6770  220.0580 N   0  0  0  0  0  0  0  0  0  0  0  0
  141.8750   74.9300  220.4180 C   0  0  0  0  0  0  0  0  0  0  0  0
  142.6290   76.0260  219.9860 C   0  0  0  0  0  0  0  0  0  0  0  0
  143.5140   75.8685  219.3520 H   0  0  0  0  0  0  0  0  0  0  0  0
  142.2590   77.3210  220.3590 C   0  0  0  0  0  0  0  0  0  0  0  0
  142.8536   78.1817  220.0188 H   0  0  0  0  0  0  0  0  0  0  0  0
  141.1340   77.5240  221.1640 C   0  0  0  0  0  0  0  0  0  0  0  0
  140.6720   79.1520  221.6290 Cl  0  0  0  0  0  0  0  0  0  0  0  0
  140.3750   76.4320  221.5980 C   0  0  0  0  0  0  0  0  0  0  0  0
  139.4895   76.5951  222.2299 H   0  0  0  0  0  0  0  0  0  0  0  0
  140.7430   75.1240  221.2270 C   0  0  0  0  0  0  0  0  0  0  0  0
  140.0100   73.9930  221.6290 C   0  0  0  0  0  0  0  0  0  0  0  0
  138.9770   74.1480  222.3400 O   0  0  0  0  0  0  0  0  0  0  0  0
  140.4080   72.7320  221.2450 N   0  0  0  0  0  0  0  0  0  0  0  0
  139.5890   71.5530  221.6140 C   0  0  0  0  0  0  0  0  0  0  0  0
  138.5317   71.7668  221.3986 H   0  0  0  0  0  0  0  0  0  0  0  0
  139.9322   70.6880  221.0275 H   0  0  0  0  0  0  0  0  0  0  0  0
  139.7400   71.2330  223.0810 C   0  0  0  0  0  0  0  0  0  0  0  0
  138.8940   70.2980  223.6990 C   0  0  0  0  0  0  0  0  0  0  0  0
  138.1211   69.7849  223.1080 H   0  0  0  0  0  0  0  0  0  0  0  0
  139.0290   70.0160  225.0610 C   0  0  0  0  0  0  0  0  0  0  0  0
  138.3599   69.2860  225.5399 H   0  0  0  0  0  0  0  0  0  0  0  0
  140.0140   70.6610  225.8160 C   0  0  0  0  0  0  0  0  0  0  0  0
  140.1830   70.3080  227.5250 Cl  0  0  0  0  0  0  0  0  0  0  0  0
  140.8670   71.5870  225.2060 C   0  0  0  0  0  0  0  0  0  0  0  0
  141.6438   72.0922  225.7988 H   0  0  0  0  0  0  0  0  0  0  0  0
  140.7330   71.8710  223.8430 C   0  0  0  0  0  0  0  0  0  0  0  0
  141.4078   72.5968  223.3658 H   0  0  0  0  0  0  0  0  0  0  0  0
  144.4150   71.9190  220.0820 C   0  0  0  0  0  0  0  0  0  0  0  0
  145.1510   72.1420  218.9070 C   0  0  0  0  0  0  0  0  0  0  0  0
  144.8957   71.5900  217.9904 H   0  0  0  0  0  0  0  0  0  0  0  0
  146.1770   73.0350  218.8930 N   0  0  0  0  0  0  0  0  0  0  0  0
  146.5310   73.7340  220.0030 C   0  0  0  0  0  0  0  0  0  0  0  0
  147.3641   74.4510  219.9587 H   0  0  0  0  0  0  0  0  0  0  0  0
  145.8390   73.5430  221.1980 C   0  0  0  0  0  0  0  0  0  0  0  0
  146.1242   74.1047  222.0997 H   0  0  0  0  0  0  0  0  0  0  0  0
  144.7810   72.6330  221.2410 C   0  0  0  0  0  0  0  0  0  0  0  0
  144.2322   72.4730  222.1808 H   0  0  0  0  0  0  0  0  0  0  0  0
  1  2  1  0
  2  3  2  0
  3  4  1  0
  3  5  1  0
  5  6  2  0
  6  7  1  0
  7  8  2  0
  8  9  1  0
  8 10  1  0
 10 11  1  0
 10 12  2  0
 12 13  1  0
 12 14  1  0
 14 15  1  0
 14 16  2  0
 16 17  1  0
 17 18  2  0
 17 19  1  0
 19 20  1  0
 20 21  1  0
 20 22  1  0
 20 23  1  0
 23 24  2  0
 24 25  1  0
 24 26  1  0
 26 27  1  0
 26 28  2  0
 28 29  1  0
 28 30  1  0
 30 31  1  0
 30 32  2  0
 32 33  1  0
  2 34  1  0
 34 35  2  0
 35 36  1  0
 35 37  1  0
 37 38  2  0
 38 39  1  0
 38 40  1  0
 40 41  1  0
 40 42  2  0
 42 43  1  0
 19  5  1  0
 32 23  1  0
 42 34  1  0
 16  7  1  0
M  END
>  <UniqueID>  (9) 
6

>  <SMILES>  (9) 
O=c1c2cc(Cl)ccc2nc(/C=C/c2cccnc2)n1Cc1ccc(Cl)cc1

>  <Energy>  (9) 
64.88639036852045

>  <Genealogy>  (9) 
O=c1c2cc(Cl)ccc2nc(/C=C/c2cccnc2)n1Cc1ccc(Cl)cc1 (cis-trans isomerization)
O=c1c2cc(Cl)ccc2nc(/C=C/c2cccnc2)n1Cc1ccc(Cl)cc1 (3D coordinates assigned)
O=c1c2cc(Cl)ccc2nc(/C=C/c2cccnc2)n1Cc1ccc(Cl)cc1 (optimized conformer: 64.88639036852045 kcal/mol)

>  <smiles>  (9) 
O=c1c2cc(Cl)ccc2nc(/C=C/c2cccnc2)n1Cc1ccc(Cl)cc1

>  <score_type>  (9) 
oracle

>  <origin>  (9) 
autodockgpu

>  <m_score__min__energy>  (9) 
-8.0099999999999998

>  <m_primary>  (9) 
energy

>  <meeko>  (9) 
{"free_energy": -7.89, "intermolecular_energy": -9.39, "internal_energy": -1.39, "cluster_size": 5, "cluster_id": 2, "rank_in_cluster": 2}

>  <energy>  (9) 
-7.92

>  <cluster_rmsd>  (9) 
0.37

>  <rmsd>  (9) 
270.39

>  <cluster>  (9) 
1

$$$$
SHJBAEJHBLGYCJ-BJMVGYQFNA-N
     RDKit          3D

 43 46  0  0  0  0  0  0  0  0999 V2000
  135.9145   72.3204  223.6578 H   0  0  0  0  0  0  0  0  0  0  0  0
  135.7420   73.3930  223.4850 C   0  0  0  0  0  0  0  0  0  0  0  0
  136.1950   73.9240  222.3430 C   0  0  0  0  0  0  0  0  0  0  0  0
  135.6192   73.7837  221.4163 H   0  0  0  0  0  0  0  0  0  0  0  0
  137.4510   74.6930  222.3050 C   0  0  0  0  0  0  0  0  0  0  0  0
  137.3860   76.0020  222.6590 N   0  0  0  0  0  0  0  0  0  0  0  0
  138.4840   76.7910  222.6770 C   0  0  0  0  0  0  0  0  0  0  0  0
  138.3720   78.1380  223.0400 C   0  0  0  0  0  0  0  0  0  0  0  0
  137.3905   78.5539  223.3115 H   0  0  0  0  0  0  0  0  0  0  0  0
  139.5050   78.9550  223.0580 C   0  0  0  0  0  0  0  0  0  0  0  0
  139.4147   80.0136  223.3429 H   0  0  0  0  0  0  0  0  0  0  0  0
  140.7540   78.4280  222.7140 C   0  0  0  0  0  0  0  0  0  0  0  0
  142.1750   79.4580  222.7400 Cl  0  0  0  0  0  0  0  0  0  0  0  0
  140.8730   77.0820  222.3520 C   0  0  0  0  0  0  0  0  0  0  0  0
  141.8571   76.6703  222.0834 H   0  0  0  0  0  0  0  0  0  0  0  0
  139.7340   76.2530  222.3310 C   0  0  0  0  0  0  0  0  0  0  0  0
  139.8000   74.8920  221.9830 C   0  0  0  0  0  0  0  0  0  0  0  0
  140.9200   74.3850  221.6880 O   0  0  0  0  0  0  0  0  0  0  0  0
  138.6610   74.1190  221.9730 N   0  0  0  0  0  0  0  0  0  0  0  0
  138.7520   72.6710  221.6740 C   0  0  0  0  0  0  0  0  0  0  0  0
  137.7887   72.3249  221.2712 H   0  0  0  0  0  0  0  0  0  0  0  0
  139.5542   72.5131  220.9381 H   0  0  0  0  0  0  0  0  0  0  0  0
  139.0780   71.8850  222.9200 C   0  0  0  0  0  0  0  0  0  0  0  0
  138.1310   71.0140  223.4830 C   0  0  0  0  0  0  0  0  0  0  0  0
  137.1470   70.8932  223.0064 H   0  0  0  0  0  0  0  0  0  0  0  0
  138.4330   70.3000  224.6460 C   0  0  0  0  0  0  0  0  0  0  0  0
  137.6847   69.6238  225.0852 H   0  0  0  0  0  0  0  0  0  0  0  0
  139.6850   70.4440  225.2520 C   0  0  0  0  0  0  0  0  0  0  0  0
  140.0630   69.5480  226.7100 Cl  0  0  0  0  0  0  0  0  0  0  0  0
  140.6370   71.3020  224.6910 C   0  0  0  0  0  0  0  0  0  0  0  0
  141.6236   71.4127  225.1647 H   0  0  0  0  0  0  0  0  0  0  0  0
  140.3360   72.0190  223.5290 C   0  0  0  0  0  0  0  0  0  0  0  0
  141.0881   72.6910  223.0900 H   0  0  0  0  0  0  0  0  0  0  0  0
  135.0220   74.1580  224.5330 C   0  0  0  0  0  0  0  0  0  0  0  0
  134.3250   73.4490  225.5250 C   0  0  0  0  0  0  0  0  0  0  0  0
  134.3202   72.3491  225.5083 H   0  0  0  0  0  0  0  0  0  0  0  0
  133.6560   74.1120  226.5060 N   0  0  0  0  0  0  0  0  0  0  0  0
  133.6290   75.4690  226.5630 C   0  0  0  0  0  0  0  0  0  0  0  0
  133.0812   75.9750  227.3716 H   0  0  0  0  0  0  0  0  0  0  0  0
  134.2960   76.2200  225.5960 C   0  0  0  0  0  0  0  0  0  0  0  0
  134.2739   77.3191  225.6350 H   0  0  0  0  0  0  0  0  0  0  0  0
  134.9920   75.5660  224.5780 C   0  0  0  0  0  0  0  0  0  0  0  0
  135.5182   76.1510  223.8093 H   0  0  0  0  0  0  0  0  0  0  0  0
  1  2  1  0
  2  3  2  0
  3  4  1  0
  3  5  1  0
  5  6  2  0
  6  7  1  0
  7  8  2  0
  8  9  1  0
  8 10  1  0
 10 11  1  0
 10 12  2  0
 12 13  1  0
 12 14  1  0
 14 15  1  0
 14 16  2  0
 16 17  1  0
 17 18  2  0
 17 19  1  0
 19 20  1  0
 20 21  1  0
 20 22  1  0
 20 23  1  0
 23 24  2  0
 24 25  1  0
 24 26  1  0
 26 27  1  0
 26 28  2  0
 28 29  1  0
 28 30  1  0
 30 31  1  0
 30 32  2  0
 32 33  1  0
  2 34  1  0
 34 35  2  0
 35 36  1  0
 35 37  1  0
 37 38  2  0
 38 39  1  0
 38 40  1  0
 40 41  1  0
 40 42  2  0
 42 43  1  0
 19  5  1  0
 32 23  1  0
 42 34  1  0
 16  7  1  0
M  END
>  <UniqueID>  (10) 
6

>  <SMILES>  (10) 
O=c1c2cc(Cl)ccc2nc(/C=C/c2cccnc2)n1Cc1ccc(Cl)cc1

>  <Energy>  (10) 
64.88639036852045

>  <Genealogy>  (10) 
O=c1c2cc(Cl)ccc2nc(/C=C/c2cccnc2)n1Cc1ccc(Cl)cc1 (cis-trans isomerization)
O=c1c2cc(Cl)ccc2nc(/C=C/c2cccnc2)n1Cc1ccc(Cl)cc1 (3D coordinates assigned)
O=c1c2cc(Cl)ccc2nc(/C=C/c2cccnc2)n1Cc1ccc(Cl)cc1 (optimized conformer: 64.88639036852045 kcal/mol)

>  <smiles>  (10) 
O=c1c2cc(Cl)ccc2nc(/C=C/c2cccnc2)n1Cc1ccc(Cl)cc1

>  <score_type>  (10) 
oracle

>  <origin>  (10) 
autodockgpu

>  <m_score__min__energy>  (10) 
-8.0099999999999998

>  <m_primary>  (10) 
energy

>  <meeko>  (10) 
{"free_energy": -7.98, "intermolecular_energy": -9.47, "internal_energy": -1.41, "cluster_size": 13, "cluster_id": 1, "rank_in_cluster": 5}

>  <energy>  (10) 
-7.92

>  <cluster_rmsd>  (10) 
0.45

>  <rmsd>  (10) 
270.38

>  <cluster>  (10) 
1

$$$$
SHJBAEJHBLGYCJ-BJMVGYQFNA-N
     RDKit          3D

 43 46  0  0  0  0  0  0  0  0999 V2000
  135.8036   72.0877  223.2834 H   0  0  0  0  0  0  0  0  0  0  0  0
  135.7620   73.1830  223.1910 C   0  0  0  0  0  0  0  0  0  0  0  0
  136.2590   73.7370  222.0790 C   0  0  0  0  0  0  0  0  0  0  0  0
  135.7272   73.6043  221.1253 H   0  0  0  0  0  0  0  0  0  0  0  0
  137.5050   74.5210  222.1090 C   0  0  0  0  0  0  0  0  0  0  0  0
  137.3980   75.8430  222.3980 N   0  0  0  0  0  0  0  0  0  0  0  0
  138.4820   76.6480  222.4700 C   0  0  0  0  0  0  0  0  0  0  0  0
  138.3260   78.0070  222.7630 C   0  0  0  0  0  0  0  0  0  0  0  0
  137.3212   78.4197  222.9362 H   0  0  0  0  0  0  0  0  0  0  0  0
  139.4450   78.8410  222.8360 C   0  0  0  0  0  0  0  0  0  0  0  0
  139.3200   79.9097  223.0644 H   0  0  0  0  0  0  0  0  0  0  0  0
  140.7230   78.3180  222.6190 C   0  0  0  0  0  0  0  0  0  0  0  0
  142.1260   79.3690  222.7130 Cl  0  0  0  0  0  0  0  0  0  0  0  0
  140.8860   76.9590  222.3270 C   0  0  0  0  0  0  0  0  0  0  0  0
  141.8931   76.5504  222.1574 H   0  0  0  0  0  0  0  0  0  0  0  0
  139.7620   76.1140  222.2500 C   0  0  0  0  0  0  0  0  0  0  0  0
  139.8710   74.7410  221.9690 C   0  0  0  0  0  0  0  0  0  0  0  0
  141.0170   74.2370  221.7880 O   0  0  0  0  0  0  0  0  0  0  0  0
  138.7450   73.9510  221.9010 N   0  0  0  0  0  0  0  0  0  0  0  0
  138.8760   72.4930  221.6740 C   0  0  0  0  0  0  0  0  0  0  0  0
  137.9379   72.1088  221.2470 H   0  0  0  0  0  0  0  0  0  0  0  0
  139.7122   72.3180  220.9811 H   0  0  0  0  0  0  0  0  0  0  0  0
  139.1620   71.7720  222.9690 C   0  0  0  0  0  0  0  0  0  0  0  0
  140.4010   71.9240  223.6120 C   0  0  0  0  0  0  0  0  0  0  0  0
  141.1668   72.5824  223.1760 H   0  0  0  0  0  0  0  0  0  0  0  0
  140.6660   71.2430  224.8030 C   0  0  0  0  0  0  0  0  0  0  0  0
  141.6410   71.3610  225.2983 H   0  0  0  0  0  0  0  0  0  0  0  0
  139.6920   70.4110  225.3660 C   0  0  0  0  0  0  0  0  0  0  0  0
  140.0250   69.5570  226.8610 Cl  0  0  0  0  0  0  0  0  0  0  0  0
  138.4530   70.2620  224.7360 C   0  0  0  0  0  0  0  0  0  0  0  0
  137.6866   69.6094  225.1795 H   0  0  0  0  0  0  0  0  0  0  0  0
  138.1860   70.9410  223.5430 C   0  0  0  0  0  0  0  0  0  0  0  0
  137.2084   70.8239  223.0525 H   0  0  0  0  0  0  0  0  0  0  0  0
  135.1580   73.9520  224.3080 C   0  0  0  0  0  0  0  0  0  0  0  0
  134.5220   73.2490  225.3430 C   0  0  0  0  0  0  0  0  0  0  0  0
  134.4778   72.1504  225.3094 H   0  0  0  0  0  0  0  0  0  0  0  0
  133.9600   73.9150  226.3870 N   0  0  0  0  0  0  0  0  0  0  0  0
  133.9850   75.2710  226.4670 C   0  0  0  0  0  0  0  0  0  0  0  0
  133.5239   75.7800  227.3263 H   0  0  0  0  0  0  0  0  0  0  0  0
  134.5950   76.0170  225.4600 C   0  0  0  0  0  0  0  0  0  0  0  0
  134.6146   77.1153  225.5181 H   0  0  0  0  0  0  0  0  0  0  0  0
  135.1810   75.3590  224.3770 C   0  0  0  0  0  0  0  0  0  0  0  0
  135.6615   75.9402  223.5762 H   0  0  0  0  0  0  0  0  0  0  0  0
  1  2  1  0
  2  3  2  0
  3  4  1  0
  3  5  1  0
  5  6  2  0
  6  7  1  0
  7  8  2  0
  8  9  1  0
  8 10  1  0
 10 11  1  0
 10 12  2  0
 12 13  1  0
 12 14  1  0
 14 15  1  0
 14 16  2  0
 16 17  1  0
 17 18  2  0
 17 19  1  0
 19 20  1  0
 20 21  1  0
 20 22  1  0
 20 23  1  0
 23 24  2  0
 24 25  1  0
 24 26  1  0
 26 27  1  0
 26 28  2  0
 28 29  1  0
 28 30  1  0
 30 31  1  0
 30 32  2  0
 32 33  1  0
  2 34  1  0
 34 35  2  0
 35 36  1  0
 35 37  1  0
 37 38  2  0
 38 39  1  0
 38 40  1  0
 40 41  1  0
 40 42  2  0
 42 43  1  0
 19  5  1  0
 32 23  1  0
 42 34  1  0
 16  7  1  0
M  END
>  <UniqueID>  (11) 
6

>  <SMILES>  (11) 
O=c1c2cc(Cl)ccc2nc(/C=C/c2cccnc2)n1Cc1ccc(Cl)cc1

>  <Energy>  (11) 
64.88639036852045

>  <Genealogy>  (11) 
O=c1c2cc(Cl)ccc2nc(/C=C/c2cccnc2)n1Cc1ccc(Cl)cc1 (cis-trans isomerization)
O=c1c2cc(Cl)ccc2nc(/C=C/c2cccnc2)n1Cc1ccc(Cl)cc1 (3D coordinates assigned)
O=c1c2cc(Cl)ccc2nc(/C=C/c2cccnc2)n1Cc1ccc(Cl)cc1 (optimized conformer: 64.88639036852045 kcal/mol)

>  <smiles>  (11) 
O=c1c2cc(Cl)ccc2nc(/C=C/c2cccnc2)n1Cc1ccc(Cl)cc1

>  <score_type>  (11) 
oracle

>  <origin>  (11) 
autodockgpu

>  <m_score__min__energy>  (11) 
-8.0099999999999998

>  <m_primary>  (11) 
energy

>  <meeko>  (11) 
{"free_energy": -7.91, "intermolecular_energy": -9.4, "internal_energy": -1.45, "cluster_size": 13, "cluster_id": 1, "rank_in_cluster": 11}

>  <energy>  (11) 
-7.91

>  <cluster_rmsd>  (11) 
0.34

>  <rmsd>  (11) 
270.39

>  <cluster>  (11) 
1

$$$$
SHJBAEJHBLGYCJ-BJMVGYQFNA-N
     RDKit          3D

 43 46  0  0  0  0  0  0  0  0999 V2000
  135.7848   72.1176  223.2188 H   0  0  0  0  0  0  0  0  0  0  0  0
  135.7390   73.2140  223.1420 C   0  0  0  0  0  0  0  0  0  0  0  0
  136.2450   73.7860  222.0430 C   0  0  0  0  0  0  0  0  0  0  0  0
  135.7198   73.6710  221.0833 H   0  0  0  0  0  0  0  0  0  0  0  0
  137.4930   74.5670  222.0960 C   0  0  0  0  0  0  0  0  0  0  0  0
  137.3860   75.8850  222.4020 N   0  0  0  0  0  0  0  0  0  0  0  0
  138.4720   76.6860  222.4950 C   0  0  0  0  0  0  0  0  0  0  0  0
  138.3170   78.0420  222.8040 C   0  0  0  0  0  0  0  0  0  0  0  0
  137.3117   78.4556  222.9723 H   0  0  0  0  0  0  0  0  0  0  0  0
  139.4370   78.8710  222.8990 C   0  0  0  0  0  0  0  0  0  0  0  0
  139.3124   79.9370  223.1402 H   0  0  0  0  0  0  0  0  0  0  0  0
  140.7160   78.3480  222.6880 C   0  0  0  0  0  0  0  0  0  0  0  0
  142.1210   79.3930  222.8110 Cl  0  0  0  0  0  0  0  0  0  0  0  0
  140.8780   76.9920  222.3800 C   0  0  0  0  0  0  0  0  0  0  0  0
  141.8857   76.5829  222.2151 H   0  0  0  0  0  0  0  0  0  0  0  0
  139.7530   76.1510  222.2810 C   0  0  0  0  0  0  0  0  0  0  0  0
  139.8610   74.7820  221.9830 C   0  0  0  0  0  0  0  0  0  0  0  0
  141.0070   74.2770  221.8070 O   0  0  0  0  0  0  0  0  0  0  0  0
  138.7340   73.9960  221.8930 N   0  0  0  0  0  0  0  0  0  0  0  0
  138.8630   72.5400  221.6490 C   0  0  0  0  0  0  0  0  0  0  0  0
  137.9261   72.1632  221.2129 H   0  0  0  0  0  0  0  0  0  0  0  0
  139.7023   72.3717  220.9582 H   0  0  0  0  0  0  0  0  0  0  0  0
  139.1410   71.8030  222.9350 C   0  0  0  0  0  0  0  0  0  0  0  0
  140.3780   71.9440  223.5860 C   0  0  0  0  0  0  0  0  0  0  0  0
  141.1474   72.6057  223.1615 H   0  0  0  0  0  0  0  0  0  0  0  0
  140.6360   71.2480  224.7700 C   0  0  0  0  0  0  0  0  0  0  0  0
  141.6086   71.3592  225.2718 H   0  0  0  0  0  0  0  0  0  0  0  0
  139.6590   70.4100  225.3180 C   0  0  0  0  0  0  0  0  0  0  0  0
  139.9830   69.5370  226.8030 Cl  0  0  0  0  0  0  0  0  0  0  0  0
  138.4210   70.2730  224.6810 C   0  0  0  0  0  0  0  0  0  0  0  0
  137.6503   69.6180  225.1135 H   0  0  0  0  0  0  0  0  0  0  0  0
  138.1620   70.9670  223.4960 C   0  0  0  0  0  0  0  0  0  0  0  0
  137.1862   70.8579  223.0001 H   0  0  0  0  0  0  0  0  0  0  0  0
  135.1200   73.9630  224.2640 C   0  0  0  0  0  0  0  0  0  0  0  0
  134.5140   73.2400  225.3040 C   0  0  0  0  0  0  0  0  0  0  0  0
  134.5037   72.1406  225.2704 H   0  0  0  0  0  0  0  0  0  0  0  0
  133.9400   73.8880  226.3520 N   0  0  0  0  0  0  0  0  0  0  0  0
  133.9230   75.2440  226.4330 C   0  0  0  0  0  0  0  0  0  0  0  0
  133.4526   75.7379  227.2960 H   0  0  0  0  0  0  0  0  0  0  0  0
  134.5020   76.0090  225.4220 C   0  0  0  0  0  0  0  0  0  0  0  0
  134.4881   77.1073  225.4814 H   0  0  0  0  0  0  0  0  0  0  0  0
  135.1000   75.3710  224.3330 C   0  0  0  0  0  0  0  0  0  0  0  0
  135.5556   75.9673  223.5288 H   0  0  0  0  0  0  0  0  0  0  0  0
  1  2  1  0
  2  3  2  0
  3  4  1  0
  3  5  1  0
  5  6  2  0
  6  7  1  0
  7  8  2  0
  8  9  1  0
  8 10  1  0
 10 11  1  0
 10 12  2  0
 12 13  1  0
 12 14  1  0
 14 15  1  0
 14 16  2  0
 16 17  1  0
 17 18  2  0
 17 19  1  0
 19 20  1  0
 20 21  1  0
 20 22  1  0
 20 23  1  0
 23 24  2  0
 24 25  1  0
 24 26  1  0
 26 27  1  0
 26 28  2  0
 28 29  1  0
 28 30  1  0
 30 31  1  0
 30 32  2  0
 32 33  1  0
  2 34  1  0
 34 35  2  0
 35 36  1  0
 35 37  1  0
 37 38  2  0
 38 39  1  0
 38 40  1  0
 40 41  1  0
 40 42  2  0
 42 43  1  0
 19  5  1  0
 32 23  1  0
 42 34  1  0
 16  7  1  0
M  END
>  <UniqueID>  (12) 
6

>  <SMILES>  (12) 
O=c1c2cc(Cl)ccc2nc(/C=C/c2cccnc2)n1Cc1ccc(Cl)cc1

>  <Energy>  (12) 
64.88639036852045

>  <Genealogy>  (12) 
O=c1c2cc(Cl)ccc2nc(/C=C/c2cccnc2)n1Cc1ccc(Cl)cc1 (cis-trans isomerization)
O=c1c2cc(Cl)ccc2nc(/C=C/c2cccnc2)n1Cc1ccc(Cl)cc1 (3D coordinates assigned)
O=c1c2cc(Cl)ccc2nc(/C=C/c2cccnc2)n1Cc1ccc(Cl)cc1 (optimized conformer: 64.88639036852045 kcal/mol)

>  <smiles>  (12) 
O=c1c2cc(Cl)ccc2nc(/C=C/c2cccnc2)n1Cc1ccc(Cl)cc1

>  <score_type>  (12) 
oracle

>  <origin>  (12) 
autodockgpu

>  <m_score__min__energy>  (12) 
-8.0099999999999998

>  <m_primary>  (12) 
energy

>  <meeko>  (12) 
{"free_energy": -7.88, "intermolecular_energy": -9.38, "internal_energy": -1.45, "cluster_size": 13, "cluster_id": 1, "rank_in_cluster": 12}

>  <energy>  (12) 
-7.88

>  <cluster_rmsd>  (12) 
0.32

>  <rmsd>  (12) 
270.37

>  <cluster>  (12) 
1

$$$$
SHJBAEJHBLGYCJ-BJMVGYQFNA-N
     RDKit          3D

 43 46  0  0  0  0  0  0  0  0999 V2000
  134.7950   75.4521  222.8805 H   0  0  0  0  0  0  0  0  0  0  0  0
  135.3010   74.5060  223.1230 C   0  0  0  0  0  0  0  0  0  0  0  0
  136.3100   74.1160  222.3350 C   0  0  0  0  0  0  0  0  0  0  0  0
  136.1881   73.2240  221.7030 H   0  0  0  0  0  0  0  0  0  0  0  0
  137.5810   74.8600  222.2990 C   0  0  0  0  0  0  0  0  0  0  0  0
  137.5430   76.1680  222.6610 N   0  0  0  0  0  0  0  0  0  0  0  0
  138.6560   76.9350  222.6820 C   0  0  0  0  0  0  0  0  0  0  0  0
  138.5720   78.2810  223.0530 C   0  0  0  0  0  0  0  0  0  0  0  0
  137.5996   78.7145  223.3295 H   0  0  0  0  0  0  0  0  0  0  0  0
  139.7210   79.0760  223.0730 C   0  0  0  0  0  0  0  0  0  0  0  0
  139.6517   80.1347  223.3635 H   0  0  0  0  0  0  0  0  0  0  0  0
  140.9590   78.5270  222.7240 C   0  0  0  0  0  0  0  0  0  0  0  0
  142.4000   79.5280  222.7530 Cl  0  0  0  0  0  0  0  0  0  0  0  0
  141.0500   77.1810  222.3540 C   0  0  0  0  0  0  0  0  0  0  0  0
  142.0254   76.7514  222.0820 H   0  0  0  0  0  0  0  0  0  0  0  0
  139.8960   76.3750  222.3290 C   0  0  0  0  0  0  0  0  0  0  0  0
  139.9340   75.0150  221.9730 C   0  0  0  0  0  0  0  0  0  0  0  0
  141.0420   74.4870  221.6730 O   0  0  0  0  0  0  0  0  0  0  0  0
  138.7800   74.2640  221.9610 N   0  0  0  0  0  0  0  0  0  0  0  0
  138.8410   72.8160  221.6530 C   0  0  0  0  0  0  0  0  0  0  0  0
  137.8787   72.4974  221.2257 H   0  0  0  0  0  0  0  0  0  0  0  0
  139.6555   72.6426  220.9343 H   0  0  0  0  0  0  0  0  0  0  0  0
  139.1180   72.0140  222.9000 C   0  0  0  0  0  0  0  0  0  0  0  0
  140.3770   72.0690  223.5200 C   0  0  0  0  0  0  0  0  0  0  0  0
  141.1661   72.7104  223.1006 H   0  0  0  0  0  0  0  0  0  0  0  0
  140.6320   71.3130  224.6670 C   0  0  0  0  0  0  0  0  0  0  0  0
  141.6218   71.3565  225.1450 H   0  0  0  0  0  0  0  0  0  0  0  0
  139.6300   70.5010  225.2080 C   0  0  0  0  0  0  0  0  0  0  0  0
  139.9520   69.5520  226.6470 Cl  0  0  0  0  0  0  0  0  0  0  0  0
  138.3710   70.4480  224.6020 C   0  0  0  0  0  0  0  0  0  0  0  0
  137.5819   69.8120  225.0295 H   0  0  0  0  0  0  0  0  0  0  0  0
  138.1140   71.2020  223.4540 C   0  0  0  0  0  0  0  0  0  0  0  0
  137.1214   71.1597  222.9819 H   0  0  0  0  0  0  0  0  0  0  0  0
  134.8210   73.7450  224.3020 C   0  0  0  0  0  0  0  0  0  0  0  0
  134.3390   74.4560  225.4130 C   0  0  0  0  0  0  0  0  0  0  0  0
  134.3286   75.5558  225.3942 H   0  0  0  0  0  0  0  0  0  0  0  0
  133.8850   73.7960  226.5120 N   0  0  0  0  0  0  0  0  0  0  0  0
  133.8860   72.4400  226.5820 C   0  0  0  0  0  0  0  0  0  0  0  0
  133.5101   71.9360  227.4846 H   0  0  0  0  0  0  0  0  0  0  0  0
  134.3630   71.6860  225.5110 C   0  0  0  0  0  0  0  0  0  0  0  0
  134.3681   70.5873  225.5648 H   0  0  0  0  0  0  0  0  0  0  0  0
  134.8340   72.3370  224.3700 C   0  0  0  0  0  0  0  0  0  0  0  0
  135.2163   71.7501  223.5218 H   0  0  0  0  0  0  0  0  0  0  0  0
  1  2  1  0
  2  3  2  0
  3  4  1  0
  3  5  1  0
  5  6  2  0
  6  7  1  0
  7  8  2  0
  8  9  1  0
  8 10  1  0
 10 11  1  0
 10 12  2  0
 12 13  1  0
 12 14  1  0
 14 15  1  0
 14 16  2  0
 16 17  1  0
 17 18  2  0
 17 19  1  0
 19 20  1  0
 20 21  1  0
 20 22  1  0
 20 23  1  0
 23 24  2  0
 24 25  1  0
 24 26  1  0
 26 27  1  0
 26 28  2  0
 28 29  1  0
 28 30  1  0
 30 31  1  0
 30 32  2  0
 32 33  1  0
  2 34  1  0
 34 35  2  0
 35 36  1  0
 35 37  1  0
 37 38  2  0
 38 39  1  0
 38 40  1  0
 40 41  1  0
 40 42  2  0
 42 43  1  0
 19  5  1  0
 32 23  1  0
 42 34  1  0
 16  7  1  0
M  END
>  <UniqueID>  (13) 
6

>  <SMILES>  (13) 
O=c1c2cc(Cl)ccc2nc(/C=C/c2cccnc2)n1Cc1ccc(Cl)cc1

>  <Energy>  (13) 
64.88639036852045

>  <Genealogy>  (13) 
O=c1c2cc(Cl)ccc2nc(/C=C/c2cccnc2)n1Cc1ccc(Cl)cc1 (cis-trans isomerization)
O=c1c2cc(Cl)ccc2nc(/C=C/c2cccnc2)n1Cc1ccc(Cl)cc1 (3D coordinates assigned)
O=c1c2cc(Cl)ccc2nc(/C=C/c2cccnc2)n1Cc1ccc(Cl)cc1 (optimized conformer: 64.88639036852045 kcal/mol)

>  <smiles>  (13) 
O=c1c2cc(Cl)ccc2nc(/C=C/c2cccnc2)n1Cc1ccc(Cl)cc1

>  <score_type>  (13) 
oracle

>  <origin>  (13) 
autodockgpu

>  <m_score__min__energy>  (13) 
-8.0099999999999998

>  <m_primary>  (13) 
energy

>  <meeko>  (13) 
{"free_energy": -7.72, "intermolecular_energy": -9.21, "internal_energy": -1.45, "cluster_size": 13, "cluster_id": 1, "rank_in_cluster": 13}

>  <energy>  (13) 
-7.72

>  <cluster_rmsd>  (13) 
0.62

>  <rmsd>  (13) 
270.38

>  <cluster>  (13) 
1

$$$$
SHJBAEJHBLGYCJ-BJMVGYQFNA-N
     RDKit          3D

 43 46  0  0  0  0  0  0  0  0999 V2000
  135.8047   71.9978  223.3531 H   0  0  0  0  0  0  0  0  0  0  0  0
  135.7740   73.0910  223.2350 C   0  0  0  0  0  0  0  0  0  0  0  0
  136.2790   73.6140  222.1100 C   0  0  0  0  0  0  0  0  0  0  0  0
  135.7568   73.4497  221.1559 H   0  0  0  0  0  0  0  0  0  0  0  0
  137.5210   74.4050  222.1280 C   0  0  0  0  0  0  0  0  0  0  0  0
  137.4070   75.7300  222.4010 N   0  0  0  0  0  0  0  0  0  0  0  0
  138.4880   76.5420  222.4610 C   0  0  0  0  0  0  0  0  0  0  0  0
  138.3260   77.9030  222.7370 C   0  0  0  0  0  0  0  0  0  0  0  0
  137.3194   78.3129  222.9064 H   0  0  0  0  0  0  0  0  0  0  0  0
  139.4400   78.7430  222.7980 C   0  0  0  0  0  0  0  0  0  0  0  0
  139.3100   79.8135  223.0153 H   0  0  0  0  0  0  0  0  0  0  0  0
  140.7210   78.2240  222.5830 C   0  0  0  0  0  0  0  0  0  0  0  0
  142.1190   79.2830  222.6610 Cl  0  0  0  0  0  0  0  0  0  0  0  0
  140.8900   76.8630  222.3080 C   0  0  0  0  0  0  0  0  0  0  0  0
  141.8989   76.4574  222.1415 H   0  0  0  0  0  0  0  0  0  0  0  0
  139.7700   76.0110  222.2440 C   0  0  0  0  0  0  0  0  0  0  0  0
  139.8850   74.6350  221.9790 C   0  0  0  0  0  0  0  0  0  0  0  0
  141.0330   74.1350  221.8010 O   0  0  0  0  0  0  0  0  0  0  0  0
  138.7630   73.8390  221.9230 N   0  0  0  0  0  0  0  0  0  0  0  0
  138.9010   72.3780  221.7140 C   0  0  0  0  0  0  0  0  0  0  0  0
  137.9668   71.9852  221.2862 H   0  0  0  0  0  0  0  0  0  0  0  0
  139.7419   72.1981  221.0281 H   0  0  0  0  0  0  0  0  0  0  0  0
  139.1820   71.6740  223.0180 C   0  0  0  0  0  0  0  0  0  0  0  0
  140.3870   71.8980  223.7060 C   0  0  0  0  0  0  0  0  0  0  0  0
  141.1280   72.6010  223.2977 H   0  0  0  0  0  0  0  0  0  0  0  0
  140.6480   71.2320  224.9060 C   0  0  0  0  0  0  0  0  0  0  0  0
  141.5951   71.4080  225.4371 H   0  0  0  0  0  0  0  0  0  0  0  0
  139.7070   70.3420  225.4330 C   0  0  0  0  0  0  0  0  0  0  0  0
  140.0360   69.5070  226.9390 Cl  0  0  0  0  0  0  0  0  0  0  0  0
  138.5010   70.1210  224.7600 C   0  0  0  0  0  0  0  0  0  0  0  0
  137.7588   69.4242  225.1767 H   0  0  0  0  0  0  0  0  0  0  0  0
  138.2380   70.7850  223.5580 C   0  0  0  0  0  0  0  0  0  0  0  0
  137.2874   70.6104  223.0328 H   0  0  0  0  0  0  0  0  0  0  0  0
  135.1760   73.8910  224.3320 C   0  0  0  0  0  0  0  0  0  0  0  0
  134.5020   73.2200  225.3650 C   0  0  0  0  0  0  0  0  0  0  0  0
  134.4257   72.1229  225.3439 H   0  0  0  0  0  0  0  0  0  0  0  0
  133.9430   73.9150  226.3910 N   0  0  0  0  0  0  0  0  0  0  0  0
  134.0090   75.2700  226.4560 C   0  0  0  0  0  0  0  0  0  0  0  0
  133.5498   75.8027  227.3018 H   0  0  0  0  0  0  0  0  0  0  0  0
  134.6580   75.9860  225.4520 C   0  0  0  0  0  0  0  0  0  0  0  0
  134.7106   77.0837  225.4989 H   0  0  0  0  0  0  0  0  0  0  0  0
  135.2410   75.2980  224.3860 C   0  0  0  0  0  0  0  0  0  0  0  0
  135.7520   75.8550  223.5869 H   0  0  0  0  0  0  0  0  0  0  0  0
  1  2  1  0
  2  3  2  0
  3  4  1  0
  3  5  1  0
  5  6  2  0
  6  7  1  0
  7  8  2  0
  8  9  1  0
  8 10  1  0
 10 11  1  0
 10 12  2  0
 12 13  1  0
 12 14  1  0
 14 15  1  0
 14 16  2  0
 16 17  1  0
 17 18  2  0
 17 19  1  0
 19 20  1  0
 20 21  1  0
 20 22  1  0
 20 23  1  0
 23 24  2  0
 24 25  1  0
 24 26  1  0
 26 27  1  0
 26 28  2  0
 28 29  1  0
 28 30  1  0
 30 31  1  0
 30 32  2  0
 32 33  1  0
  2 34  1  0
 34 35  2  0
 35 36  1  0
 35 37  1  0
 37 38  2  0
 38 39  1  0
 38 40  1  0
 40 41  1  0
 40 42  2  0
 42 43  1  0
 19  5  1  0
 32 23  1  0
 42 34  1  0
 16  7  1  0
M  END
>  <UniqueID>  (14) 
6

>  <SMILES>  (14) 
O=c1c2cc(Cl)ccc2nc(/C=C/c2cccnc2)n1Cc1ccc(Cl)cc1

>  <Energy>  (14) 
64.88639036852045

>  <Genealogy>  (14) 
O=c1c2cc(Cl)ccc2nc(/C=C/c2cccnc2)n1Cc1ccc(Cl)cc1 (cis-trans isomerization)
O=c1c2cc(Cl)ccc2nc(/C=C/c2cccnc2)n1Cc1ccc(Cl)cc1 (3D coordinates assigned)
O=c1c2cc(Cl)ccc2nc(/C=C/c2cccnc2)n1Cc1ccc(Cl)cc1 (optimized conformer: 64.88639036852045 kcal/mol)

>  <smiles>  (14) 
O=c1c2cc(Cl)ccc2nc(/C=C/c2cccnc2)n1Cc1ccc(Cl)cc1

>  <score_type>  (14) 
oracle

>  <origin>  (14) 
autodockgpu

>  <m_score__min__energy>  (14) 
-8.0099999999999998

>  <m_primary>  (14) 
energy

>  <meeko>  (14) 
{"free_energy": -7.92, "intermolecular_energy": -9.41, "internal_energy": -1.44, "cluster_size": 13, "cluster_id": 1, "rank_in_cluster": 7}

>  <energy>  (14) 
-7.93

>  <cluster_rmsd>  (14) 
0.0

>  <rmsd>  (14) 
270.46

>  <cluster>  (14) 
2

$$$$
SHJBAEJHBLGYCJ-BJMVGYQFNA-N
     RDKit          3D

 43 46  0  0  0  0  0  0  0  0999 V2000
  143.4239   70.0170  219.8879 H   0  0  0  0  0  0  0  0  0  0  0  0
  143.2470   71.1020  219.8500 C   0  0  0  0  0  0  0  0  0  0  0  0
  141.9890   71.5260  219.6760 C   0  0  0  0  0  0  0  0  0  0  0  0
  141.2933   70.9213  219.0758 H   0  0  0  0  0  0  0  0  0  0  0  0
  141.5200   72.7880  220.2740 C   0  0  0  0  0  0  0  0  0  0  0  0
  142.1870   73.9200  219.9320 N   0  0  0  0  0  0  0  0  0  0  0  0
  141.8260   75.1330  220.4100 C   0  0  0  0  0  0  0  0  0  0  0  0
  142.5450   76.2740  220.0390 C   0  0  0  0  0  0  0  0  0  0  0  0
  143.4034   76.1844  219.3570 H   0  0  0  0  0  0  0  0  0  0  0  0
  142.1750   77.5270  220.5330 C   0  0  0  0  0  0  0  0  0  0  0  0
  142.7442   78.4223  220.2425 H   0  0  0  0  0  0  0  0  0  0  0  0
  141.0810   77.6440  221.3970 C   0  0  0  0  0  0  0  0  0  0  0  0
  140.6180   79.2210  222.0130 Cl  0  0  0  0  0  0  0  0  0  0  0  0
  140.3560   76.5070  221.7700 C   0  0  0  0  0  0  0  0  0  0  0  0
  139.4956   76.6025  222.4487 H   0  0  0  0  0  0  0  0  0  0  0  0
  140.7260   75.2410  221.2780 C   0  0  0  0  0  0  0  0  0  0  0  0
  140.0270   74.0680  221.6140 C   0  0  0  0  0  0  0  0  0  0  0  0
  139.0220   74.1470  222.3780 O   0  0  0  0  0  0  0  0  0  0  0  0
  140.4250   72.8500  221.1120 N   0  0  0  0  0  0  0  0  0  0  0  0
  139.6390   71.6310  221.4160 C   0  0  0  0  0  0  0  0  0  0  0  0
  138.5805   71.8168  221.1816 H   0  0  0  0  0  0  0  0  0  0  0  0
  140.0265   70.8010  220.8069 H   0  0  0  0  0  0  0  0  0  0  0  0
  139.7650   71.2610  222.8720 C   0  0  0  0  0  0  0  0  0  0  0  0
  138.9080   70.3060  223.4440 C   0  0  0  0  0  0  0  0  0  0  0  0
  138.1445   69.8146  222.8230 H   0  0  0  0  0  0  0  0  0  0  0  0
  139.0200   69.9770  224.7970 C   0  0  0  0  0  0  0  0  0  0  0  0
  138.3427   69.2314  225.2389 H   0  0  0  0  0  0  0  0  0  0  0  0
  139.9930   70.5950  225.5910 C   0  0  0  0  0  0  0  0  0  0  0  0
  140.1330   70.1820  227.2890 Cl  0  0  0  0  0  0  0  0  0  0  0  0
  140.8560   71.5400  225.0270 C   0  0  0  0  0  0  0  0  0  0  0  0
  141.6232   72.0236  225.6495 H   0  0  0  0  0  0  0  0  0  0  0  0
  140.7450   71.8710  223.6730 C   0  0  0  0  0  0  0  0  0  0  0  0
  141.4281   72.6124  223.2329 H   0  0  0  0  0  0  0  0  0  0  0  0
  144.4180   72.0020  219.9950 C   0  0  0  0  0  0  0  0  0  0  0  0
  145.2360   72.2280  218.8770 C   0  0  0  0  0  0  0  0  0  0  0  0
  145.0013   71.7369  217.9211 H   0  0  0  0  0  0  0  0  0  0  0  0
  146.3160   73.0490  218.9660 N   0  0  0  0  0  0  0  0  0  0  0  0
  146.6480   73.6700  220.1280 C   0  0  0  0  0  0  0  0  0  0  0  0
  147.5272   74.3299  220.1672 H   0  0  0  0  0  0  0  0  0  0  0  0
  145.8750   73.4710  221.2700 C   0  0  0  0  0  0  0  0  0  0  0  0
  146.1414   73.9696  222.2136 H   0  0  0  0  0  0  0  0  0  0  0  0
  144.7600   72.6340  221.2070 C   0  0  0  0  0  0  0  0  0  0  0  0
  144.1471   72.4674  222.1051 H   0  0  0  0  0  0  0  0  0  0  0  0
  1  2  1  0
  2  3  2  0
  3  4  1  0
  3  5  1  0
  5  6  2  0
  6  7  1  0
  7  8  2  0
  8  9  1  0
  8 10  1  0
 10 11  1  0
 10 12  2  0
 12 13  1  0
 12 14  1  0
 14 15  1  0
 14 16  2  0
 16 17  1  0
 17 18  2  0
 17 19  1  0
 19 20  1  0
 20 21  1  0
 20 22  1  0
 20 23  1  0
 23 24  2  0
 24 25  1  0
 24 26  1  0
 26 27  1  0
 26 28  2  0
 28 29  1  0
 28 30  1  0
 30 31  1  0
 30 32  2  0
 32 33  1  0
  2 34  1  0
 34 35  2  0
 35 36  1  0
 35 37  1  0
 37 38  2  0
 38 39  1  0
 38 40  1  0
 40 41  1  0
 40 42  2  0
 42 43  1  0
 19  5  1  0
 32 23  1  0
 42 34  1  0
 16  7  1  0
M  END
>  <UniqueID>  (15) 
6

>  <SMILES>  (15) 
O=c1c2cc(Cl)ccc2nc(/C=C/c2cccnc2)n1Cc1ccc(Cl)cc1

>  <Energy>  (15) 
64.88639036852045

>  <Genealogy>  (15) 
O=c1c2cc(Cl)ccc2nc(/C=C/c2cccnc2)n1Cc1ccc(Cl)cc1 (cis-trans isomerization)
O=c1c2cc(Cl)ccc2nc(/C=C/c2cccnc2)n1Cc1ccc(Cl)cc1 (3D coordinates assigned)
O=c1c2cc(Cl)ccc2nc(/C=C/c2cccnc2)n1Cc1ccc(Cl)cc1 (optimized conformer: 64.88639036852045 kcal/mol)

>  <smiles>  (15) 
O=c1c2cc(Cl)ccc2nc(/C=C/c2cccnc2)n1Cc1ccc(Cl)cc1

>  <score_type>  (15) 
oracle

>  <origin>  (15) 
autodockgpu

>  <m_score__min__energy>  (15) 
-8.0099999999999998

>  <m_primary>  (15) 
energy

>  <meeko>  (15) 
{"free_energy": -7.82, "intermolecular_energy": -9.31, "internal_energy": -1.44, "cluster_size": 5, "cluster_id": 2, "rank_in_cluster": 3}

>  <energy>  (15) 
-7.89

>  <cluster_rmsd>  (15) 
0.14

>  <rmsd>  (15) 
270.48

>  <cluster>  (15) 
2

$$$$
SHJBAEJHBLGYCJ-BJMVGYQFNA-N
     RDKit          3D

 43 46  0  0  0  0  0  0  0  0999 V2000
  143.4977   75.7808  218.1347 H   0  0  0  0  0  0  0  0  0  0  0  0
  143.4780   75.4180  219.1730 C   0  0  0  0  0  0  0  0  0  0  0  0
  142.6010   75.9780  220.0150 C   0  0  0  0  0  0  0  0  0  0  0  0
  142.7076   77.0408  220.2777 H   0  0  0  0  0  0  0  0  0  0  0  0
  141.4960   75.1970  220.5960 C   0  0  0  0  0  0  0  0  0  0  0  0
  141.7760   73.9300  220.9940 N   0  0  0  0  0  0  0  0  0  0  0  0
  140.8390   73.1340  221.5570 C   0  0  0  0  0  0  0  0  0  0  0  0
  141.1670   71.8310  221.9450 C   0  0  0  0  0  0  0  0  0  0  0  0
  142.1889   71.4537  221.7922 H   0  0  0  0  0  0  0  0  0  0  0  0
  140.2000   71.0080  222.5260 C   0  0  0  0  0  0  0  0  0  0  0  0
  140.4610   69.9833  222.8291 H   0  0  0  0  0  0  0  0  0  0  0  0
  138.9000   71.4850  222.7230 C   0  0  0  0  0  0  0  0  0  0  0  0
  137.6870   70.4490  223.4540 Cl  0  0  0  0  0  0  0  0  0  0  0  0
  138.5650   72.7890  222.3380 C   0  0  0  0  0  0  0  0  0  0  0  0
  137.5423   73.1625  222.4949 H   0  0  0  0  0  0  0  0  0  0  0  0
  139.5360   73.6230  221.7500 C   0  0  0  0  0  0  0  0  0  0  0  0
  139.2540   74.9420  221.3540 C   0  0  0  0  0  0  0  0  0  0  0  0
  138.0930   75.4070  221.5380 O   0  0  0  0  0  0  0  0  0  0  0  0
  140.2330   75.7230  220.7810 N   0  0  0  0  0  0  0  0  0  0  0  0
  139.9460   77.1340  220.4320 C   0  0  0  0  0  0  0  0  0  0  0  0
  140.2723   77.3234  219.3987 H   0  0  0  0  0  0  0  0  0  0  0  0
  138.8644   77.3083  220.5302 H   0  0  0  0  0  0  0  0  0  0  0  0
  140.6730   78.0740  221.3600 C   0  0  0  0  0  0  0  0  0  0  0  0
  141.2490   79.2580  220.8700 C   0  0  0  0  0  0  0  0  0  0  0  0
  141.1595   79.5088  219.8027 H   0  0  0  0  0  0  0  0  0  0  0  0
  141.9350   80.1190  221.7310 C   0  0  0  0  0  0  0  0  0  0  0  0
  142.3889   81.0412  221.3392 H   0  0  0  0  0  0  0  0  0  0  0  0
  142.0450   79.8090  223.0910 C   0  0  0  0  0  0  0  0  0  0  0  0
  142.9050   80.8890  224.1710 Cl  0  0  0  0  0  0  0  0  0  0  0  0
  141.4660   78.6370  223.5880 C   0  0  0  0  0  0  0  0  0  0  0  0
  141.5496   78.3943  224.6576 H   0  0  0  0  0  0  0  0  0  0  0  0
  140.7810   77.7730  222.7280 C   0  0  0  0  0  0  0  0  0  0  0  0
  140.3248   76.8538  223.1242 H   0  0  0  0  0  0  0  0  0  0  0  0
  144.4250   74.3400  219.5490 C   0  0  0  0  0  0  0  0  0  0  0  0
  144.7730   73.3810  218.5840 C   0  0  0  0  0  0  0  0  0  0  0  0
  144.3396   73.4404  217.5747 H   0  0  0  0  0  0  0  0  0  0  0  0
  145.6410   72.3800  218.8870 N   0  0  0  0  0  0  0  0  0  0  0  0
  146.1960   72.2630  220.1220 C   0  0  0  0  0  0  0  0  0  0  0  0
  146.8974   71.4427  220.3347 H   0  0  0  0  0  0  0  0  0  0  0  0
  145.8760   73.1830  221.1190 C   0  0  0  0  0  0  0  0  0  0  0  0
  146.3196   73.0905  222.1213 H   0  0  0  0  0  0  0  0  0  0  0  0
  144.9880   74.2230  220.8360 C   0  0  0  0  0  0  0  0  0  0  0  0
  144.7277   74.9515  221.6180 H   0  0  0  0  0  0  0  0  0  0  0  0
  1  2  1  0
  2  3  2  0
  3  4  1  0
  3  5  1  0
  5  6  2  0
  6  7  1  0
  7  8  2  0
  8  9  1  0
  8 10  1  0
 10 11  1  0
 10 12  2  0
 12 13  1  0
 12 14  1  0
 14 15  1  0
 14 16  2  0
 16 17  1  0
 17 18  2  0
 17 19  1  0
 19 20  1  0
 20 21  1  0
 20 22  1  0
 20 23  1  0
 23 24  2  0
 24 25  1  0
 24 26  1  0
 26 27  1  0
 26 28  2  0
 28 29  1  0
 28 30  1  0
 30 31  1  0
 30 32  2  0
 32 33  1  0
  2 34  1  0
 34 35  2  0
 35 36  1  0
 35 37  1  0
 37 38  2  0
 38 39  1  0
 38 40  1  0
 40 41  1  0
 40 42  2  0
 42 43  1  0
 19  5  1  0
 32 23  1  0
 42 34  1  0
 16  7  1  0
M  END
>  <UniqueID>  (16) 
6

>  <SMILES>  (16) 
O=c1c2cc(Cl)ccc2nc(/C=C/c2cccnc2)n1Cc1ccc(Cl)cc1

>  <Energy>  (16) 
64.88639036852045

>  <Genealogy>  (16) 
O=c1c2cc(Cl)ccc2nc(/C=C/c2cccnc2)n1Cc1ccc(Cl)cc1 (cis-trans isomerization)
O=c1c2cc(Cl)ccc2nc(/C=C/c2cccnc2)n1Cc1ccc(Cl)cc1 (3D coordinates assigned)
O=c1c2cc(Cl)ccc2nc(/C=C/c2cccnc2)n1Cc1ccc(Cl)cc1 (optimized conformer: 64.88639036852045 kcal/mol)

>  <smiles>  (16) 
O=c1c2cc(Cl)ccc2nc(/C=C/c2cccnc2)n1Cc1ccc(Cl)cc1

>  <score_type>  (16) 
oracle

>  <origin>  (16) 
autodockgpu

>  <m_score__min__energy>  (16) 
-8.0099999999999998

>  <m_primary>  (16) 
energy

>  <meeko>  (16) 
{"free_energy": -7.7, "intermolecular_energy": -9.19, "internal_energy": -1.34, "cluster_size": 1, "cluster_id": 3, "rank_in_cluster": 1}

>  <energy>  (16) 
-7.82

>  <cluster_rmsd>  (16) 
0.11

>  <rmsd>  (16) 
270.45

>  <cluster>  (16) 
2

$$$$
SHJBAEJHBLGYCJ-BJMVGYQFNA-N
     RDKit          3D

 43 46  0  0  0  0  0  0  0  0999 V2000
  135.8229   72.0524  223.3197 H   0  0  0  0  0  0  0  0  0  0  0  0
  135.7820   73.1460  223.2090 C   0  0  0  0  0  0  0  0  0  0  0  0
  136.2860   73.6820  222.0900 C   0  0  0  0  0  0  0  0  0  0  0  0
  135.7629   73.5283  221.1346 H   0  0  0  0  0  0  0  0  0  0  0  0
  137.5270   74.4730  222.1150 C   0  0  0  0  0  0  0  0  0  0  0  0
  137.4120   75.7960  222.3980 N   0  0  0  0  0  0  0  0  0  0  0  0
  138.4910   76.6080  222.4650 C   0  0  0  0  0  0  0  0  0  0  0  0
  138.3280   77.9670  222.7520 C   0  0  0  0  0  0  0  0  0  0  0  0
  137.3210   78.3747  222.9245 H   0  0  0  0  0  0  0  0  0  0  0  0
  139.4420   78.8080  222.8200 C   0  0  0  0  0  0  0  0  0  0  0  0
  139.3105   79.8770  223.0437 H   0  0  0  0  0  0  0  0  0  0  0  0
  140.7240   78.2920  222.6040 C   0  0  0  0  0  0  0  0  0  0  0  0
  142.1200   79.3500  222.6920 Cl  0  0  0  0  0  0  0  0  0  0  0  0
  140.8940   76.9320  222.3180 C   0  0  0  0  0  0  0  0  0  0  0  0
  141.9032   76.5283  222.1492 H   0  0  0  0  0  0  0  0  0  0  0  0
  139.7750   76.0800  222.2460 C   0  0  0  0  0  0  0  0  0  0  0  0
  139.8920   74.7060  221.9710 C   0  0  0  0  0  0  0  0  0  0  0  0
  141.0400   74.2080  221.7910 O   0  0  0  0  0  0  0  0  0  0  0  0
  138.7700   73.9100  221.9080 N   0  0  0  0  0  0  0  0  0  0  0  0
  138.9090   72.4510  221.6870 C   0  0  0  0  0  0  0  0  0  0  0  0
  137.9763   72.0614  221.2530 H   0  0  0  0  0  0  0  0  0  0  0  0
  139.7518   72.2765  221.0020 H   0  0  0  0  0  0  0  0  0  0  0  0
  139.1860   71.7370  222.9870 C   0  0  0  0  0  0  0  0  0  0  0  0
  140.4120   71.9100  223.6500 C   0  0  0  0  0  0  0  0  0  0  0  0
  141.1737   72.5808  223.2259 H   0  0  0  0  0  0  0  0  0  0  0  0
  140.6690   71.2340  224.8460 C   0  0  0  0  0  0  0  0  0  0  0  0
  141.6333   71.3697  225.3576 H   0  0  0  0  0  0  0  0  0  0  0  0
  139.7010   70.3850  225.3930 C   0  0  0  0  0  0  0  0  0  0  0  0
  140.0240   69.5380  226.8940 Cl  0  0  0  0  0  0  0  0  0  0  0  0
  138.4750   70.2150  224.7440 C   0  0  0  0  0  0  0  0  0  0  0  0
  137.7124   69.5506  225.1764 H   0  0  0  0  0  0  0  0  0  0  0  0
  138.2160   70.8880  223.5460 C   0  0  0  0  0  0  0  0  0  0  0  0
  137.2492   70.7522  223.0393 H   0  0  0  0  0  0  0  0  0  0  0  0
  135.1720   73.9330  224.3090 C   0  0  0  0  0  0  0  0  0  0  0  0
  134.5130   73.2480  225.3420 C   0  0  0  0  0  0  0  0  0  0  0  0
  134.4564   72.1497  225.3189 H   0  0  0  0  0  0  0  0  0  0  0  0
  133.9440   73.9310  226.3710 N   0  0  0  0  0  0  0  0  0  0  0  0
  133.9840   75.2870  226.4370 C   0  0  0  0  0  0  0  0  0  0  0  0
  133.5170   75.8100  227.2846 H   0  0  0  0  0  0  0  0  0  0  0  0
  134.6160   76.0160  225.4320 C   0  0  0  0  0  0  0  0  0  0  0  0
  134.6467   77.1145  225.4796 H   0  0  0  0  0  0  0  0  0  0  0  0
  135.2100   75.3410  224.3640 C   0  0  0  0  0  0  0  0  0  0  0  0
  135.7083   75.9087  223.5644 H   0  0  0  0  0  0  0  0  0  0  0  0
  1  2  1  0
  2  3  2  0
  3  4  1  0
  3  5  1  0
  5  6  2  0
  6  7  1  0
  7  8  2  0
  8  9  1  0
  8 10  1  0
 10 11  1  0
 10 12  2  0
 12 13  1  0
 12 14  1  0
 14 15  1  0
 14 16  2  0
 16 17  1  0
 17 18  2  0
 17 19  1  0
 19 20  1  0
 20 21  1  0
 20 22  1  0
 20 23  1  0
 23 24  2  0
 24 25  1  0
 24 26  1  0
 26 27  1  0
 26 28  2  0
 28 29  1  0
 28 30  1  0
 30 31  1  0
 30 32  2  0
 32 33  1  0
  2 34  1  0
 34 35  2  0
 35 36  1  0
 35 37  1  0
 37 38  2  0
 38 39  1  0
 38 40  1  0
 40 41  1  0
 40 42  2  0
 42 43  1  0
 19  5  1  0
 32 23  1  0
 42 34  1  0
 16  7  1  0
M  END
>  <UniqueID>  (17) 
6

>  <SMILES>  (17) 
O=c1c2cc(Cl)ccc2nc(/C=C/c2cccnc2)n1Cc1ccc(Cl)cc1

>  <Energy>  (17) 
64.88639036852045

>  <Genealogy>  (17) 
O=c1c2cc(Cl)ccc2nc(/C=C/c2cccnc2)n1Cc1ccc(Cl)cc1 (cis-trans isomerization)
O=c1c2cc(Cl)ccc2nc(/C=C/c2cccnc2)n1Cc1ccc(Cl)cc1 (3D coordinates assigned)
O=c1c2cc(Cl)ccc2nc(/C=C/c2cccnc2)n1Cc1ccc(Cl)cc1 (optimized conformer: 64.88639036852045 kcal/mol)

>  <smiles>  (17) 
O=c1c2cc(Cl)ccc2nc(/C=C/c2cccnc2)n1Cc1ccc(Cl)cc1

>  <score_type>  (17) 
oracle

>  <origin>  (17) 
autodockgpu

>  <m_score__min__energy>  (17) 
-8.0099999999999998

>  <m_primary>  (17) 
energy

>  <meeko>  (17) 
{"free_energy": -7.92, "intermolecular_energy": -9.41, "internal_energy": -1.44, "cluster_size": 13, "cluster_id": 1, "rank_in_cluster": 9}

>  <energy>  (17) 
-7.74

>  <cluster_rmsd>  (17) 
0.38

>  <rmsd>  (17) 
270.38

>  <cluster>  (17) 
2

$$$$
SHJBAEJHBLGYCJ-BJMVGYQFNA-N
     RDKit          3D

 43 46  0  0  0  0  0  0  0  0999 V2000
  135.7225   75.8662  223.0491 H   0  0  0  0  0  0  0  0  0  0  0  0
  135.2660   76.6910  223.6160 C   0  0  0  0  0  0  0  0  0  0  0  0
  135.4130   77.9340  223.1410 C   0  0  0  0  0  0  0  0  0  0  0  0
  134.5639   78.4270  222.6450 H   0  0  0  0  0  0  0  0  0  0  0  0
  136.6920   78.6530  223.2710 C   0  0  0  0  0  0  0  0  0  0  0  0
  137.8200   77.9760  222.9370 N   0  0  0  0  0  0  0  0  0  0  0  0
  139.0430   78.5500  223.0020 C   0  0  0  0  0  0  0  0  0  0  0  0
  140.1810   77.8140  222.6570 C   0  0  0  0  0  0  0  0  0  0  0  0
  140.0807   76.7680  222.3316 H   0  0  0  0  0  0  0  0  0  0  0  0
  141.4450   78.4050  222.7250 C   0  0  0  0  0  0  0  0  0  0  0  0
  142.3388   77.8234  222.4550 H   0  0  0  0  0  0  0  0  0  0  0  0
  141.5750   79.7350  223.1360 C   0  0  0  0  0  0  0  0  0  0  0  0
  143.1640   80.4750  223.2190 Cl  0  0  0  0  0  0  0  0  0  0  0  0
  140.4400   80.4780  223.4810 C   0  0  0  0  0  0  0  0  0  0  0  0
  140.5454   81.5247  223.8025 H   0  0  0  0  0  0  0  0  0  0  0  0
  139.1630   79.8870  223.4170 C   0  0  0  0  0  0  0  0  0  0  0  0
  137.9910   80.5910  223.7440 C   0  0  0  0  0  0  0  0  0  0  0  0
  138.0760   81.8010  224.0990 O   0  0  0  0  0  0  0  0  0  0  0  0
  136.7620   79.9730  223.6690 N   0  0  0  0  0  0  0  0  0  0  0  0
  135.5280   80.7440  223.9470 C   0  0  0  0  0  0  0  0  0  0  0  0
  135.5896   81.7182  223.4399 H   0  0  0  0  0  0  0  0  0  0  0  0
  134.6645   80.1727  223.5757 H   0  0  0  0  0  0  0  0  0  0  0  0
  135.3580   80.9680  225.4290 C   0  0  0  0  0  0  0  0  0  0  0  0
  136.3870   81.5540  226.1860 C   0  0  0  0  0  0  0  0  0  0  0  0
  137.3207   81.8631  225.6934 H   0  0  0  0  0  0  0  0  0  0  0  0
  136.2300   81.7460  227.5610 C   0  0  0  0  0  0  0  0  0  0  0  0
  137.0411   82.2014  228.1481 H   0  0  0  0  0  0  0  0  0  0  0  0
  135.0430   81.3600  228.1920 C   0  0  0  0  0  0  0  0  0  0  0  0
  134.8470   81.6010  229.9170 Cl  0  0  0  0  0  0  0  0  0  0  0  0
  134.0110   80.7840  227.4440 C   0  0  0  0  0  0  0  0  0  0  0  0
  133.0759   80.4831  227.9391 H   0  0  0  0  0  0  0  0  0  0  0  0
  134.1660   80.5900  226.0680 C   0  0  0  0  0  0  0  0  0  0  0  0
  133.3505   80.1392  225.4833 H   0  0  0  0  0  0  0  0  0  0  0  0
  134.5270   76.3540  224.8580 C   0  0  0  0  0  0  0  0  0  0  0  0
  134.6030   75.0420  225.3520 C   0  0  0  0  0  0  0  0  0  0  0  0
  135.1999   74.2904  224.8146 H   0  0  0  0  0  0  0  0  0  0  0  0
  133.9450   74.6930  226.4890 N   0  0  0  0  0  0  0  0  0  0  0  0
  133.1910   75.5860  227.1820 C   0  0  0  0  0  0  0  0  0  0  0  0
  132.6738   75.2731  228.1010 H   0  0  0  0  0  0  0  0  0  0  0  0
  133.0730   76.8990  226.7280 C   0  0  0  0  0  0  0  0  0  0  0  0
  132.4600   77.6246  227.2827 H   0  0  0  0  0  0  0  0  0  0  0  0
  133.7390   77.2850  225.5640 C   0  0  0  0  0  0  0  0  0  0  0  0
  133.6487   78.3180  225.1968 H   0  0  0  0  0  0  0  0  0  0  0  0
  1  2  1  0
  2  3  2  0
  3  4  1  0
  3  5  1  0
  5  6  2  0
  6  7  1  0
  7  8  2  0
  8  9  1  0
  8 10  1  0
 10 11  1  0
 10 12  2  0
 12 13  1  0
 12 14  1  0
 14 15  1  0
 14 16  2  0
 16 17  1  0
 17 18  2  0
 17 19  1  0
 19 20  1  0
 20 21  1  0
 20 22  1  0
 20 23  1  0
 23 24  2  0
 24 25  1  0
 24 26  1  0
 26 27  1  0
 26 28  2  0
 28 29  1  0
 28 30  1  0
 30 31  1  0
 30 32  2  0
 32 33  1  0
  2 34  1  0
 34 35  2  0
 35 36  1  0
 35 37  1  0
 37 38  2  0
 38 39  1  0
 38 40  1  0
 40 41  1  0
 40 42  2  0
 42 43  1  0
 19  5  1  0
 32 23  1  0
 42 34  1  0
 16  7  1  0
M  END
>  <UniqueID>  (18) 
6

>  <SMILES>  (18) 
O=c1c2cc(Cl)ccc2nc(/C=C/c2cccnc2)n1Cc1ccc(Cl)cc1

>  <Energy>  (18) 
64.88639036852045

>  <Genealogy>  (18) 
O=c1c2cc(Cl)ccc2nc(/C=C/c2cccnc2)n1Cc1ccc(Cl)cc1 (cis-trans isomerization)
O=c1c2cc(Cl)ccc2nc(/C=C/c2cccnc2)n1Cc1ccc(Cl)cc1 (3D coordinates assigned)
O=c1c2cc(Cl)ccc2nc(/C=C/c2cccnc2)n1Cc1ccc(Cl)cc1 (optimized conformer: 64.88639036852045 kcal/mol)

>  <smiles>  (18) 
O=c1c2cc(Cl)ccc2nc(/C=C/c2cccnc2)n1Cc1ccc(Cl)cc1

>  <score_type>  (18) 
oracle

>  <origin>  (18) 
autodockgpu

>  <m_score__min__energy>  (18) 
-8.0099999999999998

>  <m_primary>  (18) 
energy

>  <meeko>  (18) 
{"free_energy": -7.49, "intermolecular_energy": -8.98, "internal_energy": -1.24, "cluster_size": 1, "cluster_id": 4, "rank_in_cluster": 1}

>  <energy>  (18) 
-7.66

>  <cluster_rmsd>  (18) 
1.37

>  <rmsd>  (18) 
270.34

>  <cluster>  (18) 
2

$$$$
SHJBAEJHBLGYCJ-BJMVGYQFNA-N
     RDKit          3D

 43 46  0  0  0  0  0  0  0  0999 V2000
  136.0144   72.4047  223.5771 H   0  0  0  0  0  0  0  0  0  0  0  0
  135.7930   73.4760  223.4620 C   0  0  0  0  0  0  0  0  0  0  0  0
  136.2070   74.0850  222.3430 C   0  0  0  0  0  0  0  0  0  0  0  0
  135.5825   74.0365  221.4388 H   0  0  0  0  0  0  0  0  0  0  0  0
  137.4830   74.8180  222.3020 C   0  0  0  0  0  0  0  0  0  0  0  0
  137.4560   76.1280  222.6560 N   0  0  0  0  0  0  0  0  0  0  0  0
  138.5760   76.8870  222.6710 C   0  0  0  0  0  0  0  0  0  0  0  0
  138.5030   78.2360  223.0340 C   0  0  0  0  0  0  0  0  0  0  0  0
  137.5343   78.6792  223.3081 H   0  0  0  0  0  0  0  0  0  0  0  0
  139.6580   79.0210  223.0490 C   0  0  0  0  0  0  0  0  0  0  0  0
  139.5977   80.0817  223.3341 H   0  0  0  0  0  0  0  0  0  0  0  0
  140.8910   78.4600  222.7020 C   0  0  0  0  0  0  0  0  0  0  0  0
  142.3400   79.4490  222.7240 Cl  0  0  0  0  0  0  0  0  0  0  0  0
  140.9710   77.1110  222.3390 C   0  0  0  0  0  0  0  0  0  0  0  0
  141.9424   76.6722  222.0672 H   0  0  0  0  0  0  0  0  0  0  0  0
  139.8100   76.3140  222.3210 C   0  0  0  0  0  0  0  0  0  0  0  0
  139.8370   74.9520  221.9730 C   0  0  0  0  0  0  0  0  0  0  0  0
  140.9410   74.4130  221.6750 O   0  0  0  0  0  0  0  0  0  0  0  0
  138.6760   74.2110  221.9660 N   0  0  0  0  0  0  0  0  0  0  0  0
  138.7260   72.7600  221.6660 C   0  0  0  0  0  0  0  0  0  0  0  0
  137.7431   72.4345  221.2945 H   0  0  0  0  0  0  0  0  0  0  0  0
  139.5006   72.5839  220.9051 H   0  0  0  0  0  0  0  0  0  0  0  0
  139.0740   71.9690  222.9020 C   0  0  0  0  0  0  0  0  0  0  0  0
  140.3480   72.0790  223.4860 C   0  0  0  0  0  0  0  0  0  0  0  0
  141.0951   72.7560  223.0460 H   0  0  0  0  0  0  0  0  0  0  0  0
  140.6700   71.3330  224.6220 C   0  0  0  0  0  0  0  0  0  0  0  0
  141.6706   71.4197  225.0705 H   0  0  0  0  0  0  0  0  0  0  0  0
  139.7220   70.4760  225.1900 C   0  0  0  0  0  0  0  0  0  0  0  0
  140.1270   69.5400  226.6160 Cl  0  0  0  0  0  0  0  0  0  0  0  0
  138.4490   70.3680  224.6210 C   0  0  0  0  0  0  0  0  0  0  0  0
  137.7019   69.6967  225.0696 H   0  0  0  0  0  0  0  0  0  0  0  0
  138.1250   71.1120  223.4830 C   0  0  0  0  0  0  0  0  0  0  0  0
  137.1217   71.0259  223.0402 H   0  0  0  0  0  0  0  0  0  0  0  0
  135.0550   74.1540  224.5560 C   0  0  0  0  0  0  0  0  0  0  0  0
  134.3370   73.3680  225.4720 C   0  0  0  0  0  0  0  0  0  0  0  0
  134.3296   72.2734  225.3633 H   0  0  0  0  0  0  0  0  0  0  0  0
  133.6510   73.9490  226.4920 N   0  0  0  0  0  0  0  0  0  0  0  0
  133.6270   75.2970  226.6610 C   0  0  0  0  0  0  0  0  0  0  0  0
  133.0650   75.7362  227.4984 H   0  0  0  0  0  0  0  0  0  0  0  0
  134.3140   76.1230  225.7740 C   0  0  0  0  0  0  0  0  0  0  0  0
  134.2942   77.2150  225.9051 H   0  0  0  0  0  0  0  0  0  0  0  0
  135.0280   75.5540  224.7170 C   0  0  0  0  0  0  0  0  0  0  0  0
  135.5697   76.1990  224.0096 H   0  0  0  0  0  0  0  0  0  0  0  0
  1  2  1  0
  2  3  2  0
  3  4  1  0
  3  5  1  0
  5  6  2  0
  6  7  1  0
  7  8  2  0
  8  9  1  0
  8 10  1  0
 10 11  1  0
 10 12  2  0
 12 13  1  0
 12 14  1  0
 14 15  1  0
 14 16  2  0
 16 17  1  0
 17 18  2  0
 17 19  1  0
 19 20  1  0
 20 21  1  0
 20 22  1  0
 20 23  1  0
 23 24  2  0
 24 25  1  0
 24 26  1  0
 26 27  1  0
 26 28  2  0
 28 29  1  0
 28 30  1  0
 30 31  1  0
 30 32  2  0
 32 33  1  0
  2 34  1  0
 34 35  2  0
 35 36  1  0
 35 37  1  0
 37 38  2  0
 38 39  1  0
 38 40  1  0
 40 41  1  0
 40 42  2  0
 42 43  1  0
 19  5  1  0
 32 23  1  0
 42 34  1  0
 16  7  1  0
M  END
>  <UniqueID>  (19) 
6

>  <SMILES>  (19) 
O=c1c2cc(Cl)ccc2nc(/C=C/c2cccnc2)n1Cc1ccc(Cl)cc1

>  <Energy>  (19) 
64.88639036852045

>  <Genealogy>  (19) 
O=c1c2cc(Cl)ccc2nc(/C=C/c2cccnc2)n1Cc1ccc(Cl)cc1 (cis-trans isomerization)
O=c1c2cc(Cl)ccc2nc(/C=C/c2cccnc2)n1Cc1ccc(Cl)cc1 (3D coordinates assigned)
O=c1c2cc(Cl)ccc2nc(/C=C/c2cccnc2)n1Cc1ccc(Cl)cc1 (optimized conformer: 64.88639036852045 kcal/mol)

>  <smiles>  (19) 
O=c1c2cc(Cl)ccc2nc(/C=C/c2cccnc2)n1Cc1ccc(Cl)cc1

>  <score_type>  (19) 
oracle

>  <origin>  (19) 
autodockgpu

>  <m_score__min__energy>  (19) 
-8.0099999999999998

>  <m_primary>  (19) 
energy

>  <meeko>  (19) 
{"free_energy": -7.99, "intermolecular_energy": -9.48, "internal_energy": -1.39, "cluster_size": 13, "cluster_id": 1, "rank_in_cluster": 3}

>  <energy>  (19) 
-7.7

>  <cluster_rmsd>  (19) 
0.0

>  <rmsd>  (19) 
270.63

>  <cluster>  (19) 
3

$$$$
SHJBAEJHBLGYCJ-BJMVGYQFNA-N
     RDKit          3D

 43 46  0  0  0  0  0  0  0  0999 V2000
  136.0049   72.3753  223.6178 H   0  0  0  0  0  0  0  0  0  0  0  0
  135.7710   73.4420  223.4860 C   0  0  0  0  0  0  0  0  0  0  0  0
  136.1850   74.0400  222.3620 C   0  0  0  0  0  0  0  0  0  0  0  0
  135.5658   73.9738  221.4552 H   0  0  0  0  0  0  0  0  0  0  0  0
  137.4550   74.7850  222.3180 C   0  0  0  0  0  0  0  0  0  0  0  0
  137.4170   76.0940  222.6730 N   0  0  0  0  0  0  0  0  0  0  0  0
  138.5300   76.8630  222.6850 C   0  0  0  0  0  0  0  0  0  0  0  0
  138.4460   78.2110  223.0490 C   0  0  0  0  0  0  0  0  0  0  0  0
  137.4741   78.6451  223.3263 H   0  0  0  0  0  0  0  0  0  0  0  0
  139.5940   79.0070  223.0610 C   0  0  0  0  0  0  0  0  0  0  0  0
  139.5247   80.0672  223.3460 H   0  0  0  0  0  0  0  0  0  0  0  0
  140.8310   78.4570  222.7110 C   0  0  0  0  0  0  0  0  0  0  0  0
  142.2720   79.4590  222.7300 Cl  0  0  0  0  0  0  0  0  0  0  0  0
  140.9230   77.1080  222.3480 C   0  0  0  0  0  0  0  0  0  0  0  0
  141.8978   76.6777  222.0750 H   0  0  0  0  0  0  0  0  0  0  0  0
  139.7680   76.3010  222.3320 C   0  0  0  0  0  0  0  0  0  0  0  0
  139.8070   74.9400  221.9830 C   0  0  0  0  0  0  0  0  0  0  0  0
  140.9150   74.4110  221.6820 O   0  0  0  0  0  0  0  0  0  0  0  0
  138.6530   74.1880  221.9780 N   0  0  0  0  0  0  0  0  0  0  0  0
  138.7150   72.7380  221.6780 C   0  0  0  0  0  0  0  0  0  0  0  0
  137.7405   72.4085  221.2884 H   0  0  0  0  0  0  0  0  0  0  0  0
  139.5043   72.5663  220.9314 H   0  0  0  0  0  0  0  0  0  0  0  0
  139.0440   71.9470  222.9190 C   0  0  0  0  0  0  0  0  0  0  0  0
  140.3030   72.0680  223.5310 C   0  0  0  0  0  0  0  0  0  0  0  0
  141.0526   72.7535  223.1089 H   0  0  0  0  0  0  0  0  0  0  0  0
  140.6080   71.3230  224.6720 C   0  0  0  0  0  0  0  0  0  0  0  0
  141.5975   71.4193  225.1429 H   0  0  0  0  0  0  0  0  0  0  0  0
  139.6560   70.4540  225.2170 C   0  0  0  0  0  0  0  0  0  0  0  0
  140.0390   69.5180  226.6490 Cl  0  0  0  0  0  0  0  0  0  0  0  0
  138.3970   70.3350  224.6200 C   0  0  0  0  0  0  0  0  0  0  0  0
  137.6467   69.6556  225.0506 H   0  0  0  0  0  0  0  0  0  0  0  0
  138.0910   71.0790  223.4760 C   0  0  0  0  0  0  0  0  0  0  0  0
  137.0990   70.9838  223.0103 H   0  0  0  0  0  0  0  0  0  0  0  0
  135.0170   74.1260  224.5650 C   0  0  0  0  0  0  0  0  0  0  0  0
  134.2830   73.3450  225.4730 C   0  0  0  0  0  0  0  0  0  0  0  0
  134.2754   72.2499  225.3692 H   0  0  0  0  0  0  0  0  0  0  0  0
  133.5820   73.9320  226.4790 N   0  0  0  0  0  0  0  0  0  0  0  0
  133.5580   75.2800  226.6420 C   0  0  0  0  0  0  0  0  0  0  0  0
  132.9833   75.7235  227.4684 H   0  0  0  0  0  0  0  0  0  0  0  0
  134.2610   76.1020  225.7630 C   0  0  0  0  0  0  0  0  0  0  0  0
  134.2419   77.1945  225.8895 H   0  0  0  0  0  0  0  0  0  0  0  0
  134.9900   75.5260  224.7200 C   0  0  0  0  0  0  0  0  0  0  0  0
  135.5441   76.1668  224.0183 H   0  0  0  0  0  0  0  0  0  0  0  0
  1  2  1  0
  2  3  2  0
  3  4  1  0
  3  5  1  0
  5  6  2  0
  6  7  1  0
  7  8  2  0
  8  9  1  0
  8 10  1  0
 10 11  1  0
 10 12  2  0
 12 13  1  0
 12 14  1  0
 14 15  1  0
 14 16  2  0
 16 17  1  0
 17 18  2  0
 17 19  1  0
 19 20  1  0
 20 21  1  0
 20 22  1  0
 20 23  1  0
 23 24  2  0
 24 25  1  0
 24 26  1  0
 26 27  1  0
 26 28  2  0
 28 29  1  0
 28 30  1  0
 30 31  1  0
 30 32  2  0
 32 33  1  0
  2 34  1  0
 34 35  2  0
 35 36  1  0
 35 37  1  0
 37 38  2  0
 38 39  1  0
 38 40  1  0
 40 41  1  0
 40 42  2  0
 42 43  1  0
 19  5  1  0
 32 23  1  0
 42 34  1  0
 16  7  1  0
M  END
>  <UniqueID>  (20) 
6

>  <SMILES>  (20) 
O=c1c2cc(Cl)ccc2nc(/C=C/c2cccnc2)n1Cc1ccc(Cl)cc1

>  <Energy>  (20) 
64.88639036852045

>  <Genealogy>  (20) 
O=c1c2cc(Cl)ccc2nc(/C=C/c2cccnc2)n1Cc1ccc(Cl)cc1 (cis-trans isomerization)
O=c1c2cc(Cl)ccc2nc(/C=C/c2cccnc2)n1Cc1ccc(Cl)cc1 (3D coordinates assigned)
O=c1c2cc(Cl)ccc2nc(/C=C/c2cccnc2)n1Cc1ccc(Cl)cc1 (optimized conformer: 64.88639036852045 kcal/mol)

>  <smiles>  (20) 
O=c1c2cc(Cl)ccc2nc(/C=C/c2cccnc2)n1Cc1ccc(Cl)cc1

>  <score_type>  (20) 
oracle

>  <origin>  (20) 
autodockgpu

>  <m_score__min__energy>  (20) 
-8.0099999999999998

>  <m_primary>  (20) 
energy

>  <meeko>  (20) 
{"free_energy": -7.99, "intermolecular_energy": -9.48, "internal_energy": -1.4, "cluster_size": 13, "cluster_id": 1, "rank_in_cluster": 4}

>  <energy>  (20) 
-7.49

>  <cluster_rmsd>  (20) 
0.0

>  <rmsd>  (20) 
272.1

>  <cluster>  (20) 
4

$$$$
