
     RDKit          3D

 40 43  0  0  0  0  0  0  0  0999 V2000
  135.9270   81.6590  228.2990 N   0  0  0  0  0  0  0  0  0  0  0  0
  136.2560   81.8060  227.1880 C   0  0  0  0  0  0  0  0  0  0  0  0
  136.6550   81.9860  225.8040 C   0  0  0  0  0  0  0  0  0  0  0  0
  136.1330   83.0460  225.0940 C   0  0  0  0  0  0  0  0  0  0  0  0
  136.5350   83.1850  223.7800 C   0  0  0  0  0  0  0  0  0  0  0  0
  137.4190   82.3010  223.2110 C   0  0  0  0  0  0  0  0  0  0  0  0
  137.9590   81.2200  223.9140 C   0  0  0  0  0  0  0  0  0  0  0  0
  138.8930   80.3280  223.2460 C   0  0  0  0  0  0  0  0  0  0  0  0
  138.5230   79.0830  223.3470 N   0  0  0  0  0  0  0  0  0  0  0  0
  139.1390   77.9100  222.8490 C   0  0  0  0  0  0  0  0  0  0  0  0
  138.2470   76.8580  222.6220 C   0  0  0  0  0  0  0  0  0  0  0  0
  138.7530   75.6640  222.1370 C   0  0  0  0  0  0  0  0  0  0  0  0
  140.0860   75.4780  221.8730 C   0  0  0  0  0  0  0  0  0  0  0  0
  140.6440   74.2290  221.3620 C   0  0  0  0  0  0  0  0  0  0  0  0
  141.6810   74.2190  220.4370 C   0  0  0  0  0  0  0  0  0  0  0  0
  142.2190   73.0430  219.9450 C   0  0  0  0  0  0  0  0  0  0  0  0
  141.6670   71.8710  220.4260 C   0  0  0  0  0  0  0  0  0  0  0  0
  140.6720   71.8470  221.3140 N   0  0  0  0  0  0  0  0  0  0  0  0
  140.1590   73.0010  221.7840 C   0  0  0  0  0  0  0  0  0  0  0  0
  140.9750   76.5080  222.0940 C   0  0  0  0  0  0  0  0  0  0  0  0
  140.4900   77.7010  222.5760 C   0  0  0  0  0  0  0  0  0  0  0  0
  141.5280   78.6650  222.7510 N   0  0  0  0  0  0  0  0  0  0  0  0
  141.3220   80.0780  222.8830 C   0  0  0  0  0  0  0  0  0  0  0  0
  142.3230   80.7420  223.3260 O   0  0  0  0  0  0  0  0  0  0  0  0
  140.0850   80.8770  222.5680 C   0  0  0  0  0  0  0  0  0  0  0  0
  137.5510   81.0940  225.2180 C   0  0  0  0  0  0  0  0  0  0  0  0
  135.4259   83.7516  225.5546 H   0  0  0  0  0  0  0  0  0  0  0  0
  136.1406   84.0176  223.1790 H   0  0  0  0  0  0  0  0  0  0  0  0
  137.7134   82.4494  222.1616 H   0  0  0  0  0  0  0  0  0  0  0  0
  137.1720   76.9756  222.8233 H   0  0  0  0  0  0  0  0  0  0  0  0
  138.0579   74.8309  221.9561 H   0  0  0  0  0  0  0  0  0  0  0  0
  142.0878   75.1782  220.0841 H   0  0  0  0  0  0  0  0  0  0  0  0
  143.0396   73.0411  219.2125 H   0  0  0  0  0  0  0  0  0  0  0  0
  142.0666   70.9138  220.0597 H   0  0  0  0  0  0  0  0  0  0  0  0
  139.3393   72.9679  222.5169 H   0  0  0  0  0  0  0  0  0  0  0  0
  142.0480   76.3785  221.8894 H   0  0  0  0  0  0  0  0  0  0  0  0
  142.5030   78.3180  222.7850 H   0  0  0  0  0  0  0  0  0  0  0  0
  140.2371   81.9149  222.8990 H   0  0  0  0  0  0  0  0  0  0  0  0
  139.9139   80.8307  221.4824 H   0  0  0  0  0  0  0  0  0  0  0  0
  137.9440   80.2618  225.8204 H   0  0  0  0  0  0  0  0  0  0  0  0
  1  2  3  0
  2  3  1  0
  3  4  2  0
  4  5  1  0
  5  6  2  0
  6  7  1  0
  7  8  1  0
  8  9  2  0
  9 10  1  0
 10 11  2  0
 11 12  1  0
 12 13  2  0
 13 14  1  0
 14 15  2  0
 15 16  1  0
 16 17  2  0
 17 18  1  0
 18 19  2  0
 13 20  1  0
 20 21  2  0
 21 22  1  0
 22 23  1  0
 23 24  2  0
 23 25  1  0
  7 26  2  0
 26  3  1  0
 25  8  1  0
 21 10  1  0
 19 14  1  0
  4 27  1  0
  5 28  1  0
  6 29  1  0
 11 30  1  0
 12 31  1  0
 15 32  1  0
 16 33  1  0
 17 34  1  0
 19 35  1  0
 20 36  1  0
 22 37  1  0
 25 38  1  0
 25 39  1  0
 26 40  1  0
M  END
>  <smiles>  (1) 
N#Cc1cccc(C2=Nc3ccc(-c4cccnc4)cc3NC(=O)C2)c1

>  <score_type>  (1) 
oracle

>  <origin>  (1) 
autodockgpu

>  <m_score__min__energy>  (1) 
-5.5700000000000003

>  <m_primary>  (1) 
energy

>  <meeko>  (1) 
{"free_energy": -5.35, "intermolecular_energy": -7.44, "internal_energy": -0.96, "cluster_size": 10, "cluster_id": 1, "rank_in_cluster": 8}

>  <energy>  (1) 
-5.57

>  <cluster_rmsd>  (1) 
0.0

>  <rmsd>  (1) 
272.27

>  <cluster>  (1) 
1

$$$$

     RDKit          3D

 40 43  0  0  0  0  0  0  0  0999 V2000
  136.1570   81.9170  228.0310 N   0  0  0  0  0  0  0  0  0  0  0  0
  136.4980   82.0240  226.9190 C   0  0  0  0  0  0  0  0  0  0  0  0
  136.9220   82.1470  225.5360 C   0  0  0  0  0  0  0  0  0  0  0  0
  136.4820   83.2260  224.7990 C   0  0  0  0  0  0  0  0  0  0  0  0
  136.9060   83.3100  223.4870 C   0  0  0  0  0  0  0  0  0  0  0  0
  137.7320   82.3560  222.9460 C   0  0  0  0  0  0  0  0  0  0  0  0
  138.1880   81.2550  223.6770 C   0  0  0  0  0  0  0  0  0  0  0  0
  139.0650   80.2860  223.0380 C   0  0  0  0  0  0  0  0  0  0  0  0
  138.6640   79.0640  223.2450 N   0  0  0  0  0  0  0  0  0  0  0  0
  139.2190   77.8390  222.8070 C   0  0  0  0  0  0  0  0  0  0  0  0
  138.2860   76.8050  222.6950 C   0  0  0  0  0  0  0  0  0  0  0  0
  138.7310   75.5630  222.2740 C   0  0  0  0  0  0  0  0  0  0  0  0
  140.0450   75.3140  221.9670 C   0  0  0  0  0  0  0  0  0  0  0  0
  140.5400   74.0130  221.5240 C   0  0  0  0  0  0  0  0  0  0  0  0
  139.9300   72.8290  221.9180 C   0  0  0  0  0  0  0  0  0  0  0  0
  140.3890   71.5900  221.5050 C   0  0  0  0  0  0  0  0  0  0  0  0
  141.4930   71.5940  220.6740 C   0  0  0  0  0  0  0  0  0  0  0  0
  142.1010   72.7140  220.2780 N   0  0  0  0  0  0  0  0  0  0  0  0
  141.6420   73.9120  220.6890 C   0  0  0  0  0  0  0  0  0  0  0  0
  140.9740   76.3260  222.0740 C   0  0  0  0  0  0  0  0  0  0  0  0
  140.5490   77.5660  222.4900 C   0  0  0  0  0  0  0  0  0  0  0  0
  141.6230   78.5040  222.5510 N   0  0  0  0  0  0  0  0  0  0  0  0
  141.4670   79.9290  222.5890 C   0  0  0  0  0  0  0  0  0  0  0  0
  142.5080   80.5880  222.9390 O   0  0  0  0  0  0  0  0  0  0  0  0
  140.2410   80.7460  222.2700 C   0  0  0  0  0  0  0  0  0  0  0  0
  137.7600   81.1840  224.9780 C   0  0  0  0  0  0  0  0  0  0  0  0
  135.8209   83.9881  225.2374 H   0  0  0  0  0  0  0  0  0  0  0  0
  136.5763   84.1554  222.8652 H   0  0  0  0  0  0  0  0  0  0  0  0
  138.0470   82.4620  221.8974 H   0  0  0  0  0  0  0  0  0  0  0  0
  137.2257   76.9731  222.9350 H   0  0  0  0  0  0  0  0  0  0  0  0
  138.0025   74.7439  222.1821 H   0  0  0  0  0  0  0  0  0  0  0  0
  139.0530   72.8774  222.5802 H   0  0  0  0  0  0  0  0  0  0  0  0
  139.9025   70.6553  221.8205 H   0  0  0  0  0  0  0  0  0  0  0  0
  141.8889   70.6297  220.3227 H   0  0  0  0  0  0  0  0  0  0  0  0
  142.1516   74.8280  220.3555 H   0  0  0  0  0  0  0  0  0  0  0  0
  142.0319   76.1461  221.8321 H   0  0  0  0  0  0  0  0  0  0  0  0
  142.5880   78.1260  222.5680 H   0  0  0  0  0  0  0  0  0  0  0  0
  140.4395   81.7991  222.5180 H   0  0  0  0  0  0  0  0  0  0  0  0
  140.0192   80.6294  221.1989 H   0  0  0  0  0  0  0  0  0  0  0  0
  138.0890   80.3393  225.6011 H   0  0  0  0  0  0  0  0  0  0  0  0
  1  2  3  0
  2  3  1  0
  3  4  2  0
  4  5  1  0
  5  6  2  0
  6  7  1  0
  7  8  1  0
  8  9  2  0
  9 10  1  0
 10 11  2  0
 11 12  1  0
 12 13  2  0
 13 14  1  0
 14 15  2  0
 15 16  1  0
 16 17  2  0
 17 18  1  0
 18 19  2  0
 13 20  1  0
 20 21  2  0
 21 22  1  0
 22 23  1  0
 23 24  2  0
 23 25  1  0
  7 26  2  0
 26  3  1  0
 25  8  1  0
 21 10  1  0
 19 14  1  0
  4 27  1  0
  5 28  1  0
  6 29  1  0
 11 30  1  0
 12 31  1  0
 15 32  1  0
 16 33  1  0
 17 34  1  0
 19 35  1  0
 20 36  1  0
 22 37  1  0
 25 38  1  0
 25 39  1  0
 26 40  1  0
M  END
>  <smiles>  (2) 
N#Cc1cccc(C2=Nc3ccc(-c4cccnc4)cc3NC(=O)C2)c1

>  <score_type>  (2) 
oracle

>  <origin>  (2) 
autodockgpu

>  <m_score__min__energy>  (2) 
-5.5700000000000003

>  <m_primary>  (2) 
energy

>  <meeko>  (2) 
{"free_energy": -5.3, "intermolecular_energy": -7.39, "internal_energy": -0.96, "cluster_size": 10, "cluster_id": 1, "rank_in_cluster": 9}

>  <energy>  (2) 
-5.57

>  <cluster_rmsd>  (2) 
0.53

>  <rmsd>  (2) 
272.35

>  <cluster>  (2) 
1

$$$$

     RDKit          3D

 40 43  0  0  0  0  0  0  0  0999 V2000
  136.0040   81.7010  228.4840 N   0  0  0  0  0  0  0  0  0  0  0  0
  136.2910   81.8040  227.3570 C   0  0  0  0  0  0  0  0  0  0  0  0
  136.6410   81.9250  225.9530 C   0  0  0  0  0  0  0  0  0  0  0  0
  136.0230   82.8950  225.1940 C   0  0  0  0  0  0  0  0  0  0  0  0
  136.3820   82.9790  223.8630 C   0  0  0  0  0  0  0  0  0  0  0  0
  137.3170   82.1300  223.3250 C   0  0  0  0  0  0  0  0  0  0  0  0
  137.9540   81.1400  224.0770 C   0  0  0  0  0  0  0  0  0  0  0  0
  138.9380   80.2790  223.4400 C   0  0  0  0  0  0  0  0  0  0  0  0
  138.5490   79.0350  223.4210 N   0  0  0  0  0  0  0  0  0  0  0  0
  139.1950   77.8890  222.9000 C   0  0  0  0  0  0  0  0  0  0  0  0
  138.3160   76.8710  222.5210 C   0  0  0  0  0  0  0  0  0  0  0  0
  138.8510   75.7050  222.0000 C   0  0  0  0  0  0  0  0  0  0  0  0
  140.2010   75.5150  221.8450 C   0  0  0  0  0  0  0  0  0  0  0  0
  140.7890   74.2940  221.3000 C   0  0  0  0  0  0  0  0  0  0  0  0
  140.3530   73.0360  221.6960 C   0  0  0  0  0  0  0  0  0  0  0  0
  140.9020   71.8720  221.1880 C   0  0  0  0  0  0  0  0  0  0  0  0
  141.9130   72.0280  220.2590 C   0  0  0  0  0  0  0  0  0  0  0  0
  142.3540   73.2220  219.8590 N   0  0  0  0  0  0  0  0  0  0  0  0
  141.8090   74.3460  220.3630 C   0  0  0  0  0  0  0  0  0  0  0  0
  141.0760   76.5120  222.2160 C   0  0  0  0  0  0  0  0  0  0  0  0
  140.5630   77.6770  222.7360 C   0  0  0  0  0  0  0  0  0  0  0  0
  141.5910   78.6090  223.0710 N   0  0  0  0  0  0  0  0  0  0  0  0
  141.3890   80.0130  223.2820 C   0  0  0  0  0  0  0  0  0  0  0  0
  142.3520   80.6270  223.8590 O   0  0  0  0  0  0  0  0  0  0  0  0
  140.1930   80.8530  222.9120 C   0  0  0  0  0  0  0  0  0  0  0  0
  137.5890   81.0670  225.3980 C   0  0  0  0  0  0  0  0  0  0  0  0
  135.2752   83.5738  225.6299 H   0  0  0  0  0  0  0  0  0  0  0  0
  135.9106   83.7393  223.2230 H   0  0  0  0  0  0  0  0  0  0  0  0
  137.5746   82.2333  222.2606 H   0  0  0  0  0  0  0  0  0  0  0  0
  137.2285   76.9926  222.6335 H   0  0  0  0  0  0  0  0  0  0  0  0
  138.1663   74.8987  221.6983 H   0  0  0  0  0  0  0  0  0  0  0  0
  139.5444   72.9628  222.4381 H   0  0  0  0  0  0  0  0  0  0  0  0
  140.5533   70.8783  221.5058 H   0  0  0  0  0  0  0  0  0  0  0  0
  142.3752   71.1268  219.8298 H   0  0  0  0  0  0  0  0  0  0  0  0
  142.1807   75.3243  220.0243 H   0  0  0  0  0  0  0  0  0  0  0  0
  142.1616   76.3791  222.0988 H   0  0  0  0  0  0  0  0  0  0  0  0
  142.5550   78.2430  223.1690 H   0  0  0  0  0  0  0  0  0  0  0  0
  140.3250   81.8634  223.3264 H   0  0  0  0  0  0  0  0  0  0  0  0
  140.1213   80.8834  221.8148 H   0  0  0  0  0  0  0  0  0  0  0  0
  138.0596   80.3072  226.0392 H   0  0  0  0  0  0  0  0  0  0  0  0
  1  2  3  0
  2  3  1  0
  3  4  2  0
  4  5  1  0
  5  6  2  0
  6  7  1  0
  7  8  1  0
  8  9  2  0
  9 10  1  0
 10 11  2  0
 11 12  1  0
 12 13  2  0
 13 14  1  0
 14 15  2  0
 15 16  1  0
 16 17  2  0
 17 18  1  0
 18 19  2  0
 13 20  1  0
 20 21  2  0
 21 22  1  0
 22 23  1  0
 23 24  2  0
 23 25  1  0
  7 26  2  0
 26  3  1  0
 25  8  1  0
 21 10  1  0
 19 14  1  0
  4 27  1  0
  5 28  1  0
  6 29  1  0
 11 30  1  0
 12 31  1  0
 15 32  1  0
 16 33  1  0
 17 34  1  0
 19 35  1  0
 20 36  1  0
 22 37  1  0
 25 38  1  0
 25 39  1  0
 26 40  1  0
M  END
>  <smiles>  (3) 
N#Cc1cccc(C2=Nc3ccc(-c4cccnc4)cc3NC(=O)C2)c1

>  <score_type>  (3) 
oracle

>  <origin>  (3) 
autodockgpu

>  <m_score__min__energy>  (3) 
-5.5700000000000003

>  <m_primary>  (3) 
energy

>  <meeko>  (3) 
{"free_energy": -5.48, "intermolecular_energy": -7.57, "internal_energy": -0.96, "cluster_size": 10, "cluster_id": 1, "rank_in_cluster": 5}

>  <energy>  (3) 
-5.51

>  <cluster_rmsd>  (3) 
0.51

>  <rmsd>  (3) 
272.31

>  <cluster>  (3) 
1

$$$$

     RDKit          3D

 40 43  0  0  0  0  0  0  0  0999 V2000
  147.4410   66.6610  216.4560 N   0  0  0  0  0  0  0  0  0  0  0  0
  146.6080   67.0590  217.1720 C   0  0  0  0  0  0  0  0  0  0  0  0
  145.5690   67.5430  218.0630 C   0  0  0  0  0  0  0  0  0  0  0  0
  144.6530   66.6440  218.5670 C   0  0  0  0  0  0  0  0  0  0  0  0
  143.6790   67.1410  219.4100 C   0  0  0  0  0  0  0  0  0  0  0  0
  143.6310   68.4760  219.7300 C   0  0  0  0  0  0  0  0  0  0  0  0
  144.5490   69.4030  219.2290 C   0  0  0  0  0  0  0  0  0  0  0  0
  144.4380   70.8000  219.6150 C   0  0  0  0  0  0  0  0  0  0  0  0
  143.2010   71.1360  219.8530 N   0  0  0  0  0  0  0  0  0  0  0  0
  142.6600   72.3760  220.2670 C   0  0  0  0  0  0  0  0  0  0  0  0
  141.4620   72.2600  220.9760 C   0  0  0  0  0  0  0  0  0  0  0  0
  140.8510   73.4190  221.4230 C   0  0  0  0  0  0  0  0  0  0  0  0
  141.3750   74.6670  221.1960 C   0  0  0  0  0  0  0  0  0  0  0  0
  140.7490   75.9040  221.6560 C   0  0  0  0  0  0  0  0  0  0  0  0
  141.3370   77.1430  221.4340 C   0  0  0  0  0  0  0  0  0  0  0  0
  140.7550   78.3230  221.8640 C   0  0  0  0  0  0  0  0  0  0  0  0
  139.5500   78.2020  222.5300 C   0  0  0  0  0  0  0  0  0  0  0  0
  138.9600   77.0270  222.7580 N   0  0  0  0  0  0  0  0  0  0  0  0
  139.5400   75.8880  222.3330 C   0  0  0  0  0  0  0  0  0  0  0  0
  142.5560   74.7930  220.4980 C   0  0  0  0  0  0  0  0  0  0  0  0
  143.1770   73.6530  220.0460 C   0  0  0  0  0  0  0  0  0  0  0  0
  144.3840   73.9460  219.3440 N   0  0  0  0  0  0  0  0  0  0  0  0
  145.4280   73.0000  219.0740 C   0  0  0  0  0  0  0  0  0  0  0  0
  146.2800   73.3590  218.1890 O   0  0  0  0  0  0  0  0  0  0  0  0
  145.6470   71.6450  219.6960 C   0  0  0  0  0  0  0  0  0  0  0  0
  145.5110   68.8960  218.3920 C   0  0  0  0  0  0  0  0  0  0  0  0
  144.6964   65.5757  218.3083 H   0  0  0  0  0  0  0  0  0  0  0  0
  142.9288   66.4564  219.8325 H   0  0  0  0  0  0  0  0  0  0  0  0
  142.8391   68.8291  220.4069 H   0  0  0  0  0  0  0  0  0  0  0  0
  141.0161   71.2741  221.1738 H   0  0  0  0  0  0  0  0  0  0  0  0
  139.9076   73.3364  221.9826 H   0  0  0  0  0  0  0  0  0  0  0  0
  142.2970   77.1878  220.8988 H   0  0  0  0  0  0  0  0  0  0  0  0
  141.2249   79.3015  221.6858 H   0  0  0  0  0  0  0  0  0  0  0  0
  139.0545   79.1163  222.8886 H   0  0  0  0  0  0  0  0  0  0  0  0
  139.0439   74.9256  222.5272 H   0  0  0  0  0  0  0  0  0  0  0  0
  142.9926   75.7843  220.3065 H   0  0  0  0  0  0  0  0  0  0  0  0
  144.5160   74.9160  219.0040 H   0  0  0  0  0  0  0  0  0  0  0  0
  146.4697   71.1402  219.1684 H   0  0  0  0  0  0  0  0  0  0  0  0
  145.8892   71.7928  220.7588 H   0  0  0  0  0  0  0  0  0  0  0  0
  146.2606   69.5797  217.9670 H   0  0  0  0  0  0  0  0  0  0  0  0
  1  2  3  0
  2  3  1  0
  3  4  2  0
  4  5  1  0
  5  6  2  0
  6  7  1  0
  7  8  1  0
  8  9  2  0
  9 10  1  0
 10 11  2  0
 11 12  1  0
 12 13  2  0
 13 14  1  0
 14 15  2  0
 15 16  1  0
 16 17  2  0
 17 18  1  0
 18 19  2  0
 13 20  1  0
 20 21  2  0
 21 22  1  0
 22 23  1  0
 23 24  2  0
 23 25  1  0
  7 26  2  0
 26  3  1  0
 25  8  1  0
 21 10  1  0
 19 14  1  0
  4 27  1  0
  5 28  1  0
  6 29  1  0
 11 30  1  0
 12 31  1  0
 15 32  1  0
 16 33  1  0
 17 34  1  0
 19 35  1  0
 20 36  1  0
 22 37  1  0
 25 38  1  0
 25 39  1  0
 26 40  1  0
M  END
>  <smiles>  (4) 
N#Cc1cccc(C2=Nc3ccc(-c4cccnc4)cc3NC(=O)C2)c1

>  <score_type>  (4) 
oracle

>  <origin>  (4) 
autodockgpu

>  <m_score__min__energy>  (4) 
-5.5700000000000003

>  <m_primary>  (4) 
energy

>  <meeko>  (4) 
{"free_energy": -5.38, "intermolecular_energy": -7.47, "internal_energy": -0.97, "cluster_size": 4, "cluster_id": 3, "rank_in_cluster": 2}

>  <energy>  (4) 
-5.51

>  <cluster_rmsd>  (4) 
0.16

>  <rmsd>  (4) 
272.31

>  <cluster>  (4) 
1

$$$$

     RDKit          3D

 40 43  0  0  0  0  0  0  0  0999 V2000
  135.9650   81.7050  228.3910 N   0  0  0  0  0  0  0  0  0  0  0  0
  136.2810   81.8270  227.2730 C   0  0  0  0  0  0  0  0  0  0  0  0
  136.6710   81.9880  225.8840 C   0  0  0  0  0  0  0  0  0  0  0  0
  136.1250   83.0240  225.1560 C   0  0  0  0  0  0  0  0  0  0  0  0
  136.5200   83.1450  223.8380 C   0  0  0  0  0  0  0  0  0  0  0  0
  137.4190   82.2690  223.2830 C   0  0  0  0  0  0  0  0  0  0  0  0
  137.9820   81.2120  224.0040 C   0  0  0  0  0  0  0  0  0  0  0  0
  138.9320   80.3260  223.3490 C   0  0  0  0  0  0  0  0  0  0  0  0
  138.5530   79.0810  223.4170 N   0  0  0  0  0  0  0  0  0  0  0  0
  139.1780   77.9130  222.9210 C   0  0  0  0  0  0  0  0  0  0  0  0
  138.2890   76.8700  222.6500 C   0  0  0  0  0  0  0  0  0  0  0  0
  138.8050   75.6810  222.1610 C   0  0  0  0  0  0  0  0  0  0  0  0
  140.1450   75.4920  221.9380 C   0  0  0  0  0  0  0  0  0  0  0  0
  140.7130   74.2480  221.4250 C   0  0  0  0  0  0  0  0  0  0  0  0
  141.9460   74.2200  220.7860 C   0  0  0  0  0  0  0  0  0  0  0  0
  142.4960   73.0480  220.2950 C   0  0  0  0  0  0  0  0  0  0  0  0
  141.7490   71.9000  220.4780 C   0  0  0  0  0  0  0  0  0  0  0  0
  140.5620   71.8940  221.0880 N   0  0  0  0  0  0  0  0  0  0  0  0
  140.0410   73.0440  221.5590 C   0  0  0  0  0  0  0  0  0  0  0  0
  141.0310   76.5130  222.2030 C   0  0  0  0  0  0  0  0  0  0  0  0
  140.5370   77.7020  222.6880 C   0  0  0  0  0  0  0  0  0  0  0  0
  141.5730   78.6570  222.9120 N   0  0  0  0  0  0  0  0  0  0  0  0
  141.3700   80.0690  223.0580 C   0  0  0  0  0  0  0  0  0  0  0  0
  142.3590   80.7210  223.5430 O   0  0  0  0  0  0  0  0  0  0  0  0
  140.1460   80.8800  222.7160 C   0  0  0  0  0  0  0  0  0  0  0  0
  137.5820   81.1030  225.3110 C   0  0  0  0  0  0  0  0  0  0  0  0
  135.4056   83.7242  225.6057 H   0  0  0  0  0  0  0  0  0  0  0  0
  136.1068   83.9576  223.2224 H   0  0  0  0  0  0  0  0  0  0  0  0
  137.7077   82.4039  222.2302 H   0  0  0  0  0  0  0  0  0  0  0  0
  137.2089   76.9896  222.8202 H   0  0  0  0  0  0  0  0  0  0  0  0
  138.1120   74.8551  221.9427 H   0  0  0  0  0  0  0  0  0  0  0  0
  142.5041   75.1603  220.6660 H   0  0  0  0  0  0  0  0  0  0  0  0
  143.4721   73.0317  219.7881 H   0  0  0  0  0  0  0  0  0  0  0  0
  142.1513   70.9471  220.1036 H   0  0  0  0  0  0  0  0  0  0  0  0
  139.0620   73.0264  222.0602 H   0  0  0  0  0  0  0  0  0  0  0  0
  142.1093   76.3806  222.0307 H   0  0  0  0  0  0  0  0  0  0  0  0
  142.5450   78.3040  222.9720 H   0  0  0  0  0  0  0  0  0  0  0  0
  140.2922   81.9122  223.0670 H   0  0  0  0  0  0  0  0  0  0  0  0
  140.0085   80.8517  221.6250 H   0  0  0  0  0  0  0  0  0  0  0  0
  137.9938   80.2903  225.9274 H   0  0  0  0  0  0  0  0  0  0  0  0
  1  2  3  0
  2  3  1  0
  3  4  2  0
  4  5  1  0
  5  6  2  0
  6  7  1  0
  7  8  1  0
  8  9  2  0
  9 10  1  0
 10 11  2  0
 11 12  1  0
 12 13  2  0
 13 14  1  0
 14 15  2  0
 15 16  1  0
 16 17  2  0
 17 18  1  0
 18 19  2  0
 13 20  1  0
 20 21  2  0
 21 22  1  0
 22 23  1  0
 23 24  2  0
 23 25  1  0
  7 26  2  0
 26  3  1  0
 25  8  1  0
 21 10  1  0
 19 14  1  0
  4 27  1  0
  5 28  1  0
  6 29  1  0
 11 30  1  0
 12 31  1  0
 15 32  1  0
 16 33  1  0
 17 34  1  0
 19 35  1  0
 20 36  1  0
 22 37  1  0
 25 38  1  0
 25 39  1  0
 26 40  1  0
M  END
>  <smiles>  (5) 
N#Cc1cccc(C2=Nc3ccc(-c4cccnc4)cc3NC(=O)C2)c1

>  <score_type>  (5) 
oracle

>  <origin>  (5) 
autodockgpu

>  <m_score__min__energy>  (5) 
-5.5700000000000003

>  <m_primary>  (5) 
energy

>  <meeko>  (5) 
{"free_energy": -5.57, "intermolecular_energy": -7.66, "internal_energy": -0.96, "cluster_size": 10, "cluster_id": 1, "rank_in_cluster": 1}

>  <energy>  (5) 
-5.48

>  <cluster_rmsd>  (5) 
0.55

>  <rmsd>  (5) 
272.3

>  <cluster>  (5) 
1

$$$$

     RDKit          3D

 40 43  0  0  0  0  0  0  0  0999 V2000
  147.4300   66.6910  216.4000 N   0  0  0  0  0  0  0  0  0  0  0  0
  146.5980   67.0920  217.1160 C   0  0  0  0  0  0  0  0  0  0  0  0
  145.5580   67.5910  217.9970 C   0  0  0  0  0  0  0  0  0  0  0  0
  144.6220   66.7070  218.4880 C   0  0  0  0  0  0  0  0  0  0  0  0
  143.6470   67.2180  219.3240 C   0  0  0  0  0  0  0  0  0  0  0  0
  143.6190   68.5520  219.6480 C   0  0  0  0  0  0  0  0  0  0  0  0
  144.5590   69.4640  219.1600 C   0  0  0  0  0  0  0  0  0  0  0  0
  144.4680   70.8620  219.5510 C   0  0  0  0  0  0  0  0  0  0  0  0
  143.2360   71.2180  219.7830 N   0  0  0  0  0  0  0  0  0  0  0  0
  142.7130   72.4660  220.1940 C   0  0  0  0  0  0  0  0  0  0  0  0
  141.5080   72.3690  220.8940 C   0  0  0  0  0  0  0  0  0  0  0  0
  140.9120   73.5370  221.3390 C   0  0  0  0  0  0  0  0  0  0  0  0
  141.4590   74.7760  221.1180 C   0  0  0  0  0  0  0  0  0  0  0  0
  140.8500   76.0230  221.5740 C   0  0  0  0  0  0  0  0  0  0  0  0
  141.4460   77.2550  221.3330 C   0  0  0  0  0  0  0  0  0  0  0  0
  140.8810   78.4440  221.7600 C   0  0  0  0  0  0  0  0  0  0  0  0
  139.6840   78.3400  222.4430 C   0  0  0  0  0  0  0  0  0  0  0  0
  139.0870   77.1720  222.6900 N   0  0  0  0  0  0  0  0  0  0  0  0
  139.6510   76.0240  222.2680 C   0  0  0  0  0  0  0  0  0  0  0  0
  142.6470   74.8840  220.4280 C   0  0  0  0  0  0  0  0  0  0  0  0
  143.2520   73.7340  219.9790 C   0  0  0  0  0  0  0  0  0  0  0  0
  144.4690   74.0080  219.2860 N   0  0  0  0  0  0  0  0  0  0  0  0
  145.4990   73.0460  219.0220 C   0  0  0  0  0  0  0  0  0  0  0  0
  146.3640   73.3910  218.1440 O   0  0  0  0  0  0  0  0  0  0  0  0
  145.6910   71.6860  219.6430 C   0  0  0  0  0  0  0  0  0  0  0  0
  145.5210   68.9440  218.3320 C   0  0  0  0  0  0  0  0  0  0  0  0
  144.6495   65.6391  218.2256 H   0  0  0  0  0  0  0  0  0  0  0  0
  142.8810   66.5449  219.7365 H   0  0  0  0  0  0  0  0  0  0  0  0
  142.8262   68.9170  220.3174 H   0  0  0  0  0  0  0  0  0  0  0  0
  141.0446   71.3902  221.0867 H   0  0  0  0  0  0  0  0  0  0  0  0
  139.9631   73.4690  221.8912 H   0  0  0  0  0  0  0  0  0  0  0  0
  142.3989   77.2862  220.7844 H   0  0  0  0  0  0  0  0  0  0  0  0
  141.3575   79.4164  221.5668 H   0  0  0  0  0  0  0  0  0  0  0  0
  139.2012   79.2619  222.7993 H   0  0  0  0  0  0  0  0  0  0  0  0
  139.1495   75.0679  222.4787 H   0  0  0  0  0  0  0  0  0  0  0  0
  143.1010   75.8683  220.2407 H   0  0  0  0  0  0  0  0  0  0  0  0
  144.6200   74.9760  218.9480 H   0  0  0  0  0  0  0  0  0  0  0  0
  146.5089   71.1684  219.1204 H   0  0  0  0  0  0  0  0  0  0  0  0
  145.9282   71.8273  220.7078 H   0  0  0  0  0  0  0  0  0  0  0  0
  146.2878   69.6159  217.9190 H   0  0  0  0  0  0  0  0  0  0  0  0
  1  2  3  0
  2  3  1  0
  3  4  2  0
  4  5  1  0
  5  6  2  0
  6  7  1  0
  7  8  1  0
  8  9  2  0
  9 10  1  0
 10 11  2  0
 11 12  1  0
 12 13  2  0
 13 14  1  0
 14 15  2  0
 15 16  1  0
 16 17  2  0
 17 18  1  0
 18 19  2  0
 13 20  1  0
 20 21  2  0
 21 22  1  0
 22 23  1  0
 23 24  2  0
 23 25  1  0
  7 26  2  0
 26  3  1  0
 25  8  1  0
 21 10  1  0
 19 14  1  0
  4 27  1  0
  5 28  1  0
  6 29  1  0
 11 30  1  0
 12 31  1  0
 15 32  1  0
 16 33  1  0
 17 34  1  0
 19 35  1  0
 20 36  1  0
 22 37  1  0
 25 38  1  0
 25 39  1  0
 26 40  1  0
M  END
>  <smiles>  (6) 
N#Cc1cccc(C2=Nc3ccc(-c4cccnc4)cc3NC(=O)C2)c1

>  <score_type>  (6) 
oracle

>  <origin>  (6) 
autodockgpu

>  <m_score__min__energy>  (6) 
-5.5700000000000003

>  <m_primary>  (6) 
energy

>  <meeko>  (6) 
{"free_energy": -5.4, "intermolecular_energy": -7.49, "internal_energy": -0.97, "cluster_size": 4, "cluster_id": 3, "rank_in_cluster": 1}

>  <energy>  (6) 
-5.48

>  <cluster_rmsd>  (6) 
0.11

>  <rmsd>  (6) 
272.35

>  <cluster>  (6) 
1

$$$$

     RDKit          3D

 40 43  0  0  0  0  0  0  0  0999 V2000
  136.0840   81.6820  228.4520 N   0  0  0  0  0  0  0  0  0  0  0  0
  136.3950   81.8130  227.3340 C   0  0  0  0  0  0  0  0  0  0  0  0
  136.7810   81.9870  225.9460 C   0  0  0  0  0  0  0  0  0  0  0  0
  136.2360   83.0310  225.2300 C   0  0  0  0  0  0  0  0  0  0  0  0
  136.6270   83.1650  223.9120 C   0  0  0  0  0  0  0  0  0  0  0  0
  137.5210   82.2920  223.3450 C   0  0  0  0  0  0  0  0  0  0  0  0
  138.0840   81.2260  224.0530 C   0  0  0  0  0  0  0  0  0  0  0  0
  139.0300   80.3440  223.3870 C   0  0  0  0  0  0  0  0  0  0  0  0
  138.6570   79.0980  223.4610 N   0  0  0  0  0  0  0  0  0  0  0  0
  139.2810   77.9320  222.9570 C   0  0  0  0  0  0  0  0  0  0  0  0
  138.3940   76.8840  222.6980 C   0  0  0  0  0  0  0  0  0  0  0  0
  138.9080   75.6970  222.2040 C   0  0  0  0  0  0  0  0  0  0  0  0
  140.2460   75.5150  221.9630 C   0  0  0  0  0  0  0  0  0  0  0  0
  140.8140   74.2730  221.4440 C   0  0  0  0  0  0  0  0  0  0  0  0
  142.0490   74.2470  220.8080 C   0  0  0  0  0  0  0  0  0  0  0  0
  142.5980   73.0770  220.3120 C   0  0  0  0  0  0  0  0  0  0  0  0
  141.8480   71.9290  220.4840 C   0  0  0  0  0  0  0  0  0  0  0  0
  140.6590   71.9220  221.0900 N   0  0  0  0  0  0  0  0  0  0  0  0
  140.1380   73.0690  221.5680 C   0  0  0  0  0  0  0  0  0  0  0  0
  141.1310   76.5410  222.2150 C   0  0  0  0  0  0  0  0  0  0  0  0
  140.6370   77.7270  222.7060 C   0  0  0  0  0  0  0  0  0  0  0  0
  141.6720   78.6880  222.9150 N   0  0  0  0  0  0  0  0  0  0  0  0
  141.4640   80.0990  223.0630 C   0  0  0  0  0  0  0  0  0  0  0  0
  142.4560   80.7560  223.5340 O   0  0  0  0  0  0  0  0  0  0  0  0
  140.2330   80.9030  222.7380 C   0  0  0  0  0  0  0  0  0  0  0  0
  137.6880   81.1050  225.3610 C   0  0  0  0  0  0  0  0  0  0  0  0
  135.5196   83.7283  225.6889 H   0  0  0  0  0  0  0  0  0  0  0  0
  136.2146   83.9856  223.3066 H   0  0  0  0  0  0  0  0  0  0  0  0
  137.8058   82.4365  222.2924 H   0  0  0  0  0  0  0  0  0  0  0  0
  137.3156   76.9989  222.8817 H   0  0  0  0  0  0  0  0  0  0  0  0
  138.2161   74.8673  221.9967 H   0  0  0  0  0  0  0  0  0  0  0  0
  142.6089   75.1870  220.6949 H   0  0  0  0  0  0  0  0  0  0  0  0
  143.5763   73.0619  219.8092 H   0  0  0  0  0  0  0  0  0  0  0  0
  142.2493   70.9779  220.1042 H   0  0  0  0  0  0  0  0  0  0  0  0
  139.1575   73.0497  222.0662 H   0  0  0  0  0  0  0  0  0  0  0  0
  142.2075   76.4143  222.0278 H   0  0  0  0  0  0  0  0  0  0  0  0
  142.6460   78.3390  222.9630 H   0  0  0  0  0  0  0  0  0  0  0  0
  140.3792   81.9359  223.0869 H   0  0  0  0  0  0  0  0  0  0  0  0
  140.0810   80.8733  221.6490 H   0  0  0  0  0  0  0  0  0  0  0  0
  138.0998   80.2851  225.9679 H   0  0  0  0  0  0  0  0  0  0  0  0
  1  2  3  0
  2  3  1  0
  3  4  2  0
  4  5  1  0
  5  6  2  0
  6  7  1  0
  7  8  1  0
  8  9  2  0
  9 10  1  0
 10 11  2  0
 11 12  1  0
 12 13  2  0
 13 14  1  0
 14 15  2  0
 15 16  1  0
 16 17  2  0
 17 18  1  0
 18 19  2  0
 13 20  1  0
 20 21  2  0
 21 22  1  0
 22 23  1  0
 23 24  2  0
 23 25  1  0
  7 26  2  0
 26  3  1  0
 25  8  1  0
 21 10  1  0
 19 14  1  0
  4 27  1  0
  5 28  1  0
  6 29  1  0
 11 30  1  0
 12 31  1  0
 15 32  1  0
 16 33  1  0
 17 34  1  0
 19 35  1  0
 20 36  1  0
 22 37  1  0
 25 38  1  0
 25 39  1  0
 26 40  1  0
M  END
>  <smiles>  (7) 
N#Cc1cccc(C2=Nc3ccc(-c4cccnc4)cc3NC(=O)C2)c1

>  <score_type>  (7) 
oracle

>  <origin>  (7) 
autodockgpu

>  <m_score__min__energy>  (7) 
-5.5700000000000003

>  <m_primary>  (7) 
energy

>  <meeko>  (7) 
{"free_energy": -5.48, "intermolecular_energy": -7.56, "internal_energy": -0.96, "cluster_size": 10, "cluster_id": 1, "rank_in_cluster": 6}

>  <energy>  (7) 
-5.45

>  <cluster_rmsd>  (7) 
0.17

>  <rmsd>  (7) 
272.37

>  <cluster>  (7) 
1

$$$$

     RDKit          3D

 40 43  0  0  0  0  0  0  0  0999 V2000
  139.1780   67.7610  225.2540 N   0  0  0  0  0  0  0  0  0  0  0  0
  138.9820   68.5270  224.3950 C   0  0  0  0  0  0  0  0  0  0  0  0
  138.7490   69.4800  223.3240 C   0  0  0  0  0  0  0  0  0  0  0  0
  137.6710   69.2880  222.4860 C   0  0  0  0  0  0  0  0  0  0  0  0
  137.4820   70.2140  221.4790 C   0  0  0  0  0  0  0  0  0  0  0  0
  138.3340   71.2800  221.3260 C   0  0  0  0  0  0  0  0  0  0  0  0
  139.4320   71.4910  222.1640 C   0  0  0  0  0  0  0  0  0  0  0  0
  140.2890   72.6460  221.9430 C   0  0  0  0  0  0  0  0  0  0  0  0
  139.6350   73.7640  222.0870 N   0  0  0  0  0  0  0  0  0  0  0  0
  140.0810   75.1000  221.9580 C   0  0  0  0  0  0  0  0  0  0  0  0
  139.3400   76.0170  222.7080 C   0  0  0  0  0  0  0  0  0  0  0  0
  139.6970   77.3530  222.6480 C   0  0  0  0  0  0  0  0  0  0  0  0
  140.7440   77.8050  221.8840 C   0  0  0  0  0  0  0  0  0  0  0  0
  141.1400   79.2090  221.8030 C   0  0  0  0  0  0  0  0  0  0  0  0
  141.6060   79.8990  222.9150 C   0  0  0  0  0  0  0  0  0  0  0  0
  141.9850   81.2290  222.8520 C   0  0  0  0  0  0  0  0  0  0  0  0
  141.8740   81.8370  221.6160 C   0  0  0  0  0  0  0  0  0  0  0  0
  141.4290   81.2020  220.5300 N   0  0  0  0  0  0  0  0  0  0  0  0
  141.0650   79.9070  220.6080 C   0  0  0  0  0  0  0  0  0  0  0  0
  141.4820   76.9100  221.1410 C   0  0  0  0  0  0  0  0  0  0  0  0
  141.1410   75.5790  221.1890 C   0  0  0  0  0  0  0  0  0  0  0  0
  141.9950   74.7810  220.3690 N   0  0  0  0  0  0  0  0  0  0  0  0
  142.1400   73.3580  220.4760 C   0  0  0  0  0  0  0  0  0  0  0  0
  142.7090   72.7870  219.4820 O   0  0  0  0  0  0  0  0  0  0  0  0
  141.7130   72.4560  221.6030 C   0  0  0  0  0  0  0  0  0  0  0  0
  139.6090   70.5640  223.1600 C   0  0  0  0  0  0  0  0  0  0  0  0
  136.9904   68.4334  222.6141 H   0  0  0  0  0  0  0  0  0  0  0  0
  136.6346   70.0956  220.7877 H   0  0  0  0  0  0  0  0  0  0  0  0
  138.1448   71.9955  220.5122 H   0  0  0  0  0  0  0  0  0  0  0  0
  138.4951   75.6859  223.3298 H   0  0  0  0  0  0  0  0  0  0  0  0
  139.1189   78.0812  223.2357 H   0  0  0  0  0  0  0  0  0  0  0  0
  141.6762   79.3711  223.8775 H   0  0  0  0  0  0  0  0  0  0  0  0
  142.3535   81.7709  223.7355 H   0  0  0  0  0  0  0  0  0  0  0  0
  142.1660   82.8934  221.5231 H   0  0  0  0  0  0  0  0  0  0  0  0
  140.7012   79.3938  219.7056 H   0  0  0  0  0  0  0  0  0  0  0  0
  142.3252   77.2526  220.5232 H   0  0  0  0  0  0  0  0  0  0  0  0
  142.5520   75.2670  219.6430 H   0  0  0  0  0  0  0  0  0  0  0  0
  141.8715   71.4098  221.3023 H   0  0  0  0  0  0  0  0  0  0  0  0
  142.3142   72.7059  222.4896 H   0  0  0  0  0  0  0  0  0  0  0  0
  140.4569   70.6803  223.8511 H   0  0  0  0  0  0  0  0  0  0  0  0
  1  2  3  0
  2  3  1  0
  3  4  2  0
  4  5  1  0
  5  6  2  0
  6  7  1  0
  7  8  1  0
  8  9  2  0
  9 10  1  0
 10 11  2  0
 11 12  1  0
 12 13  2  0
 13 14  1  0
 14 15  2  0
 15 16  1  0
 16 17  2  0
 17 18  1  0
 18 19  2  0
 13 20  1  0
 20 21  2  0
 21 22  1  0
 22 23  1  0
 23 24  2  0
 23 25  1  0
  7 26  2  0
 26  3  1  0
 25  8  1  0
 21 10  1  0
 19 14  1  0
  4 27  1  0
  5 28  1  0
  6 29  1  0
 11 30  1  0
 12 31  1  0
 15 32  1  0
 16 33  1  0
 17 34  1  0
 19 35  1  0
 20 36  1  0
 22 37  1  0
 25 38  1  0
 25 39  1  0
 26 40  1  0
M  END
>  <smiles>  (8) 
N#Cc1cccc(C2=Nc3ccc(-c4cccnc4)cc3NC(=O)C2)c1

>  <score_type>  (8) 
oracle

>  <origin>  (8) 
autodockgpu

>  <m_score__min__energy>  (8) 
-5.5700000000000003

>  <m_primary>  (8) 
energy

>  <meeko>  (8) 
{"free_energy": -5.0, "intermolecular_energy": -7.09, "internal_energy": -0.96, "cluster_size": 5, "cluster_id": 2, "rank_in_cluster": 4}

>  <energy>  (8) 
-5.35

>  <cluster_rmsd>  (8) 
0.18

>  <rmsd>  (8) 
272.17

>  <cluster>  (8) 
1

$$$$

     RDKit          3D

 40 43  0  0  0  0  0  0  0  0999 V2000
  141.0280   71.0440  228.0310 N   0  0  0  0  0  0  0  0  0  0  0  0
  140.6340   70.9880  226.9330 C   0  0  0  0  0  0  0  0  0  0  0  0
  140.1500   70.9260  225.5660 C   0  0  0  0  0  0  0  0  0  0  0  0
  139.1190   70.0630  225.2630 C   0  0  0  0  0  0  0  0  0  0  0  0
  138.6860   70.0310  223.9520 C   0  0  0  0  0  0  0  0  0  0  0  0
  139.2620   70.8290  222.9950 C   0  0  0  0  0  0  0  0  0  0  0  0
  140.3100   71.7100  223.2810 C   0  0  0  0  0  0  0  0  0  0  0  0
  140.8680   72.5280  222.2160 C   0  0  0  0  0  0  0  0  0  0  0  0
  140.4900   73.7710  222.3160 N   0  0  0  0  0  0  0  0  0  0  0  0
  140.8040   74.8840  221.5020 C   0  0  0  0  0  0  0  0  0  0  0  0
  140.7400   76.1090  222.1710 C   0  0  0  0  0  0  0  0  0  0  0  0
  141.0290   77.2610  221.4590 C   0  0  0  0  0  0  0  0  0  0  0  0
  141.3720   77.2430  220.1310 C   0  0  0  0  0  0  0  0  0  0  0  0
  141.6800   78.4430  219.3580 C   0  0  0  0  0  0  0  0  0  0  0  0
  141.8770   79.6740  219.9720 C   0  0  0  0  0  0  0  0  0  0  0  0
  142.1690   80.8190  219.2510 C   0  0  0  0  0  0  0  0  0  0  0  0
  142.2550   80.6720  217.8800 C   0  0  0  0  0  0  0  0  0  0  0  0
  142.0710   79.5040  217.2610 N   0  0  0  0  0  0  0  0  0  0  0  0
  141.7870   78.3980  217.9770 C   0  0  0  0  0  0  0  0  0  0  0  0
  141.4380   76.0410  219.4600 C   0  0  0  0  0  0  0  0  0  0  0  0
  141.1550   74.8860  220.1520 C   0  0  0  0  0  0  0  0  0  0  0  0
  141.2650   73.7290  219.3240 N   0  0  0  0  0  0  0  0  0  0  0  0
  141.3940   72.3840  219.8060 C   0  0  0  0  0  0  0  0  0  0  0  0
  141.1820   71.4660  218.9400 O   0  0  0  0  0  0  0  0  0  0  0  0
  141.7460   71.9170  221.1970 C   0  0  0  0  0  0  0  0  0  0  0  0
  140.7300   71.7320  224.5870 C   0  0  0  0  0  0  0  0  0  0  0  0
  138.6600   69.4261  226.0335 H   0  0  0  0  0  0  0  0  0  0  0  0
  137.8657   69.3546  223.6699 H   0  0  0  0  0  0  0  0  0  0  0  0
  138.8847   70.7734  221.9632 H   0  0  0  0  0  0  0  0  0  0  0  0
  140.4672   76.1570  223.2355 H   0  0  0  0  0  0  0  0  0  0  0  0
  140.9816   78.2291  221.9791 H   0  0  0  0  0  0  0  0  0  0  0  0
  141.7983   79.7407  221.0671 H   0  0  0  0  0  0  0  0  0  0  0  0
  142.3238   81.7911  219.7420 H   0  0  0  0  0  0  0  0  0  0  0  0
  142.4857   81.5582  217.2706 H   0  0  0  0  0  0  0  0  0  0  0  0
  141.6373   77.4413  217.4552 H   0  0  0  0  0  0  0  0  0  0  0  0
  141.7109   76.0058  218.3950 H   0  0  0  0  0  0  0  0  0  0  0  0
  141.2530   73.8720  218.2980 H   0  0  0  0  0  0  0  0  0  0  0  0
  141.6392   70.8232  221.2437 H   0  0  0  0  0  0  0  0  0  0  0  0
  142.7817   72.2209  221.4094 H   0  0  0  0  0  0  0  0  0  0  0  0
  141.5507   72.4072  224.8709 H   0  0  0  0  0  0  0  0  0  0  0  0
  1  2  3  0
  2  3  1  0
  3  4  2  0
  4  5  1  0
  5  6  2  0
  6  7  1  0
  7  8  1  0
  8  9  2  0
  9 10  1  0
 10 11  2  0
 11 12  1  0
 12 13  2  0
 13 14  1  0
 14 15  2  0
 15 16  1  0
 16 17  2  0
 17 18  1  0
 18 19  2  0
 13 20  1  0
 20 21  2  0
 21 22  1  0
 22 23  1  0
 23 24  2  0
 23 25  1  0
  7 26  2  0
 26  3  1  0
 25  8  1  0
 21 10  1  0
 19 14  1  0
  4 27  1  0
  5 28  1  0
  6 29  1  0
 11 30  1  0
 12 31  1  0
 15 32  1  0
 16 33  1  0
 17 34  1  0
 19 35  1  0
 20 36  1  0
 22 37  1  0
 25 38  1  0
 25 39  1  0
 26 40  1  0
M  END
>  <smiles>  (9) 
N#Cc1cccc(C2=Nc3ccc(-c4cccnc4)cc3NC(=O)C2)c1

>  <score_type>  (9) 
oracle

>  <origin>  (9) 
autodockgpu

>  <m_score__min__energy>  (9) 
-5.5700000000000003

>  <m_primary>  (9) 
energy

>  <meeko>  (9) 
{"free_energy": -5.2, "intermolecular_energy": -7.29, "internal_energy": -0.96, "cluster_size": 5, "cluster_id": 2, "rank_in_cluster": 3}

>  <energy>  (9) 
-5.3

>  <cluster_rmsd>  (9) 
0.6

>  <rmsd>  (9) 
272.11

>  <cluster>  (9) 
1

$$$$

     RDKit          3D

 40 43  0  0  0  0  0  0  0  0999 V2000
  136.0730   81.6910  228.4280 N   0  0  0  0  0  0  0  0  0  0  0  0
  136.3950   81.8240  227.3140 C   0  0  0  0  0  0  0  0  0  0  0  0
  136.7860   81.9930  225.9250 C   0  0  0  0  0  0  0  0  0  0  0  0
  136.2420   83.0340  225.2040 C   0  0  0  0  0  0  0  0  0  0  0  0
  136.6380   83.1630  223.8870 C   0  0  0  0  0  0  0  0  0  0  0  0
  137.5360   82.2890  223.3260 C   0  0  0  0  0  0  0  0  0  0  0  0
  138.0980   81.2280  224.0410 C   0  0  0  0  0  0  0  0  0  0  0  0
  139.0470   80.3440  223.3820 C   0  0  0  0  0  0  0  0  0  0  0  0
  138.6680   79.0990  223.4450 N   0  0  0  0  0  0  0  0  0  0  0  0
  139.2920   77.9330  222.9410 C   0  0  0  0  0  0  0  0  0  0  0  0
  138.4020   76.8920  222.6660 C   0  0  0  0  0  0  0  0  0  0  0  0
  138.9150   75.7060  222.1700 C   0  0  0  0  0  0  0  0  0  0  0  0
  140.2550   75.5170  221.9420 C   0  0  0  0  0  0  0  0  0  0  0  0
  140.8210   74.2760  221.4210 C   0  0  0  0  0  0  0  0  0  0  0  0
  140.4510   73.0370  221.9310 C   0  0  0  0  0  0  0  0  0  0  0  0
  140.9800   71.8530  221.4470 C   0  0  0  0  0  0  0  0  0  0  0  0
  141.9010   71.9690  220.4230 C   0  0  0  0  0  0  0  0  0  0  0  0
  142.2760   73.1440  219.9120 N   0  0  0  0  0  0  0  0  0  0  0  0
  141.7520   74.2870  220.3950 C   0  0  0  0  0  0  0  0  0  0  0  0
  141.1420   76.5370  222.2100 C   0  0  0  0  0  0  0  0  0  0  0  0
  140.6490   77.7230  222.7030 C   0  0  0  0  0  0  0  0  0  0  0  0
  141.6870   78.6770  222.9290 N   0  0  0  0  0  0  0  0  0  0  0  0
  141.4840   80.0880  223.0840 C   0  0  0  0  0  0  0  0  0  0  0  0
  142.4750   80.7370  223.5700 O   0  0  0  0  0  0  0  0  0  0  0  0
  140.2600   80.9010  222.7490 C   0  0  0  0  0  0  0  0  0  0  0  0
  137.6970   81.1110  225.3480 C   0  0  0  0  0  0  0  0  0  0  0  0
  135.5233   83.7322  225.6579 H   0  0  0  0  0  0  0  0  0  0  0  0
  136.2266   83.9805  223.2768 H   0  0  0  0  0  0  0  0  0  0  0  0
  137.8240   82.4293  222.2737 H   0  0  0  0  0  0  0  0  0  0  0  0
  137.3223   77.0116  222.8390 H   0  0  0  0  0  0  0  0  0  0  0  0
  138.2207   74.8818  221.9497 H   0  0  0  0  0  0  0  0  0  0  0  0
  139.7135   72.9961  222.7461 H   0  0  0  0  0  0  0  0  0  0  0  0
  140.6841   70.8750  221.8543 H   0  0  0  0  0  0  0  0  0  0  0  0
  142.3453   71.0513  220.0102 H   0  0  0  0  0  0  0  0  0  0  0  0
  142.0697   75.2488  219.9661 H   0  0  0  0  0  0  0  0  0  0  0  0
  142.2198   76.4059  222.0337 H   0  0  0  0  0  0  0  0  0  0  0  0
  142.6580   78.3230  222.9850 H   0  0  0  0  0  0  0  0  0  0  0  0
  140.4074   81.9313  223.1050 H   0  0  0  0  0  0  0  0  0  0  0  0
  140.1200   80.8785  221.6582 H   0  0  0  0  0  0  0  0  0  0  0  0
  138.1081   80.2945  225.9599 H   0  0  0  0  0  0  0  0  0  0  0  0
  1  2  3  0
  2  3  1  0
  3  4  2  0
  4  5  1  0
  5  6  2  0
  6  7  1  0
  7  8  1  0
  8  9  2  0
  9 10  1  0
 10 11  2  0
 11 12  1  0
 12 13  2  0
 13 14  1  0
 14 15  2  0
 15 16  1  0
 16 17  2  0
 17 18  1  0
 18 19  2  0
 13 20  1  0
 20 21  2  0
 21 22  1  0
 22 23  1  0
 23 24  2  0
 23 25  1  0
  7 26  2  0
 26  3  1  0
 25  8  1  0
 21 10  1  0
 19 14  1  0
  4 27  1  0
  5 28  1  0
  6 29  1  0
 11 30  1  0
 12 31  1  0
 15 32  1  0
 16 33  1  0
 17 34  1  0
 19 35  1  0
 20 36  1  0
 22 37  1  0
 25 38  1  0
 25 39  1  0
 26 40  1  0
M  END
>  <smiles>  (10) 
N#Cc1cccc(C2=Nc3ccc(-c4cccnc4)cc3NC(=O)C2)c1

>  <score_type>  (10) 
oracle

>  <origin>  (10) 
autodockgpu

>  <m_score__min__energy>  (10) 
-5.5700000000000003

>  <m_primary>  (10) 
energy

>  <meeko>  (10) 
{"free_energy": -5.57, "intermolecular_energy": -7.65, "internal_energy": -0.96, "cluster_size": 10, "cluster_id": 1, "rank_in_cluster": 2}

>  <energy>  (10) 
-5.25

>  <cluster_rmsd>  (10) 
0.1

>  <rmsd>  (10) 
272.29

>  <cluster>  (10) 
1

$$$$

     RDKit          3D

 40 43  0  0  0  0  0  0  0  0999 V2000
  141.0140   71.2080  227.9290 N   0  0  0  0  0  0  0  0  0  0  0  0
  140.6240   71.1160  226.8320 C   0  0  0  0  0  0  0  0  0  0  0  0
  140.1510   71.0020  225.4640 C   0  0  0  0  0  0  0  0  0  0  0  0
  139.1970   70.0520  225.1680 C   0  0  0  0  0  0  0  0  0  0  0  0
  138.7700   69.9740  223.8560 C   0  0  0  0  0  0  0  0  0  0  0  0
  139.2780   70.8100  222.8940 C   0  0  0  0  0  0  0  0  0  0  0  0
  140.2460   71.7790  223.1740 C   0  0  0  0  0  0  0  0  0  0  0  0
  140.7350   72.6330  222.1030 C   0  0  0  0  0  0  0  0  0  0  0  0
  140.4710   73.8890  222.3310 N   0  0  0  0  0  0  0  0  0  0  0  0
  140.7710   75.0360  221.5580 C   0  0  0  0  0  0  0  0  0  0  0  0
  140.8850   76.2080  222.3100 C   0  0  0  0  0  0  0  0  0  0  0  0
  141.1760   77.3870  221.6440 C   0  0  0  0  0  0  0  0  0  0  0  0
  141.3530   77.4440  220.2850 C   0  0  0  0  0  0  0  0  0  0  0  0
  141.6580   78.6740  219.5590 C   0  0  0  0  0  0  0  0  0  0  0  0
  142.0990   78.6520  218.2410 C   0  0  0  0  0  0  0  0  0  0  0  0
  142.3920   79.8100  217.5420 C   0  0  0  0  0  0  0  0  0  0  0  0
  142.2210   80.9970  218.2280 C   0  0  0  0  0  0  0  0  0  0  0  0
  141.7990   81.0520  219.4930 N   0  0  0  0  0  0  0  0  0  0  0  0
  141.5180   79.9150  220.1600 C   0  0  0  0  0  0  0  0  0  0  0  0
  141.2430   76.2940  219.5340 C   0  0  0  0  0  0  0  0  0  0  0  0
  140.9550   75.1140  220.1780 C   0  0  0  0  0  0  0  0  0  0  0  0
  140.8730   74.0170  219.2690 N   0  0  0  0  0  0  0  0  0  0  0  0
  140.9530   72.6340  219.6420 C   0  0  0  0  0  0  0  0  0  0  0  0
  140.5660   71.8010  218.7510 O   0  0  0  0  0  0  0  0  0  0  0  0
  141.4320   72.0410  220.9430 C   0  0  0  0  0  0  0  0  0  0  0  0
  140.6610   71.8470  224.4800 C   0  0  0  0  0  0  0  0  0  0  0  0
  138.7928   69.3844  225.9432 H   0  0  0  0  0  0  0  0  0  0  0  0
  138.0099   69.2290  223.5782 H   0  0  0  0  0  0  0  0  0  0  0  0
  138.9092   70.7141  221.8621 H   0  0  0  0  0  0  0  0  0  0  0  0
  140.7474   76.1947  223.4013 H   0  0  0  0  0  0  0  0  0  0  0  0
  141.2689   78.3145  222.2281 H   0  0  0  0  0  0  0  0  0  0  0  0
  142.2191   77.6818  217.7367 H   0  0  0  0  0  0  0  0  0  0  0  0
  142.7413   79.7866  216.4992 H   0  0  0  0  0  0  0  0  0  0  0  0
  142.4429   81.9403  217.7075 H   0  0  0  0  0  0  0  0  0  0  0  0
  141.1707   79.9732  221.2021 H   0  0  0  0  0  0  0  0  0  0  0  0
  141.3825   76.3195  218.4432 H   0  0  0  0  0  0  0  0  0  0  0  0
  140.7480   74.2360  218.2640 H   0  0  0  0  0  0  0  0  0  0  0  0
  141.2458   70.9569  220.9305 H   0  0  0  0  0  0  0  0  0  0  0  0
  142.5063   72.2555  221.0425 H   0  0  0  0  0  0  0  0  0  0  0  0
  141.4204   72.5922  224.7593 H   0  0  0  0  0  0  0  0  0  0  0  0
  1  2  3  0
  2  3  1  0
  3  4  2  0
  4  5  1  0
  5  6  2  0
  6  7  1  0
  7  8  1  0
  8  9  2  0
  9 10  1  0
 10 11  2  0
 11 12  1  0
 12 13  2  0
 13 14  1  0
 14 15  2  0
 15 16  1  0
 16 17  2  0
 17 18  1  0
 18 19  2  0
 13 20  1  0
 20 21  2  0
 21 22  1  0
 22 23  1  0
 23 24  2  0
 23 25  1  0
  7 26  2  0
 26  3  1  0
 25  8  1  0
 21 10  1  0
 19 14  1  0
  4 27  1  0
  5 28  1  0
  6 29  1  0
 11 30  1  0
 12 31  1  0
 15 32  1  0
 16 33  1  0
 17 34  1  0
 19 35  1  0
 20 36  1  0
 22 37  1  0
 25 38  1  0
 25 39  1  0
 26 40  1  0
M  END
>  <smiles>  (11) 
N#Cc1cccc(C2=Nc3ccc(-c4cccnc4)cc3NC(=O)C2)c1

>  <score_type>  (11) 
oracle

>  <origin>  (11) 
autodockgpu

>  <m_score__min__energy>  (11) 
-5.5700000000000003

>  <m_primary>  (11) 
energy

>  <meeko>  (11) 
{"free_energy": -5.4, "intermolecular_energy": -7.49, "internal_energy": -0.96, "cluster_size": 5, "cluster_id": 2, "rank_in_cluster": 1}

>  <energy>  (11) 
-5.4

>  <cluster_rmsd>  (11) 
0.0

>  <rmsd>  (11) 
270.43

>  <cluster>  (11) 
2

$$$$

     RDKit          3D

 40 43  0  0  0  0  0  0  0  0999 V2000
  140.7420   71.1100  227.9920 N   0  0  0  0  0  0  0  0  0  0  0  0
  140.4350   71.0450  226.8670 C   0  0  0  0  0  0  0  0  0  0  0  0
  140.0610   70.9570  225.4670 C   0  0  0  0  0  0  0  0  0  0  0  0
  139.1190   70.0240  225.0880 C   0  0  0  0  0  0  0  0  0  0  0  0
  138.7890   69.9700  223.7470 C   0  0  0  0  0  0  0  0  0  0  0  0
  139.3750   70.8140  222.8370 C   0  0  0  0  0  0  0  0  0  0  0  0
  140.3320   71.7660  223.2010 C   0  0  0  0  0  0  0  0  0  0  0  0
  140.9070   72.6280  222.1810 C   0  0  0  0  0  0  0  0  0  0  0  0
  140.5320   73.8670  222.3330 N   0  0  0  0  0  0  0  0  0  0  0  0
  140.8570   75.0140  221.5710 C   0  0  0  0  0  0  0  0  0  0  0  0
  140.7880   76.2090  222.2930 C   0  0  0  0  0  0  0  0  0  0  0  0
  141.0870   77.3900  221.6350 C   0  0  0  0  0  0  0  0  0  0  0  0
  141.4450   77.4290  220.3120 C   0  0  0  0  0  0  0  0  0  0  0  0
  141.7640   78.6610  219.5950 C   0  0  0  0  0  0  0  0  0  0  0  0
  141.5650   79.9100  220.1710 C   0  0  0  0  0  0  0  0  0  0  0  0
  141.8620   81.0860  219.5030 C   0  0  0  0  0  0  0  0  0  0  0  0
  142.3720   80.9500  218.2250 C   0  0  0  0  0  0  0  0  0  0  0  0
  142.5740   79.7650  217.6460 N   0  0  0  0  0  0  0  0  0  0  0  0
  142.2790   78.6300  218.3090 C   0  0  0  0  0  0  0  0  0  0  0  0
  141.5170   76.2570  219.5900 C   0  0  0  0  0  0  0  0  0  0  0  0
  141.2240   75.0750  220.2270 C   0  0  0  0  0  0  0  0  0  0  0  0
  141.3420   73.9540  219.3510 N   0  0  0  0  0  0  0  0  0  0  0  0
  141.4610   72.5890  219.7750 C   0  0  0  0  0  0  0  0  0  0  0  0
  141.2570   71.7110  218.8670 O   0  0  0  0  0  0  0  0  0  0  0  0
  141.7960   72.0610  221.1470 C   0  0  0  0  0  0  0  0  0  0  0  0
  140.6510   71.8090  224.5350 C   0  0  0  0  0  0  0  0  0  0  0  0
  138.6503   69.3515  225.8216 H   0  0  0  0  0  0  0  0  0  0  0  0
  138.0437   69.2378  223.4030 H   0  0  0  0  0  0  0  0  0  0  0  0
  139.0802   70.7384  221.7800 H   0  0  0  0  0  0  0  0  0  0  0  0
  140.5037   76.2111  223.3556 H   0  0  0  0  0  0  0  0  0  0  0  0
  141.0353   78.3347  222.1961 H   0  0  0  0  0  0  0  0  0  0  0  0
  141.1581   79.9663  221.1914 H   0  0  0  0  0  0  0  0  0  0  0  0
  141.7014   82.0723  219.9629 H   0  0  0  0  0  0  0  0  0  0  0  0
  142.6225   81.8600  217.6600 H   0  0  0  0  0  0  0  0  0  0  0  0
  142.4503   77.6597  217.8199 H   0  0  0  0  0  0  0  0  0  0  0  0
  141.8026   76.2676  218.5278 H   0  0  0  0  0  0  0  0  0  0  0  0
  141.3420   74.1410  218.3320 H   0  0  0  0  0  0  0  0  0  0  0  0
  141.6874   70.9664  221.1443 H   0  0  0  0  0  0  0  0  0  0  0  0
  142.8295   72.3533  221.3847 H   0  0  0  0  0  0  0  0  0  0  0  0
  141.3970   72.5400  224.8802 H   0  0  0  0  0  0  0  0  0  0  0  0
  1  2  3  0
  2  3  1  0
  3  4  2  0
  4  5  1  0
  5  6  2  0
  6  7  1  0
  7  8  1  0
  8  9  2  0
  9 10  1  0
 10 11  2  0
 11 12  1  0
 12 13  2  0
 13 14  1  0
 14 15  2  0
 15 16  1  0
 16 17  2  0
 17 18  1  0
 18 19  2  0
 13 20  1  0
 20 21  2  0
 21 22  1  0
 22 23  1  0
 23 24  2  0
 23 25  1  0
  7 26  2  0
 26  3  1  0
 25  8  1  0
 21 10  1  0
 19 14  1  0
  4 27  1  0
  5 28  1  0
  6 29  1  0
 11 30  1  0
 12 31  1  0
 15 32  1  0
 16 33  1  0
 17 34  1  0
 19 35  1  0
 20 36  1  0
 22 37  1  0
 25 38  1  0
 25 39  1  0
 26 40  1  0
M  END
>  <smiles>  (12) 
N#Cc1cccc(C2=Nc3ccc(-c4cccnc4)cc3NC(=O)C2)c1

>  <score_type>  (12) 
oracle

>  <origin>  (12) 
autodockgpu

>  <m_score__min__energy>  (12) 
-5.5700000000000003

>  <m_primary>  (12) 
energy

>  <meeko>  (12) 
{"free_energy": -5.29, "intermolecular_energy": -7.38, "internal_energy": -0.96, "cluster_size": 5, "cluster_id": 2, "rank_in_cluster": 2}

>  <energy>  (12) 
-5.29

>  <cluster_rmsd>  (12) 
0.59

>  <rmsd>  (12) 
270.54

>  <cluster>  (12) 
2

$$$$

     RDKit          3D

 40 43  0  0  0  0  0  0  0  0999 V2000
  147.5040   66.6600  216.3970 N   0  0  0  0  0  0  0  0  0  0  0  0
  146.6610   67.0430  217.1070 C   0  0  0  0  0  0  0  0  0  0  0  0
  145.6110   67.5110  217.9950 C   0  0  0  0  0  0  0  0  0  0  0  0
  144.6960   66.6010  218.4790 C   0  0  0  0  0  0  0  0  0  0  0  0
  143.7120   67.0820  219.3210 C   0  0  0  0  0  0  0  0  0  0  0  0
  143.6550   68.4110  219.6590 C   0  0  0  0  0  0  0  0  0  0  0  0
  144.5730   69.3490  219.1790 C   0  0  0  0  0  0  0  0  0  0  0  0
  144.4530   70.7410  219.5840 C   0  0  0  0  0  0  0  0  0  0  0  0
  143.2180   71.0560  219.8570 N   0  0  0  0  0  0  0  0  0  0  0  0
  142.6660   72.2930  220.2660 C   0  0  0  0  0  0  0  0  0  0  0  0
  141.4840   72.1670  221.0010 C   0  0  0  0  0  0  0  0  0  0  0  0
  140.8640   73.3220  221.4470 C   0  0  0  0  0  0  0  0  0  0  0  0
  141.3630   74.5750  221.1940 C   0  0  0  0  0  0  0  0  0  0  0  0
  140.7270   75.8080  221.6510 C   0  0  0  0  0  0  0  0  0  0  0  0
  139.4260   75.8170  222.1400 C   0  0  0  0  0  0  0  0  0  0  0  0
  138.8120   76.9780  222.5760 C   0  0  0  0  0  0  0  0  0  0  0  0
  139.5660   78.1340  222.5000 C   0  0  0  0  0  0  0  0  0  0  0  0
  140.8170   78.1570  222.0360 N   0  0  0  0  0  0  0  0  0  0  0  0
  141.4010   77.0180  221.6150 C   0  0  0  0  0  0  0  0  0  0  0  0
  142.5270   74.7110  220.4700 C   0  0  0  0  0  0  0  0  0  0  0  0
  143.1570   73.5740  220.0200 C   0  0  0  0  0  0  0  0  0  0  0  0
  144.3450   73.8780  219.2890 N   0  0  0  0  0  0  0  0  0  0  0  0
  145.3980   72.9450  219.0100 C   0  0  0  0  0  0  0  0  0  0  0  0
  146.2270   73.3060  218.1030 O   0  0  0  0  0  0  0  0  0  0  0  0
  145.6520   71.6010  219.6430 C   0  0  0  0  0  0  0  0  0  0  0  0
  145.5450   68.8580  218.3440 C   0  0  0  0  0  0  0  0  0  0  0  0
  144.7471   65.5365  218.2064 H   0  0  0  0  0  0  0  0  0  0  0  0
  142.9615   66.3881  219.7274 H   0  0  0  0  0  0  0  0  0  0  0  0
  142.8557   68.7510  220.3339 H   0  0  0  0  0  0  0  0  0  0  0  0
  141.0576   71.1768  221.2194 H   0  0  0  0  0  0  0  0  0  0  0  0
  139.9340   73.2315  222.0275 H   0  0  0  0  0  0  0  0  0  0  0  0
  138.8664   74.8709  222.1818 H   0  0  0  0  0  0  0  0  0  0  0  0
  137.7817   76.9808  222.9614 H   0  0  0  0  0  0  0  0  0  0  0  0
  139.1141   79.0784  222.8375 H   0  0  0  0  0  0  0  0  0  0  0  0
  142.4329   77.0494  221.2354 H   0  0  0  0  0  0  0  0  0  0  0  0
  142.9434   75.7065  220.2565 H   0  0  0  0  0  0  0  0  0  0  0  0
  144.4550   74.8450  218.9340 H   0  0  0  0  0  0  0  0  0  0  0  0
  146.4753   71.1040  219.1090 H   0  0  0  0  0  0  0  0  0  0  0  0
  145.9114   71.7603  220.7000 H   0  0  0  0  0  0  0  0  0  0  0  0
  146.2965   69.5506  217.9370 H   0  0  0  0  0  0  0  0  0  0  0  0
  1  2  3  0
  2  3  1  0
  3  4  2  0
  4  5  1  0
  5  6  2  0
  6  7  1  0
  7  8  1  0
  8  9  2  0
  9 10  1  0
 10 11  2  0
 11 12  1  0
 12 13  2  0
 13 14  1  0
 14 15  2  0
 15 16  1  0
 16 17  2  0
 17 18  1  0
 18 19  2  0
 13 20  1  0
 20 21  2  0
 21 22  1  0
 22 23  1  0
 23 24  2  0
 23 25  1  0
  7 26  2  0
 26  3  1  0
 25  8  1  0
 21 10  1  0
 19 14  1  0
  4 27  1  0
  5 28  1  0
  6 29  1  0
 11 30  1  0
 12 31  1  0
 15 32  1  0
 16 33  1  0
 17 34  1  0
 19 35  1  0
 20 36  1  0
 22 37  1  0
 25 38  1  0
 25 39  1  0
 26 40  1  0
M  END
>  <smiles>  (13) 
N#Cc1cccc(C2=Nc3ccc(-c4cccnc4)cc3NC(=O)C2)c1

>  <score_type>  (13) 
oracle

>  <origin>  (13) 
autodockgpu

>  <m_score__min__energy>  (13) 
-5.5700000000000003

>  <m_primary>  (13) 
energy

>  <meeko>  (13) 
{"free_energy": -5.24, "intermolecular_energy": -7.32, "internal_energy": -0.97, "cluster_size": 4, "cluster_id": 3, "rank_in_cluster": 4}

>  <energy>  (13) 
-5.2

>  <cluster_rmsd>  (13) 
0.64

>  <rmsd>  (13) 
270.44

>  <cluster>  (13) 
2

$$$$

     RDKit          3D

 40 43  0  0  0  0  0  0  0  0999 V2000
  141.0440   71.4100  227.8680 N   0  0  0  0  0  0  0  0  0  0  0  0
  140.6430   71.2340  226.7860 C   0  0  0  0  0  0  0  0  0  0  0  0
  140.1360   71.0210  225.4420 C   0  0  0  0  0  0  0  0  0  0  0  0
  139.2690   69.9740  225.2170 C   0  0  0  0  0  0  0  0  0  0  0  0
  138.8080   69.8020  223.9260 C   0  0  0  0  0  0  0  0  0  0  0  0
  139.1990   70.6440  222.9150 C   0  0  0  0  0  0  0  0  0  0  0  0
  140.0770   71.7120  223.1230 C   0  0  0  0  0  0  0  0  0  0  0  0
  140.4440   72.5650  222.0030 C   0  0  0  0  0  0  0  0  0  0  0  0
  140.3320   73.8270  222.3050 N   0  0  0  0  0  0  0  0  0  0  0  0
  140.6210   74.9760  221.5300 C   0  0  0  0  0  0  0  0  0  0  0  0
  140.9680   76.0960  222.2890 C   0  0  0  0  0  0  0  0  0  0  0  0
  141.2670   77.2720  221.6220 C   0  0  0  0  0  0  0  0  0  0  0  0
  141.2340   77.3760  220.2550 C   0  0  0  0  0  0  0  0  0  0  0  0
  141.5430   78.6040  219.5280 C   0  0  0  0  0  0  0  0  0  0  0  0
  142.2110   78.5810  218.3100 C   0  0  0  0  0  0  0  0  0  0  0  0
  142.5100   79.7370  217.6100 C   0  0  0  0  0  0  0  0  0  0  0  0
  142.1060   80.9240  218.1920 C   0  0  0  0  0  0  0  0  0  0  0  0
  141.4640   80.9790  219.3610 N   0  0  0  0  0  0  0  0  0  0  0  0
  141.1800   79.8440  220.0290 C   0  0  0  0  0  0  0  0  0  0  0  0
  140.8930   76.2770  219.4960 C   0  0  0  0  0  0  0  0  0  0  0  0
  140.5930   75.1010  220.1410 C   0  0  0  0  0  0  0  0  0  0  0  0
  140.2600   74.0600  219.2230 N   0  0  0  0  0  0  0  0  0  0  0  0
  140.2590   72.6600  219.5350 C   0  0  0  0  0  0  0  0  0  0  0  0
  139.6550   71.9080  218.6930 O   0  0  0  0  0  0  0  0  0  0  0  0
  140.8750   71.9640  220.7250 C   0  0  0  0  0  0  0  0  0  0  0  0
  140.5280   71.8700  224.4090 C   0  0  0  0  0  0  0  0  0  0  0  0
  138.9570   69.3032  226.0311 H   0  0  0  0  0  0  0  0  0  0  0  0
  138.1158   68.9762  223.7046 H   0  0  0  0  0  0  0  0  0  0  0  0
  138.8064   70.4719  221.9020 H   0  0  0  0  0  0  0  0  0  0  0  0
  141.0028   76.0452  223.3873 H   0  0  0  0  0  0  0  0  0  0  0  0
  141.5421   78.1585  222.2124 H   0  0  0  0  0  0  0  0  0  0  0  0
  142.5125   77.6111  217.8876 H   0  0  0  0  0  0  0  0  0  0  0  0
  143.0388   79.7126  216.6458 H   0  0  0  0  0  0  0  0  0  0  0  0
  142.3235   81.8663  217.6678 H   0  0  0  0  0  0  0  0  0  0  0  0
  140.6496   79.9027  220.9909 H   0  0  0  0  0  0  0  0  0  0  0  0
  140.8617   76.3398  218.3982 H   0  0  0  0  0  0  0  0  0  0  0  0
  140.0020   74.3360  218.2590 H   0  0  0  0  0  0  0  0  0  0  0  0
  140.5752   70.9057  220.7115 H   0  0  0  0  0  0  0  0  0  0  0  0
  141.9675   72.0697  220.6518 H   0  0  0  0  0  0  0  0  0  0  0  0
  141.2218   72.6940  224.6319 H   0  0  0  0  0  0  0  0  0  0  0  0
  1  2  3  0
  2  3  1  0
  3  4  2  0
  4  5  1  0
  5  6  2  0
  6  7  1  0
  7  8  1  0
  8  9  2  0
  9 10  1  0
 10 11  2  0
 11 12  1  0
 12 13  2  0
 13 14  1  0
 14 15  2  0
 15 16  1  0
 16 17  2  0
 17 18  1  0
 18 19  2  0
 13 20  1  0
 20 21  2  0
 21 22  1  0
 22 23  1  0
 23 24  2  0
 23 25  1  0
  7 26  2  0
 26  3  1  0
 25  8  1  0
 21 10  1  0
 19 14  1  0
  4 27  1  0
  5 28  1  0
  6 29  1  0
 11 30  1  0
 12 31  1  0
 15 32  1  0
 16 33  1  0
 17 34  1  0
 19 35  1  0
 20 36  1  0
 22 37  1  0
 25 38  1  0
 25 39  1  0
 26 40  1  0
M  END
>  <smiles>  (14) 
N#Cc1cccc(C2=Nc3ccc(-c4cccnc4)cc3NC(=O)C2)c1

>  <score_type>  (14) 
oracle

>  <origin>  (14) 
autodockgpu

>  <m_score__min__energy>  (14) 
-5.5700000000000003

>  <m_primary>  (14) 
energy

>  <meeko>  (14) 
{"free_energy": -4.73, "intermolecular_energy": -6.81, "internal_energy": -0.97, "cluster_size": 5, "cluster_id": 2, "rank_in_cluster": 5}

>  <energy>  (14) 
-5.0

>  <cluster_rmsd>  (14) 
1.95

>  <rmsd>  (14) 
270.63

>  <cluster>  (14) 
2

$$$$

     RDKit          3D

 40 43  0  0  0  0  0  0  0  0999 V2000
  134.2380   73.9490  226.0850 N   0  0  0  0  0  0  0  0  0  0  0  0
  134.6240   74.7720  225.3520 C   0  0  0  0  0  0  0  0  0  0  0  0
  135.1010   75.7890  224.4310 C   0  0  0  0  0  0  0  0  0  0  0  0
  134.3130   76.8950  224.1950 C   0  0  0  0  0  0  0  0  0  0  0  0
  134.8000   77.8410  223.3140 C   0  0  0  0  0  0  0  0  0  0  0  0
  136.0190   77.6810  222.7040 C   0  0  0  0  0  0  0  0  0  0  0  0
  136.8330   76.5670  222.9300 C   0  0  0  0  0  0  0  0  0  0  0  0
  138.1150   76.4680  222.2500 C   0  0  0  0  0  0  0  0  0  0  0  0
  138.6160   75.2680  222.3430 N   0  0  0  0  0  0  0  0  0  0  0  0
  139.8310   74.7500  221.8350 C   0  0  0  0  0  0  0  0  0  0  0  0
  139.8030   73.3720  221.6040 C   0  0  0  0  0  0  0  0  0  0  0  0
  140.9460   72.7680  221.1080 C   0  0  0  0  0  0  0  0  0  0  0  0
  142.0950   73.4680  220.8380 C   0  0  0  0  0  0  0  0  0  0  0  0
  143.3140   72.8540  220.3170 C   0  0  0  0  0  0  0  0  0  0  0  0
  143.3760   71.4980  220.0220 C   0  0  0  0  0  0  0  0  0  0  0  0
  144.5250   70.9040  219.5270 C   0  0  0  0  0  0  0  0  0  0  0  0
  145.6110   71.7370  219.3400 C   0  0  0  0  0  0  0  0  0  0  0  0
  145.5820   73.0420  219.6140 N   0  0  0  0  0  0  0  0  0  0  0  0
  144.4570   73.6050  220.0950 C   0  0  0  0  0  0  0  0  0  0  0  0
  142.1340   74.8270  221.0630 C   0  0  0  0  0  0  0  0  0  0  0  0
  141.0080   75.4440  221.5550 C   0  0  0  0  0  0  0  0  0  0  0  0
  141.2040   76.8460  221.7340 N   0  0  0  0  0  0  0  0  0  0  0  0
  140.1520   77.8110  221.8750 C   0  0  0  0  0  0  0  0  0  0  0  0
  140.5110   78.9560  222.3190 O   0  0  0  0  0  0  0  0  0  0  0  0
  138.6850   77.6480  221.5700 C   0  0  0  0  0  0  0  0  0  0  0  0
  136.3370   75.6350  223.8070 C   0  0  0  0  0  0  0  0  0  0  0  0
  133.3373   77.0191  224.6875 H   0  0  0  0  0  0  0  0  0  0  0  0
  134.2007   78.7377  223.0977 H   0  0  0  0  0  0  0  0  0  0  0  0
  136.3692   78.4595  222.0103 H   0  0  0  0  0  0  0  0  0  0  0  0
  138.8973   72.7830  221.8107 H   0  0  0  0  0  0  0  0  0  0  0  0
  140.9324   71.6837  220.9230 H   0  0  0  0  0  0  0  0  0  0  0  0
  142.4838   70.8760  220.1869 H   0  0  0  0  0  0  0  0  0  0  0  0
  144.5703   69.8295  219.2958 H   0  0  0  0  0  0  0  0  0  0  0  0
  146.5427   71.3041  218.9470 H   0  0  0  0  0  0  0  0  0  0  0  0
  144.4454   74.6825  220.3160 H   0  0  0  0  0  0  0  0  0  0  0  0
  143.0459   75.4055  220.8536 H   0  0  0  0  0  0  0  0  0  0  0  0
  142.1800   77.1930  221.7630 H   0  0  0  0  0  0  0  0  0  0  0  0
  138.1486   78.5474  221.9066 H   0  0  0  0  0  0  0  0  0  0  0  0
  138.5735   77.5063  220.4849 H   0  0  0  0  0  0  0  0  0  0  0  0
  136.9347   74.7375  224.0242 H   0  0  0  0  0  0  0  0  0  0  0  0
  1  2  3  0
  2  3  1  0
  3  4  2  0
  4  5  1  0
  5  6  2  0
  6  7  1  0
  7  8  1  0
  8  9  2  0
  9 10  1  0
 10 11  2  0
 11 12  1  0
 12 13  2  0
 13 14  1  0
 14 15  2  0
 15 16  1  0
 16 17  2  0
 17 18  1  0
 18 19  2  0
 13 20  1  0
 20 21  2  0
 21 22  1  0
 22 23  1  0
 23 24  2  0
 23 25  1  0
  7 26  2  0
 26  3  1  0
 25  8  1  0
 21 10  1  0
 19 14  1  0
  4 27  1  0
  5 28  1  0
  6 29  1  0
 11 30  1  0
 12 31  1  0
 15 32  1  0
 16 33  1  0
 17 34  1  0
 19 35  1  0
 20 36  1  0
 22 37  1  0
 25 38  1  0
 25 39  1  0
 26 40  1  0
M  END
>  <smiles>  (15) 
N#Cc1cccc(C2=Nc3ccc(-c4cccnc4)cc3NC(=O)C2)c1

>  <score_type>  (15) 
oracle

>  <origin>  (15) 
autodockgpu

>  <m_score__min__energy>  (15) 
-5.5700000000000003

>  <m_primary>  (15) 
energy

>  <meeko>  (15) 
{"free_energy": -5.13, "intermolecular_energy": -7.22, "internal_energy": -0.97, "cluster_size": 1, "cluster_id": 4, "rank_in_cluster": 1}

>  <energy>  (15) 
-4.73

>  <cluster_rmsd>  (15) 
0.4

>  <rmsd>  (15) 
270.26

>  <cluster>  (15) 
2

$$$$

     RDKit          3D

 40 43  0  0  0  0  0  0  0  0999 V2000
  135.9520   81.7750  228.3560 N   0  0  0  0  0  0  0  0  0  0  0  0
  136.2670   81.8850  227.2360 C   0  0  0  0  0  0  0  0  0  0  0  0
  136.6680   82.0180  225.8470 C   0  0  0  0  0  0  0  0  0  0  0  0
  136.1130   83.0260  225.0890 C   0  0  0  0  0  0  0  0  0  0  0  0
  136.5190   83.1210  223.7720 C   0  0  0  0  0  0  0  0  0  0  0  0
  137.4370   82.2460  223.2470 C   0  0  0  0  0  0  0  0  0  0  0  0
  138.0110   81.2170  224.0000 C   0  0  0  0  0  0  0  0  0  0  0  0
  138.9810   80.3300  223.3770 C   0  0  0  0  0  0  0  0  0  0  0  0
  138.5820   79.0900  223.4000 N   0  0  0  0  0  0  0  0  0  0  0  0
  139.2100   77.9250  222.8990 C   0  0  0  0  0  0  0  0  0  0  0  0
  138.3170   76.9050  222.5600 C   0  0  0  0  0  0  0  0  0  0  0  0
  138.8340   75.7210  222.0610 C   0  0  0  0  0  0  0  0  0  0  0  0
  140.1800   75.5150  221.8920 C   0  0  0  0  0  0  0  0  0  0  0  0
  140.7500   74.2750  221.3700 C   0  0  0  0  0  0  0  0  0  0  0  0
  142.0100   74.2440  220.7860 C   0  0  0  0  0  0  0  0  0  0  0  0
  142.5620   73.0760  220.2870 C   0  0  0  0  0  0  0  0  0  0  0  0
  141.7890   71.9370  220.4030 C   0  0  0  0  0  0  0  0  0  0  0  0
  140.5750   71.9360  220.9590 N   0  0  0  0  0  0  0  0  0  0  0  0
  140.0520   73.0810  221.4390 C   0  0  0  0  0  0  0  0  0  0  0  0
  141.0690   76.5130  222.2240 C   0  0  0  0  0  0  0  0  0  0  0  0
  140.5740   77.6960  222.7200 C   0  0  0  0  0  0  0  0  0  0  0  0
  141.6150   78.6270  223.0160 N   0  0  0  0  0  0  0  0  0  0  0  0
  141.4280   80.0380  223.1950 C   0  0  0  0  0  0  0  0  0  0  0  0
  142.4060   80.6580  223.7400 O   0  0  0  0  0  0  0  0  0  0  0  0
  140.2330   80.8790  222.8170 C   0  0  0  0  0  0  0  0  0  0  0  0
  137.5990   81.1340  225.3060 C   0  0  0  0  0  0  0  0  0  0  0  0
  135.3781   83.7252  225.5144 H   0  0  0  0  0  0  0  0  0  0  0  0
  136.0992   83.9117  223.1328 H   0  0  0  0  0  0  0  0  0  0  0  0
  137.7325   82.3586  222.1934 H   0  0  0  0  0  0  0  0  0  0  0  0
  137.2325   77.0389  222.6861 H   0  0  0  0  0  0  0  0  0  0  0  0
  138.1379   74.9137  221.7894 H   0  0  0  0  0  0  0  0  0  0  0  0
  142.5880   75.1774  220.7177 H   0  0  0  0  0  0  0  0  0  0  0  0
  143.5598   73.0563  219.8243 H   0  0  0  0  0  0  0  0  0  0  0  0
  142.1919   70.9878  220.0200 H   0  0  0  0  0  0  0  0  0  0  0  0
  139.0509   73.0672  221.8947 H   0  0  0  0  0  0  0  0  0  0  0  0
  142.1516   76.3669  222.0952 H   0  0  0  0  0  0  0  0  0  0  0  0
  142.5770   78.2550  223.1080 H   0  0  0  0  0  0  0  0  0  0  0  0
  140.3787   81.8992  223.2017 H   0  0  0  0  0  0  0  0  0  0  0  0
  140.1471   80.8805  221.7204 H   0  0  0  0  0  0  0  0  0  0  0  0
  138.0173   80.3438  225.9468 H   0  0  0  0  0  0  0  0  0  0  0  0
  1  2  3  0
  2  3  1  0
  3  4  2  0
  4  5  1  0
  5  6  2  0
  6  7  1  0
  7  8  1  0
  8  9  2  0
  9 10  1  0
 10 11  2  0
 11 12  1  0
 12 13  2  0
 13 14  1  0
 14 15  2  0
 15 16  1  0
 16 17  2  0
 17 18  1  0
 18 19  2  0
 13 20  1  0
 20 21  2  0
 21 22  1  0
 22 23  1  0
 23 24  2  0
 23 25  1  0
  7 26  2  0
 26  3  1  0
 25  8  1  0
 21 10  1  0
 19 14  1  0
  4 27  1  0
  5 28  1  0
  6 29  1  0
 11 30  1  0
 12 31  1  0
 15 32  1  0
 16 33  1  0
 17 34  1  0
 19 35  1  0
 20 36  1  0
 22 37  1  0
 25 38  1  0
 25 39  1  0
 26 40  1  0
M  END
>  <smiles>  (16) 
N#Cc1cccc(C2=Nc3ccc(-c4cccnc4)cc3NC(=O)C2)c1

>  <score_type>  (16) 
oracle

>  <origin>  (16) 
autodockgpu

>  <m_score__min__energy>  (16) 
-5.5700000000000003

>  <m_primary>  (16) 
energy

>  <meeko>  (16) 
{"free_energy": -5.25, "intermolecular_energy": -7.33, "internal_energy": -0.96, "cluster_size": 10, "cluster_id": 1, "rank_in_cluster": 10}

>  <energy>  (16) 
-5.4

>  <cluster_rmsd>  (16) 
0.0

>  <rmsd>  (16) 
269.94

>  <cluster>  (16) 
3

$$$$

     RDKit          3D

 40 43  0  0  0  0  0  0  0  0999 V2000
  147.4410   66.6410  216.3500 N   0  0  0  0  0  0  0  0  0  0  0  0
  146.6020   67.0330  217.0610 C   0  0  0  0  0  0  0  0  0  0  0  0
  145.5640   67.5170  217.9540 C   0  0  0  0  0  0  0  0  0  0  0  0
  144.6460   66.6180  218.4550 C   0  0  0  0  0  0  0  0  0  0  0  0
  143.6740   67.1150  219.3010 C   0  0  0  0  0  0  0  0  0  0  0  0
  143.6290   68.4480  219.6260 C   0  0  0  0  0  0  0  0  0  0  0  0
  144.5490   69.3740  219.1280 C   0  0  0  0  0  0  0  0  0  0  0  0
  144.4420   70.7710  219.5200 C   0  0  0  0  0  0  0  0  0  0  0  0
  143.2060   71.1090  219.7590 N   0  0  0  0  0  0  0  0  0  0  0  0
  142.6690   72.3490  220.1790 C   0  0  0  0  0  0  0  0  0  0  0  0
  141.4700   72.2320  220.8880 C   0  0  0  0  0  0  0  0  0  0  0  0
  140.8630   73.3910  221.3420 C   0  0  0  0  0  0  0  0  0  0  0  0
  141.3900   74.6380  221.1210 C   0  0  0  0  0  0  0  0  0  0  0  0
  140.7680   75.8740  221.5870 C   0  0  0  0  0  0  0  0  0  0  0  0
  141.3850   77.1080  221.4180 C   0  0  0  0  0  0  0  0  0  0  0  0
  140.8060   78.2870  221.8550 C   0  0  0  0  0  0  0  0  0  0  0  0
  139.5750   78.1720  222.4720 C   0  0  0  0  0  0  0  0  0  0  0  0
  138.9580   77.0020  222.6490 N   0  0  0  0  0  0  0  0  0  0  0  0
  139.5340   75.8630  222.2180 C   0  0  0  0  0  0  0  0  0  0  0  0
  142.5710   74.7640  220.4230 C   0  0  0  0  0  0  0  0  0  0  0  0
  143.1890   73.6240  219.9650 C   0  0  0  0  0  0  0  0  0  0  0  0
  144.3970   73.9190  219.2640 N   0  0  0  0  0  0  0  0  0  0  0  0
  145.4380   72.9710  218.9890 C   0  0  0  0  0  0  0  0  0  0  0  0
  146.2920   73.3310  218.1060 O   0  0  0  0  0  0  0  0  0  0  0  0
  145.6540   71.6110  219.6040 C   0  0  0  0  0  0  0  0  0  0  0  0
  145.5100   68.8680  218.2890 C   0  0  0  0  0  0  0  0  0  0  0  0
  144.6862   65.5506  218.1920 H   0  0  0  0  0  0  0  0  0  0  0  0
  142.9226   66.4306  219.7218 H   0  0  0  0  0  0  0  0  0  0  0  0
  142.8383   68.8006  220.3046 H   0  0  0  0  0  0  0  0  0  0  0  0
  141.0209   71.2464  221.0800 H   0  0  0  0  0  0  0  0  0  0  0  0
  139.9201   73.3083  221.9025 H   0  0  0  0  0  0  0  0  0  0  0  0
  142.3653   77.1490  220.9208 H   0  0  0  0  0  0  0  0  0  0  0  0
  141.2984   79.2611  221.7187 H   0  0  0  0  0  0  0  0  0  0  0  0
  139.0813   79.0861  222.8336 H   0  0  0  0  0  0  0  0  0  0  0  0
  139.0147   74.9053  222.3699 H   0  0  0  0  0  0  0  0  0  0  0  0
  143.0102   75.7550  220.2360 H   0  0  0  0  0  0  0  0  0  0  0  0
  144.5320   74.8890  218.9290 H   0  0  0  0  0  0  0  0  0  0  0  0
  146.4743   71.1063  219.0725 H   0  0  0  0  0  0  0  0  0  0  0  0
  145.8986   71.7520  220.6671 H   0  0  0  0  0  0  0  0  0  0  0  0
  146.2619   69.5514  217.8675 H   0  0  0  0  0  0  0  0  0  0  0  0
  1  2  3  0
  2  3  1  0
  3  4  2  0
  4  5  1  0
  5  6  2  0
  6  7  1  0
  7  8  1  0
  8  9  2  0
  9 10  1  0
 10 11  2  0
 11 12  1  0
 12 13  2  0
 13 14  1  0
 14 15  2  0
 15 16  1  0
 16 17  2  0
 17 18  1  0
 18 19  2  0
 13 20  1  0
 20 21  2  0
 21 22  1  0
 22 23  1  0
 23 24  2  0
 23 25  1  0
  7 26  2  0
 26  3  1  0
 25  8  1  0
 21 10  1  0
 19 14  1  0
  4 27  1  0
  5 28  1  0
  6 29  1  0
 11 30  1  0
 12 31  1  0
 15 32  1  0
 16 33  1  0
 17 34  1  0
 19 35  1  0
 20 36  1  0
 22 37  1  0
 25 38  1  0
 25 39  1  0
 26 40  1  0
M  END
>  <smiles>  (17) 
N#Cc1cccc(C2=Nc3ccc(-c4cccnc4)cc3NC(=O)C2)c1

>  <score_type>  (17) 
oracle

>  <origin>  (17) 
autodockgpu

>  <m_score__min__energy>  (17) 
-5.5700000000000003

>  <m_primary>  (17) 
energy

>  <meeko>  (17) 
{"free_energy": -5.37, "intermolecular_energy": -7.46, "internal_energy": -0.97, "cluster_size": 4, "cluster_id": 3, "rank_in_cluster": 3}

>  <energy>  (17) 
-5.38

>  <cluster_rmsd>  (17) 
0.13

>  <rmsd>  (17) 
269.95

>  <cluster>  (17) 
3

$$$$

     RDKit          3D

 40 43  0  0  0  0  0  0  0  0999 V2000
  135.9720   81.8600  228.3310 N   0  0  0  0  0  0  0  0  0  0  0  0
  136.2870   81.9540  227.2110 C   0  0  0  0  0  0  0  0  0  0  0  0
  136.6870   82.0620  225.8190 C   0  0  0  0  0  0  0  0  0  0  0  0
  136.1220   83.0490  225.0400 C   0  0  0  0  0  0  0  0  0  0  0  0
  136.5260   83.1220  223.7210 C   0  0  0  0  0  0  0  0  0  0  0  0
  137.4520   82.2440  223.2140 C   0  0  0  0  0  0  0  0  0  0  0  0
  138.0350   81.2360  223.9870 C   0  0  0  0  0  0  0  0  0  0  0  0
  139.0130   80.3460  223.3810 C   0  0  0  0  0  0  0  0  0  0  0  0
  138.5950   79.1110  223.3670 N   0  0  0  0  0  0  0  0  0  0  0  0
  139.2250   77.9440  222.8740 C   0  0  0  0  0  0  0  0  0  0  0  0
  138.3320   76.9430  222.4850 C   0  0  0  0  0  0  0  0  0  0  0  0
  138.8520   75.7590  221.9900 C   0  0  0  0  0  0  0  0  0  0  0  0
  140.2000   75.5360  221.8690 C   0  0  0  0  0  0  0  0  0  0  0  0
  140.7730   74.2950  221.3520 C   0  0  0  0  0  0  0  0  0  0  0  0
  142.0470   74.2580  220.7980 C   0  0  0  0  0  0  0  0  0  0  0  0
  142.6010   73.0890  220.3040 C   0  0  0  0  0  0  0  0  0  0  0  0
  141.8160   71.9560  220.3920 C   0  0  0  0  0  0  0  0  0  0  0  0
  140.5900   71.9600  220.9180 N   0  0  0  0  0  0  0  0  0  0  0  0
  140.0640   73.1060  221.3940 C   0  0  0  0  0  0  0  0  0  0  0  0
  141.0900   76.5160  222.2500 C   0  0  0  0  0  0  0  0  0  0  0  0
  140.5920   77.6990  222.7440 C   0  0  0  0  0  0  0  0  0  0  0  0
  141.6330   78.6100  223.0930 N   0  0  0  0  0  0  0  0  0  0  0  0
  141.4590   80.0210  223.2840 C   0  0  0  0  0  0  0  0  0  0  0  0
  142.4230   80.6200  223.8760 O   0  0  0  0  0  0  0  0  0  0  0  0
  140.2920   80.8850  222.8770 C   0  0  0  0  0  0  0  0  0  0  0  0
  137.6250   81.1750  225.2940 C   0  0  0  0  0  0  0  0  0  0  0  0
  135.3803   83.7493  225.4516 H   0  0  0  0  0  0  0  0  0  0  0  0
  136.0990   83.8960  223.0663 H   0  0  0  0  0  0  0  0  0  0  0  0
  137.7465   82.3376  222.1583 H   0  0  0  0  0  0  0  0  0  0  0  0
  137.2453   77.0912  222.5696 H   0  0  0  0  0  0  0  0  0  0  0  0
  138.1559   74.9651  221.6813 H   0  0  0  0  0  0  0  0  0  0  0  0
  142.6341   75.1870  220.7504 H   0  0  0  0  0  0  0  0  0  0  0  0
  143.6097   73.0641  219.8660 H   0  0  0  0  0  0  0  0  0  0  0  0
  142.2203   71.0067  220.0108 H   0  0  0  0  0  0  0  0  0  0  0  0
  139.0517   73.0968  221.8243 H   0  0  0  0  0  0  0  0  0  0  0  0
  142.1747   76.3560  222.1611 H   0  0  0  0  0  0  0  0  0  0  0  0
  142.5860   78.2240  223.2180 H   0  0  0  0  0  0  0  0  0  0  0  0
  140.4380   81.8965  223.2840 H   0  0  0  0  0  0  0  0  0  0  0  0
  140.2468   80.9057  221.7781 H   0  0  0  0  0  0  0  0  0  0  0  0
  138.0503   80.4008  225.9495 H   0  0  0  0  0  0  0  0  0  0  0  0
  1  2  3  0
  2  3  1  0
  3  4  2  0
  4  5  1  0
  5  6  2  0
  6  7  1  0
  7  8  1  0
  8  9  2  0
  9 10  1  0
 10 11  2  0
 11 12  1  0
 12 13  2  0
 13 14  1  0
 14 15  2  0
 15 16  1  0
 16 17  2  0
 17 18  1  0
 18 19  2  0
 13 20  1  0
 20 21  2  0
 21 22  1  0
 22 23  1  0
 23 24  2  0
 23 25  1  0
  7 26  2  0
 26  3  1  0
 25  8  1  0
 21 10  1  0
 19 14  1  0
  4 27  1  0
  5 28  1  0
  6 29  1  0
 11 30  1  0
 12 31  1  0
 15 32  1  0
 16 33  1  0
 17 34  1  0
 19 35  1  0
 20 36  1  0
 22 37  1  0
 25 38  1  0
 25 39  1  0
 26 40  1  0
M  END
>  <smiles>  (18) 
N#Cc1cccc(C2=Nc3ccc(-c4cccnc4)cc3NC(=O)C2)c1

>  <score_type>  (18) 
oracle

>  <origin>  (18) 
autodockgpu

>  <m_score__min__energy>  (18) 
-5.5700000000000003

>  <m_primary>  (18) 
energy

>  <meeko>  (18) 
{"free_energy": -5.51, "intermolecular_energy": -7.59, "internal_energy": -0.96, "cluster_size": 10, "cluster_id": 1, "rank_in_cluster": 4}

>  <energy>  (18) 
-5.37

>  <cluster_rmsd>  (18) 
0.13

>  <rmsd>  (18) 
269.88

>  <cluster>  (18) 
3

$$$$

     RDKit          3D

 40 43  0  0  0  0  0  0  0  0999 V2000
  136.0050   81.6990  228.4350 N   0  0  0  0  0  0  0  0  0  0  0  0
  136.3190   81.8390  227.3190 C   0  0  0  0  0  0  0  0  0  0  0  0
  136.7110   82.0020  225.9300 C   0  0  0  0  0  0  0  0  0  0  0  0
  136.1740   83.0450  225.2060 C   0  0  0  0  0  0  0  0  0  0  0  0
  136.5700   83.1680  223.8890 C   0  0  0  0  0  0  0  0  0  0  0  0
  137.4620   82.2870  223.3300 C   0  0  0  0  0  0  0  0  0  0  0  0
  138.0170   81.2240  224.0470 C   0  0  0  0  0  0  0  0  0  0  0  0
  138.9600   80.3330  223.3900 C   0  0  0  0  0  0  0  0  0  0  0  0
  138.5720   79.0900  223.4530 N   0  0  0  0  0  0  0  0  0  0  0  0
  139.1880   77.9190  222.9530 C   0  0  0  0  0  0  0  0  0  0  0  0
  138.2910   76.8840  222.6770 C   0  0  0  0  0  0  0  0  0  0  0  0
  138.7970   75.6930  222.1840 C   0  0  0  0  0  0  0  0  0  0  0  0
  140.1370   75.4950  221.9600 C   0  0  0  0  0  0  0  0  0  0  0  0
  140.6950   74.2480  221.4430 C   0  0  0  0  0  0  0  0  0  0  0  0
  140.2860   73.0120  221.9270 C   0  0  0  0  0  0  0  0  0  0  0  0
  140.8070   71.8230  221.4450 C   0  0  0  0  0  0  0  0  0  0  0  0
  141.7610   71.9320  220.4520 C   0  0  0  0  0  0  0  0  0  0  0  0
  142.1750   73.1050  219.9670 N   0  0  0  0  0  0  0  0  0  0  0  0
  141.6580   74.2530  220.4470 C   0  0  0  0  0  0  0  0  0  0  0  0
  141.0300   76.5090  222.2290 C   0  0  0  0  0  0  0  0  0  0  0  0
  140.5450   77.6990  222.7190 C   0  0  0  0  0  0  0  0  0  0  0  0
  141.5890   78.6450  222.9460 N   0  0  0  0  0  0  0  0  0  0  0  0
  141.3960   80.0580  223.0980 C   0  0  0  0  0  0  0  0  0  0  0  0
  142.3900   80.7010  223.5850 O   0  0  0  0  0  0  0  0  0  0  0  0
  140.1790   80.8800  222.7590 C   0  0  0  0  0  0  0  0  0  0  0  0
  137.6160   81.1120  225.3540 C   0  0  0  0  0  0  0  0  0  0  0  0
  135.4603   83.7493  225.6583 H   0  0  0  0  0  0  0  0  0  0  0  0
  136.1635   83.9865  223.2769 H   0  0  0  0  0  0  0  0  0  0  0  0
  137.7509   82.4231  222.2774 H   0  0  0  0  0  0  0  0  0  0  0  0
  137.2117   77.0118  222.8468 H   0  0  0  0  0  0  0  0  0  0  0  0
  138.0977   74.8731  221.9631 H   0  0  0  0  0  0  0  0  0  0  0  0
  139.5234   72.9765  222.7190 H   0  0  0  0  0  0  0  0  0  0  0  0
  140.4796   70.8465  221.8312 H   0  0  0  0  0  0  0  0  0  0  0  0
  142.1996   71.0103  220.0421 H   0  0  0  0  0  0  0  0  0  0  0  0
  142.0075   75.2133  220.0400 H   0  0  0  0  0  0  0  0  0  0  0  0
  142.1073   76.3699  222.0557 H   0  0  0  0  0  0  0  0  0  0  0  0
  142.5580   78.2840  223.0060 H   0  0  0  0  0  0  0  0  0  0  0  0
  140.3335   81.9096  223.1140 H   0  0  0  0  0  0  0  0  0  0  0  0
  140.0414   80.8571  221.6679 H   0  0  0  0  0  0  0  0  0  0  0  0
  138.0216   80.2937  225.9671 H   0  0  0  0  0  0  0  0  0  0  0  0
  1  2  3  0
  2  3  1  0
  3  4  2  0
  4  5  1  0
  5  6  2  0
  6  7  1  0
  7  8  1  0
  8  9  2  0
  9 10  1  0
 10 11  2  0
 11 12  1  0
 12 13  2  0
 13 14  1  0
 14 15  2  0
 15 16  1  0
 16 17  2  0
 17 18  1  0
 18 19  2  0
 13 20  1  0
 20 21  2  0
 21 22  1  0
 22 23  1  0
 23 24  2  0
 23 25  1  0
  7 26  2  0
 26  3  1  0
 25  8  1  0
 21 10  1  0
 19 14  1  0
  4 27  1  0
  5 28  1  0
  6 29  1  0
 11 30  1  0
 12 31  1  0
 15 32  1  0
 16 33  1  0
 17 34  1  0
 19 35  1  0
 20 36  1  0
 22 37  1  0
 25 38  1  0
 25 39  1  0
 26 40  1  0
M  END
>  <smiles>  (19) 
N#Cc1cccc(C2=Nc3ccc(-c4cccnc4)cc3NC(=O)C2)c1

>  <score_type>  (19) 
oracle

>  <origin>  (19) 
autodockgpu

>  <m_score__min__energy>  (19) 
-5.5700000000000003

>  <m_primary>  (19) 
energy

>  <meeko>  (19) 
{"free_energy": -5.51, "intermolecular_energy": -7.6, "internal_energy": -0.96, "cluster_size": 10, "cluster_id": 1, "rank_in_cluster": 3}

>  <energy>  (19) 
-5.24

>  <cluster_rmsd>  (19) 
0.49

>  <rmsd>  (19) 
269.9

>  <cluster>  (19) 
3

$$$$

     RDKit          3D

 40 43  0  0  0  0  0  0  0  0999 V2000
  136.0420   81.7140  228.4320 N   0  0  0  0  0  0  0  0  0  0  0  0
  136.3570   81.8500  227.3160 C   0  0  0  0  0  0  0  0  0  0  0  0
  136.7510   82.0100  225.9270 C   0  0  0  0  0  0  0  0  0  0  0  0
  136.2020   83.0410  225.1950 C   0  0  0  0  0  0  0  0  0  0  0  0
  136.6000   83.1600  223.8770 C   0  0  0  0  0  0  0  0  0  0  0  0
  137.5050   82.2870  223.3270 C   0  0  0  0  0  0  0  0  0  0  0  0
  138.0720   81.2350  224.0530 C   0  0  0  0  0  0  0  0  0  0  0  0
  139.0280   80.3520  223.4040 C   0  0  0  0  0  0  0  0  0  0  0  0
  138.6410   79.1090  223.4490 N   0  0  0  0  0  0  0  0  0  0  0  0
  139.2700   77.9430  222.9520 C   0  0  0  0  0  0  0  0  0  0  0  0
  138.3810   76.9080  222.6510 C   0  0  0  0  0  0  0  0  0  0  0  0
  138.9000   75.7220  222.1590 C   0  0  0  0  0  0  0  0  0  0  0  0
  140.2430   75.5280  221.9580 C   0  0  0  0  0  0  0  0  0  0  0  0
  140.8150   74.2870  221.4420 C   0  0  0  0  0  0  0  0  0  0  0  0
  141.8650   74.2930  220.5330 C   0  0  0  0  0  0  0  0  0  0  0  0
  142.4160   73.1240  220.0360 C   0  0  0  0  0  0  0  0  0  0  0  0
  141.8620   71.9450  220.4950 C   0  0  0  0  0  0  0  0  0  0  0  0
  140.8530   71.9070  221.3680 N   0  0  0  0  0  0  0  0  0  0  0  0
  140.3280   73.0530  221.8420 C   0  0  0  0  0  0  0  0  0  0  0  0
  141.1290   76.5420  222.2510 C   0  0  0  0  0  0  0  0  0  0  0  0
  140.6320   77.7270  222.7410 C   0  0  0  0  0  0  0  0  0  0  0  0
  141.6680   78.6750  222.9950 N   0  0  0  0  0  0  0  0  0  0  0  0
  141.4690   80.0870  223.1530 C   0  0  0  0  0  0  0  0  0  0  0  0
  142.4520   80.7280  223.6640 O   0  0  0  0  0  0  0  0  0  0  0  0
  140.2560   80.9070  222.7990 C   0  0  0  0  0  0  0  0  0  0  0  0
  137.6690   81.1280  225.3600 C   0  0  0  0  0  0  0  0  0  0  0  0
  135.4781   83.7390  225.6409 H   0  0  0  0  0  0  0  0  0  0  0  0
  136.1842   83.9686  223.2579 H   0  0  0  0  0  0  0  0  0  0  0  0
  137.7955   82.4200  222.2744 H   0  0  0  0  0  0  0  0  0  0  0  0
  137.2983   77.0318  222.8007 H   0  0  0  0  0  0  0  0  0  0  0  0
  138.2069   74.9020  221.9196 H   0  0  0  0  0  0  0  0  0  0  0  0
  142.2722   75.2580  220.1969 H   0  0  0  0  0  0  0  0  0  0  0  0
  143.2479   73.1337  219.3163 H   0  0  0  0  0  0  0  0  0  0  0  0
  142.2711   70.9936  220.1241 H   0  0  0  0  0  0  0  0  0  0  0  0
  139.4964   73.0086  222.5607 H   0  0  0  0  0  0  0  0  0  0  0  0
  142.2096   76.4066  222.0964 H   0  0  0  0  0  0  0  0  0  0  0  0
  142.6370   78.3160  223.0700 H   0  0  0  0  0  0  0  0  0  0  0  0
  140.4008   81.9344  223.1643 H   0  0  0  0  0  0  0  0  0  0  0  0
  140.1377   80.8914  221.7055 H   0  0  0  0  0  0  0  0  0  0  0  0
  138.0839   80.3199  225.9804 H   0  0  0  0  0  0  0  0  0  0  0  0
  1  2  3  0
  2  3  1  0
  3  4  2  0
  4  5  1  0
  5  6  2  0
  6  7  1  0
  7  8  1  0
  8  9  2  0
  9 10  1  0
 10 11  2  0
 11 12  1  0
 12 13  2  0
 13 14  1  0
 14 15  2  0
 15 16  1  0
 16 17  2  0
 17 18  1  0
 18 19  2  0
 13 20  1  0
 20 21  2  0
 21 22  1  0
 22 23  1  0
 23 24  2  0
 23 25  1  0
  7 26  2  0
 26  3  1  0
 25  8  1  0
 21 10  1  0
 19 14  1  0
  4 27  1  0
  5 28  1  0
  6 29  1  0
 11 30  1  0
 12 31  1  0
 15 32  1  0
 16 33  1  0
 17 34  1  0
 19 35  1  0
 20 36  1  0
 22 37  1  0
 25 38  1  0
 25 39  1  0
 26 40  1  0
M  END
>  <smiles>  (20) 
N#Cc1cccc(C2=Nc3ccc(-c4cccnc4)cc3NC(=O)C2)c1

>  <score_type>  (20) 
oracle

>  <origin>  (20) 
autodockgpu

>  <m_score__min__energy>  (20) 
-5.5700000000000003

>  <m_primary>  (20) 
energy

>  <meeko>  (20) 
{"free_energy": -5.45, "intermolecular_energy": -7.54, "internal_energy": -0.96, "cluster_size": 10, "cluster_id": 1, "rank_in_cluster": 7}

>  <energy>  (20) 
-5.13

>  <cluster_rmsd>  (20) 
0.0

>  <rmsd>  (20) 
270.52

>  <cluster>  (20) 
4

$$$$
