GZRQFJZYBWHXJG-UHFFFAOYNA-N
     RDKit          3D

 63 67  0  0  0  0  0  0  0  0999 V2000
  142.5280   80.7800  222.6290 C   0  0  0  0  0  0  0  0  0  0  0  0
  141.9930   80.3300  223.8390 C   0  0  0  0  0  0  0  0  0  0  0  0
  141.1440   79.2210  223.8590 C   0  0  0  0  0  0  0  0  0  0  0  0
  140.8280   78.5470  222.6670 C   0  0  0  0  0  0  0  0  0  0  0  0
  141.3470   79.0190  221.4340 C   0  0  0  0  0  0  0  0  0  0  0  0
  142.2130   80.1260  221.4330 C   0  0  0  0  0  0  0  0  0  0  0  0
  141.0670   78.3050  220.1280 C   0  0  0  0  0  0  0  0  0  0  0  0
  139.8410   77.3890  220.2220 C   0  0  0  0  0  0  0  0  0  0  0  0
  139.9240   76.6220  221.4670 N   0  0  0  0  0  0  0  0  0  0  0  0
  140.4870   75.3030  221.4480 C   0  0  0  0  0  0  0  0  0  0  0  0
  139.8540   74.2780  222.0750 N   0  0  0  0  0  0  0  0  0  0  0  0
  140.4080   73.0400  222.0910 C   0  0  0  0  0  0  0  0  0  0  0  0
  139.7730   71.9460  222.8880 C   0  0  0  0  0  0  0  0  0  0  0  0
  140.7510   71.3540  223.9140 C   0  0  0  0  0  0  0  0  0  0  0  0
  140.1470   71.3410  225.2710 N   0  0  0  0  0  0  0  0  0  0  0  0
  139.5430   70.0240  225.6220 C   0  0  0  0  0  0  0  0  0  0  0  0
  140.4330   69.1960  226.5550 C   0  0  0  0  0  0  0  0  0  0  0  0
  140.6860   69.9340  227.8790 C   0  0  0  0  0  0  0  0  0  0  0  0
  140.6790   71.4640  227.7120 C   0  0  0  0  0  0  0  0  0  0  0  0
  141.0920   71.8640  226.2900 C   0  0  0  0  0  0  0  0  0  0  0  0
  141.6010   72.8290  221.4800 N   0  0  0  0  0  0  0  0  0  0  0  0
  142.2420   73.8450  220.8440 C   0  0  0  0  0  0  0  0  0  0  0  0
  143.5080   73.6130  220.1900 N   0  0  0  0  0  0  0  0  0  0  0  0
  144.6980   73.3110  221.0000 C   0  0  0  0  0  0  0  0  0  0  0  0
  145.9780   73.7300  220.2610 C   0  0  0  0  0  0  0  0  0  0  0  0
  145.9980   73.1600  218.9080 N   0  0  0  0  0  0  0  0  0  0  0  0
  144.8650   73.6740  218.1290 C   0  0  0  0  0  0  0  0  0  0  0  0
  143.5390   73.2430  218.7660 C   0  0  0  0  0  0  0  0  0  0  0  0
  141.6820   75.0830  220.8420 N   0  0  0  0  0  0  0  0  0  0  0  0
  139.8610   77.3920  222.7130 C   0  0  0  0  0  0  0  0  0  0  0  0
  143.1991   81.6515  222.6168 H   0  0  0  0  0  0  0  0  0  0  0  0
  142.2406   80.8495  224.7764 H   0  0  0  0  0  0  0  0  0  0  0  0
  140.7205   78.8734  224.8128 H   0  0  0  0  0  0  0  0  0  0  0  0
  142.6458   80.4804  220.4859 H   0  0  0  0  0  0  0  0  0  0  0  0
  140.8892   79.0561  219.3443 H   0  0  0  0  0  0  0  0  0  0  0  0
  141.9398   77.6790  219.8906 H   0  0  0  0  0  0  0  0  0  0  0  0
  138.9239   77.9964  220.2216 H   0  0  0  0  0  0  0  0  0  0  0  0
  139.8164   76.7052  219.3607 H   0  0  0  0  0  0  0  0  0  0  0  0
  138.9000   72.3522  223.4199 H   0  0  0  0  0  0  0  0  0  0  0  0
  139.4733   71.1452  222.1960 H   0  0  0  0  0  0  0  0  0  0  0  0
  141.0016   70.3238  223.6208 H   0  0  0  0  0  0  0  0  0  0  0  0
  141.6576   71.9765  223.9372 H   0  0  0  0  0  0  0  0  0  0  0  0
  138.5785   70.2007  226.1206 H   0  0  0  0  0  0  0  0  0  0  0  0
  139.4197   69.4553  224.6885 H   0  0  0  0  0  0  0  0  0  0  0  0
  139.9369   68.2375  226.7673 H   0  0  0  0  0  0  0  0  0  0  0  0
  141.4001   69.0296  226.0579 H   0  0  0  0  0  0  0  0  0  0  0  0
  139.8993   69.6537  228.5949 H   0  0  0  0  0  0  0  0  0  0  0  0
  141.6835   69.6418  228.2390 H   0  0  0  0  0  0  0  0  0  0  0  0
  139.6660   71.8430  227.9123 H   0  0  0  0  0  0  0  0  0  0  0  0
  141.3999   71.8971  228.4210 H   0  0  0  0  0  0  0  0  0  0  0  0
  141.1163   72.9616  226.2223 H   0  0  0  0  0  0  0  0  0  0  0  0
  142.0835   71.4321  226.0888 H   0  0  0  0  0  0  0  0  0  0  0  0
  144.6351   73.8582  221.9522 H   0  0  0  0  0  0  0  0  0  0  0  0
  144.7347   72.2272  221.1846 H   0  0  0  0  0  0  0  0  0  0  0  0
  146.0143   74.8273  220.1926 H   0  0  0  0  0  0  0  0  0  0  0  0
  146.8500   73.3569  220.8182 H   0  0  0  0  0  0  0  0  0  0  0  0
  146.8820   73.4820  218.4420 H   0  0  0  0  0  0  0  0  0  0  0  0
  144.9133   74.7726  218.1007 H   0  0  0  0  0  0  0  0  0  0  0  0
  144.9196   73.2668  217.1086 H   0  0  0  0  0  0  0  0  0  0  0  0
  142.7081   73.7404  218.2444 H   0  0  0  0  0  0  0  0  0  0  0  0
  143.4408   72.1508  218.6796 H   0  0  0  0  0  0  0  0  0  0  0  0
  138.8403   77.7792  222.8485 H   0  0  0  0  0  0  0  0  0  0  0  0
  140.1307   76.7344  223.5525 H   0  0  0  0  0  0  0  0  0  0  0  0
  1  2  2  0
  2  3  1  0
  3  4  2  0
  4  5  1  0
  5  6  2  0
  5  7  1  0
  7  8  1  0
  8  9  1  0
  9 10  1  0
 10 11  2  0
 11 12  1  0
 12 13  1  0
 13 14  1  0
 14 15  1  0
 15 16  1  0
 16 17  1  0
 17 18  1  0
 18 19  1  0
 19 20  1  0
 12 21  2  0
 21 22  1  0
 22 23  1  0
 23 24  1  0
 24 25  1  0
 25 26  1  0
 26 27  1  0
 27 28  1  0
 22 29  2  0
  9 30  1  0
  6  1  1  0
 29 10  1  0
 30  4  1  0
 20 15  1  0
 28 23  1  0
  1 31  1  0
  2 32  1  0
  3 33  1  0
  6 34  1  0
  7 35  1  0
  7 36  1  0
  8 37  1  0
  8 38  1  0
 13 39  1  0
 13 40  1  0
 14 41  1  0
 14 42  1  0
 16 43  1  0
 16 44  1  0
 17 45  1  0
 17 46  1  0
 18 47  1  0
 18 48  1  0
 19 49  1  0
 19 50  1  0
 20 51  1  0
 20 52  1  0
 24 53  1  0
 24 54  1  0
 25 55  1  0
 25 56  1  0
 26 57  1  0
 27 58  1  0
 27 59  1  0
 28 60  1  0
 28 61  1  0
 30 62  1  0
 30 63  1  0
M  END
>  <UniqueID>  (1) 
561

>  <SMILES>  (1) 
c1ccc2c(c1)CCN(c1nc(CCN3CCCCC3)nc(N3CCNCC3)n1)C2

>  <Energy>  (1) 
71.46089149546641

>  <Genealogy>  (1) 
c1ccc2c(c1)CCN(c1nc(CCN3CCCCC3)nc(N3CCNCC3)n1)C2 (3D coordinates assigned)
c1ccc2c(c1)CCN(c1nc(CCN3CCCCC3)nc(N3CCNCC3)n1)C2 (nonaromatic ring conformer: 71.46089149546641 kcal/mol)

>  <smiles>  (1) 
c1ccc2c(c1)CCN(c1nc(CCN3CCCCC3)nc(N3CCNCC3)n1)C2

>  <score_type>  (1) 
oracle

>  <origin>  (1) 
autodockgpu

>  <m_score__min__energy>  (1) 
-9.8000000000000007

>  <m_primary>  (1) 
energy

>  <meeko>  (1) 
{"free_energy": -9.78, "intermolecular_energy": -11.27, "internal_energy": -0.9, "cluster_size": 17, "cluster_id": 1, "rank_in_cluster": 8}

>  <energy>  (1) 
-9.8

>  <cluster_rmsd>  (1) 
0.0

>  <rmsd>  (1) 
271.89

>  <cluster>  (1) 
1

$$$$
GZRQFJZYBWHXJG-UHFFFAOYNA-N
     RDKit          3D

 63 67  0  0  0  0  0  0  0  0999 V2000
  142.4800   80.7790  222.6370 C   0  0  0  0  0  0  0  0  0  0  0  0
  141.9360   80.3320  223.8430 C   0  0  0  0  0  0  0  0  0  0  0  0
  141.0960   79.2160  223.8600 C   0  0  0  0  0  0  0  0  0  0  0  0
  140.7980   78.5330  222.6690 C   0  0  0  0  0  0  0  0  0  0  0  0
  141.3270   79.0030  221.4380 C   0  0  0  0  0  0  0  0  0  0  0  0
  142.1840   80.1160  221.4410 C   0  0  0  0  0  0  0  0  0  0  0  0
  141.0670   78.2790  220.1330 C   0  0  0  0  0  0  0  0  0  0  0  0
  139.8480   77.3540  220.2190 C   0  0  0  0  0  0  0  0  0  0  0  0
  139.9220   76.5950  221.4690 N   0  0  0  0  0  0  0  0  0  0  0  0
  140.4960   75.2800  221.4630 C   0  0  0  0  0  0  0  0  0  0  0  0
  139.8800   74.2600  222.1160 N   0  0  0  0  0  0  0  0  0  0  0  0
  140.4450   73.0280  222.1440 C   0  0  0  0  0  0  0  0  0  0  0  0
  139.8310   71.9410  222.9690 C   0  0  0  0  0  0  0  0  0  0  0  0
  140.8160   71.4010  224.0150 C   0  0  0  0  0  0  0  0  0  0  0  0
  140.1880   71.3600  225.3600 N   0  0  0  0  0  0  0  0  0  0  0  0
  139.5980   70.0300  225.6820 C   0  0  0  0  0  0  0  0  0  0  0  0
  140.4830   69.2030  226.6210 C   0  0  0  0  0  0  0  0  0  0  0  0
  140.7010   69.9280  227.9590 C   0  0  0  0  0  0  0  0  0  0  0  0
  140.6720   71.4590  227.8120 C   0  0  0  0  0  0  0  0  0  0  0  0
  141.1050   71.8840  226.4030 C   0  0  0  0  0  0  0  0  0  0  0  0
  141.6310   72.8160  221.5190 N   0  0  0  0  0  0  0  0  0  0  0  0
  142.2540   73.8260  220.8570 C   0  0  0  0  0  0  0  0  0  0  0  0
  143.5120   73.5930  220.1890 N   0  0  0  0  0  0  0  0  0  0  0  0
  144.7140   73.3030  220.9860 C   0  0  0  0  0  0  0  0  0  0  0  0
  145.9830   73.7200  220.2270 C   0  0  0  0  0  0  0  0  0  0  0  0
  145.9870   73.1400  218.8780 N   0  0  0  0  0  0  0  0  0  0  0  0
  144.8420   73.6430  218.1100 C   0  0  0  0  0  0  0  0  0  0  0  0
  143.5260   73.2130  218.7680 C   0  0  0  0  0  0  0  0  0  0  0  0
  141.6840   75.0590  220.8430 N   0  0  0  0  0  0  0  0  0  0  0  0
  139.8400   77.3710  222.7090 C   0  0  0  0  0  0  0  0  0  0  0  0
  143.1439   81.6560  222.6273 H   0  0  0  0  0  0  0  0  0  0  0  0
  142.1691   80.8589  224.7800 H   0  0  0  0  0  0  0  0  0  0  0  0
  140.6654   78.8700  224.8113 H   0  0  0  0  0  0  0  0  0  0  0  0
  142.6252   80.4686  220.4970 H   0  0  0  0  0  0  0  0  0  0  0  0
  140.8917   79.0241  219.3430 H   0  0  0  0  0  0  0  0  0  0  0  0
  141.9474   77.6587  219.9088 H   0  0  0  0  0  0  0  0  0  0  0  0
  138.9262   77.9541  220.2043 H   0  0  0  0  0  0  0  0  0  0  0  0
  139.8394   76.6646  219.3618 H   0  0  0  0  0  0  0  0  0  0  0  0
  138.9459   72.3412  223.4852 H   0  0  0  0  0  0  0  0  0  0  0  0
  139.5540   71.1145  222.2981 H   0  0  0  0  0  0  0  0  0  0  0  0
  141.1234   70.3841  223.7295 H   0  0  0  0  0  0  0  0  0  0  0  0
  141.6893   72.0686  224.0542 H   0  0  0  0  0  0  0  0  0  0  0  0
  138.6217   70.1854  226.1644 H   0  0  0  0  0  0  0  0  0  0  0  0
  139.5011   69.4720  224.7390 H   0  0  0  0  0  0  0  0  0  0  0  0
  139.9972   68.2348  226.8122 H   0  0  0  0  0  0  0  0  0  0  0  0
  141.4613   69.0569  226.1398 H   0  0  0  0  0  0  0  0  0  0  0  0
  139.9067   69.6257  228.6573 H   0  0  0  0  0  0  0  0  0  0  0  0
  141.6969   69.6473  228.3325 H   0  0  0  0  0  0  0  0  0  0  0  0
  139.6493   71.8190  227.9980 H   0  0  0  0  0  0  0  0  0  0  0  0
  141.3721   71.8944  228.5402 H   0  0  0  0  0  0  0  0  0  0  0  0
  141.1132   72.9827  226.3498 H   0  0  0  0  0  0  0  0  0  0  0  0
  142.1067   71.4702  226.2151 H   0  0  0  0  0  0  0  0  0  0  0  0
  144.6613   73.8586  221.9339 H   0  0  0  0  0  0  0  0  0  0  0  0
  144.7573   72.2210  221.1794 H   0  0  0  0  0  0  0  0  0  0  0  0
  146.0152   74.8168  220.1500 H   0  0  0  0  0  0  0  0  0  0  0  0
  146.8632   73.3534  220.7754 H   0  0  0  0  0  0  0  0  0  0  0  0
  146.8640   73.4600  218.3990 H   0  0  0  0  0  0  0  0  0  0  0  0
  144.8859   74.7414  218.0716 H   0  0  0  0  0  0  0  0  0  0  0  0
  144.8846   73.2269  217.0926 H   0  0  0  0  0  0  0  0  0  0  0  0
  142.6868   73.7041  218.2537 H   0  0  0  0  0  0  0  0  0  0  0  0
  143.4305   72.1198  218.6912 H   0  0  0  0  0  0  0  0  0  0  0  0
  138.8150   77.7511  222.8310 H   0  0  0  0  0  0  0  0  0  0  0  0
  140.1062   76.7196  223.5544 H   0  0  0  0  0  0  0  0  0  0  0  0
  1  2  2  0
  2  3  1  0
  3  4  2  0
  4  5  1  0
  5  6  2  0
  5  7  1  0
  7  8  1  0
  8  9  1  0
  9 10  1  0
 10 11  2  0
 11 12  1  0
 12 13  1  0
 13 14  1  0
 14 15  1  0
 15 16  1  0
 16 17  1  0
 17 18  1  0
 18 19  1  0
 19 20  1  0
 12 21  2  0
 21 22  1  0
 22 23  1  0
 23 24  1  0
 24 25  1  0
 25 26  1  0
 26 27  1  0
 27 28  1  0
 22 29  2  0
  9 30  1  0
  6  1  1  0
 29 10  1  0
 30  4  1  0
 20 15  1  0
 28 23  1  0
  1 31  1  0
  2 32  1  0
  3 33  1  0
  6 34  1  0
  7 35  1  0
  7 36  1  0
  8 37  1  0
  8 38  1  0
 13 39  1  0
 13 40  1  0
 14 41  1  0
 14 42  1  0
 16 43  1  0
 16 44  1  0
 17 45  1  0
 17 46  1  0
 18 47  1  0
 18 48  1  0
 19 49  1  0
 19 50  1  0
 20 51  1  0
 20 52  1  0
 24 53  1  0
 24 54  1  0
 25 55  1  0
 25 56  1  0
 26 57  1  0
 27 58  1  0
 27 59  1  0
 28 60  1  0
 28 61  1  0
 30 62  1  0
 30 63  1  0
M  END
>  <UniqueID>  (2) 
561

>  <SMILES>  (2) 
c1ccc2c(c1)CCN(c1nc(CCN3CCCCC3)nc(N3CCNCC3)n1)C2

>  <Energy>  (2) 
71.46089149546641

>  <Genealogy>  (2) 
c1ccc2c(c1)CCN(c1nc(CCN3CCCCC3)nc(N3CCNCC3)n1)C2 (3D coordinates assigned)
c1ccc2c(c1)CCN(c1nc(CCN3CCCCC3)nc(N3CCNCC3)n1)C2 (nonaromatic ring conformer: 71.46089149546641 kcal/mol)

>  <smiles>  (2) 
c1ccc2c(c1)CCN(c1nc(CCN3CCCCC3)nc(N3CCNCC3)n1)C2

>  <score_type>  (2) 
oracle

>  <origin>  (2) 
autodockgpu

>  <m_score__min__energy>  (2) 
-9.8000000000000007

>  <m_primary>  (2) 
energy

>  <meeko>  (2) 
{"free_energy": -9.79, "intermolecular_energy": -11.28, "internal_energy": -0.89, "cluster_size": 17, "cluster_id": 1, "rank_in_cluster": 3}

>  <energy>  (2) 
-9.79

>  <cluster_rmsd>  (2) 
0.04

>  <rmsd>  (2) 
271.87

>  <cluster>  (2) 
1

$$$$
GZRQFJZYBWHXJG-UHFFFAOYNA-N
     RDKit          3D

 63 67  0  0  0  0  0  0  0  0999 V2000
  133.6330   72.7350  226.6190 C   0  0  0  0  0  0  0  0  0  0  0  0
  133.7990   71.4930  226.0010 C   0  0  0  0  0  0  0  0  0  0  0  0
  134.4240   71.4100  224.7550 C   0  0  0  0  0  0  0  0  0  0  0  0
  134.8940   72.5720  224.1180 C   0  0  0  0  0  0  0  0  0  0  0  0
  134.7010   73.8370  224.7310 C   0  0  0  0  0  0  0  0  0  0  0  0
  134.0860   73.9000  225.9920 C   0  0  0  0  0  0  0  0  0  0  0  0
  135.2230   75.1120  224.1030 C   0  0  0  0  0  0  0  0  0  0  0  0
  135.5090   74.9450  222.6060 C   0  0  0  0  0  0  0  0  0  0  0  0
  136.2310   73.6870  222.4050 N   0  0  0  0  0  0  0  0  0  0  0  0
  137.6640   73.6990  222.3320 C   0  0  0  0  0  0  0  0  0  0  0  0
  138.3760   72.5860  222.6480 N   0  0  0  0  0  0  0  0  0  0  0  0
  139.7310   72.6110  222.6180 C   0  0  0  0  0  0  0  0  0  0  0  0
  140.5120   71.4250  223.0870 C   0  0  0  0  0  0  0  0  0  0  0  0
  139.6190   70.4160  223.8230 C   0  0  0  0  0  0  0  0  0  0  0  0
  139.5140   70.7580  225.2650 N   0  0  0  0  0  0  0  0  0  0  0  0
  139.1740   69.5820  226.1150 C   0  0  0  0  0  0  0  0  0  0  0  0
  140.3920   69.0150  226.8520 C   0  0  0  0  0  0  0  0  0  0  0  0
  141.0170   70.0680  227.7820 C   0  0  0  0  0  0  0  0  0  0  0  0
  140.8280   71.5030  227.2590 C   0  0  0  0  0  0  0  0  0  0  0  0
  140.7010   71.5190  225.7300 C   0  0  0  0  0  0  0  0  0  0  0  0
  140.3750   73.7550  222.2760 N   0  0  0  0  0  0  0  0  0  0  0  0
  139.6750   74.8750  221.9530 C   0  0  0  0  0  0  0  0  0  0  0  0
  140.3660   76.0860  221.5830 N   0  0  0  0  0  0  0  0  0  0  0  0
  140.9310   76.2150  220.2300 C   0  0  0  0  0  0  0  0  0  0  0  0
  142.1140   77.1940  220.2270 C   0  0  0  0  0  0  0  0  0  0  0  0
  141.7300   78.4650  220.8550 N   0  0  0  0  0  0  0  0  0  0  0  0
  141.3610   78.2430  222.2580 C   0  0  0  0  0  0  0  0  0  0  0  0
  140.1390   77.3210  222.3490 C   0  0  0  0  0  0  0  0  0  0  0  0
  138.3180   74.8400  221.9940 N   0  0  0  0  0  0  0  0  0  0  0  0
  135.5080   72.4580  222.7460 C   0  0  0  0  0  0  0  0  0  0  0  0
  133.1441   72.7967  227.6025 H   0  0  0  0  0  0  0  0  0  0  0  0
  133.4371   70.5799  226.4963 H   0  0  0  0  0  0  0  0  0  0  0  0
  134.5492   70.4309  224.2696 H   0  0  0  0  0  0  0  0  0  0  0  0
  133.9597   74.8726  226.4900 H   0  0  0  0  0  0  0  0  0  0  0  0
  134.4718   75.9048  224.2339 H   0  0  0  0  0  0  0  0  0  0  0  0
  136.1691   75.3710  224.6008 H   0  0  0  0  0  0  0  0  0  0  0  0
  134.5612   74.9214  222.0482 H   0  0  0  0  0  0  0  0  0  0  0  0
  136.1154   75.7880  222.2433 H   0  0  0  0  0  0  0  0  0  0  0  0
  140.9673   70.9303  222.2164 H   0  0  0  0  0  0  0  0  0  0  0  0
  141.2841   71.7763  223.7873 H   0  0  0  0  0  0  0  0  0  0  0  0
  138.6144   70.4296  223.3751 H   0  0  0  0  0  0  0  0  0  0  0  0
  140.0664   69.4154  223.7296 H   0  0  0  0  0  0  0  0  0  0  0  0
  138.4243   69.8900  226.8587 H   0  0  0  0  0  0  0  0  0  0  0  0
  138.7886   68.7928  225.4527 H   0  0  0  0  0  0  0  0  0  0  0  0
  140.0775   68.1479  227.4514 H   0  0  0  0  0  0  0  0  0  0  0  0
  141.1440   68.7177  226.1062 H   0  0  0  0  0  0  0  0  0  0  0  0
  140.5450   69.9885  228.7724 H   0  0  0  0  0  0  0  0  0  0  0  0
  142.0979   69.8702  227.8320 H   0  0  0  0  0  0  0  0  0  0  0  0
  139.9150   71.9293  227.7002 H   0  0  0  0  0  0  0  0  0  0  0  0
  141.7080   72.0984  227.5437 H   0  0  0  0  0  0  0  0  0  0  0  0
  140.6099   72.5617  225.3916 H   0  0  0  0  0  0  0  0  0  0  0  0
  141.5982   71.0422  225.3084 H   0  0  0  0  0  0  0  0  0  0  0  0
  141.2776   75.2287  219.8879 H   0  0  0  0  0  0  0  0  0  0  0  0
  140.1514   76.6002  219.5564 H   0  0  0  0  0  0  0  0  0  0  0  0
  142.9514   76.7519  220.7867 H   0  0  0  0  0  0  0  0  0  0  0  0
  142.4140   77.3871  219.1865 H   0  0  0  0  0  0  0  0  0  0  0  0
  142.5700   79.0930  220.8380 H   0  0  0  0  0  0  0  0  0  0  0  0
  142.2064   77.7777  222.7860 H   0  0  0  0  0  0  0  0  0  0  0  0
  141.1137   79.2103  222.7197 H   0  0  0  0  0  0  0  0  0  0  0  0
  139.9569   77.0646  223.4031 H   0  0  0  0  0  0  0  0  0  0  0  0
  139.2671   77.8442  221.9294 H   0  0  0  0  0  0  0  0  0  0  0  0
  134.7121   72.2887  222.0058 H   0  0  0  0  0  0  0  0  0  0  0  0
  136.2151   71.6154  222.7408 H   0  0  0  0  0  0  0  0  0  0  0  0
  1  2  2  0
  2  3  1  0
  3  4  2  0
  4  5  1  0
  5  6  2  0
  5  7  1  0
  7  8  1  0
  8  9  1  0
  9 10  1  0
 10 11  2  0
 11 12  1  0
 12 13  1  0
 13 14  1  0
 14 15  1  0
 15 16  1  0
 16 17  1  0
 17 18  1  0
 18 19  1  0
 19 20  1  0
 12 21  2  0
 21 22  1  0
 22 23  1  0
 23 24  1  0
 24 25  1  0
 25 26  1  0
 26 27  1  0
 27 28  1  0
 22 29  2  0
  9 30  1  0
  6  1  1  0
 29 10  1  0
 30  4  1  0
 20 15  1  0
 28 23  1  0
  1 31  1  0
  2 32  1  0
  3 33  1  0
  6 34  1  0
  7 35  1  0
  7 36  1  0
  8 37  1  0
  8 38  1  0
 13 39  1  0
 13 40  1  0
 14 41  1  0
 14 42  1  0
 16 43  1  0
 16 44  1  0
 17 45  1  0
 17 46  1  0
 18 47  1  0
 18 48  1  0
 19 49  1  0
 19 50  1  0
 20 51  1  0
 20 52  1  0
 24 53  1  0
 24 54  1  0
 25 55  1  0
 25 56  1  0
 26 57  1  0
 27 58  1  0
 27 59  1  0
 28 60  1  0
 28 61  1  0
 30 62  1  0
 30 63  1  0
M  END
>  <UniqueID>  (3) 
561

>  <SMILES>  (3) 
c1ccc2c(c1)CCN(c1nc(CCN3CCCCC3)nc(N3CCNCC3)n1)C2

>  <Energy>  (3) 
71.46089149546641

>  <Genealogy>  (3) 
c1ccc2c(c1)CCN(c1nc(CCN3CCCCC3)nc(N3CCNCC3)n1)C2 (3D coordinates assigned)
c1ccc2c(c1)CCN(c1nc(CCN3CCCCC3)nc(N3CCNCC3)n1)C2 (nonaromatic ring conformer: 71.46089149546641 kcal/mol)

>  <smiles>  (3) 
c1ccc2c(c1)CCN(c1nc(CCN3CCCCC3)nc(N3CCNCC3)n1)C2

>  <score_type>  (3) 
oracle

>  <origin>  (3) 
autodockgpu

>  <m_score__min__energy>  (3) 
-9.8000000000000007

>  <m_primary>  (3) 
energy

>  <meeko>  (3) 
{"free_energy": -7.58, "intermolecular_energy": -9.07, "internal_energy": -1.22, "cluster_size": 1, "cluster_id": 2, "rank_in_cluster": 1}

>  <energy>  (3) 
-9.79

>  <cluster_rmsd>  (3) 
0.03

>  <rmsd>  (3) 
271.89

>  <cluster>  (3) 
1

$$$$
GZRQFJZYBWHXJG-UHFFFAOYNA-N
     RDKit          3D

 63 67  0  0  0  0  0  0  0  0999 V2000
  142.5030   80.8110  222.6180 C   0  0  0  0  0  0  0  0  0  0  0  0
  141.9780   80.3610  223.8320 C   0  0  0  0  0  0  0  0  0  0  0  0
  141.1340   79.2480  223.8580 C   0  0  0  0  0  0  0  0  0  0  0  0
  140.8120   78.5720  222.6690 C   0  0  0  0  0  0  0  0  0  0  0  0
  141.3210   79.0450  221.4320 C   0  0  0  0  0  0  0  0  0  0  0  0
  142.1830   80.1550  221.4250 C   0  0  0  0  0  0  0  0  0  0  0  0
  141.0360   78.3280  220.1290 C   0  0  0  0  0  0  0  0  0  0  0  0
  139.8140   77.4080  220.2320 C   0  0  0  0  0  0  0  0  0  0  0  0
  139.9070   76.6420  221.4770 N   0  0  0  0  0  0  0  0  0  0  0  0
  140.4760   75.3250  221.4550 C   0  0  0  0  0  0  0  0  0  0  0  0
  139.8470   74.2970  222.0820 N   0  0  0  0  0  0  0  0  0  0  0  0
  140.4060   73.0620  222.0950 C   0  0  0  0  0  0  0  0  0  0  0  0
  139.7760   71.9640  222.8920 C   0  0  0  0  0  0  0  0  0  0  0  0
  140.7550   71.3810  223.9210 C   0  0  0  0  0  0  0  0  0  0  0  0
  140.1520   71.3750  225.2790 N   0  0  0  0  0  0  0  0  0  0  0  0
  139.5320   70.0660  225.6310 C   0  0  0  0  0  0  0  0  0  0  0  0
  140.4130   69.2280  226.5640 C   0  0  0  0  0  0  0  0  0  0  0  0
  140.6760   69.9650  227.8880 C   0  0  0  0  0  0  0  0  0  0  0  0
  140.6860   71.4940  227.7200 C   0  0  0  0  0  0  0  0  0  0  0  0
  141.1030   71.8880  226.2960 C   0  0  0  0  0  0  0  0  0  0  0  0
  141.5990   72.8560  221.4820 N   0  0  0  0  0  0  0  0  0  0  0  0
  142.2360   73.8750  220.8460 C   0  0  0  0  0  0  0  0  0  0  0  0
  143.5010   73.6480  220.1900 N   0  0  0  0  0  0  0  0  0  0  0  0
  144.6920   73.3420  220.9980 C   0  0  0  0  0  0  0  0  0  0  0  0
  145.9710   73.7670  220.2610 C   0  0  0  0  0  0  0  0  0  0  0  0
  145.9910   73.2070  218.9040 N   0  0  0  0  0  0  0  0  0  0  0  0
  144.8580   73.7260  218.1290 C   0  0  0  0  0  0  0  0  0  0  0  0
  143.5320   73.2900  218.7640 C   0  0  0  0  0  0  0  0  0  0  0  0
  141.6700   75.1100  220.8470 N   0  0  0  0  0  0  0  0  0  0  0  0
  139.8500   77.4130  222.7220 C   0  0  0  0  0  0  0  0  0  0  0  0
  143.1708   81.6849  222.6004 H   0  0  0  0  0  0  0  0  0  0  0  0
  142.2291   80.8829  224.7672 H   0  0  0  0  0  0  0  0  0  0  0  0
  140.7191   78.8988  224.8150 H   0  0  0  0  0  0  0  0  0  0  0  0
  142.6088   80.5102  220.4750 H   0  0  0  0  0  0  0  0  0  0  0  0
  140.8508   79.0772  219.3451 H   0  0  0  0  0  0  0  0  0  0  0  0
  141.9096   77.7048  219.8873 H   0  0  0  0  0  0  0  0  0  0  0  0
  138.8949   78.0124  220.2369 H   0  0  0  0  0  0  0  0  0  0  0  0
  139.7866   76.7232  219.3716 H   0  0  0  0  0  0  0  0  0  0  0  0
  138.8986   72.3646  223.4208 H   0  0  0  0  0  0  0  0  0  0  0  0
  139.4838   71.1601  222.2003 H   0  0  0  0  0  0  0  0  0  0  0  0
  141.0078   70.3496  223.6342 H   0  0  0  0  0  0  0  0  0  0  0  0
  141.6600   72.0060  223.9400 H   0  0  0  0  0  0  0  0  0  0  0  0
  138.5701   70.2547  226.1302 H   0  0  0  0  0  0  0  0  0  0  0  0
  139.4006   69.4982  224.6981 H   0  0  0  0  0  0  0  0  0  0  0  0
  139.9056   68.2757  226.7777 H   0  0  0  0  0  0  0  0  0  0  0  0
  141.3775   69.0493  226.0663 H   0  0  0  0  0  0  0  0  0  0  0  0
  139.8870   69.6942  228.6051 H   0  0  0  0  0  0  0  0  0  0  0  0
  141.6706   69.6620  228.2470 H   0  0  0  0  0  0  0  0  0  0  0  0
  139.6774   71.8846  227.9206 H   0  0  0  0  0  0  0  0  0  0  0  0
  141.4119   71.9198  228.4283 H   0  0  0  0  0  0  0  0  0  0  0  0
  141.1398   72.9852  226.2270 H   0  0  0  0  0  0  0  0  0  0  0  0
  142.0894   71.4447  226.0947 H   0  0  0  0  0  0  0  0  0  0  0  0
  144.6290   73.8831  221.9536 H   0  0  0  0  0  0  0  0  0  0  0  0
  144.7299   72.2572  221.1759 H   0  0  0  0  0  0  0  0  0  0  0  0
  146.0064   74.8648  220.2004 H   0  0  0  0  0  0  0  0  0  0  0  0
  146.8434   73.3902  220.8149 H   0  0  0  0  0  0  0  0  0  0  0  0
  146.8750   73.5330  218.4410 H   0  0  0  0  0  0  0  0  0  0  0  0
  144.9060   74.8248  218.1082 H   0  0  0  0  0  0  0  0  0  0  0  0
  144.9123   73.3260  217.1057 H   0  0  0  0  0  0  0  0  0  0  0  0
  142.7008   73.7916  218.2468 H   0  0  0  0  0  0  0  0  0  0  0  0
  143.4343   72.1984  218.6693 H   0  0  0  0  0  0  0  0  0  0  0  0
  138.8288   77.7963  222.8641 H   0  0  0  0  0  0  0  0  0  0  0  0
  140.1286   76.7571  223.5600 H   0  0  0  0  0  0  0  0  0  0  0  0
  1  2  2  0
  2  3  1  0
  3  4  2  0
  4  5  1  0
  5  6  2  0
  5  7  1  0
  7  8  1  0
  8  9  1  0
  9 10  1  0
 10 11  2  0
 11 12  1  0
 12 13  1  0
 13 14  1  0
 14 15  1  0
 15 16  1  0
 16 17  1  0
 17 18  1  0
 18 19  1  0
 19 20  1  0
 12 21  2  0
 21 22  1  0
 22 23  1  0
 23 24  1  0
 24 25  1  0
 25 26  1  0
 26 27  1  0
 27 28  1  0
 22 29  2  0
  9 30  1  0
  6  1  1  0
 29 10  1  0
 30  4  1  0
 20 15  1  0
 28 23  1  0
  1 31  1  0
  2 32  1  0
  3 33  1  0
  6 34  1  0
  7 35  1  0
  7 36  1  0
  8 37  1  0
  8 38  1  0
 13 39  1  0
 13 40  1  0
 14 41  1  0
 14 42  1  0
 16 43  1  0
 16 44  1  0
 17 45  1  0
 17 46  1  0
 18 47  1  0
 18 48  1  0
 19 49  1  0
 19 50  1  0
 20 51  1  0
 20 52  1  0
 24 53  1  0
 24 54  1  0
 25 55  1  0
 25 56  1  0
 26 57  1  0
 27 58  1  0
 27 59  1  0
 28 60  1  0
 28 61  1  0
 30 62  1  0
 30 63  1  0
M  END
>  <UniqueID>  (4) 
561

>  <SMILES>  (4) 
c1ccc2c(c1)CCN(c1nc(CCN3CCCCC3)nc(N3CCNCC3)n1)C2

>  <Energy>  (4) 
71.46089149546641

>  <Genealogy>  (4) 
c1ccc2c(c1)CCN(c1nc(CCN3CCCCC3)nc(N3CCNCC3)n1)C2 (3D coordinates assigned)
c1ccc2c(c1)CCN(c1nc(CCN3CCCCC3)nc(N3CCNCC3)n1)C2 (nonaromatic ring conformer: 71.46089149546641 kcal/mol)

>  <smiles>  (4) 
c1ccc2c(c1)CCN(c1nc(CCN3CCCCC3)nc(N3CCNCC3)n1)C2

>  <score_type>  (4) 
oracle

>  <origin>  (4) 
autodockgpu

>  <m_score__min__energy>  (4) 
-9.8000000000000007

>  <m_primary>  (4) 
energy

>  <meeko>  (4) 
{"free_energy": -9.79, "intermolecular_energy": -11.28, "internal_energy": -0.9, "cluster_size": 17, "cluster_id": 1, "rank_in_cluster": 6}

>  <energy>  (4) 
-9.79

>  <cluster_rmsd>  (4) 
0.06

>  <rmsd>  (4) 
271.88

>  <cluster>  (4) 
1

$$$$
GZRQFJZYBWHXJG-UHFFFAOYNA-N
     RDKit          3D

 63 67  0  0  0  0  0  0  0  0999 V2000
  142.5140   80.7970  222.6260 C   0  0  0  0  0  0  0  0  0  0  0  0
  141.9760   80.3530  223.8360 C   0  0  0  0  0  0  0  0  0  0  0  0
  141.1330   79.2390  223.8600 C   0  0  0  0  0  0  0  0  0  0  0  0
  140.8240   78.5570  222.6710 C   0  0  0  0  0  0  0  0  0  0  0  0
  141.3460   79.0240  221.4360 C   0  0  0  0  0  0  0  0  0  0  0  0
  142.2060   80.1350  221.4330 C   0  0  0  0  0  0  0  0  0  0  0  0
  141.0750   78.3010  220.1340 C   0  0  0  0  0  0  0  0  0  0  0  0
  139.8530   77.3800  220.2280 C   0  0  0  0  0  0  0  0  0  0  0  0
  139.9340   76.6200  221.4780 N   0  0  0  0  0  0  0  0  0  0  0  0
  140.5040   75.3040  221.4680 C   0  0  0  0  0  0  0  0  0  0  0  0
  139.8790   74.2820  222.1100 N   0  0  0  0  0  0  0  0  0  0  0  0
  140.4400   73.0480  222.1350 C   0  0  0  0  0  0  0  0  0  0  0  0
  139.8160   71.9580  222.9470 C   0  0  0  0  0  0  0  0  0  0  0  0
  140.7920   71.4070  223.9970 C   0  0  0  0  0  0  0  0  0  0  0  0
  140.1580   71.3710  225.3400 N   0  0  0  0  0  0  0  0  0  0  0  0
  139.5490   70.0480  225.6570 C   0  0  0  0  0  0  0  0  0  0  0  0
  140.4200   69.2070  226.5970 C   0  0  0  0  0  0  0  0  0  0  0  0
  140.6420   69.9270  227.9380 C   0  0  0  0  0  0  0  0  0  0  0  0
  140.6340   71.4580  227.7940 C   0  0  0  0  0  0  0  0  0  0  0  0
  141.0780   71.8810  226.3870 C   0  0  0  0  0  0  0  0  0  0  0  0
  141.6300   72.8360  221.5190 N   0  0  0  0  0  0  0  0  0  0  0  0
  142.2630   73.8490  220.8680 C   0  0  0  0  0  0  0  0  0  0  0  0
  143.5250   73.6160  220.2090 N   0  0  0  0  0  0  0  0  0  0  0  0
  144.7200   73.3200  221.0140 C   0  0  0  0  0  0  0  0  0  0  0  0
  145.9960   73.7370  220.2670 C   0  0  0  0  0  0  0  0  0  0  0  0
  146.0090   73.1630  218.9150 N   0  0  0  0  0  0  0  0  0  0  0  0
  144.8710   73.6720  218.1410 C   0  0  0  0  0  0  0  0  0  0  0  0
  143.5500   73.2420  218.7860 C   0  0  0  0  0  0  0  0  0  0  0  0
  141.6960   75.0830  220.8580 N   0  0  0  0  0  0  0  0  0  0  0  0
  139.8630   77.3970  222.7190 C   0  0  0  0  0  0  0  0  0  0  0  0
  143.1824   81.6705  222.6112 H   0  0  0  0  0  0  0  0  0  0  0  0
  142.2161   80.8807  224.7708 H   0  0  0  0  0  0  0  0  0  0  0  0
  140.7090   78.8941  224.8146 H   0  0  0  0  0  0  0  0  0  0  0  0
  142.6402   80.4868  220.4855 H   0  0  0  0  0  0  0  0  0  0  0  0
  140.8972   79.0465  219.3449 H   0  0  0  0  0  0  0  0  0  0  0  0
  141.9517   77.6775  219.9045 H   0  0  0  0  0  0  0  0  0  0  0  0
  138.9332   77.9832  220.2202 H   0  0  0  0  0  0  0  0  0  0  0  0
  139.8354   76.6912  219.3705 H   0  0  0  0  0  0  0  0  0  0  0  0
  138.9285   72.3577  223.4594 H   0  0  0  0  0  0  0  0  0  0  0  0
  139.5408   71.1373  222.2683 H   0  0  0  0  0  0  0  0  0  0  0  0
  141.0905   70.3874  223.7118 H   0  0  0  0  0  0  0  0  0  0  0  0
  141.6718   72.0659  224.0403 H   0  0  0  0  0  0  0  0  0  0  0  0
  138.5733   70.2154  226.1366 H   0  0  0  0  0  0  0  0  0  0  0  0
  139.4476   69.4935  224.7124 H   0  0  0  0  0  0  0  0  0  0  0  0
  139.9211   68.2446  226.7841 H   0  0  0  0  0  0  0  0  0  0  0  0
  141.3981   69.0488  226.1191 H   0  0  0  0  0  0  0  0  0  0  0  0
  139.8407   69.6340  228.6324 H   0  0  0  0  0  0  0  0  0  0  0  0
  141.6325   69.6324  228.3151 H   0  0  0  0  0  0  0  0  0  0  0  0
  139.6155   71.8311  227.9771 H   0  0  0  0  0  0  0  0  0  0  0  0
  141.3374   71.8823  228.5256 H   0  0  0  0  0  0  0  0  0  0  0  0
  141.1004   72.9796  226.3363 H   0  0  0  0  0  0  0  0  0  0  0  0
  142.0752   71.4552  226.2016 H   0  0  0  0  0  0  0  0  0  0  0  0
  144.6611   73.8718  221.9638 H   0  0  0  0  0  0  0  0  0  0  0  0
  144.7593   72.2371  221.2031 H   0  0  0  0  0  0  0  0  0  0  0  0
  146.0318   74.8341  220.1953 H   0  0  0  0  0  0  0  0  0  0  0  0
  146.8709   73.3655  220.8206 H   0  0  0  0  0  0  0  0  0  0  0  0
  146.8900   73.4840  218.4440 H   0  0  0  0  0  0  0  0  0  0  0  0
  144.9175   74.7705  218.1084 H   0  0  0  0  0  0  0  0  0  0  0  0
  144.9206   73.2606  217.1221 H   0  0  0  0  0  0  0  0  0  0  0  0
  142.7159   73.7369  218.2670 H   0  0  0  0  0  0  0  0  0  0  0  0
  143.4533   72.1493  218.7038 H   0  0  0  0  0  0  0  0  0  0  0  0
  138.8399   77.7796  222.8485 H   0  0  0  0  0  0  0  0  0  0  0  0
  140.1337   76.7453  223.5628 H   0  0  0  0  0  0  0  0  0  0  0  0
  1  2  2  0
  2  3  1  0
  3  4  2  0
  4  5  1  0
  5  6  2  0
  5  7  1  0
  7  8  1  0
  8  9  1  0
  9 10  1  0
 10 11  2  0
 11 12  1  0
 12 13  1  0
 13 14  1  0
 14 15  1  0
 15 16  1  0
 16 17  1  0
 17 18  1  0
 18 19  1  0
 19 20  1  0
 12 21  2  0
 21 22  1  0
 22 23  1  0
 23 24  1  0
 24 25  1  0
 25 26  1  0
 26 27  1  0
 27 28  1  0
 22 29  2  0
  9 30  1  0
  6  1  1  0
 29 10  1  0
 30  4  1  0
 20 15  1  0
 28 23  1  0
  1 31  1  0
  2 32  1  0
  3 33  1  0
  6 34  1  0
  7 35  1  0
  7 36  1  0
  8 37  1  0
  8 38  1  0
 13 39  1  0
 13 40  1  0
 14 41  1  0
 14 42  1  0
 16 43  1  0
 16 44  1  0
 17 45  1  0
 17 46  1  0
 18 47  1  0
 18 48  1  0
 19 49  1  0
 19 50  1  0
 20 51  1  0
 20 52  1  0
 24 53  1  0
 24 54  1  0
 25 55  1  0
 25 56  1  0
 26 57  1  0
 27 58  1  0
 27 59  1  0
 28 60  1  0
 28 61  1  0
 30 62  1  0
 30 63  1  0
M  END
>  <UniqueID>  (5) 
561

>  <SMILES>  (5) 
c1ccc2c(c1)CCN(c1nc(CCN3CCCCC3)nc(N3CCNCC3)n1)C2

>  <Energy>  (5) 
71.46089149546641

>  <Genealogy>  (5) 
c1ccc2c(c1)CCN(c1nc(CCN3CCCCC3)nc(N3CCNCC3)n1)C2 (3D coordinates assigned)
c1ccc2c(c1)CCN(c1nc(CCN3CCCCC3)nc(N3CCNCC3)n1)C2 (nonaromatic ring conformer: 71.46089149546641 kcal/mol)

>  <smiles>  (5) 
c1ccc2c(c1)CCN(c1nc(CCN3CCCCC3)nc(N3CCNCC3)n1)C2

>  <score_type>  (5) 
oracle

>  <origin>  (5) 
autodockgpu

>  <m_score__min__energy>  (5) 
-9.8000000000000007

>  <m_primary>  (5) 
energy

>  <meeko>  (5) 
{"free_energy": -9.78, "intermolecular_energy": -11.28, "internal_energy": -0.9, "cluster_size": 17, "cluster_id": 1, "rank_in_cluster": 7}

>  <energy>  (5) 
-9.79

>  <cluster_rmsd>  (5) 
0.08

>  <rmsd>  (5) 
271.87

>  <cluster>  (5) 
1

$$$$
GZRQFJZYBWHXJG-UHFFFAOYNA-N
     RDKit          3D

 63 67  0  0  0  0  0  0  0  0999 V2000
  142.4690   80.5580  222.6540 C   0  0  0  0  0  0  0  0  0  0  0  0
  141.8740   80.1450  223.8490 C   0  0  0  0  0  0  0  0  0  0  0  0
  141.0000   79.0550  223.8540 C   0  0  0  0  0  0  0  0  0  0  0  0
  140.7180   78.3650  222.6630 C   0  0  0  0  0  0  0  0  0  0  0  0
  141.2990   78.8010  221.4440 C   0  0  0  0  0  0  0  0  0  0  0  0
  142.1890   79.8880  221.4580 C   0  0  0  0  0  0  0  0  0  0  0  0
  141.0570   78.0680  220.1410 C   0  0  0  0  0  0  0  0  0  0  0  0
  139.8070   77.1820  220.2000 C   0  0  0  0  0  0  0  0  0  0  0  0
  139.8200   76.4380  221.4620 N   0  0  0  0  0  0  0  0  0  0  0  0
  140.3540   75.1060  221.4910 C   0  0  0  0  0  0  0  0  0  0  0  0
  139.7520   74.1430  222.2370 N   0  0  0  0  0  0  0  0  0  0  0  0
  140.2800   72.8960  222.2950 C   0  0  0  0  0  0  0  0  0  0  0  0
  139.6900   71.8750  223.2150 C   0  0  0  0  0  0  0  0  0  0  0  0
  140.7280   71.3480  224.2160 C   0  0  0  0  0  0  0  0  0  0  0  0
  140.1280   71.1900  225.5650 N   0  0  0  0  0  0  0  0  0  0  0  0
  139.5900   69.8200  225.8020 C   0  0  0  0  0  0  0  0  0  0  0  0
  140.5220   68.9610  226.6640 C   0  0  0  0  0  0  0  0  0  0  0  0
  140.7400   69.5980  228.0470 C   0  0  0  0  0  0  0  0  0  0  0  0
  140.6560   71.1330  228.0100 C   0  0  0  0  0  0  0  0  0  0  0  0
  141.0470   71.6720  226.6270 C   0  0  0  0  0  0  0  0  0  0  0  0
  141.4160   72.6130  221.6090 N   0  0  0  0  0  0  0  0  0  0  0  0
  142.0250   73.5660  220.8540 C   0  0  0  0  0  0  0  0  0  0  0  0
  143.2290   73.2570  220.1210 N   0  0  0  0  0  0  0  0  0  0  0  0
  143.8500   74.2900  219.2780 C   0  0  0  0  0  0  0  0  0  0  0  0
  144.6580   73.6490  218.1400 C   0  0  0  0  0  0  0  0  0  0  0  0
  145.5930   72.6500  218.6740 N   0  0  0  0  0  0  0  0  0  0  0  0
  144.8510   71.5700  219.3350 C   0  0  0  0  0  0  0  0  0  0  0  0
  144.0630   72.1170  220.5310 C   0  0  0  0  0  0  0  0  0  0  0  0
  141.4910   74.8140  220.8100 N   0  0  0  0  0  0  0  0  0  0  0  0
  139.7240   77.2330  222.6890 C   0  0  0  0  0  0  0  0  0  0  0  0
  143.1605   81.4135  222.6536 H   0  0  0  0  0  0  0  0  0  0  0  0
  142.0937   80.6781  224.7858 H   0  0  0  0  0  0  0  0  0  0  0  0
  140.5300   78.7352  224.7957 H   0  0  0  0  0  0  0  0  0  0  0  0
  142.6685   80.2142  220.5233 H   0  0  0  0  0  0  0  0  0  0  0  0
  140.9298   78.8074  219.3366 H   0  0  0  0  0  0  0  0  0  0  0  0
  141.9240   77.4177  219.9526 H   0  0  0  0  0  0  0  0  0  0  0  0
  138.9052   77.8098  220.1493 H   0  0  0  0  0  0  0  0  0  0  0  0
  139.8023   76.4821  219.3514 H   0  0  0  0  0  0  0  0  0  0  0  0
  138.8589   72.3335  223.7709 H   0  0  0  0  0  0  0  0  0  0  0  0
  139.3373   71.0283  222.6078 H   0  0  0  0  0  0  0  0  0  0  0  0
  141.0993   70.3721  223.8701 H   0  0  0  0  0  0  0  0  0  0  0  0
  141.5541   72.0715  224.2805 H   0  0  0  0  0  0  0  0  0  0  0  0
  138.6190   69.9062  226.3116 H   0  0  0  0  0  0  0  0  0  0  0  0
  139.4927   69.3267  224.8236 H   0  0  0  0  0  0  0  0  0  0  0  0
  140.0745   67.9646  226.7938 H   0  0  0  0  0  0  0  0  0  0  0  0
  141.4952   68.8844  226.1571 H   0  0  0  0  0  0  0  0  0  0  0  0
  139.9696   69.2193  228.7348 H   0  0  0  0  0  0  0  0  0  0  0  0
  141.7518   69.3274  228.3831 H   0  0  0  0  0  0  0  0  0  0  0  0
  139.6255   71.4425  228.2385 H   0  0  0  0  0  0  0  0  0  0  0  0
  141.3549   71.5403  228.7554 H   0  0  0  0  0  0  0  0  0  0  0  0
  141.0162   72.7713  226.6520 H   0  0  0  0  0  0  0  0  0  0  0  0
  142.0587   71.3089  226.3931 H   0  0  0  0  0  0  0  0  0  0  0  0
  143.0626   74.9263  218.8478 H   0  0  0  0  0  0  0  0  0  0  0  0
  144.5300   74.8914  219.8992 H   0  0  0  0  0  0  0  0  0  0  0  0
  143.9680   73.1598  217.4367 H   0  0  0  0  0  0  0  0  0  0  0  0
  145.2311   74.4335  217.6242 H   0  0  0  0  0  0  0  0  0  0  0  0
  146.1110   72.2360  217.8610 H   0  0  0  0  0  0  0  0  0  0  0  0
  144.1516   71.1181  218.6163 H   0  0  0  0  0  0  0  0  0  0  0  0
  145.5651   70.8142  219.6938 H   0  0  0  0  0  0  0  0  0  0  0  0
  143.4174   71.3223  220.9330 H   0  0  0  0  0  0  0  0  0  0  0  0
  144.7731   72.4544  221.3003 H   0  0  0  0  0  0  0  0  0  0  0  0
  138.7078   77.6454  222.7746 H   0  0  0  0  0  0  0  0  0  0  0  0
  139.9442   76.5857  223.5507 H   0  0  0  0  0  0  0  0  0  0  0  0
  1  2  2  0
  2  3  1  0
  3  4  2  0
  4  5  1  0
  5  6  2  0
  5  7  1  0
  7  8  1  0
  8  9  1  0
  9 10  1  0
 10 11  2  0
 11 12  1  0
 12 13  1  0
 13 14  1  0
 14 15  1  0
 15 16  1  0
 16 17  1  0
 17 18  1  0
 18 19  1  0
 19 20  1  0
 12 21  2  0
 21 22  1  0
 22 23  1  0
 23 24  1  0
 24 25  1  0
 25 26  1  0
 26 27  1  0
 27 28  1  0
 22 29  2  0
  9 30  1  0
  6  1  1  0
 29 10  1  0
 30  4  1  0
 20 15  1  0
 28 23  1  0
  1 31  1  0
  2 32  1  0
  3 33  1  0
  6 34  1  0
  7 35  1  0
  7 36  1  0
  8 37  1  0
  8 38  1  0
 13 39  1  0
 13 40  1  0
 14 41  1  0
 14 42  1  0
 16 43  1  0
 16 44  1  0
 17 45  1  0
 17 46  1  0
 18 47  1  0
 18 48  1  0
 19 49  1  0
 19 50  1  0
 20 51  1  0
 20 52  1  0
 24 53  1  0
 24 54  1  0
 25 55  1  0
 25 56  1  0
 26 57  1  0
 27 58  1  0
 27 59  1  0
 28 60  1  0
 28 61  1  0
 30 62  1  0
 30 63  1  0
M  END
>  <UniqueID>  (6) 
561

>  <SMILES>  (6) 
c1ccc2c(c1)CCN(c1nc(CCN3CCCCC3)nc(N3CCNCC3)n1)C2

>  <Energy>  (6) 
71.46089149546641

>  <Genealogy>  (6) 
c1ccc2c(c1)CCN(c1nc(CCN3CCCCC3)nc(N3CCNCC3)n1)C2 (3D coordinates assigned)
c1ccc2c(c1)CCN(c1nc(CCN3CCCCC3)nc(N3CCNCC3)n1)C2 (nonaromatic ring conformer: 71.46089149546641 kcal/mol)

>  <smiles>  (6) 
c1ccc2c(c1)CCN(c1nc(CCN3CCCCC3)nc(N3CCNCC3)n1)C2

>  <score_type>  (6) 
oracle

>  <origin>  (6) 
autodockgpu

>  <m_score__min__energy>  (6) 
-9.8000000000000007

>  <m_primary>  (6) 
energy

>  <meeko>  (6) 
{"free_energy": -9.43, "intermolecular_energy": -10.92, "internal_energy": -0.91, "cluster_size": 17, "cluster_id": 1, "rank_in_cluster": 16}

>  <energy>  (6) 
-9.79

>  <cluster_rmsd>  (6) 
0.07

>  <rmsd>  (6) 
271.88

>  <cluster>  (6) 
1

$$$$
GZRQFJZYBWHXJG-UHFFFAOYNA-N
     RDKit          3D

 63 67  0  0  0  0  0  0  0  0999 V2000
  142.5240   80.8070  222.6040 C   0  0  0  0  0  0  0  0  0  0  0  0
  142.0000   80.3600  223.8200 C   0  0  0  0  0  0  0  0  0  0  0  0
  141.1550   79.2480  223.8510 C   0  0  0  0  0  0  0  0  0  0  0  0
  140.8300   78.5700  222.6630 C   0  0  0  0  0  0  0  0  0  0  0  0
  141.3380   79.0400  221.4240 C   0  0  0  0  0  0  0  0  0  0  0  0
  142.2010   80.1480  221.4130 C   0  0  0  0  0  0  0  0  0  0  0  0
  141.0490   78.3210  220.1230 C   0  0  0  0  0  0  0  0  0  0  0  0
  139.8260   77.4020  220.2300 C   0  0  0  0  0  0  0  0  0  0  0  0
  139.9210   76.6390  221.4770 N   0  0  0  0  0  0  0  0  0  0  0  0
  140.4870   75.3210  221.4560 C   0  0  0  0  0  0  0  0  0  0  0  0
  139.8660   74.2990  222.0990 N   0  0  0  0  0  0  0  0  0  0  0  0
  140.4230   73.0630  222.1140 C   0  0  0  0  0  0  0  0  0  0  0  0
  139.8030   71.9710  222.9270 C   0  0  0  0  0  0  0  0  0  0  0  0
  140.7850   71.4170  223.9700 C   0  0  0  0  0  0  0  0  0  0  0  0
  140.1640   71.3930  225.3190 N   0  0  0  0  0  0  0  0  0  0  0  0
  139.5430   70.0790  225.6470 C   0  0  0  0  0  0  0  0  0  0  0  0
  140.4130   69.2320  226.5820 C   0  0  0  0  0  0  0  0  0  0  0  0
  140.6560   69.9530  227.9180 C   0  0  0  0  0  0  0  0  0  0  0  0
  140.6640   71.4840  227.7680 C   0  0  0  0  0  0  0  0  0  0  0  0
  141.0990   71.8970  226.3560 C   0  0  0  0  0  0  0  0  0  0  0  0
  141.6080   72.8510  221.4860 N   0  0  0  0  0  0  0  0  0  0  0  0
  142.2370   73.8640  220.8350 C   0  0  0  0  0  0  0  0  0  0  0  0
  143.4930   73.6310  220.1630 N   0  0  0  0  0  0  0  0  0  0  0  0
  144.6940   73.3270  220.9570 C   0  0  0  0  0  0  0  0  0  0  0  0
  145.9640   73.7440  220.2010 C   0  0  0  0  0  0  0  0  0  0  0  0
  145.9640   73.1770  218.8470 N   0  0  0  0  0  0  0  0  0  0  0  0
  144.8220   73.6940  218.0840 C   0  0  0  0  0  0  0  0  0  0  0  0
  143.5050   73.2650  218.7390 C   0  0  0  0  0  0  0  0  0  0  0  0
  141.6730   75.1000  220.8340 N   0  0  0  0  0  0  0  0  0  0  0  0
  139.8670   77.4130  222.7200 C   0  0  0  0  0  0  0  0  0  0  0  0
  143.1928   81.6801  222.5833 H   0  0  0  0  0  0  0  0  0  0  0  0
  142.2531   80.8841  224.7534 H   0  0  0  0  0  0  0  0  0  0  0  0
  140.7419   78.9011  224.8096 H   0  0  0  0  0  0  0  0  0  0  0  0
  142.6259   80.5000  220.4614 H   0  0  0  0  0  0  0  0  0  0  0  0
  140.8628   79.0691  219.3383 H   0  0  0  0  0  0  0  0  0  0  0  0
  141.9214   77.6964  219.8806 H   0  0  0  0  0  0  0  0  0  0  0  0
  138.9074   78.0071  220.2351 H   0  0  0  0  0  0  0  0  0  0  0  0
  139.7963   76.7153  219.3712 H   0  0  0  0  0  0  0  0  0  0  0  0
  138.9186   72.3698  223.4455 H   0  0  0  0  0  0  0  0  0  0  0  0
  139.5234   71.1521  222.2479 H   0  0  0  0  0  0  0  0  0  0  0  0
  141.0722   70.3936  223.6870 H   0  0  0  0  0  0  0  0  0  0  0  0
  141.6707   72.0686  224.0012 H   0  0  0  0  0  0  0  0  0  0  0  0
  138.5739   70.2596  226.1351 H   0  0  0  0  0  0  0  0  0  0  0  0
  139.4261   69.5220  224.7057 H   0  0  0  0  0  0  0  0  0  0  0  0
  139.9051   68.2760  226.7771 H   0  0  0  0  0  0  0  0  0  0  0  0
  141.3848   69.0619  226.0955 H   0  0  0  0  0  0  0  0  0  0  0  0
  139.8582   69.6716  228.6210 H   0  0  0  0  0  0  0  0  0  0  0  0
  141.6463   69.6481  228.2872 H   0  0  0  0  0  0  0  0  0  0  0  0
  139.6516   71.8693  227.9594 H   0  0  0  0  0  0  0  0  0  0  0  0
  141.3794   71.9027  228.4911 H   0  0  0  0  0  0  0  0  0  0  0  0
  141.1325   72.9951  226.3012 H   0  0  0  0  0  0  0  0  0  0  0  0
  142.0898   71.4599  226.1630 H   0  0  0  0  0  0  0  0  0  0  0  0
  144.6449   73.8742  221.9100 H   0  0  0  0  0  0  0  0  0  0  0  0
  144.7315   72.2431  221.1409 H   0  0  0  0  0  0  0  0  0  0  0  0
  146.0020   74.8413  220.1343 H   0  0  0  0  0  0  0  0  0  0  0  0
  146.8426   73.3673  220.7452 H   0  0  0  0  0  0  0  0  0  0  0  0
  146.8430   73.4980  218.3700 H   0  0  0  0  0  0  0  0  0  0  0  0
  144.8721   74.7925  218.0559 H   0  0  0  0  0  0  0  0  0  0  0  0
  144.8617   73.2880  217.0624 H   0  0  0  0  0  0  0  0  0  0  0  0
  142.6681   73.7653  218.2299 H   0  0  0  0  0  0  0  0  0  0  0  0
  143.4045   72.1730  218.6522 H   0  0  0  0  0  0  0  0  0  0  0  0
  138.8465   77.7980  222.8627 H   0  0  0  0  0  0  0  0  0  0  0  0
  140.1461   76.7587  223.5591 H   0  0  0  0  0  0  0  0  0  0  0  0
  1  2  2  0
  2  3  1  0
  3  4  2  0
  4  5  1  0
  5  6  2  0
  5  7  1  0
  7  8  1  0
  8  9  1  0
  9 10  1  0
 10 11  2  0
 11 12  1  0
 12 13  1  0
 13 14  1  0
 14 15  1  0
 15 16  1  0
 16 17  1  0
 17 18  1  0
 18 19  1  0
 19 20  1  0
 12 21  2  0
 21 22  1  0
 22 23  1  0
 23 24  1  0
 24 25  1  0
 25 26  1  0
 26 27  1  0
 27 28  1  0
 22 29  2  0
  9 30  1  0
  6  1  1  0
 29 10  1  0
 30  4  1  0
 20 15  1  0
 28 23  1  0
  1 31  1  0
  2 32  1  0
  3 33  1  0
  6 34  1  0
  7 35  1  0
  7 36  1  0
  8 37  1  0
  8 38  1  0
 13 39  1  0
 13 40  1  0
 14 41  1  0
 14 42  1  0
 16 43  1  0
 16 44  1  0
 17 45  1  0
 17 46  1  0
 18 47  1  0
 18 48  1  0
 19 49  1  0
 19 50  1  0
 20 51  1  0
 20 52  1  0
 24 53  1  0
 24 54  1  0
 25 55  1  0
 25 56  1  0
 26 57  1  0
 27 58  1  0
 27 59  1  0
 28 60  1  0
 28 61  1  0
 30 62  1  0
 30 63  1  0
M  END
>  <UniqueID>  (7) 
561

>  <SMILES>  (7) 
c1ccc2c(c1)CCN(c1nc(CCN3CCCCC3)nc(N3CCNCC3)n1)C2

>  <Energy>  (7) 
71.46089149546641

>  <Genealogy>  (7) 
c1ccc2c(c1)CCN(c1nc(CCN3CCCCC3)nc(N3CCNCC3)n1)C2 (3D coordinates assigned)
c1ccc2c(c1)CCN(c1nc(CCN3CCCCC3)nc(N3CCNCC3)n1)C2 (nonaromatic ring conformer: 71.46089149546641 kcal/mol)

>  <smiles>  (7) 
c1ccc2c(c1)CCN(c1nc(CCN3CCCCC3)nc(N3CCNCC3)n1)C2

>  <score_type>  (7) 
oracle

>  <origin>  (7) 
autodockgpu

>  <m_score__min__energy>  (7) 
-9.8000000000000007

>  <m_primary>  (7) 
energy

>  <meeko>  (7) 
{"free_energy": -9.79, "intermolecular_energy": -11.28, "internal_energy": -0.9, "cluster_size": 17, "cluster_id": 1, "rank_in_cluster": 2}

>  <energy>  (7) 
-9.78

>  <cluster_rmsd>  (7) 
0.05

>  <rmsd>  (7) 
271.9

>  <cluster>  (7) 
1

$$$$
GZRQFJZYBWHXJG-UHFFFAOYNA-N
     RDKit          3D

 63 67  0  0  0  0  0  0  0  0999 V2000
  142.5140   80.7810  222.6240 C   0  0  0  0  0  0  0  0  0  0  0  0
  141.9760   80.3370  223.8340 C   0  0  0  0  0  0  0  0  0  0  0  0
  141.1290   79.2270  223.8580 C   0  0  0  0  0  0  0  0  0  0  0  0
  140.8160   78.5470  222.6680 C   0  0  0  0  0  0  0  0  0  0  0  0
  141.3380   79.0140  221.4340 C   0  0  0  0  0  0  0  0  0  0  0  0
  142.2020   80.1220  221.4300 C   0  0  0  0  0  0  0  0  0  0  0  0
  141.0620   78.2940  220.1300 C   0  0  0  0  0  0  0  0  0  0  0  0
  139.8370   77.3770  220.2260 C   0  0  0  0  0  0  0  0  0  0  0  0
  139.9170   76.6160  221.4750 N   0  0  0  0  0  0  0  0  0  0  0  0
  140.4820   75.2970  221.4620 C   0  0  0  0  0  0  0  0  0  0  0  0
  139.8490   74.2750  222.0960 N   0  0  0  0  0  0  0  0  0  0  0  0
  140.4050   73.0380  222.1180 C   0  0  0  0  0  0  0  0  0  0  0  0
  139.7710   71.9470  222.9220 C   0  0  0  0  0  0  0  0  0  0  0  0
  140.7500   71.3620  223.9500 C   0  0  0  0  0  0  0  0  0  0  0  0
  140.1450   71.3500  225.3070 N   0  0  0  0  0  0  0  0  0  0  0  0
  139.5480   70.0310  225.6620 C   0  0  0  0  0  0  0  0  0  0  0  0
  140.4420   69.2110  226.5980 C   0  0  0  0  0  0  0  0  0  0  0  0
  140.6900   69.9560  227.9200 C   0  0  0  0  0  0  0  0  0  0  0  0
  140.6740   71.4850  227.7480 C   0  0  0  0  0  0  0  0  0  0  0  0
  141.0860   71.8830  226.3240 C   0  0  0  0  0  0  0  0  0  0  0  0
  141.5980   72.8250  221.5080 N   0  0  0  0  0  0  0  0  0  0  0  0
  142.2390   73.8380  220.8660 C   0  0  0  0  0  0  0  0  0  0  0  0
  143.5040   73.6030  220.2140 N   0  0  0  0  0  0  0  0  0  0  0  0
  144.6960   73.3100  221.0260 C   0  0  0  0  0  0  0  0  0  0  0  0
  145.9740   73.7250  220.2830 C   0  0  0  0  0  0  0  0  0  0  0  0
  145.9940   73.1460  218.9340 N   0  0  0  0  0  0  0  0  0  0  0  0
  144.8600   73.6520  218.1520 C   0  0  0  0  0  0  0  0  0  0  0  0
  143.5360   73.2240  218.7930 C   0  0  0  0  0  0  0  0  0  0  0  0
  141.6770   75.0750  220.8580 N   0  0  0  0  0  0  0  0  0  0  0  0
  139.8510   77.3910  222.7160 C   0  0  0  0  0  0  0  0  0  0  0  0
  143.1856   81.6521  222.6098 H   0  0  0  0  0  0  0  0  0  0  0  0
  142.2198   80.8623  224.7692 H   0  0  0  0  0  0  0  0  0  0  0  0
  140.7046   78.8830  224.8127 H   0  0  0  0  0  0  0  0  0  0  0  0
  142.6358   80.4735  220.4822 H   0  0  0  0  0  0  0  0  0  0  0  0
  140.8848   79.0415  219.3427 H   0  0  0  0  0  0  0  0  0  0  0  0
  141.9362   77.6684  219.8967 H   0  0  0  0  0  0  0  0  0  0  0  0
  138.9193   77.9834  220.2201 H   0  0  0  0  0  0  0  0  0  0  0  0
  139.8159   76.6886  219.3683 H   0  0  0  0  0  0  0  0  0  0  0  0
  138.8980   72.3553  223.4523 H   0  0  0  0  0  0  0  0  0  0  0  0
  139.4714   71.1421  222.2347 H   0  0  0  0  0  0  0  0  0  0  0  0
  141.0051   70.3321  223.6597 H   0  0  0  0  0  0  0  0  0  0  0  0
  141.6539   71.9884  223.9724 H   0  0  0  0  0  0  0  0  0  0  0  0
  138.5824   70.2041  226.1596 H   0  0  0  0  0  0  0  0  0  0  0  0
  139.4282   69.4585  224.7304 H   0  0  0  0  0  0  0  0  0  0  0  0
  139.9511   68.2505  226.8135 H   0  0  0  0  0  0  0  0  0  0  0  0
  141.4102   69.0477  226.1021 H   0  0  0  0  0  0  0  0  0  0  0  0
  139.9046   69.6736  228.6365 H   0  0  0  0  0  0  0  0  0  0  0  0
  141.6892   69.6712  228.2812 H   0  0  0  0  0  0  0  0  0  0  0  0
  139.6586   71.8586  227.9463 H   0  0  0  0  0  0  0  0  0  0  0  0
  141.3917   71.9247  228.4562 H   0  0  0  0  0  0  0  0  0  0  0  0
  141.1032   72.9805  226.2522 H   0  0  0  0  0  0  0  0  0  0  0  0
  142.0806   71.4574  226.1250 H   0  0  0  0  0  0  0  0  0  0  0  0
  144.6328   73.8650  221.9736 H   0  0  0  0  0  0  0  0  0  0  0  0
  144.7349   72.2279  221.2195 H   0  0  0  0  0  0  0  0  0  0  0  0
  146.0088   74.8218  220.2070 H   0  0  0  0  0  0  0  0  0  0  0  0
  146.8467   73.3564  220.8419 H   0  0  0  0  0  0  0  0  0  0  0  0
  146.8780   73.4660  218.4660 H   0  0  0  0  0  0  0  0  0  0  0  0
  144.9065   74.7504  218.1151 H   0  0  0  0  0  0  0  0  0  0  0  0
  144.9146   73.2370  217.1347 H   0  0  0  0  0  0  0  0  0  0  0  0
  142.7041   73.7167  218.2684 H   0  0  0  0  0  0  0  0  0  0  0  0
  143.4403   72.1310  218.7146 H   0  0  0  0  0  0  0  0  0  0  0  0
  138.8295   77.7774  222.8476 H   0  0  0  0  0  0  0  0  0  0  0  0
  140.1206   76.7372  223.5585 H   0  0  0  0  0  0  0  0  0  0  0  0
  1  2  2  0
  2  3  1  0
  3  4  2  0
  4  5  1  0
  5  6  2  0
  5  7  1  0
  7  8  1  0
  8  9  1  0
  9 10  1  0
 10 11  2  0
 11 12  1  0
 12 13  1  0
 13 14  1  0
 14 15  1  0
 15 16  1  0
 16 17  1  0
 17 18  1  0
 18 19  1  0
 19 20  1  0
 12 21  2  0
 21 22  1  0
 22 23  1  0
 23 24  1  0
 24 25  1  0
 25 26  1  0
 26 27  1  0
 27 28  1  0
 22 29  2  0
  9 30  1  0
  6  1  1  0
 29 10  1  0
 30  4  1  0
 20 15  1  0
 28 23  1  0
  1 31  1  0
  2 32  1  0
  3 33  1  0
  6 34  1  0
  7 35  1  0
  7 36  1  0
  8 37  1  0
  8 38  1  0
 13 39  1  0
 13 40  1  0
 14 41  1  0
 14 42  1  0
 16 43  1  0
 16 44  1  0
 17 45  1  0
 17 46  1  0
 18 47  1  0
 18 48  1  0
 19 49  1  0
 19 50  1  0
 20 51  1  0
 20 52  1  0
 24 53  1  0
 24 54  1  0
 25 55  1  0
 25 56  1  0
 26 57  1  0
 27 58  1  0
 27 59  1  0
 28 60  1  0
 28 61  1  0
 30 62  1  0
 30 63  1  0
M  END
>  <UniqueID>  (8) 
561

>  <SMILES>  (8) 
c1ccc2c(c1)CCN(c1nc(CCN3CCCCC3)nc(N3CCNCC3)n1)C2

>  <Energy>  (8) 
71.46089149546641

>  <Genealogy>  (8) 
c1ccc2c(c1)CCN(c1nc(CCN3CCCCC3)nc(N3CCNCC3)n1)C2 (3D coordinates assigned)
c1ccc2c(c1)CCN(c1nc(CCN3CCCCC3)nc(N3CCNCC3)n1)C2 (nonaromatic ring conformer: 71.46089149546641 kcal/mol)

>  <smiles>  (8) 
c1ccc2c(c1)CCN(c1nc(CCN3CCCCC3)nc(N3CCNCC3)n1)C2

>  <score_type>  (8) 
oracle

>  <origin>  (8) 
autodockgpu

>  <m_score__min__energy>  (8) 
-9.8000000000000007

>  <m_primary>  (8) 
energy

>  <meeko>  (8) 
{"free_energy": -9.79, "intermolecular_energy": -11.28, "internal_energy": -0.9, "cluster_size": 17, "cluster_id": 1, "rank_in_cluster": 4}

>  <energy>  (8) 
-9.78

>  <cluster_rmsd>  (8) 
0.07

>  <rmsd>  (8) 
271.87

>  <cluster>  (8) 
1

$$$$
GZRQFJZYBWHXJG-UHFFFAOYNA-N
     RDKit          3D

 63 67  0  0  0  0  0  0  0  0999 V2000
  140.4940   69.5110  228.2110 C   0  0  0  0  0  0  0  0  0  0  0  0
  141.0960   70.7490  227.9730 C   0  0  0  0  0  0  0  0  0  0  0  0
  140.9630   71.3630  226.7250 C   0  0  0  0  0  0  0  0  0  0  0  0
  140.2200   70.7450  225.7050 C   0  0  0  0  0  0  0  0  0  0  0  0
  139.6320   69.4740  225.9350 C   0  0  0  0  0  0  0  0  0  0  0  0
  139.7610   68.8780  227.2010 C   0  0  0  0  0  0  0  0  0  0  0  0
  138.7900   68.7850  224.8820 C   0  0  0  0  0  0  0  0  0  0  0  0
  139.0540   69.3410  223.4770 C   0  0  0  0  0  0  0  0  0  0  0  0
  139.0750   70.8040  223.5490 N   0  0  0  0  0  0  0  0  0  0  0  0
  137.8820   71.5430  223.2500 C   0  0  0  0  0  0  0  0  0  0  0  0
  137.7000   72.0780  222.0150 N   0  0  0  0  0  0  0  0  0  0  0  0
  136.5910   72.8110  221.7460 C   0  0  0  0  0  0  0  0  0  0  0  0
  136.4530   73.5040  220.4280 C   0  0  0  0  0  0  0  0  0  0  0  0
  137.6060   74.4870  220.1830 C   0  0  0  0  0  0  0  0  0  0  0  0
  138.1440   75.0000  221.4700 N   0  0  0  0  0  0  0  0  0  0  0  0
  139.5520   74.5770  221.7180 C   0  0  0  0  0  0  0  0  0  0  0  0
  140.5630   75.6920  221.4270 C   0  0  0  0  0  0  0  0  0  0  0  0
  140.3050   76.9200  222.3160 C   0  0  0  0  0  0  0  0  0  0  0  0
  138.8200   77.0800  222.6840 C   0  0  0  0  0  0  0  0  0  0  0  0
  137.9160   76.4600  221.6090 C   0  0  0  0  0  0  0  0  0  0  0  0
  135.6640   73.0110  222.7180 N   0  0  0  0  0  0  0  0  0  0  0  0
  135.8330   72.4770  223.9560 C   0  0  0  0  0  0  0  0  0  0  0  0
  134.8410   72.6880  224.9830 N   0  0  0  0  0  0  0  0  0  0  0  0
  134.0600   73.9350  224.9920 C   0  0  0  0  0  0  0  0  0  0  0  0
  133.5800   74.2640  226.4130 C   0  0  0  0  0  0  0  0  0  0  0  0
  132.8940   73.1070  227.0030 N   0  0  0  0  0  0  0  0  0  0  0  0
  133.8210   71.9750  227.1140 C   0  0  0  0  0  0  0  0  0  0  0  0
  134.3010   71.5390  225.7260 C   0  0  0  0  0  0  0  0  0  0  0  0
  136.9520   71.7510  224.2160 N   0  0  0  0  0  0  0  0  0  0  0  0
  140.1460   71.4020  224.3510 C   0  0  0  0  0  0  0  0  0  0  0  0
  140.5966   69.0321  229.1959 H   0  0  0  0  0  0  0  0  0  0  0  0
  141.6750   71.2407  228.7686 H   0  0  0  0  0  0  0  0  0  0  0  0
  141.4426   72.3355  226.5400 H   0  0  0  0  0  0  0  0  0  0  0  0
  139.2826   67.9075  227.3994 H   0  0  0  0  0  0  0  0  0  0  0  0
  139.0243   67.7103  224.8879 H   0  0  0  0  0  0  0  0  0  0  0  0
  137.7320   68.9643  225.1238 H   0  0  0  0  0  0  0  0  0  0  0  0
  140.0238   68.9742  223.1096 H   0  0  0  0  0  0  0  0  0  0  0  0
  138.2633   69.0103  222.7876 H   0  0  0  0  0  0  0  0  0  0  0  0
  136.4503   72.7502  219.6269 H   0  0  0  0  0  0  0  0  0  0  0  0
  135.5116   74.0729  220.4353 H   0  0  0  0  0  0  0  0  0  0  0  0
  138.4093   73.9717  219.6360 H   0  0  0  0  0  0  0  0  0  0  0  0
  137.2268   75.3362  219.5956 H   0  0  0  0  0  0  0  0  0  0  0  0
  139.6498   74.2793  222.7724 H   0  0  0  0  0  0  0  0  0  0  0  0
  139.7732   73.7412  221.0380 H   0  0  0  0  0  0  0  0  0  0  0  0
  141.5783   75.3156  221.6204 H   0  0  0  0  0  0  0  0  0  0  0  0
  140.4562   75.9942  220.3747 H   0  0  0  0  0  0  0  0  0  0  0  0
  140.8884   76.8135  223.2424 H   0  0  0  0  0  0  0  0  0  0  0  0
  140.6064   77.8126  221.7482 H   0  0  0  0  0  0  0  0  0  0  0  0
  138.6317   76.5789  223.6449 H   0  0  0  0  0  0  0  0  0  0  0  0
  138.5912   78.1534  222.7574 H   0  0  0  0  0  0  0  0  0  0  0  0
  136.8652   76.6312  221.8857 H   0  0  0  0  0  0  0  0  0  0  0  0
  138.1547   76.9358  220.6464 H   0  0  0  0  0  0  0  0  0  0  0  0
  134.6898   74.7583  224.6238 H   0  0  0  0  0  0  0  0  0  0  0  0
  133.1815   73.8070  224.3425 H   0  0  0  0  0  0  0  0  0  0  0  0
  134.4471   74.5278  227.0364 H   0  0  0  0  0  0  0  0  0  0  0  0
  132.8773   75.1090  226.3653 H   0  0  0  0  0  0  0  0  0  0  0  0
  132.5950   73.3770  227.9720 H   0  0  0  0  0  0  0  0  0  0  0  0
  134.6887   72.2753  227.7197 H   0  0  0  0  0  0  0  0  0  0  0  0
  133.2995   71.1326  227.5918 H   0  0  0  0  0  0  0  0  0  0  0  0
  135.0875   70.7781  225.8375 H   0  0  0  0  0  0  0  0  0  0  0  0
  133.4481   71.1242  225.1688 H   0  0  0  0  0  0  0  0  0  0  0  0
  141.1059   71.2683  223.8306 H   0  0  0  0  0  0  0  0  0  0  0  0
  139.9342   72.4730  224.4860 H   0  0  0  0  0  0  0  0  0  0  0  0
  1  2  2  0
  2  3  1  0
  3  4  2  0
  4  5  1  0
  5  6  2  0
  5  7  1  0
  7  8  1  0
  8  9  1  0
  9 10  1  0
 10 11  2  0
 11 12  1  0
 12 13  1  0
 13 14  1  0
 14 15  1  0
 15 16  1  0
 16 17  1  0
 17 18  1  0
 18 19  1  0
 19 20  1  0
 12 21  2  0
 21 22  1  0
 22 23  1  0
 23 24  1  0
 24 25  1  0
 25 26  1  0
 26 27  1  0
 27 28  1  0
 22 29  2  0
  9 30  1  0
  6  1  1  0
 29 10  1  0
 30  4  1  0
 20 15  1  0
 28 23  1  0
  1 31  1  0
  2 32  1  0
  3 33  1  0
  6 34  1  0
  7 35  1  0
  7 36  1  0
  8 37  1  0
  8 38  1  0
 13 39  1  0
 13 40  1  0
 14 41  1  0
 14 42  1  0
 16 43  1  0
 16 44  1  0
 17 45  1  0
 17 46  1  0
 18 47  1  0
 18 48  1  0
 19 49  1  0
 19 50  1  0
 20 51  1  0
 20 52  1  0
 24 53  1  0
 24 54  1  0
 25 55  1  0
 25 56  1  0
 26 57  1  0
 27 58  1  0
 27 59  1  0
 28 60  1  0
 28 61  1  0
 30 62  1  0
 30 63  1  0
M  END
>  <UniqueID>  (9) 
561

>  <SMILES>  (9) 
c1ccc2c(c1)CCN(c1nc(CCN3CCCCC3)nc(N3CCNCC3)n1)C2

>  <Energy>  (9) 
71.46089149546641

>  <Genealogy>  (9) 
c1ccc2c(c1)CCN(c1nc(CCN3CCCCC3)nc(N3CCNCC3)n1)C2 (3D coordinates assigned)
c1ccc2c(c1)CCN(c1nc(CCN3CCCCC3)nc(N3CCNCC3)n1)C2 (nonaromatic ring conformer: 71.46089149546641 kcal/mol)

>  <smiles>  (9) 
c1ccc2c(c1)CCN(c1nc(CCN3CCCCC3)nc(N3CCNCC3)n1)C2

>  <score_type>  (9) 
oracle

>  <origin>  (9) 
autodockgpu

>  <m_score__min__energy>  (9) 
-9.8000000000000007

>  <m_primary>  (9) 
energy

>  <meeko>  (9) 
{"free_energy": -7.36, "intermolecular_energy": -8.85, "internal_energy": -1.35, "cluster_size": 2, "cluster_id": 3, "rank_in_cluster": 1}

>  <energy>  (9) 
-9.78

>  <cluster_rmsd>  (9) 
0.06

>  <rmsd>  (9) 
271.88

>  <cluster>  (9) 
1

$$$$
GZRQFJZYBWHXJG-UHFFFAOYNA-N
     RDKit          3D

 63 67  0  0  0  0  0  0  0  0999 V2000
  140.4770   69.8020  228.2960 C   0  0  0  0  0  0  0  0  0  0  0  0
  141.1030   71.0010  227.9440 C   0  0  0  0  0  0  0  0  0  0  0  0
  140.9430   71.5220  226.6580 C   0  0  0  0  0  0  0  0  0  0  0  0
  140.1490   70.8500  225.7130 C   0  0  0  0  0  0  0  0  0  0  0  0
  139.5360   69.6180  226.0590 C   0  0  0  0  0  0  0  0  0  0  0  0
  139.6930   69.1160  227.3620 C   0  0  0  0  0  0  0  0  0  0  0  0
  138.6400   68.8750  225.0900 C   0  0  0  0  0  0  0  0  0  0  0  0
  138.8690   69.3150  223.6390 C   0  0  0  0  0  0  0  0  0  0  0  0
  138.9320   70.7780  223.5970 N   0  0  0  0  0  0  0  0  0  0  0  0
  137.7490   71.5260  223.2820 C   0  0  0  0  0  0  0  0  0  0  0  0
  137.5660   72.0240  222.0310 N   0  0  0  0  0  0  0  0  0  0  0  0
  136.4680   72.7660  221.7450 C   0  0  0  0  0  0  0  0  0  0  0  0
  136.3320   73.4170  220.4060 C   0  0  0  0  0  0  0  0  0  0  0  0
  137.4370   74.4570  220.1690 C   0  0  0  0  0  0  0  0  0  0  0  0
  137.9820   74.9500  221.4600 N   0  0  0  0  0  0  0  0  0  0  0  0
  139.3980   74.5410  221.6840 C   0  0  0  0  0  0  0  0  0  0  0  0
  140.3910   75.6750  221.4050 C   0  0  0  0  0  0  0  0  0  0  0  0
  140.1270   76.8800  222.3220 C   0  0  0  0  0  0  0  0  0  0  0  0
  138.6440   77.0140  222.7090 C   0  0  0  0  0  0  0  0  0  0  0  0
  137.7370   76.4040  221.6320 C   0  0  0  0  0  0  0  0  0  0  0  0
  135.5510   73.0130  222.7150 N   0  0  0  0  0  0  0  0  0  0  0  0
  135.7190   72.5160  223.9690 C   0  0  0  0  0  0  0  0  0  0  0  0
  134.7380   72.7770  224.9950 N   0  0  0  0  0  0  0  0  0  0  0  0
  134.0410   74.0720  225.0190 C   0  0  0  0  0  0  0  0  0  0  0  0
  133.5750   74.4110  226.4430 C   0  0  0  0  0  0  0  0  0  0  0  0
  132.8120   73.2940  227.0120 N   0  0  0  0  0  0  0  0  0  0  0  0
  133.6620   72.1020  227.1110 C   0  0  0  0  0  0  0  0  0  0  0  0
  134.1200   71.6550  225.7190 C   0  0  0  0  0  0  0  0  0  0  0  0
  136.8280   71.7820  224.2460 N   0  0  0  0  0  0  0  0  0  0  0  0
  140.0450   71.4040  224.3160 C   0  0  0  0  0  0  0  0  0  0  0  0
  140.6011   69.3963  229.3109 H   0  0  0  0  0  0  0  0  0  0  0  0
  141.7221   71.5347  228.6802 H   0  0  0  0  0  0  0  0  0  0  0  0
  141.4412   72.4635  226.3834 H   0  0  0  0  0  0  0  0  0  0  0  0
  139.1963   68.1776  227.6496 H   0  0  0  0  0  0  0  0  0  0  0  0
  138.8466   67.7976  225.1707 H   0  0  0  0  0  0  0  0  0  0  0  0
  137.5960   69.1020  225.3520 H   0  0  0  0  0  0  0  0  0  0  0  0
  139.8150   68.8929  223.2690 H   0  0  0  0  0  0  0  0  0  0  0  0
  138.0454   68.9566  223.0039 H   0  0  0  0  0  0  0  0  0  0  0  0
  136.3952   72.6446  219.6253 H   0  0  0  0  0  0  0  0  0  0  0  0
  135.3608   73.9323  220.3706 H   0  0  0  0  0  0  0  0  0  0  0  0
  138.2486   73.9950  219.5877 H   0  0  0  0  0  0  0  0  0  0  0  0
  137.0088   75.3078  219.6188 H   0  0  0  0  0  0  0  0  0  0  0  0
  139.5114   74.2232  222.7310 H   0  0  0  0  0  0  0  0  0  0  0  0
  139.6226   73.7223  220.9846 H   0  0  0  0  0  0  0  0  0  0  0  0
  141.4133   75.3082  221.5791 H   0  0  0  0  0  0  0  0  0  0  0  0
  140.2685   75.9975  220.3605 H   0  0  0  0  0  0  0  0  0  0  0  0
  140.7215   76.7614  223.2399 H   0  0  0  0  0  0  0  0  0  0  0  0
  140.4110   77.7880  221.7698 H   0  0  0  0  0  0  0  0  0  0  0  0
  138.4723   76.4918  223.6618 H   0  0  0  0  0  0  0  0  0  0  0  0
  138.4025   78.0828  222.8062 H   0  0  0  0  0  0  0  0  0  0  0  0
  136.6872   76.5556  221.9236 H   0  0  0  0  0  0  0  0  0  0  0  0
  137.9594   76.9023  220.6769 H   0  0  0  0  0  0  0  0  0  0  0  0
  134.7258   74.8573  224.6665 H   0  0  0  0  0  0  0  0  0  0  0  0
  133.1599   74.0118  224.3633 H   0  0  0  0  0  0  0  0  0  0  0  0
  134.4538   74.6083  227.0744 H   0  0  0  0  0  0  0  0  0  0  0  0
  132.9293   75.3007  226.4044 H   0  0  0  0  0  0  0  0  0  0  0  0
  132.5260   73.5690  227.9840 H   0  0  0  0  0  0  0  0  0  0  0  0
  134.5442   72.3360  227.7249 H   0  0  0  0  0  0  0  0  0  0  0  0
  133.0837   71.2890  227.5743 H   0  0  0  0  0  0  0  0  0  0  0  0
  134.8545   70.8428  225.8230 H   0  0  0  0  0  0  0  0  0  0  0  0
  133.2450   71.3045  225.1520 H   0  0  0  0  0  0  0  0  0  0  0  0
  140.9826   71.2040  223.7766 H   0  0  0  0  0  0  0  0  0  0  0  0
  139.8654   72.4876  224.3755 H   0  0  0  0  0  0  0  0  0  0  0  0
  1  2  2  0
  2  3  1  0
  3  4  2  0
  4  5  1  0
  5  6  2  0
  5  7  1  0
  7  8  1  0
  8  9  1  0
  9 10  1  0
 10 11  2  0
 11 12  1  0
 12 13  1  0
 13 14  1  0
 14 15  1  0
 15 16  1  0
 16 17  1  0
 17 18  1  0
 18 19  1  0
 19 20  1  0
 12 21  2  0
 21 22  1  0
 22 23  1  0
 23 24  1  0
 24 25  1  0
 25 26  1  0
 26 27  1  0
 27 28  1  0
 22 29  2  0
  9 30  1  0
  6  1  1  0
 29 10  1  0
 30  4  1  0
 20 15  1  0
 28 23  1  0
  1 31  1  0
  2 32  1  0
  3 33  1  0
  6 34  1  0
  7 35  1  0
  7 36  1  0
  8 37  1  0
  8 38  1  0
 13 39  1  0
 13 40  1  0
 14 41  1  0
 14 42  1  0
 16 43  1  0
 16 44  1  0
 17 45  1  0
 17 46  1  0
 18 47  1  0
 18 48  1  0
 19 49  1  0
 19 50  1  0
 20 51  1  0
 20 52  1  0
 24 53  1  0
 24 54  1  0
 25 55  1  0
 25 56  1  0
 26 57  1  0
 27 58  1  0
 27 59  1  0
 28 60  1  0
 28 61  1  0
 30 62  1  0
 30 63  1  0
M  END
>  <UniqueID>  (10) 
561

>  <SMILES>  (10) 
c1ccc2c(c1)CCN(c1nc(CCN3CCCCC3)nc(N3CCNCC3)n1)C2

>  <Energy>  (10) 
71.46089149546641

>  <Genealogy>  (10) 
c1ccc2c(c1)CCN(c1nc(CCN3CCCCC3)nc(N3CCNCC3)n1)C2 (3D coordinates assigned)
c1ccc2c(c1)CCN(c1nc(CCN3CCCCC3)nc(N3CCNCC3)n1)C2 (nonaromatic ring conformer: 71.46089149546641 kcal/mol)

>  <smiles>  (10) 
c1ccc2c(c1)CCN(c1nc(CCN3CCCCC3)nc(N3CCNCC3)n1)C2

>  <score_type>  (10) 
oracle

>  <origin>  (10) 
autodockgpu

>  <m_score__min__energy>  (10) 
-9.8000000000000007

>  <m_primary>  (10) 
energy

>  <meeko>  (10) 
{"free_energy": -7.31, "intermolecular_energy": -8.8, "internal_energy": -1.37, "cluster_size": 2, "cluster_id": 3, "rank_in_cluster": 2}

>  <energy>  (10) 
-9.68

>  <cluster_rmsd>  (10) 
0.64

>  <rmsd>  (10) 
271.95

>  <cluster>  (10) 
1

$$$$
GZRQFJZYBWHXJG-UHFFFAOYNA-N
     RDKit          3D

 63 67  0  0  0  0  0  0  0  0999 V2000
  142.5240   80.7930  222.6020 C   0  0  0  0  0  0  0  0  0  0  0  0
  141.9920   80.3520  223.8160 C   0  0  0  0  0  0  0  0  0  0  0  0
  141.1440   79.2420  223.8460 C   0  0  0  0  0  0  0  0  0  0  0  0
  140.8250   78.5600  222.6600 C   0  0  0  0  0  0  0  0  0  0  0  0
  141.3410   79.0230  221.4220 C   0  0  0  0  0  0  0  0  0  0  0  0
  142.2070   80.1300  221.4110 C   0  0  0  0  0  0  0  0  0  0  0  0
  141.0590   78.3000  220.1210 C   0  0  0  0  0  0  0  0  0  0  0  0
  139.8340   77.3840  220.2240 C   0  0  0  0  0  0  0  0  0  0  0  0
  139.9190   76.6260  221.4750 N   0  0  0  0  0  0  0  0  0  0  0  0
  140.4830   75.3070  221.4630 C   0  0  0  0  0  0  0  0  0  0  0  0
  139.8510   74.2860  222.0990 N   0  0  0  0  0  0  0  0  0  0  0  0
  140.4060   73.0490  222.1220 C   0  0  0  0  0  0  0  0  0  0  0  0
  139.7730   71.9600  222.9290 C   0  0  0  0  0  0  0  0  0  0  0  0
  140.7540   71.3740  223.9540 C   0  0  0  0  0  0  0  0  0  0  0  0
  140.1510   71.3560  225.3110 N   0  0  0  0  0  0  0  0  0  0  0  0
  139.5460   70.0380  225.6570 C   0  0  0  0  0  0  0  0  0  0  0  0
  140.4360   69.2060  226.5880 C   0  0  0  0  0  0  0  0  0  0  0  0
  140.6890   69.9400  227.9150 C   0  0  0  0  0  0  0  0  0  0  0  0
  140.6820   71.4700  227.7530 C   0  0  0  0  0  0  0  0  0  0  0  0
  141.0950   71.8750  226.3320 C   0  0  0  0  0  0  0  0  0  0  0  0
  141.5970   72.8340  221.5100 N   0  0  0  0  0  0  0  0  0  0  0  0
  142.2370   73.8460  220.8650 C   0  0  0  0  0  0  0  0  0  0  0  0
  143.5020   73.6090  220.2100 N   0  0  0  0  0  0  0  0  0  0  0  0
  144.6940   73.3140  221.0200 C   0  0  0  0  0  0  0  0  0  0  0  0
  145.9720   73.7280  220.2750 C   0  0  0  0  0  0  0  0  0  0  0  0
  145.9880   73.1490  218.9260 N   0  0  0  0  0  0  0  0  0  0  0  0
  144.8540   73.6560  218.1460 C   0  0  0  0  0  0  0  0  0  0  0  0
  143.5300   73.2300  218.7890 C   0  0  0  0  0  0  0  0  0  0  0  0
  141.6760   75.0830  220.8560 N   0  0  0  0  0  0  0  0  0  0  0  0
  139.8590   77.4050  222.7150 C   0  0  0  0  0  0  0  0  0  0  0  0
  143.1946   81.6647  222.5821 H   0  0  0  0  0  0  0  0  0  0  0  0
  142.2409   80.8790  224.7489 H   0  0  0  0  0  0  0  0  0  0  0  0
  140.7239   78.9003  224.8035 H   0  0  0  0  0  0  0  0  0  0  0  0
  142.6382   80.4773  220.4605 H   0  0  0  0  0  0  0  0  0  0  0  0
  140.8790   79.0457  219.3326 H   0  0  0  0  0  0  0  0  0  0  0  0
  141.9318   77.6732  219.8858 H   0  0  0  0  0  0  0  0  0  0  0  0
  138.9165   77.9908  220.2203 H   0  0  0  0  0  0  0  0  0  0  0  0
  139.8089   76.6936  219.3680 H   0  0  0  0  0  0  0  0  0  0  0  0
  138.9025   72.3703  223.4619 H   0  0  0  0  0  0  0  0  0  0  0  0
  139.4698   71.1551  222.2433 H   0  0  0  0  0  0  0  0  0  0  0  0
  141.0111   70.3457  223.6600 H   0  0  0  0  0  0  0  0  0  0  0  0
  141.6564   72.0026  223.9776 H   0  0  0  0  0  0  0  0  0  0  0  0
  138.5814   70.2134  226.1558 H   0  0  0  0  0  0  0  0  0  0  0  0
  139.4226   69.4726  224.7215 H   0  0  0  0  0  0  0  0  0  0  0  0
  139.9395   68.2470  226.7971 H   0  0  0  0  0  0  0  0  0  0  0  0
  141.4031   69.0408  226.0906 H   0  0  0  0  0  0  0  0  0  0  0  0
  139.9022   69.6574  228.6299 H   0  0  0  0  0  0  0  0  0  0  0  0
  141.6864   69.6466  228.2742 H   0  0  0  0  0  0  0  0  0  0  0  0
  139.6690   71.8483  227.9547 H   0  0  0  0  0  0  0  0  0  0  0  0
  141.4031   71.9006  228.4634 H   0  0  0  0  0  0  0  0  0  0  0  0
  141.1192   72.9729  226.2682 H   0  0  0  0  0  0  0  0  0  0  0  0
  142.0864   71.4435  226.1296 H   0  0  0  0  0  0  0  0  0  0  0  0
  144.6328   73.8686  221.9680 H   0  0  0  0  0  0  0  0  0  0  0  0
  144.7317   72.2317  221.2131 H   0  0  0  0  0  0  0  0  0  0  0  0
  146.0082   74.8248  220.1992 H   0  0  0  0  0  0  0  0  0  0  0  0
  146.8455   73.3587  220.8323 H   0  0  0  0  0  0  0  0  0  0  0  0
  146.8710   73.4670  218.4560 H   0  0  0  0  0  0  0  0  0  0  0  0
  144.9019   74.7543  218.1087 H   0  0  0  0  0  0  0  0  0  0  0  0
  144.9065   73.2405  217.1288 H   0  0  0  0  0  0  0  0  0  0  0  0
  142.6980   73.7243  218.2660 H   0  0  0  0  0  0  0  0  0  0  0  0
  143.4316   72.1372  218.7102 H   0  0  0  0  0  0  0  0  0  0  0  0
  138.8385   77.7928  222.8498 H   0  0  0  0  0  0  0  0  0  0  0  0
  140.1315   76.7532  223.5581 H   0  0  0  0  0  0  0  0  0  0  0  0
  1  2  2  0
  2  3  1  0
  3  4  2  0
  4  5  1  0
  5  6  2  0
  5  7  1  0
  7  8  1  0
  8  9  1  0
  9 10  1  0
 10 11  2  0
 11 12  1  0
 12 13  1  0
 13 14  1  0
 14 15  1  0
 15 16  1  0
 16 17  1  0
 17 18  1  0
 18 19  1  0
 19 20  1  0
 12 21  2  0
 21 22  1  0
 22 23  1  0
 23 24  1  0
 24 25  1  0
 25 26  1  0
 26 27  1  0
 27 28  1  0
 22 29  2  0
  9 30  1  0
  6  1  1  0
 29 10  1  0
 30  4  1  0
 20 15  1  0
 28 23  1  0
  1 31  1  0
  2 32  1  0
  3 33  1  0
  6 34  1  0
  7 35  1  0
  7 36  1  0
  8 37  1  0
  8 38  1  0
 13 39  1  0
 13 40  1  0
 14 41  1  0
 14 42  1  0
 16 43  1  0
 16 44  1  0
 17 45  1  0
 17 46  1  0
 18 47  1  0
 18 48  1  0
 19 49  1  0
 19 50  1  0
 20 51  1  0
 20 52  1  0
 24 53  1  0
 24 54  1  0
 25 55  1  0
 25 56  1  0
 26 57  1  0
 27 58  1  0
 27 59  1  0
 28 60  1  0
 28 61  1  0
 30 62  1  0
 30 63  1  0
M  END
>  <UniqueID>  (11) 
561

>  <SMILES>  (11) 
c1ccc2c(c1)CCN(c1nc(CCN3CCCCC3)nc(N3CCNCC3)n1)C2

>  <Energy>  (11) 
71.46089149546641

>  <Genealogy>  (11) 
c1ccc2c(c1)CCN(c1nc(CCN3CCCCC3)nc(N3CCNCC3)n1)C2 (3D coordinates assigned)
c1ccc2c(c1)CCN(c1nc(CCN3CCCCC3)nc(N3CCNCC3)n1)C2 (nonaromatic ring conformer: 71.46089149546641 kcal/mol)

>  <smiles>  (11) 
c1ccc2c(c1)CCN(c1nc(CCN3CCCCC3)nc(N3CCNCC3)n1)C2

>  <score_type>  (11) 
oracle

>  <origin>  (11) 
autodockgpu

>  <m_score__min__energy>  (11) 
-9.8000000000000007

>  <m_primary>  (11) 
energy

>  <meeko>  (11) 
{"free_energy": -9.78, "intermolecular_energy": -11.27, "internal_energy": -0.9, "cluster_size": 17, "cluster_id": 1, "rank_in_cluster": 9}

>  <energy>  (11) 
-9.65

>  <cluster_rmsd>  (11) 
0.44

>  <rmsd>  (11) 
271.88

>  <cluster>  (11) 
1

$$$$
GZRQFJZYBWHXJG-UHFFFAOYNA-N
     RDKit          3D

 63 67  0  0  0  0  0  0  0  0999 V2000
  142.5050   80.5220  222.5730 C   0  0  0  0  0  0  0  0  0  0  0  0
  142.0200   80.0480  223.7940 C   0  0  0  0  0  0  0  0  0  0  0  0
  141.2260   78.8990  223.8330 C   0  0  0  0  0  0  0  0  0  0  0  0
  140.9140   78.2110  222.6480 C   0  0  0  0  0  0  0  0  0  0  0  0
  141.3820   78.7080  221.4030 C   0  0  0  0  0  0  0  0  0  0  0  0
  142.1940   79.8540  221.3840 C   0  0  0  0  0  0  0  0  0  0  0  0
  141.1070   77.9810  220.1030 C   0  0  0  0  0  0  0  0  0  0  0  0
  139.9280   77.0080  220.2240 C   0  0  0  0  0  0  0  0  0  0  0  0
  140.0750   76.2460  221.4660 N   0  0  0  0  0  0  0  0  0  0  0  0
  140.7000   74.9550  221.4320 C   0  0  0  0  0  0  0  0  0  0  0  0
  140.1140   73.8940  222.0450 N   0  0  0  0  0  0  0  0  0  0  0  0
  140.7250   72.6830  222.0460 C   0  0  0  0  0  0  0  0  0  0  0  0
  140.1410   71.5500  222.8280 C   0  0  0  0  0  0  0  0  0  0  0  0
  140.0300   71.8920  224.3210 C   0  0  0  0  0  0  0  0  0  0  0  0
  140.8250   70.9410  225.1400 N   0  0  0  0  0  0  0  0  0  0  0  0
  141.4270   71.5790  226.3450 C   0  0  0  0  0  0  0  0  0  0  0  0
  140.6540   71.2610  227.6300 C   0  0  0  0  0  0  0  0  0  0  0  0
  140.6240   69.7480  227.8980 C   0  0  0  0  0  0  0  0  0  0  0  0
  140.6610   68.9180  226.6030 C   0  0  0  0  0  0  0  0  0  0  0  0
  140.0590   69.7030  225.4290 C   0  0  0  0  0  0  0  0  0  0  0  0
  141.9290   72.5360  221.4370 N   0  0  0  0  0  0  0  0  0  0  0  0
  142.5240   73.5890  220.8150 C   0  0  0  0  0  0  0  0  0  0  0  0
  143.8000   73.4240  220.1620 N   0  0  0  0  0  0  0  0  0  0  0  0
  145.0180   73.2870  220.9760 C   0  0  0  0  0  0  0  0  0  0  0  0
  146.2510   73.7640  220.1930 C   0  0  0  0  0  0  0  0  0  0  0  0
  146.3110   73.1060  218.8820 N   0  0  0  0  0  0  0  0  0  0  0  0
  145.1320   73.4620  218.0850 C   0  0  0  0  0  0  0  0  0  0  0  0
  143.8550   72.9610  218.7670 C   0  0  0  0  0  0  0  0  0  0  0  0
  141.9050   74.7990  220.8270 N   0  0  0  0  0  0  0  0  0  0  0  0
  140.0050   77.0120  222.7140 C   0  0  0  0  0  0  0  0  0  0  0  0
  143.1339   81.4241  222.5463 H   0  0  0  0  0  0  0  0  0  0  0  0
  142.2633   80.5797  224.7257 H   0  0  0  0  0  0  0  0  0  0  0  0
  140.8431   78.5310  224.7963 H   0  0  0  0  0  0  0  0  0  0  0  0
  142.5880   80.2286  220.4277 H   0  0  0  0  0  0  0  0  0  0  0  0
  140.8763   78.7225  219.3239 H   0  0  0  0  0  0  0  0  0  0  0  0
  142.0029   77.3970  219.8456 H   0  0  0  0  0  0  0  0  0  0  0  0
  138.9835   77.5714  220.2448 H   0  0  0  0  0  0  0  0  0  0  0  0
  139.9164   76.3235  219.3630 H   0  0  0  0  0  0  0  0  0  0  0  0
  139.1373   71.3265  222.4373 H   0  0  0  0  0  0  0  0  0  0  0  0
  140.8061   70.6802  222.7227 H   0  0  0  0  0  0  0  0  0  0  0  0
  140.4062   72.9124  224.4863 H   0  0  0  0  0  0  0  0  0  0  0  0
  138.9744   71.8200  224.6219 H   0  0  0  0  0  0  0  0  0  0  0  0
  142.4596   71.2167  226.4565 H   0  0  0  0  0  0  0  0  0  0  0  0
  141.3925   72.6684  226.1969 H   0  0  0  0  0  0  0  0  0  0  0  0
  141.1416   71.7662  228.4768 H   0  0  0  0  0  0  0  0  0  0  0  0
  139.6194   71.6153  227.5119 H   0  0  0  0  0  0  0  0  0  0  0  0
  141.4965   69.4815  228.5126 H   0  0  0  0  0  0  0  0  0  0  0  0
  139.6799   69.5192  228.4140 H   0  0  0  0  0  0  0  0  0  0  0  0
  141.7052   68.6641  226.3682 H   0  0  0  0  0  0  0  0  0  0  0  0
  140.0672   68.0046  226.7551 H   0  0  0  0  0  0  0  0  0  0  0  0
  140.0650   69.0640  224.5337 H   0  0  0  0  0  0  0  0  0  0  0  0
  139.0337   69.9927  225.7027 H   0  0  0  0  0  0  0  0  0  0  0  0
  144.9128   73.8929  221.8881 H   0  0  0  0  0  0  0  0  0  0  0  0
  145.1524   72.2266  221.2357 H   0  0  0  0  0  0  0  0  0  0  0  0
  146.1903   74.8529  220.0495 H   0  0  0  0  0  0  0  0  0  0  0  0
  147.1565   73.5076  220.7626 H   0  0  0  0  0  0  0  0  0  0  0  0
  147.1600   73.4710  218.3840 H   0  0  0  0  0  0  0  0  0  0  0  0
  145.0819   74.5559  217.9807 H   0  0  0  0  0  0  0  0  0  0  0  0
  145.2156   72.9912  217.0944 H   0  0  0  0  0  0  0  0  0  0  0  0
  142.9795   73.3456  218.2232 H   0  0  0  0  0  0  0  0  0  0  0  0
  143.8546   71.8610  218.7571 H   0  0  0  0  0  0  0  0  0  0  0  0
  138.9706   77.3502  222.8737 H   0  0  0  0  0  0  0  0  0  0  0  0
  140.3257   76.3675  223.5458 H   0  0  0  0  0  0  0  0  0  0  0  0
  1  2  2  0
  2  3  1  0
  3  4  2  0
  4  5  1  0
  5  6  2  0
  5  7  1  0
  7  8  1  0
  8  9  1  0
  9 10  1  0
 10 11  2  0
 11 12  1  0
 12 13  1  0
 13 14  1  0
 14 15  1  0
 15 16  1  0
 16 17  1  0
 17 18  1  0
 18 19  1  0
 19 20  1  0
 12 21  2  0
 21 22  1  0
 22 23  1  0
 23 24  1  0
 24 25  1  0
 25 26  1  0
 26 27  1  0
 27 28  1  0
 22 29  2  0
  9 30  1  0
  6  1  1  0
 29 10  1  0
 30  4  1  0
 20 15  1  0
 28 23  1  0
  1 31  1  0
  2 32  1  0
  3 33  1  0
  6 34  1  0
  7 35  1  0
  7 36  1  0
  8 37  1  0
  8 38  1  0
 13 39  1  0
 13 40  1  0
 14 41  1  0
 14 42  1  0
 16 43  1  0
 16 44  1  0
 17 45  1  0
 17 46  1  0
 18 47  1  0
 18 48  1  0
 19 49  1  0
 19 50  1  0
 20 51  1  0
 20 52  1  0
 24 53  1  0
 24 54  1  0
 25 55  1  0
 25 56  1  0
 26 57  1  0
 27 58  1  0
 27 59  1  0
 28 60  1  0
 28 61  1  0
 30 62  1  0
 30 63  1  0
M  END
>  <UniqueID>  (12) 
561

>  <SMILES>  (12) 
c1ccc2c(c1)CCN(c1nc(CCN3CCCCC3)nc(N3CCNCC3)n1)C2

>  <Energy>  (12) 
71.46089149546641

>  <Genealogy>  (12) 
c1ccc2c(c1)CCN(c1nc(CCN3CCCCC3)nc(N3CCNCC3)n1)C2 (3D coordinates assigned)
c1ccc2c(c1)CCN(c1nc(CCN3CCCCC3)nc(N3CCNCC3)n1)C2 (nonaromatic ring conformer: 71.46089149546641 kcal/mol)

>  <smiles>  (12) 
c1ccc2c(c1)CCN(c1nc(CCN3CCCCC3)nc(N3CCNCC3)n1)C2

>  <score_type>  (12) 
oracle

>  <origin>  (12) 
autodockgpu

>  <m_score__min__energy>  (12) 
-9.8000000000000007

>  <m_primary>  (12) 
energy

>  <meeko>  (12) 
{"free_energy": -9.65, "intermolecular_energy": -11.14, "internal_energy": -0.91, "cluster_size": 17, "cluster_id": 1, "rank_in_cluster": 11}

>  <energy>  (12) 
-9.65

>  <cluster_rmsd>  (12) 
0.44

>  <rmsd>  (12) 
271.88

>  <cluster>  (12) 
1

$$$$
GZRQFJZYBWHXJG-UHFFFAOYNA-N
     RDKit          3D

 63 67  0  0  0  0  0  0  0  0999 V2000
  142.5180   80.5340  222.6390 C   0  0  0  0  0  0  0  0  0  0  0  0
  141.9370   80.1190  223.8410 C   0  0  0  0  0  0  0  0  0  0  0  0
  141.0590   79.0330  223.8550 C   0  0  0  0  0  0  0  0  0  0  0  0
  140.7580   78.3470  222.6660 C   0  0  0  0  0  0  0  0  0  0  0  0
  141.3240   78.7840  221.4400 C   0  0  0  0  0  0  0  0  0  0  0  0
  142.2190   79.8680  221.4460 C   0  0  0  0  0  0  0  0  0  0  0  0
  141.0620   78.0560  220.1390 C   0  0  0  0  0  0  0  0  0  0  0  0
  139.8100   77.1740  220.2130 C   0  0  0  0  0  0  0  0  0  0  0  0
  139.8370   76.4260  221.4720 N   0  0  0  0  0  0  0  0  0  0  0  0
  140.3660   75.0920  221.4900 C   0  0  0  0  0  0  0  0  0  0  0  0
  139.7570   74.1240  222.2230 N   0  0  0  0  0  0  0  0  0  0  0  0
  140.2810   72.8750  222.2720 C   0  0  0  0  0  0  0  0  0  0  0  0
  139.6830   71.8460  223.1790 C   0  0  0  0  0  0  0  0  0  0  0  0
  140.7190   71.2950  224.1690 C   0  0  0  0  0  0  0  0  0  0  0  0
  140.1550   71.2320  225.5420 N   0  0  0  0  0  0  0  0  0  0  0  0
  139.6600   69.8730  225.9020 C   0  0  0  0  0  0  0  0  0  0  0  0
  140.6350   69.1100  226.8060 C   0  0  0  0  0  0  0  0  0  0  0  0
  140.8690   69.8620  228.1270 C   0  0  0  0  0  0  0  0  0  0  0  0
  140.7420   71.3870  227.9680 C   0  0  0  0  0  0  0  0  0  0  0  0
  141.0850   71.8210  226.5370 C   0  0  0  0  0  0  0  0  0  0  0  0
  141.4190   72.5950  221.5880 N   0  0  0  0  0  0  0  0  0  0  0  0
  142.0350   73.5530  220.8460 C   0  0  0  0  0  0  0  0  0  0  0  0
  143.2410   73.2470  220.1150 N   0  0  0  0  0  0  0  0  0  0  0  0
  143.8530   74.2780  219.2620 C   0  0  0  0  0  0  0  0  0  0  0  0
  144.6660   73.6330  218.1300 C   0  0  0  0  0  0  0  0  0  0  0  0
  145.6090   72.6470  218.6730 N   0  0  0  0  0  0  0  0  0  0  0  0
  144.8770   71.5670  219.3450 C   0  0  0  0  0  0  0  0  0  0  0  0
  144.0850   72.1180  220.5350 C   0  0  0  0  0  0  0  0  0  0  0  0
  141.5050   74.8040  220.8120 N   0  0  0  0  0  0  0  0  0  0  0  0
  139.7610   77.2190  222.7030 C   0  0  0  0  0  0  0  0  0  0  0  0
  143.2125   81.3870  222.6315 H   0  0  0  0  0  0  0  0  0  0  0  0
  142.1716   80.6482  224.7764 H   0  0  0  0  0  0  0  0  0  0  0  0
  140.6004   78.7127  224.8022 H   0  0  0  0  0  0  0  0  0  0  0  0
  142.6874   80.1947  220.5059 H   0  0  0  0  0  0  0  0  0  0  0  0
  140.9261   78.7981  219.3385 H   0  0  0  0  0  0  0  0  0  0  0  0
  141.9242   77.4036  219.9366 H   0  0  0  0  0  0  0  0  0  0  0  0
  138.9098   77.8051  220.1765 H   0  0  0  0  0  0  0  0  0  0  0  0
  139.7918   76.4765  219.3626 H   0  0  0  0  0  0  0  0  0  0  0  0
  138.8579   72.3043  223.7439 H   0  0  0  0  0  0  0  0  0  0  0  0
  139.3200   71.0117  222.5609 H   0  0  0  0  0  0  0  0  0  0  0  0
  141.0162   70.2837  223.8544 H   0  0  0  0  0  0  0  0  0  0  0  0
  141.5911   71.9654  224.1764 H   0  0  0  0  0  0  0  0  0  0  0  0
  138.6993   69.9760  226.4278 H   0  0  0  0  0  0  0  0  0  0  0  0
  139.5530   69.2999  224.9692 H   0  0  0  0  0  0  0  0  0  0  0  0
  140.2175   68.1166  227.0272 H   0  0  0  0  0  0  0  0  0  0  0  0
  141.5975   69.0168  226.2817 H   0  0  0  0  0  0  0  0  0  0  0  0
  140.1262   69.5211  228.8632 H   0  0  0  0  0  0  0  0  0  0  0  0
  141.8955   69.6450  228.4575 H   0  0  0  0  0  0  0  0  0  0  0  0
  139.7091   71.6878  228.1973 H   0  0  0  0  0  0  0  0  0  0  0  0
  141.4470   71.8714  228.6596 H   0  0  0  0  0  0  0  0  0  0  0  0
  141.0252   72.9176  226.4740 H   0  0  0  0  0  0  0  0  0  0  0  0
  142.1002   71.4652  226.3070 H   0  0  0  0  0  0  0  0  0  0  0  0
  143.0601   74.9035  218.8261 H   0  0  0  0  0  0  0  0  0  0  0  0
  144.5278   74.8914  219.8772 H   0  0  0  0  0  0  0  0  0  0  0  0
  143.9799   73.1316  217.4315 H   0  0  0  0  0  0  0  0  0  0  0  0
  145.2326   74.4173  217.6067 H   0  0  0  0  0  0  0  0  0  0  0  0
  146.1310   72.2290  217.8640 H   0  0  0  0  0  0  0  0  0  0  0  0
  144.1815   71.1017  218.6310 H   0  0  0  0  0  0  0  0  0  0  0  0
  145.5981   70.8214  219.7111 H   0  0  0  0  0  0  0  0  0  0  0  0
  143.4463   71.3215  220.9445 H   0  0  0  0  0  0  0  0  0  0  0  0
  144.7924   72.4688  221.3008 H   0  0  0  0  0  0  0  0  0  0  0  0
  138.7476   77.6347  222.8038 H   0  0  0  0  0  0  0  0  0  0  0  0
  139.9911   76.5688  223.5599 H   0  0  0  0  0  0  0  0  0  0  0  0
  1  2  2  0
  2  3  1  0
  3  4  2  0
  4  5  1  0
  5  6  2  0
  5  7  1  0
  7  8  1  0
  8  9  1  0
  9 10  1  0
 10 11  2  0
 11 12  1  0
 12 13  1  0
 13 14  1  0
 14 15  1  0
 15 16  1  0
 16 17  1  0
 17 18  1  0
 18 19  1  0
 19 20  1  0
 12 21  2  0
 21 22  1  0
 22 23  1  0
 23 24  1  0
 24 25  1  0
 25 26  1  0
 26 27  1  0
 27 28  1  0
 22 29  2  0
  9 30  1  0
  6  1  1  0
 29 10  1  0
 30  4  1  0
 20 15  1  0
 28 23  1  0
  1 31  1  0
  2 32  1  0
  3 33  1  0
  6 34  1  0
  7 35  1  0
  7 36  1  0
  8 37  1  0
  8 38  1  0
 13 39  1  0
 13 40  1  0
 14 41  1  0
 14 42  1  0
 16 43  1  0
 16 44  1  0
 17 45  1  0
 17 46  1  0
 18 47  1  0
 18 48  1  0
 19 49  1  0
 19 50  1  0
 20 51  1  0
 20 52  1  0
 24 53  1  0
 24 54  1  0
 25 55  1  0
 25 56  1  0
 26 57  1  0
 27 58  1  0
 27 59  1  0
 28 60  1  0
 28 61  1  0
 30 62  1  0
 30 63  1  0
M  END
>  <UniqueID>  (13) 
561

>  <SMILES>  (13) 
c1ccc2c(c1)CCN(c1nc(CCN3CCCCC3)nc(N3CCNCC3)n1)C2

>  <Energy>  (13) 
71.46089149546641

>  <Genealogy>  (13) 
c1ccc2c(c1)CCN(c1nc(CCN3CCCCC3)nc(N3CCNCC3)n1)C2 (3D coordinates assigned)
c1ccc2c(c1)CCN(c1nc(CCN3CCCCC3)nc(N3CCNCC3)n1)C2 (nonaromatic ring conformer: 71.46089149546641 kcal/mol)

>  <smiles>  (13) 
c1ccc2c(c1)CCN(c1nc(CCN3CCCCC3)nc(N3CCNCC3)n1)C2

>  <score_type>  (13) 
oracle

>  <origin>  (13) 
autodockgpu

>  <m_score__min__energy>  (13) 
-9.8000000000000007

>  <m_primary>  (13) 
energy

>  <meeko>  (13) 
{"free_energy": -9.45, "intermolecular_energy": -10.94, "internal_energy": -0.92, "cluster_size": 17, "cluster_id": 1, "rank_in_cluster": 15}

>  <energy>  (13) 
-9.64

>  <cluster_rmsd>  (13) 
0.44

>  <rmsd>  (13) 
271.87

>  <cluster>  (13) 
1

$$$$
GZRQFJZYBWHXJG-UHFFFAOYNA-N
     RDKit          3D

 63 67  0  0  0  0  0  0  0  0999 V2000
  142.5210   80.8120  222.6150 C   0  0  0  0  0  0  0  0  0  0  0  0
  141.9950   80.3620  223.8290 C   0  0  0  0  0  0  0  0  0  0  0  0
  141.1480   79.2510  223.8550 C   0  0  0  0  0  0  0  0  0  0  0  0
  140.8230   78.5780  222.6650 C   0  0  0  0  0  0  0  0  0  0  0  0
  141.3330   79.0510  221.4280 C   0  0  0  0  0  0  0  0  0  0  0  0
  142.1980   80.1590  221.4210 C   0  0  0  0  0  0  0  0  0  0  0  0
  141.0440   78.3370  220.1240 C   0  0  0  0  0  0  0  0  0  0  0  0
  139.8200   77.4200  220.2270 C   0  0  0  0  0  0  0  0  0  0  0  0
  139.9120   76.6530  221.4710 N   0  0  0  0  0  0  0  0  0  0  0  0
  140.4770   75.3340  221.4460 C   0  0  0  0  0  0  0  0  0  0  0  0
  139.8460   74.3070  222.0730 N   0  0  0  0  0  0  0  0  0  0  0  0
  140.4010   73.0700  222.0840 C   0  0  0  0  0  0  0  0  0  0  0  0
  139.7700   71.9730  222.8810 C   0  0  0  0  0  0  0  0  0  0  0  0
  140.7530   71.3760  223.8980 C   0  0  0  0  0  0  0  0  0  0  0  0
  140.1610   71.3640  225.2600 N   0  0  0  0  0  0  0  0  0  0  0  0
  139.5580   70.0490  225.6170 C   0  0  0  0  0  0  0  0  0  0  0  0
  140.4550   69.2210  226.5440 C   0  0  0  0  0  0  0  0  0  0  0  0
  140.7190   69.9610  227.8660 C   0  0  0  0  0  0  0  0  0  0  0  0
  140.7110   71.4900  227.6970 C   0  0  0  0  0  0  0  0  0  0  0  0
  141.1130   71.8890  226.2710 C   0  0  0  0  0  0  0  0  0  0  0  0
  141.5930   72.8610  221.4690 N   0  0  0  0  0  0  0  0  0  0  0  0
  142.2320   73.8790  220.8330 C   0  0  0  0  0  0  0  0  0  0  0  0
  143.4950   73.6500  220.1750 N   0  0  0  0  0  0  0  0  0  0  0  0
  144.6880   73.3470  220.9810 C   0  0  0  0  0  0  0  0  0  0  0  0
  145.9650   73.7690  220.2380 C   0  0  0  0  0  0  0  0  0  0  0  0
  145.9810   73.2030  218.8840 N   0  0  0  0  0  0  0  0  0  0  0  0
  144.8460   73.7170  218.1100 C   0  0  0  0  0  0  0  0  0  0  0  0
  143.5220   73.2840  218.7500 C   0  0  0  0  0  0  0  0  0  0  0  0
  141.6700   75.1160  220.8360 N   0  0  0  0  0  0  0  0  0  0  0  0
  139.8580   77.4220  222.7170 C   0  0  0  0  0  0  0  0  0  0  0  0
  143.1919   81.6835  222.5984 H   0  0  0  0  0  0  0  0  0  0  0  0
  142.2478   80.8826  224.7644 H   0  0  0  0  0  0  0  0  0  0  0  0
  140.7334   78.9014  224.8120 H   0  0  0  0  0  0  0  0  0  0  0  0
  142.6234   80.5146  220.4709 H   0  0  0  0  0  0  0  0  0  0  0  0
  140.8595   79.0881  219.3418 H   0  0  0  0  0  0  0  0  0  0  0  0
  141.9156   77.7120  219.8799 H   0  0  0  0  0  0  0  0  0  0  0  0
  138.9024   78.0266  220.2330 H   0  0  0  0  0  0  0  0  0  0  0  0
  139.7904   76.7360  219.3660 H   0  0  0  0  0  0  0  0  0  0  0  0
  138.9008   72.3779  223.4200 H   0  0  0  0  0  0  0  0  0  0  0  0
  139.4656   71.1752  222.1875 H   0  0  0  0  0  0  0  0  0  0  0  0
  140.9966   70.3451  223.6016 H   0  0  0  0  0  0  0  0  0  0  0  0
  141.6622   71.9949  223.9144 H   0  0  0  0  0  0  0  0  0  0  0  0
  138.5978   70.2276  226.1232 H   0  0  0  0  0  0  0  0  0  0  0  0
  139.4259   69.4793  224.6853 H   0  0  0  0  0  0  0  0  0  0  0  0
  139.9599   68.2631  226.7613 H   0  0  0  0  0  0  0  0  0  0  0  0
  141.4180   69.0532  226.0395 H   0  0  0  0  0  0  0  0  0  0  0  0
  139.9380   69.6819  228.5886 H   0  0  0  0  0  0  0  0  0  0  0  0
  141.7192   69.6689  228.2186 H   0  0  0  0  0  0  0  0  0  0  0  0
  139.6996   71.8694  227.9048 H   0  0  0  0  0  0  0  0  0  0  0  0
  141.4378   71.9235  228.3997 H   0  0  0  0  0  0  0  0  0  0  0  0
  141.1357   72.9866  226.2019 H   0  0  0  0  0  0  0  0  0  0  0  0
  142.1034   71.4580  226.0628 H   0  0  0  0  0  0  0  0  0  0  0  0
  144.6279   73.8921  221.9346 H   0  0  0  0  0  0  0  0  0  0  0  0
  144.7262   72.2630  221.1637 H   0  0  0  0  0  0  0  0  0  0  0  0
  146.0000   74.8665  220.1723 H   0  0  0  0  0  0  0  0  0  0  0  0
  146.8392   73.3949  220.7910 H   0  0  0  0  0  0  0  0  0  0  0  0
  146.8640   73.5260  218.4160 H   0  0  0  0  0  0  0  0  0  0  0  0
  144.8934   74.8157  218.0835 H   0  0  0  0  0  0  0  0  0  0  0  0
  144.8979   73.3113  217.0889 H   0  0  0  0  0  0  0  0  0  0  0  0
  142.6894   73.7827  218.2322 H   0  0  0  0  0  0  0  0  0  0  0  0
  143.4240   72.1920  218.6610 H   0  0  0  0  0  0  0  0  0  0  0  0
  138.8380   77.8079  222.8604 H   0  0  0  0  0  0  0  0  0  0  0  0
  140.1353   76.7641  223.5538 H   0  0  0  0  0  0  0  0  0  0  0  0
  1  2  2  0
  2  3  1  0
  3  4  2  0
  4  5  1  0
  5  6  2  0
  5  7  1  0
  7  8  1  0
  8  9  1  0
  9 10  1  0
 10 11  2  0
 11 12  1  0
 12 13  1  0
 13 14  1  0
 14 15  1  0
 15 16  1  0
 16 17  1  0
 17 18  1  0
 18 19  1  0
 19 20  1  0
 12 21  2  0
 21 22  1  0
 22 23  1  0
 23 24  1  0
 24 25  1  0
 25 26  1  0
 26 27  1  0
 27 28  1  0
 22 29  2  0
  9 30  1  0
  6  1  1  0
 29 10  1  0
 30  4  1  0
 20 15  1  0
 28 23  1  0
  1 31  1  0
  2 32  1  0
  3 33  1  0
  6 34  1  0
  7 35  1  0
  7 36  1  0
  8 37  1  0
  8 38  1  0
 13 39  1  0
 13 40  1  0
 14 41  1  0
 14 42  1  0
 16 43  1  0
 16 44  1  0
 17 45  1  0
 17 46  1  0
 18 47  1  0
 18 48  1  0
 19 49  1  0
 19 50  1  0
 20 51  1  0
 20 52  1  0
 24 53  1  0
 24 54  1  0
 25 55  1  0
 25 56  1  0
 26 57  1  0
 27 58  1  0
 27 59  1  0
 28 60  1  0
 28 61  1  0
 30 62  1  0
 30 63  1  0
M  END
>  <UniqueID>  (14) 
561

>  <SMILES>  (14) 
c1ccc2c(c1)CCN(c1nc(CCN3CCCCC3)nc(N3CCNCC3)n1)C2

>  <Energy>  (14) 
71.46089149546641

>  <Genealogy>  (14) 
c1ccc2c(c1)CCN(c1nc(CCN3CCCCC3)nc(N3CCNCC3)n1)C2 (3D coordinates assigned)
c1ccc2c(c1)CCN(c1nc(CCN3CCCCC3)nc(N3CCNCC3)n1)C2 (nonaromatic ring conformer: 71.46089149546641 kcal/mol)

>  <smiles>  (14) 
c1ccc2c(c1)CCN(c1nc(CCN3CCCCC3)nc(N3CCNCC3)n1)C2

>  <score_type>  (14) 
oracle

>  <origin>  (14) 
autodockgpu

>  <m_score__min__energy>  (14) 
-9.8000000000000007

>  <m_primary>  (14) 
energy

>  <meeko>  (14) 
{"free_energy": -9.79, "intermolecular_energy": -11.28, "internal_energy": -0.9, "cluster_size": 17, "cluster_id": 1, "rank_in_cluster": 5}

>  <energy>  (14) 
-9.48

>  <cluster_rmsd>  (14) 
0.51

>  <rmsd>  (14) 
271.73

>  <cluster>  (14) 
1

$$$$
GZRQFJZYBWHXJG-UHFFFAOYNA-N
     RDKit          3D

 63 67  0  0  0  0  0  0  0  0999 V2000
  142.5220   80.5110  222.5100 C   0  0  0  0  0  0  0  0  0  0  0  0
  142.0700   80.0410  223.7460 C   0  0  0  0  0  0  0  0  0  0  0  0
  141.2790   78.8910  223.8090 C   0  0  0  0  0  0  0  0  0  0  0  0
  140.9380   78.1980  222.6350 C   0  0  0  0  0  0  0  0  0  0  0  0
  141.3730   78.6910  221.3770 C   0  0  0  0  0  0  0  0  0  0  0  0
  142.1820   79.8380  221.3320 C   0  0  0  0  0  0  0  0  0  0  0  0
  141.0650   77.9590  220.0870 C   0  0  0  0  0  0  0  0  0  0  0  0
  139.8920   76.9840  220.2420 C   0  0  0  0  0  0  0  0  0  0  0  0
  140.0730   76.2270  221.4830 N   0  0  0  0  0  0  0  0  0  0  0  0
  140.6990   74.9370  221.4370 C   0  0  0  0  0  0  0  0  0  0  0  0
  140.1100   73.8680  222.0350 N   0  0  0  0  0  0  0  0  0  0  0  0
  140.7230   72.6590  222.0270 C   0  0  0  0  0  0  0  0  0  0  0  0
  140.1360   71.5160  222.7930 C   0  0  0  0  0  0  0  0  0  0  0  0
  139.9860   71.8550  224.2840 C   0  0  0  0  0  0  0  0  0  0  0  0
  140.7530   70.8980  225.1220 N   0  0  0  0  0  0  0  0  0  0  0  0
  141.4320   71.5540  226.2750 C   0  0  0  0  0  0  0  0  0  0  0  0
  140.6870   71.3410  227.5980 C   0  0  0  0  0  0  0  0  0  0  0  0
  140.5790   69.8450  227.9380 C   0  0  0  0  0  0  0  0  0  0  0  0
  140.5240   68.9570  226.6840 C   0  0  0  0  0  0  0  0  0  0  0  0
  139.9280   69.7210  225.4940 C   0  0  0  0  0  0  0  0  0  0  0  0
  141.9290   72.5190  221.4200 N   0  0  0  0  0  0  0  0  0  0  0  0
  142.5260   73.5790  220.8130 C   0  0  0  0  0  0  0  0  0  0  0  0
  143.8050   73.4230  220.1640 N   0  0  0  0  0  0  0  0  0  0  0  0
  145.0160   73.2480  220.9810 C   0  0  0  0  0  0  0  0  0  0  0  0
  146.2580   73.7380  220.2220 C   0  0  0  0  0  0  0  0  0  0  0  0
  146.3220   73.1200  218.8910 N   0  0  0  0  0  0  0  0  0  0  0  0
  145.1520   73.5120  218.0980 C   0  0  0  0  0  0  0  0  0  0  0  0
  143.8650   73.0030  218.7560 C   0  0  0  0  0  0  0  0  0  0  0  0
  141.9060   74.7880  220.8360 N   0  0  0  0  0  0  0  0  0  0  0  0
  140.0330   76.9970  222.7280 C   0  0  0  0  0  0  0  0  0  0  0  0
  143.1480   81.4143  222.4633 H   0  0  0  0  0  0  0  0  0  0  0  0
  142.3369   80.5763  224.6691 H   0  0  0  0  0  0  0  0  0  0  0  0
  140.9212   78.5260  224.7830 H   0  0  0  0  0  0  0  0  0  0  0  0
  142.5505   80.2094  220.3644 H   0  0  0  0  0  0  0  0  0  0  0  0
  140.8121   78.6975  219.3120 H   0  0  0  0  0  0  0  0  0  0  0  0
  141.9550   77.3759  219.8081 H   0  0  0  0  0  0  0  0  0  0  0  0
  138.9470   77.5453  220.2850 H   0  0  0  0  0  0  0  0  0  0  0  0
  139.8597   76.2962  219.3841 H   0  0  0  0  0  0  0  0  0  0  0  0
  139.1448   71.2797  222.3787 H   0  0  0  0  0  0  0  0  0  0  0  0
  140.8142   70.6548  222.7015 H   0  0  0  0  0  0  0  0  0  0  0  0
  140.3629   72.8729  224.4621 H   0  0  0  0  0  0  0  0  0  0  0  0
  138.9222   71.7878  224.5557 H   0  0  0  0  0  0  0  0  0  0  0  0
  142.4455   71.1371  226.3705 H   0  0  0  0  0  0  0  0  0  0  0  0
  141.4548   72.6357  226.0763 H   0  0  0  0  0  0  0  0  0  0  0  0
  141.2321   71.8541  228.4039 H   0  0  0  0  0  0  0  0  0  0  0  0
  139.6711   71.7505  227.4967 H   0  0  0  0  0  0  0  0  0  0  0  0
  141.4552   69.5555  228.5368 H   0  0  0  0  0  0  0  0  0  0  0  0
  139.6413   69.6961  228.4935 H   0  0  0  0  0  0  0  0  0  0  0  0
  141.5434   68.6320  226.4285 H   0  0  0  0  0  0  0  0  0  0  0  0
  139.8844   68.0880  226.8980 H   0  0  0  0  0  0  0  0  0  0  0  0
  139.8669   69.0424  224.6304 H   0  0  0  0  0  0  0  0  0  0  0  0
  138.9309   70.0824  225.7860 H   0  0  0  0  0  0  0  0  0  0  0  0
  144.9104   73.8251  221.9115 H   0  0  0  0  0  0  0  0  0  0  0  0
  145.1387   72.1785  221.2072 H   0  0  0  0  0  0  0  0  0  0  0  0
  146.2075   74.8313  220.1119 H   0  0  0  0  0  0  0  0  0  0  0  0
  147.1571   73.4563  220.7897 H   0  0  0  0  0  0  0  0  0  0  0  0
  147.1780   73.4920  218.4110 H   0  0  0  0  0  0  0  0  0  0  0  0
  145.1133   74.6090  218.0272 H   0  0  0  0  0  0  0  0  0  0  0  0
  145.2377   73.0709  217.0940 H   0  0  0  0  0  0  0  0  0  0  0  0
  142.9972   73.4131  218.2187 H   0  0  0  0  0  0  0  0  0  0  0  0
  143.8538   71.9039  218.7120 H   0  0  0  0  0  0  0  0  0  0  0  0
  139.0022   77.3339  222.9123 H   0  0  0  0  0  0  0  0  0  0  0  0
  140.3759   76.3563  223.5537 H   0  0  0  0  0  0  0  0  0  0  0  0
  1  2  2  0
  2  3  1  0
  3  4  2  0
  4  5  1  0
  5  6  2  0
  5  7  1  0
  7  8  1  0
  8  9  1  0
  9 10  1  0
 10 11  2  0
 11 12  1  0
 12 13  1  0
 13 14  1  0
 14 15  1  0
 15 16  1  0
 16 17  1  0
 17 18  1  0
 18 19  1  0
 19 20  1  0
 12 21  2  0
 21 22  1  0
 22 23  1  0
 23 24  1  0
 24 25  1  0
 25 26  1  0
 26 27  1  0
 27 28  1  0
 22 29  2  0
  9 30  1  0
  6  1  1  0
 29 10  1  0
 30  4  1  0
 20 15  1  0
 28 23  1  0
  1 31  1  0
  2 32  1  0
  3 33  1  0
  6 34  1  0
  7 35  1  0
  7 36  1  0
  8 37  1  0
  8 38  1  0
 13 39  1  0
 13 40  1  0
 14 41  1  0
 14 42  1  0
 16 43  1  0
 16 44  1  0
 17 45  1  0
 17 46  1  0
 18 47  1  0
 18 48  1  0
 19 49  1  0
 19 50  1  0
 20 51  1  0
 20 52  1  0
 24 53  1  0
 24 54  1  0
 25 55  1  0
 25 56  1  0
 26 57  1  0
 27 58  1  0
 27 59  1  0
 28 60  1  0
 28 61  1  0
 30 62  1  0
 30 63  1  0
M  END
>  <UniqueID>  (15) 
561

>  <SMILES>  (15) 
c1ccc2c(c1)CCN(c1nc(CCN3CCCCC3)nc(N3CCNCC3)n1)C2

>  <Energy>  (15) 
71.46089149546641

>  <Genealogy>  (15) 
c1ccc2c(c1)CCN(c1nc(CCN3CCCCC3)nc(N3CCNCC3)n1)C2 (3D coordinates assigned)
c1ccc2c(c1)CCN(c1nc(CCN3CCCCC3)nc(N3CCNCC3)n1)C2 (nonaromatic ring conformer: 71.46089149546641 kcal/mol)

>  <smiles>  (15) 
c1ccc2c(c1)CCN(c1nc(CCN3CCCCC3)nc(N3CCNCC3)n1)C2

>  <score_type>  (15) 
oracle

>  <origin>  (15) 
autodockgpu

>  <m_score__min__energy>  (15) 
-9.8000000000000007

>  <m_primary>  (15) 
energy

>  <meeko>  (15) 
{"free_energy": -9.64, "intermolecular_energy": -11.13, "internal_energy": -0.91, "cluster_size": 17, "cluster_id": 1, "rank_in_cluster": 13}

>  <energy>  (15) 
-9.45

>  <cluster_rmsd>  (15) 
0.65

>  <rmsd>  (15) 
271.75

>  <cluster>  (15) 
1

$$$$
GZRQFJZYBWHXJG-UHFFFAOYNA-N
     RDKit          3D

 63 67  0  0  0  0  0  0  0  0999 V2000
  142.2010   80.3320  222.0230 C   0  0  0  0  0  0  0  0  0  0  0  0
  141.9380   79.9030  223.3260 C   0  0  0  0  0  0  0  0  0  0  0  0
  141.2330   78.7160  223.5430 C   0  0  0  0  0  0  0  0  0  0  0  0
  140.7890   77.9450  222.4550 C   0  0  0  0  0  0  0  0  0  0  0  0
  141.0300   78.3940  221.1300 C   0  0  0  0  0  0  0  0  0  0  0  0
  141.7560   79.5810  220.9300 C   0  0  0  0  0  0  0  0  0  0  0  0
  140.6080   77.5800  219.9250 C   0  0  0  0  0  0  0  0  0  0  0  0
  139.5250   76.5520  220.2740 C   0  0  0  0  0  0  0  0  0  0  0  0
  139.9070   75.8720  221.5140 N   0  0  0  0  0  0  0  0  0  0  0  0
  140.5990   74.6170  221.4460 C   0  0  0  0  0  0  0  0  0  0  0  0
  140.0660   73.5080  222.0210 N   0  0  0  0  0  0  0  0  0  0  0  0
  140.7410   72.3330  221.9920 C   0  0  0  0  0  0  0  0  0  0  0  0
  140.2120   71.1470  222.7350 C   0  0  0  0  0  0  0  0  0  0  0  0
  139.0100   71.5210  223.6120 C   0  0  0  0  0  0  0  0  0  0  0  0
  139.2630   71.1690  225.0330 N   0  0  0  0  0  0  0  0  0  0  0  0
  138.8120   69.7900  225.3760 C   0  0  0  0  0  0  0  0  0  0  0  0
  139.9700   68.7890  225.4430 C   0  0  0  0  0  0  0  0  0  0  0  0
  140.9960   69.2000  226.5120 C   0  0  0  0  0  0  0  0  0  0  0  0
  141.0690   70.7240  226.7060 C   0  0  0  0  0  0  0  0  0  0  0  0
  140.6650   71.4620  225.4230 C   0  0  0  0  0  0  0  0  0  0  0  0
  141.9550   72.2680  221.3880 N   0  0  0  0  0  0  0  0  0  0  0  0
  142.4970   73.3690  220.8030 C   0  0  0  0  0  0  0  0  0  0  0  0
  143.7850   73.2920  220.1560 N   0  0  0  0  0  0  0  0  0  0  0  0
  145.0020   73.1770  220.9750 C   0  0  0  0  0  0  0  0  0  0  0  0
  146.2160   73.7450  220.2240 C   0  0  0  0  0  0  0  0  0  0  0  0
  146.3170   73.1460  218.8870 N   0  0  0  0  0  0  0  0  0  0  0  0
  145.1290   73.4800  218.0940 C   0  0  0  0  0  0  0  0  0  0  0  0
  143.8710   72.8920  218.7430 C   0  0  0  0  0  0  0  0  0  0  0  0
  141.8150   74.5440  220.8460 N   0  0  0  0  0  0  0  0  0  0  0  0
  139.9780   76.7030  222.7180 C   0  0  0  0  0  0  0  0  0  0  0  0
  142.7604   81.2643  221.8557 H   0  0  0  0  0  0  0  0  0  0  0  0
  142.2860   80.4999  224.1819 H   0  0  0  0  0  0  0  0  0  0  0  0
  141.0245   78.3834  224.5706 H   0  0  0  0  0  0  0  0  0  0  0  0
  141.9756   79.9215  219.9073 H   0  0  0  0  0  0  0  0  0  0  0  0
  140.2154   78.2618  219.1562 H   0  0  0  0  0  0  0  0  0  0  0  0
  141.4897   77.0327  219.5603 H   0  0  0  0  0  0  0  0  0  0  0  0
  138.5608   77.0627  220.4135 H   0  0  0  0  0  0  0  0  0  0  0  0
  139.4262   75.8195  219.4593 H   0  0  0  0  0  0  0  0  0  0  0  0
  139.9002   70.3811  222.0096 H   0  0  0  0  0  0  0  0  0  0  0  0
  141.0103   70.7663  223.3891 H   0  0  0  0  0  0  0  0  0  0  0  0
  138.8307   72.6036  223.5352 H   0  0  0  0  0  0  0  0  0  0  0  0
  138.1304   70.9610  223.2616 H   0  0  0  0  0  0  0  0  0  0  0  0
  138.3126   69.8165  226.3557 H   0  0  0  0  0  0  0  0  0  0  0  0
  138.1295   69.4560  224.5806 H   0  0  0  0  0  0  0  0  0  0  0  0
  139.5712   67.7944  225.6914 H   0  0  0  0  0  0  0  0  0  0  0  0
  140.4729   68.7707  224.4649 H   0  0  0  0  0  0  0  0  0  0  0  0
  140.7133   68.7361  227.4685 H   0  0  0  0  0  0  0  0  0  0  0  0
  141.9854   68.8593  226.1729 H   0  0  0  0  0  0  0  0  0  0  0  0
  140.3877   71.0161  227.5187 H   0  0  0  0  0  0  0  0  0  0  0  0
  142.1053   70.9961  226.9551 H   0  0  0  0  0  0  0  0  0  0  0  0
  140.7693   72.5446  225.5878 H   0  0  0  0  0  0  0  0  0  0  0  0
  141.3231   71.1188  224.6111 H   0  0  0  0  0  0  0  0  0  0  0  0
  144.8618   73.7372  221.9112 H   0  0  0  0  0  0  0  0  0  0  0  0
  145.1846   72.1139  221.1908 H   0  0  0  0  0  0  0  0  0  0  0  0
  146.1038   74.8348  220.1254 H   0  0  0  0  0  0  0  0  0  0  0  0
  147.1287   73.5087  220.7907 H   0  0  0  0  0  0  0  0  0  0  0  0
  147.1520   73.5710  218.4130 H   0  0  0  0  0  0  0  0  0  0  0  0
  145.0287   74.5738  218.0344 H   0  0  0  0  0  0  0  0  0  0  0  0
  145.2421   73.0554  217.0855 H   0  0  0  0  0  0  0  0  0  0  0  0
  142.9826   73.2590  218.2082 H   0  0  0  0  0  0  0  0  0  0  0  0
  143.9214   71.7946  218.6864 H   0  0  0  0  0  0  0  0  0  0  0  0
  138.9602   76.9923  223.0187 H   0  0  0  0  0  0  0  0  0  0  0  0
  140.4610   76.1261  223.5204 H   0  0  0  0  0  0  0  0  0  0  0  0
  1  2  2  0
  2  3  1  0
  3  4  2  0
  4  5  1  0
  5  6  2  0
  5  7  1  0
  7  8  1  0
  8  9  1  0
  9 10  1  0
 10 11  2  0
 11 12  1  0
 12 13  1  0
 13 14  1  0
 14 15  1  0
 15 16  1  0
 16 17  1  0
 17 18  1  0
 18 19  1  0
 19 20  1  0
 12 21  2  0
 21 22  1  0
 22 23  1  0
 23 24  1  0
 24 25  1  0
 25 26  1  0
 26 27  1  0
 27 28  1  0
 22 29  2  0
  9 30  1  0
  6  1  1  0
 29 10  1  0
 30  4  1  0
 20 15  1  0
 28 23  1  0
  1 31  1  0
  2 32  1  0
  3 33  1  0
  6 34  1  0
  7 35  1  0
  7 36  1  0
  8 37  1  0
  8 38  1  0
 13 39  1  0
 13 40  1  0
 14 41  1  0
 14 42  1  0
 16 43  1  0
 16 44  1  0
 17 45  1  0
 17 46  1  0
 18 47  1  0
 18 48  1  0
 19 49  1  0
 19 50  1  0
 20 51  1  0
 20 52  1  0
 24 53  1  0
 24 54  1  0
 25 55  1  0
 25 56  1  0
 26 57  1  0
 27 58  1  0
 27 59  1  0
 28 60  1  0
 28 61  1  0
 30 62  1  0
 30 63  1  0
M  END
>  <UniqueID>  (16) 
561

>  <SMILES>  (16) 
c1ccc2c(c1)CCN(c1nc(CCN3CCCCC3)nc(N3CCNCC3)n1)C2

>  <Energy>  (16) 
71.46089149546641

>  <Genealogy>  (16) 
c1ccc2c(c1)CCN(c1nc(CCN3CCCCC3)nc(N3CCNCC3)n1)C2 (3D coordinates assigned)
c1ccc2c(c1)CCN(c1nc(CCN3CCCCC3)nc(N3CCNCC3)n1)C2 (nonaromatic ring conformer: 71.46089149546641 kcal/mol)

>  <smiles>  (16) 
c1ccc2c(c1)CCN(c1nc(CCN3CCCCC3)nc(N3CCNCC3)n1)C2

>  <score_type>  (16) 
oracle

>  <origin>  (16) 
autodockgpu

>  <m_score__min__energy>  (16) 
-9.8000000000000007

>  <m_primary>  (16) 
energy

>  <meeko>  (16) 
{"free_energy": -8.66, "intermolecular_energy": -10.15, "internal_energy": -1.04, "cluster_size": 17, "cluster_id": 1, "rank_in_cluster": 17}

>  <energy>  (16) 
-9.43

>  <cluster_rmsd>  (16) 
0.65

>  <rmsd>  (16) 
271.73

>  <cluster>  (16) 
1

$$$$
GZRQFJZYBWHXJG-UHFFFAOYNA-N
     RDKit          3D

 63 67  0  0  0  0  0  0  0  0999 V2000
  142.4590   80.6330  222.6600 C   0  0  0  0  0  0  0  0  0  0  0  0
  141.8410   80.2440  223.8510 C   0  0  0  0  0  0  0  0  0  0  0  0
  140.9680   79.1530  223.8620 C   0  0  0  0  0  0  0  0  0  0  0  0
  140.7090   78.4390  222.6800 C   0  0  0  0  0  0  0  0  0  0  0  0
  141.3120   78.8510  221.4630 C   0  0  0  0  0  0  0  0  0  0  0  0
  142.2020   79.9380  221.4730 C   0  0  0  0  0  0  0  0  0  0  0  0
  141.0960   78.0910  220.1710 C   0  0  0  0  0  0  0  0  0  0  0  0
  139.8450   77.2050  220.2260 C   0  0  0  0  0  0  0  0  0  0  0  0
  139.8350   76.4870  221.5020 N   0  0  0  0  0  0  0  0  0  0  0  0
  140.3680   75.1560  221.5680 C   0  0  0  0  0  0  0  0  0  0  0  0
  139.6800   74.1740  222.2060 N   0  0  0  0  0  0  0  0  0  0  0  0
  140.2050   72.9270  222.3030 C   0  0  0  0  0  0  0  0  0  0  0  0
  139.5060   71.8820  223.1140 C   0  0  0  0  0  0  0  0  0  0  0  0
  140.4850   71.1250  224.0230 C   0  0  0  0  0  0  0  0  0  0  0  0
  140.0280   71.1600  225.4360 N   0  0  0  0  0  0  0  0  0  0  0  0
  139.5330   69.8390  225.9170 C   0  0  0  0  0  0  0  0  0  0  0  0
  140.5580   69.1070  226.7910 C   0  0  0  0  0  0  0  0  0  0  0  0
  140.9100   69.9310  228.0400 C   0  0  0  0  0  0  0  0  0  0  0  0
  140.8050   71.4460  227.7970 C   0  0  0  0  0  0  0  0  0  0  0  0
  141.0450   71.7840  226.3190 C   0  0  0  0  0  0  0  0  0  0  0  0
  141.4210   72.6640  221.7630 N   0  0  0  0  0  0  0  0  0  0  0  0
  142.1170   73.6370  221.1170 C   0  0  0  0  0  0  0  0  0  0  0  0
  143.4080   73.3490  220.5390 N   0  0  0  0  0  0  0  0  0  0  0  0
  143.5600   72.1890  219.6470 C   0  0  0  0  0  0  0  0  0  0  0  0
  145.0090   71.6780  219.6650 C   0  0  0  0  0  0  0  0  0  0  0  0
  145.9440   72.7790  219.4040 N   0  0  0  0  0  0  0  0  0  0  0  0
  145.8340   73.7940  220.4590 C   0  0  0  0  0  0  0  0  0  0  0  0
  144.4290   74.4060  220.4670 C   0  0  0  0  0  0  0  0  0  0  0  0
  141.5860   74.8850  221.0330 N   0  0  0  0  0  0  0  0  0  0  0  0
  139.7150   77.3070  222.7100 C   0  0  0  0  0  0  0  0  0  0  0  0
  143.1501   81.4887  222.6553 H   0  0  0  0  0  0  0  0  0  0  0  0
  142.0417   80.7968  224.7806 H   0  0  0  0  0  0  0  0  0  0  0  0
  140.4809   78.8515  224.8011 H   0  0  0  0  0  0  0  0  0  0  0  0
  142.7001   80.2448  220.5415 H   0  0  0  0  0  0  0  0  0  0  0  0
  140.9834   78.8133  219.3490 H   0  0  0  0  0  0  0  0  0  0  0  0
  141.9670   77.4384  220.0118 H   0  0  0  0  0  0  0  0  0  0  0  0
  138.9440   77.8310  220.1463 H   0  0  0  0  0  0  0  0  0  0  0  0
  139.8563   76.4878  219.3920 H   0  0  0  0  0  0  0  0  0  0  0  0
  138.7410   72.3668  223.7383 H   0  0  0  0  0  0  0  0  0  0  0  0
  139.0480   71.1589  222.4231 H   0  0  0  0  0  0  0  0  0  0  0  0
  140.5497   70.0784  223.6908 H   0  0  0  0  0  0  0  0  0  0  0  0
  141.4709   71.6087  223.9594 H   0  0  0  0  0  0  0  0  0  0  0  0
  138.6181   69.9991  226.5064 H   0  0  0  0  0  0  0  0  0  0  0  0
  139.3422   69.2131  225.0328 H   0  0  0  0  0  0  0  0  0  0  0  0
  140.1370   68.1405  227.1052 H   0  0  0  0  0  0  0  0  0  0  0  0
  141.4749   68.9566  226.2022 H   0  0  0  0  0  0  0  0  0  0  0  0
  140.2191   69.6553  228.8504 H   0  0  0  0  0  0  0  0  0  0  0  0
  141.9542   69.7071  228.3039 H   0  0  0  0  0  0  0  0  0  0  0  0
  139.8001   71.7878  228.0856 H   0  0  0  0  0  0  0  0  0  0  0  0
  141.5724   71.9519  228.4013 H   0  0  0  0  0  0  0  0  0  0  0  0
  141.0036   72.8759  226.1927 H   0  0  0  0  0  0  0  0  0  0  0  0
  142.0315   71.3889  226.0349 H   0  0  0  0  0  0  0  0  0  0  0  0
  142.8890   71.3846  219.9827 H   0  0  0  0  0  0  0  0  0  0  0  0
  143.3049   72.4948  218.6216 H   0  0  0  0  0  0  0  0  0  0  0  0
  145.2276   71.2432  220.6515 H   0  0  0  0  0  0  0  0  0  0  0  0
  145.1280   70.9159  218.8808 H   0  0  0  0  0  0  0  0  0  0  0  0
  146.9160   72.3830  219.4370 H   0  0  0  0  0  0  0  0  0  0  0  0
  146.0309   73.3256  221.4346 H   0  0  0  0  0  0  0  0  0  0  0  0
  146.5688   74.5897  220.2667 H   0  0  0  0  0  0  0  0  0  0  0  0
  144.3272   75.0679  221.3396 H   0  0  0  0  0  0  0  0  0  0  0  0
  144.2844   74.9782  219.5387 H   0  0  0  0  0  0  0  0  0  0  0  0
  138.6972   77.7203  222.7674 H   0  0  0  0  0  0  0  0  0  0  0  0
  139.9187   76.6777  223.5889 H   0  0  0  0  0  0  0  0  0  0  0  0
  1  2  2  0
  2  3  1  0
  3  4  2  0
  4  5  1  0
  5  6  2  0
  5  7  1  0
  7  8  1  0
  8  9  1  0
  9 10  1  0
 10 11  2  0
 11 12  1  0
 12 13  1  0
 13 14  1  0
 14 15  1  0
 15 16  1  0
 16 17  1  0
 17 18  1  0
 18 19  1  0
 19 20  1  0
 12 21  2  0
 21 22  1  0
 22 23  1  0
 23 24  1  0
 24 25  1  0
 25 26  1  0
 26 27  1  0
 27 28  1  0
 22 29  2  0
  9 30  1  0
  6  1  1  0
 29 10  1  0
 30  4  1  0
 20 15  1  0
 28 23  1  0
  1 31  1  0
  2 32  1  0
  3 33  1  0
  6 34  1  0
  7 35  1  0
  7 36  1  0
  8 37  1  0
  8 38  1  0
 13 39  1  0
 13 40  1  0
 14 41  1  0
 14 42  1  0
 16 43  1  0
 16 44  1  0
 17 45  1  0
 17 46  1  0
 18 47  1  0
 18 48  1  0
 19 49  1  0
 19 50  1  0
 20 51  1  0
 20 52  1  0
 24 53  1  0
 24 54  1  0
 25 55  1  0
 25 56  1  0
 26 57  1  0
 27 58  1  0
 27 59  1  0
 28 60  1  0
 28 61  1  0
 30 62  1  0
 30 63  1  0
M  END
>  <UniqueID>  (17) 
561

>  <SMILES>  (17) 
c1ccc2c(c1)CCN(c1nc(CCN3CCCCC3)nc(N3CCNCC3)n1)C2

>  <Energy>  (17) 
71.46089149546641

>  <Genealogy>  (17) 
c1ccc2c(c1)CCN(c1nc(CCN3CCCCC3)nc(N3CCNCC3)n1)C2 (3D coordinates assigned)
c1ccc2c(c1)CCN(c1nc(CCN3CCCCC3)nc(N3CCNCC3)n1)C2 (nonaromatic ring conformer: 71.46089149546641 kcal/mol)

>  <smiles>  (17) 
c1ccc2c(c1)CCN(c1nc(CCN3CCCCC3)nc(N3CCNCC3)n1)C2

>  <score_type>  (17) 
oracle

>  <origin>  (17) 
autodockgpu

>  <m_score__min__energy>  (17) 
-9.8000000000000007

>  <m_primary>  (17) 
energy

>  <meeko>  (17) 
{"free_energy": -9.68, "intermolecular_energy": -11.17, "internal_energy": -0.93, "cluster_size": 17, "cluster_id": 1, "rank_in_cluster": 10}

>  <energy>  (17) 
-8.66

>  <cluster_rmsd>  (17) 
0.76

>  <rmsd>  (17) 
271.5

>  <cluster>  (17) 
1

$$$$
GZRQFJZYBWHXJG-UHFFFAOYNA-N
     RDKit          3D

 63 67  0  0  0  0  0  0  0  0999 V2000
  142.4770   80.7950  222.6330 C   0  0  0  0  0  0  0  0  0  0  0  0
  141.9430   80.3460  223.8440 C   0  0  0  0  0  0  0  0  0  0  0  0
  141.1040   79.2290  223.8660 C   0  0  0  0  0  0  0  0  0  0  0  0
  140.7970   78.5470  222.6760 C   0  0  0  0  0  0  0  0  0  0  0  0
  141.3160   79.0190  221.4420 C   0  0  0  0  0  0  0  0  0  0  0  0
  142.1710   80.1330  221.4390 C   0  0  0  0  0  0  0  0  0  0  0  0
  141.0460   78.2970  220.1380 C   0  0  0  0  0  0  0  0  0  0  0  0
  139.8280   77.3700  220.2330 C   0  0  0  0  0  0  0  0  0  0  0  0
  139.9140   76.6100  221.4820 N   0  0  0  0  0  0  0  0  0  0  0  0
  140.4890   75.2950  221.4690 C   0  0  0  0  0  0  0  0  0  0  0  0
  139.8790   74.2740  222.1260 N   0  0  0  0  0  0  0  0  0  0  0  0
  140.4450   73.0420  222.1470 C   0  0  0  0  0  0  0  0  0  0  0  0
  139.8390   71.9540  222.9750 C   0  0  0  0  0  0  0  0  0  0  0  0
  140.8230   71.4340  224.0330 C   0  0  0  0  0  0  0  0  0  0  0  0
  140.1800   71.3840  225.3710 N   0  0  0  0  0  0  0  0  0  0  0  0
  139.5780   70.0540  225.6740 C   0  0  0  0  0  0  0  0  0  0  0  0
  140.4490   69.2120  226.6130 C   0  0  0  0  0  0  0  0  0  0  0  0
  140.6570   69.9220  227.9610 C   0  0  0  0  0  0  0  0  0  0  0  0
  140.6390   71.4550  227.8300 C   0  0  0  0  0  0  0  0  0  0  0  0
  141.0890   71.8920  226.4290 C   0  0  0  0  0  0  0  0  0  0  0  0
  141.6270   72.8330  221.5130 N   0  0  0  0  0  0  0  0  0  0  0  0
  142.2440   73.8450  220.8480 C   0  0  0  0  0  0  0  0  0  0  0  0
  143.4970   73.6140  220.1690 N   0  0  0  0  0  0  0  0  0  0  0  0
  144.6980   73.2900  220.9550 C   0  0  0  0  0  0  0  0  0  0  0  0
  145.9690   73.7110  220.2020 C   0  0  0  0  0  0  0  0  0  0  0  0
  145.9620   73.1650  218.8390 N   0  0  0  0  0  0  0  0  0  0  0  0
  144.8210   73.7010  218.0880 C   0  0  0  0  0  0  0  0  0  0  0  0
  143.5020   73.2700  218.7390 C   0  0  0  0  0  0  0  0  0  0  0  0
  141.6720   75.0770  220.8400 N   0  0  0  0  0  0  0  0  0  0  0  0
  139.8410   77.3840  222.7230 C   0  0  0  0  0  0  0  0  0  0  0  0
  143.1405   81.6723  222.6185 H   0  0  0  0  0  0  0  0  0  0  0  0
  142.1832   80.8720  224.7797 H   0  0  0  0  0  0  0  0  0  0  0  0
  140.6813   78.8813  224.8202 H   0  0  0  0  0  0  0  0  0  0  0  0
  142.6031   80.4875  220.4916 H   0  0  0  0  0  0  0  0  0  0  0  0
  140.8632   79.0432  219.3507 H   0  0  0  0  0  0  0  0  0  0  0  0
  141.9252   77.6782  219.9052 H   0  0  0  0  0  0  0  0  0  0  0  0
  138.9054   77.9689  220.2267 H   0  0  0  0  0  0  0  0  0  0  0  0
  139.8125   76.6816  219.3752 H   0  0  0  0  0  0  0  0  0  0  0  0
  138.9450   72.3467  223.4814 H   0  0  0  0  0  0  0  0  0  0  0  0
  139.5779   71.1191  222.3082 H   0  0  0  0  0  0  0  0  0  0  0  0
  141.1525   70.4225  223.7531 H   0  0  0  0  0  0  0  0  0  0  0  0
  141.6838   72.1173  224.0805 H   0  0  0  0  0  0  0  0  0  0  0  0
  138.5982   70.2109  226.1487 H   0  0  0  0  0  0  0  0  0  0  0  0
  139.4863   69.5061  224.7246 H   0  0  0  0  0  0  0  0  0  0  0  0
  139.9561   68.2445  226.7889 H   0  0  0  0  0  0  0  0  0  0  0  0
  141.4314   69.0654  226.1403 H   0  0  0  0  0  0  0  0  0  0  0  0
  139.8533   69.6174  228.6475 H   0  0  0  0  0  0  0  0  0  0  0  0
  141.6471   69.6313  228.3420 H   0  0  0  0  0  0  0  0  0  0  0  0
  139.6168   71.8195  228.0097 H   0  0  0  0  0  0  0  0  0  0  0  0
  141.3344   71.8784  228.5697 H   0  0  0  0  0  0  0  0  0  0  0  0
  141.1039   72.9911  226.3872 H   0  0  0  0  0  0  0  0  0  0  0  0
  142.0902   71.4741  226.2472 H   0  0  0  0  0  0  0  0  0  0  0  0
  144.6548   73.8224  221.9166 H   0  0  0  0  0  0  0  0  0  0  0  0
  144.7292   72.2032  221.1218 H   0  0  0  0  0  0  0  0  0  0  0  0
  146.0137   74.8090  220.1522 H   0  0  0  0  0  0  0  0  0  0  0  0
  146.8466   73.3205  220.7379 H   0  0  0  0  0  0  0  0  0  0  0  0
  146.8410   73.4870  218.3650 H   0  0  0  0  0  0  0  0  0  0  0  0
  144.8779   74.7995  218.0776 H   0  0  0  0  0  0  0  0  0  0  0  0
  144.8556   73.3106  217.0602 H   0  0  0  0  0  0  0  0  0  0  0  0
  142.6671   73.7839  218.2401 H   0  0  0  0  0  0  0  0  0  0  0  0
  143.3931   72.1804  218.6347 H   0  0  0  0  0  0  0  0  0  0  0  0
  138.8165   77.7625  222.8539 H   0  0  0  0  0  0  0  0  0  0  0  0
  140.1148   76.7321  223.5657 H   0  0  0  0  0  0  0  0  0  0  0  0
  1  2  2  0
  2  3  1  0
  3  4  2  0
  4  5  1  0
  5  6  2  0
  5  7  1  0
  7  8  1  0
  8  9  1  0
  9 10  1  0
 10 11  2  0
 11 12  1  0
 12 13  1  0
 13 14  1  0
 14 15  1  0
 15 16  1  0
 16 17  1  0
 17 18  1  0
 18 19  1  0
 19 20  1  0
 12 21  2  0
 21 22  1  0
 22 23  1  0
 23 24  1  0
 24 25  1  0
 25 26  1  0
 26 27  1  0
 27 28  1  0
 22 29  2  0
  9 30  1  0
  6  1  1  0
 29 10  1  0
 30  4  1  0
 20 15  1  0
 28 23  1  0
  1 31  1  0
  2 32  1  0
  3 33  1  0
  6 34  1  0
  7 35  1  0
  7 36  1  0
  8 37  1  0
  8 38  1  0
 13 39  1  0
 13 40  1  0
 14 41  1  0
 14 42  1  0
 16 43  1  0
 16 44  1  0
 17 45  1  0
 17 46  1  0
 18 47  1  0
 18 48  1  0
 19 49  1  0
 19 50  1  0
 20 51  1  0
 20 52  1  0
 24 53  1  0
 24 54  1  0
 25 55  1  0
 25 56  1  0
 26 57  1  0
 27 58  1  0
 27 59  1  0
 28 60  1  0
 28 61  1  0
 30 62  1  0
 30 63  1  0
M  END
>  <UniqueID>  (18) 
561

>  <SMILES>  (18) 
c1ccc2c(c1)CCN(c1nc(CCN3CCCCC3)nc(N3CCNCC3)n1)C2

>  <Energy>  (18) 
71.46089149546641

>  <Genealogy>  (18) 
c1ccc2c(c1)CCN(c1nc(CCN3CCCCC3)nc(N3CCNCC3)n1)C2 (3D coordinates assigned)
c1ccc2c(c1)CCN(c1nc(CCN3CCCCC3)nc(N3CCNCC3)n1)C2 (nonaromatic ring conformer: 71.46089149546641 kcal/mol)

>  <smiles>  (18) 
c1ccc2c(c1)CCN(c1nc(CCN3CCCCC3)nc(N3CCNCC3)n1)C2

>  <score_type>  (18) 
oracle

>  <origin>  (18) 
autodockgpu

>  <m_score__min__energy>  (18) 
-9.8000000000000007

>  <m_primary>  (18) 
energy

>  <meeko>  (18) 
{"free_energy": -9.8, "intermolecular_energy": -11.29, "internal_energy": -0.89, "cluster_size": 17, "cluster_id": 1, "rank_in_cluster": 1}

>  <energy>  (18) 
-7.58

>  <cluster_rmsd>  (18) 
0.0

>  <rmsd>  (18) 
270.99

>  <cluster>  (18) 
2

$$$$
GZRQFJZYBWHXJG-UHFFFAOYNA-N
     RDKit          3D

 63 67  0  0  0  0  0  0  0  0999 V2000
  142.4660   80.7090  222.6400 C   0  0  0  0  0  0  0  0  0  0  0  0
  141.9460   80.2380  223.8490 C   0  0  0  0  0  0  0  0  0  0  0  0
  141.1250   79.1080  223.8640 C   0  0  0  0  0  0  0  0  0  0  0  0
  140.8210   78.4350  222.6690 C   0  0  0  0  0  0  0  0  0  0  0  0
  141.3250   78.9280  221.4370 C   0  0  0  0  0  0  0  0  0  0  0  0
  142.1630   80.0550  221.4410 C   0  0  0  0  0  0  0  0  0  0  0  0
  141.0580   78.2150  220.1270 C   0  0  0  0  0  0  0  0  0  0  0  0
  139.8550   77.2690  220.2190 C   0  0  0  0  0  0  0  0  0  0  0  0
  139.9610   76.4960  221.4590 N   0  0  0  0  0  0  0  0  0  0  0  0
  140.5560   75.1910  221.4290 C   0  0  0  0  0  0  0  0  0  0  0  0
  139.9520   74.1470  222.0540 N   0  0  0  0  0  0  0  0  0  0  0  0
  140.5360   72.9240  222.0590 C   0  0  0  0  0  0  0  0  0  0  0  0
  139.9330   71.8100  222.8540 C   0  0  0  0  0  0  0  0  0  0  0  0
  140.3390   71.8880  224.3330 C   0  0  0  0  0  0  0  0  0  0  0  0
  140.6000   70.5320  224.8810 N   0  0  0  0  0  0  0  0  0  0  0  0
  141.3860   70.5610  226.1470 C   0  0  0  0  0  0  0  0  0  0  0  0
  140.5130   70.3480  227.3880 C   0  0  0  0  0  0  0  0  0  0  0  0
  139.8020   68.9850  227.3390 C   0  0  0  0  0  0  0  0  0  0  0  0
  139.5060   68.5260  225.9010 C   0  0  0  0  0  0  0  0  0  0  0  0
  139.3540   69.7290  224.9600 C   0  0  0  0  0  0  0  0  0  0  0  0
  141.7310   72.7460  221.4400 N   0  0  0  0  0  0  0  0  0  0  0  0
  142.3430   73.7800  220.8060 C   0  0  0  0  0  0  0  0  0  0  0  0
  143.6100   73.5830  220.1430 N   0  0  0  0  0  0  0  0  0  0  0  0
  144.8120   73.3070  220.9450 C   0  0  0  0  0  0  0  0  0  0  0  0
  146.0770   73.7610  220.2010 C   0  0  0  0  0  0  0  0  0  0  0  0
  146.1020   73.1990  218.8440 N   0  0  0  0  0  0  0  0  0  0  0  0
  144.9530   73.6890  218.0750 C   0  0  0  0  0  0  0  0  0  0  0  0
  143.6420   73.2230  218.7180 C   0  0  0  0  0  0  0  0  0  0  0  0
  141.7520   75.0040  220.8150 N   0  0  0  0  0  0  0  0  0  0  0  0
  139.8840   77.2560  222.7100 C   0  0  0  0  0  0  0  0  0  0  0  0
  143.1155   81.5967  222.6313 H   0  0  0  0  0  0  0  0  0  0  0  0
  142.1834   80.7575  224.7891 H   0  0  0  0  0  0  0  0  0  0  0  0
  140.7142   78.7431  224.8169 H   0  0  0  0  0  0  0  0  0  0  0  0
  142.5840   80.4260  220.4949 H   0  0  0  0  0  0  0  0  0  0  0  0
  140.8595   78.9663  219.3485 H   0  0  0  0  0  0  0  0  0  0  0  0
  141.9449   77.6117  219.8832 H   0  0  0  0  0  0  0  0  0  0  0  0
  138.9234   77.8539  220.2256 H   0  0  0  0  0  0  0  0  0  0  0  0
  139.8439   76.5904  219.3533 H   0  0  0  0  0  0  0  0  0  0  0  0
  138.8372   71.8714  222.7808 H   0  0  0  0  0  0  0  0  0  0  0  0
  140.3008   70.8571  222.4457 H   0  0  0  0  0  0  0  0  0  0  0  0
  141.2512   72.4958  224.4249 H   0  0  0  0  0  0  0  0  0  0  0  0
  139.5153   72.3451  224.9009 H   0  0  0  0  0  0  0  0  0  0  0  0
  142.1444   69.7651  226.1090 H   0  0  0  0  0  0  0  0  0  0  0  0
  141.8462   71.5566  226.2305 H   0  0  0  0  0  0  0  0  0  0  0  0
  141.1481   70.3896  228.2852 H   0  0  0  0  0  0  0  0  0  0  0  0
  139.7492   71.1391  227.4172 H   0  0  0  0  0  0  0  0  0  0  0  0
  140.4440   68.2347  227.8236 H   0  0  0  0  0  0  0  0  0  0  0  0
  138.8394   69.0914  227.8606 H   0  0  0  0  0  0  0  0  0  0  0  0
  140.3345   67.8949  225.5471 H   0  0  0  0  0  0  0  0  0  0  0  0
  138.5630   67.9597  225.9010 H   0  0  0  0  0  0  0  0  0  0  0  0
  139.1023   69.3634  223.9535 H   0  0  0  0  0  0  0  0  0  0  0  0
  138.5576   70.3746  225.3586 H   0  0  0  0  0  0  0  0  0  0  0  0
  144.7410   73.8481  221.9001 H   0  0  0  0  0  0  0  0  0  0  0  0
  144.8766   72.2236  221.1242 H   0  0  0  0  0  0  0  0  0  0  0  0
  146.0865   74.8592  220.1388 H   0  0  0  0  0  0  0  0  0  0  0  0
  146.9612   73.4061  220.7507 H   0  0  0  0  0  0  0  0  0  0  0  0
  146.9760   73.5450  218.3760 H   0  0  0  0  0  0  0  0  0  0  0  0
  144.9746   74.7885  218.0519 H   0  0  0  0  0  0  0  0  0  0  0  0
  145.0110   73.2883  217.0522 H   0  0  0  0  0  0  0  0  0  0  0  0
  142.7962   73.7035  218.2043 H   0  0  0  0  0  0  0  0  0  0  0  0
  143.5702   72.1292  218.6261 H   0  0  0  0  0  0  0  0  0  0  0  0
  138.8545   77.6164  222.8519 H   0  0  0  0  0  0  0  0  0  0  0  0
  140.1740   76.5996  223.5437 H   0  0  0  0  0  0  0  0  0  0  0  0
  1  2  2  0
  2  3  1  0
  3  4  2  0
  4  5  1  0
  5  6  2  0
  5  7  1  0
  7  8  1  0
  8  9  1  0
  9 10  1  0
 10 11  2  0
 11 12  1  0
 12 13  1  0
 13 14  1  0
 14 15  1  0
 15 16  1  0
 16 17  1  0
 17 18  1  0
 18 19  1  0
 19 20  1  0
 12 21  2  0
 21 22  1  0
 22 23  1  0
 23 24  1  0
 24 25  1  0
 25 26  1  0
 26 27  1  0
 27 28  1  0
 22 29  2  0
  9 30  1  0
  6  1  1  0
 29 10  1  0
 30  4  1  0
 20 15  1  0
 28 23  1  0
  1 31  1  0
  2 32  1  0
  3 33  1  0
  6 34  1  0
  7 35  1  0
  7 36  1  0
  8 37  1  0
  8 38  1  0
 13 39  1  0
 13 40  1  0
 14 41  1  0
 14 42  1  0
 16 43  1  0
 16 44  1  0
 17 45  1  0
 17 46  1  0
 18 47  1  0
 18 48  1  0
 19 49  1  0
 19 50  1  0
 20 51  1  0
 20 52  1  0
 24 53  1  0
 24 54  1  0
 25 55  1  0
 25 56  1  0
 26 57  1  0
 27 58  1  0
 27 59  1  0
 28 60  1  0
 28 61  1  0
 30 62  1  0
 30 63  1  0
M  END
>  <UniqueID>  (19) 
561

>  <SMILES>  (19) 
c1ccc2c(c1)CCN(c1nc(CCN3CCCCC3)nc(N3CCNCC3)n1)C2

>  <Energy>  (19) 
71.46089149546641

>  <Genealogy>  (19) 
c1ccc2c(c1)CCN(c1nc(CCN3CCCCC3)nc(N3CCNCC3)n1)C2 (3D coordinates assigned)
c1ccc2c(c1)CCN(c1nc(CCN3CCCCC3)nc(N3CCNCC3)n1)C2 (nonaromatic ring conformer: 71.46089149546641 kcal/mol)

>  <smiles>  (19) 
c1ccc2c(c1)CCN(c1nc(CCN3CCCCC3)nc(N3CCNCC3)n1)C2

>  <score_type>  (19) 
oracle

>  <origin>  (19) 
autodockgpu

>  <m_score__min__energy>  (19) 
-9.8000000000000007

>  <m_primary>  (19) 
energy

>  <meeko>  (19) 
{"free_energy": -9.48, "intermolecular_energy": -10.97, "internal_energy": -0.88, "cluster_size": 17, "cluster_id": 1, "rank_in_cluster": 14}

>  <energy>  (19) 
-7.36

>  <cluster_rmsd>  (19) 
0.0

>  <rmsd>  (19) 
270.81

>  <cluster>  (19) 
3

$$$$
GZRQFJZYBWHXJG-UHFFFAOYNA-N
     RDKit          3D

 63 67  0  0  0  0  0  0  0  0999 V2000
  142.4910   80.5140  222.5410 C   0  0  0  0  0  0  0  0  0  0  0  0
  142.0200   80.0440  223.7690 C   0  0  0  0  0  0  0  0  0  0  0  0
  141.2280   78.8950  223.8210 C   0  0  0  0  0  0  0  0  0  0  0  0
  140.9040   78.2020  222.6420 C   0  0  0  0  0  0  0  0  0  0  0  0
  141.3570   78.6940  221.3910 C   0  0  0  0  0  0  0  0  0  0  0  0
  142.1680   79.8410  221.3580 C   0  0  0  0  0  0  0  0  0  0  0  0
  141.0680   77.9620  220.0970 C   0  0  0  0  0  0  0  0  0  0  0  0
  139.8920   76.9880  220.2350 C   0  0  0  0  0  0  0  0  0  0  0  0
  140.0540   76.2310  221.4780 N   0  0  0  0  0  0  0  0  0  0  0  0
  140.6800   74.9400  221.4420 C   0  0  0  0  0  0  0  0  0  0  0  0
  140.0930   73.8760  222.0490 N   0  0  0  0  0  0  0  0  0  0  0  0
  140.7050   72.6670  222.0490 C   0  0  0  0  0  0  0  0  0  0  0  0
  140.1190   71.5310  222.8260 C   0  0  0  0  0  0  0  0  0  0  0  0
  140.0130   71.8640  224.3210 C   0  0  0  0  0  0  0  0  0  0  0  0
  140.8160   70.9130  225.1320 N   0  0  0  0  0  0  0  0  0  0  0  0
  141.4410   71.5540  226.3240 C   0  0  0  0  0  0  0  0  0  0  0  0
  140.6880   71.2460  227.6220 C   0  0  0  0  0  0  0  0  0  0  0  0
  140.6540   69.7340  227.8980 C   0  0  0  0  0  0  0  0  0  0  0  0
  140.6660   68.8980  226.6060 C   0  0  0  0  0  0  0  0  0  0  0  0
  140.0490   69.6800  225.4390 C   0  0  0  0  0  0  0  0  0  0  0  0
  141.9110   72.5220  221.4430 N   0  0  0  0  0  0  0  0  0  0  0  0
  142.5070   73.5770  220.8270 C   0  0  0  0  0  0  0  0  0  0  0  0
  143.7860   73.4160  220.1780 N   0  0  0  0  0  0  0  0  0  0  0  0
  145.0000   73.2690  220.9950 C   0  0  0  0  0  0  0  0  0  0  0  0
  146.2370   73.7510  220.2210 C   0  0  0  0  0  0  0  0  0  0  0  0
  146.3020   73.1030  218.9050 N   0  0  0  0  0  0  0  0  0  0  0  0
  145.1260   73.4680  218.1060 C   0  0  0  0  0  0  0  0  0  0  0  0
  143.8450   72.9640  218.7790 C   0  0  0  0  0  0  0  0  0  0  0  0
  141.8880   74.7870  220.8410 N   0  0  0  0  0  0  0  0  0  0  0  0
  139.9970   77.0010  222.7230 C   0  0  0  0  0  0  0  0  0  0  0  0
  143.1183   81.4168  222.5040 H   0  0  0  0  0  0  0  0  0  0  0  0
  142.2731   80.5794  224.6960 H   0  0  0  0  0  0  0  0  0  0  0  0
  140.8558   78.5304  224.7898 H   0  0  0  0  0  0  0  0  0  0  0  0
  142.5512   80.2120  220.3960 H   0  0  0  0  0  0  0  0  0  0  0  0
  140.8273   78.7004  219.3180 H   0  0  0  0  0  0  0  0  0  0  0  0
  141.9617   77.3782  219.8314 H   0  0  0  0  0  0  0  0  0  0  0  0
  138.9470   77.5502  220.2643 H   0  0  0  0  0  0  0  0  0  0  0  0
  139.8717   76.3002  219.3768 H   0  0  0  0  0  0  0  0  0  0  0  0
  139.1135   71.3133  222.4366 H   0  0  0  0  0  0  0  0  0  0  0  0
  140.7810   70.6597  222.7137 H   0  0  0  0  0  0  0  0  0  0  0  0
  140.3848   72.8854  224.4901 H   0  0  0  0  0  0  0  0  0  0  0  0
  138.9591   71.7845  224.6258 H   0  0  0  0  0  0  0  0  0  0  0  0
  142.4735   71.1872  226.4203 H   0  0  0  0  0  0  0  0  0  0  0  0
  141.4095   72.6429  226.1713 H   0  0  0  0  0  0  0  0  0  0  0  0
  141.1921   71.7524  228.4583 H   0  0  0  0  0  0  0  0  0  0  0  0
  139.6534   71.6052  227.5188 H   0  0  0  0  0  0  0  0  0  0  0  0
  141.5347   69.4655  228.4999 H   0  0  0  0  0  0  0  0  0  0  0  0
  139.7171   69.5127  228.4303 H   0  0  0  0  0  0  0  0  0  0  0  0
  141.7051   68.6382  226.3554 H   0  0  0  0  0  0  0  0  0  0  0  0
  140.0704   67.9882  226.7719 H   0  0  0  0  0  0  0  0  0  0  0  0
  140.0375   69.0369  224.5466 H   0  0  0  0  0  0  0  0  0  0  0  0
  139.0296   69.9757  225.7279 H   0  0  0  0  0  0  0  0  0  0  0  0
  144.8925   73.8665  221.9123 H   0  0  0  0  0  0  0  0  0  0  0  0
  145.1314   72.2059  221.2453 H   0  0  0  0  0  0  0  0  0  0  0  0
  146.1779   74.8410  220.0857 H   0  0  0  0  0  0  0  0  0  0  0  0
  147.1398   73.4894  220.7925 H   0  0  0  0  0  0  0  0  0  0  0  0
  147.1530   73.4710  218.4140 H   0  0  0  0  0  0  0  0  0  0  0  0
  145.0785   74.5628  218.0104 H   0  0  0  0  0  0  0  0  0  0  0  0
  145.2125   73.0049  217.1120 H   0  0  0  0  0  0  0  0  0  0  0  0
  142.9724   73.3549  218.2351 H   0  0  0  0  0  0  0  0  0  0  0  0
  143.8421   71.8642  218.7600 H   0  0  0  0  0  0  0  0  0  0  0  0
  138.9639   77.3382  222.8933 H   0  0  0  0  0  0  0  0  0  0  0  0
  140.3280   76.3602  223.5535 H   0  0  0  0  0  0  0  0  0  0  0  0
  1  2  2  0
  2  3  1  0
  3  4  2  0
  4  5  1  0
  5  6  2  0
  5  7  1  0
  7  8  1  0
  8  9  1  0
  9 10  1  0
 10 11  2  0
 11 12  1  0
 12 13  1  0
 13 14  1  0
 14 15  1  0
 15 16  1  0
 16 17  1  0
 17 18  1  0
 18 19  1  0
 19 20  1  0
 12 21  2  0
 21 22  1  0
 22 23  1  0
 23 24  1  0
 24 25  1  0
 25 26  1  0
 26 27  1  0
 27 28  1  0
 22 29  2  0
  9 30  1  0
  6  1  1  0
 29 10  1  0
 30  4  1  0
 20 15  1  0
 28 23  1  0
  1 31  1  0
  2 32  1  0
  3 33  1  0
  6 34  1  0
  7 35  1  0
  7 36  1  0
  8 37  1  0
  8 38  1  0
 13 39  1  0
 13 40  1  0
 14 41  1  0
 14 42  1  0
 16 43  1  0
 16 44  1  0
 17 45  1  0
 17 46  1  0
 18 47  1  0
 18 48  1  0
 19 49  1  0
 19 50  1  0
 20 51  1  0
 20 52  1  0
 24 53  1  0
 24 54  1  0
 25 55  1  0
 25 56  1  0
 26 57  1  0
 27 58  1  0
 27 59  1  0
 28 60  1  0
 28 61  1  0
 30 62  1  0
 30 63  1  0
M  END
>  <UniqueID>  (20) 
561

>  <SMILES>  (20) 
c1ccc2c(c1)CCN(c1nc(CCN3CCCCC3)nc(N3CCNCC3)n1)C2

>  <Energy>  (20) 
71.46089149546641

>  <Genealogy>  (20) 
c1ccc2c(c1)CCN(c1nc(CCN3CCCCC3)nc(N3CCNCC3)n1)C2 (3D coordinates assigned)
c1ccc2c(c1)CCN(c1nc(CCN3CCCCC3)nc(N3CCNCC3)n1)C2 (nonaromatic ring conformer: 71.46089149546641 kcal/mol)

>  <smiles>  (20) 
c1ccc2c(c1)CCN(c1nc(CCN3CCCCC3)nc(N3CCNCC3)n1)C2

>  <score_type>  (20) 
oracle

>  <origin>  (20) 
autodockgpu

>  <m_score__min__energy>  (20) 
-9.8000000000000007

>  <m_primary>  (20) 
energy

>  <meeko>  (20) 
{"free_energy": -9.65, "intermolecular_energy": -11.14, "internal_energy": -0.91, "cluster_size": 17, "cluster_id": 1, "rank_in_cluster": 12}

>  <energy>  (20) 
-7.31

>  <cluster_rmsd>  (20) 
0.19

>  <rmsd>  (20) 
270.79

>  <cluster>  (20) 
3

$$$$
GZRQFJZYBWHXJG-UHFFFAOYNA-N
     RDKit          3D

 63 67  0  0  0  0  0  0  0  0999 V2000
  142.5280   80.7800  222.6290 C   0  0  0  0  0  0  0  0  0  0  0  0
  141.9930   80.3300  223.8390 C   0  0  0  0  0  0  0  0  0  0  0  0
  141.1440   79.2210  223.8590 C   0  0  0  0  0  0  0  0  0  0  0  0
  140.8280   78.5470  222.6670 C   0  0  0  0  0  0  0  0  0  0  0  0
  141.3470   79.0190  221.4340 C   0  0  0  0  0  0  0  0  0  0  0  0
  142.2130   80.1260  221.4330 C   0  0  0  0  0  0  0  0  0  0  0  0
  141.0670   78.3050  220.1280 C   0  0  0  0  0  0  0  0  0  0  0  0
  139.8410   77.3890  220.2220 C   0  0  0  0  0  0  0  0  0  0  0  0
  139.9240   76.6220  221.4670 N   0  0  0  0  0  0  0  0  0  0  0  0
  140.4870   75.3030  221.4480 C   0  0  0  0  0  0  0  0  0  0  0  0
  139.8540   74.2780  222.0750 N   0  0  0  0  0  0  0  0  0  0  0  0
  140.4080   73.0400  222.0910 C   0  0  0  0  0  0  0  0  0  0  0  0
  139.7730   71.9460  222.8880 C   0  0  0  0  0  0  0  0  0  0  0  0
  140.7510   71.3540  223.9140 C   0  0  0  0  0  0  0  0  0  0  0  0
  140.1470   71.3410  225.2710 N   0  0  0  0  0  0  0  0  0  0  0  0
  139.5430   70.0240  225.6220 C   0  0  0  0  0  0  0  0  0  0  0  0
  140.4330   69.1960  226.5550 C   0  0  0  0  0  0  0  0  0  0  0  0
  140.6860   69.9340  227.8790 C   0  0  0  0  0  0  0  0  0  0  0  0
  140.6790   71.4640  227.7120 C   0  0  0  0  0  0  0  0  0  0  0  0
  141.0920   71.8640  226.2900 C   0  0  0  0  0  0  0  0  0  0  0  0
  141.6010   72.8290  221.4800 N   0  0  0  0  0  0  0  0  0  0  0  0
  142.2420   73.8450  220.8440 C   0  0  0  0  0  0  0  0  0  0  0  0
  143.5080   73.6130  220.1900 N   0  0  0  0  0  0  0  0  0  0  0  0
  144.6980   73.3110  221.0000 C   0  0  0  0  0  0  0  0  0  0  0  0
  145.9780   73.7300  220.2610 C   0  0  0  0  0  0  0  0  0  0  0  0
  145.9980   73.1600  218.9080 N   0  0  0  0  0  0  0  0  0  0  0  0
  144.8650   73.6740  218.1290 C   0  0  0  0  0  0  0  0  0  0  0  0
  143.5390   73.2430  218.7660 C   0  0  0  0  0  0  0  0  0  0  0  0
  141.6820   75.0830  220.8420 N   0  0  0  0  0  0  0  0  0  0  0  0
  139.8610   77.3920  222.7130 C   0  0  0  0  0  0  0  0  0  0  0  0
  143.1991   81.6515  222.6168 H   0  0  0  0  0  0  0  0  0  0  0  0
  142.2406   80.8495  224.7764 H   0  0  0  0  0  0  0  0  0  0  0  0
  140.7205   78.8734  224.8128 H   0  0  0  0  0  0  0  0  0  0  0  0
  142.6458   80.4804  220.4859 H   0  0  0  0  0  0  0  0  0  0  0  0
  140.8892   79.0561  219.3443 H   0  0  0  0  0  0  0  0  0  0  0  0
  141.9398   77.6790  219.8906 H   0  0  0  0  0  0  0  0  0  0  0  0
  138.9239   77.9964  220.2216 H   0  0  0  0  0  0  0  0  0  0  0  0
  139.8164   76.7052  219.3607 H   0  0  0  0  0  0  0  0  0  0  0  0
  138.9000   72.3522  223.4199 H   0  0  0  0  0  0  0  0  0  0  0  0
  139.4733   71.1452  222.1960 H   0  0  0  0  0  0  0  0  0  0  0  0
  141.0016   70.3238  223.6208 H   0  0  0  0  0  0  0  0  0  0  0  0
  141.6576   71.9765  223.9372 H   0  0  0  0  0  0  0  0  0  0  0  0
  138.5785   70.2007  226.1206 H   0  0  0  0  0  0  0  0  0  0  0  0
  139.4197   69.4553  224.6885 H   0  0  0  0  0  0  0  0  0  0  0  0
  139.9369   68.2375  226.7673 H   0  0  0  0  0  0  0  0  0  0  0  0
  141.4001   69.0296  226.0579 H   0  0  0  0  0  0  0  0  0  0  0  0
  139.8993   69.6537  228.5949 H   0  0  0  0  0  0  0  0  0  0  0  0
  141.6835   69.6418  228.2390 H   0  0  0  0  0  0  0  0  0  0  0  0
  139.6660   71.8430  227.9123 H   0  0  0  0  0  0  0  0  0  0  0  0
  141.3999   71.8971  228.4210 H   0  0  0  0  0  0  0  0  0  0  0  0
  141.1163   72.9616  226.2223 H   0  0  0  0  0  0  0  0  0  0  0  0
  142.0835   71.4321  226.0888 H   0  0  0  0  0  0  0  0  0  0  0  0
  144.6351   73.8582  221.9522 H   0  0  0  0  0  0  0  0  0  0  0  0
  144.7347   72.2272  221.1846 H   0  0  0  0  0  0  0  0  0  0  0  0
  146.0143   74.8273  220.1926 H   0  0  0  0  0  0  0  0  0  0  0  0
  146.8500   73.3569  220.8182 H   0  0  0  0  0  0  0  0  0  0  0  0
  146.8820   73.4820  218.4420 H   0  0  0  0  0  0  0  0  0  0  0  0
  144.9133   74.7726  218.1007 H   0  0  0  0  0  0  0  0  0  0  0  0
  144.9196   73.2668  217.1086 H   0  0  0  0  0  0  0  0  0  0  0  0
  142.7081   73.7404  218.2444 H   0  0  0  0  0  0  0  0  0  0  0  0
  143.4408   72.1508  218.6796 H   0  0  0  0  0  0  0  0  0  0  0  0
  138.8403   77.7792  222.8485 H   0  0  0  0  0  0  0  0  0  0  0  0
  140.1307   76.7344  223.5525 H   0  0  0  0  0  0  0  0  0  0  0  0
  1  2  2  0
  2  3  1  0
  3  4  2  0
  4  5  1  0
  5  6  2  0
  5  7  1  0
  7  8  1  0
  8  9  1  0
  9 10  1  0
 10 11  2  0
 11 12  1  0
 12 13  1  0
 13 14  1  0
 14 15  1  0
 15 16  1  0
 16 17  1  0
 17 18  1  0
 18 19  1  0
 19 20  1  0
 12 21  2  0
 21 22  1  0
 22 23  1  0
 23 24  1  0
 24 25  1  0
 25 26  1  0
 26 27  1  0
 27 28  1  0
 22 29  2  0
  9 30  1  0
  6  1  1  0
 29 10  1  0
 30  4  1  0
 20 15  1  0
 28 23  1  0
  1 31  1  0
  2 32  1  0
  3 33  1  0
  6 34  1  0
  7 35  1  0
  7 36  1  0
  8 37  1  0
  8 38  1  0
 13 39  1  0
 13 40  1  0
 14 41  1  0
 14 42  1  0
 16 43  1  0
 16 44  1  0
 17 45  1  0
 17 46  1  0
 18 47  1  0
 18 48  1  0
 19 49  1  0
 19 50  1  0
 20 51  1  0
 20 52  1  0
 24 53  1  0
 24 54  1  0
 25 55  1  0
 25 56  1  0
 26 57  1  0
 27 58  1  0
 27 59  1  0
 28 60  1  0
 28 61  1  0
 30 62  1  0
 30 63  1  0
M  END
>  <UniqueID>  (21) 
562

>  <SMILES>  (21) 
c1ccc2c(c1)CCN(c1nc(CCN3CCCCC3)nc(N3CCNCC3)n1)C2

>  <Energy>  (21) 
74.13735776941701

>  <Genealogy>  (21) 
c1ccc2c(c1)CCN(c1nc(CCN3CCCCC3)nc(N3CCNCC3)n1)C2 (3D coordinates assigned)
c1ccc2c(c1)CCN(c1nc(CCN3CCCCC3)nc(N3CCNCC3)n1)C2 (nonaromatic ring conformer: 74.13735776941701 kcal/mol)

>  <smiles>  (21) 
c1ccc2c(c1)CCN(c1nc(CCN3CCCCC3)nc(N3CCNCC3)n1)C2

>  <score_type>  (21) 
oracle

>  <origin>  (21) 
autodockgpu

>  <m_score__min__energy>  (21) 
-9.8000000000000007

>  <m_primary>  (21) 
energy

>  <meeko>  (21) 
{"free_energy": -9.78, "intermolecular_energy": -11.27, "internal_energy": -0.9, "cluster_size": 17, "cluster_id": 1, "rank_in_cluster": 8}

>  <energy>  (21) 
-9.8

>  <cluster_rmsd>  (21) 
0.0

>  <rmsd>  (21) 
271.89

>  <cluster>  (21) 
1

$$$$
GZRQFJZYBWHXJG-UHFFFAOYNA-N
     RDKit          3D

 63 67  0  0  0  0  0  0  0  0999 V2000
  142.4800   80.7790  222.6370 C   0  0  0  0  0  0  0  0  0  0  0  0
  141.9360   80.3320  223.8430 C   0  0  0  0  0  0  0  0  0  0  0  0
  141.0960   79.2160  223.8600 C   0  0  0  0  0  0  0  0  0  0  0  0
  140.7980   78.5330  222.6690 C   0  0  0  0  0  0  0  0  0  0  0  0
  141.3270   79.0030  221.4380 C   0  0  0  0  0  0  0  0  0  0  0  0
  142.1840   80.1160  221.4410 C   0  0  0  0  0  0  0  0  0  0  0  0
  141.0670   78.2790  220.1330 C   0  0  0  0  0  0  0  0  0  0  0  0
  139.8480   77.3540  220.2190 C   0  0  0  0  0  0  0  0  0  0  0  0
  139.9220   76.5950  221.4690 N   0  0  0  0  0  0  0  0  0  0  0  0
  140.4960   75.2800  221.4630 C   0  0  0  0  0  0  0  0  0  0  0  0
  139.8800   74.2600  222.1160 N   0  0  0  0  0  0  0  0  0  0  0  0
  140.4450   73.0280  222.1440 C   0  0  0  0  0  0  0  0  0  0  0  0
  139.8310   71.9410  222.9690 C   0  0  0  0  0  0  0  0  0  0  0  0
  140.8160   71.4010  224.0150 C   0  0  0  0  0  0  0  0  0  0  0  0
  140.1880   71.3600  225.3600 N   0  0  0  0  0  0  0  0  0  0  0  0
  139.5980   70.0300  225.6820 C   0  0  0  0  0  0  0  0  0  0  0  0
  140.4830   69.2030  226.6210 C   0  0  0  0  0  0  0  0  0  0  0  0
  140.7010   69.9280  227.9590 C   0  0  0  0  0  0  0  0  0  0  0  0
  140.6720   71.4590  227.8120 C   0  0  0  0  0  0  0  0  0  0  0  0
  141.1050   71.8840  226.4030 C   0  0  0  0  0  0  0  0  0  0  0  0
  141.6310   72.8160  221.5190 N   0  0  0  0  0  0  0  0  0  0  0  0
  142.2540   73.8260  220.8570 C   0  0  0  0  0  0  0  0  0  0  0  0
  143.5120   73.5930  220.1890 N   0  0  0  0  0  0  0  0  0  0  0  0
  144.7140   73.3030  220.9860 C   0  0  0  0  0  0  0  0  0  0  0  0
  145.9830   73.7200  220.2270 C   0  0  0  0  0  0  0  0  0  0  0  0
  145.9870   73.1400  218.8780 N   0  0  0  0  0  0  0  0  0  0  0  0
  144.8420   73.6430  218.1100 C   0  0  0  0  0  0  0  0  0  0  0  0
  143.5260   73.2130  218.7680 C   0  0  0  0  0  0  0  0  0  0  0  0
  141.6840   75.0590  220.8430 N   0  0  0  0  0  0  0  0  0  0  0  0
  139.8400   77.3710  222.7090 C   0  0  0  0  0  0  0  0  0  0  0  0
  143.1439   81.6560  222.6273 H   0  0  0  0  0  0  0  0  0  0  0  0
  142.1691   80.8589  224.7800 H   0  0  0  0  0  0  0  0  0  0  0  0
  140.6654   78.8700  224.8113 H   0  0  0  0  0  0  0  0  0  0  0  0
  142.6252   80.4686  220.4970 H   0  0  0  0  0  0  0  0  0  0  0  0
  140.8917   79.0241  219.3430 H   0  0  0  0  0  0  0  0  0  0  0  0
  141.9474   77.6587  219.9088 H   0  0  0  0  0  0  0  0  0  0  0  0
  138.9262   77.9541  220.2043 H   0  0  0  0  0  0  0  0  0  0  0  0
  139.8394   76.6646  219.3618 H   0  0  0  0  0  0  0  0  0  0  0  0
  138.9459   72.3412  223.4852 H   0  0  0  0  0  0  0  0  0  0  0  0
  139.5540   71.1145  222.2981 H   0  0  0  0  0  0  0  0  0  0  0  0
  141.1234   70.3841  223.7295 H   0  0  0  0  0  0  0  0  0  0  0  0
  141.6893   72.0686  224.0542 H   0  0  0  0  0  0  0  0  0  0  0  0
  138.6217   70.1854  226.1644 H   0  0  0  0  0  0  0  0  0  0  0  0
  139.5011   69.4720  224.7390 H   0  0  0  0  0  0  0  0  0  0  0  0
  139.9972   68.2348  226.8122 H   0  0  0  0  0  0  0  0  0  0  0  0
  141.4613   69.0569  226.1398 H   0  0  0  0  0  0  0  0  0  0  0  0
  139.9067   69.6257  228.6573 H   0  0  0  0  0  0  0  0  0  0  0  0
  141.6969   69.6473  228.3325 H   0  0  0  0  0  0  0  0  0  0  0  0
  139.6493   71.8190  227.9980 H   0  0  0  0  0  0  0  0  0  0  0  0
  141.3721   71.8944  228.5402 H   0  0  0  0  0  0  0  0  0  0  0  0
  141.1132   72.9827  226.3498 H   0  0  0  0  0  0  0  0  0  0  0  0
  142.1067   71.4702  226.2151 H   0  0  0  0  0  0  0  0  0  0  0  0
  144.6613   73.8586  221.9339 H   0  0  0  0  0  0  0  0  0  0  0  0
  144.7573   72.2210  221.1794 H   0  0  0  0  0  0  0  0  0  0  0  0
  146.0152   74.8168  220.1500 H   0  0  0  0  0  0  0  0  0  0  0  0
  146.8632   73.3534  220.7754 H   0  0  0  0  0  0  0  0  0  0  0  0
  146.8640   73.4600  218.3990 H   0  0  0  0  0  0  0  0  0  0  0  0
  144.8859   74.7414  218.0716 H   0  0  0  0  0  0  0  0  0  0  0  0
  144.8846   73.2269  217.0926 H   0  0  0  0  0  0  0  0  0  0  0  0
  142.6868   73.7041  218.2537 H   0  0  0  0  0  0  0  0  0  0  0  0
  143.4305   72.1198  218.6912 H   0  0  0  0  0  0  0  0  0  0  0  0
  138.8150   77.7511  222.8310 H   0  0  0  0  0  0  0  0  0  0  0  0
  140.1062   76.7196  223.5544 H   0  0  0  0  0  0  0  0  0  0  0  0
  1  2  2  0
  2  3  1  0
  3  4  2  0
  4  5  1  0
  5  6  2  0
  5  7  1  0
  7  8  1  0
  8  9  1  0
  9 10  1  0
 10 11  2  0
 11 12  1  0
 12 13  1  0
 13 14  1  0
 14 15  1  0
 15 16  1  0
 16 17  1  0
 17 18  1  0
 18 19  1  0
 19 20  1  0
 12 21  2  0
 21 22  1  0
 22 23  1  0
 23 24  1  0
 24 25  1  0
 25 26  1  0
 26 27  1  0
 27 28  1  0
 22 29  2  0
  9 30  1  0
  6  1  1  0
 29 10  1  0
 30  4  1  0
 20 15  1  0
 28 23  1  0
  1 31  1  0
  2 32  1  0
  3 33  1  0
  6 34  1  0
  7 35  1  0
  7 36  1  0
  8 37  1  0
  8 38  1  0
 13 39  1  0
 13 40  1  0
 14 41  1  0
 14 42  1  0
 16 43  1  0
 16 44  1  0
 17 45  1  0
 17 46  1  0
 18 47  1  0
 18 48  1  0
 19 49  1  0
 19 50  1  0
 20 51  1  0
 20 52  1  0
 24 53  1  0
 24 54  1  0
 25 55  1  0
 25 56  1  0
 26 57  1  0
 27 58  1  0
 27 59  1  0
 28 60  1  0
 28 61  1  0
 30 62  1  0
 30 63  1  0
M  END
>  <UniqueID>  (22) 
562

>  <SMILES>  (22) 
c1ccc2c(c1)CCN(c1nc(CCN3CCCCC3)nc(N3CCNCC3)n1)C2

>  <Energy>  (22) 
74.13735776941701

>  <Genealogy>  (22) 
c1ccc2c(c1)CCN(c1nc(CCN3CCCCC3)nc(N3CCNCC3)n1)C2 (3D coordinates assigned)
c1ccc2c(c1)CCN(c1nc(CCN3CCCCC3)nc(N3CCNCC3)n1)C2 (nonaromatic ring conformer: 74.13735776941701 kcal/mol)

>  <smiles>  (22) 
c1ccc2c(c1)CCN(c1nc(CCN3CCCCC3)nc(N3CCNCC3)n1)C2

>  <score_type>  (22) 
oracle

>  <origin>  (22) 
autodockgpu

>  <m_score__min__energy>  (22) 
-9.8000000000000007

>  <m_primary>  (22) 
energy

>  <meeko>  (22) 
{"free_energy": -9.79, "intermolecular_energy": -11.28, "internal_energy": -0.89, "cluster_size": 17, "cluster_id": 1, "rank_in_cluster": 3}

>  <energy>  (22) 
-9.79

>  <cluster_rmsd>  (22) 
0.04

>  <rmsd>  (22) 
271.87

>  <cluster>  (22) 
1

$$$$
GZRQFJZYBWHXJG-UHFFFAOYNA-N
     RDKit          3D

 63 67  0  0  0  0  0  0  0  0999 V2000
  133.6330   72.7350  226.6190 C   0  0  0  0  0  0  0  0  0  0  0  0
  133.7990   71.4930  226.0010 C   0  0  0  0  0  0  0  0  0  0  0  0
  134.4240   71.4100  224.7550 C   0  0  0  0  0  0  0  0  0  0  0  0
  134.8940   72.5720  224.1180 C   0  0  0  0  0  0  0  0  0  0  0  0
  134.7010   73.8370  224.7310 C   0  0  0  0  0  0  0  0  0  0  0  0
  134.0860   73.9000  225.9920 C   0  0  0  0  0  0  0  0  0  0  0  0
  135.2230   75.1120  224.1030 C   0  0  0  0  0  0  0  0  0  0  0  0
  135.5090   74.9450  222.6060 C   0  0  0  0  0  0  0  0  0  0  0  0
  136.2310   73.6870  222.4050 N   0  0  0  0  0  0  0  0  0  0  0  0
  137.6640   73.6990  222.3320 C   0  0  0  0  0  0  0  0  0  0  0  0
  138.3760   72.5860  222.6480 N   0  0  0  0  0  0  0  0  0  0  0  0
  139.7310   72.6110  222.6180 C   0  0  0  0  0  0  0  0  0  0  0  0
  140.5120   71.4250  223.0870 C   0  0  0  0  0  0  0  0  0  0  0  0
  139.6190   70.4160  223.8230 C   0  0  0  0  0  0  0  0  0  0  0  0
  139.5140   70.7580  225.2650 N   0  0  0  0  0  0  0  0  0  0  0  0
  139.1740   69.5820  226.1150 C   0  0  0  0  0  0  0  0  0  0  0  0
  140.3920   69.0150  226.8520 C   0  0  0  0  0  0  0  0  0  0  0  0
  141.0170   70.0680  227.7820 C   0  0  0  0  0  0  0  0  0  0  0  0
  140.8280   71.5030  227.2590 C   0  0  0  0  0  0  0  0  0  0  0  0
  140.7010   71.5190  225.7300 C   0  0  0  0  0  0  0  0  0  0  0  0
  140.3750   73.7550  222.2760 N   0  0  0  0  0  0  0  0  0  0  0  0
  139.6750   74.8750  221.9530 C   0  0  0  0  0  0  0  0  0  0  0  0
  140.3660   76.0860  221.5830 N   0  0  0  0  0  0  0  0  0  0  0  0
  140.9310   76.2150  220.2300 C   0  0  0  0  0  0  0  0  0  0  0  0
  142.1140   77.1940  220.2270 C   0  0  0  0  0  0  0  0  0  0  0  0
  141.7300   78.4650  220.8550 N   0  0  0  0  0  0  0  0  0  0  0  0
  141.3610   78.2430  222.2580 C   0  0  0  0  0  0  0  0  0  0  0  0
  140.1390   77.3210  222.3490 C   0  0  0  0  0  0  0  0  0  0  0  0
  138.3180   74.8400  221.9940 N   0  0  0  0  0  0  0  0  0  0  0  0
  135.5080   72.4580  222.7460 C   0  0  0  0  0  0  0  0  0  0  0  0
  133.1441   72.7967  227.6025 H   0  0  0  0  0  0  0  0  0  0  0  0
  133.4371   70.5799  226.4963 H   0  0  0  0  0  0  0  0  0  0  0  0
  134.5492   70.4309  224.2696 H   0  0  0  0  0  0  0  0  0  0  0  0
  133.9597   74.8726  226.4900 H   0  0  0  0  0  0  0  0  0  0  0  0
  134.4718   75.9048  224.2339 H   0  0  0  0  0  0  0  0  0  0  0  0
  136.1691   75.3710  224.6008 H   0  0  0  0  0  0  0  0  0  0  0  0
  134.5612   74.9214  222.0482 H   0  0  0  0  0  0  0  0  0  0  0  0
  136.1154   75.7880  222.2433 H   0  0  0  0  0  0  0  0  0  0  0  0
  140.9673   70.9303  222.2164 H   0  0  0  0  0  0  0  0  0  0  0  0
  141.2841   71.7763  223.7873 H   0  0  0  0  0  0  0  0  0  0  0  0
  138.6144   70.4296  223.3751 H   0  0  0  0  0  0  0  0  0  0  0  0
  140.0664   69.4154  223.7296 H   0  0  0  0  0  0  0  0  0  0  0  0
  138.4243   69.8900  226.8587 H   0  0  0  0  0  0  0  0  0  0  0  0
  138.7886   68.7928  225.4527 H   0  0  0  0  0  0  0  0  0  0  0  0
  140.0775   68.1479  227.4514 H   0  0  0  0  0  0  0  0  0  0  0  0
  141.1440   68.7177  226.1062 H   0  0  0  0  0  0  0  0  0  0  0  0
  140.5450   69.9885  228.7724 H   0  0  0  0  0  0  0  0  0  0  0  0
  142.0979   69.8702  227.8320 H   0  0  0  0  0  0  0  0  0  0  0  0
  139.9150   71.9293  227.7002 H   0  0  0  0  0  0  0  0  0  0  0  0
  141.7080   72.0984  227.5437 H   0  0  0  0  0  0  0  0  0  0  0  0
  140.6099   72.5617  225.3916 H   0  0  0  0  0  0  0  0  0  0  0  0
  141.5982   71.0422  225.3084 H   0  0  0  0  0  0  0  0  0  0  0  0
  141.2776   75.2287  219.8879 H   0  0  0  0  0  0  0  0  0  0  0  0
  140.1514   76.6002  219.5564 H   0  0  0  0  0  0  0  0  0  0  0  0
  142.9514   76.7519  220.7867 H   0  0  0  0  0  0  0  0  0  0  0  0
  142.4140   77.3871  219.1865 H   0  0  0  0  0  0  0  0  0  0  0  0
  142.5700   79.0930  220.8380 H   0  0  0  0  0  0  0  0  0  0  0  0
  142.2064   77.7777  222.7860 H   0  0  0  0  0  0  0  0  0  0  0  0
  141.1137   79.2103  222.7197 H   0  0  0  0  0  0  0  0  0  0  0  0
  139.9569   77.0646  223.4031 H   0  0  0  0  0  0  0  0  0  0  0  0
  139.2671   77.8442  221.9294 H   0  0  0  0  0  0  0  0  0  0  0  0
  134.7121   72.2887  222.0058 H   0  0  0  0  0  0  0  0  0  0  0  0
  136.2151   71.6154  222.7408 H   0  0  0  0  0  0  0  0  0  0  0  0
  1  2  2  0
  2  3  1  0
  3  4  2  0
  4  5  1  0
  5  6  2  0
  5  7  1  0
  7  8  1  0
  8  9  1  0
  9 10  1  0
 10 11  2  0
 11 12  1  0
 12 13  1  0
 13 14  1  0
 14 15  1  0
 15 16  1  0
 16 17  1  0
 17 18  1  0
 18 19  1  0
 19 20  1  0
 12 21  2  0
 21 22  1  0
 22 23  1  0
 23 24  1  0
 24 25  1  0
 25 26  1  0
 26 27  1  0
 27 28  1  0
 22 29  2  0
  9 30  1  0
  6  1  1  0
 29 10  1  0
 30  4  1  0
 20 15  1  0
 28 23  1  0
  1 31  1  0
  2 32  1  0
  3 33  1  0
  6 34  1  0
  7 35  1  0
  7 36  1  0
  8 37  1  0
  8 38  1  0
 13 39  1  0
 13 40  1  0
 14 41  1  0
 14 42  1  0
 16 43  1  0
 16 44  1  0
 17 45  1  0
 17 46  1  0
 18 47  1  0
 18 48  1  0
 19 49  1  0
 19 50  1  0
 20 51  1  0
 20 52  1  0
 24 53  1  0
 24 54  1  0
 25 55  1  0
 25 56  1  0
 26 57  1  0
 27 58  1  0
 27 59  1  0
 28 60  1  0
 28 61  1  0
 30 62  1  0
 30 63  1  0
M  END
>  <UniqueID>  (23) 
562

>  <SMILES>  (23) 
c1ccc2c(c1)CCN(c1nc(CCN3CCCCC3)nc(N3CCNCC3)n1)C2

>  <Energy>  (23) 
74.13735776941701

>  <Genealogy>  (23) 
c1ccc2c(c1)CCN(c1nc(CCN3CCCCC3)nc(N3CCNCC3)n1)C2 (3D coordinates assigned)
c1ccc2c(c1)CCN(c1nc(CCN3CCCCC3)nc(N3CCNCC3)n1)C2 (nonaromatic ring conformer: 74.13735776941701 kcal/mol)

>  <smiles>  (23) 
c1ccc2c(c1)CCN(c1nc(CCN3CCCCC3)nc(N3CCNCC3)n1)C2

>  <score_type>  (23) 
oracle

>  <origin>  (23) 
autodockgpu

>  <m_score__min__energy>  (23) 
-9.8000000000000007

>  <m_primary>  (23) 
energy

>  <meeko>  (23) 
{"free_energy": -7.58, "intermolecular_energy": -9.07, "internal_energy": -1.22, "cluster_size": 1, "cluster_id": 2, "rank_in_cluster": 1}

>  <energy>  (23) 
-9.79

>  <cluster_rmsd>  (23) 
0.03

>  <rmsd>  (23) 
271.89

>  <cluster>  (23) 
1

$$$$
GZRQFJZYBWHXJG-UHFFFAOYNA-N
     RDKit          3D

 63 67  0  0  0  0  0  0  0  0999 V2000
  142.5030   80.8110  222.6180 C   0  0  0  0  0  0  0  0  0  0  0  0
  141.9780   80.3610  223.8320 C   0  0  0  0  0  0  0  0  0  0  0  0
  141.1340   79.2480  223.8580 C   0  0  0  0  0  0  0  0  0  0  0  0
  140.8120   78.5720  222.6690 C   0  0  0  0  0  0  0  0  0  0  0  0
  141.3210   79.0450  221.4320 C   0  0  0  0  0  0  0  0  0  0  0  0
  142.1830   80.1550  221.4250 C   0  0  0  0  0  0  0  0  0  0  0  0
  141.0360   78.3280  220.1290 C   0  0  0  0  0  0  0  0  0  0  0  0
  139.8140   77.4080  220.2320 C   0  0  0  0  0  0  0  0  0  0  0  0
  139.9070   76.6420  221.4770 N   0  0  0  0  0  0  0  0  0  0  0  0
  140.4760   75.3250  221.4550 C   0  0  0  0  0  0  0  0  0  0  0  0
  139.8470   74.2970  222.0820 N   0  0  0  0  0  0  0  0  0  0  0  0
  140.4060   73.0620  222.0950 C   0  0  0  0  0  0  0  0  0  0  0  0
  139.7760   71.9640  222.8920 C   0  0  0  0  0  0  0  0  0  0  0  0
  140.7550   71.3810  223.9210 C   0  0  0  0  0  0  0  0  0  0  0  0
  140.1520   71.3750  225.2790 N   0  0  0  0  0  0  0  0  0  0  0  0
  139.5320   70.0660  225.6310 C   0  0  0  0  0  0  0  0  0  0  0  0
  140.4130   69.2280  226.5640 C   0  0  0  0  0  0  0  0  0  0  0  0
  140.6760   69.9650  227.8880 C   0  0  0  0  0  0  0  0  0  0  0  0
  140.6860   71.4940  227.7200 C   0  0  0  0  0  0  0  0  0  0  0  0
  141.1030   71.8880  226.2960 C   0  0  0  0  0  0  0  0  0  0  0  0
  141.5990   72.8560  221.4820 N   0  0  0  0  0  0  0  0  0  0  0  0
  142.2360   73.8750  220.8460 C   0  0  0  0  0  0  0  0  0  0  0  0
  143.5010   73.6480  220.1900 N   0  0  0  0  0  0  0  0  0  0  0  0
  144.6920   73.3420  220.9980 C   0  0  0  0  0  0  0  0  0  0  0  0
  145.9710   73.7670  220.2610 C   0  0  0  0  0  0  0  0  0  0  0  0
  145.9910   73.2070  218.9040 N   0  0  0  0  0  0  0  0  0  0  0  0
  144.8580   73.7260  218.1290 C   0  0  0  0  0  0  0  0  0  0  0  0
  143.5320   73.2900  218.7640 C   0  0  0  0  0  0  0  0  0  0  0  0
  141.6700   75.1100  220.8470 N   0  0  0  0  0  0  0  0  0  0  0  0
  139.8500   77.4130  222.7220 C   0  0  0  0  0  0  0  0  0  0  0  0
  143.1708   81.6849  222.6004 H   0  0  0  0  0  0  0  0  0  0  0  0
  142.2291   80.8829  224.7672 H   0  0  0  0  0  0  0  0  0  0  0  0
  140.7191   78.8988  224.8150 H   0  0  0  0  0  0  0  0  0  0  0  0
  142.6088   80.5102  220.4750 H   0  0  0  0  0  0  0  0  0  0  0  0
  140.8508   79.0772  219.3451 H   0  0  0  0  0  0  0  0  0  0  0  0
  141.9096   77.7048  219.8873 H   0  0  0  0  0  0  0  0  0  0  0  0
  138.8949   78.0124  220.2369 H   0  0  0  0  0  0  0  0  0  0  0  0
  139.7866   76.7232  219.3716 H   0  0  0  0  0  0  0  0  0  0  0  0
  138.8986   72.3646  223.4208 H   0  0  0  0  0  0  0  0  0  0  0  0
  139.4838   71.1601  222.2003 H   0  0  0  0  0  0  0  0  0  0  0  0
  141.0078   70.3496  223.6342 H   0  0  0  0  0  0  0  0  0  0  0  0
  141.6600   72.0060  223.9400 H   0  0  0  0  0  0  0  0  0  0  0  0
  138.5701   70.2547  226.1302 H   0  0  0  0  0  0  0  0  0  0  0  0
  139.4006   69.4982  224.6981 H   0  0  0  0  0  0  0  0  0  0  0  0
  139.9056   68.2757  226.7777 H   0  0  0  0  0  0  0  0  0  0  0  0
  141.3775   69.0493  226.0663 H   0  0  0  0  0  0  0  0  0  0  0  0
  139.8870   69.6942  228.6051 H   0  0  0  0  0  0  0  0  0  0  0  0
  141.6706   69.6620  228.2470 H   0  0  0  0  0  0  0  0  0  0  0  0
  139.6774   71.8846  227.9206 H   0  0  0  0  0  0  0  0  0  0  0  0
  141.4119   71.9198  228.4283 H   0  0  0  0  0  0  0  0  0  0  0  0
  141.1398   72.9852  226.2270 H   0  0  0  0  0  0  0  0  0  0  0  0
  142.0894   71.4447  226.0947 H   0  0  0  0  0  0  0  0  0  0  0  0
  144.6290   73.8831  221.9536 H   0  0  0  0  0  0  0  0  0  0  0  0
  144.7299   72.2572  221.1759 H   0  0  0  0  0  0  0  0  0  0  0  0
  146.0064   74.8648  220.2004 H   0  0  0  0  0  0  0  0  0  0  0  0
  146.8434   73.3902  220.8149 H   0  0  0  0  0  0  0  0  0  0  0  0
  146.8750   73.5330  218.4410 H   0  0  0  0  0  0  0  0  0  0  0  0
  144.9060   74.8248  218.1082 H   0  0  0  0  0  0  0  0  0  0  0  0
  144.9123   73.3260  217.1057 H   0  0  0  0  0  0  0  0  0  0  0  0
  142.7008   73.7916  218.2468 H   0  0  0  0  0  0  0  0  0  0  0  0
  143.4343   72.1984  218.6693 H   0  0  0  0  0  0  0  0  0  0  0  0
  138.8288   77.7963  222.8641 H   0  0  0  0  0  0  0  0  0  0  0  0
  140.1286   76.7571  223.5600 H   0  0  0  0  0  0  0  0  0  0  0  0
  1  2  2  0
  2  3  1  0
  3  4  2  0
  4  5  1  0
  5  6  2  0
  5  7  1  0
  7  8  1  0
  8  9  1  0
  9 10  1  0
 10 11  2  0
 11 12  1  0
 12 13  1  0
 13 14  1  0
 14 15  1  0
 15 16  1  0
 16 17  1  0
 17 18  1  0
 18 19  1  0
 19 20  1  0
 12 21  2  0
 21 22  1  0
 22 23  1  0
 23 24  1  0
 24 25  1  0
 25 26  1  0
 26 27  1  0
 27 28  1  0
 22 29  2  0
  9 30  1  0
  6  1  1  0
 29 10  1  0
 30  4  1  0
 20 15  1  0
 28 23  1  0
  1 31  1  0
  2 32  1  0
  3 33  1  0
  6 34  1  0
  7 35  1  0
  7 36  1  0
  8 37  1  0
  8 38  1  0
 13 39  1  0
 13 40  1  0
 14 41  1  0
 14 42  1  0
 16 43  1  0
 16 44  1  0
 17 45  1  0
 17 46  1  0
 18 47  1  0
 18 48  1  0
 19 49  1  0
 19 50  1  0
 20 51  1  0
 20 52  1  0
 24 53  1  0
 24 54  1  0
 25 55  1  0
 25 56  1  0
 26 57  1  0
 27 58  1  0
 27 59  1  0
 28 60  1  0
 28 61  1  0
 30 62  1  0
 30 63  1  0
M  END
>  <UniqueID>  (24) 
562

>  <SMILES>  (24) 
c1ccc2c(c1)CCN(c1nc(CCN3CCCCC3)nc(N3CCNCC3)n1)C2

>  <Energy>  (24) 
74.13735776941701

>  <Genealogy>  (24) 
c1ccc2c(c1)CCN(c1nc(CCN3CCCCC3)nc(N3CCNCC3)n1)C2 (3D coordinates assigned)
c1ccc2c(c1)CCN(c1nc(CCN3CCCCC3)nc(N3CCNCC3)n1)C2 (nonaromatic ring conformer: 74.13735776941701 kcal/mol)

>  <smiles>  (24) 
c1ccc2c(c1)CCN(c1nc(CCN3CCCCC3)nc(N3CCNCC3)n1)C2

>  <score_type>  (24) 
oracle

>  <origin>  (24) 
autodockgpu

>  <m_score__min__energy>  (24) 
-9.8000000000000007

>  <m_primary>  (24) 
energy

>  <meeko>  (24) 
{"free_energy": -9.79, "intermolecular_energy": -11.28, "internal_energy": -0.9, "cluster_size": 17, "cluster_id": 1, "rank_in_cluster": 6}

>  <energy>  (24) 
-9.79

>  <cluster_rmsd>  (24) 
0.06

>  <rmsd>  (24) 
271.88

>  <cluster>  (24) 
1

$$$$
GZRQFJZYBWHXJG-UHFFFAOYNA-N
     RDKit          3D

 63 67  0  0  0  0  0  0  0  0999 V2000
  142.5140   80.7970  222.6260 C   0  0  0  0  0  0  0  0  0  0  0  0
  141.9760   80.3530  223.8360 C   0  0  0  0  0  0  0  0  0  0  0  0
  141.1330   79.2390  223.8600 C   0  0  0  0  0  0  0  0  0  0  0  0
  140.8240   78.5570  222.6710 C   0  0  0  0  0  0  0  0  0  0  0  0
  141.3460   79.0240  221.4360 C   0  0  0  0  0  0  0  0  0  0  0  0
  142.2060   80.1350  221.4330 C   0  0  0  0  0  0  0  0  0  0  0  0
  141.0750   78.3010  220.1340 C   0  0  0  0  0  0  0  0  0  0  0  0
  139.8530   77.3800  220.2280 C   0  0  0  0  0  0  0  0  0  0  0  0
  139.9340   76.6200  221.4780 N   0  0  0  0  0  0  0  0  0  0  0  0
  140.5040   75.3040  221.4680 C   0  0  0  0  0  0  0  0  0  0  0  0
  139.8790   74.2820  222.1100 N   0  0  0  0  0  0  0  0  0  0  0  0
  140.4400   73.0480  222.1350 C   0  0  0  0  0  0  0  0  0  0  0  0
  139.8160   71.9580  222.9470 C   0  0  0  0  0  0  0  0  0  0  0  0
  140.7920   71.4070  223.9970 C   0  0  0  0  0  0  0  0  0  0  0  0
  140.1580   71.3710  225.3400 N   0  0  0  0  0  0  0  0  0  0  0  0
  139.5490   70.0480  225.6570 C   0  0  0  0  0  0  0  0  0  0  0  0
  140.4200   69.2070  226.5970 C   0  0  0  0  0  0  0  0  0  0  0  0
  140.6420   69.9270  227.9380 C   0  0  0  0  0  0  0  0  0  0  0  0
  140.6340   71.4580  227.7940 C   0  0  0  0  0  0  0  0  0  0  0  0
  141.0780   71.8810  226.3870 C   0  0  0  0  0  0  0  0  0  0  0  0
  141.6300   72.8360  221.5190 N   0  0  0  0  0  0  0  0  0  0  0  0
  142.2630   73.8490  220.8680 C   0  0  0  0  0  0  0  0  0  0  0  0
  143.5250   73.6160  220.2090 N   0  0  0  0  0  0  0  0  0  0  0  0
  144.7200   73.3200  221.0140 C   0  0  0  0  0  0  0  0  0  0  0  0
  145.9960   73.7370  220.2670 C   0  0  0  0  0  0  0  0  0  0  0  0
  146.0090   73.1630  218.9150 N   0  0  0  0  0  0  0  0  0  0  0  0
  144.8710   73.6720  218.1410 C   0  0  0  0  0  0  0  0  0  0  0  0
  143.5500   73.2420  218.7860 C   0  0  0  0  0  0  0  0  0  0  0  0
  141.6960   75.0830  220.8580 N   0  0  0  0  0  0  0  0  0  0  0  0
  139.8630   77.3970  222.7190 C   0  0  0  0  0  0  0  0  0  0  0  0
  143.1824   81.6705  222.6112 H   0  0  0  0  0  0  0  0  0  0  0  0
  142.2161   80.8807  224.7708 H   0  0  0  0  0  0  0  0  0  0  0  0
  140.7090   78.8941  224.8146 H   0  0  0  0  0  0  0  0  0  0  0  0
  142.6402   80.4868  220.4855 H   0  0  0  0  0  0  0  0  0  0  0  0
  140.8972   79.0465  219.3449 H   0  0  0  0  0  0  0  0  0  0  0  0
  141.9517   77.6775  219.9045 H   0  0  0  0  0  0  0  0  0  0  0  0
  138.9332   77.9832  220.2202 H   0  0  0  0  0  0  0  0  0  0  0  0
  139.8354   76.6912  219.3705 H   0  0  0  0  0  0  0  0  0  0  0  0
  138.9285   72.3577  223.4594 H   0  0  0  0  0  0  0  0  0  0  0  0
  139.5408   71.1373  222.2683 H   0  0  0  0  0  0  0  0  0  0  0  0
  141.0905   70.3874  223.7118 H   0  0  0  0  0  0  0  0  0  0  0  0
  141.6718   72.0659  224.0403 H   0  0  0  0  0  0  0  0  0  0  0  0
  138.5733   70.2154  226.1366 H   0  0  0  0  0  0  0  0  0  0  0  0
  139.4476   69.4935  224.7124 H   0  0  0  0  0  0  0  0  0  0  0  0
  139.9211   68.2446  226.7841 H   0  0  0  0  0  0  0  0  0  0  0  0
  141.3981   69.0488  226.1191 H   0  0  0  0  0  0  0  0  0  0  0  0
  139.8407   69.6340  228.6324 H   0  0  0  0  0  0  0  0  0  0  0  0
  141.6325   69.6324  228.3151 H   0  0  0  0  0  0  0  0  0  0  0  0
  139.6155   71.8311  227.9771 H   0  0  0  0  0  0  0  0  0  0  0  0
  141.3374   71.8823  228.5256 H   0  0  0  0  0  0  0  0  0  0  0  0
  141.1004   72.9796  226.3363 H   0  0  0  0  0  0  0  0  0  0  0  0
  142.0752   71.4552  226.2016 H   0  0  0  0  0  0  0  0  0  0  0  0
  144.6611   73.8718  221.9638 H   0  0  0  0  0  0  0  0  0  0  0  0
  144.7593   72.2371  221.2031 H   0  0  0  0  0  0  0  0  0  0  0  0
  146.0318   74.8341  220.1953 H   0  0  0  0  0  0  0  0  0  0  0  0
  146.8709   73.3655  220.8206 H   0  0  0  0  0  0  0  0  0  0  0  0
  146.8900   73.4840  218.4440 H   0  0  0  0  0  0  0  0  0  0  0  0
  144.9175   74.7705  218.1084 H   0  0  0  0  0  0  0  0  0  0  0  0
  144.9206   73.2606  217.1221 H   0  0  0  0  0  0  0  0  0  0  0  0
  142.7159   73.7369  218.2670 H   0  0  0  0  0  0  0  0  0  0  0  0
  143.4533   72.1493  218.7038 H   0  0  0  0  0  0  0  0  0  0  0  0
  138.8399   77.7796  222.8485 H   0  0  0  0  0  0  0  0  0  0  0  0
  140.1337   76.7453  223.5628 H   0  0  0  0  0  0  0  0  0  0  0  0
  1  2  2  0
  2  3  1  0
  3  4  2  0
  4  5  1  0
  5  6  2  0
  5  7  1  0
  7  8  1  0
  8  9  1  0
  9 10  1  0
 10 11  2  0
 11 12  1  0
 12 13  1  0
 13 14  1  0
 14 15  1  0
 15 16  1  0
 16 17  1  0
 17 18  1  0
 18 19  1  0
 19 20  1  0
 12 21  2  0
 21 22  1  0
 22 23  1  0
 23 24  1  0
 24 25  1  0
 25 26  1  0
 26 27  1  0
 27 28  1  0
 22 29  2  0
  9 30  1  0
  6  1  1  0
 29 10  1  0
 30  4  1  0
 20 15  1  0
 28 23  1  0
  1 31  1  0
  2 32  1  0
  3 33  1  0
  6 34  1  0
  7 35  1  0
  7 36  1  0
  8 37  1  0
  8 38  1  0
 13 39  1  0
 13 40  1  0
 14 41  1  0
 14 42  1  0
 16 43  1  0
 16 44  1  0
 17 45  1  0
 17 46  1  0
 18 47  1  0
 18 48  1  0
 19 49  1  0
 19 50  1  0
 20 51  1  0
 20 52  1  0
 24 53  1  0
 24 54  1  0
 25 55  1  0
 25 56  1  0
 26 57  1  0
 27 58  1  0
 27 59  1  0
 28 60  1  0
 28 61  1  0
 30 62  1  0
 30 63  1  0
M  END
>  <UniqueID>  (25) 
562

>  <SMILES>  (25) 
c1ccc2c(c1)CCN(c1nc(CCN3CCCCC3)nc(N3CCNCC3)n1)C2

>  <Energy>  (25) 
74.13735776941701

>  <Genealogy>  (25) 
c1ccc2c(c1)CCN(c1nc(CCN3CCCCC3)nc(N3CCNCC3)n1)C2 (3D coordinates assigned)
c1ccc2c(c1)CCN(c1nc(CCN3CCCCC3)nc(N3CCNCC3)n1)C2 (nonaromatic ring conformer: 74.13735776941701 kcal/mol)

>  <smiles>  (25) 
c1ccc2c(c1)CCN(c1nc(CCN3CCCCC3)nc(N3CCNCC3)n1)C2

>  <score_type>  (25) 
oracle

>  <origin>  (25) 
autodockgpu

>  <m_score__min__energy>  (25) 
-9.8000000000000007

>  <m_primary>  (25) 
energy

>  <meeko>  (25) 
{"free_energy": -9.78, "intermolecular_energy": -11.28, "internal_energy": -0.9, "cluster_size": 17, "cluster_id": 1, "rank_in_cluster": 7}

>  <energy>  (25) 
-9.79

>  <cluster_rmsd>  (25) 
0.08

>  <rmsd>  (25) 
271.87

>  <cluster>  (25) 
1

$$$$
GZRQFJZYBWHXJG-UHFFFAOYNA-N
     RDKit          3D

 63 67  0  0  0  0  0  0  0  0999 V2000
  142.4690   80.5580  222.6540 C   0  0  0  0  0  0  0  0  0  0  0  0
  141.8740   80.1450  223.8490 C   0  0  0  0  0  0  0  0  0  0  0  0
  141.0000   79.0550  223.8540 C   0  0  0  0  0  0  0  0  0  0  0  0
  140.7180   78.3650  222.6630 C   0  0  0  0  0  0  0  0  0  0  0  0
  141.2990   78.8010  221.4440 C   0  0  0  0  0  0  0  0  0  0  0  0
  142.1890   79.8880  221.4580 C   0  0  0  0  0  0  0  0  0  0  0  0
  141.0570   78.0680  220.1410 C   0  0  0  0  0  0  0  0  0  0  0  0
  139.8070   77.1820  220.2000 C   0  0  0  0  0  0  0  0  0  0  0  0
  139.8200   76.4380  221.4620 N   0  0  0  0  0  0  0  0  0  0  0  0
  140.3540   75.1060  221.4910 C   0  0  0  0  0  0  0  0  0  0  0  0
  139.7520   74.1430  222.2370 N   0  0  0  0  0  0  0  0  0  0  0  0
  140.2800   72.8960  222.2950 C   0  0  0  0  0  0  0  0  0  0  0  0
  139.6900   71.8750  223.2150 C   0  0  0  0  0  0  0  0  0  0  0  0
  140.7280   71.3480  224.2160 C   0  0  0  0  0  0  0  0  0  0  0  0
  140.1280   71.1900  225.5650 N   0  0  0  0  0  0  0  0  0  0  0  0
  139.5900   69.8200  225.8020 C   0  0  0  0  0  0  0  0  0  0  0  0
  140.5220   68.9610  226.6640 C   0  0  0  0  0  0  0  0  0  0  0  0
  140.7400   69.5980  228.0470 C   0  0  0  0  0  0  0  0  0  0  0  0
  140.6560   71.1330  228.0100 C   0  0  0  0  0  0  0  0  0  0  0  0
  141.0470   71.6720  226.6270 C   0  0  0  0  0  0  0  0  0  0  0  0
  141.4160   72.6130  221.6090 N   0  0  0  0  0  0  0  0  0  0  0  0
  142.0250   73.5660  220.8540 C   0  0  0  0  0  0  0  0  0  0  0  0
  143.2290   73.2570  220.1210 N   0  0  0  0  0  0  0  0  0  0  0  0
  143.8500   74.2900  219.2780 C   0  0  0  0  0  0  0  0  0  0  0  0
  144.6580   73.6490  218.1400 C   0  0  0  0  0  0  0  0  0  0  0  0
  145.5930   72.6500  218.6740 N   0  0  0  0  0  0  0  0  0  0  0  0
  144.8510   71.5700  219.3350 C   0  0  0  0  0  0  0  0  0  0  0  0
  144.0630   72.1170  220.5310 C   0  0  0  0  0  0  0  0  0  0  0  0
  141.4910   74.8140  220.8100 N   0  0  0  0  0  0  0  0  0  0  0  0
  139.7240   77.2330  222.6890 C   0  0  0  0  0  0  0  0  0  0  0  0
  143.1605   81.4135  222.6536 H   0  0  0  0  0  0  0  0  0  0  0  0
  142.0937   80.6781  224.7858 H   0  0  0  0  0  0  0  0  0  0  0  0
  140.5300   78.7352  224.7957 H   0  0  0  0  0  0  0  0  0  0  0  0
  142.6685   80.2142  220.5233 H   0  0  0  0  0  0  0  0  0  0  0  0
  140.9298   78.8074  219.3366 H   0  0  0  0  0  0  0  0  0  0  0  0
  141.9240   77.4177  219.9526 H   0  0  0  0  0  0  0  0  0  0  0  0
  138.9052   77.8098  220.1493 H   0  0  0  0  0  0  0  0  0  0  0  0
  139.8023   76.4821  219.3514 H   0  0  0  0  0  0  0  0  0  0  0  0
  138.8589   72.3335  223.7709 H   0  0  0  0  0  0  0  0  0  0  0  0
  139.3373   71.0283  222.6078 H   0  0  0  0  0  0  0  0  0  0  0  0
  141.0993   70.3721  223.8701 H   0  0  0  0  0  0  0  0  0  0  0  0
  141.5541   72.0715  224.2805 H   0  0  0  0  0  0  0  0  0  0  0  0
  138.6190   69.9062  226.3116 H   0  0  0  0  0  0  0  0  0  0  0  0
  139.4927   69.3267  224.8236 H   0  0  0  0  0  0  0  0  0  0  0  0
  140.0745   67.9646  226.7938 H   0  0  0  0  0  0  0  0  0  0  0  0
  141.4952   68.8844  226.1571 H   0  0  0  0  0  0  0  0  0  0  0  0
  139.9696   69.2193  228.7348 H   0  0  0  0  0  0  0  0  0  0  0  0
  141.7518   69.3274  228.3831 H   0  0  0  0  0  0  0  0  0  0  0  0
  139.6255   71.4425  228.2385 H   0  0  0  0  0  0  0  0  0  0  0  0
  141.3549   71.5403  228.7554 H   0  0  0  0  0  0  0  0  0  0  0  0
  141.0162   72.7713  226.6520 H   0  0  0  0  0  0  0  0  0  0  0  0
  142.0587   71.3089  226.3931 H   0  0  0  0  0  0  0  0  0  0  0  0
  143.0626   74.9263  218.8478 H   0  0  0  0  0  0  0  0  0  0  0  0
  144.5300   74.8914  219.8992 H   0  0  0  0  0  0  0  0  0  0  0  0
  143.9680   73.1598  217.4367 H   0  0  0  0  0  0  0  0  0  0  0  0
  145.2311   74.4335  217.6242 H   0  0  0  0  0  0  0  0  0  0  0  0
  146.1110   72.2360  217.8610 H   0  0  0  0  0  0  0  0  0  0  0  0
  144.1516   71.1181  218.6163 H   0  0  0  0  0  0  0  0  0  0  0  0
  145.5651   70.8142  219.6938 H   0  0  0  0  0  0  0  0  0  0  0  0
  143.4174   71.3223  220.9330 H   0  0  0  0  0  0  0  0  0  0  0  0
  144.7731   72.4544  221.3003 H   0  0  0  0  0  0  0  0  0  0  0  0
  138.7078   77.6454  222.7746 H   0  0  0  0  0  0  0  0  0  0  0  0
  139.9442   76.5857  223.5507 H   0  0  0  0  0  0  0  0  0  0  0  0
  1  2  2  0
  2  3  1  0
  3  4  2  0
  4  5  1  0
  5  6  2  0
  5  7  1  0
  7  8  1  0
  8  9  1  0
  9 10  1  0
 10 11  2  0
 11 12  1  0
 12 13  1  0
 13 14  1  0
 14 15  1  0
 15 16  1  0
 16 17  1  0
 17 18  1  0
 18 19  1  0
 19 20  1  0
 12 21  2  0
 21 22  1  0
 22 23  1  0
 23 24  1  0
 24 25  1  0
 25 26  1  0
 26 27  1  0
 27 28  1  0
 22 29  2  0
  9 30  1  0
  6  1  1  0
 29 10  1  0
 30  4  1  0
 20 15  1  0
 28 23  1  0
  1 31  1  0
  2 32  1  0
  3 33  1  0
  6 34  1  0
  7 35  1  0
  7 36  1  0
  8 37  1  0
  8 38  1  0
 13 39  1  0
 13 40  1  0
 14 41  1  0
 14 42  1  0
 16 43  1  0
 16 44  1  0
 17 45  1  0
 17 46  1  0
 18 47  1  0
 18 48  1  0
 19 49  1  0
 19 50  1  0
 20 51  1  0
 20 52  1  0
 24 53  1  0
 24 54  1  0
 25 55  1  0
 25 56  1  0
 26 57  1  0
 27 58  1  0
 27 59  1  0
 28 60  1  0
 28 61  1  0
 30 62  1  0
 30 63  1  0
M  END
>  <UniqueID>  (26) 
562

>  <SMILES>  (26) 
c1ccc2c(c1)CCN(c1nc(CCN3CCCCC3)nc(N3CCNCC3)n1)C2

>  <Energy>  (26) 
74.13735776941701

>  <Genealogy>  (26) 
c1ccc2c(c1)CCN(c1nc(CCN3CCCCC3)nc(N3CCNCC3)n1)C2 (3D coordinates assigned)
c1ccc2c(c1)CCN(c1nc(CCN3CCCCC3)nc(N3CCNCC3)n1)C2 (nonaromatic ring conformer: 74.13735776941701 kcal/mol)

>  <smiles>  (26) 
c1ccc2c(c1)CCN(c1nc(CCN3CCCCC3)nc(N3CCNCC3)n1)C2

>  <score_type>  (26) 
oracle

>  <origin>  (26) 
autodockgpu

>  <m_score__min__energy>  (26) 
-9.8000000000000007

>  <m_primary>  (26) 
energy

>  <meeko>  (26) 
{"free_energy": -9.43, "intermolecular_energy": -10.92, "internal_energy": -0.91, "cluster_size": 17, "cluster_id": 1, "rank_in_cluster": 16}

>  <energy>  (26) 
-9.79

>  <cluster_rmsd>  (26) 
0.07

>  <rmsd>  (26) 
271.88

>  <cluster>  (26) 
1

$$$$
GZRQFJZYBWHXJG-UHFFFAOYNA-N
     RDKit          3D

 63 67  0  0  0  0  0  0  0  0999 V2000
  142.5240   80.8070  222.6040 C   0  0  0  0  0  0  0  0  0  0  0  0
  142.0000   80.3600  223.8200 C   0  0  0  0  0  0  0  0  0  0  0  0
  141.1550   79.2480  223.8510 C   0  0  0  0  0  0  0  0  0  0  0  0
  140.8300   78.5700  222.6630 C   0  0  0  0  0  0  0  0  0  0  0  0
  141.3380   79.0400  221.4240 C   0  0  0  0  0  0  0  0  0  0  0  0
  142.2010   80.1480  221.4130 C   0  0  0  0  0  0  0  0  0  0  0  0
  141.0490   78.3210  220.1230 C   0  0  0  0  0  0  0  0  0  0  0  0
  139.8260   77.4020  220.2300 C   0  0  0  0  0  0  0  0  0  0  0  0
  139.9210   76.6390  221.4770 N   0  0  0  0  0  0  0  0  0  0  0  0
  140.4870   75.3210  221.4560 C   0  0  0  0  0  0  0  0  0  0  0  0
  139.8660   74.2990  222.0990 N   0  0  0  0  0  0  0  0  0  0  0  0
  140.4230   73.0630  222.1140 C   0  0  0  0  0  0  0  0  0  0  0  0
  139.8030   71.9710  222.9270 C   0  0  0  0  0  0  0  0  0  0  0  0
  140.7850   71.4170  223.9700 C   0  0  0  0  0  0  0  0  0  0  0  0
  140.1640   71.3930  225.3190 N   0  0  0  0  0  0  0  0  0  0  0  0
  139.5430   70.0790  225.6470 C   0  0  0  0  0  0  0  0  0  0  0  0
  140.4130   69.2320  226.5820 C   0  0  0  0  0  0  0  0  0  0  0  0
  140.6560   69.9530  227.9180 C   0  0  0  0  0  0  0  0  0  0  0  0
  140.6640   71.4840  227.7680 C   0  0  0  0  0  0  0  0  0  0  0  0
  141.0990   71.8970  226.3560 C   0  0  0  0  0  0  0  0  0  0  0  0
  141.6080   72.8510  221.4860 N   0  0  0  0  0  0  0  0  0  0  0  0
  142.2370   73.8640  220.8350 C   0  0  0  0  0  0  0  0  0  0  0  0
  143.4930   73.6310  220.1630 N   0  0  0  0  0  0  0  0  0  0  0  0
  144.6940   73.3270  220.9570 C   0  0  0  0  0  0  0  0  0  0  0  0
  145.9640   73.7440  220.2010 C   0  0  0  0  0  0  0  0  0  0  0  0
  145.9640   73.1770  218.8470 N   0  0  0  0  0  0  0  0  0  0  0  0
  144.8220   73.6940  218.0840 C   0  0  0  0  0  0  0  0  0  0  0  0
  143.5050   73.2650  218.7390 C   0  0  0  0  0  0  0  0  0  0  0  0
  141.6730   75.1000  220.8340 N   0  0  0  0  0  0  0  0  0  0  0  0
  139.8670   77.4130  222.7200 C   0  0  0  0  0  0  0  0  0  0  0  0
  143.1928   81.6801  222.5833 H   0  0  0  0  0  0  0  0  0  0  0  0
  142.2531   80.8841  224.7534 H   0  0  0  0  0  0  0  0  0  0  0  0
  140.7419   78.9011  224.8096 H   0  0  0  0  0  0  0  0  0  0  0  0
  142.6259   80.5000  220.4614 H   0  0  0  0  0  0  0  0  0  0  0  0
  140.8628   79.0691  219.3383 H   0  0  0  0  0  0  0  0  0  0  0  0
  141.9214   77.6964  219.8806 H   0  0  0  0  0  0  0  0  0  0  0  0
  138.9074   78.0071  220.2351 H   0  0  0  0  0  0  0  0  0  0  0  0
  139.7963   76.7153  219.3712 H   0  0  0  0  0  0  0  0  0  0  0  0
  138.9186   72.3698  223.4455 H   0  0  0  0  0  0  0  0  0  0  0  0
  139.5234   71.1521  222.2479 H   0  0  0  0  0  0  0  0  0  0  0  0
  141.0722   70.3936  223.6870 H   0  0  0  0  0  0  0  0  0  0  0  0
  141.6707   72.0686  224.0012 H   0  0  0  0  0  0  0  0  0  0  0  0
  138.5739   70.2596  226.1351 H   0  0  0  0  0  0  0  0  0  0  0  0
  139.4261   69.5220  224.7057 H   0  0  0  0  0  0  0  0  0  0  0  0
  139.9051   68.2760  226.7771 H   0  0  0  0  0  0  0  0  0  0  0  0
  141.3848   69.0619  226.0955 H   0  0  0  0  0  0  0  0  0  0  0  0
  139.8582   69.6716  228.6210 H   0  0  0  0  0  0  0  0  0  0  0  0
  141.6463   69.6481  228.2872 H   0  0  0  0  0  0  0  0  0  0  0  0
  139.6516   71.8693  227.9594 H   0  0  0  0  0  0  0  0  0  0  0  0
  141.3794   71.9027  228.4911 H   0  0  0  0  0  0  0  0  0  0  0  0
  141.1325   72.9951  226.3012 H   0  0  0  0  0  0  0  0  0  0  0  0
  142.0898   71.4599  226.1630 H   0  0  0  0  0  0  0  0  0  0  0  0
  144.6449   73.8742  221.9100 H   0  0  0  0  0  0  0  0  0  0  0  0
  144.7315   72.2431  221.1409 H   0  0  0  0  0  0  0  0  0  0  0  0
  146.0020   74.8413  220.1343 H   0  0  0  0  0  0  0  0  0  0  0  0
  146.8426   73.3673  220.7452 H   0  0  0  0  0  0  0  0  0  0  0  0
  146.8430   73.4980  218.3700 H   0  0  0  0  0  0  0  0  0  0  0  0
  144.8721   74.7925  218.0559 H   0  0  0  0  0  0  0  0  0  0  0  0
  144.8617   73.2880  217.0624 H   0  0  0  0  0  0  0  0  0  0  0  0
  142.6681   73.7653  218.2299 H   0  0  0  0  0  0  0  0  0  0  0  0
  143.4045   72.1730  218.6522 H   0  0  0  0  0  0  0  0  0  0  0  0
  138.8465   77.7980  222.8627 H   0  0  0  0  0  0  0  0  0  0  0  0
  140.1461   76.7587  223.5591 H   0  0  0  0  0  0  0  0  0  0  0  0
  1  2  2  0
  2  3  1  0
  3  4  2  0
  4  5  1  0
  5  6  2  0
  5  7  1  0
  7  8  1  0
  8  9  1  0
  9 10  1  0
 10 11  2  0
 11 12  1  0
 12 13  1  0
 13 14  1  0
 14 15  1  0
 15 16  1  0
 16 17  1  0
 17 18  1  0
 18 19  1  0
 19 20  1  0
 12 21  2  0
 21 22  1  0
 22 23  1  0
 23 24  1  0
 24 25  1  0
 25 26  1  0
 26 27  1  0
 27 28  1  0
 22 29  2  0
  9 30  1  0
  6  1  1  0
 29 10  1  0
 30  4  1  0
 20 15  1  0
 28 23  1  0
  1 31  1  0
  2 32  1  0
  3 33  1  0
  6 34  1  0
  7 35  1  0
  7 36  1  0
  8 37  1  0
  8 38  1  0
 13 39  1  0
 13 40  1  0
 14 41  1  0
 14 42  1  0
 16 43  1  0
 16 44  1  0
 17 45  1  0
 17 46  1  0
 18 47  1  0
 18 48  1  0
 19 49  1  0
 19 50  1  0
 20 51  1  0
 20 52  1  0
 24 53  1  0
 24 54  1  0
 25 55  1  0
 25 56  1  0
 26 57  1  0
 27 58  1  0
 27 59  1  0
 28 60  1  0
 28 61  1  0
 30 62  1  0
 30 63  1  0
M  END
>  <UniqueID>  (27) 
562

>  <SMILES>  (27) 
c1ccc2c(c1)CCN(c1nc(CCN3CCCCC3)nc(N3CCNCC3)n1)C2

>  <Energy>  (27) 
74.13735776941701

>  <Genealogy>  (27) 
c1ccc2c(c1)CCN(c1nc(CCN3CCCCC3)nc(N3CCNCC3)n1)C2 (3D coordinates assigned)
c1ccc2c(c1)CCN(c1nc(CCN3CCCCC3)nc(N3CCNCC3)n1)C2 (nonaromatic ring conformer: 74.13735776941701 kcal/mol)

>  <smiles>  (27) 
c1ccc2c(c1)CCN(c1nc(CCN3CCCCC3)nc(N3CCNCC3)n1)C2

>  <score_type>  (27) 
oracle

>  <origin>  (27) 
autodockgpu

>  <m_score__min__energy>  (27) 
-9.8000000000000007

>  <m_primary>  (27) 
energy

>  <meeko>  (27) 
{"free_energy": -9.79, "intermolecular_energy": -11.28, "internal_energy": -0.9, "cluster_size": 17, "cluster_id": 1, "rank_in_cluster": 2}

>  <energy>  (27) 
-9.78

>  <cluster_rmsd>  (27) 
0.05

>  <rmsd>  (27) 
271.9

>  <cluster>  (27) 
1

$$$$
GZRQFJZYBWHXJG-UHFFFAOYNA-N
     RDKit          3D

 63 67  0  0  0  0  0  0  0  0999 V2000
  142.5140   80.7810  222.6240 C   0  0  0  0  0  0  0  0  0  0  0  0
  141.9760   80.3370  223.8340 C   0  0  0  0  0  0  0  0  0  0  0  0
  141.1290   79.2270  223.8580 C   0  0  0  0  0  0  0  0  0  0  0  0
  140.8160   78.5470  222.6680 C   0  0  0  0  0  0  0  0  0  0  0  0
  141.3380   79.0140  221.4340 C   0  0  0  0  0  0  0  0  0  0  0  0
  142.2020   80.1220  221.4300 C   0  0  0  0  0  0  0  0  0  0  0  0
  141.0620   78.2940  220.1300 C   0  0  0  0  0  0  0  0  0  0  0  0
  139.8370   77.3770  220.2260 C   0  0  0  0  0  0  0  0  0  0  0  0
  139.9170   76.6160  221.4750 N   0  0  0  0  0  0  0  0  0  0  0  0
  140.4820   75.2970  221.4620 C   0  0  0  0  0  0  0  0  0  0  0  0
  139.8490   74.2750  222.0960 N   0  0  0  0  0  0  0  0  0  0  0  0
  140.4050   73.0380  222.1180 C   0  0  0  0  0  0  0  0  0  0  0  0
  139.7710   71.9470  222.9220 C   0  0  0  0  0  0  0  0  0  0  0  0
  140.7500   71.3620  223.9500 C   0  0  0  0  0  0  0  0  0  0  0  0
  140.1450   71.3500  225.3070 N   0  0  0  0  0  0  0  0  0  0  0  0
  139.5480   70.0310  225.6620 C   0  0  0  0  0  0  0  0  0  0  0  0
  140.4420   69.2110  226.5980 C   0  0  0  0  0  0  0  0  0  0  0  0
  140.6900   69.9560  227.9200 C   0  0  0  0  0  0  0  0  0  0  0  0
  140.6740   71.4850  227.7480 C   0  0  0  0  0  0  0  0  0  0  0  0
  141.0860   71.8830  226.3240 C   0  0  0  0  0  0  0  0  0  0  0  0
  141.5980   72.8250  221.5080 N   0  0  0  0  0  0  0  0  0  0  0  0
  142.2390   73.8380  220.8660 C   0  0  0  0  0  0  0  0  0  0  0  0
  143.5040   73.6030  220.2140 N   0  0  0  0  0  0  0  0  0  0  0  0
  144.6960   73.3100  221.0260 C   0  0  0  0  0  0  0  0  0  0  0  0
  145.9740   73.7250  220.2830 C   0  0  0  0  0  0  0  0  0  0  0  0
  145.9940   73.1460  218.9340 N   0  0  0  0  0  0  0  0  0  0  0  0
  144.8600   73.6520  218.1520 C   0  0  0  0  0  0  0  0  0  0  0  0
  143.5360   73.2240  218.7930 C   0  0  0  0  0  0  0  0  0  0  0  0
  141.6770   75.0750  220.8580 N   0  0  0  0  0  0  0  0  0  0  0  0
  139.8510   77.3910  222.7160 C   0  0  0  0  0  0  0  0  0  0  0  0
  143.1856   81.6521  222.6098 H   0  0  0  0  0  0  0  0  0  0  0  0
  142.2198   80.8623  224.7692 H   0  0  0  0  0  0  0  0  0  0  0  0
  140.7046   78.8830  224.8127 H   0  0  0  0  0  0  0  0  0  0  0  0
  142.6358   80.4735  220.4822 H   0  0  0  0  0  0  0  0  0  0  0  0
  140.8848   79.0415  219.3427 H   0  0  0  0  0  0  0  0  0  0  0  0
  141.9362   77.6684  219.8967 H   0  0  0  0  0  0  0  0  0  0  0  0
  138.9193   77.9834  220.2201 H   0  0  0  0  0  0  0  0  0  0  0  0
  139.8159   76.6886  219.3683 H   0  0  0  0  0  0  0  0  0  0  0  0
  138.8980   72.3553  223.4523 H   0  0  0  0  0  0  0  0  0  0  0  0
  139.4714   71.1421  222.2347 H   0  0  0  0  0  0  0  0  0  0  0  0
  141.0051   70.3321  223.6597 H   0  0  0  0  0  0  0  0  0  0  0  0
  141.6539   71.9884  223.9724 H   0  0  0  0  0  0  0  0  0  0  0  0
  138.5824   70.2041  226.1596 H   0  0  0  0  0  0  0  0  0  0  0  0
  139.4282   69.4585  224.7304 H   0  0  0  0  0  0  0  0  0  0  0  0
  139.9511   68.2505  226.8135 H   0  0  0  0  0  0  0  0  0  0  0  0
  141.4102   69.0477  226.1021 H   0  0  0  0  0  0  0  0  0  0  0  0
  139.9046   69.6736  228.6365 H   0  0  0  0  0  0  0  0  0  0  0  0
  141.6892   69.6712  228.2812 H   0  0  0  0  0  0  0  0  0  0  0  0
  139.6586   71.8586  227.9463 H   0  0  0  0  0  0  0  0  0  0  0  0
  141.3917   71.9247  228.4562 H   0  0  0  0  0  0  0  0  0  0  0  0
  141.1032   72.9805  226.2522 H   0  0  0  0  0  0  0  0  0  0  0  0
  142.0806   71.4574  226.1250 H   0  0  0  0  0  0  0  0  0  0  0  0
  144.6328   73.8650  221.9736 H   0  0  0  0  0  0  0  0  0  0  0  0
  144.7349   72.2279  221.2195 H   0  0  0  0  0  0  0  0  0  0  0  0
  146.0088   74.8218  220.2070 H   0  0  0  0  0  0  0  0  0  0  0  0
  146.8467   73.3564  220.8419 H   0  0  0  0  0  0  0  0  0  0  0  0
  146.8780   73.4660  218.4660 H   0  0  0  0  0  0  0  0  0  0  0  0
  144.9065   74.7504  218.1151 H   0  0  0  0  0  0  0  0  0  0  0  0
  144.9146   73.2370  217.1347 H   0  0  0  0  0  0  0  0  0  0  0  0
  142.7041   73.7167  218.2684 H   0  0  0  0  0  0  0  0  0  0  0  0
  143.4403   72.1310  218.7146 H   0  0  0  0  0  0  0  0  0  0  0  0
  138.8295   77.7774  222.8476 H   0  0  0  0  0  0  0  0  0  0  0  0
  140.1206   76.7372  223.5585 H   0  0  0  0  0  0  0  0  0  0  0  0
  1  2  2  0
  2  3  1  0
  3  4  2  0
  4  5  1  0
  5  6  2  0
  5  7  1  0
  7  8  1  0
  8  9  1  0
  9 10  1  0
 10 11  2  0
 11 12  1  0
 12 13  1  0
 13 14  1  0
 14 15  1  0
 15 16  1  0
 16 17  1  0
 17 18  1  0
 18 19  1  0
 19 20  1  0
 12 21  2  0
 21 22  1  0
 22 23  1  0
 23 24  1  0
 24 25  1  0
 25 26  1  0
 26 27  1  0
 27 28  1  0
 22 29  2  0
  9 30  1  0
  6  1  1  0
 29 10  1  0
 30  4  1  0
 20 15  1  0
 28 23  1  0
  1 31  1  0
  2 32  1  0
  3 33  1  0
  6 34  1  0
  7 35  1  0
  7 36  1  0
  8 37  1  0
  8 38  1  0
 13 39  1  0
 13 40  1  0
 14 41  1  0
 14 42  1  0
 16 43  1  0
 16 44  1  0
 17 45  1  0
 17 46  1  0
 18 47  1  0
 18 48  1  0
 19 49  1  0
 19 50  1  0
 20 51  1  0
 20 52  1  0
 24 53  1  0
 24 54  1  0
 25 55  1  0
 25 56  1  0
 26 57  1  0
 27 58  1  0
 27 59  1  0
 28 60  1  0
 28 61  1  0
 30 62  1  0
 30 63  1  0
M  END
>  <UniqueID>  (28) 
562

>  <SMILES>  (28) 
c1ccc2c(c1)CCN(c1nc(CCN3CCCCC3)nc(N3CCNCC3)n1)C2

>  <Energy>  (28) 
74.13735776941701

>  <Genealogy>  (28) 
c1ccc2c(c1)CCN(c1nc(CCN3CCCCC3)nc(N3CCNCC3)n1)C2 (3D coordinates assigned)
c1ccc2c(c1)CCN(c1nc(CCN3CCCCC3)nc(N3CCNCC3)n1)C2 (nonaromatic ring conformer: 74.13735776941701 kcal/mol)

>  <smiles>  (28) 
c1ccc2c(c1)CCN(c1nc(CCN3CCCCC3)nc(N3CCNCC3)n1)C2

>  <score_type>  (28) 
oracle

>  <origin>  (28) 
autodockgpu

>  <m_score__min__energy>  (28) 
-9.8000000000000007

>  <m_primary>  (28) 
energy

>  <meeko>  (28) 
{"free_energy": -9.79, "intermolecular_energy": -11.28, "internal_energy": -0.9, "cluster_size": 17, "cluster_id": 1, "rank_in_cluster": 4}

>  <energy>  (28) 
-9.78

>  <cluster_rmsd>  (28) 
0.07

>  <rmsd>  (28) 
271.87

>  <cluster>  (28) 
1

$$$$
GZRQFJZYBWHXJG-UHFFFAOYNA-N
     RDKit          3D

 63 67  0  0  0  0  0  0  0  0999 V2000
  140.4940   69.5110  228.2110 C   0  0  0  0  0  0  0  0  0  0  0  0
  141.0960   70.7490  227.9730 C   0  0  0  0  0  0  0  0  0  0  0  0
  140.9630   71.3630  226.7250 C   0  0  0  0  0  0  0  0  0  0  0  0
  140.2200   70.7450  225.7050 C   0  0  0  0  0  0  0  0  0  0  0  0
  139.6320   69.4740  225.9350 C   0  0  0  0  0  0  0  0  0  0  0  0
  139.7610   68.8780  227.2010 C   0  0  0  0  0  0  0  0  0  0  0  0
  138.7900   68.7850  224.8820 C   0  0  0  0  0  0  0  0  0  0  0  0
  139.0540   69.3410  223.4770 C   0  0  0  0  0  0  0  0  0  0  0  0
  139.0750   70.8040  223.5490 N   0  0  0  0  0  0  0  0  0  0  0  0
  137.8820   71.5430  223.2500 C   0  0  0  0  0  0  0  0  0  0  0  0
  137.7000   72.0780  222.0150 N   0  0  0  0  0  0  0  0  0  0  0  0
  136.5910   72.8110  221.7460 C   0  0  0  0  0  0  0  0  0  0  0  0
  136.4530   73.5040  220.4280 C   0  0  0  0  0  0  0  0  0  0  0  0
  137.6060   74.4870  220.1830 C   0  0  0  0  0  0  0  0  0  0  0  0
  138.1440   75.0000  221.4700 N   0  0  0  0  0  0  0  0  0  0  0  0
  139.5520   74.5770  221.7180 C   0  0  0  0  0  0  0  0  0  0  0  0
  140.5630   75.6920  221.4270 C   0  0  0  0  0  0  0  0  0  0  0  0
  140.3050   76.9200  222.3160 C   0  0  0  0  0  0  0  0  0  0  0  0
  138.8200   77.0800  222.6840 C   0  0  0  0  0  0  0  0  0  0  0  0
  137.9160   76.4600  221.6090 C   0  0  0  0  0  0  0  0  0  0  0  0
  135.6640   73.0110  222.7180 N   0  0  0  0  0  0  0  0  0  0  0  0
  135.8330   72.4770  223.9560 C   0  0  0  0  0  0  0  0  0  0  0  0
  134.8410   72.6880  224.9830 N   0  0  0  0  0  0  0  0  0  0  0  0
  134.0600   73.9350  224.9920 C   0  0  0  0  0  0  0  0  0  0  0  0
  133.5800   74.2640  226.4130 C   0  0  0  0  0  0  0  0  0  0  0  0
  132.8940   73.1070  227.0030 N   0  0  0  0  0  0  0  0  0  0  0  0
  133.8210   71.9750  227.1140 C   0  0  0  0  0  0  0  0  0  0  0  0
  134.3010   71.5390  225.7260 C   0  0  0  0  0  0  0  0  0  0  0  0
  136.9520   71.7510  224.2160 N   0  0  0  0  0  0  0  0  0  0  0  0
  140.1460   71.4020  224.3510 C   0  0  0  0  0  0  0  0  0  0  0  0
  140.5966   69.0321  229.1959 H   0  0  0  0  0  0  0  0  0  0  0  0
  141.6750   71.2407  228.7686 H   0  0  0  0  0  0  0  0  0  0  0  0
  141.4426   72.3355  226.5400 H   0  0  0  0  0  0  0  0  0  0  0  0
  139.2826   67.9075  227.3994 H   0  0  0  0  0  0  0  0  0  0  0  0
  139.0243   67.7103  224.8879 H   0  0  0  0  0  0  0  0  0  0  0  0
  137.7320   68.9643  225.1238 H   0  0  0  0  0  0  0  0  0  0  0  0
  140.0238   68.9742  223.1096 H   0  0  0  0  0  0  0  0  0  0  0  0
  138.2633   69.0103  222.7876 H   0  0  0  0  0  0  0  0  0  0  0  0
  136.4503   72.7502  219.6269 H   0  0  0  0  0  0  0  0  0  0  0  0
  135.5116   74.0729  220.4353 H   0  0  0  0  0  0  0  0  0  0  0  0
  138.4093   73.9717  219.6360 H   0  0  0  0  0  0  0  0  0  0  0  0
  137.2268   75.3362  219.5956 H   0  0  0  0  0  0  0  0  0  0  0  0
  139.6498   74.2793  222.7724 H   0  0  0  0  0  0  0  0  0  0  0  0
  139.7732   73.7412  221.0380 H   0  0  0  0  0  0  0  0  0  0  0  0
  141.5783   75.3156  221.6204 H   0  0  0  0  0  0  0  0  0  0  0  0
  140.4562   75.9942  220.3747 H   0  0  0  0  0  0  0  0  0  0  0  0
  140.8884   76.8135  223.2424 H   0  0  0  0  0  0  0  0  0  0  0  0
  140.6064   77.8126  221.7482 H   0  0  0  0  0  0  0  0  0  0  0  0
  138.6317   76.5789  223.6449 H   0  0  0  0  0  0  0  0  0  0  0  0
  138.5912   78.1534  222.7574 H   0  0  0  0  0  0  0  0  0  0  0  0
  136.8652   76.6312  221.8857 H   0  0  0  0  0  0  0  0  0  0  0  0
  138.1547   76.9358  220.6464 H   0  0  0  0  0  0  0  0  0  0  0  0
  134.6898   74.7583  224.6238 H   0  0  0  0  0  0  0  0  0  0  0  0
  133.1815   73.8070  224.3425 H   0  0  0  0  0  0  0  0  0  0  0  0
  134.4471   74.5278  227.0364 H   0  0  0  0  0  0  0  0  0  0  0  0
  132.8773   75.1090  226.3653 H   0  0  0  0  0  0  0  0  0  0  0  0
  132.5950   73.3770  227.9720 H   0  0  0  0  0  0  0  0  0  0  0  0
  134.6887   72.2753  227.7197 H   0  0  0  0  0  0  0  0  0  0  0  0
  133.2995   71.1326  227.5918 H   0  0  0  0  0  0  0  0  0  0  0  0
  135.0875   70.7781  225.8375 H   0  0  0  0  0  0  0  0  0  0  0  0
  133.4481   71.1242  225.1688 H   0  0  0  0  0  0  0  0  0  0  0  0
  141.1059   71.2683  223.8306 H   0  0  0  0  0  0  0  0  0  0  0  0
  139.9342   72.4730  224.4860 H   0  0  0  0  0  0  0  0  0  0  0  0
  1  2  2  0
  2  3  1  0
  3  4  2  0
  4  5  1  0
  5  6  2  0
  5  7  1  0
  7  8  1  0
  8  9  1  0
  9 10  1  0
 10 11  2  0
 11 12  1  0
 12 13  1  0
 13 14  1  0
 14 15  1  0
 15 16  1  0
 16 17  1  0
 17 18  1  0
 18 19  1  0
 19 20  1  0
 12 21  2  0
 21 22  1  0
 22 23  1  0
 23 24  1  0
 24 25  1  0
 25 26  1  0
 26 27  1  0
 27 28  1  0
 22 29  2  0
  9 30  1  0
  6  1  1  0
 29 10  1  0
 30  4  1  0
 20 15  1  0
 28 23  1  0
  1 31  1  0
  2 32  1  0
  3 33  1  0
  6 34  1  0
  7 35  1  0
  7 36  1  0
  8 37  1  0
  8 38  1  0
 13 39  1  0
 13 40  1  0
 14 41  1  0
 14 42  1  0
 16 43  1  0
 16 44  1  0
 17 45  1  0
 17 46  1  0
 18 47  1  0
 18 48  1  0
 19 49  1  0
 19 50  1  0
 20 51  1  0
 20 52  1  0
 24 53  1  0
 24 54  1  0
 25 55  1  0
 25 56  1  0
 26 57  1  0
 27 58  1  0
 27 59  1  0
 28 60  1  0
 28 61  1  0
 30 62  1  0
 30 63  1  0
M  END
>  <UniqueID>  (29) 
562

>  <SMILES>  (29) 
c1ccc2c(c1)CCN(c1nc(CCN3CCCCC3)nc(N3CCNCC3)n1)C2

>  <Energy>  (29) 
74.13735776941701

>  <Genealogy>  (29) 
c1ccc2c(c1)CCN(c1nc(CCN3CCCCC3)nc(N3CCNCC3)n1)C2 (3D coordinates assigned)
c1ccc2c(c1)CCN(c1nc(CCN3CCCCC3)nc(N3CCNCC3)n1)C2 (nonaromatic ring conformer: 74.13735776941701 kcal/mol)

>  <smiles>  (29) 
c1ccc2c(c1)CCN(c1nc(CCN3CCCCC3)nc(N3CCNCC3)n1)C2

>  <score_type>  (29) 
oracle

>  <origin>  (29) 
autodockgpu

>  <m_score__min__energy>  (29) 
-9.8000000000000007

>  <m_primary>  (29) 
energy

>  <meeko>  (29) 
{"free_energy": -7.36, "intermolecular_energy": -8.85, "internal_energy": -1.35, "cluster_size": 2, "cluster_id": 3, "rank_in_cluster": 1}

>  <energy>  (29) 
-9.78

>  <cluster_rmsd>  (29) 
0.06

>  <rmsd>  (29) 
271.88

>  <cluster>  (29) 
1

$$$$
GZRQFJZYBWHXJG-UHFFFAOYNA-N
     RDKit          3D

 63 67  0  0  0  0  0  0  0  0999 V2000
  140.4770   69.8020  228.2960 C   0  0  0  0  0  0  0  0  0  0  0  0
  141.1030   71.0010  227.9440 C   0  0  0  0  0  0  0  0  0  0  0  0
  140.9430   71.5220  226.6580 C   0  0  0  0  0  0  0  0  0  0  0  0
  140.1490   70.8500  225.7130 C   0  0  0  0  0  0  0  0  0  0  0  0
  139.5360   69.6180  226.0590 C   0  0  0  0  0  0  0  0  0  0  0  0
  139.6930   69.1160  227.3620 C   0  0  0  0  0  0  0  0  0  0  0  0
  138.6400   68.8750  225.0900 C   0  0  0  0  0  0  0  0  0  0  0  0
  138.8690   69.3150  223.6390 C   0  0  0  0  0  0  0  0  0  0  0  0
  138.9320   70.7780  223.5970 N   0  0  0  0  0  0  0  0  0  0  0  0
  137.7490   71.5260  223.2820 C   0  0  0  0  0  0  0  0  0  0  0  0
  137.5660   72.0240  222.0310 N   0  0  0  0  0  0  0  0  0  0  0  0
  136.4680   72.7660  221.7450 C   0  0  0  0  0  0  0  0  0  0  0  0
  136.3320   73.4170  220.4060 C   0  0  0  0  0  0  0  0  0  0  0  0
  137.4370   74.4570  220.1690 C   0  0  0  0  0  0  0  0  0  0  0  0
  137.9820   74.9500  221.4600 N   0  0  0  0  0  0  0  0  0  0  0  0
  139.3980   74.5410  221.6840 C   0  0  0  0  0  0  0  0  0  0  0  0
  140.3910   75.6750  221.4050 C   0  0  0  0  0  0  0  0  0  0  0  0
  140.1270   76.8800  222.3220 C   0  0  0  0  0  0  0  0  0  0  0  0
  138.6440   77.0140  222.7090 C   0  0  0  0  0  0  0  0  0  0  0  0
  137.7370   76.4040  221.6320 C   0  0  0  0  0  0  0  0  0  0  0  0
  135.5510   73.0130  222.7150 N   0  0  0  0  0  0  0  0  0  0  0  0
  135.7190   72.5160  223.9690 C   0  0  0  0  0  0  0  0  0  0  0  0
  134.7380   72.7770  224.9950 N   0  0  0  0  0  0  0  0  0  0  0  0
  134.0410   74.0720  225.0190 C   0  0  0  0  0  0  0  0  0  0  0  0
  133.5750   74.4110  226.4430 C   0  0  0  0  0  0  0  0  0  0  0  0
  132.8120   73.2940  227.0120 N   0  0  0  0  0  0  0  0  0  0  0  0
  133.6620   72.1020  227.1110 C   0  0  0  0  0  0  0  0  0  0  0  0
  134.1200   71.6550  225.7190 C   0  0  0  0  0  0  0  0  0  0  0  0
  136.8280   71.7820  224.2460 N   0  0  0  0  0  0  0  0  0  0  0  0
  140.0450   71.4040  224.3160 C   0  0  0  0  0  0  0  0  0  0  0  0
  140.6011   69.3963  229.3109 H   0  0  0  0  0  0  0  0  0  0  0  0
  141.7221   71.5347  228.6802 H   0  0  0  0  0  0  0  0  0  0  0  0
  141.4412   72.4635  226.3834 H   0  0  0  0  0  0  0  0  0  0  0  0
  139.1963   68.1776  227.6496 H   0  0  0  0  0  0  0  0  0  0  0  0
  138.8466   67.7976  225.1707 H   0  0  0  0  0  0  0  0  0  0  0  0
  137.5960   69.1020  225.3520 H   0  0  0  0  0  0  0  0  0  0  0  0
  139.8150   68.8929  223.2690 H   0  0  0  0  0  0  0  0  0  0  0  0
  138.0454   68.9566  223.0039 H   0  0  0  0  0  0  0  0  0  0  0  0
  136.3952   72.6446  219.6253 H   0  0  0  0  0  0  0  0  0  0  0  0
  135.3608   73.9323  220.3706 H   0  0  0  0  0  0  0  0  0  0  0  0
  138.2486   73.9950  219.5877 H   0  0  0  0  0  0  0  0  0  0  0  0
  137.0088   75.3078  219.6188 H   0  0  0  0  0  0  0  0  0  0  0  0
  139.5114   74.2232  222.7310 H   0  0  0  0  0  0  0  0  0  0  0  0
  139.6226   73.7223  220.9846 H   0  0  0  0  0  0  0  0  0  0  0  0
  141.4133   75.3082  221.5791 H   0  0  0  0  0  0  0  0  0  0  0  0
  140.2685   75.9975  220.3605 H   0  0  0  0  0  0  0  0  0  0  0  0
  140.7215   76.7614  223.2399 H   0  0  0  0  0  0  0  0  0  0  0  0
  140.4110   77.7880  221.7698 H   0  0  0  0  0  0  0  0  0  0  0  0
  138.4723   76.4918  223.6618 H   0  0  0  0  0  0  0  0  0  0  0  0
  138.4025   78.0828  222.8062 H   0  0  0  0  0  0  0  0  0  0  0  0
  136.6872   76.5556  221.9236 H   0  0  0  0  0  0  0  0  0  0  0  0
  137.9594   76.9023  220.6769 H   0  0  0  0  0  0  0  0  0  0  0  0
  134.7258   74.8573  224.6665 H   0  0  0  0  0  0  0  0  0  0  0  0
  133.1599   74.0118  224.3633 H   0  0  0  0  0  0  0  0  0  0  0  0
  134.4538   74.6083  227.0744 H   0  0  0  0  0  0  0  0  0  0  0  0
  132.9293   75.3007  226.4044 H   0  0  0  0  0  0  0  0  0  0  0  0
  132.5260   73.5690  227.9840 H   0  0  0  0  0  0  0  0  0  0  0  0
  134.5442   72.3360  227.7249 H   0  0  0  0  0  0  0  0  0  0  0  0
  133.0837   71.2890  227.5743 H   0  0  0  0  0  0  0  0  0  0  0  0
  134.8545   70.8428  225.8230 H   0  0  0  0  0  0  0  0  0  0  0  0
  133.2450   71.3045  225.1520 H   0  0  0  0  0  0  0  0  0  0  0  0
  140.9826   71.2040  223.7766 H   0  0  0  0  0  0  0  0  0  0  0  0
  139.8654   72.4876  224.3755 H   0  0  0  0  0  0  0  0  0  0  0  0
  1  2  2  0
  2  3  1  0
  3  4  2  0
  4  5  1  0
  5  6  2  0
  5  7  1  0
  7  8  1  0
  8  9  1  0
  9 10  1  0
 10 11  2  0
 11 12  1  0
 12 13  1  0
 13 14  1  0
 14 15  1  0
 15 16  1  0
 16 17  1  0
 17 18  1  0
 18 19  1  0
 19 20  1  0
 12 21  2  0
 21 22  1  0
 22 23  1  0
 23 24  1  0
 24 25  1  0
 25 26  1  0
 26 27  1  0
 27 28  1  0
 22 29  2  0
  9 30  1  0
  6  1  1  0
 29 10  1  0
 30  4  1  0
 20 15  1  0
 28 23  1  0
  1 31  1  0
  2 32  1  0
  3 33  1  0
  6 34  1  0
  7 35  1  0
  7 36  1  0
  8 37  1  0
  8 38  1  0
 13 39  1  0
 13 40  1  0
 14 41  1  0
 14 42  1  0
 16 43  1  0
 16 44  1  0
 17 45  1  0
 17 46  1  0
 18 47  1  0
 18 48  1  0
 19 49  1  0
 19 50  1  0
 20 51  1  0
 20 52  1  0
 24 53  1  0
 24 54  1  0
 25 55  1  0
 25 56  1  0
 26 57  1  0
 27 58  1  0
 27 59  1  0
 28 60  1  0
 28 61  1  0
 30 62  1  0
 30 63  1  0
M  END
>  <UniqueID>  (30) 
562

>  <SMILES>  (30) 
c1ccc2c(c1)CCN(c1nc(CCN3CCCCC3)nc(N3CCNCC3)n1)C2

>  <Energy>  (30) 
74.13735776941701

>  <Genealogy>  (30) 
c1ccc2c(c1)CCN(c1nc(CCN3CCCCC3)nc(N3CCNCC3)n1)C2 (3D coordinates assigned)
c1ccc2c(c1)CCN(c1nc(CCN3CCCCC3)nc(N3CCNCC3)n1)C2 (nonaromatic ring conformer: 74.13735776941701 kcal/mol)

>  <smiles>  (30) 
c1ccc2c(c1)CCN(c1nc(CCN3CCCCC3)nc(N3CCNCC3)n1)C2

>  <score_type>  (30) 
oracle

>  <origin>  (30) 
autodockgpu

>  <m_score__min__energy>  (30) 
-9.8000000000000007

>  <m_primary>  (30) 
energy

>  <meeko>  (30) 
{"free_energy": -7.31, "intermolecular_energy": -8.8, "internal_energy": -1.37, "cluster_size": 2, "cluster_id": 3, "rank_in_cluster": 2}

>  <energy>  (30) 
-9.68

>  <cluster_rmsd>  (30) 
0.64

>  <rmsd>  (30) 
271.95

>  <cluster>  (30) 
1

$$$$
GZRQFJZYBWHXJG-UHFFFAOYNA-N
     RDKit          3D

 63 67  0  0  0  0  0  0  0  0999 V2000
  142.5240   80.7930  222.6020 C   0  0  0  0  0  0  0  0  0  0  0  0
  141.9920   80.3520  223.8160 C   0  0  0  0  0  0  0  0  0  0  0  0
  141.1440   79.2420  223.8460 C   0  0  0  0  0  0  0  0  0  0  0  0
  140.8250   78.5600  222.6600 C   0  0  0  0  0  0  0  0  0  0  0  0
  141.3410   79.0230  221.4220 C   0  0  0  0  0  0  0  0  0  0  0  0
  142.2070   80.1300  221.4110 C   0  0  0  0  0  0  0  0  0  0  0  0
  141.0590   78.3000  220.1210 C   0  0  0  0  0  0  0  0  0  0  0  0
  139.8340   77.3840  220.2240 C   0  0  0  0  0  0  0  0  0  0  0  0
  139.9190   76.6260  221.4750 N   0  0  0  0  0  0  0  0  0  0  0  0
  140.4830   75.3070  221.4630 C   0  0  0  0  0  0  0  0  0  0  0  0
  139.8510   74.2860  222.0990 N   0  0  0  0  0  0  0  0  0  0  0  0
  140.4060   73.0490  222.1220 C   0  0  0  0  0  0  0  0  0  0  0  0
  139.7730   71.9600  222.9290 C   0  0  0  0  0  0  0  0  0  0  0  0
  140.7540   71.3740  223.9540 C   0  0  0  0  0  0  0  0  0  0  0  0
  140.1510   71.3560  225.3110 N   0  0  0  0  0  0  0  0  0  0  0  0
  139.5460   70.0380  225.6570 C   0  0  0  0  0  0  0  0  0  0  0  0
  140.4360   69.2060  226.5880 C   0  0  0  0  0  0  0  0  0  0  0  0
  140.6890   69.9400  227.9150 C   0  0  0  0  0  0  0  0  0  0  0  0
  140.6820   71.4700  227.7530 C   0  0  0  0  0  0  0  0  0  0  0  0
  141.0950   71.8750  226.3320 C   0  0  0  0  0  0  0  0  0  0  0  0
  141.5970   72.8340  221.5100 N   0  0  0  0  0  0  0  0  0  0  0  0
  142.2370   73.8460  220.8650 C   0  0  0  0  0  0  0  0  0  0  0  0
  143.5020   73.6090  220.2100 N   0  0  0  0  0  0  0  0  0  0  0  0
  144.6940   73.3140  221.0200 C   0  0  0  0  0  0  0  0  0  0  0  0
  145.9720   73.7280  220.2750 C   0  0  0  0  0  0  0  0  0  0  0  0
  145.9880   73.1490  218.9260 N   0  0  0  0  0  0  0  0  0  0  0  0
  144.8540   73.6560  218.1460 C   0  0  0  0  0  0  0  0  0  0  0  0
  143.5300   73.2300  218.7890 C   0  0  0  0  0  0  0  0  0  0  0  0
  141.6760   75.0830  220.8560 N   0  0  0  0  0  0  0  0  0  0  0  0
  139.8590   77.4050  222.7150 C   0  0  0  0  0  0  0  0  0  0  0  0
  143.1946   81.6647  222.5821 H   0  0  0  0  0  0  0  0  0  0  0  0
  142.2409   80.8790  224.7489 H   0  0  0  0  0  0  0  0  0  0  0  0
  140.7239   78.9003  224.8035 H   0  0  0  0  0  0  0  0  0  0  0  0
  142.6382   80.4773  220.4605 H   0  0  0  0  0  0  0  0  0  0  0  0
  140.8790   79.0457  219.3326 H   0  0  0  0  0  0  0  0  0  0  0  0
  141.9318   77.6732  219.8858 H   0  0  0  0  0  0  0  0  0  0  0  0
  138.9165   77.9908  220.2203 H   0  0  0  0  0  0  0  0  0  0  0  0
  139.8089   76.6936  219.3680 H   0  0  0  0  0  0  0  0  0  0  0  0
  138.9025   72.3703  223.4619 H   0  0  0  0  0  0  0  0  0  0  0  0
  139.4698   71.1551  222.2433 H   0  0  0  0  0  0  0  0  0  0  0  0
  141.0111   70.3457  223.6600 H   0  0  0  0  0  0  0  0  0  0  0  0
  141.6564   72.0026  223.9776 H   0  0  0  0  0  0  0  0  0  0  0  0
  138.5814   70.2134  226.1558 H   0  0  0  0  0  0  0  0  0  0  0  0
  139.4226   69.4726  224.7215 H   0  0  0  0  0  0  0  0  0  0  0  0
  139.9395   68.2470  226.7971 H   0  0  0  0  0  0  0  0  0  0  0  0
  141.4031   69.0408  226.0906 H   0  0  0  0  0  0  0  0  0  0  0  0
  139.9022   69.6574  228.6299 H   0  0  0  0  0  0  0  0  0  0  0  0
  141.6864   69.6466  228.2742 H   0  0  0  0  0  0  0  0  0  0  0  0
  139.6690   71.8483  227.9547 H   0  0  0  0  0  0  0  0  0  0  0  0
  141.4031   71.9006  228.4634 H   0  0  0  0  0  0  0  0  0  0  0  0
  141.1192   72.9729  226.2682 H   0  0  0  0  0  0  0  0  0  0  0  0
  142.0864   71.4435  226.1296 H   0  0  0  0  0  0  0  0  0  0  0  0
  144.6328   73.8686  221.9680 H   0  0  0  0  0  0  0  0  0  0  0  0
  144.7317   72.2317  221.2131 H   0  0  0  0  0  0  0  0  0  0  0  0
  146.0082   74.8248  220.1992 H   0  0  0  0  0  0  0  0  0  0  0  0
  146.8455   73.3587  220.8323 H   0  0  0  0  0  0  0  0  0  0  0  0
  146.8710   73.4670  218.4560 H   0  0  0  0  0  0  0  0  0  0  0  0
  144.9019   74.7543  218.1087 H   0  0  0  0  0  0  0  0  0  0  0  0
  144.9065   73.2405  217.1288 H   0  0  0  0  0  0  0  0  0  0  0  0
  142.6980   73.7243  218.2660 H   0  0  0  0  0  0  0  0  0  0  0  0
  143.4316   72.1372  218.7102 H   0  0  0  0  0  0  0  0  0  0  0  0
  138.8385   77.7928  222.8498 H   0  0  0  0  0  0  0  0  0  0  0  0
  140.1315   76.7532  223.5581 H   0  0  0  0  0  0  0  0  0  0  0  0
  1  2  2  0
  2  3  1  0
  3  4  2  0
  4  5  1  0
  5  6  2  0
  5  7  1  0
  7  8  1  0
  8  9  1  0
  9 10  1  0
 10 11  2  0
 11 12  1  0
 12 13  1  0
 13 14  1  0
 14 15  1  0
 15 16  1  0
 16 17  1  0
 17 18  1  0
 18 19  1  0
 19 20  1  0
 12 21  2  0
 21 22  1  0
 22 23  1  0
 23 24  1  0
 24 25  1  0
 25 26  1  0
 26 27  1  0
 27 28  1  0
 22 29  2  0
  9 30  1  0
  6  1  1  0
 29 10  1  0
 30  4  1  0
 20 15  1  0
 28 23  1  0
  1 31  1  0
  2 32  1  0
  3 33  1  0
  6 34  1  0
  7 35  1  0
  7 36  1  0
  8 37  1  0
  8 38  1  0
 13 39  1  0
 13 40  1  0
 14 41  1  0
 14 42  1  0
 16 43  1  0
 16 44  1  0
 17 45  1  0
 17 46  1  0
 18 47  1  0
 18 48  1  0
 19 49  1  0
 19 50  1  0
 20 51  1  0
 20 52  1  0
 24 53  1  0
 24 54  1  0
 25 55  1  0
 25 56  1  0
 26 57  1  0
 27 58  1  0
 27 59  1  0
 28 60  1  0
 28 61  1  0
 30 62  1  0
 30 63  1  0
M  END
>  <UniqueID>  (31) 
562

>  <SMILES>  (31) 
c1ccc2c(c1)CCN(c1nc(CCN3CCCCC3)nc(N3CCNCC3)n1)C2

>  <Energy>  (31) 
74.13735776941701

>  <Genealogy>  (31) 
c1ccc2c(c1)CCN(c1nc(CCN3CCCCC3)nc(N3CCNCC3)n1)C2 (3D coordinates assigned)
c1ccc2c(c1)CCN(c1nc(CCN3CCCCC3)nc(N3CCNCC3)n1)C2 (nonaromatic ring conformer: 74.13735776941701 kcal/mol)

>  <smiles>  (31) 
c1ccc2c(c1)CCN(c1nc(CCN3CCCCC3)nc(N3CCNCC3)n1)C2

>  <score_type>  (31) 
oracle

>  <origin>  (31) 
autodockgpu

>  <m_score__min__energy>  (31) 
-9.8000000000000007

>  <m_primary>  (31) 
energy

>  <meeko>  (31) 
{"free_energy": -9.78, "intermolecular_energy": -11.27, "internal_energy": -0.9, "cluster_size": 17, "cluster_id": 1, "rank_in_cluster": 9}

>  <energy>  (31) 
-9.65

>  <cluster_rmsd>  (31) 
0.44

>  <rmsd>  (31) 
271.88

>  <cluster>  (31) 
1

$$$$
GZRQFJZYBWHXJG-UHFFFAOYNA-N
     RDKit          3D

 63 67  0  0  0  0  0  0  0  0999 V2000
  142.5050   80.5220  222.5730 C   0  0  0  0  0  0  0  0  0  0  0  0
  142.0200   80.0480  223.7940 C   0  0  0  0  0  0  0  0  0  0  0  0
  141.2260   78.8990  223.8330 C   0  0  0  0  0  0  0  0  0  0  0  0
  140.9140   78.2110  222.6480 C   0  0  0  0  0  0  0  0  0  0  0  0
  141.3820   78.7080  221.4030 C   0  0  0  0  0  0  0  0  0  0  0  0
  142.1940   79.8540  221.3840 C   0  0  0  0  0  0  0  0  0  0  0  0
  141.1070   77.9810  220.1030 C   0  0  0  0  0  0  0  0  0  0  0  0
  139.9280   77.0080  220.2240 C   0  0  0  0  0  0  0  0  0  0  0  0
  140.0750   76.2460  221.4660 N   0  0  0  0  0  0  0  0  0  0  0  0
  140.7000   74.9550  221.4320 C   0  0  0  0  0  0  0  0  0  0  0  0
  140.1140   73.8940  222.0450 N   0  0  0  0  0  0  0  0  0  0  0  0
  140.7250   72.6830  222.0460 C   0  0  0  0  0  0  0  0  0  0  0  0
  140.1410   71.5500  222.8280 C   0  0  0  0  0  0  0  0  0  0  0  0
  140.0300   71.8920  224.3210 C   0  0  0  0  0  0  0  0  0  0  0  0
  140.8250   70.9410  225.1400 N   0  0  0  0  0  0  0  0  0  0  0  0
  141.4270   71.5790  226.3450 C   0  0  0  0  0  0  0  0  0  0  0  0
  140.6540   71.2610  227.6300 C   0  0  0  0  0  0  0  0  0  0  0  0
  140.6240   69.7480  227.8980 C   0  0  0  0  0  0  0  0  0  0  0  0
  140.6610   68.9180  226.6030 C   0  0  0  0  0  0  0  0  0  0  0  0
  140.0590   69.7030  225.4290 C   0  0  0  0  0  0  0  0  0  0  0  0
  141.9290   72.5360  221.4370 N   0  0  0  0  0  0  0  0  0  0  0  0
  142.5240   73.5890  220.8150 C   0  0  0  0  0  0  0  0  0  0  0  0
  143.8000   73.4240  220.1620 N   0  0  0  0  0  0  0  0  0  0  0  0
  145.0180   73.2870  220.9760 C   0  0  0  0  0  0  0  0  0  0  0  0
  146.2510   73.7640  220.1930 C   0  0  0  0  0  0  0  0  0  0  0  0
  146.3110   73.1060  218.8820 N   0  0  0  0  0  0  0  0  0  0  0  0
  145.1320   73.4620  218.0850 C   0  0  0  0  0  0  0  0  0  0  0  0
  143.8550   72.9610  218.7670 C   0  0  0  0  0  0  0  0  0  0  0  0
  141.9050   74.7990  220.8270 N   0  0  0  0  0  0  0  0  0  0  0  0
  140.0050   77.0120  222.7140 C   0  0  0  0  0  0  0  0  0  0  0  0
  143.1339   81.4241  222.5463 H   0  0  0  0  0  0  0  0  0  0  0  0
  142.2633   80.5797  224.7257 H   0  0  0  0  0  0  0  0  0  0  0  0
  140.8431   78.5310  224.7963 H   0  0  0  0  0  0  0  0  0  0  0  0
  142.5880   80.2286  220.4277 H   0  0  0  0  0  0  0  0  0  0  0  0
  140.8763   78.7225  219.3239 H   0  0  0  0  0  0  0  0  0  0  0  0
  142.0029   77.3970  219.8456 H   0  0  0  0  0  0  0  0  0  0  0  0
  138.9835   77.5714  220.2448 H   0  0  0  0  0  0  0  0  0  0  0  0
  139.9164   76.3235  219.3630 H   0  0  0  0  0  0  0  0  0  0  0  0
  139.1373   71.3265  222.4373 H   0  0  0  0  0  0  0  0  0  0  0  0
  140.8061   70.6802  222.7227 H   0  0  0  0  0  0  0  0  0  0  0  0
  140.4062   72.9124  224.4863 H   0  0  0  0  0  0  0  0  0  0  0  0
  138.9744   71.8200  224.6219 H   0  0  0  0  0  0  0  0  0  0  0  0
  142.4596   71.2167  226.4565 H   0  0  0  0  0  0  0  0  0  0  0  0
  141.3925   72.6684  226.1969 H   0  0  0  0  0  0  0  0  0  0  0  0
  141.1416   71.7662  228.4768 H   0  0  0  0  0  0  0  0  0  0  0  0
  139.6194   71.6153  227.5119 H   0  0  0  0  0  0  0  0  0  0  0  0
  141.4965   69.4815  228.5126 H   0  0  0  0  0  0  0  0  0  0  0  0
  139.6799   69.5192  228.4140 H   0  0  0  0  0  0  0  0  0  0  0  0
  141.7052   68.6641  226.3682 H   0  0  0  0  0  0  0  0  0  0  0  0
  140.0672   68.0046  226.7551 H   0  0  0  0  0  0  0  0  0  0  0  0
  140.0650   69.0640  224.5337 H   0  0  0  0  0  0  0  0  0  0  0  0
  139.0337   69.9927  225.7027 H   0  0  0  0  0  0  0  0  0  0  0  0
  144.9128   73.8929  221.8881 H   0  0  0  0  0  0  0  0  0  0  0  0
  145.1524   72.2266  221.2357 H   0  0  0  0  0  0  0  0  0  0  0  0
  146.1903   74.8529  220.0495 H   0  0  0  0  0  0  0  0  0  0  0  0
  147.1565   73.5076  220.7626 H   0  0  0  0  0  0  0  0  0  0  0  0
  147.1600   73.4710  218.3840 H   0  0  0  0  0  0  0  0  0  0  0  0
  145.0819   74.5559  217.9807 H   0  0  0  0  0  0  0  0  0  0  0  0
  145.2156   72.9912  217.0944 H   0  0  0  0  0  0  0  0  0  0  0  0
  142.9795   73.3456  218.2232 H   0  0  0  0  0  0  0  0  0  0  0  0
  143.8546   71.8610  218.7571 H   0  0  0  0  0  0  0  0  0  0  0  0
  138.9706   77.3502  222.8737 H   0  0  0  0  0  0  0  0  0  0  0  0
  140.3257   76.3675  223.5458 H   0  0  0  0  0  0  0  0  0  0  0  0
  1  2  2  0
  2  3  1  0
  3  4  2  0
  4  5  1  0
  5  6  2  0
  5  7  1  0
  7  8  1  0
  8  9  1  0
  9 10  1  0
 10 11  2  0
 11 12  1  0
 12 13  1  0
 13 14  1  0
 14 15  1  0
 15 16  1  0
 16 17  1  0
 17 18  1  0
 18 19  1  0
 19 20  1  0
 12 21  2  0
 21 22  1  0
 22 23  1  0
 23 24  1  0
 24 25  1  0
 25 26  1  0
 26 27  1  0
 27 28  1  0
 22 29  2  0
  9 30  1  0
  6  1  1  0
 29 10  1  0
 30  4  1  0
 20 15  1  0
 28 23  1  0
  1 31  1  0
  2 32  1  0
  3 33  1  0
  6 34  1  0
  7 35  1  0
  7 36  1  0
  8 37  1  0
  8 38  1  0
 13 39  1  0
 13 40  1  0
 14 41  1  0
 14 42  1  0
 16 43  1  0
 16 44  1  0
 17 45  1  0
 17 46  1  0
 18 47  1  0
 18 48  1  0
 19 49  1  0
 19 50  1  0
 20 51  1  0
 20 52  1  0
 24 53  1  0
 24 54  1  0
 25 55  1  0
 25 56  1  0
 26 57  1  0
 27 58  1  0
 27 59  1  0
 28 60  1  0
 28 61  1  0
 30 62  1  0
 30 63  1  0
M  END
>  <UniqueID>  (32) 
562

>  <SMILES>  (32) 
c1ccc2c(c1)CCN(c1nc(CCN3CCCCC3)nc(N3CCNCC3)n1)C2

>  <Energy>  (32) 
74.13735776941701

>  <Genealogy>  (32) 
c1ccc2c(c1)CCN(c1nc(CCN3CCCCC3)nc(N3CCNCC3)n1)C2 (3D coordinates assigned)
c1ccc2c(c1)CCN(c1nc(CCN3CCCCC3)nc(N3CCNCC3)n1)C2 (nonaromatic ring conformer: 74.13735776941701 kcal/mol)

>  <smiles>  (32) 
c1ccc2c(c1)CCN(c1nc(CCN3CCCCC3)nc(N3CCNCC3)n1)C2

>  <score_type>  (32) 
oracle

>  <origin>  (32) 
autodockgpu

>  <m_score__min__energy>  (32) 
-9.8000000000000007

>  <m_primary>  (32) 
energy

>  <meeko>  (32) 
{"free_energy": -9.65, "intermolecular_energy": -11.14, "internal_energy": -0.91, "cluster_size": 17, "cluster_id": 1, "rank_in_cluster": 11}

>  <energy>  (32) 
-9.65

>  <cluster_rmsd>  (32) 
0.44

>  <rmsd>  (32) 
271.88

>  <cluster>  (32) 
1

$$$$
GZRQFJZYBWHXJG-UHFFFAOYNA-N
     RDKit          3D

 63 67  0  0  0  0  0  0  0  0999 V2000
  142.5180   80.5340  222.6390 C   0  0  0  0  0  0  0  0  0  0  0  0
  141.9370   80.1190  223.8410 C   0  0  0  0  0  0  0  0  0  0  0  0
  141.0590   79.0330  223.8550 C   0  0  0  0  0  0  0  0  0  0  0  0
  140.7580   78.3470  222.6660 C   0  0  0  0  0  0  0  0  0  0  0  0
  141.3240   78.7840  221.4400 C   0  0  0  0  0  0  0  0  0  0  0  0
  142.2190   79.8680  221.4460 C   0  0  0  0  0  0  0  0  0  0  0  0
  141.0620   78.0560  220.1390 C   0  0  0  0  0  0  0  0  0  0  0  0
  139.8100   77.1740  220.2130 C   0  0  0  0  0  0  0  0  0  0  0  0
  139.8370   76.4260  221.4720 N   0  0  0  0  0  0  0  0  0  0  0  0
  140.3660   75.0920  221.4900 C   0  0  0  0  0  0  0  0  0  0  0  0
  139.7570   74.1240  222.2230 N   0  0  0  0  0  0  0  0  0  0  0  0
  140.2810   72.8750  222.2720 C   0  0  0  0  0  0  0  0  0  0  0  0
  139.6830   71.8460  223.1790 C   0  0  0  0  0  0  0  0  0  0  0  0
  140.7190   71.2950  224.1690 C   0  0  0  0  0  0  0  0  0  0  0  0
  140.1550   71.2320  225.5420 N   0  0  0  0  0  0  0  0  0  0  0  0
  139.6600   69.8730  225.9020 C   0  0  0  0  0  0  0  0  0  0  0  0
  140.6350   69.1100  226.8060 C   0  0  0  0  0  0  0  0  0  0  0  0
  140.8690   69.8620  228.1270 C   0  0  0  0  0  0  0  0  0  0  0  0
  140.7420   71.3870  227.9680 C   0  0  0  0  0  0  0  0  0  0  0  0
  141.0850   71.8210  226.5370 C   0  0  0  0  0  0  0  0  0  0  0  0
  141.4190   72.5950  221.5880 N   0  0  0  0  0  0  0  0  0  0  0  0
  142.0350   73.5530  220.8460 C   0  0  0  0  0  0  0  0  0  0  0  0
  143.2410   73.2470  220.1150 N   0  0  0  0  0  0  0  0  0  0  0  0
  143.8530   74.2780  219.2620 C   0  0  0  0  0  0  0  0  0  0  0  0
  144.6660   73.6330  218.1300 C   0  0  0  0  0  0  0  0  0  0  0  0
  145.6090   72.6470  218.6730 N   0  0  0  0  0  0  0  0  0  0  0  0
  144.8770   71.5670  219.3450 C   0  0  0  0  0  0  0  0  0  0  0  0
  144.0850   72.1180  220.5350 C   0  0  0  0  0  0  0  0  0  0  0  0
  141.5050   74.8040  220.8120 N   0  0  0  0  0  0  0  0  0  0  0  0
  139.7610   77.2190  222.7030 C   0  0  0  0  0  0  0  0  0  0  0  0
  143.2125   81.3870  222.6315 H   0  0  0  0  0  0  0  0  0  0  0  0
  142.1716   80.6482  224.7764 H   0  0  0  0  0  0  0  0  0  0  0  0
  140.6004   78.7127  224.8022 H   0  0  0  0  0  0  0  0  0  0  0  0
  142.6874   80.1947  220.5059 H   0  0  0  0  0  0  0  0  0  0  0  0
  140.9261   78.7981  219.3385 H   0  0  0  0  0  0  0  0  0  0  0  0
  141.9242   77.4036  219.9366 H   0  0  0  0  0  0  0  0  0  0  0  0
  138.9098   77.8051  220.1765 H   0  0  0  0  0  0  0  0  0  0  0  0
  139.7918   76.4765  219.3626 H   0  0  0  0  0  0  0  0  0  0  0  0
  138.8579   72.3043  223.7439 H   0  0  0  0  0  0  0  0  0  0  0  0
  139.3200   71.0117  222.5609 H   0  0  0  0  0  0  0  0  0  0  0  0
  141.0162   70.2837  223.8544 H   0  0  0  0  0  0  0  0  0  0  0  0
  141.5911   71.9654  224.1764 H   0  0  0  0  0  0  0  0  0  0  0  0
  138.6993   69.9760  226.4278 H   0  0  0  0  0  0  0  0  0  0  0  0
  139.5530   69.2999  224.9692 H   0  0  0  0  0  0  0  0  0  0  0  0
  140.2175   68.1166  227.0272 H   0  0  0  0  0  0  0  0  0  0  0  0
  141.5975   69.0168  226.2817 H   0  0  0  0  0  0  0  0  0  0  0  0
  140.1262   69.5211  228.8632 H   0  0  0  0  0  0  0  0  0  0  0  0
  141.8955   69.6450  228.4575 H   0  0  0  0  0  0  0  0  0  0  0  0
  139.7091   71.6878  228.1973 H   0  0  0  0  0  0  0  0  0  0  0  0
  141.4470   71.8714  228.6596 H   0  0  0  0  0  0  0  0  0  0  0  0
  141.0252   72.9176  226.4740 H   0  0  0  0  0  0  0  0  0  0  0  0
  142.1002   71.4652  226.3070 H   0  0  0  0  0  0  0  0  0  0  0  0
  143.0601   74.9035  218.8261 H   0  0  0  0  0  0  0  0  0  0  0  0
  144.5278   74.8914  219.8772 H   0  0  0  0  0  0  0  0  0  0  0  0
  143.9799   73.1316  217.4315 H   0  0  0  0  0  0  0  0  0  0  0  0
  145.2326   74.4173  217.6067 H   0  0  0  0  0  0  0  0  0  0  0  0
  146.1310   72.2290  217.8640 H   0  0  0  0  0  0  0  0  0  0  0  0
  144.1815   71.1017  218.6310 H   0  0  0  0  0  0  0  0  0  0  0  0
  145.5981   70.8214  219.7111 H   0  0  0  0  0  0  0  0  0  0  0  0
  143.4463   71.3215  220.9445 H   0  0  0  0  0  0  0  0  0  0  0  0
  144.7924   72.4688  221.3008 H   0  0  0  0  0  0  0  0  0  0  0  0
  138.7476   77.6347  222.8038 H   0  0  0  0  0  0  0  0  0  0  0  0
  139.9911   76.5688  223.5599 H   0  0  0  0  0  0  0  0  0  0  0  0
  1  2  2  0
  2  3  1  0
  3  4  2  0
  4  5  1  0
  5  6  2  0
  5  7  1  0
  7  8  1  0
  8  9  1  0
  9 10  1  0
 10 11  2  0
 11 12  1  0
 12 13  1  0
 13 14  1  0
 14 15  1  0
 15 16  1  0
 16 17  1  0
 17 18  1  0
 18 19  1  0
 19 20  1  0
 12 21  2  0
 21 22  1  0
 22 23  1  0
 23 24  1  0
 24 25  1  0
 25 26  1  0
 26 27  1  0
 27 28  1  0
 22 29  2  0
  9 30  1  0
  6  1  1  0
 29 10  1  0
 30  4  1  0
 20 15  1  0
 28 23  1  0
  1 31  1  0
  2 32  1  0
  3 33  1  0
  6 34  1  0
  7 35  1  0
  7 36  1  0
  8 37  1  0
  8 38  1  0
 13 39  1  0
 13 40  1  0
 14 41  1  0
 14 42  1  0
 16 43  1  0
 16 44  1  0
 17 45  1  0
 17 46  1  0
 18 47  1  0
 18 48  1  0
 19 49  1  0
 19 50  1  0
 20 51  1  0
 20 52  1  0
 24 53  1  0
 24 54  1  0
 25 55  1  0
 25 56  1  0
 26 57  1  0
 27 58  1  0
 27 59  1  0
 28 60  1  0
 28 61  1  0
 30 62  1  0
 30 63  1  0
M  END
>  <UniqueID>  (33) 
562

>  <SMILES>  (33) 
c1ccc2c(c1)CCN(c1nc(CCN3CCCCC3)nc(N3CCNCC3)n1)C2

>  <Energy>  (33) 
74.13735776941701

>  <Genealogy>  (33) 
c1ccc2c(c1)CCN(c1nc(CCN3CCCCC3)nc(N3CCNCC3)n1)C2 (3D coordinates assigned)
c1ccc2c(c1)CCN(c1nc(CCN3CCCCC3)nc(N3CCNCC3)n1)C2 (nonaromatic ring conformer: 74.13735776941701 kcal/mol)

>  <smiles>  (33) 
c1ccc2c(c1)CCN(c1nc(CCN3CCCCC3)nc(N3CCNCC3)n1)C2

>  <score_type>  (33) 
oracle

>  <origin>  (33) 
autodockgpu

>  <m_score__min__energy>  (33) 
-9.8000000000000007

>  <m_primary>  (33) 
energy

>  <meeko>  (33) 
{"free_energy": -9.45, "intermolecular_energy": -10.94, "internal_energy": -0.92, "cluster_size": 17, "cluster_id": 1, "rank_in_cluster": 15}

>  <energy>  (33) 
-9.64

>  <cluster_rmsd>  (33) 
0.44

>  <rmsd>  (33) 
271.87

>  <cluster>  (33) 
1

$$$$
GZRQFJZYBWHXJG-UHFFFAOYNA-N
     RDKit          3D

 63 67  0  0  0  0  0  0  0  0999 V2000
  142.5210   80.8120  222.6150 C   0  0  0  0  0  0  0  0  0  0  0  0
  141.9950   80.3620  223.8290 C   0  0  0  0  0  0  0  0  0  0  0  0
  141.1480   79.2510  223.8550 C   0  0  0  0  0  0  0  0  0  0  0  0
  140.8230   78.5780  222.6650 C   0  0  0  0  0  0  0  0  0  0  0  0
  141.3330   79.0510  221.4280 C   0  0  0  0  0  0  0  0  0  0  0  0
  142.1980   80.1590  221.4210 C   0  0  0  0  0  0  0  0  0  0  0  0
  141.0440   78.3370  220.1240 C   0  0  0  0  0  0  0  0  0  0  0  0
  139.8200   77.4200  220.2270 C   0  0  0  0  0  0  0  0  0  0  0  0
  139.9120   76.6530  221.4710 N   0  0  0  0  0  0  0  0  0  0  0  0
  140.4770   75.3340  221.4460 C   0  0  0  0  0  0  0  0  0  0  0  0
  139.8460   74.3070  222.0730 N   0  0  0  0  0  0  0  0  0  0  0  0
  140.4010   73.0700  222.0840 C   0  0  0  0  0  0  0  0  0  0  0  0
  139.7700   71.9730  222.8810 C   0  0  0  0  0  0  0  0  0  0  0  0
  140.7530   71.3760  223.8980 C   0  0  0  0  0  0  0  0  0  0  0  0
  140.1610   71.3640  225.2600 N   0  0  0  0  0  0  0  0  0  0  0  0
  139.5580   70.0490  225.6170 C   0  0  0  0  0  0  0  0  0  0  0  0
  140.4550   69.2210  226.5440 C   0  0  0  0  0  0  0  0  0  0  0  0
  140.7190   69.9610  227.8660 C   0  0  0  0  0  0  0  0  0  0  0  0
  140.7110   71.4900  227.6970 C   0  0  0  0  0  0  0  0  0  0  0  0
  141.1130   71.8890  226.2710 C   0  0  0  0  0  0  0  0  0  0  0  0
  141.5930   72.8610  221.4690 N   0  0  0  0  0  0  0  0  0  0  0  0
  142.2320   73.8790  220.8330 C   0  0  0  0  0  0  0  0  0  0  0  0
  143.4950   73.6500  220.1750 N   0  0  0  0  0  0  0  0  0  0  0  0
  144.6880   73.3470  220.9810 C   0  0  0  0  0  0  0  0  0  0  0  0
  145.9650   73.7690  220.2380 C   0  0  0  0  0  0  0  0  0  0  0  0
  145.9810   73.2030  218.8840 N   0  0  0  0  0  0  0  0  0  0  0  0
  144.8460   73.7170  218.1100 C   0  0  0  0  0  0  0  0  0  0  0  0
  143.5220   73.2840  218.7500 C   0  0  0  0  0  0  0  0  0  0  0  0
  141.6700   75.1160  220.8360 N   0  0  0  0  0  0  0  0  0  0  0  0
  139.8580   77.4220  222.7170 C   0  0  0  0  0  0  0  0  0  0  0  0
  143.1919   81.6835  222.5984 H   0  0  0  0  0  0  0  0  0  0  0  0
  142.2478   80.8826  224.7644 H   0  0  0  0  0  0  0  0  0  0  0  0
  140.7334   78.9014  224.8120 H   0  0  0  0  0  0  0  0  0  0  0  0
  142.6234   80.5146  220.4709 H   0  0  0  0  0  0  0  0  0  0  0  0
  140.8595   79.0881  219.3418 H   0  0  0  0  0  0  0  0  0  0  0  0
  141.9156   77.7120  219.8799 H   0  0  0  0  0  0  0  0  0  0  0  0
  138.9024   78.0266  220.2330 H   0  0  0  0  0  0  0  0  0  0  0  0
  139.7904   76.7360  219.3660 H   0  0  0  0  0  0  0  0  0  0  0  0
  138.9008   72.3779  223.4200 H   0  0  0  0  0  0  0  0  0  0  0  0
  139.4656   71.1752  222.1875 H   0  0  0  0  0  0  0  0  0  0  0  0
  140.9966   70.3451  223.6016 H   0  0  0  0  0  0  0  0  0  0  0  0
  141.6622   71.9949  223.9144 H   0  0  0  0  0  0  0  0  0  0  0  0
  138.5978   70.2276  226.1232 H   0  0  0  0  0  0  0  0  0  0  0  0
  139.4259   69.4793  224.6853 H   0  0  0  0  0  0  0  0  0  0  0  0
  139.9599   68.2631  226.7613 H   0  0  0  0  0  0  0  0  0  0  0  0
  141.4180   69.0532  226.0395 H   0  0  0  0  0  0  0  0  0  0  0  0
  139.9380   69.6819  228.5886 H   0  0  0  0  0  0  0  0  0  0  0  0
  141.7192   69.6689  228.2186 H   0  0  0  0  0  0  0  0  0  0  0  0
  139.6996   71.8694  227.9048 H   0  0  0  0  0  0  0  0  0  0  0  0
  141.4378   71.9235  228.3997 H   0  0  0  0  0  0  0  0  0  0  0  0
  141.1357   72.9866  226.2019 H   0  0  0  0  0  0  0  0  0  0  0  0
  142.1034   71.4580  226.0628 H   0  0  0  0  0  0  0  0  0  0  0  0
  144.6279   73.8921  221.9346 H   0  0  0  0  0  0  0  0  0  0  0  0
  144.7262   72.2630  221.1637 H   0  0  0  0  0  0  0  0  0  0  0  0
  146.0000   74.8665  220.1723 H   0  0  0  0  0  0  0  0  0  0  0  0
  146.8392   73.3949  220.7910 H   0  0  0  0  0  0  0  0  0  0  0  0
  146.8640   73.5260  218.4160 H   0  0  0  0  0  0  0  0  0  0  0  0
  144.8934   74.8157  218.0835 H   0  0  0  0  0  0  0  0  0  0  0  0
  144.8979   73.3113  217.0889 H   0  0  0  0  0  0  0  0  0  0  0  0
  142.6894   73.7827  218.2322 H   0  0  0  0  0  0  0  0  0  0  0  0
  143.4240   72.1920  218.6610 H   0  0  0  0  0  0  0  0  0  0  0  0
  138.8380   77.8079  222.8604 H   0  0  0  0  0  0  0  0  0  0  0  0
  140.1353   76.7641  223.5538 H   0  0  0  0  0  0  0  0  0  0  0  0
  1  2  2  0
  2  3  1  0
  3  4  2  0
  4  5  1  0
  5  6  2  0
  5  7  1  0
  7  8  1  0
  8  9  1  0
  9 10  1  0
 10 11  2  0
 11 12  1  0
 12 13  1  0
 13 14  1  0
 14 15  1  0
 15 16  1  0
 16 17  1  0
 17 18  1  0
 18 19  1  0
 19 20  1  0
 12 21  2  0
 21 22  1  0
 22 23  1  0
 23 24  1  0
 24 25  1  0
 25 26  1  0
 26 27  1  0
 27 28  1  0
 22 29  2  0
  9 30  1  0
  6  1  1  0
 29 10  1  0
 30  4  1  0
 20 15  1  0
 28 23  1  0
  1 31  1  0
  2 32  1  0
  3 33  1  0
  6 34  1  0
  7 35  1  0
  7 36  1  0
  8 37  1  0
  8 38  1  0
 13 39  1  0
 13 40  1  0
 14 41  1  0
 14 42  1  0
 16 43  1  0
 16 44  1  0
 17 45  1  0
 17 46  1  0
 18 47  1  0
 18 48  1  0
 19 49  1  0
 19 50  1  0
 20 51  1  0
 20 52  1  0
 24 53  1  0
 24 54  1  0
 25 55  1  0
 25 56  1  0
 26 57  1  0
 27 58  1  0
 27 59  1  0
 28 60  1  0
 28 61  1  0
 30 62  1  0
 30 63  1  0
M  END
>  <UniqueID>  (34) 
562

>  <SMILES>  (34) 
c1ccc2c(c1)CCN(c1nc(CCN3CCCCC3)nc(N3CCNCC3)n1)C2

>  <Energy>  (34) 
74.13735776941701

>  <Genealogy>  (34) 
c1ccc2c(c1)CCN(c1nc(CCN3CCCCC3)nc(N3CCNCC3)n1)C2 (3D coordinates assigned)
c1ccc2c(c1)CCN(c1nc(CCN3CCCCC3)nc(N3CCNCC3)n1)C2 (nonaromatic ring conformer: 74.13735776941701 kcal/mol)

>  <smiles>  (34) 
c1ccc2c(c1)CCN(c1nc(CCN3CCCCC3)nc(N3CCNCC3)n1)C2

>  <score_type>  (34) 
oracle

>  <origin>  (34) 
autodockgpu

>  <m_score__min__energy>  (34) 
-9.8000000000000007

>  <m_primary>  (34) 
energy

>  <meeko>  (34) 
{"free_energy": -9.79, "intermolecular_energy": -11.28, "internal_energy": -0.9, "cluster_size": 17, "cluster_id": 1, "rank_in_cluster": 5}

>  <energy>  (34) 
-9.48

>  <cluster_rmsd>  (34) 
0.51

>  <rmsd>  (34) 
271.73

>  <cluster>  (34) 
1

$$$$
GZRQFJZYBWHXJG-UHFFFAOYNA-N
     RDKit          3D

 63 67  0  0  0  0  0  0  0  0999 V2000
  142.5220   80.5110  222.5100 C   0  0  0  0  0  0  0  0  0  0  0  0
  142.0700   80.0410  223.7460 C   0  0  0  0  0  0  0  0  0  0  0  0
  141.2790   78.8910  223.8090 C   0  0  0  0  0  0  0  0  0  0  0  0
  140.9380   78.1980  222.6350 C   0  0  0  0  0  0  0  0  0  0  0  0
  141.3730   78.6910  221.3770 C   0  0  0  0  0  0  0  0  0  0  0  0
  142.1820   79.8380  221.3320 C   0  0  0  0  0  0  0  0  0  0  0  0
  141.0650   77.9590  220.0870 C   0  0  0  0  0  0  0  0  0  0  0  0
  139.8920   76.9840  220.2420 C   0  0  0  0  0  0  0  0  0  0  0  0
  140.0730   76.2270  221.4830 N   0  0  0  0  0  0  0  0  0  0  0  0
  140.6990   74.9370  221.4370 C   0  0  0  0  0  0  0  0  0  0  0  0
  140.1100   73.8680  222.0350 N   0  0  0  0  0  0  0  0  0  0  0  0
  140.7230   72.6590  222.0270 C   0  0  0  0  0  0  0  0  0  0  0  0
  140.1360   71.5160  222.7930 C   0  0  0  0  0  0  0  0  0  0  0  0
  139.9860   71.8550  224.2840 C   0  0  0  0  0  0  0  0  0  0  0  0
  140.7530   70.8980  225.1220 N   0  0  0  0  0  0  0  0  0  0  0  0
  141.4320   71.5540  226.2750 C   0  0  0  0  0  0  0  0  0  0  0  0
  140.6870   71.3410  227.5980 C   0  0  0  0  0  0  0  0  0  0  0  0
  140.5790   69.8450  227.9380 C   0  0  0  0  0  0  0  0  0  0  0  0
  140.5240   68.9570  226.6840 C   0  0  0  0  0  0  0  0  0  0  0  0
  139.9280   69.7210  225.4940 C   0  0  0  0  0  0  0  0  0  0  0  0
  141.9290   72.5190  221.4200 N   0  0  0  0  0  0  0  0  0  0  0  0
  142.5260   73.5790  220.8130 C   0  0  0  0  0  0  0  0  0  0  0  0
  143.8050   73.4230  220.1640 N   0  0  0  0  0  0  0  0  0  0  0  0
  145.0160   73.2480  220.9810 C   0  0  0  0  0  0  0  0  0  0  0  0
  146.2580   73.7380  220.2220 C   0  0  0  0  0  0  0  0  0  0  0  0
  146.3220   73.1200  218.8910 N   0  0  0  0  0  0  0  0  0  0  0  0
  145.1520   73.5120  218.0980 C   0  0  0  0  0  0  0  0  0  0  0  0
  143.8650   73.0030  218.7560 C   0  0  0  0  0  0  0  0  0  0  0  0
  141.9060   74.7880  220.8360 N   0  0  0  0  0  0  0  0  0  0  0  0
  140.0330   76.9970  222.7280 C   0  0  0  0  0  0  0  0  0  0  0  0
  143.1480   81.4143  222.4633 H   0  0  0  0  0  0  0  0  0  0  0  0
  142.3369   80.5763  224.6691 H   0  0  0  0  0  0  0  0  0  0  0  0
  140.9212   78.5260  224.7830 H   0  0  0  0  0  0  0  0  0  0  0  0
  142.5505   80.2094  220.3644 H   0  0  0  0  0  0  0  0  0  0  0  0
  140.8121   78.6975  219.3120 H   0  0  0  0  0  0  0  0  0  0  0  0
  141.9550   77.3759  219.8081 H   0  0  0  0  0  0  0  0  0  0  0  0
  138.9470   77.5453  220.2850 H   0  0  0  0  0  0  0  0  0  0  0  0
  139.8597   76.2962  219.3841 H   0  0  0  0  0  0  0  0  0  0  0  0
  139.1448   71.2797  222.3787 H   0  0  0  0  0  0  0  0  0  0  0  0
  140.8142   70.6548  222.7015 H   0  0  0  0  0  0  0  0  0  0  0  0
  140.3629   72.8729  224.4621 H   0  0  0  0  0  0  0  0  0  0  0  0
  138.9222   71.7878  224.5557 H   0  0  0  0  0  0  0  0  0  0  0  0
  142.4455   71.1371  226.3705 H   0  0  0  0  0  0  0  0  0  0  0  0
  141.4548   72.6357  226.0763 H   0  0  0  0  0  0  0  0  0  0  0  0
  141.2321   71.8541  228.4039 H   0  0  0  0  0  0  0  0  0  0  0  0
  139.6711   71.7505  227.4967 H   0  0  0  0  0  0  0  0  0  0  0  0
  141.4552   69.5555  228.5368 H   0  0  0  0  0  0  0  0  0  0  0  0
  139.6413   69.6961  228.4935 H   0  0  0  0  0  0  0  0  0  0  0  0
  141.5434   68.6320  226.4285 H   0  0  0  0  0  0  0  0  0  0  0  0
  139.8844   68.0880  226.8980 H   0  0  0  0  0  0  0  0  0  0  0  0
  139.8669   69.0424  224.6304 H   0  0  0  0  0  0  0  0  0  0  0  0
  138.9309   70.0824  225.7860 H   0  0  0  0  0  0  0  0  0  0  0  0
  144.9104   73.8251  221.9115 H   0  0  0  0  0  0  0  0  0  0  0  0
  145.1387   72.1785  221.2072 H   0  0  0  0  0  0  0  0  0  0  0  0
  146.2075   74.8313  220.1119 H   0  0  0  0  0  0  0  0  0  0  0  0
  147.1571   73.4563  220.7897 H   0  0  0  0  0  0  0  0  0  0  0  0
  147.1780   73.4920  218.4110 H   0  0  0  0  0  0  0  0  0  0  0  0
  145.1133   74.6090  218.0272 H   0  0  0  0  0  0  0  0  0  0  0  0
  145.2377   73.0709  217.0940 H   0  0  0  0  0  0  0  0  0  0  0  0
  142.9972   73.4131  218.2187 H   0  0  0  0  0  0  0  0  0  0  0  0
  143.8538   71.9039  218.7120 H   0  0  0  0  0  0  0  0  0  0  0  0
  139.0022   77.3339  222.9123 H   0  0  0  0  0  0  0  0  0  0  0  0
  140.3759   76.3563  223.5537 H   0  0  0  0  0  0  0  0  0  0  0  0
  1  2  2  0
  2  3  1  0
  3  4  2  0
  4  5  1  0
  5  6  2  0
  5  7  1  0
  7  8  1  0
  8  9  1  0
  9 10  1  0
 10 11  2  0
 11 12  1  0
 12 13  1  0
 13 14  1  0
 14 15  1  0
 15 16  1  0
 16 17  1  0
 17 18  1  0
 18 19  1  0
 19 20  1  0
 12 21  2  0
 21 22  1  0
 22 23  1  0
 23 24  1  0
 24 25  1  0
 25 26  1  0
 26 27  1  0
 27 28  1  0
 22 29  2  0
  9 30  1  0
  6  1  1  0
 29 10  1  0
 30  4  1  0
 20 15  1  0
 28 23  1  0
  1 31  1  0
  2 32  1  0
  3 33  1  0
  6 34  1  0
  7 35  1  0
  7 36  1  0
  8 37  1  0
  8 38  1  0
 13 39  1  0
 13 40  1  0
 14 41  1  0
 14 42  1  0
 16 43  1  0
 16 44  1  0
 17 45  1  0
 17 46  1  0
 18 47  1  0
 18 48  1  0
 19 49  1  0
 19 50  1  0
 20 51  1  0
 20 52  1  0
 24 53  1  0
 24 54  1  0
 25 55  1  0
 25 56  1  0
 26 57  1  0
 27 58  1  0
 27 59  1  0
 28 60  1  0
 28 61  1  0
 30 62  1  0
 30 63  1  0
M  END
>  <UniqueID>  (35) 
562

>  <SMILES>  (35) 
c1ccc2c(c1)CCN(c1nc(CCN3CCCCC3)nc(N3CCNCC3)n1)C2

>  <Energy>  (35) 
74.13735776941701

>  <Genealogy>  (35) 
c1ccc2c(c1)CCN(c1nc(CCN3CCCCC3)nc(N3CCNCC3)n1)C2 (3D coordinates assigned)
c1ccc2c(c1)CCN(c1nc(CCN3CCCCC3)nc(N3CCNCC3)n1)C2 (nonaromatic ring conformer: 74.13735776941701 kcal/mol)

>  <smiles>  (35) 
c1ccc2c(c1)CCN(c1nc(CCN3CCCCC3)nc(N3CCNCC3)n1)C2

>  <score_type>  (35) 
oracle

>  <origin>  (35) 
autodockgpu

>  <m_score__min__energy>  (35) 
-9.8000000000000007

>  <m_primary>  (35) 
energy

>  <meeko>  (35) 
{"free_energy": -9.64, "intermolecular_energy": -11.13, "internal_energy": -0.91, "cluster_size": 17, "cluster_id": 1, "rank_in_cluster": 13}

>  <energy>  (35) 
-9.45

>  <cluster_rmsd>  (35) 
0.65

>  <rmsd>  (35) 
271.75

>  <cluster>  (35) 
1

$$$$
GZRQFJZYBWHXJG-UHFFFAOYNA-N
     RDKit          3D

 63 67  0  0  0  0  0  0  0  0999 V2000
  142.2010   80.3320  222.0230 C   0  0  0  0  0  0  0  0  0  0  0  0
  141.9380   79.9030  223.3260 C   0  0  0  0  0  0  0  0  0  0  0  0
  141.2330   78.7160  223.5430 C   0  0  0  0  0  0  0  0  0  0  0  0
  140.7890   77.9450  222.4550 C   0  0  0  0  0  0  0  0  0  0  0  0
  141.0300   78.3940  221.1300 C   0  0  0  0  0  0  0  0  0  0  0  0
  141.7560   79.5810  220.9300 C   0  0  0  0  0  0  0  0  0  0  0  0
  140.6080   77.5800  219.9250 C   0  0  0  0  0  0  0  0  0  0  0  0
  139.5250   76.5520  220.2740 C   0  0  0  0  0  0  0  0  0  0  0  0
  139.9070   75.8720  221.5140 N   0  0  0  0  0  0  0  0  0  0  0  0
  140.5990   74.6170  221.4460 C   0  0  0  0  0  0  0  0  0  0  0  0
  140.0660   73.5080  222.0210 N   0  0  0  0  0  0  0  0  0  0  0  0
  140.7410   72.3330  221.9920 C   0  0  0  0  0  0  0  0  0  0  0  0
  140.2120   71.1470  222.7350 C   0  0  0  0  0  0  0  0  0  0  0  0
  139.0100   71.5210  223.6120 C   0  0  0  0  0  0  0  0  0  0  0  0
  139.2630   71.1690  225.0330 N   0  0  0  0  0  0  0  0  0  0  0  0
  138.8120   69.7900  225.3760 C   0  0  0  0  0  0  0  0  0  0  0  0
  139.9700   68.7890  225.4430 C   0  0  0  0  0  0  0  0  0  0  0  0
  140.9960   69.2000  226.5120 C   0  0  0  0  0  0  0  0  0  0  0  0
  141.0690   70.7240  226.7060 C   0  0  0  0  0  0  0  0  0  0  0  0
  140.6650   71.4620  225.4230 C   0  0  0  0  0  0  0  0  0  0  0  0
  141.9550   72.2680  221.3880 N   0  0  0  0  0  0  0  0  0  0  0  0
  142.4970   73.3690  220.8030 C   0  0  0  0  0  0  0  0  0  0  0  0
  143.7850   73.2920  220.1560 N   0  0  0  0  0  0  0  0  0  0  0  0
  145.0020   73.1770  220.9750 C   0  0  0  0  0  0  0  0  0  0  0  0
  146.2160   73.7450  220.2240 C   0  0  0  0  0  0  0  0  0  0  0  0
  146.3170   73.1460  218.8870 N   0  0  0  0  0  0  0  0  0  0  0  0
  145.1290   73.4800  218.0940 C   0  0  0  0  0  0  0  0  0  0  0  0
  143.8710   72.8920  218.7430 C   0  0  0  0  0  0  0  0  0  0  0  0
  141.8150   74.5440  220.8460 N   0  0  0  0  0  0  0  0  0  0  0  0
  139.9780   76.7030  222.7180 C   0  0  0  0  0  0  0  0  0  0  0  0
  142.7604   81.2643  221.8557 H   0  0  0  0  0  0  0  0  0  0  0  0
  142.2860   80.4999  224.1819 H   0  0  0  0  0  0  0  0  0  0  0  0
  141.0245   78.3834  224.5706 H   0  0  0  0  0  0  0  0  0  0  0  0
  141.9756   79.9215  219.9073 H   0  0  0  0  0  0  0  0  0  0  0  0
  140.2154   78.2618  219.1562 H   0  0  0  0  0  0  0  0  0  0  0  0
  141.4897   77.0327  219.5603 H   0  0  0  0  0  0  0  0  0  0  0  0
  138.5608   77.0627  220.4135 H   0  0  0  0  0  0  0  0  0  0  0  0
  139.4262   75.8195  219.4593 H   0  0  0  0  0  0  0  0  0  0  0  0
  139.9002   70.3811  222.0096 H   0  0  0  0  0  0  0  0  0  0  0  0
  141.0103   70.7663  223.3891 H   0  0  0  0  0  0  0  0  0  0  0  0
  138.8307   72.6036  223.5352 H   0  0  0  0  0  0  0  0  0  0  0  0
  138.1304   70.9610  223.2616 H   0  0  0  0  0  0  0  0  0  0  0  0
  138.3126   69.8165  226.3557 H   0  0  0  0  0  0  0  0  0  0  0  0
  138.1295   69.4560  224.5806 H   0  0  0  0  0  0  0  0  0  0  0  0
  139.5712   67.7944  225.6914 H   0  0  0  0  0  0  0  0  0  0  0  0
  140.4729   68.7707  224.4649 H   0  0  0  0  0  0  0  0  0  0  0  0
  140.7133   68.7361  227.4685 H   0  0  0  0  0  0  0  0  0  0  0  0
  141.9854   68.8593  226.1729 H   0  0  0  0  0  0  0  0  0  0  0  0
  140.3877   71.0161  227.5187 H   0  0  0  0  0  0  0  0  0  0  0  0
  142.1053   70.9961  226.9551 H   0  0  0  0  0  0  0  0  0  0  0  0
  140.7693   72.5446  225.5878 H   0  0  0  0  0  0  0  0  0  0  0  0
  141.3231   71.1188  224.6111 H   0  0  0  0  0  0  0  0  0  0  0  0
  144.8618   73.7372  221.9112 H   0  0  0  0  0  0  0  0  0  0  0  0
  145.1846   72.1139  221.1908 H   0  0  0  0  0  0  0  0  0  0  0  0
  146.1038   74.8348  220.1254 H   0  0  0  0  0  0  0  0  0  0  0  0
  147.1287   73.5087  220.7907 H   0  0  0  0  0  0  0  0  0  0  0  0
  147.1520   73.5710  218.4130 H   0  0  0  0  0  0  0  0  0  0  0  0
  145.0287   74.5738  218.0344 H   0  0  0  0  0  0  0  0  0  0  0  0
  145.2421   73.0554  217.0855 H   0  0  0  0  0  0  0  0  0  0  0  0
  142.9826   73.2590  218.2082 H   0  0  0  0  0  0  0  0  0  0  0  0
  143.9214   71.7946  218.6864 H   0  0  0  0  0  0  0  0  0  0  0  0
  138.9602   76.9923  223.0187 H   0  0  0  0  0  0  0  0  0  0  0  0
  140.4610   76.1261  223.5204 H   0  0  0  0  0  0  0  0  0  0  0  0
  1  2  2  0
  2  3  1  0
  3  4  2  0
  4  5  1  0
  5  6  2  0
  5  7  1  0
  7  8  1  0
  8  9  1  0
  9 10  1  0
 10 11  2  0
 11 12  1  0
 12 13  1  0
 13 14  1  0
 14 15  1  0
 15 16  1  0
 16 17  1  0
 17 18  1  0
 18 19  1  0
 19 20  1  0
 12 21  2  0
 21 22  1  0
 22 23  1  0
 23 24  1  0
 24 25  1  0
 25 26  1  0
 26 27  1  0
 27 28  1  0
 22 29  2  0
  9 30  1  0
  6  1  1  0
 29 10  1  0
 30  4  1  0
 20 15  1  0
 28 23  1  0
  1 31  1  0
  2 32  1  0
  3 33  1  0
  6 34  1  0
  7 35  1  0
  7 36  1  0
  8 37  1  0
  8 38  1  0
 13 39  1  0
 13 40  1  0
 14 41  1  0
 14 42  1  0
 16 43  1  0
 16 44  1  0
 17 45  1  0
 17 46  1  0
 18 47  1  0
 18 48  1  0
 19 49  1  0
 19 50  1  0
 20 51  1  0
 20 52  1  0
 24 53  1  0
 24 54  1  0
 25 55  1  0
 25 56  1  0
 26 57  1  0
 27 58  1  0
 27 59  1  0
 28 60  1  0
 28 61  1  0
 30 62  1  0
 30 63  1  0
M  END
>  <UniqueID>  (36) 
562

>  <SMILES>  (36) 
c1ccc2c(c1)CCN(c1nc(CCN3CCCCC3)nc(N3CCNCC3)n1)C2

>  <Energy>  (36) 
74.13735776941701

>  <Genealogy>  (36) 
c1ccc2c(c1)CCN(c1nc(CCN3CCCCC3)nc(N3CCNCC3)n1)C2 (3D coordinates assigned)
c1ccc2c(c1)CCN(c1nc(CCN3CCCCC3)nc(N3CCNCC3)n1)C2 (nonaromatic ring conformer: 74.13735776941701 kcal/mol)

>  <smiles>  (36) 
c1ccc2c(c1)CCN(c1nc(CCN3CCCCC3)nc(N3CCNCC3)n1)C2

>  <score_type>  (36) 
oracle

>  <origin>  (36) 
autodockgpu

>  <m_score__min__energy>  (36) 
-9.8000000000000007

>  <m_primary>  (36) 
energy

>  <meeko>  (36) 
{"free_energy": -8.66, "intermolecular_energy": -10.15, "internal_energy": -1.04, "cluster_size": 17, "cluster_id": 1, "rank_in_cluster": 17}

>  <energy>  (36) 
-9.43

>  <cluster_rmsd>  (36) 
0.65

>  <rmsd>  (36) 
271.73

>  <cluster>  (36) 
1

$$$$
GZRQFJZYBWHXJG-UHFFFAOYNA-N
     RDKit          3D

 63 67  0  0  0  0  0  0  0  0999 V2000
  142.4590   80.6330  222.6600 C   0  0  0  0  0  0  0  0  0  0  0  0
  141.8410   80.2440  223.8510 C   0  0  0  0  0  0  0  0  0  0  0  0
  140.9680   79.1530  223.8620 C   0  0  0  0  0  0  0  0  0  0  0  0
  140.7090   78.4390  222.6800 C   0  0  0  0  0  0  0  0  0  0  0  0
  141.3120   78.8510  221.4630 C   0  0  0  0  0  0  0  0  0  0  0  0
  142.2020   79.9380  221.4730 C   0  0  0  0  0  0  0  0  0  0  0  0
  141.0960   78.0910  220.1710 C   0  0  0  0  0  0  0  0  0  0  0  0
  139.8450   77.2050  220.2260 C   0  0  0  0  0  0  0  0  0  0  0  0
  139.8350   76.4870  221.5020 N   0  0  0  0  0  0  0  0  0  0  0  0
  140.3680   75.1560  221.5680 C   0  0  0  0  0  0  0  0  0  0  0  0
  139.6800   74.1740  222.2060 N   0  0  0  0  0  0  0  0  0  0  0  0
  140.2050   72.9270  222.3030 C   0  0  0  0  0  0  0  0  0  0  0  0
  139.5060   71.8820  223.1140 C   0  0  0  0  0  0  0  0  0  0  0  0
  140.4850   71.1250  224.0230 C   0  0  0  0  0  0  0  0  0  0  0  0
  140.0280   71.1600  225.4360 N   0  0  0  0  0  0  0  0  0  0  0  0
  139.5330   69.8390  225.9170 C   0  0  0  0  0  0  0  0  0  0  0  0
  140.5580   69.1070  226.7910 C   0  0  0  0  0  0  0  0  0  0  0  0
  140.9100   69.9310  228.0400 C   0  0  0  0  0  0  0  0  0  0  0  0
  140.8050   71.4460  227.7970 C   0  0  0  0  0  0  0  0  0  0  0  0
  141.0450   71.7840  226.3190 C   0  0  0  0  0  0  0  0  0  0  0  0
  141.4210   72.6640  221.7630 N   0  0  0  0  0  0  0  0  0  0  0  0
  142.1170   73.6370  221.1170 C   0  0  0  0  0  0  0  0  0  0  0  0
  143.4080   73.3490  220.5390 N   0  0  0  0  0  0  0  0  0  0  0  0
  143.5600   72.1890  219.6470 C   0  0  0  0  0  0  0  0  0  0  0  0
  145.0090   71.6780  219.6650 C   0  0  0  0  0  0  0  0  0  0  0  0
  145.9440   72.7790  219.4040 N   0  0  0  0  0  0  0  0  0  0  0  0
  145.8340   73.7940  220.4590 C   0  0  0  0  0  0  0  0  0  0  0  0
  144.4290   74.4060  220.4670 C   0  0  0  0  0  0  0  0  0  0  0  0
  141.5860   74.8850  221.0330 N   0  0  0  0  0  0  0  0  0  0  0  0
  139.7150   77.3070  222.7100 C   0  0  0  0  0  0  0  0  0  0  0  0
  143.1501   81.4887  222.6553 H   0  0  0  0  0  0  0  0  0  0  0  0
  142.0417   80.7968  224.7806 H   0  0  0  0  0  0  0  0  0  0  0  0
  140.4809   78.8515  224.8011 H   0  0  0  0  0  0  0  0  0  0  0  0
  142.7001   80.2448  220.5415 H   0  0  0  0  0  0  0  0  0  0  0  0
  140.9834   78.8133  219.3490 H   0  0  0  0  0  0  0  0  0  0  0  0
  141.9670   77.4384  220.0118 H   0  0  0  0  0  0  0  0  0  0  0  0
  138.9440   77.8310  220.1463 H   0  0  0  0  0  0  0  0  0  0  0  0
  139.8563   76.4878  219.3920 H   0  0  0  0  0  0  0  0  0  0  0  0
  138.7410   72.3668  223.7383 H   0  0  0  0  0  0  0  0  0  0  0  0
  139.0480   71.1589  222.4231 H   0  0  0  0  0  0  0  0  0  0  0  0
  140.5497   70.0784  223.6908 H   0  0  0  0  0  0  0  0  0  0  0  0
  141.4709   71.6087  223.9594 H   0  0  0  0  0  0  0  0  0  0  0  0
  138.6181   69.9991  226.5064 H   0  0  0  0  0  0  0  0  0  0  0  0
  139.3422   69.2131  225.0328 H   0  0  0  0  0  0  0  0  0  0  0  0
  140.1370   68.1405  227.1052 H   0  0  0  0  0  0  0  0  0  0  0  0
  141.4749   68.9566  226.2022 H   0  0  0  0  0  0  0  0  0  0  0  0
  140.2191   69.6553  228.8504 H   0  0  0  0  0  0  0  0  0  0  0  0
  141.9542   69.7071  228.3039 H   0  0  0  0  0  0  0  0  0  0  0  0
  139.8001   71.7878  228.0856 H   0  0  0  0  0  0  0  0  0  0  0  0
  141.5724   71.9519  228.4013 H   0  0  0  0  0  0  0  0  0  0  0  0
  141.0036   72.8759  226.1927 H   0  0  0  0  0  0  0  0  0  0  0  0
  142.0315   71.3889  226.0349 H   0  0  0  0  0  0  0  0  0  0  0  0
  142.8890   71.3846  219.9827 H   0  0  0  0  0  0  0  0  0  0  0  0
  143.3049   72.4948  218.6216 H   0  0  0  0  0  0  0  0  0  0  0  0
  145.2276   71.2432  220.6515 H   0  0  0  0  0  0  0  0  0  0  0  0
  145.1280   70.9159  218.8808 H   0  0  0  0  0  0  0  0  0  0  0  0
  146.9160   72.3830  219.4370 H   0  0  0  0  0  0  0  0  0  0  0  0
  146.0309   73.3256  221.4346 H   0  0  0  0  0  0  0  0  0  0  0  0
  146.5688   74.5897  220.2667 H   0  0  0  0  0  0  0  0  0  0  0  0
  144.3272   75.0679  221.3396 H   0  0  0  0  0  0  0  0  0  0  0  0
  144.2844   74.9782  219.5387 H   0  0  0  0  0  0  0  0  0  0  0  0
  138.6972   77.7203  222.7674 H   0  0  0  0  0  0  0  0  0  0  0  0
  139.9187   76.6777  223.5889 H   0  0  0  0  0  0  0  0  0  0  0  0
  1  2  2  0
  2  3  1  0
  3  4  2  0
  4  5  1  0
  5  6  2  0
  5  7  1  0
  7  8  1  0
  8  9  1  0
  9 10  1  0
 10 11  2  0
 11 12  1  0
 12 13  1  0
 13 14  1  0
 14 15  1  0
 15 16  1  0
 16 17  1  0
 17 18  1  0
 18 19  1  0
 19 20  1  0
 12 21  2  0
 21 22  1  0
 22 23  1  0
 23 24  1  0
 24 25  1  0
 25 26  1  0
 26 27  1  0
 27 28  1  0
 22 29  2  0
  9 30  1  0
  6  1  1  0
 29 10  1  0
 30  4  1  0
 20 15  1  0
 28 23  1  0
  1 31  1  0
  2 32  1  0
  3 33  1  0
  6 34  1  0
  7 35  1  0
  7 36  1  0
  8 37  1  0
  8 38  1  0
 13 39  1  0
 13 40  1  0
 14 41  1  0
 14 42  1  0
 16 43  1  0
 16 44  1  0
 17 45  1  0
 17 46  1  0
 18 47  1  0
 18 48  1  0
 19 49  1  0
 19 50  1  0
 20 51  1  0
 20 52  1  0
 24 53  1  0
 24 54  1  0
 25 55  1  0
 25 56  1  0
 26 57  1  0
 27 58  1  0
 27 59  1  0
 28 60  1  0
 28 61  1  0
 30 62  1  0
 30 63  1  0
M  END
>  <UniqueID>  (37) 
562

>  <SMILES>  (37) 
c1ccc2c(c1)CCN(c1nc(CCN3CCCCC3)nc(N3CCNCC3)n1)C2

>  <Energy>  (37) 
74.13735776941701

>  <Genealogy>  (37) 
c1ccc2c(c1)CCN(c1nc(CCN3CCCCC3)nc(N3CCNCC3)n1)C2 (3D coordinates assigned)
c1ccc2c(c1)CCN(c1nc(CCN3CCCCC3)nc(N3CCNCC3)n1)C2 (nonaromatic ring conformer: 74.13735776941701 kcal/mol)

>  <smiles>  (37) 
c1ccc2c(c1)CCN(c1nc(CCN3CCCCC3)nc(N3CCNCC3)n1)C2

>  <score_type>  (37) 
oracle

>  <origin>  (37) 
autodockgpu

>  <m_score__min__energy>  (37) 
-9.8000000000000007

>  <m_primary>  (37) 
energy

>  <meeko>  (37) 
{"free_energy": -9.68, "intermolecular_energy": -11.17, "internal_energy": -0.93, "cluster_size": 17, "cluster_id": 1, "rank_in_cluster": 10}

>  <energy>  (37) 
-8.66

>  <cluster_rmsd>  (37) 
0.76

>  <rmsd>  (37) 
271.5

>  <cluster>  (37) 
1

$$$$
GZRQFJZYBWHXJG-UHFFFAOYNA-N
     RDKit          3D

 63 67  0  0  0  0  0  0  0  0999 V2000
  142.4770   80.7950  222.6330 C   0  0  0  0  0  0  0  0  0  0  0  0
  141.9430   80.3460  223.8440 C   0  0  0  0  0  0  0  0  0  0  0  0
  141.1040   79.2290  223.8660 C   0  0  0  0  0  0  0  0  0  0  0  0
  140.7970   78.5470  222.6760 C   0  0  0  0  0  0  0  0  0  0  0  0
  141.3160   79.0190  221.4420 C   0  0  0  0  0  0  0  0  0  0  0  0
  142.1710   80.1330  221.4390 C   0  0  0  0  0  0  0  0  0  0  0  0
  141.0460   78.2970  220.1380 C   0  0  0  0  0  0  0  0  0  0  0  0
  139.8280   77.3700  220.2330 C   0  0  0  0  0  0  0  0  0  0  0  0
  139.9140   76.6100  221.4820 N   0  0  0  0  0  0  0  0  0  0  0  0
  140.4890   75.2950  221.4690 C   0  0  0  0  0  0  0  0  0  0  0  0
  139.8790   74.2740  222.1260 N   0  0  0  0  0  0  0  0  0  0  0  0
  140.4450   73.0420  222.1470 C   0  0  0  0  0  0  0  0  0  0  0  0
  139.8390   71.9540  222.9750 C   0  0  0  0  0  0  0  0  0  0  0  0
  140.8230   71.4340  224.0330 C   0  0  0  0  0  0  0  0  0  0  0  0
  140.1800   71.3840  225.3710 N   0  0  0  0  0  0  0  0  0  0  0  0
  139.5780   70.0540  225.6740 C   0  0  0  0  0  0  0  0  0  0  0  0
  140.4490   69.2120  226.6130 C   0  0  0  0  0  0  0  0  0  0  0  0
  140.6570   69.9220  227.9610 C   0  0  0  0  0  0  0  0  0  0  0  0
  140.6390   71.4550  227.8300 C   0  0  0  0  0  0  0  0  0  0  0  0
  141.0890   71.8920  226.4290 C   0  0  0  0  0  0  0  0  0  0  0  0
  141.6270   72.8330  221.5130 N   0  0  0  0  0  0  0  0  0  0  0  0
  142.2440   73.8450  220.8480 C   0  0  0  0  0  0  0  0  0  0  0  0
  143.4970   73.6140  220.1690 N   0  0  0  0  0  0  0  0  0  0  0  0
  144.6980   73.2900  220.9550 C   0  0  0  0  0  0  0  0  0  0  0  0
  145.9690   73.7110  220.2020 C   0  0  0  0  0  0  0  0  0  0  0  0
  145.9620   73.1650  218.8390 N   0  0  0  0  0  0  0  0  0  0  0  0
  144.8210   73.7010  218.0880 C   0  0  0  0  0  0  0  0  0  0  0  0
  143.5020   73.2700  218.7390 C   0  0  0  0  0  0  0  0  0  0  0  0
  141.6720   75.0770  220.8400 N   0  0  0  0  0  0  0  0  0  0  0  0
  139.8410   77.3840  222.7230 C   0  0  0  0  0  0  0  0  0  0  0  0
  143.1405   81.6723  222.6185 H   0  0  0  0  0  0  0  0  0  0  0  0
  142.1832   80.8720  224.7797 H   0  0  0  0  0  0  0  0  0  0  0  0
  140.6813   78.8813  224.8202 H   0  0  0  0  0  0  0  0  0  0  0  0
  142.6031   80.4875  220.4916 H   0  0  0  0  0  0  0  0  0  0  0  0
  140.8632   79.0432  219.3507 H   0  0  0  0  0  0  0  0  0  0  0  0
  141.9252   77.6782  219.9052 H   0  0  0  0  0  0  0  0  0  0  0  0
  138.9054   77.9689  220.2267 H   0  0  0  0  0  0  0  0  0  0  0  0
  139.8125   76.6816  219.3752 H   0  0  0  0  0  0  0  0  0  0  0  0
  138.9450   72.3467  223.4814 H   0  0  0  0  0  0  0  0  0  0  0  0
  139.5779   71.1191  222.3082 H   0  0  0  0  0  0  0  0  0  0  0  0
  141.1525   70.4225  223.7531 H   0  0  0  0  0  0  0  0  0  0  0  0
  141.6838   72.1173  224.0805 H   0  0  0  0  0  0  0  0  0  0  0  0
  138.5982   70.2109  226.1487 H   0  0  0  0  0  0  0  0  0  0  0  0
  139.4863   69.5061  224.7246 H   0  0  0  0  0  0  0  0  0  0  0  0
  139.9561   68.2445  226.7889 H   0  0  0  0  0  0  0  0  0  0  0  0
  141.4314   69.0654  226.1403 H   0  0  0  0  0  0  0  0  0  0  0  0
  139.8533   69.6174  228.6475 H   0  0  0  0  0  0  0  0  0  0  0  0
  141.6471   69.6313  228.3420 H   0  0  0  0  0  0  0  0  0  0  0  0
  139.6168   71.8195  228.0097 H   0  0  0  0  0  0  0  0  0  0  0  0
  141.3344   71.8784  228.5697 H   0  0  0  0  0  0  0  0  0  0  0  0
  141.1039   72.9911  226.3872 H   0  0  0  0  0  0  0  0  0  0  0  0
  142.0902   71.4741  226.2472 H   0  0  0  0  0  0  0  0  0  0  0  0
  144.6548   73.8224  221.9166 H   0  0  0  0  0  0  0  0  0  0  0  0
  144.7292   72.2032  221.1218 H   0  0  0  0  0  0  0  0  0  0  0  0
  146.0137   74.8090  220.1522 H   0  0  0  0  0  0  0  0  0  0  0  0
  146.8466   73.3205  220.7379 H   0  0  0  0  0  0  0  0  0  0  0  0
  146.8410   73.4870  218.3650 H   0  0  0  0  0  0  0  0  0  0  0  0
  144.8779   74.7995  218.0776 H   0  0  0  0  0  0  0  0  0  0  0  0
  144.8556   73.3106  217.0602 H   0  0  0  0  0  0  0  0  0  0  0  0
  142.6671   73.7839  218.2401 H   0  0  0  0  0  0  0  0  0  0  0  0
  143.3931   72.1804  218.6347 H   0  0  0  0  0  0  0  0  0  0  0  0
  138.8165   77.7625  222.8539 H   0  0  0  0  0  0  0  0  0  0  0  0
  140.1148   76.7321  223.5657 H   0  0  0  0  0  0  0  0  0  0  0  0
  1  2  2  0
  2  3  1  0
  3  4  2  0
  4  5  1  0
  5  6  2  0
  5  7  1  0
  7  8  1  0
  8  9  1  0
  9 10  1  0
 10 11  2  0
 11 12  1  0
 12 13  1  0
 13 14  1  0
 14 15  1  0
 15 16  1  0
 16 17  1  0
 17 18  1  0
 18 19  1  0
 19 20  1  0
 12 21  2  0
 21 22  1  0
 22 23  1  0
 23 24  1  0
 24 25  1  0
 25 26  1  0
 26 27  1  0
 27 28  1  0
 22 29  2  0
  9 30  1  0
  6  1  1  0
 29 10  1  0
 30  4  1  0
 20 15  1  0
 28 23  1  0
  1 31  1  0
  2 32  1  0
  3 33  1  0
  6 34  1  0
  7 35  1  0
  7 36  1  0
  8 37  1  0
  8 38  1  0
 13 39  1  0
 13 40  1  0
 14 41  1  0
 14 42  1  0
 16 43  1  0
 16 44  1  0
 17 45  1  0
 17 46  1  0
 18 47  1  0
 18 48  1  0
 19 49  1  0
 19 50  1  0
 20 51  1  0
 20 52  1  0
 24 53  1  0
 24 54  1  0
 25 55  1  0
 25 56  1  0
 26 57  1  0
 27 58  1  0
 27 59  1  0
 28 60  1  0
 28 61  1  0
 30 62  1  0
 30 63  1  0
M  END
>  <UniqueID>  (38) 
562

>  <SMILES>  (38) 
c1ccc2c(c1)CCN(c1nc(CCN3CCCCC3)nc(N3CCNCC3)n1)C2

>  <Energy>  (38) 
74.13735776941701

>  <Genealogy>  (38) 
c1ccc2c(c1)CCN(c1nc(CCN3CCCCC3)nc(N3CCNCC3)n1)C2 (3D coordinates assigned)
c1ccc2c(c1)CCN(c1nc(CCN3CCCCC3)nc(N3CCNCC3)n1)C2 (nonaromatic ring conformer: 74.13735776941701 kcal/mol)

>  <smiles>  (38) 
c1ccc2c(c1)CCN(c1nc(CCN3CCCCC3)nc(N3CCNCC3)n1)C2

>  <score_type>  (38) 
oracle

>  <origin>  (38) 
autodockgpu

>  <m_score__min__energy>  (38) 
-9.8000000000000007

>  <m_primary>  (38) 
energy

>  <meeko>  (38) 
{"free_energy": -9.8, "intermolecular_energy": -11.29, "internal_energy": -0.89, "cluster_size": 17, "cluster_id": 1, "rank_in_cluster": 1}

>  <energy>  (38) 
-7.58

>  <cluster_rmsd>  (38) 
0.0

>  <rmsd>  (38) 
270.99

>  <cluster>  (38) 
2

$$$$
GZRQFJZYBWHXJG-UHFFFAOYNA-N
     RDKit          3D

 63 67  0  0  0  0  0  0  0  0999 V2000
  142.4660   80.7090  222.6400 C   0  0  0  0  0  0  0  0  0  0  0  0
  141.9460   80.2380  223.8490 C   0  0  0  0  0  0  0  0  0  0  0  0
  141.1250   79.1080  223.8640 C   0  0  0  0  0  0  0  0  0  0  0  0
  140.8210   78.4350  222.6690 C   0  0  0  0  0  0  0  0  0  0  0  0
  141.3250   78.9280  221.4370 C   0  0  0  0  0  0  0  0  0  0  0  0
  142.1630   80.0550  221.4410 C   0  0  0  0  0  0  0  0  0  0  0  0
  141.0580   78.2150  220.1270 C   0  0  0  0  0  0  0  0  0  0  0  0
  139.8550   77.2690  220.2190 C   0  0  0  0  0  0  0  0  0  0  0  0
  139.9610   76.4960  221.4590 N   0  0  0  0  0  0  0  0  0  0  0  0
  140.5560   75.1910  221.4290 C   0  0  0  0  0  0  0  0  0  0  0  0
  139.9520   74.1470  222.0540 N   0  0  0  0  0  0  0  0  0  0  0  0
  140.5360   72.9240  222.0590 C   0  0  0  0  0  0  0  0  0  0  0  0
  139.9330   71.8100  222.8540 C   0  0  0  0  0  0  0  0  0  0  0  0
  140.3390   71.8880  224.3330 C   0  0  0  0  0  0  0  0  0  0  0  0
  140.6000   70.5320  224.8810 N   0  0  0  0  0  0  0  0  0  0  0  0
  141.3860   70.5610  226.1470 C   0  0  0  0  0  0  0  0  0  0  0  0
  140.5130   70.3480  227.3880 C   0  0  0  0  0  0  0  0  0  0  0  0
  139.8020   68.9850  227.3390 C   0  0  0  0  0  0  0  0  0  0  0  0
  139.5060   68.5260  225.9010 C   0  0  0  0  0  0  0  0  0  0  0  0
  139.3540   69.7290  224.9600 C   0  0  0  0  0  0  0  0  0  0  0  0
  141.7310   72.7460  221.4400 N   0  0  0  0  0  0  0  0  0  0  0  0
  142.3430   73.7800  220.8060 C   0  0  0  0  0  0  0  0  0  0  0  0
  143.6100   73.5830  220.1430 N   0  0  0  0  0  0  0  0  0  0  0  0
  144.8120   73.3070  220.9450 C   0  0  0  0  0  0  0  0  0  0  0  0
  146.0770   73.7610  220.2010 C   0  0  0  0  0  0  0  0  0  0  0  0
  146.1020   73.1990  218.8440 N   0  0  0  0  0  0  0  0  0  0  0  0
  144.9530   73.6890  218.0750 C   0  0  0  0  0  0  0  0  0  0  0  0
  143.6420   73.2230  218.7180 C   0  0  0  0  0  0  0  0  0  0  0  0
  141.7520   75.0040  220.8150 N   0  0  0  0  0  0  0  0  0  0  0  0
  139.8840   77.2560  222.7100 C   0  0  0  0  0  0  0  0  0  0  0  0
  143.1155   81.5967  222.6313 H   0  0  0  0  0  0  0  0  0  0  0  0
  142.1834   80.7575  224.7891 H   0  0  0  0  0  0  0  0  0  0  0  0
  140.7142   78.7431  224.8169 H   0  0  0  0  0  0  0  0  0  0  0  0
  142.5840   80.4260  220.4949 H   0  0  0  0  0  0  0  0  0  0  0  0
  140.8595   78.9663  219.3485 H   0  0  0  0  0  0  0  0  0  0  0  0
  141.9449   77.6117  219.8832 H   0  0  0  0  0  0  0  0  0  0  0  0
  138.9234   77.8539  220.2256 H   0  0  0  0  0  0  0  0  0  0  0  0
  139.8439   76.5904  219.3533 H   0  0  0  0  0  0  0  0  0  0  0  0
  138.8372   71.8714  222.7808 H   0  0  0  0  0  0  0  0  0  0  0  0
  140.3008   70.8571  222.4457 H   0  0  0  0  0  0  0  0  0  0  0  0
  141.2512   72.4958  224.4249 H   0  0  0  0  0  0  0  0  0  0  0  0
  139.5153   72.3451  224.9009 H   0  0  0  0  0  0  0  0  0  0  0  0
  142.1444   69.7651  226.1090 H   0  0  0  0  0  0  0  0  0  0  0  0
  141.8462   71.5566  226.2305 H   0  0  0  0  0  0  0  0  0  0  0  0
  141.1481   70.3896  228.2852 H   0  0  0  0  0  0  0  0  0  0  0  0
  139.7492   71.1391  227.4172 H   0  0  0  0  0  0  0  0  0  0  0  0
  140.4440   68.2347  227.8236 H   0  0  0  0  0  0  0  0  0  0  0  0
  138.8394   69.0914  227.8606 H   0  0  0  0  0  0  0  0  0  0  0  0
  140.3345   67.8949  225.5471 H   0  0  0  0  0  0  0  0  0  0  0  0
  138.5630   67.9597  225.9010 H   0  0  0  0  0  0  0  0  0  0  0  0
  139.1023   69.3634  223.9535 H   0  0  0  0  0  0  0  0  0  0  0  0
  138.5576   70.3746  225.3586 H   0  0  0  0  0  0  0  0  0  0  0  0
  144.7410   73.8481  221.9001 H   0  0  0  0  0  0  0  0  0  0  0  0
  144.8766   72.2236  221.1242 H   0  0  0  0  0  0  0  0  0  0  0  0
  146.0865   74.8592  220.1388 H   0  0  0  0  0  0  0  0  0  0  0  0
  146.9612   73.4061  220.7507 H   0  0  0  0  0  0  0  0  0  0  0  0
  146.9760   73.5450  218.3760 H   0  0  0  0  0  0  0  0  0  0  0  0
  144.9746   74.7885  218.0519 H   0  0  0  0  0  0  0  0  0  0  0  0
  145.0110   73.2883  217.0522 H   0  0  0  0  0  0  0  0  0  0  0  0
  142.7962   73.7035  218.2043 H   0  0  0  0  0  0  0  0  0  0  0  0
  143.5702   72.1292  218.6261 H   0  0  0  0  0  0  0  0  0  0  0  0
  138.8545   77.6164  222.8519 H   0  0  0  0  0  0  0  0  0  0  0  0
  140.1740   76.5996  223.5437 H   0  0  0  0  0  0  0  0  0  0  0  0
  1  2  2  0
  2  3  1  0
  3  4  2  0
  4  5  1  0
  5  6  2  0
  5  7  1  0
  7  8  1  0
  8  9  1  0
  9 10  1  0
 10 11  2  0
 11 12  1  0
 12 13  1  0
 13 14  1  0
 14 15  1  0
 15 16  1  0
 16 17  1  0
 17 18  1  0
 18 19  1  0
 19 20  1  0
 12 21  2  0
 21 22  1  0
 22 23  1  0
 23 24  1  0
 24 25  1  0
 25 26  1  0
 26 27  1  0
 27 28  1  0
 22 29  2  0
  9 30  1  0
  6  1  1  0
 29 10  1  0
 30  4  1  0
 20 15  1  0
 28 23  1  0
  1 31  1  0
  2 32  1  0
  3 33  1  0
  6 34  1  0
  7 35  1  0
  7 36  1  0
  8 37  1  0
  8 38  1  0
 13 39  1  0
 13 40  1  0
 14 41  1  0
 14 42  1  0
 16 43  1  0
 16 44  1  0
 17 45  1  0
 17 46  1  0
 18 47  1  0
 18 48  1  0
 19 49  1  0
 19 50  1  0
 20 51  1  0
 20 52  1  0
 24 53  1  0
 24 54  1  0
 25 55  1  0
 25 56  1  0
 26 57  1  0
 27 58  1  0
 27 59  1  0
 28 60  1  0
 28 61  1  0
 30 62  1  0
 30 63  1  0
M  END
>  <UniqueID>  (39) 
562

>  <SMILES>  (39) 
c1ccc2c(c1)CCN(c1nc(CCN3CCCCC3)nc(N3CCNCC3)n1)C2

>  <Energy>  (39) 
74.13735776941701

>  <Genealogy>  (39) 
c1ccc2c(c1)CCN(c1nc(CCN3CCCCC3)nc(N3CCNCC3)n1)C2 (3D coordinates assigned)
c1ccc2c(c1)CCN(c1nc(CCN3CCCCC3)nc(N3CCNCC3)n1)C2 (nonaromatic ring conformer: 74.13735776941701 kcal/mol)

>  <smiles>  (39) 
c1ccc2c(c1)CCN(c1nc(CCN3CCCCC3)nc(N3CCNCC3)n1)C2

>  <score_type>  (39) 
oracle

>  <origin>  (39) 
autodockgpu

>  <m_score__min__energy>  (39) 
-9.8000000000000007

>  <m_primary>  (39) 
energy

>  <meeko>  (39) 
{"free_energy": -9.48, "intermolecular_energy": -10.97, "internal_energy": -0.88, "cluster_size": 17, "cluster_id": 1, "rank_in_cluster": 14}

>  <energy>  (39) 
-7.36

>  <cluster_rmsd>  (39) 
0.0

>  <rmsd>  (39) 
270.81

>  <cluster>  (39) 
3

$$$$
GZRQFJZYBWHXJG-UHFFFAOYNA-N
     RDKit          3D

 63 67  0  0  0  0  0  0  0  0999 V2000
  142.4910   80.5140  222.5410 C   0  0  0  0  0  0  0  0  0  0  0  0
  142.0200   80.0440  223.7690 C   0  0  0  0  0  0  0  0  0  0  0  0
  141.2280   78.8950  223.8210 C   0  0  0  0  0  0  0  0  0  0  0  0
  140.9040   78.2020  222.6420 C   0  0  0  0  0  0  0  0  0  0  0  0
  141.3570   78.6940  221.3910 C   0  0  0  0  0  0  0  0  0  0  0  0
  142.1680   79.8410  221.3580 C   0  0  0  0  0  0  0  0  0  0  0  0
  141.0680   77.9620  220.0970 C   0  0  0  0  0  0  0  0  0  0  0  0
  139.8920   76.9880  220.2350 C   0  0  0  0  0  0  0  0  0  0  0  0
  140.0540   76.2310  221.4780 N   0  0  0  0  0  0  0  0  0  0  0  0
  140.6800   74.9400  221.4420 C   0  0  0  0  0  0  0  0  0  0  0  0
  140.0930   73.8760  222.0490 N   0  0  0  0  0  0  0  0  0  0  0  0
  140.7050   72.6670  222.0490 C   0  0  0  0  0  0  0  0  0  0  0  0
  140.1190   71.5310  222.8260 C   0  0  0  0  0  0  0  0  0  0  0  0
  140.0130   71.8640  224.3210 C   0  0  0  0  0  0  0  0  0  0  0  0
  140.8160   70.9130  225.1320 N   0  0  0  0  0  0  0  0  0  0  0  0
  141.4410   71.5540  226.3240 C   0  0  0  0  0  0  0  0  0  0  0  0
  140.6880   71.2460  227.6220 C   0  0  0  0  0  0  0  0  0  0  0  0
  140.6540   69.7340  227.8980 C   0  0  0  0  0  0  0  0  0  0  0  0
  140.6660   68.8980  226.6060 C   0  0  0  0  0  0  0  0  0  0  0  0
  140.0490   69.6800  225.4390 C   0  0  0  0  0  0  0  0  0  0  0  0
  141.9110   72.5220  221.4430 N   0  0  0  0  0  0  0  0  0  0  0  0
  142.5070   73.5770  220.8270 C   0  0  0  0  0  0  0  0  0  0  0  0
  143.7860   73.4160  220.1780 N   0  0  0  0  0  0  0  0  0  0  0  0
  145.0000   73.2690  220.9950 C   0  0  0  0  0  0  0  0  0  0  0  0
  146.2370   73.7510  220.2210 C   0  0  0  0  0  0  0  0  0  0  0  0
  146.3020   73.1030  218.9050 N   0  0  0  0  0  0  0  0  0  0  0  0
  145.1260   73.4680  218.1060 C   0  0  0  0  0  0  0  0  0  0  0  0
  143.8450   72.9640  218.7790 C   0  0  0  0  0  0  0  0  0  0  0  0
  141.8880   74.7870  220.8410 N   0  0  0  0  0  0  0  0  0  0  0  0
  139.9970   77.0010  222.7230 C   0  0  0  0  0  0  0  0  0  0  0  0
  143.1183   81.4168  222.5040 H   0  0  0  0  0  0  0  0  0  0  0  0
  142.2731   80.5794  224.6960 H   0  0  0  0  0  0  0  0  0  0  0  0
  140.8558   78.5304  224.7898 H   0  0  0  0  0  0  0  0  0  0  0  0
  142.5512   80.2120  220.3960 H   0  0  0  0  0  0  0  0  0  0  0  0
  140.8273   78.7004  219.3180 H   0  0  0  0  0  0  0  0  0  0  0  0
  141.9617   77.3782  219.8314 H   0  0  0  0  0  0  0  0  0  0  0  0
  138.9470   77.5502  220.2643 H   0  0  0  0  0  0  0  0  0  0  0  0
  139.8717   76.3002  219.3768 H   0  0  0  0  0  0  0  0  0  0  0  0
  139.1135   71.3133  222.4366 H   0  0  0  0  0  0  0  0  0  0  0  0
  140.7810   70.6597  222.7137 H   0  0  0  0  0  0  0  0  0  0  0  0
  140.3848   72.8854  224.4901 H   0  0  0  0  0  0  0  0  0  0  0  0
  138.9591   71.7845  224.6258 H   0  0  0  0  0  0  0  0  0  0  0  0
  142.4735   71.1872  226.4203 H   0  0  0  0  0  0  0  0  0  0  0  0
  141.4095   72.6429  226.1713 H   0  0  0  0  0  0  0  0  0  0  0  0
  141.1921   71.7524  228.4583 H   0  0  0  0  0  0  0  0  0  0  0  0
  139.6534   71.6052  227.5188 H   0  0  0  0  0  0  0  0  0  0  0  0
  141.5347   69.4655  228.4999 H   0  0  0  0  0  0  0  0  0  0  0  0
  139.7171   69.5127  228.4303 H   0  0  0  0  0  0  0  0  0  0  0  0
  141.7051   68.6382  226.3554 H   0  0  0  0  0  0  0  0  0  0  0  0
  140.0704   67.9882  226.7719 H   0  0  0  0  0  0  0  0  0  0  0  0
  140.0375   69.0369  224.5466 H   0  0  0  0  0  0  0  0  0  0  0  0
  139.0296   69.9757  225.7279 H   0  0  0  0  0  0  0  0  0  0  0  0
  144.8925   73.8665  221.9123 H   0  0  0  0  0  0  0  0  0  0  0  0
  145.1314   72.2059  221.2453 H   0  0  0  0  0  0  0  0  0  0  0  0
  146.1779   74.8410  220.0857 H   0  0  0  0  0  0  0  0  0  0  0  0
  147.1398   73.4894  220.7925 H   0  0  0  0  0  0  0  0  0  0  0  0
  147.1530   73.4710  218.4140 H   0  0  0  0  0  0  0  0  0  0  0  0
  145.0785   74.5628  218.0104 H   0  0  0  0  0  0  0  0  0  0  0  0
  145.2125   73.0049  217.1120 H   0  0  0  0  0  0  0  0  0  0  0  0
  142.9724   73.3549  218.2351 H   0  0  0  0  0  0  0  0  0  0  0  0
  143.8421   71.8642  218.7600 H   0  0  0  0  0  0  0  0  0  0  0  0
  138.9639   77.3382  222.8933 H   0  0  0  0  0  0  0  0  0  0  0  0
  140.3280   76.3602  223.5535 H   0  0  0  0  0  0  0  0  0  0  0  0
  1  2  2  0
  2  3  1  0
  3  4  2  0
  4  5  1  0
  5  6  2  0
  5  7  1  0
  7  8  1  0
  8  9  1  0
  9 10  1  0
 10 11  2  0
 11 12  1  0
 12 13  1  0
 13 14  1  0
 14 15  1  0
 15 16  1  0
 16 17  1  0
 17 18  1  0
 18 19  1  0
 19 20  1  0
 12 21  2  0
 21 22  1  0
 22 23  1  0
 23 24  1  0
 24 25  1  0
 25 26  1  0
 26 27  1  0
 27 28  1  0
 22 29  2  0
  9 30  1  0
  6  1  1  0
 29 10  1  0
 30  4  1  0
 20 15  1  0
 28 23  1  0
  1 31  1  0
  2 32  1  0
  3 33  1  0
  6 34  1  0
  7 35  1  0
  7 36  1  0
  8 37  1  0
  8 38  1  0
 13 39  1  0
 13 40  1  0
 14 41  1  0
 14 42  1  0
 16 43  1  0
 16 44  1  0
 17 45  1  0
 17 46  1  0
 18 47  1  0
 18 48  1  0
 19 49  1  0
 19 50  1  0
 20 51  1  0
 20 52  1  0
 24 53  1  0
 24 54  1  0
 25 55  1  0
 25 56  1  0
 26 57  1  0
 27 58  1  0
 27 59  1  0
 28 60  1  0
 28 61  1  0
 30 62  1  0
 30 63  1  0
M  END
>  <UniqueID>  (40) 
562

>  <SMILES>  (40) 
c1ccc2c(c1)CCN(c1nc(CCN3CCCCC3)nc(N3CCNCC3)n1)C2

>  <Energy>  (40) 
74.13735776941701

>  <Genealogy>  (40) 
c1ccc2c(c1)CCN(c1nc(CCN3CCCCC3)nc(N3CCNCC3)n1)C2 (3D coordinates assigned)
c1ccc2c(c1)CCN(c1nc(CCN3CCCCC3)nc(N3CCNCC3)n1)C2 (nonaromatic ring conformer: 74.13735776941701 kcal/mol)

>  <smiles>  (40) 
c1ccc2c(c1)CCN(c1nc(CCN3CCCCC3)nc(N3CCNCC3)n1)C2

>  <score_type>  (40) 
oracle

>  <origin>  (40) 
autodockgpu

>  <m_score__min__energy>  (40) 
-9.8000000000000007

>  <m_primary>  (40) 
energy

>  <meeko>  (40) 
{"free_energy": -9.65, "intermolecular_energy": -11.14, "internal_energy": -0.91, "cluster_size": 17, "cluster_id": 1, "rank_in_cluster": 12}

>  <energy>  (40) 
-7.31

>  <cluster_rmsd>  (40) 
0.19

>  <rmsd>  (40) 
270.79

>  <cluster>  (40) 
3

$$$$
GZRQFJZYBWHXJG-UNYBPEQONA-O
     RDKit          3D

 64 68  0  0  0  0  0  0  0  0999 V2000
  146.1380   67.5860  218.7070 C   0  0  0  0  0  0  0  0  0  0  0  0
  144.9210   67.0150  219.0880 C   0  0  0  0  0  0  0  0  0  0  0  0
  143.8390   67.8320  219.4240 C   0  0  0  0  0  0  0  0  0  0  0  0
  143.9740   69.2300  219.4020 C   0  0  0  0  0  0  0  0  0  0  0  0
  145.2000   69.8020  219.0220 C   0  0  0  0  0  0  0  0  0  0  0  0
  146.2770   68.9750  218.6660 C   0  0  0  0  0  0  0  0  0  0  0  0
  145.3160   71.2920  218.9410 C   0  0  0  0  0  0  0  0  0  0  0  0
  144.5630   71.9480  220.1010 C   0  0  0  0  0  0  0  0  0  0  0  0
  143.1830   71.4400  220.2210 N   0  0  0  0  0  0  0  0  0  0  0  0
  142.1990   72.2400  220.9090 C   0  0  0  0  0  0  0  0  0  0  0  0
  141.2750   71.6520  221.7140 N   0  0  0  0  0  0  0  0  0  0  0  0
  140.3460   72.4050  222.3560 C   0  0  0  0  0  0  0  0  0  0  0  0
  139.2670   71.7480  223.1580 C   0  0  0  0  0  0  0  0  0  0  0  0
  139.7350   70.4080  223.7380 C   0  0  0  0  0  0  0  0  0  0  0  0
  139.8220   70.4930  225.2150 N   0  0  0  0  0  0  0  0  0  0  0  0
  140.7300   71.5750  225.6570 C   0  0  0  0  0  0  0  0  0  0  0  0
  141.0160   71.5230  227.1750 C   0  0  0  0  0  0  0  0  0  0  0  0
  139.9900   70.6600  227.9150 C   0  0  0  0  0  0  0  0  0  0  0  0
  139.9440   69.2330  227.3390 C   0  0  0  0  0  0  0  0  0  0  0  0
  140.2110   69.2040  225.8240 C   0  0  0  0  0  0  0  0  0  0  0  0
  140.3260   73.7500  222.1720 N   0  0  0  0  0  0  0  0  0  0  0  0
  141.2350   74.3500  221.3610 C   0  0  0  0  0  0  0  0  0  0  0  0
  141.1790   75.7740  221.1400 N   0  0  0  0  0  0  0  0  0  0  0  0
  140.4590   76.6580  222.0690 C   0  0  0  0  0  0  0  0  0  0  0  0
  141.2270   77.9790  222.3120 C   0  0  0  0  0  0  0  0  0  0  0  0
  142.1710   78.3310  221.2320 N   0  0  0  0  0  0  0  0  0  0  0  0
  141.7200   77.8580  219.9190 C   0  0  0  0  0  0  0  0  0  0  0  0
  141.7230   76.3270  219.8910 C   0  0  0  0  0  0  0  0  0  0  0  0
  142.1700   73.5870  220.7350 N   0  0  0  0  0  0  0  0  0  0  0  0
  142.7900   70.1110  219.7140 C   0  0  0  0  0  0  0  0  0  0  0  0
  146.9876   66.9407  218.4390 H   0  0  0  0  0  0  0  0  0  0  0  0
  144.8148   65.9207  219.1234 H   0  0  0  0  0  0  0  0  0  0  0  0
  142.8774   67.3788  219.7069 H   0  0  0  0  0  0  0  0  0  0  0  0
  147.2325   69.4220  218.3541 H   0  0  0  0  0  0  0  0  0  0  0  0
  146.3774   71.5764  218.9905 H   0  0  0  0  0  0  0  0  0  0  0  0
  144.8778   71.6336  217.9916 H   0  0  0  0  0  0  0  0  0  0  0  0
  145.1012   71.7390  221.0373 H   0  0  0  0  0  0  0  0  0  0  0  0
  144.5115   73.0291  219.9049 H   0  0  0  0  0  0  0  0  0  0  0  0
  138.9798   72.4145  223.9846 H   0  0  0  0  0  0  0  0  0  0  0  0
  138.4112   71.5567  222.4940 H   0  0  0  0  0  0  0  0  0  0  0  0
  139.0176   69.6215  223.4608 H   0  0  0  0  0  0  0  0  0  0  0  0
  140.7292   70.1687  223.3327 H   0  0  0  0  0  0  0  0  0  0  0  0
  141.6824   71.4800  225.1149 H   0  0  0  0  0  0  0  0  0  0  0  0
  140.2369   72.5345  225.4420 H   0  0  0  0  0  0  0  0  0  0  0  0
  142.0189   71.1002  227.3346 H   0  0  0  0  0  0  0  0  0  0  0  0
  140.9525   72.5471  227.5714 H   0  0  0  0  0  0  0  0  0  0  0  0
  140.2648   70.6088  228.9789 H   0  0  0  0  0  0  0  0  0  0  0  0
  138.9971   71.1173  227.7925 H   0  0  0  0  0  0  0  0  0  0  0  0
  140.7075   68.6232  227.8442 H   0  0  0  0  0  0  0  0  0  0  0  0
  138.9330   68.8346  227.5094 H   0  0  0  0  0  0  0  0  0  0  0  0
  141.2820   69.0263  225.6467 H   0  0  0  0  0  0  0  0  0  0  0  0
  139.6174   68.3973  225.3692 H   0  0  0  0  0  0  0  0  0  0  0  0
  139.4714   76.8925  221.6451 H   0  0  0  0  0  0  0  0  0  0  0  0
  140.3603   76.1362  223.0323 H   0  0  0  0  0  0  0  0  0  0  0  0
  140.4935   78.7929  222.4095 H   0  0  0  0  0  0  0  0  0  0  0  0
  141.8249   77.8370  223.2243 H   0  0  0  0  0  0  0  0  0  0  0  0
  143.1130   77.9240  221.4430 H   0  0  0  0  0  0  0  0  0  0  0  0
  142.2740   79.3730  221.1970 H   0  0  0  0  0  0  0  0  0  0  0  0
  140.7005   78.2249  219.7289 H   0  0  0  0  0  0  0  0  0  0  0  0
  142.4007   78.2371  219.1425 H   0  0  0  0  0  0  0  0  0  0  0  0
  141.1076   75.9819  219.0471 H   0  0  0  0  0  0  0  0  0  0  0  0
  142.7613   75.9815  219.7788 H   0  0  0  0  0  0  0  0  0  0  0  0
  142.1725   69.6128  220.4760 H   0  0  0  0  0  0  0  0  0  0  0  0
  142.2361   70.2652  218.7762 H   0  0  0  0  0  0  0  0  0  0  0  0
  1  2  2  0
  2  3  1  0
  3  4  2  0
  4  5  1  0
  5  6  2  0
  5  7  1  0
  7  8  1  0
  8  9  1  0
  9 10  1  0
 10 11  2  0
 11 12  1  0
 12 13  1  0
 13 14  1  0
 14 15  1  0
 15 16  1  0
 16 17  1  0
 17 18  1  0
 18 19  1  0
 19 20  1  0
 12 21  2  0
 21 22  1  0
 22 23  1  0
 23 24  1  0
 24 25  1  0
 25 26  1  0
 26 27  1  0
 27 28  1  0
 22 29  2  0
  9 30  1  0
  6  1  1  0
 29 10  1  0
 30  4  1  0
 20 15  1  0
 28 23  1  0
  1 31  1  0
  2 32  1  0
  3 33  1  0
  6 34  1  0
  7 35  1  0
  7 36  1  0
  8 37  1  0
  8 38  1  0
 13 39  1  0
 13 40  1  0
 14 41  1  0
 14 42  1  0
 16 43  1  0
 16 44  1  0
 17 45  1  0
 17 46  1  0
 18 47  1  0
 18 48  1  0
 19 49  1  0
 19 50  1  0
 20 51  1  0
 20 52  1  0
 24 53  1  0
 24 54  1  0
 25 55  1  0
 25 56  1  0
 26 57  1  0
 26 58  1  0
 27 59  1  0
 27 60  1  0
 28 61  1  0
 28 62  1  0
 30 63  1  0
 30 64  1  0
M  CHG  1  26   1
M  END
>  <UniqueID>  (41) 
563

>  <SMILES>  (41) 
c1ccc2c(c1)CCN(c1nc(CCN3CCCCC3)nc(N3CC[NH2+]CC3)n1)C2

>  <Energy>  (41) 
74.96437688718524

>  <Genealogy>  (41) 
c1ccc2c(c1)CCN(c1nc(CCN3CCCCC3)nc(N3CC[NH2+]CC3)n1)C2 (protonated)
c1ccc2c(c1)CCN(c1nc(CCN3CCCCC3)nc(N3CC[NH2+]CC3)n1)C2 (3D coordinates assigned)
c1ccc2c(c1)CCN(c1nc(CCN3CCCCC3)nc(N3CC[NH2+]CC3)n1)C2 (nonaromatic ring conformer: 74.96437688718524 kcal/mol)

>  <smiles>  (41) 
c1ccc2c(c1)CCN(c1nc(CCN3CCCCC3)nc(N3CCNCC3)n1)C2

>  <score_type>  (41) 
oracle

>  <origin>  (41) 
autodockgpu

>  <m_score__min__energy>  (41) 
-9.0700000000000003

>  <m_primary>  (41) 
energy

>  <meeko>  (41) 
{"free_energy": -9.02, "intermolecular_energy": -10.51, "internal_energy": -0.85, "cluster_size": 8, "cluster_id": 1, "rank_in_cluster": 5}

>  <energy>  (41) 
-9.07

>  <cluster_rmsd>  (41) 
0.0

>  <rmsd>  (41) 
270.18

>  <cluster>  (41) 
1

$$$$
GZRQFJZYBWHXJG-UNYBPEQONA-O
     RDKit          3D

 64 68  0  0  0  0  0  0  0  0999 V2000
  146.1060   67.5380  218.7410 C   0  0  0  0  0  0  0  0  0  0  0  0
  144.8840   66.9820  219.1230 C   0  0  0  0  0  0  0  0  0  0  0  0
  143.8080   67.8120  219.4500 C   0  0  0  0  0  0  0  0  0  0  0  0
  143.9560   69.2080  219.4180 C   0  0  0  0  0  0  0  0  0  0  0  0
  145.1890   69.7650  219.0360 C   0  0  0  0  0  0  0  0  0  0  0  0
  146.2590   68.9250  218.6900 C   0  0  0  0  0  0  0  0  0  0  0  0
  145.3190   71.2530  218.9440 C   0  0  0  0  0  0  0  0  0  0  0  0
  144.5690   71.9260  220.0960 C   0  0  0  0  0  0  0  0  0  0  0  0
  143.1840   71.4310  220.2170 N   0  0  0  0  0  0  0  0  0  0  0  0
  142.2070   72.2460  220.8960 C   0  0  0  0  0  0  0  0  0  0  0  0
  141.2780   71.6740  221.7070 N   0  0  0  0  0  0  0  0  0  0  0  0
  140.3550   72.4410  222.3410 C   0  0  0  0  0  0  0  0  0  0  0  0
  139.2700   71.8010  223.1490 C   0  0  0  0  0  0  0  0  0  0  0  0
  139.5910   70.3330  223.4570 C   0  0  0  0  0  0  0  0  0  0  0  0
  140.0850   70.1990  224.8470 N   0  0  0  0  0  0  0  0  0  0  0  0
  139.2390   69.2880  225.6520 C   0  0  0  0  0  0  0  0  0  0  0  0
  139.5960   69.3240  227.1550 C   0  0  0  0  0  0  0  0  0  0  0  0
  140.9770   69.9440  227.3950 C   0  0  0  0  0  0  0  0  0  0  0  0
  141.0610   71.3610  226.8000 C   0  0  0  0  0  0  0  0  0  0  0  0
  140.2240   71.5090  225.5170 C   0  0  0  0  0  0  0  0  0  0  0  0
  140.3440   73.7840  222.1420 N   0  0  0  0  0  0  0  0  0  0  0  0
  141.2580   74.3680  221.3260 C   0  0  0  0  0  0  0  0  0  0  0  0
  141.2140   75.7900  221.0890 N   0  0  0  0  0  0  0  0  0  0  0  0
  140.4440   76.6820  221.9710 C   0  0  0  0  0  0  0  0  0  0  0  0
  141.1960   78.0050  222.2430 C   0  0  0  0  0  0  0  0  0  0  0  0
  142.1960   78.3490  221.2120 N   0  0  0  0  0  0  0  0  0  0  0  0
  141.8170   77.8640  219.8810 C   0  0  0  0  0  0  0  0  0  0  0  0
  141.8230   76.3330  219.8670 C   0  0  0  0  0  0  0  0  0  0  0  0
  142.1870   73.5920  220.7080 N   0  0  0  0  0  0  0  0  0  0  0  0
  142.7800   70.1020  219.7200 C   0  0  0  0  0  0  0  0  0  0  0  0
  146.9498   66.8825  218.4797 H   0  0  0  0  0  0  0  0  0  0  0  0
  144.7676   65.8891  219.1668 H   0  0  0  0  0  0  0  0  0  0  0  0
  142.8415   67.3699  219.7335 H   0  0  0  0  0  0  0  0  0  0  0  0
  147.2199   69.3602  218.3781 H   0  0  0  0  0  0  0  0  0  0  0  0
  146.3829   71.5277  218.9945 H   0  0  0  0  0  0  0  0  0  0  0  0
  144.8864   71.5909  217.9907 H   0  0  0  0  0  0  0  0  0  0  0  0
  145.1030   71.7208  221.0355 H   0  0  0  0  0  0  0  0  0  0  0  0
  144.5275   73.0057  219.8900 H   0  0  0  0  0  0  0  0  0  0  0  0
  139.1589   72.3491  224.0962 H   0  0  0  0  0  0  0  0  0  0  0  0
  138.3383   71.8358  222.5653 H   0  0  0  0  0  0  0  0  0  0  0  0
  138.6802   69.7284  223.3351 H   0  0  0  0  0  0  0  0  0  0  0  0
  140.3696   69.9824  222.7636 H   0  0  0  0  0  0  0  0  0  0  0  0
  138.1868   69.5853  225.5320 H   0  0  0  0  0  0  0  0  0  0  0  0
  139.4130   68.2635  225.2912 H   0  0  0  0  0  0  0  0  0  0  0  0
  138.8401   69.9206  227.6867 H   0  0  0  0  0  0  0  0  0  0  0  0
  139.6152   68.2893  227.5277 H   0  0  0  0  0  0  0  0  0  0  0  0
  141.1631   69.9977  228.4778 H   0  0  0  0  0  0  0  0  0  0  0  0
  141.7324   69.3138  226.9029 H   0  0  0  0  0  0  0  0  0  0  0  0
  140.6931   72.0801  227.5467 H   0  0  0  0  0  0  0  0  0  0  0  0
  142.1121   71.5534  226.5389 H   0  0  0  0  0  0  0  0  0  0  0  0
  139.2262   71.8929  225.7759 H   0  0  0  0  0  0  0  0  0  0  0  0
  140.7297   72.2096  224.8362 H   0  0  0  0  0  0  0  0  0  0  0  0
  139.4804   76.9114  221.4927 H   0  0  0  0  0  0  0  0  0  0  0  0
  140.2944   76.1685  222.9322 H   0  0  0  0  0  0  0  0  0  0  0  0
  140.4576   78.8187  222.2941 H   0  0  0  0  0  0  0  0  0  0  0  0
  141.7444   77.8717  223.1872 H   0  0  0  0  0  0  0  0  0  0  0  0
  143.1260   77.9450  221.4780 H   0  0  0  0  0  0  0  0  0  0  0  0
  142.3010   79.3910  221.1740 H   0  0  0  0  0  0  0  0  0  0  0  0
  140.8089   78.2277  219.6329 H   0  0  0  0  0  0  0  0  0  0  0  0
  142.5381   78.2373  219.1390 H   0  0  0  0  0  0  0  0  0  0  0  0
  141.2540   75.9796  218.9945 H   0  0  0  0  0  0  0  0  0  0  0  0
  142.8663   75.9884  219.8139 H   0  0  0  0  0  0  0  0  0  0  0  0
  142.1563   69.6157  220.4845 H   0  0  0  0  0  0  0  0  0  0  0  0
  142.2296   70.2537  218.7797 H   0  0  0  0  0  0  0  0  0  0  0  0
  1  2  2  0
  2  3  1  0
  3  4  2  0
  4  5  1  0
  5  6  2  0
  5  7  1  0
  7  8  1  0
  8  9  1  0
  9 10  1  0
 10 11  2  0
 11 12  1  0
 12 13  1  0
 13 14  1  0
 14 15  1  0
 15 16  1  0
 16 17  1  0
 17 18  1  0
 18 19  1  0
 19 20  1  0
 12 21  2  0
 21 22  1  0
 22 23  1  0
 23 24  1  0
 24 25  1  0
 25 26  1  0
 26 27  1  0
 27 28  1  0
 22 29  2  0
  9 30  1  0
  6  1  1  0
 29 10  1  0
 30  4  1  0
 20 15  1  0
 28 23  1  0
  1 31  1  0
  2 32  1  0
  3 33  1  0
  6 34  1  0
  7 35  1  0
  7 36  1  0
  8 37  1  0
  8 38  1  0
 13 39  1  0
 13 40  1  0
 14 41  1  0
 14 42  1  0
 16 43  1  0
 16 44  1  0
 17 45  1  0
 17 46  1  0
 18 47  1  0
 18 48  1  0
 19 49  1  0
 19 50  1  0
 20 51  1  0
 20 52  1  0
 24 53  1  0
 24 54  1  0
 25 55  1  0
 25 56  1  0
 26 57  1  0
 26 58  1  0
 27 59  1  0
 27 60  1  0
 28 61  1  0
 28 62  1  0
 30 63  1  0
 30 64  1  0
M  CHG  1  26   1
M  END
>  <UniqueID>  (42) 
563

>  <SMILES>  (42) 
c1ccc2c(c1)CCN(c1nc(CCN3CCCCC3)nc(N3CC[NH2+]CC3)n1)C2

>  <Energy>  (42) 
74.96437688718524

>  <Genealogy>  (42) 
c1ccc2c(c1)CCN(c1nc(CCN3CCCCC3)nc(N3CC[NH2+]CC3)n1)C2 (protonated)
c1ccc2c(c1)CCN(c1nc(CCN3CCCCC3)nc(N3CC[NH2+]CC3)n1)C2 (3D coordinates assigned)
c1ccc2c(c1)CCN(c1nc(CCN3CCCCC3)nc(N3CC[NH2+]CC3)n1)C2 (nonaromatic ring conformer: 74.96437688718524 kcal/mol)

>  <smiles>  (42) 
c1ccc2c(c1)CCN(c1nc(CCN3CCCCC3)nc(N3CCNCC3)n1)C2

>  <score_type>  (42) 
oracle

>  <origin>  (42) 
autodockgpu

>  <m_score__min__energy>  (42) 
-9.0700000000000003

>  <m_primary>  (42) 
energy

>  <meeko>  (42) 
{"free_energy": -8.76, "intermolecular_energy": -10.25, "internal_energy": -0.86, "cluster_size": 8, "cluster_id": 1, "rank_in_cluster": 7}

>  <energy>  (42) 
-9.07

>  <cluster_rmsd>  (42) 
0.32

>  <rmsd>  (42) 
270.31

>  <cluster>  (42) 
1

$$$$
GZRQFJZYBWHXJG-UNYBPEQONA-O
     RDKit          3D

 64 68  0  0  0  0  0  0  0  0999 V2000
  139.8660   67.7340  226.5910 C   0  0  0  0  0  0  0  0  0  0  0  0
  141.0790   68.3940  226.7990 C   0  0  0  0  0  0  0  0  0  0  0  0
  141.3290   69.6160  226.1710 C   0  0  0  0  0  0  0  0  0  0  0  0
  140.3720   70.1780  225.3100 C   0  0  0  0  0  0  0  0  0  0  0  0
  139.1540   69.5110  225.0990 C   0  0  0  0  0  0  0  0  0  0  0  0
  138.9010   68.2930  225.7500 C   0  0  0  0  0  0  0  0  0  0  0  0
  138.1150   70.1480  224.2300 C   0  0  0  0  0  0  0  0  0  0  0  0
  138.7710   70.8160  223.0190 C   0  0  0  0  0  0  0  0  0  0  0  0
  139.8800   71.7050  223.4120 N   0  0  0  0  0  0  0  0  0  0  0  0
  140.2930   72.7510  222.5080 C   0  0  0  0  0  0  0  0  0  0  0  0
  139.5850   73.9080  222.4240 N   0  0  0  0  0  0  0  0  0  0  0  0
  139.9710   74.8890  221.5690 C   0  0  0  0  0  0  0  0  0  0  0  0
  139.1320   76.1170  221.4020 C   0  0  0  0  0  0  0  0  0  0  0  0
  139.0030   76.8910  222.7200 C   0  0  0  0  0  0  0  0  0  0  0  0
  139.8240   78.1230  222.6720 N   0  0  0  0  0  0  0  0  0  0  0  0
  141.2300   77.8690  223.0630 C   0  0  0  0  0  0  0  0  0  0  0  0
  142.0360   79.1740  223.2490 C   0  0  0  0  0  0  0  0  0  0  0  0
  141.3410   80.3680  222.5890 C   0  0  0  0  0  0  0  0  0  0  0  0
  139.9120   80.5500  223.1340 C   0  0  0  0  0  0  0  0  0  0  0  0
  139.2450   79.2100  223.4880 C   0  0  0  0  0  0  0  0  0  0  0  0
  141.0560   74.7000  220.7750 N   0  0  0  0  0  0  0  0  0  0  0  0
  141.7660   73.5450  220.8380 C   0  0  0  0  0  0  0  0  0  0  0  0
  142.8920   73.3380  219.9620 N   0  0  0  0  0  0  0  0  0  0  0  0
  142.7070   72.8140  218.6000 C   0  0  0  0  0  0  0  0  0  0  0  0
  143.6300   73.5260  217.5830 C   0  0  0  0  0  0  0  0  0  0  0  0
  144.8280   74.1430  218.1900 N   0  0  0  0  0  0  0  0  0  0  0  0
  145.2950   73.4110  219.3730 C   0  0  0  0  0  0  0  0  0  0  0  0
  144.2530   73.5130  220.4900 C   0  0  0  0  0  0  0  0  0  0  0  0
  141.3790   72.5760  221.7090 N   0  0  0  0  0  0  0  0  0  0  0  0
  140.6220   71.5230  224.6740 C   0  0  0  0  0  0  0  0  0  0  0  0
  139.6704   66.7733  227.0898 H   0  0  0  0  0  0  0  0  0  0  0  0
  141.8391   67.9504  227.4589 H   0  0  0  0  0  0  0  0  0  0  0  0
  142.2790   70.1404  226.3513 H   0  0  0  0  0  0  0  0  0  0  0  0
  137.9410   67.7780  225.5974 H   0  0  0  0  0  0  0  0  0  0  0  0
  137.4110   69.3776  223.8822 H   0  0  0  0  0  0  0  0  0  0  0  0
  137.5802   70.9119  224.8135 H   0  0  0  0  0  0  0  0  0  0  0  0
  139.1619   70.0346  222.3508 H   0  0  0  0  0  0  0  0  0  0  0  0
  138.0086   71.4269  222.5134 H   0  0  0  0  0  0  0  0  0  0  0  0
  139.5980   76.7689  220.6484 H   0  0  0  0  0  0  0  0  0  0  0  0
  138.1259   75.8077  221.0826 H   0  0  0  0  0  0  0  0  0  0  0  0
  137.9492   77.1626  222.8803 H   0  0  0  0  0  0  0  0  0  0  0  0
  139.3567   76.2558  223.5455 H   0  0  0  0  0  0  0  0  0  0  0  0
  141.2375   77.3113  224.0111 H   0  0  0  0  0  0  0  0  0  0  0  0
  141.7042   77.2951  222.2532 H   0  0  0  0  0  0  0  0  0  0  0  0
  142.1452   79.3752  224.3249 H   0  0  0  0  0  0  0  0  0  0  0  0
  143.0178   79.0416  222.7709 H   0  0  0  0  0  0  0  0  0  0  0  0
  141.9220   81.2795  222.7932 H   0  0  0  0  0  0  0  0  0  0  0  0
  141.2805   80.1818  221.5066 H   0  0  0  0  0  0  0  0  0  0  0  0
  139.9558   81.1730  224.0395 H   0  0  0  0  0  0  0  0  0  0  0  0
  139.3104   81.0265  222.3460 H   0  0  0  0  0  0  0  0  0  0  0  0
  139.4095   78.9921  224.5536 H   0  0  0  0  0  0  0  0  0  0  0  0
  138.1667   79.2793  223.2821 H   0  0  0  0  0  0  0  0  0  0  0  0
  142.9367   71.7382  218.5976 H   0  0  0  0  0  0  0  0  0  0  0  0
  141.6638   72.9949  218.3016 H   0  0  0  0  0  0  0  0  0  0  0  0
  143.9608   72.7865  216.8389 H   0  0  0  0  0  0  0  0  0  0  0  0
  143.0428   74.3418  217.1361 H   0  0  0  0  0  0  0  0  0  0  0  0
  144.6140   75.1340  218.4570 H   0  0  0  0  0  0  0  0  0  0  0  0
  145.5970   74.1630  217.4800 H   0  0  0  0  0  0  0  0  0  0  0  0
  145.4478   72.3535  219.1115 H   0  0  0  0  0  0  0  0  0  0  0  0
  146.2433   73.8476  219.7196 H   0  0  0  0  0  0  0  0  0  0  0  0
  144.4512   72.7317  221.2386 H   0  0  0  0  0  0  0  0  0  0  0  0
  144.3254   74.5118  220.9451 H   0  0  0  0  0  0  0  0  0  0  0  0
  141.6979   71.6190  224.4662 H   0  0  0  0  0  0  0  0  0  0  0  0
  140.2723   72.2925  225.3779 H   0  0  0  0  0  0  0  0  0  0  0  0
  1  2  2  0
  2  3  1  0
  3  4  2  0
  4  5  1  0
  5  6  2  0
  5  7  1  0
  7  8  1  0
  8  9  1  0
  9 10  1  0
 10 11  2  0
 11 12  1  0
 12 13  1  0
 13 14  1  0
 14 15  1  0
 15 16  1  0
 16 17  1  0
 17 18  1  0
 18 19  1  0
 19 20  1  0
 12 21  2  0
 21 22  1  0
 22 23  1  0
 23 24  1  0
 24 25  1  0
 25 26  1  0
 26 27  1  0
 27 28  1  0
 22 29  2  0
  9 30  1  0
  6  1  1  0
 29 10  1  0
 30  4  1  0
 20 15  1  0
 28 23  1  0
  1 31  1  0
  2 32  1  0
  3 33  1  0
  6 34  1  0
  7 35  1  0
  7 36  1  0
  8 37  1  0
  8 38  1  0
 13 39  1  0
 13 40  1  0
 14 41  1  0
 14 42  1  0
 16 43  1  0
 16 44  1  0
 17 45  1  0
 17 46  1  0
 18 47  1  0
 18 48  1  0
 19 49  1  0
 19 50  1  0
 20 51  1  0
 20 52  1  0
 24 53  1  0
 24 54  1  0
 25 55  1  0
 25 56  1  0
 26 57  1  0
 26 58  1  0
 27 59  1  0
 27 60  1  0
 28 61  1  0
 28 62  1  0
 30 63  1  0
 30 64  1  0
M  CHG  1  26   1
M  END
>  <UniqueID>  (43) 
563

>  <SMILES>  (43) 
c1ccc2c(c1)CCN(c1nc(CCN3CCCCC3)nc(N3CC[NH2+]CC3)n1)C2

>  <Energy>  (43) 
74.96437688718524

>  <Genealogy>  (43) 
c1ccc2c(c1)CCN(c1nc(CCN3CCCCC3)nc(N3CC[NH2+]CC3)n1)C2 (protonated)
c1ccc2c(c1)CCN(c1nc(CCN3CCCCC3)nc(N3CC[NH2+]CC3)n1)C2 (3D coordinates assigned)
c1ccc2c(c1)CCN(c1nc(CCN3CCCCC3)nc(N3CC[NH2+]CC3)n1)C2 (nonaromatic ring conformer: 74.96437688718524 kcal/mol)

>  <smiles>  (43) 
c1ccc2c(c1)CCN(c1nc(CCN3CCCCC3)nc(N3CCNCC3)n1)C2

>  <score_type>  (43) 
oracle

>  <origin>  (43) 
autodockgpu

>  <m_score__min__energy>  (43) 
-9.0700000000000003

>  <m_primary>  (43) 
energy

>  <meeko>  (43) 
{"free_energy": -8.66, "intermolecular_energy": -10.16, "internal_energy": -0.82, "cluster_size": 3, "cluster_id": 2, "rank_in_cluster": 3}

>  <energy>  (43) 
-9.06

>  <cluster_rmsd>  (43) 
0.04

>  <rmsd>  (43) 
270.17

>  <cluster>  (43) 
1

$$$$
GZRQFJZYBWHXJG-UNYBPEQONA-O
     RDKit          3D

 64 68  0  0  0  0  0  0  0  0999 V2000
  139.4340   81.2060  223.4560 C   0  0  0  0  0  0  0  0  0  0  0  0
  140.7960   80.9040  223.5120 C   0  0  0  0  0  0  0  0  0  0  0  0
  141.2580   79.6670  223.0550 C   0  0  0  0  0  0  0  0  0  0  0  0
  140.3550   78.7140  222.5560 C   0  0  0  0  0  0  0  0  0  0  0  0
  138.9840   79.0190  222.5030 C   0  0  0  0  0  0  0  0  0  0  0  0
  138.5290   80.2720  222.9460 C   0  0  0  0  0  0  0  0  0  0  0  0
  138.0370   78.0230  221.9130 C   0  0  0  0  0  0  0  0  0  0  0  0
  138.4260   76.6040  222.3350 C   0  0  0  0  0  0  0  0  0  0  0  0
  139.8530   76.3250  222.0850 N   0  0  0  0  0  0  0  0  0  0  0  0
  140.2900   74.9550  221.9670 C   0  0  0  0  0  0  0  0  0  0  0  0
  139.5580   73.9510  222.5180 N   0  0  0  0  0  0  0  0  0  0  0  0
  139.9730   72.6630  222.4120 C   0  0  0  0  0  0  0  0  0  0  0  0
  139.2240   71.5700  223.1080 C   0  0  0  0  0  0  0  0  0  0  0  0
  140.1770   70.5890  223.8010 C   0  0  0  0  0  0  0  0  0  0  0  0
  140.0930   70.7470  225.2720 N   0  0  0  0  0  0  0  0  0  0  0  0
  140.9800   71.8260  225.7660 C   0  0  0  0  0  0  0  0  0  0  0  0
  141.0850   71.8430  227.3080 C   0  0  0  0  0  0  0  0  0  0  0  0
  139.9500   71.0490  227.9620 C   0  0  0  0  0  0  0  0  0  0  0  0
  139.9240   69.5960  227.4540 C   0  0  0  0  0  0  0  0  0  0  0  0
  140.3650   69.4820  225.9840 C   0  0  0  0  0  0  0  0  0  0  0  0
  141.1380   72.3810  221.7730 N   0  0  0  0  0  0  0  0  0  0  0  0
  141.8850   73.3750  221.2280 C   0  0  0  0  0  0  0  0  0  0  0  0
  143.1390   73.0700  220.5880 N   0  0  0  0  0  0  0  0  0  0  0  0
  144.0840   74.1370  220.2220 C   0  0  0  0  0  0  0  0  0  0  0  0
  145.5480   73.7260  220.5030 C   0  0  0  0  0  0  0  0  0  0  0  0
  145.7630   72.2650  220.5460 N   0  0  0  0  0  0  0  0  0  0  0  0
  144.8480   71.5380  219.6580 C   0  0  0  0  0  0  0  0  0  0  0  0
  143.4100   71.6890  220.1620 C   0  0  0  0  0  0  0  0  0  0  0  0
  141.4520   74.6590  221.3280 N   0  0  0  0  0  0  0  0  0  0  0  0
  140.8620   77.4010  222.0140 C   0  0  0  0  0  0  0  0  0  0  0  0
  139.0729   82.1813  223.8142 H   0  0  0  0  0  0  0  0  0  0  0  0
  141.5060   81.6405  223.9162 H   0  0  0  0  0  0  0  0  0  0  0  0
  142.3336   79.4386  223.0862 H   0  0  0  0  0  0  0  0  0  0  0  0
  137.4583   80.5181  222.8912 H   0  0  0  0  0  0  0  0  0  0  0  0
  137.0175   78.2394  222.2647 H   0  0  0  0  0  0  0  0  0  0  0  0
  138.0808   78.0944  220.8162 H   0  0  0  0  0  0  0  0  0  0  0  0
  138.2238   76.4850  223.4097 H   0  0  0  0  0  0  0  0  0  0  0  0
  137.8317   75.8968  221.7378 H   0  0  0  0  0  0  0  0  0  0  0  0
  138.5596   72.0163  223.8626 H   0  0  0  0  0  0  0  0  0  0  0  0
  138.6447   71.0151  222.3554 H   0  0  0  0  0  0  0  0  0  0  0  0
  139.8995   69.5598  223.5296 H   0  0  0  0  0  0  0  0  0  0  0  0
  141.2067   70.7984  223.4757 H   0  0  0  0  0  0  0  0  0  0  0  0
  141.9853   71.6772  225.3451 H   0  0  0  0  0  0  0  0  0  0  0  0
  140.5482   72.7867  225.4487 H   0  0  0  0  0  0  0  0  0  0  0  0
  142.0471   71.3998  227.6047 H   0  0  0  0  0  0  0  0  0  0  0  0
  141.0114   72.8875  227.6452 H   0  0  0  0  0  0  0  0  0  0  0  0
  140.0961   71.0456  229.0523 H   0  0  0  0  0  0  0  0  0  0  0  0
  138.9943   71.5270  227.7008 H   0  0  0  0  0  0  0  0  0  0  0  0
  140.6026   68.9923  228.0745 H   0  0  0  0  0  0  0  0  0  0  0  0
  138.8874   69.2345  227.5228 H   0  0  0  0  0  0  0  0  0  0  0  0
  141.4429   69.2664  225.9434 H   0  0  0  0  0  0  0  0  0  0  0  0
  139.8019   68.6695  225.5016 H   0  0  0  0  0  0  0  0  0  0  0  0
  143.9751   74.3572  219.1498 H   0  0  0  0  0  0  0  0  0  0  0  0
  143.8536   75.0230  220.8319 H   0  0  0  0  0  0  0  0  0  0  0  0
  146.1838   74.1462  219.7098 H   0  0  0  0  0  0  0  0  0  0  0  0
  145.8027   74.1152  221.4998 H   0  0  0  0  0  0  0  0  0  0  0  0
  145.6390   71.9210  221.5280 H   0  0  0  0  0  0  0  0  0  0  0  0
  146.7480   72.0570  220.2570 H   0  0  0  0  0  0  0  0  0  0  0  0
  144.9236   71.9482  218.6402 H   0  0  0  0  0  0  0  0  0  0  0  0
  145.1203   70.4723  219.6483 H   0  0  0  0  0  0  0  0  0  0  0  0
  142.7157   71.4204  219.3522 H   0  0  0  0  0  0  0  0  0  0  0  0
  143.2721   71.0238  221.0272 H   0  0  0  0  0  0  0  0  0  0  0  0
  141.7427   77.0961  222.5983 H   0  0  0  0  0  0  0  0  0  0  0  0
  141.1093   77.5538  220.9531 H   0  0  0  0  0  0  0  0  0  0  0  0
  1  2  2  0
  2  3  1  0
  3  4  2  0
  4  5  1  0
  5  6  2  0
  5  7  1  0
  7  8  1  0
  8  9  1  0
  9 10  1  0
 10 11  2  0
 11 12  1  0
 12 13  1  0
 13 14  1  0
 14 15  1  0
 15 16  1  0
 16 17  1  0
 17 18  1  0
 18 19  1  0
 19 20  1  0
 12 21  2  0
 21 22  1  0
 22 23  1  0
 23 24  1  0
 24 25  1  0
 25 26  1  0
 26 27  1  0
 27 28  1  0
 22 29  2  0
  9 30  1  0
  6  1  1  0
 29 10  1  0
 30  4  1  0
 20 15  1  0
 28 23  1  0
  1 31  1  0
  2 32  1  0
  3 33  1  0
  6 34  1  0
  7 35  1  0
  7 36  1  0
  8 37  1  0
  8 38  1  0
 13 39  1  0
 13 40  1  0
 14 41  1  0
 14 42  1  0
 16 43  1  0
 16 44  1  0
 17 45  1  0
 17 46  1  0
 18 47  1  0
 18 48  1  0
 19 49  1  0
 19 50  1  0
 20 51  1  0
 20 52  1  0
 24 53  1  0
 24 54  1  0
 25 55  1  0
 25 56  1  0
 26 57  1  0
 26 58  1  0
 27 59  1  0
 27 60  1  0
 28 61  1  0
 28 62  1  0
 30 63  1  0
 30 64  1  0
M  CHG  1  26   1
M  END
>  <UniqueID>  (44) 
563

>  <SMILES>  (44) 
c1ccc2c(c1)CCN(c1nc(CCN3CCCCC3)nc(N3CC[NH2+]CC3)n1)C2

>  <Energy>  (44) 
74.96437688718524

>  <Genealogy>  (44) 
c1ccc2c(c1)CCN(c1nc(CCN3CCCCC3)nc(N3CC[NH2+]CC3)n1)C2 (protonated)
c1ccc2c(c1)CCN(c1nc(CCN3CCCCC3)nc(N3CC[NH2+]CC3)n1)C2 (3D coordinates assigned)
c1ccc2c(c1)CCN(c1nc(CCN3CCCCC3)nc(N3CC[NH2+]CC3)n1)C2 (nonaromatic ring conformer: 74.96437688718524 kcal/mol)

>  <smiles>  (44) 
c1ccc2c(c1)CCN(c1nc(CCN3CCCCC3)nc(N3CCNCC3)n1)C2

>  <score_type>  (44) 
oracle

>  <origin>  (44) 
autodockgpu

>  <m_score__min__energy>  (44) 
-9.0700000000000003

>  <m_primary>  (44) 
energy

>  <meeko>  (44) 
{"free_energy": -8.54, "intermolecular_energy": -10.03, "internal_energy": -0.85, "cluster_size": 4, "cluster_id": 3, "rank_in_cluster": 3}

>  <energy>  (44) 
-9.02

>  <cluster_rmsd>  (44) 
0.33

>  <rmsd>  (44) 
270.34

>  <cluster>  (44) 
1

$$$$
GZRQFJZYBWHXJG-UNYBPEQONA-O
     RDKit          3D

 64 68  0  0  0  0  0  0  0  0999 V2000
  146.1330   67.5020  218.7380 C   0  0  0  0  0  0  0  0  0  0  0  0
  144.9090   66.9450  219.1150 C   0  0  0  0  0  0  0  0  0  0  0  0
  143.8340   67.7740  219.4450 C   0  0  0  0  0  0  0  0  0  0  0  0
  143.9830   69.1710  219.4200 C   0  0  0  0  0  0  0  0  0  0  0  0
  145.2160   69.7290  219.0430 C   0  0  0  0  0  0  0  0  0  0  0  0
  146.2870   68.8900  218.6940 C   0  0  0  0  0  0  0  0  0  0  0  0
  145.3480   71.2170  218.9590 C   0  0  0  0  0  0  0  0  0  0  0  0
  144.5960   71.8840  220.1140 C   0  0  0  0  0  0  0  0  0  0  0  0
  143.2110   71.3900  220.2290 N   0  0  0  0  0  0  0  0  0  0  0  0
  142.2330   72.2020  220.9110 C   0  0  0  0  0  0  0  0  0  0  0  0
  141.3050   71.6270  221.7210 N   0  0  0  0  0  0  0  0  0  0  0  0
  140.3810   72.3910  222.3570 C   0  0  0  0  0  0  0  0  0  0  0  0
  139.2970   71.7480  223.1630 C   0  0  0  0  0  0  0  0  0  0  0  0
  139.7540   70.4050  223.7470 C   0  0  0  0  0  0  0  0  0  0  0  0
  139.8580   70.4970  225.2220 N   0  0  0  0  0  0  0  0  0  0  0  0
  140.7660   71.5860  225.6480 C   0  0  0  0  0  0  0  0  0  0  0  0
  141.0710   71.5430  227.1620 C   0  0  0  0  0  0  0  0  0  0  0  0
  140.0580   70.6780  227.9190 C   0  0  0  0  0  0  0  0  0  0  0  0
  140.0120   69.2480  227.3500 C   0  0  0  0  0  0  0  0  0  0  0  0
  140.2610   69.2140  225.8320 C   0  0  0  0  0  0  0  0  0  0  0  0
  140.3690   73.7350  222.1620 N   0  0  0  0  0  0  0  0  0  0  0  0
  141.2830   74.3220  221.3470 C   0  0  0  0  0  0  0  0  0  0  0  0
  141.2360   75.7440  221.1140 N   0  0  0  0  0  0  0  0  0  0  0  0
  140.4510   76.6310  221.9870 C   0  0  0  0  0  0  0  0  0  0  0  0
  141.1950   77.9560  222.2750 C   0  0  0  0  0  0  0  0  0  0  0  0
  142.2080   78.3070  221.2590 N   0  0  0  0  0  0  0  0  0  0  0  0
  141.8500   77.8250  219.9210 C   0  0  0  0  0  0  0  0  0  0  0  0
  141.8610   76.2930  219.9030 C   0  0  0  0  0  0  0  0  0  0  0  0
  142.2120   73.5480  220.7270 N   0  0  0  0  0  0  0  0  0  0  0  0
  142.8060   70.0640  219.7240 C   0  0  0  0  0  0  0  0  0  0  0  0
  146.9769   66.8471  218.4754 H   0  0  0  0  0  0  0  0  0  0  0  0
  144.7912   65.8520  219.1522 H   0  0  0  0  0  0  0  0  0  0  0  0
  142.8669   67.3313  219.7256 H   0  0  0  0  0  0  0  0  0  0  0  0
  147.2485   69.3263  218.3856 H   0  0  0  0  0  0  0  0  0  0  0  0
  146.4121   71.4904  219.0131 H   0  0  0  0  0  0  0  0  0  0  0  0
  144.9181   71.5608  218.0066 H   0  0  0  0  0  0  0  0  0  0  0  0
  145.1278   71.6725  221.0534 H   0  0  0  0  0  0  0  0  0  0  0  0
  144.5560   72.9650  219.9146 H   0  0  0  0  0  0  0  0  0  0  0  0
  139.0178   72.4202  223.9877 H   0  0  0  0  0  0  0  0  0  0  0  0
  138.4377   71.5630  222.5016 H   0  0  0  0  0  0  0  0  0  0  0  0
  139.0236   69.6263  223.4822 H   0  0  0  0  0  0  0  0  0  0  0  0
  140.7409   70.1509  223.3329 H   0  0  0  0  0  0  0  0  0  0  0  0
  141.7122   71.4933  225.0947 H   0  0  0  0  0  0  0  0  0  0  0  0
  140.2651   72.5418  225.4347 H   0  0  0  0  0  0  0  0  0  0  0  0
  142.0779   71.1261  227.3112 H   0  0  0  0  0  0  0  0  0  0  0  0
  141.0074   72.5687  227.5542 H   0  0  0  0  0  0  0  0  0  0  0  0
  140.3462   70.6331  228.9796 H   0  0  0  0  0  0  0  0  0  0  0  0
  139.0614   71.1298  227.8068 H   0  0  0  0  0  0  0  0  0  0  0  0
  140.7845   68.6441  227.8486 H   0  0  0  0  0  0  0  0  0  0  0  0
  139.0052   68.8452  227.5345 H   0  0  0  0  0  0  0  0  0  0  0  0
  141.3308   69.0414  225.6427 H   0  0  0  0  0  0  0  0  0  0  0  0
  139.6662   68.4021  225.3880 H   0  0  0  0  0  0  0  0  0  0  0  0
  139.4940   76.8593  221.4951 H   0  0  0  0  0  0  0  0  0  0  0  0
  140.2891   76.1139  222.9443 H   0  0  0  0  0  0  0  0  0  0  0  0
  140.4533   78.7671  222.3191 H   0  0  0  0  0  0  0  0  0  0  0  0
  141.7306   77.8210  223.2263 H   0  0  0  0  0  0  0  0  0  0  0  0
  143.1360   77.9040  221.5370 H   0  0  0  0  0  0  0  0  0  0  0  0
  142.3100   79.3490  221.2260 H   0  0  0  0  0  0  0  0  0  0  0  0
  140.8446   78.1864  219.6592 H   0  0  0  0  0  0  0  0  0  0  0  0
  142.5806   78.2028  219.1906 H   0  0  0  0  0  0  0  0  0  0  0  0
  141.3060   75.9403  219.0212 H   0  0  0  0  0  0  0  0  0  0  0  0
  142.9061   75.9521  219.8647 H   0  0  0  0  0  0  0  0  0  0  0  0
  142.1802   69.5742  220.4845 H   0  0  0  0  0  0  0  0  0  0  0  0
  142.2570   70.2207  218.7837 H   0  0  0  0  0  0  0  0  0  0  0  0
  1  2  2  0
  2  3  1  0
  3  4  2  0
  4  5  1  0
  5  6  2  0
  5  7  1  0
  7  8  1  0
  8  9  1  0
  9 10  1  0
 10 11  2  0
 11 12  1  0
 12 13  1  0
 13 14  1  0
 14 15  1  0
 15 16  1  0
 16 17  1  0
 17 18  1  0
 18 19  1  0
 19 20  1  0
 12 21  2  0
 21 22  1  0
 22 23  1  0
 23 24  1  0
 24 25  1  0
 25 26  1  0
 26 27  1  0
 27 28  1  0
 22 29  2  0
  9 30  1  0
  6  1  1  0
 29 10  1  0
 30  4  1  0
 20 15  1  0
 28 23  1  0
  1 31  1  0
  2 32  1  0
  3 33  1  0
  6 34  1  0
  7 35  1  0
  7 36  1  0
  8 37  1  0
  8 38  1  0
 13 39  1  0
 13 40  1  0
 14 41  1  0
 14 42  1  0
 16 43  1  0
 16 44  1  0
 17 45  1  0
 17 46  1  0
 18 47  1  0
 18 48  1  0
 19 49  1  0
 19 50  1  0
 20 51  1  0
 20 52  1  0
 24 53  1  0
 24 54  1  0
 25 55  1  0
 25 56  1  0
 26 57  1  0
 26 58  1  0
 27 59  1  0
 27 60  1  0
 28 61  1  0
 28 62  1  0
 30 63  1  0
 30 64  1  0
M  CHG  1  26   1
M  END
>  <UniqueID>  (45) 
563

>  <SMILES>  (45) 
c1ccc2c(c1)CCN(c1nc(CCN3CCCCC3)nc(N3CC[NH2+]CC3)n1)C2

>  <Energy>  (45) 
74.96437688718524

>  <Genealogy>  (45) 
c1ccc2c(c1)CCN(c1nc(CCN3CCCCC3)nc(N3CC[NH2+]CC3)n1)C2 (protonated)
c1ccc2c(c1)CCN(c1nc(CCN3CCCCC3)nc(N3CC[NH2+]CC3)n1)C2 (3D coordinates assigned)
c1ccc2c(c1)CCN(c1nc(CCN3CCCCC3)nc(N3CC[NH2+]CC3)n1)C2 (nonaromatic ring conformer: 74.96437688718524 kcal/mol)

>  <smiles>  (45) 
c1ccc2c(c1)CCN(c1nc(CCN3CCCCC3)nc(N3CCNCC3)n1)C2

>  <score_type>  (45) 
oracle

>  <origin>  (45) 
autodockgpu

>  <m_score__min__energy>  (45) 
-9.0700000000000003

>  <m_primary>  (45) 
energy

>  <meeko>  (45) 
{"free_energy": -9.06, "intermolecular_energy": -10.55, "internal_energy": -0.85, "cluster_size": 8, "cluster_id": 1, "rank_in_cluster": 3}

>  <energy>  (45) 
-9.02

>  <cluster_rmsd>  (45) 
0.09

>  <rmsd>  (45) 
270.16

>  <cluster>  (45) 
1

$$$$
GZRQFJZYBWHXJG-UNYBPEQONA-O
     RDKit          3D

 64 68  0  0  0  0  0  0  0  0999 V2000
  141.1070   73.6350  221.4830 C   0  0  0  0  0  0  0  0  0  0  0  0
  140.0860   74.4560  221.9660 C   0  0  0  0  0  0  0  0  0  0  0  0
  139.8990   75.7320  221.4270 C   0  0  0  0  0  0  0  0  0  0  0  0
  140.7480   76.2040  220.4130 C   0  0  0  0  0  0  0  0  0  0  0  0
  141.7770   75.3770  219.9300 C   0  0  0  0  0  0  0  0  0  0  0  0
  141.9460   74.0890  220.4620 C   0  0  0  0  0  0  0  0  0  0  0  0
  142.6370   75.8630  218.8070 C   0  0  0  0  0  0  0  0  0  0  0  0
  142.9540   77.3500  218.9840 C   0  0  0  0  0  0  0  0  0  0  0  0
  141.7370   78.1490  219.2240 N   0  0  0  0  0  0  0  0  0  0  0  0
  141.7640   79.5650  218.9470 C   0  0  0  0  0  0  0  0  0  0  0  0
  141.2420   80.4500  219.8370 N   0  0  0  0  0  0  0  0  0  0  0  0
  141.2620   81.7810  219.5730 C   0  0  0  0  0  0  0  0  0  0  0  0
  140.5950   82.7440  220.5040 C   0  0  0  0  0  0  0  0  0  0  0  0
  141.1530   82.6260  221.9270 C   0  0  0  0  0  0  0  0  0  0  0  0
  141.1950   81.2050  222.3440 N   0  0  0  0  0  0  0  0  0  0  0  0
  140.0180   80.8300  223.1600 C   0  0  0  0  0  0  0  0  0  0  0  0
  140.1640   79.4300  223.7990 C   0  0  0  0  0  0  0  0  0  0  0  0
  141.2590   78.6060  223.1140 C   0  0  0  0  0  0  0  0  0  0  0  0
  142.6100   79.3430  223.1460 C   0  0  0  0  0  0  0  0  0  0  0  0
  142.4480   80.8700  223.0510 C   0  0  0  0  0  0  0  0  0  0  0  0
  141.7830   82.2270  218.4010 N   0  0  0  0  0  0  0  0  0  0  0  0
  142.2970   81.3540  217.4970 C   0  0  0  0  0  0  0  0  0  0  0  0
  142.8110   81.8340  216.2380 N   0  0  0  0  0  0  0  0  0  0  0  0
  143.7210   82.9890  216.1810 C   0  0  0  0  0  0  0  0  0  0  0  0
  144.8480   82.7770  215.1440 C   0  0  0  0  0  0  0  0  0  0  0  0
  144.5160   81.7990  214.0880 N   0  0  0  0  0  0  0  0  0  0  0  0
  143.0820   81.7750  213.7780 C   0  0  0  0  0  0  0  0  0  0  0  0
  142.3000   81.2540  214.9880 C   0  0  0  0  0  0  0  0  0  0  0  0
  142.2850   80.0250  217.7790 N   0  0  0  0  0  0  0  0  0  0  0  0
  140.5120   77.5600  219.7960 C   0  0  0  0  0  0  0  0  0  0  0  0
  141.2509   72.6301  221.9066 H   0  0  0  0  0  0  0  0  0  0  0  0
  139.4281   74.0981  222.7716 H   0  0  0  0  0  0  0  0  0  0  0  0
  139.0831   76.3693  221.7988 H   0  0  0  0  0  0  0  0  0  0  0  0
  142.7411   73.4353  220.0741 H   0  0  0  0  0  0  0  0  0  0  0  0
  143.5764   75.2908  218.7958 H   0  0  0  0  0  0  0  0  0  0  0  0
  142.0984   75.7230  217.8582 H   0  0  0  0  0  0  0  0  0  0  0  0
  143.6321   77.4691  219.8419 H   0  0  0  0  0  0  0  0  0  0  0  0
  143.4204   77.7112  218.0556 H   0  0  0  0  0  0  0  0  0  0  0  0
  140.7611   83.7681  220.1385 H   0  0  0  0  0  0  0  0  0  0  0  0
  139.5209   82.5087  220.5333 H   0  0  0  0  0  0  0  0  0  0  0  0
  142.1706   83.0428  221.9540 H   0  0  0  0  0  0  0  0  0  0  0  0
  140.5006   83.1830  222.6156 H   0  0  0  0  0  0  0  0  0  0  0  0
  139.8932   81.5727  223.9618 H   0  0  0  0  0  0  0  0  0  0  0  0
  139.1432   80.8043  222.4937 H   0  0  0  0  0  0  0  0  0  0  0  0
  140.4195   79.5483  224.8624 H   0  0  0  0  0  0  0  0  0  0  0  0
  139.2089   78.8974  223.6800 H   0  0  0  0  0  0  0  0  0  0  0  0
  141.3629   77.6429  223.6353 H   0  0  0  0  0  0  0  0  0  0  0  0
  140.9720   78.4486  222.0638 H   0  0  0  0  0  0  0  0  0  0  0  0
  143.1225   79.1002  224.0885 H   0  0  0  0  0  0  0  0  0  0  0  0
  143.1927   79.0128  222.2734 H   0  0  0  0  0  0  0  0  0  0  0  0
  142.4189   81.2965  224.0646 H   0  0  0  0  0  0  0  0  0  0  0  0
  143.2988   81.2881  222.4930 H   0  0  0  0  0  0  0  0  0  0  0  0
  143.1446   83.8838  215.9035 H   0  0  0  0  0  0  0  0  0  0  0  0
  144.1840   83.1105  217.1714 H   0  0  0  0  0  0  0  0  0  0  0  0
  145.0637   83.7435  214.6650 H   0  0  0  0  0  0  0  0  0  0  0  0
  145.7126   82.3734  215.6914 H   0  0  0  0  0  0  0  0  0  0  0  0
  144.8220   80.8420  214.3880 H   0  0  0  0  0  0  0  0  0  0  0  0
  145.0440   82.0440  213.2180 H   0  0  0  0  0  0  0  0  0  0  0  0
  142.7435   82.7930  213.5348 H   0  0  0  0  0  0  0  0  0  0  0  0
  142.9066   81.1117  212.9182 H   0  0  0  0  0  0  0  0  0  0  0  0
  141.2398   81.5239  214.8738 H   0  0  0  0  0  0  0  0  0  0  0  0
  142.4179   80.1614  215.0360 H   0  0  0  0  0  0  0  0  0  0  0  0
  140.1260   78.2369  220.5724 H   0  0  0  0  0  0  0  0  0  0  0  0
  139.7927   77.4291  218.9741 H   0  0  0  0  0  0  0  0  0  0  0  0
  1  2  2  0
  2  3  1  0
  3  4  2  0
  4  5  1  0
  5  6  2  0
  5  7  1  0
  7  8  1  0
  8  9  1  0
  9 10  1  0
 10 11  2  0
 11 12  1  0
 12 13  1  0
 13 14  1  0
 14 15  1  0
 15 16  1  0
 16 17  1  0
 17 18  1  0
 18 19  1  0
 19 20  1  0
 12 21  2  0
 21 22  1  0
 22 23  1  0
 23 24  1  0
 24 25  1  0
 25 26  1  0
 26 27  1  0
 27 28  1  0
 22 29  2  0
  9 30  1  0
  6  1  1  0
 29 10  1  0
 30  4  1  0
 20 15  1  0
 28 23  1  0
  1 31  1  0
  2 32  1  0
  3 33  1  0
  6 34  1  0
  7 35  1  0
  7 36  1  0
  8 37  1  0
  8 38  1  0
 13 39  1  0
 13 40  1  0
 14 41  1  0
 14 42  1  0
 16 43  1  0
 16 44  1  0
 17 45  1  0
 17 46  1  0
 18 47  1  0
 18 48  1  0
 19 49  1  0
 19 50  1  0
 20 51  1  0
 20 52  1  0
 24 53  1  0
 24 54  1  0
 25 55  1  0
 25 56  1  0
 26 57  1  0
 26 58  1  0
 27 59  1  0
 27 60  1  0
 28 61  1  0
 28 62  1  0
 30 63  1  0
 30 64  1  0
M  CHG  1  26   1
M  END
>  <UniqueID>  (46) 
563

>  <SMILES>  (46) 
c1ccc2c(c1)CCN(c1nc(CCN3CCCCC3)nc(N3CC[NH2+]CC3)n1)C2

>  <Energy>  (46) 
74.96437688718524

>  <Genealogy>  (46) 
c1ccc2c(c1)CCN(c1nc(CCN3CCCCC3)nc(N3CC[NH2+]CC3)n1)C2 (protonated)
c1ccc2c(c1)CCN(c1nc(CCN3CCCCC3)nc(N3CC[NH2+]CC3)n1)C2 (3D coordinates assigned)
c1ccc2c(c1)CCN(c1nc(CCN3CCCCC3)nc(N3CC[NH2+]CC3)n1)C2 (nonaromatic ring conformer: 74.96437688718524 kcal/mol)

>  <smiles>  (46) 
c1ccc2c(c1)CCN(c1nc(CCN3CCCCC3)nc(N3CCNCC3)n1)C2

>  <score_type>  (46) 
oracle

>  <origin>  (46) 
autodockgpu

>  <m_score__min__energy>  (46) 
-9.0700000000000003

>  <m_primary>  (46) 
energy

>  <meeko>  (46) 
{"free_energy": -7.49, "intermolecular_energy": -8.99, "internal_energy": -1.56, "cluster_size": 1, "cluster_id": 6, "rank_in_cluster": 1}

>  <energy>  (46) 
-8.96

>  <cluster_rmsd>  (46) 
0.36

>  <rmsd>  (46) 
270.34

>  <cluster>  (46) 
1

$$$$
GZRQFJZYBWHXJG-UNYBPEQONA-O
     RDKit          3D

 64 68  0  0  0  0  0  0  0  0999 V2000
  146.1540   67.4930  218.7180 C   0  0  0  0  0  0  0  0  0  0  0  0
  144.9310   66.9360  219.0970 C   0  0  0  0  0  0  0  0  0  0  0  0
  143.8570   67.7650  219.4310 C   0  0  0  0  0  0  0  0  0  0  0  0
  144.0070   69.1610  219.4090 C   0  0  0  0  0  0  0  0  0  0  0  0
  145.2390   69.7200  219.0300 C   0  0  0  0  0  0  0  0  0  0  0  0
  146.3080   68.8810  218.6760 C   0  0  0  0  0  0  0  0  0  0  0  0
  145.3720   71.2080  218.9490 C   0  0  0  0  0  0  0  0  0  0  0  0
  144.6240   71.8730  220.1070 C   0  0  0  0  0  0  0  0  0  0  0  0
  143.2390   71.3800  220.2250 N   0  0  0  0  0  0  0  0  0  0  0  0
  142.2620   72.1910  220.9120 C   0  0  0  0  0  0  0  0  0  0  0  0
  141.3450   71.6150  221.7330 N   0  0  0  0  0  0  0  0  0  0  0  0
  140.4230   72.3790  222.3730 C   0  0  0  0  0  0  0  0  0  0  0  0
  139.3500   71.7340  223.1940 C   0  0  0  0  0  0  0  0  0  0  0  0
  139.8130   70.3890  223.7660 C   0  0  0  0  0  0  0  0  0  0  0  0
  139.8930   70.4630  225.2440 N   0  0  0  0  0  0  0  0  0  0  0  0
  140.7800   71.5580  225.6990 C   0  0  0  0  0  0  0  0  0  0  0  0
  141.0620   71.4970  227.2170 C   0  0  0  0  0  0  0  0  0  0  0  0
  140.0490   70.6100  227.9460 C   0  0  0  0  0  0  0  0  0  0  0  0
  140.0310   69.1870  227.3580 C   0  0  0  0  0  0  0  0  0  0  0  0
  140.3030   69.1760  225.8440 C   0  0  0  0  0  0  0  0  0  0  0  0
  140.4030   73.7210  222.1710 N   0  0  0  0  0  0  0  0  0  0  0  0
  141.3060   74.3080  221.3440 C   0  0  0  0  0  0  0  0  0  0  0  0
  141.2510   75.7290  221.1050 N   0  0  0  0  0  0  0  0  0  0  0  0
  140.4530   76.6140  221.9680 C   0  0  0  0  0  0  0  0  0  0  0  0
  141.1850   77.9450  222.2540 C   0  0  0  0  0  0  0  0  0  0  0  0
  142.2030   78.2990  221.2430 N   0  0  0  0  0  0  0  0  0  0  0  0
  141.8560   77.8080  219.9050 C   0  0  0  0  0  0  0  0  0  0  0  0
  141.8790   76.2770  219.8940 C   0  0  0  0  0  0  0  0  0  0  0  0
  142.2330   73.5350  220.7200 N   0  0  0  0  0  0  0  0  0  0  0  0
  142.8320   70.0550  219.7190 C   0  0  0  0  0  0  0  0  0  0  0  0
  146.9971   66.8383  218.4522 H   0  0  0  0  0  0  0  0  0  0  0  0
  144.8129   65.8429  219.1327 H   0  0  0  0  0  0  0  0  0  0  0  0
  142.8901   67.3223  219.7123 H   0  0  0  0  0  0  0  0  0  0  0  0
  147.2686   69.3175  218.3650 H   0  0  0  0  0  0  0  0  0  0  0  0
  146.4365   71.4803  219.0008 H   0  0  0  0  0  0  0  0  0  0  0  0
  144.9398   71.5542  217.9986 H   0  0  0  0  0  0  0  0  0  0  0  0
  145.1583   71.6592  221.0444 H   0  0  0  0  0  0  0  0  0  0  0  0
  144.5843   72.9544  219.9097 H   0  0  0  0  0  0  0  0  0  0  0  0
  139.0846   72.4037  224.0253 H   0  0  0  0  0  0  0  0  0  0  0  0
  138.4807   71.5524  222.5450 H   0  0  0  0  0  0  0  0  0  0  0  0
  139.0957   69.6058  223.4795 H   0  0  0  0  0  0  0  0  0  0  0  0
  140.8087   70.1509  223.3636 H   0  0  0  0  0  0  0  0  0  0  0  0
  141.7357   71.4856  225.1592 H   0  0  0  0  0  0  0  0  0  0  0  0
  140.2701   72.5103  225.4911 H   0  0  0  0  0  0  0  0  0  0  0  0
  142.0715   71.0901  227.3760 H   0  0  0  0  0  0  0  0  0  0  0  0
  140.9795   72.5163  227.6223 H   0  0  0  0  0  0  0  0  0  0  0  0
  140.3207   70.5551  229.0105 H   0  0  0  0  0  0  0  0  0  0  0  0
  139.0485   71.0504  227.8236 H   0  0  0  0  0  0  0  0  0  0  0  0
  140.8041   68.5871  227.8604 H   0  0  0  0  0  0  0  0  0  0  0  0
  139.0271   68.7684  227.5220 H   0  0  0  0  0  0  0  0  0  0  0  0
  141.3775   69.0190  225.6687 H   0  0  0  0  0  0  0  0  0  0  0  0
  139.7249   68.3629  225.3807 H   0  0  0  0  0  0  0  0  0  0  0  0
  139.4977   76.8327  221.4683 H   0  0  0  0  0  0  0  0  0  0  0  0
  140.2877   76.1005  222.9267 H   0  0  0  0  0  0  0  0  0  0  0  0
  140.4370   78.7508  222.2889 H   0  0  0  0  0  0  0  0  0  0  0  0
  141.7152   77.8184  223.2095 H   0  0  0  0  0  0  0  0  0  0  0  0
  143.1310   77.9050  221.5280 H   0  0  0  0  0  0  0  0  0  0  0  0
  142.2970   79.3420  221.2050 H   0  0  0  0  0  0  0  0  0  0  0  0
  140.8492   78.1603  219.6361 H   0  0  0  0  0  0  0  0  0  0  0  0
  142.5876   78.1881  219.1768 H   0  0  0  0  0  0  0  0  0  0  0  0
  141.3317   75.9159  219.0108 H   0  0  0  0  0  0  0  0  0  0  0  0
  142.9268   75.9438  219.8628 H   0  0  0  0  0  0  0  0  0  0  0  0
  142.2085   69.5643  220.4808 H   0  0  0  0  0  0  0  0  0  0  0  0
  142.2805   70.2141  218.7806 H   0  0  0  0  0  0  0  0  0  0  0  0
  1  2  2  0
  2  3  1  0
  3  4  2  0
  4  5  1  0
  5  6  2  0
  5  7  1  0
  7  8  1  0
  8  9  1  0
  9 10  1  0
 10 11  2  0
 11 12  1  0
 12 13  1  0
 13 14  1  0
 14 15  1  0
 15 16  1  0
 16 17  1  0
 17 18  1  0
 18 19  1  0
 19 20  1  0
 12 21  2  0
 21 22  1  0
 22 23  1  0
 23 24  1  0
 24 25  1  0
 25 26  1  0
 26 27  1  0
 27 28  1  0
 22 29  2  0
  9 30  1  0
  6  1  1  0
 29 10  1  0
 30  4  1  0
 20 15  1  0
 28 23  1  0
  1 31  1  0
  2 32  1  0
  3 33  1  0
  6 34  1  0
  7 35  1  0
  7 36  1  0
  8 37  1  0
  8 38  1  0
 13 39  1  0
 13 40  1  0
 14 41  1  0
 14 42  1  0
 16 43  1  0
 16 44  1  0
 17 45  1  0
 17 46  1  0
 18 47  1  0
 18 48  1  0
 19 49  1  0
 19 50  1  0
 20 51  1  0
 20 52  1  0
 24 53  1  0
 24 54  1  0
 25 55  1  0
 25 56  1  0
 26 57  1  0
 26 58  1  0
 27 59  1  0
 27 60  1  0
 28 61  1  0
 28 62  1  0
 30 63  1  0
 30 64  1  0
M  CHG  1  26   1
M  END
>  <UniqueID>  (47) 
563

>  <SMILES>  (47) 
c1ccc2c(c1)CCN(c1nc(CCN3CCCCC3)nc(N3CC[NH2+]CC3)n1)C2

>  <Energy>  (47) 
74.96437688718524

>  <Genealogy>  (47) 
c1ccc2c(c1)CCN(c1nc(CCN3CCCCC3)nc(N3CC[NH2+]CC3)n1)C2 (protonated)
c1ccc2c(c1)CCN(c1nc(CCN3CCCCC3)nc(N3CC[NH2+]CC3)n1)C2 (3D coordinates assigned)
c1ccc2c(c1)CCN(c1nc(CCN3CCCCC3)nc(N3CC[NH2+]CC3)n1)C2 (nonaromatic ring conformer: 74.96437688718524 kcal/mol)

>  <smiles>  (47) 
c1ccc2c(c1)CCN(c1nc(CCN3CCCCC3)nc(N3CCNCC3)n1)C2

>  <score_type>  (47) 
oracle

>  <origin>  (47) 
autodockgpu

>  <m_score__min__energy>  (47) 
-9.0700000000000003

>  <m_primary>  (47) 
energy

>  <meeko>  (47) 
{"free_energy": -9.07, "intermolecular_energy": -10.56, "internal_energy": -0.85, "cluster_size": 8, "cluster_id": 1, "rank_in_cluster": 1}

>  <energy>  (47) 
-8.76

>  <cluster_rmsd>  (47) 
0.35

>  <rmsd>  (47) 
270.08

>  <cluster>  (47) 
1

$$$$
GZRQFJZYBWHXJG-UNYBPEQONA-O
     RDKit          3D

 64 68  0  0  0  0  0  0  0  0999 V2000
  140.0660   67.7700  227.1440 C   0  0  0  0  0  0  0  0  0  0  0  0
  140.9590   68.7510  227.5790 C   0  0  0  0  0  0  0  0  0  0  0  0
  141.0620   69.9610  226.8890 C   0  0  0  0  0  0  0  0  0  0  0  0
  140.2830   70.1910  225.7430 C   0  0  0  0  0  0  0  0  0  0  0  0
  139.3860   69.2010  225.3050 C   0  0  0  0  0  0  0  0  0  0  0  0
  139.2740   67.9950  226.0150 C   0  0  0  0  0  0  0  0  0  0  0  0
  138.5150   69.4780  224.1200 C   0  0  0  0  0  0  0  0  0  0  0  0
  139.3000   70.2400  223.0500 C   0  0  0  0  0  0  0  0  0  0  0  0
  139.9860   71.4230  223.6050 N   0  0  0  0  0  0  0  0  0  0  0  0
  140.3630   72.4950  222.7160 C   0  0  0  0  0  0  0  0  0  0  0  0
  139.6180   73.6310  222.6540 N   0  0  0  0  0  0  0  0  0  0  0  0
  139.9700   74.6360  221.8130 C   0  0  0  0  0  0  0  0  0  0  0  0
  139.0920   75.8400  221.6690 C   0  0  0  0  0  0  0  0  0  0  0  0
  139.8330   76.9960  220.9870 C   0  0  0  0  0  0  0  0  0  0  0  0
  140.4970   77.8480  222.0020 N   0  0  0  0  0  0  0  0  0  0  0  0
  139.5190   78.6000  222.8210 C   0  0  0  0  0  0  0  0  0  0  0  0
  140.1930   79.6650  223.7150 C   0  0  0  0  0  0  0  0  0  0  0  0
  141.6960   79.4110  223.8640 C   0  0  0  0  0  0  0  0  0  0  0  0
  142.3900   79.3610  222.4910 C   0  0  0  0  0  0  0  0  0  0  0  0
  141.4860   78.7650  221.3990 C   0  0  0  0  0  0  0  0  0  0  0  0
  141.0570   74.4950  221.0120 N   0  0  0  0  0  0  0  0  0  0  0  0
  141.8040   73.3610  221.0550 C   0  0  0  0  0  0  0  0  0  0  0  0
  142.9320   73.2040  220.1720 N   0  0  0  0  0  0  0  0  0  0  0  0
  142.7650   72.6500  218.8190 C   0  0  0  0  0  0  0  0  0  0  0  0
  143.6390   73.3960  217.7840 C   0  0  0  0  0  0  0  0  0  0  0  0
  144.8050   74.0890  218.3710 N   0  0  0  0  0  0  0  0  0  0  0  0
  145.3230   73.4020  219.5590 C   0  0  0  0  0  0  0  0  0  0  0  0
  144.2850   73.4620  220.6840 C   0  0  0  0  0  0  0  0  0  0  0  0
  141.4500   72.3670  221.9120 N   0  0  0  0  0  0  0  0  0  0  0  0
  140.3560   71.5180  225.0300 C   0  0  0  0  0  0  0  0  0  0  0  0
  139.9858   66.8188  227.6907 H   0  0  0  0  0  0  0  0  0  0  0  0
  141.5827   68.5706  228.4669 H   0  0  0  0  0  0  0  0  0  0  0  0
  141.7559   70.7369  227.2445 H   0  0  0  0  0  0  0  0  0  0  0  0
  138.5616   67.2259  225.6820 H   0  0  0  0  0  0  0  0  0  0  0  0
  138.1600   68.5253  223.7000 H   0  0  0  0  0  0  0  0  0  0  0  0
  137.6595   70.0908  224.4403 H   0  0  0  0  0  0  0  0  0  0  0  0
  140.0517   69.5659  222.6135 H   0  0  0  0  0  0  0  0  0  0  0  0
  138.5867   70.5873  222.2881 H   0  0  0  0  0  0  0  0  0  0  0  0
  138.2135   75.5717  221.0638 H   0  0  0  0  0  0  0  0  0  0  0  0
  138.7888   76.1688  222.6740 H   0  0  0  0  0  0  0  0  0  0  0  0
  140.5914   76.5880  220.3027 H   0  0  0  0  0  0  0  0  0  0  0  0
  139.1091   77.6047  220.4254 H   0  0  0  0  0  0  0  0  0  0  0  0
  138.8077   79.1022  222.1488 H   0  0  0  0  0  0  0  0  0  0  0  0
  139.0118   77.8810  223.4811 H   0  0  0  0  0  0  0  0  0  0  0  0
  140.0421   80.6567  223.2635 H   0  0  0  0  0  0  0  0  0  0  0  0
  139.7358   79.6130  224.7141 H   0  0  0  0  0  0  0  0  0  0  0  0
  142.1395   80.2214  224.4611 H   0  0  0  0  0  0  0  0  0  0  0  0
  141.8379   78.4405  224.3620 H   0  0  0  0  0  0  0  0  0  0  0  0
  142.6695   80.3840  222.1989 H   0  0  0  0  0  0  0  0  0  0  0  0
  143.2740   78.7132  222.5852 H   0  0  0  0  0  0  0  0  0  0  0  0
  140.9583   79.5786  220.8797 H   0  0  0  0  0  0  0  0  0  0  0  0
  142.1068   78.2048  220.6843 H   0  0  0  0  0  0  0  0  0  0  0  0
  143.0534   71.5885  218.8302 H   0  0  0  0  0  0  0  0  0  0  0  0
  141.7111   72.7689  218.5273 H   0  0  0  0  0  0  0  0  0  0  0  0
  144.0054   72.6643  217.0489 H   0  0  0  0  0  0  0  0  0  0  0  0
  143.0036   74.1705  217.3296 H   0  0  0  0  0  0  0  0  0  0  0  0
  144.5380   75.0700  218.6250 H   0  0  0  0  0  0  0  0  0  0  0  0
  145.5660   74.1400  217.6530 H   0  0  0  0  0  0  0  0  0  0  0  0
  145.5331   72.3511  219.3111 H   0  0  0  0  0  0  0  0  0  0  0  0
  146.2484   73.8956  219.8906 H   0  0  0  0  0  0  0  0  0  0  0  0
  144.5327   72.7040  221.4417 H   0  0  0  0  0  0  0  0  0  0  0  0
  144.3051   74.4702  221.1235 H   0  0  0  0  0  0  0  0  0  0  0  0
  141.3855   71.8989  225.1011 H   0  0  0  0  0  0  0  0  0  0  0  0
  139.6362   72.1941  225.5145 H   0  0  0  0  0  0  0  0  0  0  0  0
  1  2  2  0
  2  3  1  0
  3  4  2  0
  4  5  1  0
  5  6  2  0
  5  7  1  0
  7  8  1  0
  8  9  1  0
  9 10  1  0
 10 11  2  0
 11 12  1  0
 12 13  1  0
 13 14  1  0
 14 15  1  0
 15 16  1  0
 16 17  1  0
 17 18  1  0
 18 19  1  0
 19 20  1  0
 12 21  2  0
 21 22  1  0
 22 23  1  0
 23 24  1  0
 24 25  1  0
 25 26  1  0
 26 27  1  0
 27 28  1  0
 22 29  2  0
  9 30  1  0
  6  1  1  0
 29 10  1  0
 30  4  1  0
 20 15  1  0
 28 23  1  0
  1 31  1  0
  2 32  1  0
  3 33  1  0
  6 34  1  0
  7 35  1  0
  7 36  1  0
  8 37  1  0
  8 38  1  0
 13 39  1  0
 13 40  1  0
 14 41  1  0
 14 42  1  0
 16 43  1  0
 16 44  1  0
 17 45  1  0
 17 46  1  0
 18 47  1  0
 18 48  1  0
 19 49  1  0
 19 50  1  0
 20 51  1  0
 20 52  1  0
 24 53  1  0
 24 54  1  0
 25 55  1  0
 25 56  1  0
 26 57  1  0
 26 58  1  0
 27 59  1  0
 27 60  1  0
 28 61  1  0
 28 62  1  0
 30 63  1  0
 30 64  1  0
M  CHG  1  26   1
M  END
>  <UniqueID>  (48) 
563

>  <SMILES>  (48) 
c1ccc2c(c1)CCN(c1nc(CCN3CCCCC3)nc(N3CC[NH2+]CC3)n1)C2

>  <Energy>  (48) 
74.96437688718524

>  <Genealogy>  (48) 
c1ccc2c(c1)CCN(c1nc(CCN3CCCCC3)nc(N3CC[NH2+]CC3)n1)C2 (protonated)
c1ccc2c(c1)CCN(c1nc(CCN3CCCCC3)nc(N3CC[NH2+]CC3)n1)C2 (3D coordinates assigned)
c1ccc2c(c1)CCN(c1nc(CCN3CCCCC3)nc(N3CC[NH2+]CC3)n1)C2 (nonaromatic ring conformer: 74.96437688718524 kcal/mol)

>  <smiles>  (48) 
c1ccc2c(c1)CCN(c1nc(CCN3CCCCC3)nc(N3CCNCC3)n1)C2

>  <score_type>  (48) 
oracle

>  <origin>  (48) 
autodockgpu

>  <m_score__min__energy>  (48) 
-9.0700000000000003

>  <m_primary>  (48) 
energy

>  <meeko>  (48) 
{"free_energy": -8.85, "intermolecular_energy": -10.34, "internal_energy": -0.81, "cluster_size": 3, "cluster_id": 2, "rank_in_cluster": 1}

>  <energy>  (48) 
-8.63

>  <cluster_rmsd>  (48) 
0.56

>  <rmsd>  (48) 
270.15

>  <cluster>  (48) 
1

$$$$
GZRQFJZYBWHXJG-UNYBPEQONA-O
     RDKit          3D

 64 68  0  0  0  0  0  0  0  0999 V2000
  139.5650   80.6280  223.8410 C   0  0  0  0  0  0  0  0  0  0  0  0
  140.9370   80.4360  223.6670 C   0  0  0  0  0  0  0  0  0  0  0  0
  141.4110   79.2640  223.0720 C   0  0  0  0  0  0  0  0  0  0  0  0
  140.5120   78.2640  222.6630 C   0  0  0  0  0  0  0  0  0  0  0  0
  139.1320   78.4590  222.8420 C   0  0  0  0  0  0  0  0  0  0  0  0
  138.6620   79.6470  223.4230 C   0  0  0  0  0  0  0  0  0  0  0  0
  138.1790   77.4160  222.3470 C   0  0  0  0  0  0  0  0  0  0  0  0
  138.7340   76.0160  222.6190 C   0  0  0  0  0  0  0  0  0  0  0  0
  140.1190   75.8670  222.1360 N   0  0  0  0  0  0  0  0  0  0  0  0
  140.6310   74.5450  221.8710 C   0  0  0  0  0  0  0  0  0  0  0  0
  139.9800   73.4480  222.3420 N   0  0  0  0  0  0  0  0  0  0  0  0
  140.4660   72.2050  222.0970 C   0  0  0  0  0  0  0  0  0  0  0  0
  139.8060   71.0060  222.7040 C   0  0  0  0  0  0  0  0  0  0  0  0
  138.8730   71.4010  223.8550 C   0  0  0  0  0  0  0  0  0  0  0  0
  139.3130   70.7570  225.1150 N   0  0  0  0  0  0  0  0  0  0  0  0
  140.4550   71.4690  225.7330 C   0  0  0  0  0  0  0  0  0  0  0  0
  141.0750   70.6820  226.9080 C   0  0  0  0  0  0  0  0  0  0  0  0
  140.1300   69.5910  227.4210 C   0  0  0  0  0  0  0  0  0  0  0  0
  139.7320   68.6240  226.2920 C   0  0  0  0  0  0  0  0  0  0  0  0
  139.6300   69.3270  224.9270 C   0  0  0  0  0  0  0  0  0  0  0  0
  141.6210   72.0580  221.4000 N   0  0  0  0  0  0  0  0  0  0  0  0
  142.2880   73.1450  220.9330 C   0  0  0  0  0  0  0  0  0  0  0  0
  143.5360   72.9800  220.2290 N   0  0  0  0  0  0  0  0  0  0  0  0
  143.6150   72.1700  219.0040 C   0  0  0  0  0  0  0  0  0  0  0  0
  144.5320   72.8230  217.9440 C   0  0  0  0  0  0  0  0  0  0  0  0
  145.5250   73.7610  218.5070 N   0  0  0  0  0  0  0  0  0  0  0  0
  145.9500   73.3810  219.8580 C   0  0  0  0  0  0  0  0  0  0  0  0
  144.7710   73.5080  220.8270 C   0  0  0  0  0  0  0  0  0  0  0  0
  141.7850   74.3840  221.1720 N   0  0  0  0  0  0  0  0  0  0  0  0
  141.0220   77.0240  221.9730 C   0  0  0  0  0  0  0  0  0  0  0  0
  139.1945   81.5526  224.3077 H   0  0  0  0  0  0  0  0  0  0  0  0
  141.6460   81.2088  223.9989 H   0  0  0  0  0  0  0  0  0  0  0  0
  142.4918   79.1234  222.9231 H   0  0  0  0  0  0  0  0  0  0  0  0
  137.5809   79.8061  223.5495 H   0  0  0  0  0  0  0  0  0  0  0  0
  137.2150   77.5308  222.8642 H   0  0  0  0  0  0  0  0  0  0  0  0
  138.0428   77.5420  221.2628 H   0  0  0  0  0  0  0  0  0  0  0  0
  138.7142   75.8306  223.7031 H   0  0  0  0  0  0  0  0  0  0  0  0
  138.1064   75.2912  222.0796 H   0  0  0  0  0  0  0  0  0  0  0  0
  139.2196   70.4902  221.9294 H   0  0  0  0  0  0  0  0  0  0  0  0
  140.5897   70.3467  223.1055 H   0  0  0  0  0  0  0  0  0  0  0  0
  138.8923   72.4938  223.9795 H   0  0  0  0  0  0  0  0  0  0  0  0
  137.8516   71.0676  223.6194 H   0  0  0  0  0  0  0  0  0  0  0  0
  141.2285   71.6274  224.9671 H   0  0  0  0  0  0  0  0  0  0  0  0
  140.0790   72.4232  226.1306 H   0  0  0  0  0  0  0  0  0  0  0  0
  142.0102   70.2128  226.5686 H   0  0  0  0  0  0  0  0  0  0  0  0
  141.2635   71.3870  227.7311 H   0  0  0  0  0  0  0  0  0  0  0  0
  140.6347   69.0245  228.2175 H   0  0  0  0  0  0  0  0  0  0  0  0
  139.2185   70.0720  227.8053 H   0  0  0  0  0  0  0  0  0  0  0  0
  140.4892   67.8290  226.2243 H   0  0  0  0  0  0  0  0  0  0  0  0
  138.7397   68.2156  226.5342 H   0  0  0  0  0  0  0  0  0  0  0  0
  140.5894   69.2337  224.3971 H   0  0  0  0  0  0  0  0  0  0  0  0
  138.8297   68.8553  224.3380 H   0  0  0  0  0  0  0  0  0  0  0  0
  144.0150   71.1773  219.2583 H   0  0  0  0  0  0  0  0  0  0  0  0
  142.6032   72.0908  218.5797 H   0  0  0  0  0  0  0  0  0  0  0  0
  145.0717   72.0245  217.4139 H   0  0  0  0  0  0  0  0  0  0  0  0
  143.8821   73.4086  217.2771 H   0  0  0  0  0  0  0  0  0  0  0  0
  145.1200   74.7280  218.5290 H   0  0  0  0  0  0  0  0  0  0  0  0
  146.3650   73.7820  217.8820 H   0  0  0  0  0  0  0  0  0  0  0  0
  146.3056   72.3401  219.8498 H   0  0  0  0  0  0  0  0  0  0  0  0
  146.7621   74.0473  220.1844 H   0  0  0  0  0  0  0  0  0  0  0  0
  144.9966   72.9431  221.7435 H   0  0  0  0  0  0  0  0  0  0  0  0
  144.6206   74.5731  221.0569 H   0  0  0  0  0  0  0  0  0  0  0  0
  142.0043   76.7656  222.3952 H   0  0  0  0  0  0  0  0  0  0  0  0
  141.0861   77.2456  220.8975 H   0  0  0  0  0  0  0  0  0  0  0  0
  1  2  2  0
  2  3  1  0
  3  4  2  0
  4  5  1  0
  5  6  2  0
  5  7  1  0
  7  8  1  0
  8  9  1  0
  9 10  1  0
 10 11  2  0
 11 12  1  0
 12 13  1  0
 13 14  1  0
 14 15  1  0
 15 16  1  0
 16 17  1  0
 17 18  1  0
 18 19  1  0
 19 20  1  0
 12 21  2  0
 21 22  1  0
 22 23  1  0
 23 24  1  0
 24 25  1  0
 25 26  1  0
 26 27  1  0
 27 28  1  0
 22 29  2  0
  9 30  1  0
  6  1  1  0
 29 10  1  0
 30  4  1  0
 20 15  1  0
 28 23  1  0
  1 31  1  0
  2 32  1  0
  3 33  1  0
  6 34  1  0
  7 35  1  0
  7 36  1  0
  8 37  1  0
  8 38  1  0
 13 39  1  0
 13 40  1  0
 14 41  1  0
 14 42  1  0
 16 43  1  0
 16 44  1  0
 17 45  1  0
 17 46  1  0
 18 47  1  0
 18 48  1  0
 19 49  1  0
 19 50  1  0
 20 51  1  0
 20 52  1  0
 24 53  1  0
 24 54  1  0
 25 55  1  0
 25 56  1  0
 26 57  1  0
 26 58  1  0
 27 59  1  0
 27 60  1  0
 28 61  1  0
 28 62  1  0
 30 63  1  0
 30 64  1  0
M  CHG  1  26   1
M  END
>  <UniqueID>  (49) 
563

>  <SMILES>  (49) 
c1ccc2c(c1)CCN(c1nc(CCN3CCCCC3)nc(N3CC[NH2+]CC3)n1)C2

>  <Energy>  (49) 
74.96437688718524

>  <Genealogy>  (49) 
c1ccc2c(c1)CCN(c1nc(CCN3CCCCC3)nc(N3CC[NH2+]CC3)n1)C2 (protonated)
c1ccc2c(c1)CCN(c1nc(CCN3CCCCC3)nc(N3CC[NH2+]CC3)n1)C2 (3D coordinates assigned)
c1ccc2c(c1)CCN(c1nc(CCN3CCCCC3)nc(N3CC[NH2+]CC3)n1)C2 (nonaromatic ring conformer: 74.96437688718524 kcal/mol)

>  <smiles>  (49) 
c1ccc2c(c1)CCN(c1nc(CCN3CCCCC3)nc(N3CCNCC3)n1)C2

>  <score_type>  (49) 
oracle

>  <origin>  (49) 
autodockgpu

>  <m_score__min__energy>  (49) 
-9.0700000000000003

>  <m_primary>  (49) 
energy

>  <meeko>  (49) 
{"free_energy": -8.47, "intermolecular_energy": -9.96, "internal_energy": -0.87, "cluster_size": 4, "cluster_id": 3, "rank_in_cluster": 4}

>  <energy>  (49) 
-8.85

>  <cluster_rmsd>  (49) 
0.0

>  <rmsd>  (49) 
270.49

>  <cluster>  (49) 
2

$$$$
GZRQFJZYBWHXJG-UNYBPEQONA-O
     RDKit          3D

 64 68  0  0  0  0  0  0  0  0999 V2000
  146.2550   67.8520  219.0030 C   0  0  0  0  0  0  0  0  0  0  0  0
  145.0340   67.2610  219.3370 C   0  0  0  0  0  0  0  0  0  0  0  0
  143.9260   68.0600  219.6320 C   0  0  0  0  0  0  0  0  0  0  0  0
  144.0380   69.4600  219.6150 C   0  0  0  0  0  0  0  0  0  0  0  0
  145.2680   70.0520  219.2820 C   0  0  0  0  0  0  0  0  0  0  0  0
  146.3720   69.2440  218.9670 C   0  0  0  0  0  0  0  0  0  0  0  0
  145.3610   71.5440  219.2050 C   0  0  0  0  0  0  0  0  0  0  0  0
  144.5530   72.1870  220.3350 C   0  0  0  0  0  0  0  0  0  0  0  0
  143.1790   71.6550  220.4020 N   0  0  0  0  0  0  0  0  0  0  0  0
  142.1560   72.4380  221.0520 C   0  0  0  0  0  0  0  0  0  0  0  0
  141.1810   71.8290  221.7790 N   0  0  0  0  0  0  0  0  0  0  0  0
  140.2160   72.5660  222.3840 C   0  0  0  0  0  0  0  0  0  0  0  0
  139.0860   71.8900  223.0950 C   0  0  0  0  0  0  0  0  0  0  0  0
  139.3100   70.3760  223.1910 C   0  0  0  0  0  0  0  0  0  0  0  0
  139.9260   70.0320  224.4940 N   0  0  0  0  0  0  0  0  0  0  0  0
  139.2120   68.9250  225.1720 C   0  0  0  0  0  0  0  0  0  0  0  0
  139.6900   68.7180  226.6260 C   0  0  0  0  0  0  0  0  0  0  0  0
  141.0410   69.3930  226.8810 C   0  0  0  0  0  0  0  0  0  0  0  0
  140.9810   70.8960  226.5570 C   0  0  0  0  0  0  0  0  0  0  0  0
  140.0330   71.2060  225.3850 C   0  0  0  0  0  0  0  0  0  0  0  0
  140.2110   73.9160  222.2420 N   0  0  0  0  0  0  0  0  0  0  0  0
  141.1710   74.5370  221.5100 C   0  0  0  0  0  0  0  0  0  0  0  0
  141.1340   75.9670  221.3310 N   0  0  0  0  0  0  0  0  0  0  0  0
  140.5000   76.8410  222.3310 C   0  0  0  0  0  0  0  0  0  0  0  0
  141.3130   78.1370  222.5560 C   0  0  0  0  0  0  0  0  0  0  0  0
  142.1890   78.4990  221.4230 N   0  0  0  0  0  0  0  0  0  0  0  0
  141.6380   78.0730  220.1320 C   0  0  0  0  0  0  0  0  0  0  0  0
  141.6040   76.5440  220.0630 C   0  0  0  0  0  0  0  0  0  0  0  0
  142.1410   73.7900  220.9200 N   0  0  0  0  0  0  0  0  0  0  0  0
  142.8280   70.3200  219.8810 C   0  0  0  0  0  0  0  0  0  0  0  0
  147.1250   67.2211  218.7682 H   0  0  0  0  0  0  0  0  0  0  0  0
  144.9446   66.1651  219.3678 H   0  0  0  0  0  0  0  0  0  0  0  0
  142.9622   67.5906  219.8785 H   0  0  0  0  0  0  0  0  0  0  0  0
  147.3308   69.7075  218.6914 H   0  0  0  0  0  0  0  0  0  0  0  0
  146.4147   71.8468  219.2949 H   0  0  0  0  0  0  0  0  0  0  0  0
  144.9533   71.8780  218.2395 H   0  0  0  0  0  0  0  0  0  0  0  0
  145.0584   71.9874  221.2914 H   0  0  0  0  0  0  0  0  0  0  0  0
  144.4904   73.2672  220.1367 H   0  0  0  0  0  0  0  0  0  0  0  0
  139.0033   72.3045  224.1106 H   0  0  0  0  0  0  0  0  0  0  0  0
  138.1627   72.0675  222.5241 H   0  0  0  0  0  0  0  0  0  0  0  0
  138.3435   69.8590  223.0981 H   0  0  0  0  0  0  0  0  0  0  0  0
  139.9838   70.0605  222.3807 H   0  0  0  0  0  0  0  0  0  0  0  0
  138.1360   69.1533  225.1832 H   0  0  0  0  0  0  0  0  0  0  0  0
  139.4225   67.9999  224.6153 H   0  0  0  0  0  0  0  0  0  0  0  0
  138.9431   69.1459  227.3109 H   0  0  0  0  0  0  0  0  0  0  0  0
  139.8093   67.6379  226.7967 H   0  0  0  0  0  0  0  0  0  0  0  0
  141.3125   69.2644  227.9392 H   0  0  0  0  0  0  0  0  0  0  0  0
  141.7931   68.9254  226.2285 H   0  0  0  0  0  0  0  0  0  0  0  0
  140.6289   71.4358  227.4485 H   0  0  0  0  0  0  0  0  0  0  0  0
  141.9918   71.2168  226.2647 H   0  0  0  0  0  0  0  0  0  0  0  0
  139.0368   71.4556  225.7791 H   0  0  0  0  0  0  0  0  0  0  0  0
  140.4333   72.0563  224.8134 H   0  0  0  0  0  0  0  0  0  0  0  0
  139.4917   77.1088  221.9822 H   0  0  0  0  0  0  0  0  0  0  0  0
  140.4552   76.2946  223.2846 H   0  0  0  0  0  0  0  0  0  0  0  0
  140.6072   78.9634  222.7257 H   0  0  0  0  0  0  0  0  0  0  0  0
  141.9683   77.9565  223.4209 H   0  0  0  0  0  0  0  0  0  0  0  0
  143.1340   78.0660  221.5580 H   0  0  0  0  0  0  0  0  0  0  0  0
  142.3140   79.5390  221.4090 H   0  0  0  0  0  0  0  0  0  0  0  0
  140.6166   78.4665  220.0230 H   0  0  0  0  0  0  0  0  0  0  0  0
  142.2722   78.4596  219.3206 H   0  0  0  0  0  0  0  0  0  0  0  0
  140.9247   76.2359  219.2545 H   0  0  0  0  0  0  0  0  0  0  0  0
  142.6242   76.1803  219.8707 H   0  0  0  0  0  0  0  0  0  0  0  0
  142.1905   69.8111  220.6190 H   0  0  0  0  0  0  0  0  0  0  0  0
  142.3073   70.4647  218.9229 H   0  0  0  0  0  0  0  0  0  0  0  0
  1  2  2  0
  2  3  1  0
  3  4  2  0
  4  5  1  0
  5  6  2  0
  5  7  1  0
  7  8  1  0
  8  9  1  0
  9 10  1  0
 10 11  2  0
 11 12  1  0
 12 13  1  0
 13 14  1  0
 14 15  1  0
 15 16  1  0
 16 17  1  0
 17 18  1  0
 18 19  1  0
 19 20  1  0
 12 21  2  0
 21 22  1  0
 22 23  1  0
 23 24  1  0
 24 25  1  0
 25 26  1  0
 26 27  1  0
 27 28  1  0
 22 29  2  0
  9 30  1  0
  6  1  1  0
 29 10  1  0
 30  4  1  0
 20 15  1  0
 28 23  1  0
  1 31  1  0
  2 32  1  0
  3 33  1  0
  6 34  1  0
  7 35  1  0
  7 36  1  0
  8 37  1  0
  8 38  1  0
 13 39  1  0
 13 40  1  0
 14 41  1  0
 14 42  1  0
 16 43  1  0
 16 44  1  0
 17 45  1  0
 17 46  1  0
 18 47  1  0
 18 48  1  0
 19 49  1  0
 19 50  1  0
 20 51  1  0
 20 52  1  0
 24 53  1  0
 24 54  1  0
 25 55  1  0
 25 56  1  0
 26 57  1  0
 26 58  1  0
 27 59  1  0
 27 60  1  0
 28 61  1  0
 28 62  1  0
 30 63  1  0
 30 64  1  0
M  CHG  1  26   1
M  END
>  <UniqueID>  (50) 
563

>  <SMILES>  (50) 
c1ccc2c(c1)CCN(c1nc(CCN3CCCCC3)nc(N3CC[NH2+]CC3)n1)C2

>  <Energy>  (50) 
74.96437688718524

>  <Genealogy>  (50) 
c1ccc2c(c1)CCN(c1nc(CCN3CCCCC3)nc(N3CC[NH2+]CC3)n1)C2 (protonated)
c1ccc2c(c1)CCN(c1nc(CCN3CCCCC3)nc(N3CC[NH2+]CC3)n1)C2 (3D coordinates assigned)
c1ccc2c(c1)CCN(c1nc(CCN3CCCCC3)nc(N3CC[NH2+]CC3)n1)C2 (nonaromatic ring conformer: 74.96437688718524 kcal/mol)

>  <smiles>  (50) 
c1ccc2c(c1)CCN(c1nc(CCN3CCCCC3)nc(N3CCNCC3)n1)C2

>  <score_type>  (50) 
oracle

>  <origin>  (50) 
autodockgpu

>  <m_score__min__energy>  (50) 
-9.0700000000000003

>  <m_primary>  (50) 
energy

>  <meeko>  (50) 
{"free_energy": -8.63, "intermolecular_energy": -10.12, "internal_energy": -0.89, "cluster_size": 8, "cluster_id": 1, "rank_in_cluster": 8}

>  <energy>  (50) 
-8.67

>  <cluster_rmsd>  (50) 
0.7

>  <rmsd>  (50) 
270.38

>  <cluster>  (50) 
2

$$$$
GZRQFJZYBWHXJG-UNYBPEQONA-O
     RDKit          3D

 64 68  0  0  0  0  0  0  0  0999 V2000
  146.2270   67.7350  218.8620 C   0  0  0  0  0  0  0  0  0  0  0  0
  145.0280   67.1270  219.2380 C   0  0  0  0  0  0  0  0  0  0  0  0
  143.9210   67.9100  219.5760 C   0  0  0  0  0  0  0  0  0  0  0  0
  144.0140   69.3110  219.5590 C   0  0  0  0  0  0  0  0  0  0  0  0
  145.2230   69.9210  219.1830 C   0  0  0  0  0  0  0  0  0  0  0  0
  146.3250   69.1280  218.8260 C   0  0  0  0  0  0  0  0  0  0  0  0
  145.2950   71.4140  219.1070 C   0  0  0  0  0  0  0  0  0  0  0  0
  144.5200   72.0430  220.2670 C   0  0  0  0  0  0  0  0  0  0  0  0
  143.1560   71.4930  220.3840 N   0  0  0  0  0  0  0  0  0  0  0  0
  142.1470   72.2610  221.0730 C   0  0  0  0  0  0  0  0  0  0  0  0
  141.2250   71.6400  221.8550 N   0  0  0  0  0  0  0  0  0  0  0  0
  140.2730   72.3630  222.4980 C   0  0  0  0  0  0  0  0  0  0  0  0
  139.1960   71.6700  223.2730 C   0  0  0  0  0  0  0  0  0  0  0  0
  139.7460   70.4610  224.0400 C   0  0  0  0  0  0  0  0  0  0  0  0
  139.9520   70.8100  225.4650 N   0  0  0  0  0  0  0  0  0  0  0  0
  141.0630   71.7730  225.6460 C   0  0  0  0  0  0  0  0  0  0  0  0
  141.4450   71.9600  227.1320 C   0  0  0  0  0  0  0  0  0  0  0  0
  140.3410   71.4580  228.0680 C   0  0  0  0  0  0  0  0  0  0  0  0
  140.0090   69.9800  227.7930 C   0  0  0  0  0  0  0  0  0  0  0  0
  140.1570   69.6130  226.3060 C   0  0  0  0  0  0  0  0  0  0  0  0
  140.2280   73.7100  222.3370 N   0  0  0  0  0  0  0  0  0  0  0  0
  141.1350   74.3430  221.5500 C   0  0  0  0  0  0  0  0  0  0  0  0
  141.0540   75.7690  221.3530 N   0  0  0  0  0  0  0  0  0  0  0  0
  140.3610   76.6300  222.3240 C   0  0  0  0  0  0  0  0  0  0  0  0
  141.1230   77.9560  222.5570 C   0  0  0  0  0  0  0  0  0  0  0  0
  142.0170   78.3370  221.4450 N   0  0  0  0  0  0  0  0  0  0  0  0
  141.5190   77.8780  220.1430 C   0  0  0  0  0  0  0  0  0  0  0  0
  141.5390   76.3480  220.0920 C   0  0  0  0  0  0  0  0  0  0  0  0
  142.0930   73.6100  220.9230 N   0  0  0  0  0  0  0  0  0  0  0  0
  142.8030   70.1550  219.8720 C   0  0  0  0  0  0  0  0  0  0  0  0
  147.0960   67.1162  218.5936 H   0  0  0  0  0  0  0  0  0  0  0  0
  144.9545   66.0299  219.2683 H   0  0  0  0  0  0  0  0  0  0  0  0
  142.9733   67.4271  219.8564 H   0  0  0  0  0  0  0  0  0  0  0  0
  147.2673   69.6043  218.5174 H   0  0  0  0  0  0  0  0  0  0  0  0
  146.3474   71.7297  219.1602 H   0  0  0  0  0  0  0  0  0  0  0  0
  144.8495   71.7458  218.1575 H   0  0  0  0  0  0  0  0  0  0  0  0
  145.0629   71.8482  221.2037 H   0  0  0  0  0  0  0  0  0  0  0  0
  144.4353   73.1224  220.0729 H   0  0  0  0  0  0  0  0  0  0  0  0
  138.7585   72.3798  223.9905 H   0  0  0  0  0  0  0  0  0  0  0  0
  138.4353   71.3122  222.5635 H   0  0  0  0  0  0  0  0  0  0  0  0
  139.0296   69.6293  223.9694 H   0  0  0  0  0  0  0  0  0  0  0  0
  140.7097   70.1647  223.6000 H   0  0  0  0  0  0  0  0  0  0  0  0
  141.9430   71.4039  225.0989 H   0  0  0  0  0  0  0  0  0  0  0  0
  140.7281   72.7474  225.2608 H   0  0  0  0  0  0  0  0  0  0  0  0
  142.3684   71.3981  227.3362 H   0  0  0  0  0  0  0  0  0  0  0  0
  141.5888   73.0348  227.3166 H   0  0  0  0  0  0  0  0  0  0  0  0
  140.6785   71.5623  229.1097 H   0  0  0  0  0  0  0  0  0  0  0  0
  139.4355   72.0574  227.8924 H   0  0  0  0  0  0  0  0  0  0  0  0
  140.6908   69.3491  228.3822 H   0  0  0  0  0  0  0  0  0  0  0  0
  138.9595   69.8133  228.0770 H   0  0  0  0  0  0  0  0  0  0  0  0
  141.1660   69.2123  226.1288 H   0  0  0  0  0  0  0  0  0  0  0  0
  139.4026   68.8561  226.0451 H   0  0  0  0  0  0  0  0  0  0  0  0
  139.3547   76.8590  221.9433 H   0  0  0  0  0  0  0  0  0  0  0  0
  140.3063   76.0924  223.2821 H   0  0  0  0  0  0  0  0  0  0  0  0
  140.3848   78.7592  222.6984 H   0  0  0  0  0  0  0  0  0  0  0  0
  141.7600   77.8065  223.4413 H   0  0  0  0  0  0  0  0  0  0  0  0
  142.9720   77.9380  221.6110 H   0  0  0  0  0  0  0  0  0  0  0  0
  142.1070   79.3800  221.4220 H   0  0  0  0  0  0  0  0  0  0  0  0
  140.4885   78.2350  219.9993 H   0  0  0  0  0  0  0  0  0  0  0  0
  142.1632   78.2771  219.3457 H   0  0  0  0  0  0  0  0  0  0  0  0
  140.8934   76.0077  219.2689 H   0  0  0  0  0  0  0  0  0  0  0  0
  142.5761   76.0178  219.9326 H   0  0  0  0  0  0  0  0  0  0  0  0
  142.1995   69.6360  220.6312 H   0  0  0  0  0  0  0  0  0  0  0  0
  142.2456   70.2955  218.9341 H   0  0  0  0  0  0  0  0  0  0  0  0
  1  2  2  0
  2  3  1  0
  3  4  2  0
  4  5  1  0
  5  6  2  0
  5  7  1  0
  7  8  1  0
  8  9  1  0
  9 10  1  0
 10 11  2  0
 11 12  1  0
 12 13  1  0
 13 14  1  0
 14 15  1  0
 15 16  1  0
 16 17  1  0
 17 18  1  0
 18 19  1  0
 19 20  1  0
 12 21  2  0
 21 22  1  0
 22 23  1  0
 23 24  1  0
 24 25  1  0
 25 26  1  0
 26 27  1  0
 27 28  1  0
 22 29  2  0
  9 30  1  0
  6  1  1  0
 29 10  1  0
 30  4  1  0
 20 15  1  0
 28 23  1  0
  1 31  1  0
  2 32  1  0
  3 33  1  0
  6 34  1  0
  7 35  1  0
  7 36  1  0
  8 37  1  0
  8 38  1  0
 13 39  1  0
 13 40  1  0
 14 41  1  0
 14 42  1  0
 16 43  1  0
 16 44  1  0
 17 45  1  0
 17 46  1  0
 18 47  1  0
 18 48  1  0
 19 49  1  0
 19 50  1  0
 20 51  1  0
 20 52  1  0
 24 53  1  0
 24 54  1  0
 25 55  1  0
 25 56  1  0
 26 57  1  0
 26 58  1  0
 27 59  1  0
 27 60  1  0
 28 61  1  0
 28 62  1  0
 30 63  1  0
 30 64  1  0
M  CHG  1  26   1
M  END
>  <UniqueID>  (51) 
563

>  <SMILES>  (51) 
c1ccc2c(c1)CCN(c1nc(CCN3CCCCC3)nc(N3CC[NH2+]CC3)n1)C2

>  <Energy>  (51) 
74.96437688718524

>  <Genealogy>  (51) 
c1ccc2c(c1)CCN(c1nc(CCN3CCCCC3)nc(N3CC[NH2+]CC3)n1)C2 (protonated)
c1ccc2c(c1)CCN(c1nc(CCN3CCCCC3)nc(N3CC[NH2+]CC3)n1)C2 (3D coordinates assigned)
c1ccc2c(c1)CCN(c1nc(CCN3CCCCC3)nc(N3CC[NH2+]CC3)n1)C2 (nonaromatic ring conformer: 74.96437688718524 kcal/mol)

>  <smiles>  (51) 
c1ccc2c(c1)CCN(c1nc(CCN3CCCCC3)nc(N3CCNCC3)n1)C2

>  <score_type>  (51) 
oracle

>  <origin>  (51) 
autodockgpu

>  <m_score__min__energy>  (51) 
-9.0700000000000003

>  <m_primary>  (51) 
energy

>  <meeko>  (51) 
{"free_energy": -8.96, "intermolecular_energy": -10.45, "internal_energy": -0.87, "cluster_size": 8, "cluster_id": 1, "rank_in_cluster": 6}

>  <energy>  (51) 
-8.66

>  <cluster_rmsd>  (51) 
0.72

>  <rmsd>  (51) 
270.39

>  <cluster>  (51) 
2

$$$$
GZRQFJZYBWHXJG-UNYBPEQONA-O
     RDKit          3D

 64 68  0  0  0  0  0  0  0  0999 V2000
  139.5920   81.2440  223.4810 C   0  0  0  0  0  0  0  0  0  0  0  0
  140.9510   80.9220  223.4760 C   0  0  0  0  0  0  0  0  0  0  0  0
  141.3750   79.6790  223.0000 C   0  0  0  0  0  0  0  0  0  0  0  0
  140.4370   78.7380  222.5430 C   0  0  0  0  0  0  0  0  0  0  0  0
  139.0690   79.0630  222.5520 C   0  0  0  0  0  0  0  0  0  0  0  0
  138.6520   80.3220  223.0130 C   0  0  0  0  0  0  0  0  0  0  0  0
  138.0820   78.0800  222.0060 C   0  0  0  0  0  0  0  0  0  0  0  0
  138.4700   76.6560  222.4110 C   0  0  0  0  0  0  0  0  0  0  0  0
  139.8800   76.3570  222.0980 N   0  0  0  0  0  0  0  0  0  0  0  0
  140.2910   74.9810  221.9620 C   0  0  0  0  0  0  0  0  0  0  0  0
  139.5340   73.9810  222.4870 N   0  0  0  0  0  0  0  0  0  0  0  0
  139.9250   72.6880  222.3640 C   0  0  0  0  0  0  0  0  0  0  0  0
  139.1460   71.5980  223.0320 C   0  0  0  0  0  0  0  0  0  0  0  0
  140.0720   70.5370  223.6380 C   0  0  0  0  0  0  0  0  0  0  0  0
  140.0320   70.6090  225.1180 N   0  0  0  0  0  0  0  0  0  0  0  0
  140.9140   71.6760  225.6450 C   0  0  0  0  0  0  0  0  0  0  0  0
  141.0680   71.6080  227.1810 C   0  0  0  0  0  0  0  0  0  0  0  0
  139.9710   70.7530  227.8240 C   0  0  0  0  0  0  0  0  0  0  0  0
  139.9560   69.3320  227.2330 C   0  0  0  0  0  0  0  0  0  0  0  0
  140.3510   69.3110  225.7460 C   0  0  0  0  0  0  0  0  0  0  0  0
  141.0910   72.3930  221.7340 N   0  0  0  0  0  0  0  0  0  0  0  0
  141.8640   73.3820  221.2150 C   0  0  0  0  0  0  0  0  0  0  0  0
  143.1210   73.0630  220.5850 N   0  0  0  0  0  0  0  0  0  0  0  0
  144.0650   74.1220  220.1970 C   0  0  0  0  0  0  0  0  0  0  0  0
  145.5290   73.7180  220.4910 C   0  0  0  0  0  0  0  0  0  0  0  0
  145.7450   72.2590  220.5680 N   0  0  0  0  0  0  0  0  0  0  0  0
  144.8330   71.5120  219.6950 C   0  0  0  0  0  0  0  0  0  0  0  0
  143.3930   71.6730  220.1920 C   0  0  0  0  0  0  0  0  0  0  0  0
  141.4550   74.6730  221.3320 N   0  0  0  0  0  0  0  0  0  0  0  0
  140.9000   77.4170  221.9800 C   0  0  0  0  0  0  0  0  0  0  0  0
  139.2612   82.2246  223.8538 H   0  0  0  0  0  0  0  0  0  0  0  0
  141.6888   81.6484  223.8475 H   0  0  0  0  0  0  0  0  0  0  0  0
  142.4477   79.4359  222.9829 H   0  0  0  0  0  0  0  0  0  0  0  0
  137.5834   80.5830  223.0057 H   0  0  0  0  0  0  0  0  0  0  0  0
  137.0826   78.3106  222.4034 H   0  0  0  0  0  0  0  0  0  0  0  0
  138.0769   78.1507  220.9083 H   0  0  0  0  0  0  0  0  0  0  0  0
  138.3143   76.5399  223.4937 H   0  0  0  0  0  0  0  0  0  0  0  0
  137.8400   75.9572  221.8410 H   0  0  0  0  0  0  0  0  0  0  0  0
  138.5322   72.0363  223.8327 H   0  0  0  0  0  0  0  0  0  0  0  0
  138.5128   71.1122  222.2750 H   0  0  0  0  0  0  0  0  0  0  0  0
  139.7426   69.5389  223.3136 H   0  0  0  0  0  0  0  0  0  0  0  0
  141.1014   70.7215  223.2970 H   0  0  0  0  0  0  0  0  0  0  0  0
  141.9079   71.5718  225.1854 H   0  0  0  0  0  0  0  0  0  0  0  0
  140.4545   72.6441  225.3966 H   0  0  0  0  0  0  0  0  0  0  0  0
  142.0480   71.1703  227.4218 H   0  0  0  0  0  0  0  0  0  0  0  0
  140.9836   72.6299  227.5793 H   0  0  0  0  0  0  0  0  0  0  0  0
  140.1538   70.6895  228.9069 H   0  0  0  0  0  0  0  0  0  0  0  0
  138.9980   71.2248  227.6224 H   0  0  0  0  0  0  0  0  0  0  0  0
  140.6656   68.7078  227.7959 H   0  0  0  0  0  0  0  0  0  0  0  0
  138.9289   68.9464  227.3127 H   0  0  0  0  0  0  0  0  0  0  0  0
  141.4308   69.1203  225.6590 H   0  0  0  0  0  0  0  0  0  0  0  0
  139.7883   68.5158  225.2351 H   0  0  0  0  0  0  0  0  0  0  0  0
  143.9585   74.3176  219.1198 H   0  0  0  0  0  0  0  0  0  0  0  0
  143.8324   75.0218  220.7855 H   0  0  0  0  0  0  0  0  0  0  0  0
  146.1665   74.1204  219.6899 H   0  0  0  0  0  0  0  0  0  0  0  0
  145.7808   74.1299  221.4794 H   0  0  0  0  0  0  0  0  0  0  0  0
  145.6190   71.9390  221.5580 H   0  0  0  0  0  0  0  0  0  0  0  0
  146.7310   72.0460  220.2860 H   0  0  0  0  0  0  0  0  0  0  0  0
  144.9107   71.8993  218.6684 H   0  0  0  0  0  0  0  0  0  0  0  0
  145.1061   70.4465  219.7102 H   0  0  0  0  0  0  0  0  0  0  0  0
  142.7008   71.3853  219.3869 H   0  0  0  0  0  0  0  0  0  0  0  0
  143.2528   71.0275  221.0716 H   0  0  0  0  0  0  0  0  0  0  0  0
  141.8017   77.0995  222.5242 H   0  0  0  0  0  0  0  0  0  0  0  0
  141.1015   77.5655  220.9089 H   0  0  0  0  0  0  0  0  0  0  0  0
  1  2  2  0
  2  3  1  0
  3  4  2  0
  4  5  1  0
  5  6  2  0
  5  7  1  0
  7  8  1  0
  8  9  1  0
  9 10  1  0
 10 11  2  0
 11 12  1  0
 12 13  1  0
 13 14  1  0
 14 15  1  0
 15 16  1  0
 16 17  1  0
 17 18  1  0
 18 19  1  0
 19 20  1  0
 12 21  2  0
 21 22  1  0
 22 23  1  0
 23 24  1  0
 24 25  1  0
 25 26  1  0
 26 27  1  0
 27 28  1  0
 22 29  2  0
  9 30  1  0
  6  1  1  0
 29 10  1  0
 30  4  1  0
 20 15  1  0
 28 23  1  0
  1 31  1  0
  2 32  1  0
  3 33  1  0
  6 34  1  0
  7 35  1  0
  7 36  1  0
  8 37  1  0
  8 38  1  0
 13 39  1  0
 13 40  1  0
 14 41  1  0
 14 42  1  0
 16 43  1  0
 16 44  1  0
 17 45  1  0
 17 46  1  0
 18 47  1  0
 18 48  1  0
 19 49  1  0
 19 50  1  0
 20 51  1  0
 20 52  1  0
 24 53  1  0
 24 54  1  0
 25 55  1  0
 25 56  1  0
 26 57  1  0
 26 58  1  0
 27 59  1  0
 27 60  1  0
 28 61  1  0
 28 62  1  0
 30 63  1  0
 30 64  1  0
M  CHG  1  26   1
M  END
>  <UniqueID>  (52) 
563

>  <SMILES>  (52) 
c1ccc2c(c1)CCN(c1nc(CCN3CCCCC3)nc(N3CC[NH2+]CC3)n1)C2

>  <Energy>  (52) 
74.96437688718524

>  <Genealogy>  (52) 
c1ccc2c(c1)CCN(c1nc(CCN3CCCCC3)nc(N3CC[NH2+]CC3)n1)C2 (protonated)
c1ccc2c(c1)CCN(c1nc(CCN3CCCCC3)nc(N3CC[NH2+]CC3)n1)C2 (3D coordinates assigned)
c1ccc2c(c1)CCN(c1nc(CCN3CCCCC3)nc(N3CC[NH2+]CC3)n1)C2 (nonaromatic ring conformer: 74.96437688718524 kcal/mol)

>  <smiles>  (52) 
c1ccc2c(c1)CCN(c1nc(CCN3CCCCC3)nc(N3CCNCC3)n1)C2

>  <score_type>  (52) 
oracle

>  <origin>  (52) 
autodockgpu

>  <m_score__min__energy>  (52) 
-9.0700000000000003

>  <m_primary>  (52) 
energy

>  <meeko>  (52) 
{"free_energy": -8.54, "intermolecular_energy": -10.04, "internal_energy": -0.85, "cluster_size": 4, "cluster_id": 3, "rank_in_cluster": 2}

>  <energy>  (52) 
-8.61

>  <cluster_rmsd>  (52) 
0.0

>  <rmsd>  (52) 
270.61

>  <cluster>  (52) 
3

$$$$
GZRQFJZYBWHXJG-UNYBPEQONA-O
     RDKit          3D

 64 68  0  0  0  0  0  0  0  0999 V2000
  139.9070   68.8990  227.8820 C   0  0  0  0  0  0  0  0  0  0  0  0
  140.8590   69.8970  228.0970 C   0  0  0  0  0  0  0  0  0  0  0  0
  141.1030   70.8560  227.1100 C   0  0  0  0  0  0  0  0  0  0  0  0
  140.4090   70.8100  225.8900 C   0  0  0  0  0  0  0  0  0  0  0  0
  139.4530   69.8020  225.6750 C   0  0  0  0  0  0  0  0  0  0  0  0
  139.1990   68.8540  226.6790 C   0  0  0  0  0  0  0  0  0  0  0  0
  138.6730   69.7970  224.3980 C   0  0  0  0  0  0  0  0  0  0  0  0
  139.5770   70.1730  223.2210 C   0  0  0  0  0  0  0  0  0  0  0  0
  140.3340   71.4120  223.4800 N   0  0  0  0  0  0  0  0  0  0  0  0
  140.8500   72.1650  222.3620 C   0  0  0  0  0  0  0  0  0  0  0  0
  141.5480   71.5410  221.3770 N   0  0  0  0  0  0  0  0  0  0  0  0
  142.0390   72.2510  220.3290 C   0  0  0  0  0  0  0  0  0  0  0  0
  142.8960   71.5820  219.3010 C   0  0  0  0  0  0  0  0  0  0  0  0
  144.2920   71.2690  219.8520 C   0  0  0  0  0  0  0  0  0  0  0  0
  144.5860   69.8240  219.7110 N   0  0  0  0  0  0  0  0  0  0  0  0
  145.8210   69.5810  218.9310 C   0  0  0  0  0  0  0  0  0  0  0  0
  146.0100   68.0900  218.5730 C   0  0  0  0  0  0  0  0  0  0  0  0
  145.1360   67.1830  219.4450 C   0  0  0  0  0  0  0  0  0  0  0  0
  143.6500   67.5670  219.3310 C   0  0  0  0  0  0  0  0  0  0  0  0
  143.4490   69.0790  219.1310 C   0  0  0  0  0  0  0  0  0  0  0  0
  141.8500   73.5940  220.2790 N   0  0  0  0  0  0  0  0  0  0  0  0
  141.1640   74.2330  221.2620 C   0  0  0  0  0  0  0  0  0  0  0  0
  141.0050   75.6650  221.2210 N   0  0  0  0  0  0  0  0  0  0  0  0
  140.3310   76.3850  222.3130 C   0  0  0  0  0  0  0  0  0  0  0  0
  141.0420   77.7180  222.6420 C   0  0  0  0  0  0  0  0  0  0  0  0
  141.8520   78.2570  221.5300 N   0  0  0  0  0  0  0  0  0  0  0  0
  141.3000   77.9080  220.2160 C   0  0  0  0  0  0  0  0  0  0  0  0
  141.3890   76.3940  220.0030 C   0  0  0  0  0  0  0  0  0  0  0  0
  140.6660   73.5090  222.2990 N   0  0  0  0  0  0  0  0  0  0  0  0
  140.6360   71.8760  224.8480 C   0  0  0  0  0  0  0  0  0  0  0  0
  139.7142   68.1469  228.6612 H   0  0  0  0  0  0  0  0  0  0  0  0
  141.4176   69.9287  229.0441 H   0  0  0  0  0  0  0  0  0  0  0  0
  141.8422   71.6506  227.2897 H   0  0  0  0  0  0  0  0  0  0  0  0
  138.4405   68.0739  226.5177 H   0  0  0  0  0  0  0  0  0  0  0  0
  138.2582   68.7921  224.2302 H   0  0  0  0  0  0  0  0  0  0  0  0
  137.8592   70.5332  224.4732 H   0  0  0  0  0  0  0  0  0  0  0  0
  140.2881   69.3529  223.0432 H   0  0  0  0  0  0  0  0  0  0  0  0
  138.9377   70.3427  222.3421 H   0  0  0  0  0  0  0  0  0  0  0  0
  142.4150   70.6426  218.9909 H   0  0  0  0  0  0  0  0  0  0  0  0
  143.0072   72.2653  218.4461 H   0  0  0  0  0  0  0  0  0  0  0  0
  145.0415   71.8484  219.2930 H   0  0  0  0  0  0  0  0  0  0  0  0
  144.3260   71.5397  220.9176 H   0  0  0  0  0  0  0  0  0  0  0  0
  145.7705   70.1639  217.9995 H   0  0  0  0  0  0  0  0  0  0  0  0
  146.6752   69.8866  219.5531 H   0  0  0  0  0  0  0  0  0  0  0  0
  145.7383   67.9395  217.5178 H   0  0  0  0  0  0  0  0  0  0  0  0
  147.0629   67.8254  218.7504 H   0  0  0  0  0  0  0  0  0  0  0  0
  145.2634   66.1402  219.1188 H   0  0  0  0  0  0  0  0  0  0  0  0
  145.4474   67.3017  220.4933 H   0  0  0  0  0  0  0  0  0  0  0  0
  143.2127   67.0359  218.4727 H   0  0  0  0  0  0  0  0  0  0  0  0
  143.1573   67.2848  220.2731 H   0  0  0  0  0  0  0  0  0  0  0  0
  143.3817   69.2978  218.0551 H   0  0  0  0  0  0  0  0  0  0  0  0
  142.5215   69.3885  219.6349 H   0  0  0  0  0  0  0  0  0  0  0  0
  139.2943   76.5982  222.0132 H   0  0  0  0  0  0  0  0  0  0  0  0
  140.3584   75.7504  223.2111 H   0  0  0  0  0  0  0  0  0  0  0  0
  140.2764   78.4628  222.9050 H   0  0  0  0  0  0  0  0  0  0  0  0
  141.7355   77.5129  223.4709 H   0  0  0  0  0  0  0  0  0  0  0  0
  142.8320   77.8940  221.6030 H   0  0  0  0  0  0  0  0  0  0  0  0
  141.8910   79.3000  221.6120 H   0  0  0  0  0  0  0  0  0  0  0  0
  140.2471   78.2227  220.1666 H   0  0  0  0  0  0  0  0  0  0  0  0
  141.8764   78.4202  219.4316 H   0  0  0  0  0  0  0  0  0  0  0  0
  140.7136   76.1060  219.1839 H   0  0  0  0  0  0  0  0  0  0  0  0
  142.4292   76.1365  219.7548 H   0  0  0  0  0  0  0  0  0  0  0  0
  141.6899   72.1883  224.8886 H   0  0  0  0  0  0  0  0  0  0  0  0
  139.9544   72.7096  225.0730 H   0  0  0  0  0  0  0  0  0  0  0  0
  1  2  2  0
  2  3  1  0
  3  4  2  0
  4  5  1  0
  5  6  2  0
  5  7  1  0
  7  8  1  0
  8  9  1  0
  9 10  1  0
 10 11  2  0
 11 12  1  0
 12 13  1  0
 13 14  1  0
 14 15  1  0
 15 16  1  0
 16 17  1  0
 17 18  1  0
 18 19  1  0
 19 20  1  0
 12 21  2  0
 21 22  1  0
 22 23  1  0
 23 24  1  0
 24 25  1  0
 25 26  1  0
 26 27  1  0
 27 28  1  0
 22 29  2  0
  9 30  1  0
  6  1  1  0
 29 10  1  0
 30  4  1  0
 20 15  1  0
 28 23  1  0
  1 31  1  0
  2 32  1  0
  3 33  1  0
  6 34  1  0
  7 35  1  0
  7 36  1  0
  8 37  1  0
  8 38  1  0
 13 39  1  0
 13 40  1  0
 14 41  1  0
 14 42  1  0
 16 43  1  0
 16 44  1  0
 17 45  1  0
 17 46  1  0
 18 47  1  0
 18 48  1  0
 19 49  1  0
 19 50  1  0
 20 51  1  0
 20 52  1  0
 24 53  1  0
 24 54  1  0
 25 55  1  0
 25 56  1  0
 26 57  1  0
 26 58  1  0
 27 59  1  0
 27 60  1  0
 28 61  1  0
 28 62  1  0
 30 63  1  0
 30 64  1  0
M  CHG  1  26   1
M  END
>  <UniqueID>  (53) 
563

>  <SMILES>  (53) 
c1ccc2c(c1)CCN(c1nc(CCN3CCCCC3)nc(N3CC[NH2+]CC3)n1)C2

>  <Energy>  (53) 
74.96437688718524

>  <Genealogy>  (53) 
c1ccc2c(c1)CCN(c1nc(CCN3CCCCC3)nc(N3CC[NH2+]CC3)n1)C2 (protonated)
c1ccc2c(c1)CCN(c1nc(CCN3CCCCC3)nc(N3CC[NH2+]CC3)n1)C2 (3D coordinates assigned)
c1ccc2c(c1)CCN(c1nc(CCN3CCCCC3)nc(N3CC[NH2+]CC3)n1)C2 (nonaromatic ring conformer: 74.96437688718524 kcal/mol)

>  <smiles>  (53) 
c1ccc2c(c1)CCN(c1nc(CCN3CCCCC3)nc(N3CCNCC3)n1)C2

>  <score_type>  (53) 
oracle

>  <origin>  (53) 
autodockgpu

>  <m_score__min__energy>  (53) 
-9.0700000000000003

>  <m_primary>  (53) 
energy

>  <meeko>  (53) 
{"free_energy": -8.44, "intermolecular_energy": -9.94, "internal_energy": -0.82, "cluster_size": 3, "cluster_id": 4, "rank_in_cluster": 1}

>  <energy>  (53) 
-8.54

>  <cluster_rmsd>  (53) 
1.31

>  <rmsd>  (53) 
270.95

>  <cluster>  (53) 
3

$$$$
GZRQFJZYBWHXJG-UNYBPEQONA-O
     RDKit          3D

 64 68  0  0  0  0  0  0  0  0999 V2000
  140.3560   69.1400  228.3450 C   0  0  0  0  0  0  0  0  0  0  0  0
  141.1280   70.3040  228.3470 C   0  0  0  0  0  0  0  0  0  0  0  0
  141.1170   71.1540  227.2390 C   0  0  0  0  0  0  0  0  0  0  0  0
  140.3480   70.8330  226.1080 C   0  0  0  0  0  0  0  0  0  0  0  0
  139.5740   69.6600  226.1070 C   0  0  0  0  0  0  0  0  0  0  0  0
  139.5740   68.8210  227.2320 C   0  0  0  0  0  0  0  0  0  0  0  0
  138.7090   69.3580  224.9240 C   0  0  0  0  0  0  0  0  0  0  0  0
  139.4340   69.7250  223.6270 C   0  0  0  0  0  0  0  0  0  0  0  0
  139.9750   71.0970  223.6650 N   0  0  0  0  0  0  0  0  0  0  0  0
  140.2570   71.7730  222.4220 C   0  0  0  0  0  0  0  0  0  0  0  0
  140.6010   71.0640  221.3150 N   0  0  0  0  0  0  0  0  0  0  0  0
  140.8720   71.7020  220.1480 C   0  0  0  0  0  0  0  0  0  0  0  0
  141.3510   70.9280  218.9600 C   0  0  0  0  0  0  0  0  0  0  0  0
  142.8830   70.8780  218.9040 C   0  0  0  0  0  0  0  0  0  0  0  0
  143.4560   72.1260  219.4620 N   0  0  0  0  0  0  0  0  0  0  0  0
  143.2710   73.2780  218.5490 C   0  0  0  0  0  0  0  0  0  0  0  0
  144.0660   74.5230  219.0020 C   0  0  0  0  0  0  0  0  0  0  0  0
  144.4990   74.4170  220.4680 C   0  0  0  0  0  0  0  0  0  0  0  0
  145.3310   73.1450  220.7110 C   0  0  0  0  0  0  0  0  0  0  0  0
  144.8800   71.9710  219.8240 C   0  0  0  0  0  0  0  0  0  0  0  0
  140.8230   73.0570  220.0950 N   0  0  0  0  0  0  0  0  0  0  0  0
  140.4920   73.7800  221.1960 C   0  0  0  0  0  0  0  0  0  0  0  0
  140.4830   75.2210  221.1400 N   0  0  0  0  0  0  0  0  0  0  0  0
  139.8440   76.0170  222.2000 C   0  0  0  0  0  0  0  0  0  0  0  0
  140.6750   77.2740  222.5500 C   0  0  0  0  0  0  0  0  0  0  0  0
  141.5790   77.7160  221.4690 N   0  0  0  0  0  0  0  0  0  0  0  0
  141.0470   77.4120  220.1360 C   0  0  0  0  0  0  0  0  0  0  0  0
  140.9870   75.8950  219.9360 C   0  0  0  0  0  0  0  0  0  0  0  0
  140.2080   73.1290  222.3550 N   0  0  0  0  0  0  0  0  0  0  0  0
  140.2960   71.7780  224.9340 C   0  0  0  0  0  0  0  0  0  0  0  0
  140.3637   68.4739  229.2204 H   0  0  0  0  0  0  0  0  0  0  0  0
  141.7457   70.5516  229.2228 H   0  0  0  0  0  0  0  0  0  0  0  0
  141.7129   72.0786  227.2519 H   0  0  0  0  0  0  0  0  0  0  0  0
  138.9570   67.9103  227.2375 H   0  0  0  0  0  0  0  0  0  0  0  0
  138.4696   68.2844  224.9144 H   0  0  0  0  0  0  0  0  0  0  0  0
  137.7848   69.9501  224.9966 H   0  0  0  0  0  0  0  0  0  0  0  0
  140.2642   69.0201  223.4726 H   0  0  0  0  0  0  0  0  0  0  0  0
  138.7064   69.6695  222.8039 H   0  0  0  0  0  0  0  0  0  0  0  0
  140.9616   69.9011  219.0214 H   0  0  0  0  0  0  0  0  0  0  0  0
  140.9880   71.4299  218.0510 H   0  0  0  0  0  0  0  0  0  0  0  0
  143.2404   70.0195  219.4916 H   0  0  0  0  0  0  0  0  0  0  0  0
  143.2009   70.7739  217.8561 H   0  0  0  0  0  0  0  0  0  0  0  0
  143.6099   72.9894  217.5431 H   0  0  0  0  0  0  0  0  0  0  0  0
  142.2031   73.5419  218.5546 H   0  0  0  0  0  0  0  0  0  0  0  0
  144.9622   74.6223  218.3720 H   0  0  0  0  0  0  0  0  0  0  0  0
  143.4130   75.4023  218.9003 H   0  0  0  0  0  0  0  0  0  0  0  0
  145.1050   75.2975  220.7279 H   0  0  0  0  0  0  0  0  0  0  0  0
  143.5968   74.3688  221.0955 H   0  0  0  0  0  0  0  0  0  0  0  0
  146.3865   73.3664  220.4943 H   0  0  0  0  0  0  0  0  0  0  0  0
  145.1891   72.8466  221.7602 H   0  0  0  0  0  0  0  0  0  0  0  0
  145.4884   71.9526  218.9078 H   0  0  0  0  0  0  0  0  0  0  0  0
  145.0101   71.0300  220.3786 H   0  0  0  0  0  0  0  0  0  0  0  0
  138.8473   76.3323  221.8575 H   0  0  0  0  0  0  0  0  0  0  0  0
  139.7708   75.3917  223.1020 H   0  0  0  0  0  0  0  0  0  0  0  0
  139.9801   78.0958  222.7776 H   0  0  0  0  0  0  0  0  0  0  0  0
  141.3104   77.0072  223.4074 H   0  0  0  0  0  0  0  0  0  0  0  0
  142.5130   77.2540  221.5830 H   0  0  0  0  0  0  0  0  0  0  0  0
  141.7220   78.7500  221.5470 H   0  0  0  0  0  0  0  0  0  0  0  0
  140.0352   77.8332  220.0416 H   0  0  0  0  0  0  0  0  0  0  0  0
  141.7046   77.8536  219.3727 H   0  0  0  0  0  0  0  0  0  0  0  0
  140.3180   75.6703  219.0922 H   0  0  0  0  0  0  0  0  0  0  0  0
  142.0042   75.5296  219.7318 H   0  0  0  0  0  0  0  0  0  0  0  0
  141.2764   72.2665  224.8324 H   0  0  0  0  0  0  0  0  0  0  0  0
  139.4954   72.5063  225.1305 H   0  0  0  0  0  0  0  0  0  0  0  0
  1  2  2  0
  2  3  1  0
  3  4  2  0
  4  5  1  0
  5  6  2  0
  5  7  1  0
  7  8  1  0
  8  9  1  0
  9 10  1  0
 10 11  2  0
 11 12  1  0
 12 13  1  0
 13 14  1  0
 14 15  1  0
 15 16  1  0
 16 17  1  0
 17 18  1  0
 18 19  1  0
 19 20  1  0
 12 21  2  0
 21 22  1  0
 22 23  1  0
 23 24  1  0
 24 25  1  0
 25 26  1  0
 26 27  1  0
 27 28  1  0
 22 29  2  0
  9 30  1  0
  6  1  1  0
 29 10  1  0
 30  4  1  0
 20 15  1  0
 28 23  1  0
  1 31  1  0
  2 32  1  0
  3 33  1  0
  6 34  1  0
  7 35  1  0
  7 36  1  0
  8 37  1  0
  8 38  1  0
 13 39  1  0
 13 40  1  0
 14 41  1  0
 14 42  1  0
 16 43  1  0
 16 44  1  0
 17 45  1  0
 17 46  1  0
 18 47  1  0
 18 48  1  0
 19 49  1  0
 19 50  1  0
 20 51  1  0
 20 52  1  0
 24 53  1  0
 24 54  1  0
 25 55  1  0
 25 56  1  0
 26 57  1  0
 26 58  1  0
 27 59  1  0
 27 60  1  0
 28 61  1  0
 28 62  1  0
 30 63  1  0
 30 64  1  0
M  CHG  1  26   1
M  END
>  <UniqueID>  (54) 
563

>  <SMILES>  (54) 
c1ccc2c(c1)CCN(c1nc(CCN3CCCCC3)nc(N3CC[NH2+]CC3)n1)C2

>  <Energy>  (54) 
74.96437688718524

>  <Genealogy>  (54) 
c1ccc2c(c1)CCN(c1nc(CCN3CCCCC3)nc(N3CC[NH2+]CC3)n1)C2 (protonated)
c1ccc2c(c1)CCN(c1nc(CCN3CCCCC3)nc(N3CC[NH2+]CC3)n1)C2 (3D coordinates assigned)
c1ccc2c(c1)CCN(c1nc(CCN3CCCCC3)nc(N3CC[NH2+]CC3)n1)C2 (nonaromatic ring conformer: 74.96437688718524 kcal/mol)

>  <smiles>  (54) 
c1ccc2c(c1)CCN(c1nc(CCN3CCCCC3)nc(N3CCNCC3)n1)C2

>  <score_type>  (54) 
oracle

>  <origin>  (54) 
autodockgpu

>  <m_score__min__energy>  (54) 
-9.0700000000000003

>  <m_primary>  (54) 
energy

>  <meeko>  (54) 
{"free_energy": -7.99, "intermolecular_energy": -9.48, "internal_energy": -1.3, "cluster_size": 3, "cluster_id": 4, "rank_in_cluster": 2}

>  <energy>  (54) 
-8.54

>  <cluster_rmsd>  (54) 
1.33

>  <rmsd>  (54) 
270.98

>  <cluster>  (54) 
3

$$$$
GZRQFJZYBWHXJG-UNYBPEQONA-O
     RDKit          3D

 64 68  0  0  0  0  0  0  0  0999 V2000
  139.8480   67.7380  226.6080 C   0  0  0  0  0  0  0  0  0  0  0  0
  141.0340   68.4330  226.8560 C   0  0  0  0  0  0  0  0  0  0  0  0
  141.2730   69.6560  226.2250 C   0  0  0  0  0  0  0  0  0  0  0  0
  140.3350   70.1830  225.3230 C   0  0  0  0  0  0  0  0  0  0  0  0
  139.1440   69.4800  225.0730 C   0  0  0  0  0  0  0  0  0  0  0  0
  138.9010   68.2620  225.7260 C   0  0  0  0  0  0  0  0  0  0  0  0
  138.1210   70.0790  224.1580 C   0  0  0  0  0  0  0  0  0  0  0  0
  138.8040   70.7540  222.9660 C   0  0  0  0  0  0  0  0  0  0  0  0
  139.8720   71.6790  223.3920 N   0  0  0  0  0  0  0  0  0  0  0  0
  140.2900   72.7270  222.4930 C   0  0  0  0  0  0  0  0  0  0  0  0
  139.5830   73.8860  222.4120 N   0  0  0  0  0  0  0  0  0  0  0  0
  139.9730   74.8680  221.5610 C   0  0  0  0  0  0  0  0  0  0  0  0
  139.1360   76.0980  221.3960 C   0  0  0  0  0  0  0  0  0  0  0  0
  139.0150   76.8750  222.7120 C   0  0  0  0  0  0  0  0  0  0  0  0
  139.8340   78.1080  222.6560 N   0  0  0  0  0  0  0  0  0  0  0  0
  141.2380   77.8610  223.0570 C   0  0  0  0  0  0  0  0  0  0  0  0
  142.0400   79.1700  223.2340 C   0  0  0  0  0  0  0  0  0  0  0  0
  141.3460   80.3560  222.5580 C   0  0  0  0  0  0  0  0  0  0  0  0
  139.9140   80.5410  223.0920 C   0  0  0  0  0  0  0  0  0  0  0  0
  139.2480   79.2030  223.4560 C   0  0  0  0  0  0  0  0  0  0  0  0
  141.0620   74.6820  220.7710 N   0  0  0  0  0  0  0  0  0  0  0  0
  141.7710   73.5260  220.8330 C   0  0  0  0  0  0  0  0  0  0  0  0
  142.9000   73.3220  219.9610 N   0  0  0  0  0  0  0  0  0  0  0  0
  142.7220   72.7880  218.6010 C   0  0  0  0  0  0  0  0  0  0  0  0
  143.6430   73.5000  217.5830 C   0  0  0  0  0  0  0  0  0  0  0  0
  144.8340   74.1290  218.1890 N   0  0  0  0  0  0  0  0  0  0  0  0
  145.3040   73.4080  219.3770 C   0  0  0  0  0  0  0  0  0  0  0  0
  144.2580   73.5090  220.4910 C   0  0  0  0  0  0  0  0  0  0  0  0
  141.3790   72.5550  221.6990 N   0  0  0  0  0  0  0  0  0  0  0  0
  140.5710   71.5290  224.6830 C   0  0  0  0  0  0  0  0  0  0  0  0
  139.6599   66.7766  227.1083 H   0  0  0  0  0  0  0  0  0  0  0  0
  141.7803   68.0169  227.5487 H   0  0  0  0  0  0  0  0  0  0  0  0
  142.2004   70.2088  226.4358 H   0  0  0  0  0  0  0  0  0  0  0  0
  137.9622   67.7188  225.5426 H   0  0  0  0  0  0  0  0  0  0  0  0
  137.4529   69.2856  223.7918 H   0  0  0  0  0  0  0  0  0  0  0  0
  137.5427   70.8327  224.7126 H   0  0  0  0  0  0  0  0  0  0  0  0
  139.2426   69.9778  222.3217 H   0  0  0  0  0  0  0  0  0  0  0  0
  138.0446   71.3377  222.4251 H   0  0  0  0  0  0  0  0  0  0  0  0
  139.5998   76.7472  220.6388 H   0  0  0  0  0  0  0  0  0  0  0  0
  138.1275   75.7901  221.0826 H   0  0  0  0  0  0  0  0  0  0  0  0
  137.9619   77.1457  222.8785 H   0  0  0  0  0  0  0  0  0  0  0  0
  139.3753   76.2423  223.5365 H   0  0  0  0  0  0  0  0  0  0  0  0
  141.2416   77.3130  224.0108 H   0  0  0  0  0  0  0  0  0  0  0  0
  141.7179   77.2798  222.2559 H   0  0  0  0  0  0  0  0  0  0  0  0
  142.1429   79.3824  224.3084 H   0  0  0  0  0  0  0  0  0  0  0  0
  143.0246   79.0350  222.7625 H   0  0  0  0  0  0  0  0  0  0  0  0
  141.9239   81.2707  222.7565 H   0  0  0  0  0  0  0  0  0  0  0  0
  141.2920   80.1583  221.4773 H   0  0  0  0  0  0  0  0  0  0  0  0
  139.9510   81.1736  223.9911 H   0  0  0  0  0  0  0  0  0  0  0  0
  139.3162   81.0082  222.2956 H   0  0  0  0  0  0  0  0  0  0  0  0
  139.4062   78.9971  224.5249 H   0  0  0  0  0  0  0  0  0  0  0  0
  138.1710   79.2678  223.2418 H   0  0  0  0  0  0  0  0  0  0  0  0
  142.9588   71.7138  218.6058 H   0  0  0  0  0  0  0  0  0  0  0  0
  141.6784   72.9597  218.2986 H   0  0  0  0  0  0  0  0  0  0  0  0
  143.9814   72.7582  216.8446 H   0  0  0  0  0  0  0  0  0  0  0  0
  143.0514   74.3090  217.1296 H   0  0  0  0  0  0  0  0  0  0  0  0
  144.6130   75.1200  218.4490 H   0  0  0  0  0  0  0  0  0  0  0  0
  145.6050   74.1500  217.4800 H   0  0  0  0  0  0  0  0  0  0  0  0
  145.4656   72.3502  219.1223 H   0  0  0  0  0  0  0  0  0  0  0  0
  146.2482   73.8537  219.7231 H   0  0  0  0  0  0  0  0  0  0  0  0
  144.4595   72.7332  221.2443 H   0  0  0  0  0  0  0  0  0  0  0  0
  144.3224   74.5109  220.9406 H   0  0  0  0  0  0  0  0  0  0  0  0
  141.6509   71.6535  224.5145 H   0  0  0  0  0  0  0  0  0  0  0  0
  140.1735   72.2945  225.3657 H   0  0  0  0  0  0  0  0  0  0  0  0
  1  2  2  0
  2  3  1  0
  3  4  2  0
  4  5  1  0
  5  6  2  0
  5  7  1  0
  7  8  1  0
  8  9  1  0
  9 10  1  0
 10 11  2  0
 11 12  1  0
 12 13  1  0
 13 14  1  0
 14 15  1  0
 15 16  1  0
 16 17  1  0
 17 18  1  0
 18 19  1  0
 19 20  1  0
 12 21  2  0
 21 22  1  0
 22 23  1  0
 23 24  1  0
 24 25  1  0
 25 26  1  0
 26 27  1  0
 27 28  1  0
 22 29  2  0
  9 30  1  0
  6  1  1  0
 29 10  1  0
 30  4  1  0
 20 15  1  0
 28 23  1  0
  1 31  1  0
  2 32  1  0
  3 33  1  0
  6 34  1  0
  7 35  1  0
  7 36  1  0
  8 37  1  0
  8 38  1  0
 13 39  1  0
 13 40  1  0
 14 41  1  0
 14 42  1  0
 16 43  1  0
 16 44  1  0
 17 45  1  0
 17 46  1  0
 18 47  1  0
 18 48  1  0
 19 49  1  0
 19 50  1  0
 20 51  1  0
 20 52  1  0
 24 53  1  0
 24 54  1  0
 25 55  1  0
 25 56  1  0
 26 57  1  0
 26 58  1  0
 27 59  1  0
 27 60  1  0
 28 61  1  0
 28 62  1  0
 30 63  1  0
 30 64  1  0
M  CHG  1  26   1
M  END
>  <UniqueID>  (55) 
563

>  <SMILES>  (55) 
c1ccc2c(c1)CCN(c1nc(CCN3CCCCC3)nc(N3CC[NH2+]CC3)n1)C2

>  <Energy>  (55) 
74.96437688718524

>  <Genealogy>  (55) 
c1ccc2c(c1)CCN(c1nc(CCN3CCCCC3)nc(N3CC[NH2+]CC3)n1)C2 (protonated)
c1ccc2c(c1)CCN(c1nc(CCN3CCCCC3)nc(N3CC[NH2+]CC3)n1)C2 (3D coordinates assigned)
c1ccc2c(c1)CCN(c1nc(CCN3CCCCC3)nc(N3CC[NH2+]CC3)n1)C2 (nonaromatic ring conformer: 74.96437688718524 kcal/mol)

>  <smiles>  (55) 
c1ccc2c(c1)CCN(c1nc(CCN3CCCCC3)nc(N3CCNCC3)n1)C2

>  <score_type>  (55) 
oracle

>  <origin>  (55) 
autodockgpu

>  <m_score__min__energy>  (55) 
-9.0700000000000003

>  <m_primary>  (55) 
energy

>  <meeko>  (55) 
{"free_energy": -8.67, "intermolecular_energy": -10.16, "internal_energy": -0.82, "cluster_size": 3, "cluster_id": 2, "rank_in_cluster": 2}

>  <energy>  (55) 
-8.47

>  <cluster_rmsd>  (55) 
0.42

>  <rmsd>  (55) 
270.62

>  <cluster>  (55) 
3

$$$$
GZRQFJZYBWHXJG-UNYBPEQONA-O
     RDKit          3D

 64 68  0  0  0  0  0  0  0  0999 V2000
  146.1090   67.4870  218.5990 C   0  0  0  0  0  0  0  0  0  0  0  0
  144.8910   66.9360  219.0020 C   0  0  0  0  0  0  0  0  0  0  0  0
  143.8350   67.7710  219.3770 C   0  0  0  0  0  0  0  0  0  0  0  0
  143.9980   69.1660  219.3700 C   0  0  0  0  0  0  0  0  0  0  0  0
  145.2260   69.7170  218.9670 C   0  0  0  0  0  0  0  0  0  0  0  0
  146.2770   68.8740  218.5740 C   0  0  0  0  0  0  0  0  0  0  0  0
  145.3710   71.2060  218.9040 C   0  0  0  0  0  0  0  0  0  0  0  0
  144.6600   71.8610  220.0900 C   0  0  0  0  0  0  0  0  0  0  0  0
  143.2740   71.3790  220.2380 N   0  0  0  0  0  0  0  0  0  0  0  0
  142.3240   72.1900  220.9610 C   0  0  0  0  0  0  0  0  0  0  0  0
  141.4550   71.6160  221.8350 N   0  0  0  0  0  0  0  0  0  0  0  0
  140.5580   72.3790  222.5100 C   0  0  0  0  0  0  0  0  0  0  0  0
  139.5330   71.7350  223.3910 C   0  0  0  0  0  0  0  0  0  0  0  0
  140.1240   70.5500  224.1650 C   0  0  0  0  0  0  0  0  0  0  0  0
  140.0790   70.8180  225.6220 N   0  0  0  0  0  0  0  0  0  0  0  0
  141.0740   71.8360  226.0310 C   0  0  0  0  0  0  0  0  0  0  0  0
  141.2040   71.9500  227.5660 C   0  0  0  0  0  0  0  0  0  0  0  0
  140.0080   71.3180  228.2850 C   0  0  0  0  0  0  0  0  0  0  0  0
  139.8330   69.8430  227.8810 C   0  0  0  0  0  0  0  0  0  0  0  0
  140.2370   69.5840  226.4190 C   0  0  0  0  0  0  0  0  0  0  0  0
  140.5130   73.7180  222.2920 N   0  0  0  0  0  0  0  0  0  0  0  0
  141.3670   74.3030  221.4130 C   0  0  0  0  0  0  0  0  0  0  0  0
  141.2850   75.7200  221.1570 N   0  0  0  0  0  0  0  0  0  0  0  0
  140.4810   76.6010  222.0200 C   0  0  0  0  0  0  0  0  0  0  0  0
  141.1930   77.9480  222.2820 C   0  0  0  0  0  0  0  0  0  0  0  0
  142.1940   78.3080  221.2560 N   0  0  0  0  0  0  0  0  0  0  0  0
  141.8420   77.7950  219.9270 C   0  0  0  0  0  0  0  0  0  0  0  0
  141.8910   76.2640  219.9340 C   0  0  0  0  0  0  0  0  0  0  0  0
  142.2710   73.5310  220.7540 N   0  0  0  0  0  0  0  0  0  0  0  0
  142.8400   70.0660  219.7240 C   0  0  0  0  0  0  0  0  0  0  0  0
  146.9378   66.8281  218.3007 H   0  0  0  0  0  0  0  0  0  0  0  0
  144.7625   65.8438  219.0243 H   0  0  0  0  0  0  0  0  0  0  0  0
  142.8719   67.3338  219.6790 H   0  0  0  0  0  0  0  0  0  0  0  0
  147.2341   69.3056  218.2459 H   0  0  0  0  0  0  0  0  0  0  0  0
  146.4390   71.4678  218.9319 H   0  0  0  0  0  0  0  0  0  0  0  0
  144.9173   71.5698  217.9703 H   0  0  0  0  0  0  0  0  0  0  0  0
  145.2168   71.6292  221.0099 H   0  0  0  0  0  0  0  0  0  0  0  0
  144.6251   72.9454  219.9086 H   0  0  0  0  0  0  0  0  0  0  0  0
  139.1591   72.4802  224.1085 H   0  0  0  0  0  0  0  0  0  0  0  0
  138.7170   71.3605  222.7555 H   0  0  0  0  0  0  0  0  0  0  0  0
  139.5406   69.6440  223.9438 H   0  0  0  0  0  0  0  0  0  0  0  0
  141.1705   70.4064  223.8582 H   0  0  0  0  0  0  0  0  0  0  0  0
  142.0535   71.5603  225.6132 H   0  0  0  0  0  0  0  0  0  0  0  0
  140.7327   72.8100  225.6504 H   0  0  0  0  0  0  0  0  0  0  0  0
  142.1233   71.4369  227.8849 H   0  0  0  0  0  0  0  0  0  0  0  0
  141.2367   73.0177  227.8287 H   0  0  0  0  0  0  0  0  0  0  0  0
  140.1707   71.3758  229.3714 H   0  0  0  0  0  0  0  0  0  0  0  0
  139.0991   71.8680  227.9997 H   0  0  0  0  0  0  0  0  0  0  0  0
  140.4597   69.2204  228.5364 H   0  0  0  0  0  0  0  0  0  0  0  0
  138.7673   69.5908  227.9845 H   0  0  0  0  0  0  0  0  0  0  0  0
  141.2877   69.2603  226.3839 H   0  0  0  0  0  0  0  0  0  0  0  0
  139.5893   68.7997  226.0002 H   0  0  0  0  0  0  0  0  0  0  0  0
  139.5162   76.7971  221.5294 H   0  0  0  0  0  0  0  0  0  0  0  0
  140.3359   76.0957  222.9863 H   0  0  0  0  0  0  0  0  0  0  0  0
  140.4315   78.7410  222.3156 H   0  0  0  0  0  0  0  0  0  0  0  0
  141.7357   77.8416  223.2328 H   0  0  0  0  0  0  0  0  0  0  0  0
  143.1310   77.9330  221.5360 H   0  0  0  0  0  0  0  0  0  0  0  0
  142.2690   79.3510  221.2050 H   0  0  0  0  0  0  0  0  0  0  0  0
  140.8268   78.1270  219.6642 H   0  0  0  0  0  0  0  0  0  0  0  0
  142.5597   78.1787  219.1870 H   0  0  0  0  0  0  0  0  0  0  0  0
  141.3411   75.8831  219.0607 H   0  0  0  0  0  0  0  0  0  0  0  0
  142.9441   75.9484  219.8962 H   0  0  0  0  0  0  0  0  0  0  0  0
  142.2321   69.5700  220.4950 H   0  0  0  0  0  0  0  0  0  0  0  0
  142.2648   70.2439  218.8034 H   0  0  0  0  0  0  0  0  0  0  0  0
  1  2  2  0
  2  3  1  0
  3  4  2  0
  4  5  1  0
  5  6  2  0
  5  7  1  0
  7  8  1  0
  8  9  1  0
  9 10  1  0
 10 11  2  0
 11 12  1  0
 12 13  1  0
 13 14  1  0
 14 15  1  0
 15 16  1  0
 16 17  1  0
 17 18  1  0
 18 19  1  0
 19 20  1  0
 12 21  2  0
 21 22  1  0
 22 23  1  0
 23 24  1  0
 24 25  1  0
 25 26  1  0
 26 27  1  0
 27 28  1  0
 22 29  2  0
  9 30  1  0
  6  1  1  0
 29 10  1  0
 30  4  1  0
 20 15  1  0
 28 23  1  0
  1 31  1  0
  2 32  1  0
  3 33  1  0
  6 34  1  0
  7 35  1  0
  7 36  1  0
  8 37  1  0
  8 38  1  0
 13 39  1  0
 13 40  1  0
 14 41  1  0
 14 42  1  0
 16 43  1  0
 16 44  1  0
 17 45  1  0
 17 46  1  0
 18 47  1  0
 18 48  1  0
 19 49  1  0
 19 50  1  0
 20 51  1  0
 20 52  1  0
 24 53  1  0
 24 54  1  0
 25 55  1  0
 25 56  1  0
 26 57  1  0
 26 58  1  0
 27 59  1  0
 27 60  1  0
 28 61  1  0
 28 62  1  0
 30 63  1  0
 30 64  1  0
M  CHG  1  26   1
M  END
>  <UniqueID>  (56) 
563

>  <SMILES>  (56) 
c1ccc2c(c1)CCN(c1nc(CCN3CCCCC3)nc(N3CC[NH2+]CC3)n1)C2

>  <Energy>  (56) 
74.96437688718524

>  <Genealogy>  (56) 
c1ccc2c(c1)CCN(c1nc(CCN3CCCCC3)nc(N3CC[NH2+]CC3)n1)C2 (protonated)
c1ccc2c(c1)CCN(c1nc(CCN3CCCCC3)nc(N3CC[NH2+]CC3)n1)C2 (3D coordinates assigned)
c1ccc2c(c1)CCN(c1nc(CCN3CCCCC3)nc(N3CC[NH2+]CC3)n1)C2 (nonaromatic ring conformer: 74.96437688718524 kcal/mol)

>  <smiles>  (56) 
c1ccc2c(c1)CCN(c1nc(CCN3CCCCC3)nc(N3CCNCC3)n1)C2

>  <score_type>  (56) 
oracle

>  <origin>  (56) 
autodockgpu

>  <m_score__min__energy>  (56) 
-9.0700000000000003

>  <m_primary>  (56) 
energy

>  <meeko>  (56) 
{"free_energy": -9.07, "intermolecular_energy": -10.56, "internal_energy": -0.82, "cluster_size": 8, "cluster_id": 1, "rank_in_cluster": 2}

>  <energy>  (56) 
-8.44

>  <cluster_rmsd>  (56) 
0.0

>  <rmsd>  (56) 
270.24

>  <cluster>  (56) 
4

$$$$
GZRQFJZYBWHXJG-UNYBPEQONA-O
     RDKit          3D

 64 68  0  0  0  0  0  0  0  0999 V2000
  146.1740   67.6660  218.7890 C   0  0  0  0  0  0  0  0  0  0  0  0
  144.9610   67.0890  219.1680 C   0  0  0  0  0  0  0  0  0  0  0  0
  143.8770   67.8990  219.5140 C   0  0  0  0  0  0  0  0  0  0  0  0
  144.0060   69.2980  219.5020 C   0  0  0  0  0  0  0  0  0  0  0  0
  145.2290   69.8770  219.1220 C   0  0  0  0  0  0  0  0  0  0  0  0
  146.3090   69.0560  218.7580 C   0  0  0  0  0  0  0  0  0  0  0  0
  145.3400   71.3680  219.0520 C   0  0  0  0  0  0  0  0  0  0  0  0
  144.5880   72.0130  220.2180 C   0  0  0  0  0  0  0  0  0  0  0  0
  143.2100   71.4990  220.3380 N   0  0  0  0  0  0  0  0  0  0  0  0
  142.2260   72.2910  221.0350 C   0  0  0  0  0  0  0  0  0  0  0  0
  141.3120   71.6940  221.8460 N   0  0  0  0  0  0  0  0  0  0  0  0
  140.3820   72.4400  222.4960 C   0  0  0  0  0  0  0  0  0  0  0  0
  139.3130   71.7740  223.3040 C   0  0  0  0  0  0  0  0  0  0  0  0
  139.8570   70.5520  224.0550 C   0  0  0  0  0  0  0  0  0  0  0  0
  140.0160   70.8650  225.4940 N   0  0  0  0  0  0  0  0  0  0  0  0
  141.0840   71.8640  225.7310 C   0  0  0  0  0  0  0  0  0  0  0  0
  141.4240   72.0210  227.2300 C   0  0  0  0  0  0  0  0  0  0  0  0
  140.3200   71.4490  228.1240 C   0  0  0  0  0  0  0  0  0  0  0  0
  140.0520   69.9680  227.7980 C   0  0  0  0  0  0  0  0  0  0  0  0
  140.2480   69.6520  226.3050 C   0  0  0  0  0  0  0  0  0  0  0  0
  140.3500   73.7850  222.3140 N   0  0  0  0  0  0  0  0  0  0  0  0
  141.2490   74.3930  221.4970 C   0  0  0  0  0  0  0  0  0  0  0  0
  141.1810   75.8160  221.2790 N   0  0  0  0  0  0  0  0  0  0  0  0
  140.5760   76.7090  222.2790 C   0  0  0  0  0  0  0  0  0  0  0  0
  141.3770   78.0240  222.4310 C   0  0  0  0  0  0  0  0  0  0  0  0
  142.1980   78.3650  221.2510 N   0  0  0  0  0  0  0  0  0  0  0  0
  141.6000   77.8930  219.9980 C   0  0  0  0  0  0  0  0  0  0  0  0
  141.5870   76.3610  219.9760 C   0  0  0  0  0  0  0  0  0  0  0  0
  142.1850   73.6380  220.8640 N   0  0  0  0  0  0  0  0  0  0  0  0
  142.8200   70.1720  219.8230 C   0  0  0  0  0  0  0  0  0  0  0  0
  147.0249   67.0253  218.5143 H   0  0  0  0  0  0  0  0  0  0  0  0
  144.8585   65.9941  219.1943 H   0  0  0  0  0  0  0  0  0  0  0  0
  142.9184   67.4397  219.7971 H   0  0  0  0  0  0  0  0  0  0  0  0
  147.2626   69.5083  218.4480 H   0  0  0  0  0  0  0  0  0  0  0  0
  146.4006   71.6554  219.1012 H   0  0  0  0  0  0  0  0  0  0  0  0
  144.8983   71.7152  218.1063 H   0  0  0  0  0  0  0  0  0  0  0  0
  145.1294   71.7995  221.1515 H   0  0  0  0  0  0  0  0  0  0  0  0
  144.5321   73.0953  220.0295 H   0  0  0  0  0  0  0  0  0  0  0  0
  138.9151   72.4944  224.0338 H   0  0  0  0  0  0  0  0  0  0  0  0
  138.5223   71.4348  222.6186 H   0  0  0  0  0  0  0  0  0  0  0  0
  139.1546   69.7132  223.9411 H   0  0  0  0  0  0  0  0  0  0  0  0
  140.8373   70.2805  223.6363 H   0  0  0  0  0  0  0  0  0  0  0  0
  141.9903   71.5456  225.1950 H   0  0  0  0  0  0  0  0  0  0  0  0
  140.7198   72.8360  225.3669 H   0  0  0  0  0  0  0  0  0  0  0  0
  142.3639   71.4895  227.4399 H   0  0  0  0  0  0  0  0  0  0  0  0
  141.5209   73.0946  227.4491 H   0  0  0  0  0  0  0  0  0  0  0  0
  140.6296   71.5346  229.1760 H   0  0  0  0  0  0  0  0  0  0  0  0
  139.3960   72.0183  227.9445 H   0  0  0  0  0  0  0  0  0  0  0  0
  140.7442   69.3462  228.3847 H   0  0  0  0  0  0  0  0  0  0  0  0
  139.0035   69.7528  228.0519 H   0  0  0  0  0  0  0  0  0  0  0  0
  141.2756   69.2955  226.1405 H   0  0  0  0  0  0  0  0  0  0  0  0
  139.5295   68.8753  226.0043 H   0  0  0  0  0  0  0  0  0  0  0  0
  139.5495   76.9510  221.9663 H   0  0  0  0  0  0  0  0  0  0  0  0
  140.5807   76.1906  223.2492 H   0  0  0  0  0  0  0  0  0  0  0  0
  140.6656   78.8444  222.6067 H   0  0  0  0  0  0  0  0  0  0  0  0
  142.0713   77.8794  223.2719 H   0  0  0  0  0  0  0  0  0  0  0  0
  143.1540   77.9500  221.3580 H   0  0  0  0  0  0  0  0  0  0  0  0
  142.3060   79.4060  221.2020 H   0  0  0  0  0  0  0  0  0  0  0  0
  140.5689   78.2684  219.9209 H   0  0  0  0  0  0  0  0  0  0  0  0
  142.1931   78.2642  219.1492 H   0  0  0  0  0  0  0  0  0  0  0  0
  140.8787   76.0189  219.2071 H   0  0  0  0  0  0  0  0  0  0  0  0
  142.6036   76.0064  219.7507 H   0  0  0  0  0  0  0  0  0  0  0  0
  142.2064   69.6664  220.5832 H   0  0  0  0  0  0  0  0  0  0  0  0
  142.2627   70.3304  218.8880 H   0  0  0  0  0  0  0  0  0  0  0  0
  1  2  2  0
  2  3  1  0
  3  4  2  0
  4  5  1  0
  5  6  2  0
  5  7  1  0
  7  8  1  0
  8  9  1  0
  9 10  1  0
 10 11  2  0
 11 12  1  0
 12 13  1  0
 13 14  1  0
 14 15  1  0
 15 16  1  0
 16 17  1  0
 17 18  1  0
 18 19  1  0
 19 20  1  0
 12 21  2  0
 21 22  1  0
 22 23  1  0
 23 24  1  0
 24 25  1  0
 25 26  1  0
 26 27  1  0
 27 28  1  0
 22 29  2  0
  9 30  1  0
  6  1  1  0
 29 10  1  0
 30  4  1  0
 20 15  1  0
 28 23  1  0
  1 31  1  0
  2 32  1  0
  3 33  1  0
  6 34  1  0
  7 35  1  0
  7 36  1  0
  8 37  1  0
  8 38  1  0
 13 39  1  0
 13 40  1  0
 14 41  1  0
 14 42  1  0
 16 43  1  0
 16 44  1  0
 17 45  1  0
 17 46  1  0
 18 47  1  0
 18 48  1  0
 19 49  1  0
 19 50  1  0
 20 51  1  0
 20 52  1  0
 24 53  1  0
 24 54  1  0
 25 55  1  0
 25 56  1  0
 26 57  1  0
 26 58  1  0
 27 59  1  0
 27 60  1  0
 28 61  1  0
 28 62  1  0
 30 63  1  0
 30 64  1  0
M  CHG  1  26   1
M  END
>  <UniqueID>  (57) 
563

>  <SMILES>  (57) 
c1ccc2c(c1)CCN(c1nc(CCN3CCCCC3)nc(N3CC[NH2+]CC3)n1)C2

>  <Energy>  (57) 
74.96437688718524

>  <Genealogy>  (57) 
c1ccc2c(c1)CCN(c1nc(CCN3CCCCC3)nc(N3CC[NH2+]CC3)n1)C2 (protonated)
c1ccc2c(c1)CCN(c1nc(CCN3CCCCC3)nc(N3CC[NH2+]CC3)n1)C2 (3D coordinates assigned)
c1ccc2c(c1)CCN(c1nc(CCN3CCCCC3)nc(N3CC[NH2+]CC3)n1)C2 (nonaromatic ring conformer: 74.96437688718524 kcal/mol)

>  <smiles>  (57) 
c1ccc2c(c1)CCN(c1nc(CCN3CCCCC3)nc(N3CCNCC3)n1)C2

>  <score_type>  (57) 
oracle

>  <origin>  (57) 
autodockgpu

>  <m_score__min__energy>  (57) 
-9.0700000000000003

>  <m_primary>  (57) 
energy

>  <meeko>  (57) 
{"free_energy": -9.02, "intermolecular_energy": -10.52, "internal_energy": -0.86, "cluster_size": 8, "cluster_id": 1, "rank_in_cluster": 4}

>  <energy>  (57) 
-7.99

>  <cluster_rmsd>  (57) 
1.26

>  <rmsd>  (57) 
270.28

>  <cluster>  (57) 
4

$$$$
GZRQFJZYBWHXJG-UNYBPEQONA-O
     RDKit          3D

 64 68  0  0  0  0  0  0  0  0999 V2000
  140.5030   69.2420  228.3550 C   0  0  0  0  0  0  0  0  0  0  0  0
  141.2070   70.4480  228.3430 C   0  0  0  0  0  0  0  0  0  0  0  0
  141.1500   71.2820  227.2240 C   0  0  0  0  0  0  0  0  0  0  0  0
  140.4010   70.9050  226.0970 C   0  0  0  0  0  0  0  0  0  0  0  0
  139.6950   69.6900  226.1100 C   0  0  0  0  0  0  0  0  0  0  0  0
  139.7410   68.8650  227.2450 C   0  0  0  0  0  0  0  0  0  0  0  0
  138.8500   69.3240  224.9300 C   0  0  0  0  0  0  0  0  0  0  0  0
  139.5550   69.7160  223.6290 C   0  0  0  0  0  0  0  0  0  0  0  0
  140.0170   71.1170  223.6510 N   0  0  0  0  0  0  0  0  0  0  0  0
  140.2610   71.7930  222.4000 C   0  0  0  0  0  0  0  0  0  0  0  0
  140.5510   71.0810  221.2780 N   0  0  0  0  0  0  0  0  0  0  0  0
  140.7870   71.7190  220.1040 C   0  0  0  0  0  0  0  0  0  0  0  0
  141.2080   70.9420  218.8960 C   0  0  0  0  0  0  0  0  0  0  0  0
  142.7220   71.0340  218.6700 C   0  0  0  0  0  0  0  0  0  0  0  0
  143.2620   72.2540  219.3130 N   0  0  0  0  0  0  0  0  0  0  0  0
  143.3000   73.4040  218.3810 C   0  0  0  0  0  0  0  0  0  0  0  0
  144.0770   74.6080  218.9590 C   0  0  0  0  0  0  0  0  0  0  0  0
  144.2490   74.4950  220.4770 C   0  0  0  0  0  0  0  0  0  0  0  0
  144.9540   73.1810  220.8600 C   0  0  0  0  0  0  0  0  0  0  0  0
  144.5930   72.0240  219.9120 C   0  0  0  0  0  0  0  0  0  0  0  0
  140.7580   73.0760  220.0560 N   0  0  0  0  0  0  0  0  0  0  0  0
  140.4810   73.8000  221.1710 C   0  0  0  0  0  0  0  0  0  0  0  0
  140.4930   75.2410  221.1200 N   0  0  0  0  0  0  0  0  0  0  0  0
  139.8680   76.0430  222.1830 C   0  0  0  0  0  0  0  0  0  0  0  0
  140.7170   77.2860  222.5360 C   0  0  0  0  0  0  0  0  0  0  0  0
  141.6260   77.7180  221.4540 N   0  0  0  0  0  0  0  0  0  0  0  0
  141.0880   77.4260  220.1210 C   0  0  0  0  0  0  0  0  0  0  0  0
  141.0060   75.9110  219.9160 C   0  0  0  0  0  0  0  0  0  0  0  0
  140.2320   73.1500  222.3380 N   0  0  0  0  0  0  0  0  0  0  0  0
  140.2970   71.8310  224.9110 C   0  0  0  0  0  0  0  0  0  0  0  0
  140.5480   68.5881  229.2384 H   0  0  0  0  0  0  0  0  0  0  0  0
  141.8076   70.7417  229.2165 H   0  0  0  0  0  0  0  0  0  0  0  0
  141.6939   72.2381  227.2253 H   0  0  0  0  0  0  0  0  0  0  0  0
  139.1768   67.9208  227.2610 H   0  0  0  0  0  0  0  0  0  0  0  0
  138.6726   68.2384  224.9336 H   0  0  0  0  0  0  0  0  0  0  0  0
  137.8931   69.8627  224.9945 H   0  0  0  0  0  0  0  0  0  0  0  0
  140.4242   69.0577  223.4838 H   0  0  0  0  0  0  0  0  0  0  0  0
  138.8331   69.6093  222.8059 H   0  0  0  0  0  0  0  0  0  0  0  0
  140.9305   69.8867  219.0349 H   0  0  0  0  0  0  0  0  0  0  0  0
  140.7008   71.3671  218.0174 H   0  0  0  0  0  0  0  0  0  0  0  0
  143.2087   70.1484  219.1046 H   0  0  0  0  0  0  0  0  0  0  0  0
  142.9214   71.0797  217.5892 H   0  0  0  0  0  0  0  0  0  0  0  0
  143.7865   73.0855  217.4472 H   0  0  0  0  0  0  0  0  0  0  0  0
  142.2632   73.7276  218.2066 H   0  0  0  0  0  0  0  0  0  0  0  0
  145.0710   74.6494  218.4897 H   0  0  0  0  0  0  0  0  0  0  0  0
  143.5023   75.5214  218.7459 H   0  0  0  0  0  0  0  0  0  0  0  0
  144.8517   75.3431  220.8341 H   0  0  0  0  0  0  0  0  0  0  0  0
  143.2525   74.5047  220.9426 H   0  0  0  0  0  0  0  0  0  0  0  0
  146.0418   73.3404  220.8247 H   0  0  0  0  0  0  0  0  0  0  0  0
  144.6200   72.9033  221.8706 H   0  0  0  0  0  0  0  0  0  0  0  0
  145.3457   71.9607  219.1123 H   0  0  0  0  0  0  0  0  0  0  0  0
  144.5730   71.0840  220.4829 H   0  0  0  0  0  0  0  0  0  0  0  0
  138.8756   76.3740  221.8430 H   0  0  0  0  0  0  0  0  0  0  0  0
  139.7875   75.4159  223.0832 H   0  0  0  0  0  0  0  0  0  0  0  0
  140.0345   78.1171  222.7673 H   0  0  0  0  0  0  0  0  0  0  0  0
  141.3495   77.0077  223.3919 H   0  0  0  0  0  0  0  0  0  0  0  0
  142.5540   77.2430  221.5660 H   0  0  0  0  0  0  0  0  0  0  0  0
  141.7850   78.7500  221.5350 H   0  0  0  0  0  0  0  0  0  0  0  0
  140.0822   77.8620  220.0295 H   0  0  0  0  0  0  0  0  0  0  0  0
  141.7509   77.8606  219.3583 H   0  0  0  0  0  0  0  0  0  0  0  0
  140.3330   75.6985  219.0723 H   0  0  0  0  0  0  0  0  0  0  0  0
  142.0174   75.5312  219.7089 H   0  0  0  0  0  0  0  0  0  0  0  0
  141.2482   72.3730  224.8039 H   0  0  0  0  0  0  0  0  0  0  0  0
  139.4562   72.5152  225.0978 H   0  0  0  0  0  0  0  0  0  0  0  0
  1  2  2  0
  2  3  1  0
  3  4  2  0
  4  5  1  0
  5  6  2  0
  5  7  1  0
  7  8  1  0
  8  9  1  0
  9 10  1  0
 10 11  2  0
 11 12  1  0
 12 13  1  0
 13 14  1  0
 14 15  1  0
 15 16  1  0
 16 17  1  0
 17 18  1  0
 18 19  1  0
 19 20  1  0
 12 21  2  0
 21 22  1  0
 22 23  1  0
 23 24  1  0
 24 25  1  0
 25 26  1  0
 26 27  1  0
 27 28  1  0
 22 29  2  0
  9 30  1  0
  6  1  1  0
 29 10  1  0
 30  4  1  0
 20 15  1  0
 28 23  1  0
  1 31  1  0
  2 32  1  0
  3 33  1  0
  6 34  1  0
  7 35  1  0
  7 36  1  0
  8 37  1  0
  8 38  1  0
 13 39  1  0
 13 40  1  0
 14 41  1  0
 14 42  1  0
 16 43  1  0
 16 44  1  0
 17 45  1  0
 17 46  1  0
 18 47  1  0
 18 48  1  0
 19 49  1  0
 19 50  1  0
 20 51  1  0
 20 52  1  0
 24 53  1  0
 24 54  1  0
 25 55  1  0
 25 56  1  0
 26 57  1  0
 26 58  1  0
 27 59  1  0
 27 60  1  0
 28 61  1  0
 28 62  1  0
 30 63  1  0
 30 64  1  0
M  CHG  1  26   1
M  END
>  <UniqueID>  (58) 
563

>  <SMILES>  (58) 
c1ccc2c(c1)CCN(c1nc(CCN3CCCCC3)nc(N3CC[NH2+]CC3)n1)C2

>  <Energy>  (58) 
74.96437688718524

>  <Genealogy>  (58) 
c1ccc2c(c1)CCN(c1nc(CCN3CCCCC3)nc(N3CC[NH2+]CC3)n1)C2 (protonated)
c1ccc2c(c1)CCN(c1nc(CCN3CCCCC3)nc(N3CC[NH2+]CC3)n1)C2 (3D coordinates assigned)
c1ccc2c(c1)CCN(c1nc(CCN3CCCCC3)nc(N3CC[NH2+]CC3)n1)C2 (nonaromatic ring conformer: 74.96437688718524 kcal/mol)

>  <smiles>  (58) 
c1ccc2c(c1)CCN(c1nc(CCN3CCCCC3)nc(N3CCNCC3)n1)C2

>  <score_type>  (58) 
oracle

>  <origin>  (58) 
autodockgpu

>  <m_score__min__energy>  (58) 
-9.0700000000000003

>  <m_primary>  (58) 
energy

>  <meeko>  (58) 
{"free_energy": -7.79, "intermolecular_energy": -9.28, "internal_energy": -1.43, "cluster_size": 3, "cluster_id": 4, "rank_in_cluster": 3}

>  <energy>  (58) 
-7.79

>  <cluster_rmsd>  (58) 
1.28

>  <rmsd>  (58) 
270.27

>  <cluster>  (58) 
4

$$$$
GZRQFJZYBWHXJG-UNYBPEQONA-O
     RDKit          3D

 64 68  0  0  0  0  0  0  0  0999 V2000
  144.8750   70.7960  219.4360 C   0  0  0  0  0  0  0  0  0  0  0  0
  145.5680   71.9440  219.0480 C   0  0  0  0  0  0  0  0  0  0  0  0
  145.0700   73.2080  219.3760 C   0  0  0  0  0  0  0  0  0  0  0  0
  143.8600   73.3310  220.0790 C   0  0  0  0  0  0  0  0  0  0  0  0
  143.1630   72.1740  220.4660 C   0  0  0  0  0  0  0  0  0  0  0  0
  143.6800   70.9070  220.1510 C   0  0  0  0  0  0  0  0  0  0  0  0
  141.9070   72.3120  221.2690 C   0  0  0  0  0  0  0  0  0  0  0  0
  141.0800   73.4960  220.7620 C   0  0  0  0  0  0  0  0  0  0  0  0
  141.8860   74.7270  220.6550 N   0  0  0  0  0  0  0  0  0  0  0  0
  141.2160   76.0050  220.6600 C   0  0  0  0  0  0  0  0  0  0  0  0
  140.3050   76.3010  221.6240 N   0  0  0  0  0  0  0  0  0  0  0  0
  139.6710   77.5010  221.6240 C   0  0  0  0  0  0  0  0  0  0  0  0
  138.5930   77.7830  222.6230 C   0  0  0  0  0  0  0  0  0  0  0  0
  138.9290   79.0100  223.4790 C   0  0  0  0  0  0  0  0  0  0  0  0
  140.2150   79.6020  223.0420 N   0  0  0  0  0  0  0  0  0  0  0  0
  141.3540   79.1170  223.8560 C   0  0  0  0  0  0  0  0  0  0  0  0
  142.6560   79.8990  223.5730 C   0  0  0  0  0  0  0  0  0  0  0  0
  142.5770   80.6750  222.2550 C   0  0  0  0  0  0  0  0  0  0  0  0
  141.3740   81.6360  222.2470 C   0  0  0  0  0  0  0  0  0  0  0  0
  140.1730   81.0780  223.0310 C   0  0  0  0  0  0  0  0  0  0  0  0
  139.9320   78.4000  220.6410 N   0  0  0  0  0  0  0  0  0  0  0  0
  140.8320   78.1150  219.6650 C   0  0  0  0  0  0  0  0  0  0  0  0
  141.0710   79.0600  218.6030 N   0  0  0  0  0  0  0  0  0  0  0  0
  141.4340   80.4550  218.8970 C   0  0  0  0  0  0  0  0  0  0  0  0
  142.5210   80.9790  217.9300 C   0  0  0  0  0  0  0  0  0  0  0  0
  142.5840   80.2500  216.6470 N   0  0  0  0  0  0  0  0  0  0  0  0
  141.2750   79.7360  216.2300 C   0  0  0  0  0  0  0  0  0  0  0  0
  140.8050   78.6600  217.2140 C   0  0  0  0  0  0  0  0  0  0  0  0
  141.4710   76.9150  219.6840 N   0  0  0  0  0  0  0  0  0  0  0  0
  143.3500   74.6940  220.4790 C   0  0  0  0  0  0  0  0  0  0  0  0
  145.2705   69.8024  219.1783 H   0  0  0  0  0  0  0  0  0  0  0  0
  146.5076   71.8536  218.4832 H   0  0  0  0  0  0  0  0  0  0  0  0
  145.6275   74.1097  219.0827 H   0  0  0  0  0  0  0  0  0  0  0  0
  143.1433   70.0006  220.4677 H   0  0  0  0  0  0  0  0  0  0  0  0
  141.3145   71.3897  221.1774 H   0  0  0  0  0  0  0  0  0  0  0  0
  142.1728   72.4859  222.3221 H   0  0  0  0  0  0  0  0  0  0  0  0
  140.6765   73.2482  219.7691 H   0  0  0  0  0  0  0  0  0  0  0  0
  140.2718   73.6806  221.4850 H   0  0  0  0  0  0  0  0  0  0  0  0
  137.6494   77.9672  222.0886 H   0  0  0  0  0  0  0  0  0  0  0  0
  138.5018   76.9118  223.2883 H   0  0  0  0  0  0  0  0  0  0  0  0
  138.1296   79.7579  223.3716 H   0  0  0  0  0  0  0  0  0  0  0  0
  139.0152   78.7010  224.5312 H   0  0  0  0  0  0  0  0  0  0  0  0
  141.0998   79.2277  224.9205 H   0  0  0  0  0  0  0  0  0  0  0  0
  141.5310   78.0642  223.5910 H   0  0  0  0  0  0  0  0  0  0  0  0
  142.8308   80.6092  224.3946 H   0  0  0  0  0  0  0  0  0  0  0  0
  143.4803   79.1748  223.4951 H   0  0  0  0  0  0  0  0  0  0  0  0
  143.5017   81.2563  222.1247 H   0  0  0  0  0  0  0  0  0  0  0  0
  142.4533   79.9545  221.4330 H   0  0  0  0  0  0  0  0  0  0  0  0
  141.6805   82.5897  222.7015 H   0  0  0  0  0  0  0  0  0  0  0  0
  141.0591   81.7709  221.2017 H   0  0  0  0  0  0  0  0  0  0  0  0
  140.2090   81.4506  224.0653 H   0  0  0  0  0  0  0  0  0  0  0  0
  139.2423   81.4078  222.5463 H   0  0  0  0  0  0  0  0  0  0  0  0
  140.5373   81.0847  218.8003 H   0  0  0  0  0  0  0  0  0  0  0  0
  141.8362   80.4964  219.9200 H   0  0  0  0  0  0  0  0  0  0  0  0
  142.3131   82.0379  217.7166 H   0  0  0  0  0  0  0  0  0  0  0  0
  143.4900   80.8305  218.4290 H   0  0  0  0  0  0  0  0  0  0  0  0
  143.2600   79.4530  216.7300 H   0  0  0  0  0  0  0  0  0  0  0  0
  142.9440   80.8960  215.9050 H   0  0  0  0  0  0  0  0  0  0  0  0
  140.5467   80.5602  216.2143 H   0  0  0  0  0  0  0  0  0  0  0  0
  141.3593   79.2980  215.2245 H   0  0  0  0  0  0  0  0  0  0  0  0
  139.7237   78.5039  217.0860 H   0  0  0  0  0  0  0  0  0  0  0  0
  141.3572   77.7316  217.0062 H   0  0  0  0  0  0  0  0  0  0  0  0
  143.6264   75.4163  219.6967 H   0  0  0  0  0  0  0  0  0  0  0  0
  143.8060   74.9473  221.4475 H   0  0  0  0  0  0  0  0  0  0  0  0
  1  2  2  0
  2  3  1  0
  3  4  2  0
  4  5  1  0
  5  6  2  0
  5  7  1  0
  7  8  1  0
  8  9  1  0
  9 10  1  0
 10 11  2  0
 11 12  1  0
 12 13  1  0
 13 14  1  0
 14 15  1  0
 15 16  1  0
 16 17  1  0
 17 18  1  0
 18 19  1  0
 19 20  1  0
 12 21  2  0
 21 22  1  0
 22 23  1  0
 23 24  1  0
 24 25  1  0
 25 26  1  0
 26 27  1  0
 27 28  1  0
 22 29  2  0
  9 30  1  0
  6  1  1  0
 29 10  1  0
 30  4  1  0
 20 15  1  0
 28 23  1  0
  1 31  1  0
  2 32  1  0
  3 33  1  0
  6 34  1  0
  7 35  1  0
  7 36  1  0
  8 37  1  0
  8 38  1  0
 13 39  1  0
 13 40  1  0
 14 41  1  0
 14 42  1  0
 16 43  1  0
 16 44  1  0
 17 45  1  0
 17 46  1  0
 18 47  1  0
 18 48  1  0
 19 49  1  0
 19 50  1  0
 20 51  1  0
 20 52  1  0
 24 53  1  0
 24 54  1  0
 25 55  1  0
 25 56  1  0
 26 57  1  0
 26 58  1  0
 27 59  1  0
 27 60  1  0
 28 61  1  0
 28 62  1  0
 30 63  1  0
 30 64  1  0
M  CHG  1  26   1
M  END
>  <UniqueID>  (59) 
563

>  <SMILES>  (59) 
c1ccc2c(c1)CCN(c1nc(CCN3CCCCC3)nc(N3CC[NH2+]CC3)n1)C2

>  <Energy>  (59) 
74.96437688718524

>  <Genealogy>  (59) 
c1ccc2c(c1)CCN(c1nc(CCN3CCCCC3)nc(N3CC[NH2+]CC3)n1)C2 (protonated)
c1ccc2c(c1)CCN(c1nc(CCN3CCCCC3)nc(N3CC[NH2+]CC3)n1)C2 (3D coordinates assigned)
c1ccc2c(c1)CCN(c1nc(CCN3CCCCC3)nc(N3CC[NH2+]CC3)n1)C2 (nonaromatic ring conformer: 74.96437688718524 kcal/mol)

>  <smiles>  (59) 
c1ccc2c(c1)CCN(c1nc(CCN3CCCCC3)nc(N3CCNCC3)n1)C2

>  <score_type>  (59) 
oracle

>  <origin>  (59) 
autodockgpu

>  <m_score__min__energy>  (59) 
-9.0700000000000003

>  <m_primary>  (59) 
energy

>  <meeko>  (59) 
{"free_energy": -7.75, "intermolecular_energy": -9.24, "internal_energy": -1.32, "cluster_size": 1, "cluster_id": 5, "rank_in_cluster": 1}

>  <energy>  (59) 
-7.75

>  <cluster_rmsd>  (59) 
0.0

>  <rmsd>  (59) 
270.07

>  <cluster>  (59) 
5

$$$$
GZRQFJZYBWHXJG-UNYBPEQONA-O
     RDKit          3D

 64 68  0  0  0  0  0  0  0  0999 V2000
  139.6560   80.7380  223.8290 C   0  0  0  0  0  0  0  0  0  0  0  0
  141.0220   80.5200  223.6380 C   0  0  0  0  0  0  0  0  0  0  0  0
  141.4660   79.3360  223.0440 C   0  0  0  0  0  0  0  0  0  0  0  0
  140.5450   78.3500  222.6550 C   0  0  0  0  0  0  0  0  0  0  0  0
  139.1710   78.5700  222.8510 C   0  0  0  0  0  0  0  0  0  0  0  0
  138.7300   79.7710  223.4300 C   0  0  0  0  0  0  0  0  0  0  0  0
  138.1920   77.5420  222.3760 C   0  0  0  0  0  0  0  0  0  0  0  0
  138.7250   76.1340  222.6500 C   0  0  0  0  0  0  0  0  0  0  0  0
  140.1010   75.9570  222.1480 N   0  0  0  0  0  0  0  0  0  0  0  0
  140.5850   74.6230  221.8850 C   0  0  0  0  0  0  0  0  0  0  0  0
  139.9200   73.5420  222.3700 N   0  0  0  0  0  0  0  0  0  0  0  0
  140.3800   72.2880  222.1280 C   0  0  0  0  0  0  0  0  0  0  0  0
  139.7060   71.1050  222.7490 C   0  0  0  0  0  0  0  0  0  0  0  0
  139.4140   71.3430  224.2360 C   0  0  0  0  0  0  0  0  0  0  0  0
  139.9850   70.2440  225.0500 N   0  0  0  0  0  0  0  0  0  0  0  0
  139.1820   69.0040  224.9520 C   0  0  0  0  0  0  0  0  0  0  0  0
  139.6230   67.9320  225.9740 C   0  0  0  0  0  0  0  0  0  0  0  0
  141.0170   68.2250  226.5360 C   0  0  0  0  0  0  0  0  0  0  0  0
  141.0740   69.6220  227.1810 C   0  0  0  0  0  0  0  0  0  0  0  0
  140.1670   70.6370  226.4630 C   0  0  0  0  0  0  0  0  0  0  0  0
  141.5240   72.1160  221.4180 N   0  0  0  0  0  0  0  0  0  0  0  0
  142.2060   73.1880  220.9370 C   0  0  0  0  0  0  0  0  0  0  0  0
  143.4420   72.9970  220.2190 N   0  0  0  0  0  0  0  0  0  0  0  0
  143.4770   72.2420  218.9570 C   0  0  0  0  0  0  0  0  0  0  0  0
  144.4220   72.9000  217.9240 C   0  0  0  0  0  0  0  0  0  0  0  0
  145.4610   73.7610  218.5250 N   0  0  0  0  0  0  0  0  0  0  0  0
  145.8720   73.2970  219.8550 C   0  0  0  0  0  0  0  0  0  0  0  0
  144.7030   73.4340  220.8350 C   0  0  0  0  0  0  0  0  0  0  0  0
  141.7280   74.4380  221.1740 N   0  0  0  0  0  0  0  0  0  0  0  0
  141.0220   77.0960  221.9650 C   0  0  0  0  0  0  0  0  0  0  0  0
  139.3086   81.6723  224.2942 H   0  0  0  0  0  0  0  0  0  0  0  0
  141.7494   81.2815  223.9557 H   0  0  0  0  0  0  0  0  0  0  0  0
  142.5418   79.1755  222.8803 H   0  0  0  0  0  0  0  0  0  0  0  0
  137.6538   79.9506  223.5696 H   0  0  0  0  0  0  0  0  0  0  0  0
  137.2375   77.6780  222.9055 H   0  0  0  0  0  0  0  0  0  0  0  0
  138.0429   77.6635  221.2930 H   0  0  0  0  0  0  0  0  0  0  0  0
  138.7173   75.9563  223.7355 H   0  0  0  0  0  0  0  0  0  0  0  0
  138.0767   75.4170  222.1250 H   0  0  0  0  0  0  0  0  0  0  0  0
  138.7579   70.9170  222.2239 H   0  0  0  0  0  0  0  0  0  0  0  0
  140.3788   70.2390  222.6629 H   0  0  0  0  0  0  0  0  0  0  0  0
  139.8639   72.2974  224.5468 H   0  0  0  0  0  0  0  0  0  0  0  0
  138.3250   71.3751  224.3882 H   0  0  0  0  0  0  0  0  0  0  0  0
  138.1260   69.2521  225.1343 H   0  0  0  0  0  0  0  0  0  0  0  0
  139.3312   68.5875  223.9449 H   0  0  0  0  0  0  0  0  0  0  0  0
  138.9011   67.9121  226.8037 H   0  0  0  0  0  0  0  0  0  0  0  0
  139.6581   66.9608  225.4587 H   0  0  0  0  0  0  0  0  0  0  0  0
  141.2641   67.4686  227.2955 H   0  0  0  0  0  0  0  0  0  0  0  0
  141.7405   68.1934  225.7080 H   0  0  0  0  0  0  0  0  0  0  0  0
  140.7520   69.5404  228.2296 H   0  0  0  0  0  0  0  0  0  0  0  0
  142.1096   69.9848  227.1045 H   0  0  0  0  0  0  0  0  0  0  0  0
  139.1870   70.6660  226.9618 H   0  0  0  0  0  0  0  0  0  0  0  0
  140.6365   71.6310  226.5029 H   0  0  0  0  0  0  0  0  0  0  0  0
  143.8289   71.2202  219.1623 H   0  0  0  0  0  0  0  0  0  0  0  0
  142.4612   72.2311  218.5351 H   0  0  0  0  0  0  0  0  0  0  0  0
  144.9207   72.1024  217.3538 H   0  0  0  0  0  0  0  0  0  0  0  0
  143.7992   73.5476  217.2893 H   0  0  0  0  0  0  0  0  0  0  0  0
  145.1040   74.7440  218.5950 H   0  0  0  0  0  0  0  0  0  0  0  0
  146.3000   73.7700  217.8980 H   0  0  0  0  0  0  0  0  0  0  0  0
  146.1774   72.2419  219.7957 H   0  0  0  0  0  0  0  0  0  0  0  0
  146.7162   73.9073  220.2083 H   0  0  0  0  0  0  0  0  0  0  0  0
  144.9032   72.8147  221.7218 H   0  0  0  0  0  0  0  0  0  0  0  0
  144.6056   74.4928  221.1168 H   0  0  0  0  0  0  0  0  0  0  0  0
  142.0055   76.8220  222.3743 H   0  0  0  0  0  0  0  0  0  0  0  0
  141.0739   77.3102  220.8873 H   0  0  0  0  0  0  0  0  0  0  0  0
  1  2  2  0
  2  3  1  0
  3  4  2  0
  4  5  1  0
  5  6  2  0
  5  7  1  0
  7  8  1  0
  8  9  1  0
  9 10  1  0
 10 11  2  0
 11 12  1  0
 12 13  1  0
 13 14  1  0
 14 15  1  0
 15 16  1  0
 16 17  1  0
 17 18  1  0
 18 19  1  0
 19 20  1  0
 12 21  2  0
 21 22  1  0
 22 23  1  0
 23 24  1  0
 24 25  1  0
 25 26  1  0
 26 27  1  0
 27 28  1  0
 22 29  2  0
  9 30  1  0
  6  1  1  0
 29 10  1  0
 30  4  1  0
 20 15  1  0
 28 23  1  0
  1 31  1  0
  2 32  1  0
  3 33  1  0
  6 34  1  0
  7 35  1  0
  7 36  1  0
  8 37  1  0
  8 38  1  0
 13 39  1  0
 13 40  1  0
 14 41  1  0
 14 42  1  0
 16 43  1  0
 16 44  1  0
 17 45  1  0
 17 46  1  0
 18 47  1  0
 18 48  1  0
 19 49  1  0
 19 50  1  0
 20 51  1  0
 20 52  1  0
 24 53  1  0
 24 54  1  0
 25 55  1  0
 25 56  1  0
 26 57  1  0
 26 58  1  0
 27 59  1  0
 27 60  1  0
 28 61  1  0
 28 62  1  0
 30 63  1  0
 30 64  1  0
M  CHG  1  26   1
M  END
>  <UniqueID>  (60) 
563

>  <SMILES>  (60) 
c1ccc2c(c1)CCN(c1nc(CCN3CCCCC3)nc(N3CC[NH2+]CC3)n1)C2

>  <Energy>  (60) 
74.96437688718524

>  <Genealogy>  (60) 
c1ccc2c(c1)CCN(c1nc(CCN3CCCCC3)nc(N3CC[NH2+]CC3)n1)C2 (protonated)
c1ccc2c(c1)CCN(c1nc(CCN3CCCCC3)nc(N3CC[NH2+]CC3)n1)C2 (3D coordinates assigned)
c1ccc2c(c1)CCN(c1nc(CCN3CCCCC3)nc(N3CC[NH2+]CC3)n1)C2 (nonaromatic ring conformer: 74.96437688718524 kcal/mol)

>  <smiles>  (60) 
c1ccc2c(c1)CCN(c1nc(CCN3CCCCC3)nc(N3CCNCC3)n1)C2

>  <score_type>  (60) 
oracle

>  <origin>  (60) 
autodockgpu

>  <m_score__min__energy>  (60) 
-9.0700000000000003

>  <m_primary>  (60) 
energy

>  <meeko>  (60) 
{"free_energy": -8.61, "intermolecular_energy": -10.11, "internal_energy": -0.73, "cluster_size": 4, "cluster_id": 3, "rank_in_cluster": 1}

>  <energy>  (60) 
-7.49

>  <cluster_rmsd>  (60) 
0.0

>  <rmsd>  (60) 
269.97

>  <cluster>  (60) 
6

$$$$
GZRQFJZYBWHXJG-UHFFFAOYNA-N
     RDKit          3D

 63 67  0  0  0  0  0  0  0  0999 V2000
  142.5280   80.7800  222.6290 C   0  0  0  0  0  0  0  0  0  0  0  0
  141.9930   80.3300  223.8390 C   0  0  0  0  0  0  0  0  0  0  0  0
  141.1440   79.2210  223.8590 C   0  0  0  0  0  0  0  0  0  0  0  0
  140.8280   78.5470  222.6670 C   0  0  0  0  0  0  0  0  0  0  0  0
  141.3470   79.0190  221.4340 C   0  0  0  0  0  0  0  0  0  0  0  0
  142.2130   80.1260  221.4330 C   0  0  0  0  0  0  0  0  0  0  0  0
  141.0670   78.3050  220.1280 C   0  0  0  0  0  0  0  0  0  0  0  0
  139.8410   77.3890  220.2220 C   0  0  0  0  0  0  0  0  0  0  0  0
  139.9240   76.6220  221.4670 N   0  0  0  0  0  0  0  0  0  0  0  0
  140.4870   75.3030  221.4480 C   0  0  0  0  0  0  0  0  0  0  0  0
  139.8540   74.2780  222.0750 N   0  0  0  0  0  0  0  0  0  0  0  0
  140.4080   73.0400  222.0910 C   0  0  0  0  0  0  0  0  0  0  0  0
  139.7730   71.9460  222.8880 C   0  0  0  0  0  0  0  0  0  0  0  0
  140.7510   71.3540  223.9140 C   0  0  0  0  0  0  0  0  0  0  0  0
  140.1470   71.3410  225.2710 N   0  0  0  0  0  0  0  0  0  0  0  0
  139.5430   70.0240  225.6220 C   0  0  0  0  0  0  0  0  0  0  0  0
  140.4330   69.1960  226.5550 C   0  0  0  0  0  0  0  0  0  0  0  0
  140.6860   69.9340  227.8790 C   0  0  0  0  0  0  0  0  0  0  0  0
  140.6790   71.4640  227.7120 C   0  0  0  0  0  0  0  0  0  0  0  0
  141.0920   71.8640  226.2900 C   0  0  0  0  0  0  0  0  0  0  0  0
  141.6010   72.8290  221.4800 N   0  0  0  0  0  0  0  0  0  0  0  0
  142.2420   73.8450  220.8440 C   0  0  0  0  0  0  0  0  0  0  0  0
  143.5080   73.6130  220.1900 N   0  0  0  0  0  0  0  0  0  0  0  0
  144.6980   73.3110  221.0000 C   0  0  0  0  0  0  0  0  0  0  0  0
  145.9780   73.7300  220.2610 C   0  0  0  0  0  0  0  0  0  0  0  0
  145.9980   73.1600  218.9080 N   0  0  0  0  0  0  0  0  0  0  0  0
  144.8650   73.6740  218.1290 C   0  0  0  0  0  0  0  0  0  0  0  0
  143.5390   73.2430  218.7660 C   0  0  0  0  0  0  0  0  0  0  0  0
  141.6820   75.0830  220.8420 N   0  0  0  0  0  0  0  0  0  0  0  0
  139.8610   77.3920  222.7130 C   0  0  0  0  0  0  0  0  0  0  0  0
  143.1991   81.6515  222.6168 H   0  0  0  0  0  0  0  0  0  0  0  0
  142.2406   80.8495  224.7764 H   0  0  0  0  0  0  0  0  0  0  0  0
  140.7205   78.8734  224.8128 H   0  0  0  0  0  0  0  0  0  0  0  0
  142.6458   80.4804  220.4859 H   0  0  0  0  0  0  0  0  0  0  0  0
  140.8892   79.0561  219.3443 H   0  0  0  0  0  0  0  0  0  0  0  0
  141.9398   77.6790  219.8906 H   0  0  0  0  0  0  0  0  0  0  0  0
  138.9239   77.9964  220.2216 H   0  0  0  0  0  0  0  0  0  0  0  0
  139.8164   76.7052  219.3607 H   0  0  0  0  0  0  0  0  0  0  0  0
  138.9000   72.3522  223.4199 H   0  0  0  0  0  0  0  0  0  0  0  0
  139.4733   71.1452  222.1960 H   0  0  0  0  0  0  0  0  0  0  0  0
  141.0016   70.3238  223.6208 H   0  0  0  0  0  0  0  0  0  0  0  0
  141.6576   71.9765  223.9372 H   0  0  0  0  0  0  0  0  0  0  0  0
  138.5785   70.2007  226.1206 H   0  0  0  0  0  0  0  0  0  0  0  0
  139.4197   69.4553  224.6885 H   0  0  0  0  0  0  0  0  0  0  0  0
  139.9369   68.2375  226.7673 H   0  0  0  0  0  0  0  0  0  0  0  0
  141.4001   69.0296  226.0579 H   0  0  0  0  0  0  0  0  0  0  0  0
  139.8993   69.6537  228.5949 H   0  0  0  0  0  0  0  0  0  0  0  0
  141.6835   69.6418  228.2390 H   0  0  0  0  0  0  0  0  0  0  0  0
  139.6660   71.8430  227.9123 H   0  0  0  0  0  0  0  0  0  0  0  0
  141.3999   71.8971  228.4210 H   0  0  0  0  0  0  0  0  0  0  0  0
  141.1163   72.9616  226.2223 H   0  0  0  0  0  0  0  0  0  0  0  0
  142.0835   71.4321  226.0888 H   0  0  0  0  0  0  0  0  0  0  0  0
  144.6351   73.8582  221.9522 H   0  0  0  0  0  0  0  0  0  0  0  0
  144.7347   72.2272  221.1846 H   0  0  0  0  0  0  0  0  0  0  0  0
  146.0143   74.8273  220.1926 H   0  0  0  0  0  0  0  0  0  0  0  0
  146.8500   73.3569  220.8182 H   0  0  0  0  0  0  0  0  0  0  0  0
  146.8820   73.4820  218.4420 H   0  0  0  0  0  0  0  0  0  0  0  0
  144.9133   74.7726  218.1007 H   0  0  0  0  0  0  0  0  0  0  0  0
  144.9196   73.2668  217.1086 H   0  0  0  0  0  0  0  0  0  0  0  0
  142.7081   73.7404  218.2444 H   0  0  0  0  0  0  0  0  0  0  0  0
  143.4408   72.1508  218.6796 H   0  0  0  0  0  0  0  0  0  0  0  0
  138.8403   77.7792  222.8485 H   0  0  0  0  0  0  0  0  0  0  0  0
  140.1307   76.7344  223.5525 H   0  0  0  0  0  0  0  0  0  0  0  0
  1  2  2  0
  2  3  1  0
  3  4  2  0
  4  5  1  0
  5  6  2  0
  5  7  1  0
  7  8  1  0
  8  9  1  0
  9 10  1  0
 10 11  2  0
 11 12  1  0
 12 13  1  0
 13 14  1  0
 14 15  1  0
 15 16  1  0
 16 17  1  0
 17 18  1  0
 18 19  1  0
 19 20  1  0
 12 21  2  0
 21 22  1  0
 22 23  1  0
 23 24  1  0
 24 25  1  0
 25 26  1  0
 26 27  1  0
 27 28  1  0
 22 29  2  0
  9 30  1  0
  6  1  1  0
 29 10  1  0
 30  4  1  0
 20 15  1  0
 28 23  1  0
  1 31  1  0
  2 32  1  0
  3 33  1  0
  6 34  1  0
  7 35  1  0
  7 36  1  0
  8 37  1  0
  8 38  1  0
 13 39  1  0
 13 40  1  0
 14 41  1  0
 14 42  1  0
 16 43  1  0
 16 44  1  0
 17 45  1  0
 17 46  1  0
 18 47  1  0
 18 48  1  0
 19 49  1  0
 19 50  1  0
 20 51  1  0
 20 52  1  0
 24 53  1  0
 24 54  1  0
 25 55  1  0
 25 56  1  0
 26 57  1  0
 27 58  1  0
 27 59  1  0
 28 60  1  0
 28 61  1  0
 30 62  1  0
 30 63  1  0
M  END
>  <UniqueID>  (61) 
564

>  <SMILES>  (61) 
c1ccc2c(c1)CCN(c1nc(CCN3CCCCC3)nc(N3CCNCC3)n1)C2

>  <Energy>  (61) 
75.38599246996786

>  <Genealogy>  (61) 
c1ccc2c(c1)CCN(c1nc(CCN3CCCCC3)nc(N3CCNCC3)n1)C2 (3D coordinates assigned)
c1ccc2c(c1)CCN(c1nc(CCN3CCCCC3)nc(N3CCNCC3)n1)C2 (nonaromatic ring conformer: 75.38599246996786 kcal/mol)

>  <smiles>  (61) 
c1ccc2c(c1)CCN(c1nc(CCN3CCCCC3)nc(N3CCNCC3)n1)C2

>  <score_type>  (61) 
oracle

>  <origin>  (61) 
autodockgpu

>  <m_score__min__energy>  (61) 
-9.8000000000000007

>  <m_primary>  (61) 
energy

>  <meeko>  (61) 
{"free_energy": -9.78, "intermolecular_energy": -11.27, "internal_energy": -0.9, "cluster_size": 17, "cluster_id": 1, "rank_in_cluster": 8}

>  <energy>  (61) 
-9.8

>  <cluster_rmsd>  (61) 
0.0

>  <rmsd>  (61) 
271.89

>  <cluster>  (61) 
1

$$$$
GZRQFJZYBWHXJG-UHFFFAOYNA-N
     RDKit          3D

 63 67  0  0  0  0  0  0  0  0999 V2000
  142.4800   80.7790  222.6370 C   0  0  0  0  0  0  0  0  0  0  0  0
  141.9360   80.3320  223.8430 C   0  0  0  0  0  0  0  0  0  0  0  0
  141.0960   79.2160  223.8600 C   0  0  0  0  0  0  0  0  0  0  0  0
  140.7980   78.5330  222.6690 C   0  0  0  0  0  0  0  0  0  0  0  0
  141.3270   79.0030  221.4380 C   0  0  0  0  0  0  0  0  0  0  0  0
  142.1840   80.1160  221.4410 C   0  0  0  0  0  0  0  0  0  0  0  0
  141.0670   78.2790  220.1330 C   0  0  0  0  0  0  0  0  0  0  0  0
  139.8480   77.3540  220.2190 C   0  0  0  0  0  0  0  0  0  0  0  0
  139.9220   76.5950  221.4690 N   0  0  0  0  0  0  0  0  0  0  0  0
  140.4960   75.2800  221.4630 C   0  0  0  0  0  0  0  0  0  0  0  0
  139.8800   74.2600  222.1160 N   0  0  0  0  0  0  0  0  0  0  0  0
  140.4450   73.0280  222.1440 C   0  0  0  0  0  0  0  0  0  0  0  0
  139.8310   71.9410  222.9690 C   0  0  0  0  0  0  0  0  0  0  0  0
  140.8160   71.4010  224.0150 C   0  0  0  0  0  0  0  0  0  0  0  0
  140.1880   71.3600  225.3600 N   0  0  0  0  0  0  0  0  0  0  0  0
  139.5980   70.0300  225.6820 C   0  0  0  0  0  0  0  0  0  0  0  0
  140.4830   69.2030  226.6210 C   0  0  0  0  0  0  0  0  0  0  0  0
  140.7010   69.9280  227.9590 C   0  0  0  0  0  0  0  0  0  0  0  0
  140.6720   71.4590  227.8120 C   0  0  0  0  0  0  0  0  0  0  0  0
  141.1050   71.8840  226.4030 C   0  0  0  0  0  0  0  0  0  0  0  0
  141.6310   72.8160  221.5190 N   0  0  0  0  0  0  0  0  0  0  0  0
  142.2540   73.8260  220.8570 C   0  0  0  0  0  0  0  0  0  0  0  0
  143.5120   73.5930  220.1890 N   0  0  0  0  0  0  0  0  0  0  0  0
  144.7140   73.3030  220.9860 C   0  0  0  0  0  0  0  0  0  0  0  0
  145.9830   73.7200  220.2270 C   0  0  0  0  0  0  0  0  0  0  0  0
  145.9870   73.1400  218.8780 N   0  0  0  0  0  0  0  0  0  0  0  0
  144.8420   73.6430  218.1100 C   0  0  0  0  0  0  0  0  0  0  0  0
  143.5260   73.2130  218.7680 C   0  0  0  0  0  0  0  0  0  0  0  0
  141.6840   75.0590  220.8430 N   0  0  0  0  0  0  0  0  0  0  0  0
  139.8400   77.3710  222.7090 C   0  0  0  0  0  0  0  0  0  0  0  0
  143.1439   81.6560  222.6273 H   0  0  0  0  0  0  0  0  0  0  0  0
  142.1691   80.8589  224.7800 H   0  0  0  0  0  0  0  0  0  0  0  0
  140.6654   78.8700  224.8113 H   0  0  0  0  0  0  0  0  0  0  0  0
  142.6252   80.4686  220.4970 H   0  0  0  0  0  0  0  0  0  0  0  0
  140.8917   79.0241  219.3430 H   0  0  0  0  0  0  0  0  0  0  0  0
  141.9474   77.6587  219.9088 H   0  0  0  0  0  0  0  0  0  0  0  0
  138.9262   77.9541  220.2043 H   0  0  0  0  0  0  0  0  0  0  0  0
  139.8394   76.6646  219.3618 H   0  0  0  0  0  0  0  0  0  0  0  0
  138.9459   72.3412  223.4852 H   0  0  0  0  0  0  0  0  0  0  0  0
  139.5540   71.1145  222.2981 H   0  0  0  0  0  0  0  0  0  0  0  0
  141.1234   70.3841  223.7295 H   0  0  0  0  0  0  0  0  0  0  0  0
  141.6893   72.0686  224.0542 H   0  0  0  0  0  0  0  0  0  0  0  0
  138.6217   70.1854  226.1644 H   0  0  0  0  0  0  0  0  0  0  0  0
  139.5011   69.4720  224.7390 H   0  0  0  0  0  0  0  0  0  0  0  0
  139.9972   68.2348  226.8122 H   0  0  0  0  0  0  0  0  0  0  0  0
  141.4613   69.0569  226.1398 H   0  0  0  0  0  0  0  0  0  0  0  0
  139.9067   69.6257  228.6573 H   0  0  0  0  0  0  0  0  0  0  0  0
  141.6969   69.6473  228.3325 H   0  0  0  0  0  0  0  0  0  0  0  0
  139.6493   71.8190  227.9980 H   0  0  0  0  0  0  0  0  0  0  0  0
  141.3721   71.8944  228.5402 H   0  0  0  0  0  0  0  0  0  0  0  0
  141.1132   72.9827  226.3498 H   0  0  0  0  0  0  0  0  0  0  0  0
  142.1067   71.4702  226.2151 H   0  0  0  0  0  0  0  0  0  0  0  0
  144.6613   73.8586  221.9339 H   0  0  0  0  0  0  0  0  0  0  0  0
  144.7573   72.2210  221.1794 H   0  0  0  0  0  0  0  0  0  0  0  0
  146.0152   74.8168  220.1500 H   0  0  0  0  0  0  0  0  0  0  0  0
  146.8632   73.3534  220.7754 H   0  0  0  0  0  0  0  0  0  0  0  0
  146.8640   73.4600  218.3990 H   0  0  0  0  0  0  0  0  0  0  0  0
  144.8859   74.7414  218.0716 H   0  0  0  0  0  0  0  0  0  0  0  0
  144.8846   73.2269  217.0926 H   0  0  0  0  0  0  0  0  0  0  0  0
  142.6868   73.7041  218.2537 H   0  0  0  0  0  0  0  0  0  0  0  0
  143.4305   72.1198  218.6912 H   0  0  0  0  0  0  0  0  0  0  0  0
  138.8150   77.7511  222.8310 H   0  0  0  0  0  0  0  0  0  0  0  0
  140.1062   76.7196  223.5544 H   0  0  0  0  0  0  0  0  0  0  0  0
  1  2  2  0
  2  3  1  0
  3  4  2  0
  4  5  1  0
  5  6  2  0
  5  7  1  0
  7  8  1  0
  8  9  1  0
  9 10  1  0
 10 11  2  0
 11 12  1  0
 12 13  1  0
 13 14  1  0
 14 15  1  0
 15 16  1  0
 16 17  1  0
 17 18  1  0
 18 19  1  0
 19 20  1  0
 12 21  2  0
 21 22  1  0
 22 23  1  0
 23 24  1  0
 24 25  1  0
 25 26  1  0
 26 27  1  0
 27 28  1  0
 22 29  2  0
  9 30  1  0
  6  1  1  0
 29 10  1  0
 30  4  1  0
 20 15  1  0
 28 23  1  0
  1 31  1  0
  2 32  1  0
  3 33  1  0
  6 34  1  0
  7 35  1  0
  7 36  1  0
  8 37  1  0
  8 38  1  0
 13 39  1  0
 13 40  1  0
 14 41  1  0
 14 42  1  0
 16 43  1  0
 16 44  1  0
 17 45  1  0
 17 46  1  0
 18 47  1  0
 18 48  1  0
 19 49  1  0
 19 50  1  0
 20 51  1  0
 20 52  1  0
 24 53  1  0
 24 54  1  0
 25 55  1  0
 25 56  1  0
 26 57  1  0
 27 58  1  0
 27 59  1  0
 28 60  1  0
 28 61  1  0
 30 62  1  0
 30 63  1  0
M  END
>  <UniqueID>  (62) 
564

>  <SMILES>  (62) 
c1ccc2c(c1)CCN(c1nc(CCN3CCCCC3)nc(N3CCNCC3)n1)C2

>  <Energy>  (62) 
75.38599246996786

>  <Genealogy>  (62) 
c1ccc2c(c1)CCN(c1nc(CCN3CCCCC3)nc(N3CCNCC3)n1)C2 (3D coordinates assigned)
c1ccc2c(c1)CCN(c1nc(CCN3CCCCC3)nc(N3CCNCC3)n1)C2 (nonaromatic ring conformer: 75.38599246996786 kcal/mol)

>  <smiles>  (62) 
c1ccc2c(c1)CCN(c1nc(CCN3CCCCC3)nc(N3CCNCC3)n1)C2

>  <score_type>  (62) 
oracle

>  <origin>  (62) 
autodockgpu

>  <m_score__min__energy>  (62) 
-9.8000000000000007

>  <m_primary>  (62) 
energy

>  <meeko>  (62) 
{"free_energy": -9.79, "intermolecular_energy": -11.28, "internal_energy": -0.89, "cluster_size": 17, "cluster_id": 1, "rank_in_cluster": 3}

>  <energy>  (62) 
-9.79

>  <cluster_rmsd>  (62) 
0.04

>  <rmsd>  (62) 
271.87

>  <cluster>  (62) 
1

$$$$
GZRQFJZYBWHXJG-UHFFFAOYNA-N
     RDKit          3D

 63 67  0  0  0  0  0  0  0  0999 V2000
  133.6330   72.7350  226.6190 C   0  0  0  0  0  0  0  0  0  0  0  0
  133.7990   71.4930  226.0010 C   0  0  0  0  0  0  0  0  0  0  0  0
  134.4240   71.4100  224.7550 C   0  0  0  0  0  0  0  0  0  0  0  0
  134.8940   72.5720  224.1180 C   0  0  0  0  0  0  0  0  0  0  0  0
  134.7010   73.8370  224.7310 C   0  0  0  0  0  0  0  0  0  0  0  0
  134.0860   73.9000  225.9920 C   0  0  0  0  0  0  0  0  0  0  0  0
  135.2230   75.1120  224.1030 C   0  0  0  0  0  0  0  0  0  0  0  0
  135.5090   74.9450  222.6060 C   0  0  0  0  0  0  0  0  0  0  0  0
  136.2310   73.6870  222.4050 N   0  0  0  0  0  0  0  0  0  0  0  0
  137.6640   73.6990  222.3320 C   0  0  0  0  0  0  0  0  0  0  0  0
  138.3760   72.5860  222.6480 N   0  0  0  0  0  0  0  0  0  0  0  0
  139.7310   72.6110  222.6180 C   0  0  0  0  0  0  0  0  0  0  0  0
  140.5120   71.4250  223.0870 C   0  0  0  0  0  0  0  0  0  0  0  0
  139.6190   70.4160  223.8230 C   0  0  0  0  0  0  0  0  0  0  0  0
  139.5140   70.7580  225.2650 N   0  0  0  0  0  0  0  0  0  0  0  0
  139.1740   69.5820  226.1150 C   0  0  0  0  0  0  0  0  0  0  0  0
  140.3920   69.0150  226.8520 C   0  0  0  0  0  0  0  0  0  0  0  0
  141.0170   70.0680  227.7820 C   0  0  0  0  0  0  0  0  0  0  0  0
  140.8280   71.5030  227.2590 C   0  0  0  0  0  0  0  0  0  0  0  0
  140.7010   71.5190  225.7300 C   0  0  0  0  0  0  0  0  0  0  0  0
  140.3750   73.7550  222.2760 N   0  0  0  0  0  0  0  0  0  0  0  0
  139.6750   74.8750  221.9530 C   0  0  0  0  0  0  0  0  0  0  0  0
  140.3660   76.0860  221.5830 N   0  0  0  0  0  0  0  0  0  0  0  0
  140.9310   76.2150  220.2300 C   0  0  0  0  0  0  0  0  0  0  0  0
  142.1140   77.1940  220.2270 C   0  0  0  0  0  0  0  0  0  0  0  0
  141.7300   78.4650  220.8550 N   0  0  0  0  0  0  0  0  0  0  0  0
  141.3610   78.2430  222.2580 C   0  0  0  0  0  0  0  0  0  0  0  0
  140.1390   77.3210  222.3490 C   0  0  0  0  0  0  0  0  0  0  0  0
  138.3180   74.8400  221.9940 N   0  0  0  0  0  0  0  0  0  0  0  0
  135.5080   72.4580  222.7460 C   0  0  0  0  0  0  0  0  0  0  0  0
  133.1441   72.7967  227.6025 H   0  0  0  0  0  0  0  0  0  0  0  0
  133.4371   70.5799  226.4963 H   0  0  0  0  0  0  0  0  0  0  0  0
  134.5492   70.4309  224.2696 H   0  0  0  0  0  0  0  0  0  0  0  0
  133.9597   74.8726  226.4900 H   0  0  0  0  0  0  0  0  0  0  0  0
  134.4718   75.9048  224.2339 H   0  0  0  0  0  0  0  0  0  0  0  0
  136.1691   75.3710  224.6008 H   0  0  0  0  0  0  0  0  0  0  0  0
  134.5612   74.9214  222.0482 H   0  0  0  0  0  0  0  0  0  0  0  0
  136.1154   75.7880  222.2433 H   0  0  0  0  0  0  0  0  0  0  0  0
  140.9673   70.9303  222.2164 H   0  0  0  0  0  0  0  0  0  0  0  0
  141.2841   71.7763  223.7873 H   0  0  0  0  0  0  0  0  0  0  0  0
  138.6144   70.4296  223.3751 H   0  0  0  0  0  0  0  0  0  0  0  0
  140.0664   69.4154  223.7296 H   0  0  0  0  0  0  0  0  0  0  0  0
  138.4243   69.8900  226.8587 H   0  0  0  0  0  0  0  0  0  0  0  0
  138.7886   68.7928  225.4527 H   0  0  0  0  0  0  0  0  0  0  0  0
  140.0775   68.1479  227.4514 H   0  0  0  0  0  0  0  0  0  0  0  0
  141.1440   68.7177  226.1062 H   0  0  0  0  0  0  0  0  0  0  0  0
  140.5450   69.9885  228.7724 H   0  0  0  0  0  0  0  0  0  0  0  0
  142.0979   69.8702  227.8320 H   0  0  0  0  0  0  0  0  0  0  0  0
  139.9150   71.9293  227.7002 H   0  0  0  0  0  0  0  0  0  0  0  0
  141.7080   72.0984  227.5437 H   0  0  0  0  0  0  0  0  0  0  0  0
  140.6099   72.5617  225.3916 H   0  0  0  0  0  0  0  0  0  0  0  0
  141.5982   71.0422  225.3084 H   0  0  0  0  0  0  0  0  0  0  0  0
  141.2776   75.2287  219.8879 H   0  0  0  0  0  0  0  0  0  0  0  0
  140.1514   76.6002  219.5564 H   0  0  0  0  0  0  0  0  0  0  0  0
  142.9514   76.7519  220.7867 H   0  0  0  0  0  0  0  0  0  0  0  0
  142.4140   77.3871  219.1865 H   0  0  0  0  0  0  0  0  0  0  0  0
  142.5700   79.0930  220.8380 H   0  0  0  0  0  0  0  0  0  0  0  0
  142.2064   77.7777  222.7860 H   0  0  0  0  0  0  0  0  0  0  0  0
  141.1137   79.2103  222.7197 H   0  0  0  0  0  0  0  0  0  0  0  0
  139.9569   77.0646  223.4031 H   0  0  0  0  0  0  0  0  0  0  0  0
  139.2671   77.8442  221.9294 H   0  0  0  0  0  0  0  0  0  0  0  0
  134.7121   72.2887  222.0058 H   0  0  0  0  0  0  0  0  0  0  0  0
  136.2151   71.6154  222.7408 H   0  0  0  0  0  0  0  0  0  0  0  0
  1  2  2  0
  2  3  1  0
  3  4  2  0
  4  5  1  0
  5  6  2  0
  5  7  1  0
  7  8  1  0
  8  9  1  0
  9 10  1  0
 10 11  2  0
 11 12  1  0
 12 13  1  0
 13 14  1  0
 14 15  1  0
 15 16  1  0
 16 17  1  0
 17 18  1  0
 18 19  1  0
 19 20  1  0
 12 21  2  0
 21 22  1  0
 22 23  1  0
 23 24  1  0
 24 25  1  0
 25 26  1  0
 26 27  1  0
 27 28  1  0
 22 29  2  0
  9 30  1  0
  6  1  1  0
 29 10  1  0
 30  4  1  0
 20 15  1  0
 28 23  1  0
  1 31  1  0
  2 32  1  0
  3 33  1  0
  6 34  1  0
  7 35  1  0
  7 36  1  0
  8 37  1  0
  8 38  1  0
 13 39  1  0
 13 40  1  0
 14 41  1  0
 14 42  1  0
 16 43  1  0
 16 44  1  0
 17 45  1  0
 17 46  1  0
 18 47  1  0
 18 48  1  0
 19 49  1  0
 19 50  1  0
 20 51  1  0
 20 52  1  0
 24 53  1  0
 24 54  1  0
 25 55  1  0
 25 56  1  0
 26 57  1  0
 27 58  1  0
 27 59  1  0
 28 60  1  0
 28 61  1  0
 30 62  1  0
 30 63  1  0
M  END
>  <UniqueID>  (63) 
564

>  <SMILES>  (63) 
c1ccc2c(c1)CCN(c1nc(CCN3CCCCC3)nc(N3CCNCC3)n1)C2

>  <Energy>  (63) 
75.38599246996786

>  <Genealogy>  (63) 
c1ccc2c(c1)CCN(c1nc(CCN3CCCCC3)nc(N3CCNCC3)n1)C2 (3D coordinates assigned)
c1ccc2c(c1)CCN(c1nc(CCN3CCCCC3)nc(N3CCNCC3)n1)C2 (nonaromatic ring conformer: 75.38599246996786 kcal/mol)

>  <smiles>  (63) 
c1ccc2c(c1)CCN(c1nc(CCN3CCCCC3)nc(N3CCNCC3)n1)C2

>  <score_type>  (63) 
oracle

>  <origin>  (63) 
autodockgpu

>  <m_score__min__energy>  (63) 
-9.8000000000000007

>  <m_primary>  (63) 
energy

>  <meeko>  (63) 
{"free_energy": -7.58, "intermolecular_energy": -9.07, "internal_energy": -1.22, "cluster_size": 1, "cluster_id": 2, "rank_in_cluster": 1}

>  <energy>  (63) 
-9.79

>  <cluster_rmsd>  (63) 
0.03

>  <rmsd>  (63) 
271.89

>  <cluster>  (63) 
1

$$$$
GZRQFJZYBWHXJG-UHFFFAOYNA-N
     RDKit          3D

 63 67  0  0  0  0  0  0  0  0999 V2000
  142.5030   80.8110  222.6180 C   0  0  0  0  0  0  0  0  0  0  0  0
  141.9780   80.3610  223.8320 C   0  0  0  0  0  0  0  0  0  0  0  0
  141.1340   79.2480  223.8580 C   0  0  0  0  0  0  0  0  0  0  0  0
  140.8120   78.5720  222.6690 C   0  0  0  0  0  0  0  0  0  0  0  0
  141.3210   79.0450  221.4320 C   0  0  0  0  0  0  0  0  0  0  0  0
  142.1830   80.1550  221.4250 C   0  0  0  0  0  0  0  0  0  0  0  0
  141.0360   78.3280  220.1290 C   0  0  0  0  0  0  0  0  0  0  0  0
  139.8140   77.4080  220.2320 C   0  0  0  0  0  0  0  0  0  0  0  0
  139.9070   76.6420  221.4770 N   0  0  0  0  0  0  0  0  0  0  0  0
  140.4760   75.3250  221.4550 C   0  0  0  0  0  0  0  0  0  0  0  0
  139.8470   74.2970  222.0820 N   0  0  0  0  0  0  0  0  0  0  0  0
  140.4060   73.0620  222.0950 C   0  0  0  0  0  0  0  0  0  0  0  0
  139.7760   71.9640  222.8920 C   0  0  0  0  0  0  0  0  0  0  0  0
  140.7550   71.3810  223.9210 C   0  0  0  0  0  0  0  0  0  0  0  0
  140.1520   71.3750  225.2790 N   0  0  0  0  0  0  0  0  0  0  0  0
  139.5320   70.0660  225.6310 C   0  0  0  0  0  0  0  0  0  0  0  0
  140.4130   69.2280  226.5640 C   0  0  0  0  0  0  0  0  0  0  0  0
  140.6760   69.9650  227.8880 C   0  0  0  0  0  0  0  0  0  0  0  0
  140.6860   71.4940  227.7200 C   0  0  0  0  0  0  0  0  0  0  0  0
  141.1030   71.8880  226.2960 C   0  0  0  0  0  0  0  0  0  0  0  0
  141.5990   72.8560  221.4820 N   0  0  0  0  0  0  0  0  0  0  0  0
  142.2360   73.8750  220.8460 C   0  0  0  0  0  0  0  0  0  0  0  0
  143.5010   73.6480  220.1900 N   0  0  0  0  0  0  0  0  0  0  0  0
  144.6920   73.3420  220.9980 C   0  0  0  0  0  0  0  0  0  0  0  0
  145.9710   73.7670  220.2610 C   0  0  0  0  0  0  0  0  0  0  0  0
  145.9910   73.2070  218.9040 N   0  0  0  0  0  0  0  0  0  0  0  0
  144.8580   73.7260  218.1290 C   0  0  0  0  0  0  0  0  0  0  0  0
  143.5320   73.2900  218.7640 C   0  0  0  0  0  0  0  0  0  0  0  0
  141.6700   75.1100  220.8470 N   0  0  0  0  0  0  0  0  0  0  0  0
  139.8500   77.4130  222.7220 C   0  0  0  0  0  0  0  0  0  0  0  0
  143.1708   81.6849  222.6004 H   0  0  0  0  0  0  0  0  0  0  0  0
  142.2291   80.8829  224.7672 H   0  0  0  0  0  0  0  0  0  0  0  0
  140.7191   78.8988  224.8150 H   0  0  0  0  0  0  0  0  0  0  0  0
  142.6088   80.5102  220.4750 H   0  0  0  0  0  0  0  0  0  0  0  0
  140.8508   79.0772  219.3451 H   0  0  0  0  0  0  0  0  0  0  0  0
  141.9096   77.7048  219.8873 H   0  0  0  0  0  0  0  0  0  0  0  0
  138.8949   78.0124  220.2369 H   0  0  0  0  0  0  0  0  0  0  0  0
  139.7866   76.7232  219.3716 H   0  0  0  0  0  0  0  0  0  0  0  0
  138.8986   72.3646  223.4208 H   0  0  0  0  0  0  0  0  0  0  0  0
  139.4838   71.1601  222.2003 H   0  0  0  0  0  0  0  0  0  0  0  0
  141.0078   70.3496  223.6342 H   0  0  0  0  0  0  0  0  0  0  0  0
  141.6600   72.0060  223.9400 H   0  0  0  0  0  0  0  0  0  0  0  0
  138.5701   70.2547  226.1302 H   0  0  0  0  0  0  0  0  0  0  0  0
  139.4006   69.4982  224.6981 H   0  0  0  0  0  0  0  0  0  0  0  0
  139.9056   68.2757  226.7777 H   0  0  0  0  0  0  0  0  0  0  0  0
  141.3775   69.0493  226.0663 H   0  0  0  0  0  0  0  0  0  0  0  0
  139.8870   69.6942  228.6051 H   0  0  0  0  0  0  0  0  0  0  0  0
  141.6706   69.6620  228.2470 H   0  0  0  0  0  0  0  0  0  0  0  0
  139.6774   71.8846  227.9206 H   0  0  0  0  0  0  0  0  0  0  0  0
  141.4119   71.9198  228.4283 H   0  0  0  0  0  0  0  0  0  0  0  0
  141.1398   72.9852  226.2270 H   0  0  0  0  0  0  0  0  0  0  0  0
  142.0894   71.4447  226.0947 H   0  0  0  0  0  0  0  0  0  0  0  0
  144.6290   73.8831  221.9536 H   0  0  0  0  0  0  0  0  0  0  0  0
  144.7299   72.2572  221.1759 H   0  0  0  0  0  0  0  0  0  0  0  0
  146.0064   74.8648  220.2004 H   0  0  0  0  0  0  0  0  0  0  0  0
  146.8434   73.3902  220.8149 H   0  0  0  0  0  0  0  0  0  0  0  0
  146.8750   73.5330  218.4410 H   0  0  0  0  0  0  0  0  0  0  0  0
  144.9060   74.8248  218.1082 H   0  0  0  0  0  0  0  0  0  0  0  0
  144.9123   73.3260  217.1057 H   0  0  0  0  0  0  0  0  0  0  0  0
  142.7008   73.7916  218.2468 H   0  0  0  0  0  0  0  0  0  0  0  0
  143.4343   72.1984  218.6693 H   0  0  0  0  0  0  0  0  0  0  0  0
  138.8288   77.7963  222.8641 H   0  0  0  0  0  0  0  0  0  0  0  0
  140.1286   76.7571  223.5600 H   0  0  0  0  0  0  0  0  0  0  0  0
  1  2  2  0
  2  3  1  0
  3  4  2  0
  4  5  1  0
  5  6  2  0
  5  7  1  0
  7  8  1  0
  8  9  1  0
  9 10  1  0
 10 11  2  0
 11 12  1  0
 12 13  1  0
 13 14  1  0
 14 15  1  0
 15 16  1  0
 16 17  1  0
 17 18  1  0
 18 19  1  0
 19 20  1  0
 12 21  2  0
 21 22  1  0
 22 23  1  0
 23 24  1  0
 24 25  1  0
 25 26  1  0
 26 27  1  0
 27 28  1  0
 22 29  2  0
  9 30  1  0
  6  1  1  0
 29 10  1  0
 30  4  1  0
 20 15  1  0
 28 23  1  0
  1 31  1  0
  2 32  1  0
  3 33  1  0
  6 34  1  0
  7 35  1  0
  7 36  1  0
  8 37  1  0
  8 38  1  0
 13 39  1  0
 13 40  1  0
 14 41  1  0
 14 42  1  0
 16 43  1  0
 16 44  1  0
 17 45  1  0
 17 46  1  0
 18 47  1  0
 18 48  1  0
 19 49  1  0
 19 50  1  0
 20 51  1  0
 20 52  1  0
 24 53  1  0
 24 54  1  0
 25 55  1  0
 25 56  1  0
 26 57  1  0
 27 58  1  0
 27 59  1  0
 28 60  1  0
 28 61  1  0
 30 62  1  0
 30 63  1  0
M  END
>  <UniqueID>  (64) 
564

>  <SMILES>  (64) 
c1ccc2c(c1)CCN(c1nc(CCN3CCCCC3)nc(N3CCNCC3)n1)C2

>  <Energy>  (64) 
75.38599246996786

>  <Genealogy>  (64) 
c1ccc2c(c1)CCN(c1nc(CCN3CCCCC3)nc(N3CCNCC3)n1)C2 (3D coordinates assigned)
c1ccc2c(c1)CCN(c1nc(CCN3CCCCC3)nc(N3CCNCC3)n1)C2 (nonaromatic ring conformer: 75.38599246996786 kcal/mol)

>  <smiles>  (64) 
c1ccc2c(c1)CCN(c1nc(CCN3CCCCC3)nc(N3CCNCC3)n1)C2

>  <score_type>  (64) 
oracle

>  <origin>  (64) 
autodockgpu

>  <m_score__min__energy>  (64) 
-9.8000000000000007

>  <m_primary>  (64) 
energy

>  <meeko>  (64) 
{"free_energy": -9.79, "intermolecular_energy": -11.28, "internal_energy": -0.9, "cluster_size": 17, "cluster_id": 1, "rank_in_cluster": 6}

>  <energy>  (64) 
-9.79

>  <cluster_rmsd>  (64) 
0.06

>  <rmsd>  (64) 
271.88

>  <cluster>  (64) 
1

$$$$
GZRQFJZYBWHXJG-UHFFFAOYNA-N
     RDKit          3D

 63 67  0  0  0  0  0  0  0  0999 V2000
  142.5140   80.7970  222.6260 C   0  0  0  0  0  0  0  0  0  0  0  0
  141.9760   80.3530  223.8360 C   0  0  0  0  0  0  0  0  0  0  0  0
  141.1330   79.2390  223.8600 C   0  0  0  0  0  0  0  0  0  0  0  0
  140.8240   78.5570  222.6710 C   0  0  0  0  0  0  0  0  0  0  0  0
  141.3460   79.0240  221.4360 C   0  0  0  0  0  0  0  0  0  0  0  0
  142.2060   80.1350  221.4330 C   0  0  0  0  0  0  0  0  0  0  0  0
  141.0750   78.3010  220.1340 C   0  0  0  0  0  0  0  0  0  0  0  0
  139.8530   77.3800  220.2280 C   0  0  0  0  0  0  0  0  0  0  0  0
  139.9340   76.6200  221.4780 N   0  0  0  0  0  0  0  0  0  0  0  0
  140.5040   75.3040  221.4680 C   0  0  0  0  0  0  0  0  0  0  0  0
  139.8790   74.2820  222.1100 N   0  0  0  0  0  0  0  0  0  0  0  0
  140.4400   73.0480  222.1350 C   0  0  0  0  0  0  0  0  0  0  0  0
  139.8160   71.9580  222.9470 C   0  0  0  0  0  0  0  0  0  0  0  0
  140.7920   71.4070  223.9970 C   0  0  0  0  0  0  0  0  0  0  0  0
  140.1580   71.3710  225.3400 N   0  0  0  0  0  0  0  0  0  0  0  0
  139.5490   70.0480  225.6570 C   0  0  0  0  0  0  0  0  0  0  0  0
  140.4200   69.2070  226.5970 C   0  0  0  0  0  0  0  0  0  0  0  0
  140.6420   69.9270  227.9380 C   0  0  0  0  0  0  0  0  0  0  0  0
  140.6340   71.4580  227.7940 C   0  0  0  0  0  0  0  0  0  0  0  0
  141.0780   71.8810  226.3870 C   0  0  0  0  0  0  0  0  0  0  0  0
  141.6300   72.8360  221.5190 N   0  0  0  0  0  0  0  0  0  0  0  0
  142.2630   73.8490  220.8680 C   0  0  0  0  0  0  0  0  0  0  0  0
  143.5250   73.6160  220.2090 N   0  0  0  0  0  0  0  0  0  0  0  0
  144.7200   73.3200  221.0140 C   0  0  0  0  0  0  0  0  0  0  0  0
  145.9960   73.7370  220.2670 C   0  0  0  0  0  0  0  0  0  0  0  0
  146.0090   73.1630  218.9150 N   0  0  0  0  0  0  0  0  0  0  0  0
  144.8710   73.6720  218.1410 C   0  0  0  0  0  0  0  0  0  0  0  0
  143.5500   73.2420  218.7860 C   0  0  0  0  0  0  0  0  0  0  0  0
  141.6960   75.0830  220.8580 N   0  0  0  0  0  0  0  0  0  0  0  0
  139.8630   77.3970  222.7190 C   0  0  0  0  0  0  0  0  0  0  0  0
  143.1824   81.6705  222.6112 H   0  0  0  0  0  0  0  0  0  0  0  0
  142.2161   80.8807  224.7708 H   0  0  0  0  0  0  0  0  0  0  0  0
  140.7090   78.8941  224.8146 H   0  0  0  0  0  0  0  0  0  0  0  0
  142.6402   80.4868  220.4855 H   0  0  0  0  0  0  0  0  0  0  0  0
  140.8972   79.0465  219.3449 H   0  0  0  0  0  0  0  0  0  0  0  0
  141.9517   77.6775  219.9045 H   0  0  0  0  0  0  0  0  0  0  0  0
  138.9332   77.9832  220.2202 H   0  0  0  0  0  0  0  0  0  0  0  0
  139.8354   76.6912  219.3705 H   0  0  0  0  0  0  0  0  0  0  0  0
  138.9285   72.3577  223.4594 H   0  0  0  0  0  0  0  0  0  0  0  0
  139.5408   71.1373  222.2683 H   0  0  0  0  0  0  0  0  0  0  0  0
  141.0905   70.3874  223.7118 H   0  0  0  0  0  0  0  0  0  0  0  0
  141.6718   72.0659  224.0403 H   0  0  0  0  0  0  0  0  0  0  0  0
  138.5733   70.2154  226.1366 H   0  0  0  0  0  0  0  0  0  0  0  0
  139.4476   69.4935  224.7124 H   0  0  0  0  0  0  0  0  0  0  0  0
  139.9211   68.2446  226.7841 H   0  0  0  0  0  0  0  0  0  0  0  0
  141.3981   69.0488  226.1191 H   0  0  0  0  0  0  0  0  0  0  0  0
  139.8407   69.6340  228.6324 H   0  0  0  0  0  0  0  0  0  0  0  0
  141.6325   69.6324  228.3151 H   0  0  0  0  0  0  0  0  0  0  0  0
  139.6155   71.8311  227.9771 H   0  0  0  0  0  0  0  0  0  0  0  0
  141.3374   71.8823  228.5256 H   0  0  0  0  0  0  0  0  0  0  0  0
  141.1004   72.9796  226.3363 H   0  0  0  0  0  0  0  0  0  0  0  0
  142.0752   71.4552  226.2016 H   0  0  0  0  0  0  0  0  0  0  0  0
  144.6611   73.8718  221.9638 H   0  0  0  0  0  0  0  0  0  0  0  0
  144.7593   72.2371  221.2031 H   0  0  0  0  0  0  0  0  0  0  0  0
  146.0318   74.8341  220.1953 H   0  0  0  0  0  0  0  0  0  0  0  0
  146.8709   73.3655  220.8206 H   0  0  0  0  0  0  0  0  0  0  0  0
  146.8900   73.4840  218.4440 H   0  0  0  0  0  0  0  0  0  0  0  0
  144.9175   74.7705  218.1084 H   0  0  0  0  0  0  0  0  0  0  0  0
  144.9206   73.2606  217.1221 H   0  0  0  0  0  0  0  0  0  0  0  0
  142.7159   73.7369  218.2670 H   0  0  0  0  0  0  0  0  0  0  0  0
  143.4533   72.1493  218.7038 H   0  0  0  0  0  0  0  0  0  0  0  0
  138.8399   77.7796  222.8485 H   0  0  0  0  0  0  0  0  0  0  0  0
  140.1337   76.7453  223.5628 H   0  0  0  0  0  0  0  0  0  0  0  0
  1  2  2  0
  2  3  1  0
  3  4  2  0
  4  5  1  0
  5  6  2  0
  5  7  1  0
  7  8  1  0
  8  9  1  0
  9 10  1  0
 10 11  2  0
 11 12  1  0
 12 13  1  0
 13 14  1  0
 14 15  1  0
 15 16  1  0
 16 17  1  0
 17 18  1  0
 18 19  1  0
 19 20  1  0
 12 21  2  0
 21 22  1  0
 22 23  1  0
 23 24  1  0
 24 25  1  0
 25 26  1  0
 26 27  1  0
 27 28  1  0
 22 29  2  0
  9 30  1  0
  6  1  1  0
 29 10  1  0
 30  4  1  0
 20 15  1  0
 28 23  1  0
  1 31  1  0
  2 32  1  0
  3 33  1  0
  6 34  1  0
  7 35  1  0
  7 36  1  0
  8 37  1  0
  8 38  1  0
 13 39  1  0
 13 40  1  0
 14 41  1  0
 14 42  1  0
 16 43  1  0
 16 44  1  0
 17 45  1  0
 17 46  1  0
 18 47  1  0
 18 48  1  0
 19 49  1  0
 19 50  1  0
 20 51  1  0
 20 52  1  0
 24 53  1  0
 24 54  1  0
 25 55  1  0
 25 56  1  0
 26 57  1  0
 27 58  1  0
 27 59  1  0
 28 60  1  0
 28 61  1  0
 30 62  1  0
 30 63  1  0
M  END
>  <UniqueID>  (65) 
564

>  <SMILES>  (65) 
c1ccc2c(c1)CCN(c1nc(CCN3CCCCC3)nc(N3CCNCC3)n1)C2

>  <Energy>  (65) 
75.38599246996786

>  <Genealogy>  (65) 
c1ccc2c(c1)CCN(c1nc(CCN3CCCCC3)nc(N3CCNCC3)n1)C2 (3D coordinates assigned)
c1ccc2c(c1)CCN(c1nc(CCN3CCCCC3)nc(N3CCNCC3)n1)C2 (nonaromatic ring conformer: 75.38599246996786 kcal/mol)

>  <smiles>  (65) 
c1ccc2c(c1)CCN(c1nc(CCN3CCCCC3)nc(N3CCNCC3)n1)C2

>  <score_type>  (65) 
oracle

>  <origin>  (65) 
autodockgpu

>  <m_score__min__energy>  (65) 
-9.8000000000000007

>  <m_primary>  (65) 
energy

>  <meeko>  (65) 
{"free_energy": -9.78, "intermolecular_energy": -11.28, "internal_energy": -0.9, "cluster_size": 17, "cluster_id": 1, "rank_in_cluster": 7}

>  <energy>  (65) 
-9.79

>  <cluster_rmsd>  (65) 
0.08

>  <rmsd>  (65) 
271.87

>  <cluster>  (65) 
1

$$$$
GZRQFJZYBWHXJG-UHFFFAOYNA-N
     RDKit          3D

 63 67  0  0  0  0  0  0  0  0999 V2000
  142.4690   80.5580  222.6540 C   0  0  0  0  0  0  0  0  0  0  0  0
  141.8740   80.1450  223.8490 C   0  0  0  0  0  0  0  0  0  0  0  0
  141.0000   79.0550  223.8540 C   0  0  0  0  0  0  0  0  0  0  0  0
  140.7180   78.3650  222.6630 C   0  0  0  0  0  0  0  0  0  0  0  0
  141.2990   78.8010  221.4440 C   0  0  0  0  0  0  0  0  0  0  0  0
  142.1890   79.8880  221.4580 C   0  0  0  0  0  0  0  0  0  0  0  0
  141.0570   78.0680  220.1410 C   0  0  0  0  0  0  0  0  0  0  0  0
  139.8070   77.1820  220.2000 C   0  0  0  0  0  0  0  0  0  0  0  0
  139.8200   76.4380  221.4620 N   0  0  0  0  0  0  0  0  0  0  0  0
  140.3540   75.1060  221.4910 C   0  0  0  0  0  0  0  0  0  0  0  0
  139.7520   74.1430  222.2370 N   0  0  0  0  0  0  0  0  0  0  0  0
  140.2800   72.8960  222.2950 C   0  0  0  0  0  0  0  0  0  0  0  0
  139.6900   71.8750  223.2150 C   0  0  0  0  0  0  0  0  0  0  0  0
  140.7280   71.3480  224.2160 C   0  0  0  0  0  0  0  0  0  0  0  0
  140.1280   71.1900  225.5650 N   0  0  0  0  0  0  0  0  0  0  0  0
  139.5900   69.8200  225.8020 C   0  0  0  0  0  0  0  0  0  0  0  0
  140.5220   68.9610  226.6640 C   0  0  0  0  0  0  0  0  0  0  0  0
  140.7400   69.5980  228.0470 C   0  0  0  0  0  0  0  0  0  0  0  0
  140.6560   71.1330  228.0100 C   0  0  0  0  0  0  0  0  0  0  0  0
  141.0470   71.6720  226.6270 C   0  0  0  0  0  0  0  0  0  0  0  0
  141.4160   72.6130  221.6090 N   0  0  0  0  0  0  0  0  0  0  0  0
  142.0250   73.5660  220.8540 C   0  0  0  0  0  0  0  0  0  0  0  0
  143.2290   73.2570  220.1210 N   0  0  0  0  0  0  0  0  0  0  0  0
  143.8500   74.2900  219.2780 C   0  0  0  0  0  0  0  0  0  0  0  0
  144.6580   73.6490  218.1400 C   0  0  0  0  0  0  0  0  0  0  0  0
  145.5930   72.6500  218.6740 N   0  0  0  0  0  0  0  0  0  0  0  0
  144.8510   71.5700  219.3350 C   0  0  0  0  0  0  0  0  0  0  0  0
  144.0630   72.1170  220.5310 C   0  0  0  0  0  0  0  0  0  0  0  0
  141.4910   74.8140  220.8100 N   0  0  0  0  0  0  0  0  0  0  0  0
  139.7240   77.2330  222.6890 C   0  0  0  0  0  0  0  0  0  0  0  0
  143.1605   81.4135  222.6536 H   0  0  0  0  0  0  0  0  0  0  0  0
  142.0937   80.6781  224.7858 H   0  0  0  0  0  0  0  0  0  0  0  0
  140.5300   78.7352  224.7957 H   0  0  0  0  0  0  0  0  0  0  0  0
  142.6685   80.2142  220.5233 H   0  0  0  0  0  0  0  0  0  0  0  0
  140.9298   78.8074  219.3366 H   0  0  0  0  0  0  0  0  0  0  0  0
  141.9240   77.4177  219.9526 H   0  0  0  0  0  0  0  0  0  0  0  0
  138.9052   77.8098  220.1493 H   0  0  0  0  0  0  0  0  0  0  0  0
  139.8023   76.4821  219.3514 H   0  0  0  0  0  0  0  0  0  0  0  0
  138.8589   72.3335  223.7709 H   0  0  0  0  0  0  0  0  0  0  0  0
  139.3373   71.0283  222.6078 H   0  0  0  0  0  0  0  0  0  0  0  0
  141.0993   70.3721  223.8701 H   0  0  0  0  0  0  0  0  0  0  0  0
  141.5541   72.0715  224.2805 H   0  0  0  0  0  0  0  0  0  0  0  0
  138.6190   69.9062  226.3116 H   0  0  0  0  0  0  0  0  0  0  0  0
  139.4927   69.3267  224.8236 H   0  0  0  0  0  0  0  0  0  0  0  0
  140.0745   67.9646  226.7938 H   0  0  0  0  0  0  0  0  0  0  0  0
  141.4952   68.8844  226.1571 H   0  0  0  0  0  0  0  0  0  0  0  0
  139.9696   69.2193  228.7348 H   0  0  0  0  0  0  0  0  0  0  0  0
  141.7518   69.3274  228.3831 H   0  0  0  0  0  0  0  0  0  0  0  0
  139.6255   71.4425  228.2385 H   0  0  0  0  0  0  0  0  0  0  0  0
  141.3549   71.5403  228.7554 H   0  0  0  0  0  0  0  0  0  0  0  0
  141.0162   72.7713  226.6520 H   0  0  0  0  0  0  0  0  0  0  0  0
  142.0587   71.3089  226.3931 H   0  0  0  0  0  0  0  0  0  0  0  0
  143.0626   74.9263  218.8478 H   0  0  0  0  0  0  0  0  0  0  0  0
  144.5300   74.8914  219.8992 H   0  0  0  0  0  0  0  0  0  0  0  0
  143.9680   73.1598  217.4367 H   0  0  0  0  0  0  0  0  0  0  0  0
  145.2311   74.4335  217.6242 H   0  0  0  0  0  0  0  0  0  0  0  0
  146.1110   72.2360  217.8610 H   0  0  0  0  0  0  0  0  0  0  0  0
  144.1516   71.1181  218.6163 H   0  0  0  0  0  0  0  0  0  0  0  0
  145.5651   70.8142  219.6938 H   0  0  0  0  0  0  0  0  0  0  0  0
  143.4174   71.3223  220.9330 H   0  0  0  0  0  0  0  0  0  0  0  0
  144.7731   72.4544  221.3003 H   0  0  0  0  0  0  0  0  0  0  0  0
  138.7078   77.6454  222.7746 H   0  0  0  0  0  0  0  0  0  0  0  0
  139.9442   76.5857  223.5507 H   0  0  0  0  0  0  0  0  0  0  0  0
  1  2  2  0
  2  3  1  0
  3  4  2  0
  4  5  1  0
  5  6  2  0
  5  7  1  0
  7  8  1  0
  8  9  1  0
  9 10  1  0
 10 11  2  0
 11 12  1  0
 12 13  1  0
 13 14  1  0
 14 15  1  0
 15 16  1  0
 16 17  1  0
 17 18  1  0
 18 19  1  0
 19 20  1  0
 12 21  2  0
 21 22  1  0
 22 23  1  0
 23 24  1  0
 24 25  1  0
 25 26  1  0
 26 27  1  0
 27 28  1  0
 22 29  2  0
  9 30  1  0
  6  1  1  0
 29 10  1  0
 30  4  1  0
 20 15  1  0
 28 23  1  0
  1 31  1  0
  2 32  1  0
  3 33  1  0
  6 34  1  0
  7 35  1  0
  7 36  1  0
  8 37  1  0
  8 38  1  0
 13 39  1  0
 13 40  1  0
 14 41  1  0
 14 42  1  0
 16 43  1  0
 16 44  1  0
 17 45  1  0
 17 46  1  0
 18 47  1  0
 18 48  1  0
 19 49  1  0
 19 50  1  0
 20 51  1  0
 20 52  1  0
 24 53  1  0
 24 54  1  0
 25 55  1  0
 25 56  1  0
 26 57  1  0
 27 58  1  0
 27 59  1  0
 28 60  1  0
 28 61  1  0
 30 62  1  0
 30 63  1  0
M  END
>  <UniqueID>  (66) 
564

>  <SMILES>  (66) 
c1ccc2c(c1)CCN(c1nc(CCN3CCCCC3)nc(N3CCNCC3)n1)C2

>  <Energy>  (66) 
75.38599246996786

>  <Genealogy>  (66) 
c1ccc2c(c1)CCN(c1nc(CCN3CCCCC3)nc(N3CCNCC3)n1)C2 (3D coordinates assigned)
c1ccc2c(c1)CCN(c1nc(CCN3CCCCC3)nc(N3CCNCC3)n1)C2 (nonaromatic ring conformer: 75.38599246996786 kcal/mol)

>  <smiles>  (66) 
c1ccc2c(c1)CCN(c1nc(CCN3CCCCC3)nc(N3CCNCC3)n1)C2

>  <score_type>  (66) 
oracle

>  <origin>  (66) 
autodockgpu

>  <m_score__min__energy>  (66) 
-9.8000000000000007

>  <m_primary>  (66) 
energy

>  <meeko>  (66) 
{"free_energy": -9.43, "intermolecular_energy": -10.92, "internal_energy": -0.91, "cluster_size": 17, "cluster_id": 1, "rank_in_cluster": 16}

>  <energy>  (66) 
-9.79

>  <cluster_rmsd>  (66) 
0.07

>  <rmsd>  (66) 
271.88

>  <cluster>  (66) 
1

$$$$
GZRQFJZYBWHXJG-UHFFFAOYNA-N
     RDKit          3D

 63 67  0  0  0  0  0  0  0  0999 V2000
  142.5240   80.8070  222.6040 C   0  0  0  0  0  0  0  0  0  0  0  0
  142.0000   80.3600  223.8200 C   0  0  0  0  0  0  0  0  0  0  0  0
  141.1550   79.2480  223.8510 C   0  0  0  0  0  0  0  0  0  0  0  0
  140.8300   78.5700  222.6630 C   0  0  0  0  0  0  0  0  0  0  0  0
  141.3380   79.0400  221.4240 C   0  0  0  0  0  0  0  0  0  0  0  0
  142.2010   80.1480  221.4130 C   0  0  0  0  0  0  0  0  0  0  0  0
  141.0490   78.3210  220.1230 C   0  0  0  0  0  0  0  0  0  0  0  0
  139.8260   77.4020  220.2300 C   0  0  0  0  0  0  0  0  0  0  0  0
  139.9210   76.6390  221.4770 N   0  0  0  0  0  0  0  0  0  0  0  0
  140.4870   75.3210  221.4560 C   0  0  0  0  0  0  0  0  0  0  0  0
  139.8660   74.2990  222.0990 N   0  0  0  0  0  0  0  0  0  0  0  0
  140.4230   73.0630  222.1140 C   0  0  0  0  0  0  0  0  0  0  0  0
  139.8030   71.9710  222.9270 C   0  0  0  0  0  0  0  0  0  0  0  0
  140.7850   71.4170  223.9700 C   0  0  0  0  0  0  0  0  0  0  0  0
  140.1640   71.3930  225.3190 N   0  0  0  0  0  0  0  0  0  0  0  0
  139.5430   70.0790  225.6470 C   0  0  0  0  0  0  0  0  0  0  0  0
  140.4130   69.2320  226.5820 C   0  0  0  0  0  0  0  0  0  0  0  0
  140.6560   69.9530  227.9180 C   0  0  0  0  0  0  0  0  0  0  0  0
  140.6640   71.4840  227.7680 C   0  0  0  0  0  0  0  0  0  0  0  0
  141.0990   71.8970  226.3560 C   0  0  0  0  0  0  0  0  0  0  0  0
  141.6080   72.8510  221.4860 N   0  0  0  0  0  0  0  0  0  0  0  0
  142.2370   73.8640  220.8350 C   0  0  0  0  0  0  0  0  0  0  0  0
  143.4930   73.6310  220.1630 N   0  0  0  0  0  0  0  0  0  0  0  0
  144.6940   73.3270  220.9570 C   0  0  0  0  0  0  0  0  0  0  0  0
  145.9640   73.7440  220.2010 C   0  0  0  0  0  0  0  0  0  0  0  0
  145.9640   73.1770  218.8470 N   0  0  0  0  0  0  0  0  0  0  0  0
  144.8220   73.6940  218.0840 C   0  0  0  0  0  0  0  0  0  0  0  0
  143.5050   73.2650  218.7390 C   0  0  0  0  0  0  0  0  0  0  0  0
  141.6730   75.1000  220.8340 N   0  0  0  0  0  0  0  0  0  0  0  0
  139.8670   77.4130  222.7200 C   0  0  0  0  0  0  0  0  0  0  0  0
  143.1928   81.6801  222.5833 H   0  0  0  0  0  0  0  0  0  0  0  0
  142.2531   80.8841  224.7534 H   0  0  0  0  0  0  0  0  0  0  0  0
  140.7419   78.9011  224.8096 H   0  0  0  0  0  0  0  0  0  0  0  0
  142.6259   80.5000  220.4614 H   0  0  0  0  0  0  0  0  0  0  0  0
  140.8628   79.0691  219.3383 H   0  0  0  0  0  0  0  0  0  0  0  0
  141.9214   77.6964  219.8806 H   0  0  0  0  0  0  0  0  0  0  0  0
  138.9074   78.0071  220.2351 H   0  0  0  0  0  0  0  0  0  0  0  0
  139.7963   76.7153  219.3712 H   0  0  0  0  0  0  0  0  0  0  0  0
  138.9186   72.3698  223.4455 H   0  0  0  0  0  0  0  0  0  0  0  0
  139.5234   71.1521  222.2479 H   0  0  0  0  0  0  0  0  0  0  0  0
  141.0722   70.3936  223.6870 H   0  0  0  0  0  0  0  0  0  0  0  0
  141.6707   72.0686  224.0012 H   0  0  0  0  0  0  0  0  0  0  0  0
  138.5739   70.2596  226.1351 H   0  0  0  0  0  0  0  0  0  0  0  0
  139.4261   69.5220  224.7057 H   0  0  0  0  0  0  0  0  0  0  0  0
  139.9051   68.2760  226.7771 H   0  0  0  0  0  0  0  0  0  0  0  0
  141.3848   69.0619  226.0955 H   0  0  0  0  0  0  0  0  0  0  0  0
  139.8582   69.6716  228.6210 H   0  0  0  0  0  0  0  0  0  0  0  0
  141.6463   69.6481  228.2872 H   0  0  0  0  0  0  0  0  0  0  0  0
  139.6516   71.8693  227.9594 H   0  0  0  0  0  0  0  0  0  0  0  0
  141.3794   71.9027  228.4911 H   0  0  0  0  0  0  0  0  0  0  0  0
  141.1325   72.9951  226.3012 H   0  0  0  0  0  0  0  0  0  0  0  0
  142.0898   71.4599  226.1630 H   0  0  0  0  0  0  0  0  0  0  0  0
  144.6449   73.8742  221.9100 H   0  0  0  0  0  0  0  0  0  0  0  0
  144.7315   72.2431  221.1409 H   0  0  0  0  0  0  0  0  0  0  0  0
  146.0020   74.8413  220.1343 H   0  0  0  0  0  0  0  0  0  0  0  0
  146.8426   73.3673  220.7452 H   0  0  0  0  0  0  0  0  0  0  0  0
  146.8430   73.4980  218.3700 H   0  0  0  0  0  0  0  0  0  0  0  0
  144.8721   74.7925  218.0559 H   0  0  0  0  0  0  0  0  0  0  0  0
  144.8617   73.2880  217.0624 H   0  0  0  0  0  0  0  0  0  0  0  0
  142.6681   73.7653  218.2299 H   0  0  0  0  0  0  0  0  0  0  0  0
  143.4045   72.1730  218.6522 H   0  0  0  0  0  0  0  0  0  0  0  0
  138.8465   77.7980  222.8627 H   0  0  0  0  0  0  0  0  0  0  0  0
  140.1461   76.7587  223.5591 H   0  0  0  0  0  0  0  0  0  0  0  0
  1  2  2  0
  2  3  1  0
  3  4  2  0
  4  5  1  0
  5  6  2  0
  5  7  1  0
  7  8  1  0
  8  9  1  0
  9 10  1  0
 10 11  2  0
 11 12  1  0
 12 13  1  0
 13 14  1  0
 14 15  1  0
 15 16  1  0
 16 17  1  0
 17 18  1  0
 18 19  1  0
 19 20  1  0
 12 21  2  0
 21 22  1  0
 22 23  1  0
 23 24  1  0
 24 25  1  0
 25 26  1  0
 26 27  1  0
 27 28  1  0
 22 29  2  0
  9 30  1  0
  6  1  1  0
 29 10  1  0
 30  4  1  0
 20 15  1  0
 28 23  1  0
  1 31  1  0
  2 32  1  0
  3 33  1  0
  6 34  1  0
  7 35  1  0
  7 36  1  0
  8 37  1  0
  8 38  1  0
 13 39  1  0
 13 40  1  0
 14 41  1  0
 14 42  1  0
 16 43  1  0
 16 44  1  0
 17 45  1  0
 17 46  1  0
 18 47  1  0
 18 48  1  0
 19 49  1  0
 19 50  1  0
 20 51  1  0
 20 52  1  0
 24 53  1  0
 24 54  1  0
 25 55  1  0
 25 56  1  0
 26 57  1  0
 27 58  1  0
 27 59  1  0
 28 60  1  0
 28 61  1  0
 30 62  1  0
 30 63  1  0
M  END
>  <UniqueID>  (67) 
564

>  <SMILES>  (67) 
c1ccc2c(c1)CCN(c1nc(CCN3CCCCC3)nc(N3CCNCC3)n1)C2

>  <Energy>  (67) 
75.38599246996786

>  <Genealogy>  (67) 
c1ccc2c(c1)CCN(c1nc(CCN3CCCCC3)nc(N3CCNCC3)n1)C2 (3D coordinates assigned)
c1ccc2c(c1)CCN(c1nc(CCN3CCCCC3)nc(N3CCNCC3)n1)C2 (nonaromatic ring conformer: 75.38599246996786 kcal/mol)

>  <smiles>  (67) 
c1ccc2c(c1)CCN(c1nc(CCN3CCCCC3)nc(N3CCNCC3)n1)C2

>  <score_type>  (67) 
oracle

>  <origin>  (67) 
autodockgpu

>  <m_score__min__energy>  (67) 
-9.8000000000000007

>  <m_primary>  (67) 
energy

>  <meeko>  (67) 
{"free_energy": -9.79, "intermolecular_energy": -11.28, "internal_energy": -0.9, "cluster_size": 17, "cluster_id": 1, "rank_in_cluster": 2}

>  <energy>  (67) 
-9.78

>  <cluster_rmsd>  (67) 
0.05

>  <rmsd>  (67) 
271.9

>  <cluster>  (67) 
1

$$$$
GZRQFJZYBWHXJG-UHFFFAOYNA-N
     RDKit          3D

 63 67  0  0  0  0  0  0  0  0999 V2000
  142.5140   80.7810  222.6240 C   0  0  0  0  0  0  0  0  0  0  0  0
  141.9760   80.3370  223.8340 C   0  0  0  0  0  0  0  0  0  0  0  0
  141.1290   79.2270  223.8580 C   0  0  0  0  0  0  0  0  0  0  0  0
  140.8160   78.5470  222.6680 C   0  0  0  0  0  0  0  0  0  0  0  0
  141.3380   79.0140  221.4340 C   0  0  0  0  0  0  0  0  0  0  0  0
  142.2020   80.1220  221.4300 C   0  0  0  0  0  0  0  0  0  0  0  0
  141.0620   78.2940  220.1300 C   0  0  0  0  0  0  0  0  0  0  0  0
  139.8370   77.3770  220.2260 C   0  0  0  0  0  0  0  0  0  0  0  0
  139.9170   76.6160  221.4750 N   0  0  0  0  0  0  0  0  0  0  0  0
  140.4820   75.2970  221.4620 C   0  0  0  0  0  0  0  0  0  0  0  0
  139.8490   74.2750  222.0960 N   0  0  0  0  0  0  0  0  0  0  0  0
  140.4050   73.0380  222.1180 C   0  0  0  0  0  0  0  0  0  0  0  0
  139.7710   71.9470  222.9220 C   0  0  0  0  0  0  0  0  0  0  0  0
  140.7500   71.3620  223.9500 C   0  0  0  0  0  0  0  0  0  0  0  0
  140.1450   71.3500  225.3070 N   0  0  0  0  0  0  0  0  0  0  0  0
  139.5480   70.0310  225.6620 C   0  0  0  0  0  0  0  0  0  0  0  0
  140.4420   69.2110  226.5980 C   0  0  0  0  0  0  0  0  0  0  0  0
  140.6900   69.9560  227.9200 C   0  0  0  0  0  0  0  0  0  0  0  0
  140.6740   71.4850  227.7480 C   0  0  0  0  0  0  0  0  0  0  0  0
  141.0860   71.8830  226.3240 C   0  0  0  0  0  0  0  0  0  0  0  0
  141.5980   72.8250  221.5080 N   0  0  0  0  0  0  0  0  0  0  0  0
  142.2390   73.8380  220.8660 C   0  0  0  0  0  0  0  0  0  0  0  0
  143.5040   73.6030  220.2140 N   0  0  0  0  0  0  0  0  0  0  0  0
  144.6960   73.3100  221.0260 C   0  0  0  0  0  0  0  0  0  0  0  0
  145.9740   73.7250  220.2830 C   0  0  0  0  0  0  0  0  0  0  0  0
  145.9940   73.1460  218.9340 N   0  0  0  0  0  0  0  0  0  0  0  0
  144.8600   73.6520  218.1520 C   0  0  0  0  0  0  0  0  0  0  0  0
  143.5360   73.2240  218.7930 C   0  0  0  0  0  0  0  0  0  0  0  0
  141.6770   75.0750  220.8580 N   0  0  0  0  0  0  0  0  0  0  0  0
  139.8510   77.3910  222.7160 C   0  0  0  0  0  0  0  0  0  0  0  0
  143.1856   81.6521  222.6098 H   0  0  0  0  0  0  0  0  0  0  0  0
  142.2198   80.8623  224.7692 H   0  0  0  0  0  0  0  0  0  0  0  0
  140.7046   78.8830  224.8127 H   0  0  0  0  0  0  0  0  0  0  0  0
  142.6358   80.4735  220.4822 H   0  0  0  0  0  0  0  0  0  0  0  0
  140.8848   79.0415  219.3427 H   0  0  0  0  0  0  0  0  0  0  0  0
  141.9362   77.6684  219.8967 H   0  0  0  0  0  0  0  0  0  0  0  0
  138.9193   77.9834  220.2201 H   0  0  0  0  0  0  0  0  0  0  0  0
  139.8159   76.6886  219.3683 H   0  0  0  0  0  0  0  0  0  0  0  0
  138.8980   72.3553  223.4523 H   0  0  0  0  0  0  0  0  0  0  0  0
  139.4714   71.1421  222.2347 H   0  0  0  0  0  0  0  0  0  0  0  0
  141.0051   70.3321  223.6597 H   0  0  0  0  0  0  0  0  0  0  0  0
  141.6539   71.9884  223.9724 H   0  0  0  0  0  0  0  0  0  0  0  0
  138.5824   70.2041  226.1596 H   0  0  0  0  0  0  0  0  0  0  0  0
  139.4282   69.4585  224.7304 H   0  0  0  0  0  0  0  0  0  0  0  0
  139.9511   68.2505  226.8135 H   0  0  0  0  0  0  0  0  0  0  0  0
  141.4102   69.0477  226.1021 H   0  0  0  0  0  0  0  0  0  0  0  0
  139.9046   69.6736  228.6365 H   0  0  0  0  0  0  0  0  0  0  0  0
  141.6892   69.6712  228.2812 H   0  0  0  0  0  0  0  0  0  0  0  0
  139.6586   71.8586  227.9463 H   0  0  0  0  0  0  0  0  0  0  0  0
  141.3917   71.9247  228.4562 H   0  0  0  0  0  0  0  0  0  0  0  0
  141.1032   72.9805  226.2522 H   0  0  0  0  0  0  0  0  0  0  0  0
  142.0806   71.4574  226.1250 H   0  0  0  0  0  0  0  0  0  0  0  0
  144.6328   73.8650  221.9736 H   0  0  0  0  0  0  0  0  0  0  0  0
  144.7349   72.2279  221.2195 H   0  0  0  0  0  0  0  0  0  0  0  0
  146.0088   74.8218  220.2070 H   0  0  0  0  0  0  0  0  0  0  0  0
  146.8467   73.3564  220.8419 H   0  0  0  0  0  0  0  0  0  0  0  0
  146.8780   73.4660  218.4660 H   0  0  0  0  0  0  0  0  0  0  0  0
  144.9065   74.7504  218.1151 H   0  0  0  0  0  0  0  0  0  0  0  0
  144.9146   73.2370  217.1347 H   0  0  0  0  0  0  0  0  0  0  0  0
  142.7041   73.7167  218.2684 H   0  0  0  0  0  0  0  0  0  0  0  0
  143.4403   72.1310  218.7146 H   0  0  0  0  0  0  0  0  0  0  0  0
  138.8295   77.7774  222.8476 H   0  0  0  0  0  0  0  0  0  0  0  0
  140.1206   76.7372  223.5585 H   0  0  0  0  0  0  0  0  0  0  0  0
  1  2  2  0
  2  3  1  0
  3  4  2  0
  4  5  1  0
  5  6  2  0
  5  7  1  0
  7  8  1  0
  8  9  1  0
  9 10  1  0
 10 11  2  0
 11 12  1  0
 12 13  1  0
 13 14  1  0
 14 15  1  0
 15 16  1  0
 16 17  1  0
 17 18  1  0
 18 19  1  0
 19 20  1  0
 12 21  2  0
 21 22  1  0
 22 23  1  0
 23 24  1  0
 24 25  1  0
 25 26  1  0
 26 27  1  0
 27 28  1  0
 22 29  2  0
  9 30  1  0
  6  1  1  0
 29 10  1  0
 30  4  1  0
 20 15  1  0
 28 23  1  0
  1 31  1  0
  2 32  1  0
  3 33  1  0
  6 34  1  0
  7 35  1  0
  7 36  1  0
  8 37  1  0
  8 38  1  0
 13 39  1  0
 13 40  1  0
 14 41  1  0
 14 42  1  0
 16 43  1  0
 16 44  1  0
 17 45  1  0
 17 46  1  0
 18 47  1  0
 18 48  1  0
 19 49  1  0
 19 50  1  0
 20 51  1  0
 20 52  1  0
 24 53  1  0
 24 54  1  0
 25 55  1  0
 25 56  1  0
 26 57  1  0
 27 58  1  0
 27 59  1  0
 28 60  1  0
 28 61  1  0
 30 62  1  0
 30 63  1  0
M  END
>  <UniqueID>  (68) 
564

>  <SMILES>  (68) 
c1ccc2c(c1)CCN(c1nc(CCN3CCCCC3)nc(N3CCNCC3)n1)C2

>  <Energy>  (68) 
75.38599246996786

>  <Genealogy>  (68) 
c1ccc2c(c1)CCN(c1nc(CCN3CCCCC3)nc(N3CCNCC3)n1)C2 (3D coordinates assigned)
c1ccc2c(c1)CCN(c1nc(CCN3CCCCC3)nc(N3CCNCC3)n1)C2 (nonaromatic ring conformer: 75.38599246996786 kcal/mol)

>  <smiles>  (68) 
c1ccc2c(c1)CCN(c1nc(CCN3CCCCC3)nc(N3CCNCC3)n1)C2

>  <score_type>  (68) 
oracle

>  <origin>  (68) 
autodockgpu

>  <m_score__min__energy>  (68) 
-9.8000000000000007

>  <m_primary>  (68) 
energy

>  <meeko>  (68) 
{"free_energy": -9.79, "intermolecular_energy": -11.28, "internal_energy": -0.9, "cluster_size": 17, "cluster_id": 1, "rank_in_cluster": 4}

>  <energy>  (68) 
-9.78

>  <cluster_rmsd>  (68) 
0.07

>  <rmsd>  (68) 
271.87

>  <cluster>  (68) 
1

$$$$
GZRQFJZYBWHXJG-UHFFFAOYNA-N
     RDKit          3D

 63 67  0  0  0  0  0  0  0  0999 V2000
  140.4940   69.5110  228.2110 C   0  0  0  0  0  0  0  0  0  0  0  0
  141.0960   70.7490  227.9730 C   0  0  0  0  0  0  0  0  0  0  0  0
  140.9630   71.3630  226.7250 C   0  0  0  0  0  0  0  0  0  0  0  0
  140.2200   70.7450  225.7050 C   0  0  0  0  0  0  0  0  0  0  0  0
  139.6320   69.4740  225.9350 C   0  0  0  0  0  0  0  0  0  0  0  0
  139.7610   68.8780  227.2010 C   0  0  0  0  0  0  0  0  0  0  0  0
  138.7900   68.7850  224.8820 C   0  0  0  0  0  0  0  0  0  0  0  0
  139.0540   69.3410  223.4770 C   0  0  0  0  0  0  0  0  0  0  0  0
  139.0750   70.8040  223.5490 N   0  0  0  0  0  0  0  0  0  0  0  0
  137.8820   71.5430  223.2500 C   0  0  0  0  0  0  0  0  0  0  0  0
  137.7000   72.0780  222.0150 N   0  0  0  0  0  0  0  0  0  0  0  0
  136.5910   72.8110  221.7460 C   0  0  0  0  0  0  0  0  0  0  0  0
  136.4530   73.5040  220.4280 C   0  0  0  0  0  0  0  0  0  0  0  0
  137.6060   74.4870  220.1830 C   0  0  0  0  0  0  0  0  0  0  0  0
  138.1440   75.0000  221.4700 N   0  0  0  0  0  0  0  0  0  0  0  0
  139.5520   74.5770  221.7180 C   0  0  0  0  0  0  0  0  0  0  0  0
  140.5630   75.6920  221.4270 C   0  0  0  0  0  0  0  0  0  0  0  0
  140.3050   76.9200  222.3160 C   0  0  0  0  0  0  0  0  0  0  0  0
  138.8200   77.0800  222.6840 C   0  0  0  0  0  0  0  0  0  0  0  0
  137.9160   76.4600  221.6090 C   0  0  0  0  0  0  0  0  0  0  0  0
  135.6640   73.0110  222.7180 N   0  0  0  0  0  0  0  0  0  0  0  0
  135.8330   72.4770  223.9560 C   0  0  0  0  0  0  0  0  0  0  0  0
  134.8410   72.6880  224.9830 N   0  0  0  0  0  0  0  0  0  0  0  0
  134.0600   73.9350  224.9920 C   0  0  0  0  0  0  0  0  0  0  0  0
  133.5800   74.2640  226.4130 C   0  0  0  0  0  0  0  0  0  0  0  0
  132.8940   73.1070  227.0030 N   0  0  0  0  0  0  0  0  0  0  0  0
  133.8210   71.9750  227.1140 C   0  0  0  0  0  0  0  0  0  0  0  0
  134.3010   71.5390  225.7260 C   0  0  0  0  0  0  0  0  0  0  0  0
  136.9520   71.7510  224.2160 N   0  0  0  0  0  0  0  0  0  0  0  0
  140.1460   71.4020  224.3510 C   0  0  0  0  0  0  0  0  0  0  0  0
  140.5966   69.0321  229.1959 H   0  0  0  0  0  0  0  0  0  0  0  0
  141.6750   71.2407  228.7686 H   0  0  0  0  0  0  0  0  0  0  0  0
  141.4426   72.3355  226.5400 H   0  0  0  0  0  0  0  0  0  0  0  0
  139.2826   67.9075  227.3994 H   0  0  0  0  0  0  0  0  0  0  0  0
  139.0243   67.7103  224.8879 H   0  0  0  0  0  0  0  0  0  0  0  0
  137.7320   68.9643  225.1238 H   0  0  0  0  0  0  0  0  0  0  0  0
  140.0238   68.9742  223.1096 H   0  0  0  0  0  0  0  0  0  0  0  0
  138.2633   69.0103  222.7876 H   0  0  0  0  0  0  0  0  0  0  0  0
  136.4503   72.7502  219.6269 H   0  0  0  0  0  0  0  0  0  0  0  0
  135.5116   74.0729  220.4353 H   0  0  0  0  0  0  0  0  0  0  0  0
  138.4093   73.9717  219.6360 H   0  0  0  0  0  0  0  0  0  0  0  0
  137.2268   75.3362  219.5956 H   0  0  0  0  0  0  0  0  0  0  0  0
  139.6498   74.2793  222.7724 H   0  0  0  0  0  0  0  0  0  0  0  0
  139.7732   73.7412  221.0380 H   0  0  0  0  0  0  0  0  0  0  0  0
  141.5783   75.3156  221.6204 H   0  0  0  0  0  0  0  0  0  0  0  0
  140.4562   75.9942  220.3747 H   0  0  0  0  0  0  0  0  0  0  0  0
  140.8884   76.8135  223.2424 H   0  0  0  0  0  0  0  0  0  0  0  0
  140.6064   77.8126  221.7482 H   0  0  0  0  0  0  0  0  0  0  0  0
  138.6317   76.5789  223.6449 H   0  0  0  0  0  0  0  0  0  0  0  0
  138.5912   78.1534  222.7574 H   0  0  0  0  0  0  0  0  0  0  0  0
  136.8652   76.6312  221.8857 H   0  0  0  0  0  0  0  0  0  0  0  0
  138.1547   76.9358  220.6464 H   0  0  0  0  0  0  0  0  0  0  0  0
  134.6898   74.7583  224.6238 H   0  0  0  0  0  0  0  0  0  0  0  0
  133.1815   73.8070  224.3425 H   0  0  0  0  0  0  0  0  0  0  0  0
  134.4471   74.5278  227.0364 H   0  0  0  0  0  0  0  0  0  0  0  0
  132.8773   75.1090  226.3653 H   0  0  0  0  0  0  0  0  0  0  0  0
  132.5950   73.3770  227.9720 H   0  0  0  0  0  0  0  0  0  0  0  0
  134.6887   72.2753  227.7197 H   0  0  0  0  0  0  0  0  0  0  0  0
  133.2995   71.1326  227.5918 H   0  0  0  0  0  0  0  0  0  0  0  0
  135.0875   70.7781  225.8375 H   0  0  0  0  0  0  0  0  0  0  0  0
  133.4481   71.1242  225.1688 H   0  0  0  0  0  0  0  0  0  0  0  0
  141.1059   71.2683  223.8306 H   0  0  0  0  0  0  0  0  0  0  0  0
  139.9342   72.4730  224.4860 H   0  0  0  0  0  0  0  0  0  0  0  0
  1  2  2  0
  2  3  1  0
  3  4  2  0
  4  5  1  0
  5  6  2  0
  5  7  1  0
  7  8  1  0
  8  9  1  0
  9 10  1  0
 10 11  2  0
 11 12  1  0
 12 13  1  0
 13 14  1  0
 14 15  1  0
 15 16  1  0
 16 17  1  0
 17 18  1  0
 18 19  1  0
 19 20  1  0
 12 21  2  0
 21 22  1  0
 22 23  1  0
 23 24  1  0
 24 25  1  0
 25 26  1  0
 26 27  1  0
 27 28  1  0
 22 29  2  0
  9 30  1  0
  6  1  1  0
 29 10  1  0
 30  4  1  0
 20 15  1  0
 28 23  1  0
  1 31  1  0
  2 32  1  0
  3 33  1  0
  6 34  1  0
  7 35  1  0
  7 36  1  0
  8 37  1  0
  8 38  1  0
 13 39  1  0
 13 40  1  0
 14 41  1  0
 14 42  1  0
 16 43  1  0
 16 44  1  0
 17 45  1  0
 17 46  1  0
 18 47  1  0
 18 48  1  0
 19 49  1  0
 19 50  1  0
 20 51  1  0
 20 52  1  0
 24 53  1  0
 24 54  1  0
 25 55  1  0
 25 56  1  0
 26 57  1  0
 27 58  1  0
 27 59  1  0
 28 60  1  0
 28 61  1  0
 30 62  1  0
 30 63  1  0
M  END
>  <UniqueID>  (69) 
564

>  <SMILES>  (69) 
c1ccc2c(c1)CCN(c1nc(CCN3CCCCC3)nc(N3CCNCC3)n1)C2

>  <Energy>  (69) 
75.38599246996786

>  <Genealogy>  (69) 
c1ccc2c(c1)CCN(c1nc(CCN3CCCCC3)nc(N3CCNCC3)n1)C2 (3D coordinates assigned)
c1ccc2c(c1)CCN(c1nc(CCN3CCCCC3)nc(N3CCNCC3)n1)C2 (nonaromatic ring conformer: 75.38599246996786 kcal/mol)

>  <smiles>  (69) 
c1ccc2c(c1)CCN(c1nc(CCN3CCCCC3)nc(N3CCNCC3)n1)C2

>  <score_type>  (69) 
oracle

>  <origin>  (69) 
autodockgpu

>  <m_score__min__energy>  (69) 
-9.8000000000000007

>  <m_primary>  (69) 
energy

>  <meeko>  (69) 
{"free_energy": -7.36, "intermolecular_energy": -8.85, "internal_energy": -1.35, "cluster_size": 2, "cluster_id": 3, "rank_in_cluster": 1}

>  <energy>  (69) 
-9.78

>  <cluster_rmsd>  (69) 
0.06

>  <rmsd>  (69) 
271.88

>  <cluster>  (69) 
1

$$$$
GZRQFJZYBWHXJG-UHFFFAOYNA-N
     RDKit          3D

 63 67  0  0  0  0  0  0  0  0999 V2000
  140.4770   69.8020  228.2960 C   0  0  0  0  0  0  0  0  0  0  0  0
  141.1030   71.0010  227.9440 C   0  0  0  0  0  0  0  0  0  0  0  0
  140.9430   71.5220  226.6580 C   0  0  0  0  0  0  0  0  0  0  0  0
  140.1490   70.8500  225.7130 C   0  0  0  0  0  0  0  0  0  0  0  0
  139.5360   69.6180  226.0590 C   0  0  0  0  0  0  0  0  0  0  0  0
  139.6930   69.1160  227.3620 C   0  0  0  0  0  0  0  0  0  0  0  0
  138.6400   68.8750  225.0900 C   0  0  0  0  0  0  0  0  0  0  0  0
  138.8690   69.3150  223.6390 C   0  0  0  0  0  0  0  0  0  0  0  0
  138.9320   70.7780  223.5970 N   0  0  0  0  0  0  0  0  0  0  0  0
  137.7490   71.5260  223.2820 C   0  0  0  0  0  0  0  0  0  0  0  0
  137.5660   72.0240  222.0310 N   0  0  0  0  0  0  0  0  0  0  0  0
  136.4680   72.7660  221.7450 C   0  0  0  0  0  0  0  0  0  0  0  0
  136.3320   73.4170  220.4060 C   0  0  0  0  0  0  0  0  0  0  0  0
  137.4370   74.4570  220.1690 C   0  0  0  0  0  0  0  0  0  0  0  0
  137.9820   74.9500  221.4600 N   0  0  0  0  0  0  0  0  0  0  0  0
  139.3980   74.5410  221.6840 C   0  0  0  0  0  0  0  0  0  0  0  0
  140.3910   75.6750  221.4050 C   0  0  0  0  0  0  0  0  0  0  0  0
  140.1270   76.8800  222.3220 C   0  0  0  0  0  0  0  0  0  0  0  0
  138.6440   77.0140  222.7090 C   0  0  0  0  0  0  0  0  0  0  0  0
  137.7370   76.4040  221.6320 C   0  0  0  0  0  0  0  0  0  0  0  0
  135.5510   73.0130  222.7150 N   0  0  0  0  0  0  0  0  0  0  0  0
  135.7190   72.5160  223.9690 C   0  0  0  0  0  0  0  0  0  0  0  0
  134.7380   72.7770  224.9950 N   0  0  0  0  0  0  0  0  0  0  0  0
  134.0410   74.0720  225.0190 C   0  0  0  0  0  0  0  0  0  0  0  0
  133.5750   74.4110  226.4430 C   0  0  0  0  0  0  0  0  0  0  0  0
  132.8120   73.2940  227.0120 N   0  0  0  0  0  0  0  0  0  0  0  0
  133.6620   72.1020  227.1110 C   0  0  0  0  0  0  0  0  0  0  0  0
  134.1200   71.6550  225.7190 C   0  0  0  0  0  0  0  0  0  0  0  0
  136.8280   71.7820  224.2460 N   0  0  0  0  0  0  0  0  0  0  0  0
  140.0450   71.4040  224.3160 C   0  0  0  0  0  0  0  0  0  0  0  0
  140.6011   69.3963  229.3109 H   0  0  0  0  0  0  0  0  0  0  0  0
  141.7221   71.5347  228.6802 H   0  0  0  0  0  0  0  0  0  0  0  0
  141.4412   72.4635  226.3834 H   0  0  0  0  0  0  0  0  0  0  0  0
  139.1963   68.1776  227.6496 H   0  0  0  0  0  0  0  0  0  0  0  0
  138.8466   67.7976  225.1707 H   0  0  0  0  0  0  0  0  0  0  0  0
  137.5960   69.1020  225.3520 H   0  0  0  0  0  0  0  0  0  0  0  0
  139.8150   68.8929  223.2690 H   0  0  0  0  0  0  0  0  0  0  0  0
  138.0454   68.9566  223.0039 H   0  0  0  0  0  0  0  0  0  0  0  0
  136.3952   72.6446  219.6253 H   0  0  0  0  0  0  0  0  0  0  0  0
  135.3608   73.9323  220.3706 H   0  0  0  0  0  0  0  0  0  0  0  0
  138.2486   73.9950  219.5877 H   0  0  0  0  0  0  0  0  0  0  0  0
  137.0088   75.3078  219.6188 H   0  0  0  0  0  0  0  0  0  0  0  0
  139.5114   74.2232  222.7310 H   0  0  0  0  0  0  0  0  0  0  0  0
  139.6226   73.7223  220.9846 H   0  0  0  0  0  0  0  0  0  0  0  0
  141.4133   75.3082  221.5791 H   0  0  0  0  0  0  0  0  0  0  0  0
  140.2685   75.9975  220.3605 H   0  0  0  0  0  0  0  0  0  0  0  0
  140.7215   76.7614  223.2399 H   0  0  0  0  0  0  0  0  0  0  0  0
  140.4110   77.7880  221.7698 H   0  0  0  0  0  0  0  0  0  0  0  0
  138.4723   76.4918  223.6618 H   0  0  0  0  0  0  0  0  0  0  0  0
  138.4025   78.0828  222.8062 H   0  0  0  0  0  0  0  0  0  0  0  0
  136.6872   76.5556  221.9236 H   0  0  0  0  0  0  0  0  0  0  0  0
  137.9594   76.9023  220.6769 H   0  0  0  0  0  0  0  0  0  0  0  0
  134.7258   74.8573  224.6665 H   0  0  0  0  0  0  0  0  0  0  0  0
  133.1599   74.0118  224.3633 H   0  0  0  0  0  0  0  0  0  0  0  0
  134.4538   74.6083  227.0744 H   0  0  0  0  0  0  0  0  0  0  0  0
  132.9293   75.3007  226.4044 H   0  0  0  0  0  0  0  0  0  0  0  0
  132.5260   73.5690  227.9840 H   0  0  0  0  0  0  0  0  0  0  0  0
  134.5442   72.3360  227.7249 H   0  0  0  0  0  0  0  0  0  0  0  0
  133.0837   71.2890  227.5743 H   0  0  0  0  0  0  0  0  0  0  0  0
  134.8545   70.8428  225.8230 H   0  0  0  0  0  0  0  0  0  0  0  0
  133.2450   71.3045  225.1520 H   0  0  0  0  0  0  0  0  0  0  0  0
  140.9826   71.2040  223.7766 H   0  0  0  0  0  0  0  0  0  0  0  0
  139.8654   72.4876  224.3755 H   0  0  0  0  0  0  0  0  0  0  0  0
  1  2  2  0
  2  3  1  0
  3  4  2  0
  4  5  1  0
  5  6  2  0
  5  7  1  0
  7  8  1  0
  8  9  1  0
  9 10  1  0
 10 11  2  0
 11 12  1  0
 12 13  1  0
 13 14  1  0
 14 15  1  0
 15 16  1  0
 16 17  1  0
 17 18  1  0
 18 19  1  0
 19 20  1  0
 12 21  2  0
 21 22  1  0
 22 23  1  0
 23 24  1  0
 24 25  1  0
 25 26  1  0
 26 27  1  0
 27 28  1  0
 22 29  2  0
  9 30  1  0
  6  1  1  0
 29 10  1  0
 30  4  1  0
 20 15  1  0
 28 23  1  0
  1 31  1  0
  2 32  1  0
  3 33  1  0
  6 34  1  0
  7 35  1  0
  7 36  1  0
  8 37  1  0
  8 38  1  0
 13 39  1  0
 13 40  1  0
 14 41  1  0
 14 42  1  0
 16 43  1  0
 16 44  1  0
 17 45  1  0
 17 46  1  0
 18 47  1  0
 18 48  1  0
 19 49  1  0
 19 50  1  0
 20 51  1  0
 20 52  1  0
 24 53  1  0
 24 54  1  0
 25 55  1  0
 25 56  1  0
 26 57  1  0
 27 58  1  0
 27 59  1  0
 28 60  1  0
 28 61  1  0
 30 62  1  0
 30 63  1  0
M  END
>  <UniqueID>  (70) 
564

>  <SMILES>  (70) 
c1ccc2c(c1)CCN(c1nc(CCN3CCCCC3)nc(N3CCNCC3)n1)C2

>  <Energy>  (70) 
75.38599246996786

>  <Genealogy>  (70) 
c1ccc2c(c1)CCN(c1nc(CCN3CCCCC3)nc(N3CCNCC3)n1)C2 (3D coordinates assigned)
c1ccc2c(c1)CCN(c1nc(CCN3CCCCC3)nc(N3CCNCC3)n1)C2 (nonaromatic ring conformer: 75.38599246996786 kcal/mol)

>  <smiles>  (70) 
c1ccc2c(c1)CCN(c1nc(CCN3CCCCC3)nc(N3CCNCC3)n1)C2

>  <score_type>  (70) 
oracle

>  <origin>  (70) 
autodockgpu

>  <m_score__min__energy>  (70) 
-9.8000000000000007

>  <m_primary>  (70) 
energy

>  <meeko>  (70) 
{"free_energy": -7.31, "intermolecular_energy": -8.8, "internal_energy": -1.37, "cluster_size": 2, "cluster_id": 3, "rank_in_cluster": 2}

>  <energy>  (70) 
-9.68

>  <cluster_rmsd>  (70) 
0.64

>  <rmsd>  (70) 
271.95

>  <cluster>  (70) 
1

$$$$
GZRQFJZYBWHXJG-UHFFFAOYNA-N
     RDKit          3D

 63 67  0  0  0  0  0  0  0  0999 V2000
  142.5240   80.7930  222.6020 C   0  0  0  0  0  0  0  0  0  0  0  0
  141.9920   80.3520  223.8160 C   0  0  0  0  0  0  0  0  0  0  0  0
  141.1440   79.2420  223.8460 C   0  0  0  0  0  0  0  0  0  0  0  0
  140.8250   78.5600  222.6600 C   0  0  0  0  0  0  0  0  0  0  0  0
  141.3410   79.0230  221.4220 C   0  0  0  0  0  0  0  0  0  0  0  0
  142.2070   80.1300  221.4110 C   0  0  0  0  0  0  0  0  0  0  0  0
  141.0590   78.3000  220.1210 C   0  0  0  0  0  0  0  0  0  0  0  0
  139.8340   77.3840  220.2240 C   0  0  0  0  0  0  0  0  0  0  0  0
  139.9190   76.6260  221.4750 N   0  0  0  0  0  0  0  0  0  0  0  0
  140.4830   75.3070  221.4630 C   0  0  0  0  0  0  0  0  0  0  0  0
  139.8510   74.2860  222.0990 N   0  0  0  0  0  0  0  0  0  0  0  0
  140.4060   73.0490  222.1220 C   0  0  0  0  0  0  0  0  0  0  0  0
  139.7730   71.9600  222.9290 C   0  0  0  0  0  0  0  0  0  0  0  0
  140.7540   71.3740  223.9540 C   0  0  0  0  0  0  0  0  0  0  0  0
  140.1510   71.3560  225.3110 N   0  0  0  0  0  0  0  0  0  0  0  0
  139.5460   70.0380  225.6570 C   0  0  0  0  0  0  0  0  0  0  0  0
  140.4360   69.2060  226.5880 C   0  0  0  0  0  0  0  0  0  0  0  0
  140.6890   69.9400  227.9150 C   0  0  0  0  0  0  0  0  0  0  0  0
  140.6820   71.4700  227.7530 C   0  0  0  0  0  0  0  0  0  0  0  0
  141.0950   71.8750  226.3320 C   0  0  0  0  0  0  0  0  0  0  0  0
  141.5970   72.8340  221.5100 N   0  0  0  0  0  0  0  0  0  0  0  0
  142.2370   73.8460  220.8650 C   0  0  0  0  0  0  0  0  0  0  0  0
  143.5020   73.6090  220.2100 N   0  0  0  0  0  0  0  0  0  0  0  0
  144.6940   73.3140  221.0200 C   0  0  0  0  0  0  0  0  0  0  0  0
  145.9720   73.7280  220.2750 C   0  0  0  0  0  0  0  0  0  0  0  0
  145.9880   73.1490  218.9260 N   0  0  0  0  0  0  0  0  0  0  0  0
  144.8540   73.6560  218.1460 C   0  0  0  0  0  0  0  0  0  0  0  0
  143.5300   73.2300  218.7890 C   0  0  0  0  0  0  0  0  0  0  0  0
  141.6760   75.0830  220.8560 N   0  0  0  0  0  0  0  0  0  0  0  0
  139.8590   77.4050  222.7150 C   0  0  0  0  0  0  0  0  0  0  0  0
  143.1946   81.6647  222.5821 H   0  0  0  0  0  0  0  0  0  0  0  0
  142.2409   80.8790  224.7489 H   0  0  0  0  0  0  0  0  0  0  0  0
  140.7239   78.9003  224.8035 H   0  0  0  0  0  0  0  0  0  0  0  0
  142.6382   80.4773  220.4605 H   0  0  0  0  0  0  0  0  0  0  0  0
  140.8790   79.0457  219.3326 H   0  0  0  0  0  0  0  0  0  0  0  0
  141.9318   77.6732  219.8858 H   0  0  0  0  0  0  0  0  0  0  0  0
  138.9165   77.9908  220.2203 H   0  0  0  0  0  0  0  0  0  0  0  0
  139.8089   76.6936  219.3680 H   0  0  0  0  0  0  0  0  0  0  0  0
  138.9025   72.3703  223.4619 H   0  0  0  0  0  0  0  0  0  0  0  0
  139.4698   71.1551  222.2433 H   0  0  0  0  0  0  0  0  0  0  0  0
  141.0111   70.3457  223.6600 H   0  0  0  0  0  0  0  0  0  0  0  0
  141.6564   72.0026  223.9776 H   0  0  0  0  0  0  0  0  0  0  0  0
  138.5814   70.2134  226.1558 H   0  0  0  0  0  0  0  0  0  0  0  0
  139.4226   69.4726  224.7215 H   0  0  0  0  0  0  0  0  0  0  0  0
  139.9395   68.2470  226.7971 H   0  0  0  0  0  0  0  0  0  0  0  0
  141.4031   69.0408  226.0906 H   0  0  0  0  0  0  0  0  0  0  0  0
  139.9022   69.6574  228.6299 H   0  0  0  0  0  0  0  0  0  0  0  0
  141.6864   69.6466  228.2742 H   0  0  0  0  0  0  0  0  0  0  0  0
  139.6690   71.8483  227.9547 H   0  0  0  0  0  0  0  0  0  0  0  0
  141.4031   71.9006  228.4634 H   0  0  0  0  0  0  0  0  0  0  0  0
  141.1192   72.9729  226.2682 H   0  0  0  0  0  0  0  0  0  0  0  0
  142.0864   71.4435  226.1296 H   0  0  0  0  0  0  0  0  0  0  0  0
  144.6328   73.8686  221.9680 H   0  0  0  0  0  0  0  0  0  0  0  0
  144.7317   72.2317  221.2131 H   0  0  0  0  0  0  0  0  0  0  0  0
  146.0082   74.8248  220.1992 H   0  0  0  0  0  0  0  0  0  0  0  0
  146.8455   73.3587  220.8323 H   0  0  0  0  0  0  0  0  0  0  0  0
  146.8710   73.4670  218.4560 H   0  0  0  0  0  0  0  0  0  0  0  0
  144.9019   74.7543  218.1087 H   0  0  0  0  0  0  0  0  0  0  0  0
  144.9065   73.2405  217.1288 H   0  0  0  0  0  0  0  0  0  0  0  0
  142.6980   73.7243  218.2660 H   0  0  0  0  0  0  0  0  0  0  0  0
  143.4316   72.1372  218.7102 H   0  0  0  0  0  0  0  0  0  0  0  0
  138.8385   77.7928  222.8498 H   0  0  0  0  0  0  0  0  0  0  0  0
  140.1315   76.7532  223.5581 H   0  0  0  0  0  0  0  0  0  0  0  0
  1  2  2  0
  2  3  1  0
  3  4  2  0
  4  5  1  0
  5  6  2  0
  5  7  1  0
  7  8  1  0
  8  9  1  0
  9 10  1  0
 10 11  2  0
 11 12  1  0
 12 13  1  0
 13 14  1  0
 14 15  1  0
 15 16  1  0
 16 17  1  0
 17 18  1  0
 18 19  1  0
 19 20  1  0
 12 21  2  0
 21 22  1  0
 22 23  1  0
 23 24  1  0
 24 25  1  0
 25 26  1  0
 26 27  1  0
 27 28  1  0
 22 29  2  0
  9 30  1  0
  6  1  1  0
 29 10  1  0
 30  4  1  0
 20 15  1  0
 28 23  1  0
  1 31  1  0
  2 32  1  0
  3 33  1  0
  6 34  1  0
  7 35  1  0
  7 36  1  0
  8 37  1  0
  8 38  1  0
 13 39  1  0
 13 40  1  0
 14 41  1  0
 14 42  1  0
 16 43  1  0
 16 44  1  0
 17 45  1  0
 17 46  1  0
 18 47  1  0
 18 48  1  0
 19 49  1  0
 19 50  1  0
 20 51  1  0
 20 52  1  0
 24 53  1  0
 24 54  1  0
 25 55  1  0
 25 56  1  0
 26 57  1  0
 27 58  1  0
 27 59  1  0
 28 60  1  0
 28 61  1  0
 30 62  1  0
 30 63  1  0
M  END
>  <UniqueID>  (71) 
564

>  <SMILES>  (71) 
c1ccc2c(c1)CCN(c1nc(CCN3CCCCC3)nc(N3CCNCC3)n1)C2

>  <Energy>  (71) 
75.38599246996786

>  <Genealogy>  (71) 
c1ccc2c(c1)CCN(c1nc(CCN3CCCCC3)nc(N3CCNCC3)n1)C2 (3D coordinates assigned)
c1ccc2c(c1)CCN(c1nc(CCN3CCCCC3)nc(N3CCNCC3)n1)C2 (nonaromatic ring conformer: 75.38599246996786 kcal/mol)

>  <smiles>  (71) 
c1ccc2c(c1)CCN(c1nc(CCN3CCCCC3)nc(N3CCNCC3)n1)C2

>  <score_type>  (71) 
oracle

>  <origin>  (71) 
autodockgpu

>  <m_score__min__energy>  (71) 
-9.8000000000000007

>  <m_primary>  (71) 
energy

>  <meeko>  (71) 
{"free_energy": -9.78, "intermolecular_energy": -11.27, "internal_energy": -0.9, "cluster_size": 17, "cluster_id": 1, "rank_in_cluster": 9}

>  <energy>  (71) 
-9.65

>  <cluster_rmsd>  (71) 
0.44

>  <rmsd>  (71) 
271.88

>  <cluster>  (71) 
1

$$$$
GZRQFJZYBWHXJG-UHFFFAOYNA-N
     RDKit          3D

 63 67  0  0  0  0  0  0  0  0999 V2000
  142.5050   80.5220  222.5730 C   0  0  0  0  0  0  0  0  0  0  0  0
  142.0200   80.0480  223.7940 C   0  0  0  0  0  0  0  0  0  0  0  0
  141.2260   78.8990  223.8330 C   0  0  0  0  0  0  0  0  0  0  0  0
  140.9140   78.2110  222.6480 C   0  0  0  0  0  0  0  0  0  0  0  0
  141.3820   78.7080  221.4030 C   0  0  0  0  0  0  0  0  0  0  0  0
  142.1940   79.8540  221.3840 C   0  0  0  0  0  0  0  0  0  0  0  0
  141.1070   77.9810  220.1030 C   0  0  0  0  0  0  0  0  0  0  0  0
  139.9280   77.0080  220.2240 C   0  0  0  0  0  0  0  0  0  0  0  0
  140.0750   76.2460  221.4660 N   0  0  0  0  0  0  0  0  0  0  0  0
  140.7000   74.9550  221.4320 C   0  0  0  0  0  0  0  0  0  0  0  0
  140.1140   73.8940  222.0450 N   0  0  0  0  0  0  0  0  0  0  0  0
  140.7250   72.6830  222.0460 C   0  0  0  0  0  0  0  0  0  0  0  0
  140.1410   71.5500  222.8280 C   0  0  0  0  0  0  0  0  0  0  0  0
  140.0300   71.8920  224.3210 C   0  0  0  0  0  0  0  0  0  0  0  0
  140.8250   70.9410  225.1400 N   0  0  0  0  0  0  0  0  0  0  0  0
  141.4270   71.5790  226.3450 C   0  0  0  0  0  0  0  0  0  0  0  0
  140.6540   71.2610  227.6300 C   0  0  0  0  0  0  0  0  0  0  0  0
  140.6240   69.7480  227.8980 C   0  0  0  0  0  0  0  0  0  0  0  0
  140.6610   68.9180  226.6030 C   0  0  0  0  0  0  0  0  0  0  0  0
  140.0590   69.7030  225.4290 C   0  0  0  0  0  0  0  0  0  0  0  0
  141.9290   72.5360  221.4370 N   0  0  0  0  0  0  0  0  0  0  0  0
  142.5240   73.5890  220.8150 C   0  0  0  0  0  0  0  0  0  0  0  0
  143.8000   73.4240  220.1620 N   0  0  0  0  0  0  0  0  0  0  0  0
  145.0180   73.2870  220.9760 C   0  0  0  0  0  0  0  0  0  0  0  0
  146.2510   73.7640  220.1930 C   0  0  0  0  0  0  0  0  0  0  0  0
  146.3110   73.1060  218.8820 N   0  0  0  0  0  0  0  0  0  0  0  0
  145.1320   73.4620  218.0850 C   0  0  0  0  0  0  0  0  0  0  0  0
  143.8550   72.9610  218.7670 C   0  0  0  0  0  0  0  0  0  0  0  0
  141.9050   74.7990  220.8270 N   0  0  0  0  0  0  0  0  0  0  0  0
  140.0050   77.0120  222.7140 C   0  0  0  0  0  0  0  0  0  0  0  0
  143.1339   81.4241  222.5463 H   0  0  0  0  0  0  0  0  0  0  0  0
  142.2633   80.5797  224.7257 H   0  0  0  0  0  0  0  0  0  0  0  0
  140.8431   78.5310  224.7963 H   0  0  0  0  0  0  0  0  0  0  0  0
  142.5880   80.2286  220.4277 H   0  0  0  0  0  0  0  0  0  0  0  0
  140.8763   78.7225  219.3239 H   0  0  0  0  0  0  0  0  0  0  0  0
  142.0029   77.3970  219.8456 H   0  0  0  0  0  0  0  0  0  0  0  0
  138.9835   77.5714  220.2448 H   0  0  0  0  0  0  0  0  0  0  0  0
  139.9164   76.3235  219.3630 H   0  0  0  0  0  0  0  0  0  0  0  0
  139.1373   71.3265  222.4373 H   0  0  0  0  0  0  0  0  0  0  0  0
  140.8061   70.6802  222.7227 H   0  0  0  0  0  0  0  0  0  0  0  0
  140.4062   72.9124  224.4863 H   0  0  0  0  0  0  0  0  0  0  0  0
  138.9744   71.8200  224.6219 H   0  0  0  0  0  0  0  0  0  0  0  0
  142.4596   71.2167  226.4565 H   0  0  0  0  0  0  0  0  0  0  0  0
  141.3925   72.6684  226.1969 H   0  0  0  0  0  0  0  0  0  0  0  0
  141.1416   71.7662  228.4768 H   0  0  0  0  0  0  0  0  0  0  0  0
  139.6194   71.6153  227.5119 H   0  0  0  0  0  0  0  0  0  0  0  0
  141.4965   69.4815  228.5126 H   0  0  0  0  0  0  0  0  0  0  0  0
  139.6799   69.5192  228.4140 H   0  0  0  0  0  0  0  0  0  0  0  0
  141.7052   68.6641  226.3682 H   0  0  0  0  0  0  0  0  0  0  0  0
  140.0672   68.0046  226.7551 H   0  0  0  0  0  0  0  0  0  0  0  0
  140.0650   69.0640  224.5337 H   0  0  0  0  0  0  0  0  0  0  0  0
  139.0337   69.9927  225.7027 H   0  0  0  0  0  0  0  0  0  0  0  0
  144.9128   73.8929  221.8881 H   0  0  0  0  0  0  0  0  0  0  0  0
  145.1524   72.2266  221.2357 H   0  0  0  0  0  0  0  0  0  0  0  0
  146.1903   74.8529  220.0495 H   0  0  0  0  0  0  0  0  0  0  0  0
  147.1565   73.5076  220.7626 H   0  0  0  0  0  0  0  0  0  0  0  0
  147.1600   73.4710  218.3840 H   0  0  0  0  0  0  0  0  0  0  0  0
  145.0819   74.5559  217.9807 H   0  0  0  0  0  0  0  0  0  0  0  0
  145.2156   72.9912  217.0944 H   0  0  0  0  0  0  0  0  0  0  0  0
  142.9795   73.3456  218.2232 H   0  0  0  0  0  0  0  0  0  0  0  0
  143.8546   71.8610  218.7571 H   0  0  0  0  0  0  0  0  0  0  0  0
  138.9706   77.3502  222.8737 H   0  0  0  0  0  0  0  0  0  0  0  0
  140.3257   76.3675  223.5458 H   0  0  0  0  0  0  0  0  0  0  0  0
  1  2  2  0
  2  3  1  0
  3  4  2  0
  4  5  1  0
  5  6  2  0
  5  7  1  0
  7  8  1  0
  8  9  1  0
  9 10  1  0
 10 11  2  0
 11 12  1  0
 12 13  1  0
 13 14  1  0
 14 15  1  0
 15 16  1  0
 16 17  1  0
 17 18  1  0
 18 19  1  0
 19 20  1  0
 12 21  2  0
 21 22  1  0
 22 23  1  0
 23 24  1  0
 24 25  1  0
 25 26  1  0
 26 27  1  0
 27 28  1  0
 22 29  2  0
  9 30  1  0
  6  1  1  0
 29 10  1  0
 30  4  1  0
 20 15  1  0
 28 23  1  0
  1 31  1  0
  2 32  1  0
  3 33  1  0
  6 34  1  0
  7 35  1  0
  7 36  1  0
  8 37  1  0
  8 38  1  0
 13 39  1  0
 13 40  1  0
 14 41  1  0
 14 42  1  0
 16 43  1  0
 16 44  1  0
 17 45  1  0
 17 46  1  0
 18 47  1  0
 18 48  1  0
 19 49  1  0
 19 50  1  0
 20 51  1  0
 20 52  1  0
 24 53  1  0
 24 54  1  0
 25 55  1  0
 25 56  1  0
 26 57  1  0
 27 58  1  0
 27 59  1  0
 28 60  1  0
 28 61  1  0
 30 62  1  0
 30 63  1  0
M  END
>  <UniqueID>  (72) 
564

>  <SMILES>  (72) 
c1ccc2c(c1)CCN(c1nc(CCN3CCCCC3)nc(N3CCNCC3)n1)C2

>  <Energy>  (72) 
75.38599246996786

>  <Genealogy>  (72) 
c1ccc2c(c1)CCN(c1nc(CCN3CCCCC3)nc(N3CCNCC3)n1)C2 (3D coordinates assigned)
c1ccc2c(c1)CCN(c1nc(CCN3CCCCC3)nc(N3CCNCC3)n1)C2 (nonaromatic ring conformer: 75.38599246996786 kcal/mol)

>  <smiles>  (72) 
c1ccc2c(c1)CCN(c1nc(CCN3CCCCC3)nc(N3CCNCC3)n1)C2

>  <score_type>  (72) 
oracle

>  <origin>  (72) 
autodockgpu

>  <m_score__min__energy>  (72) 
-9.8000000000000007

>  <m_primary>  (72) 
energy

>  <meeko>  (72) 
{"free_energy": -9.65, "intermolecular_energy": -11.14, "internal_energy": -0.91, "cluster_size": 17, "cluster_id": 1, "rank_in_cluster": 11}

>  <energy>  (72) 
-9.65

>  <cluster_rmsd>  (72) 
0.44

>  <rmsd>  (72) 
271.88

>  <cluster>  (72) 
1

$$$$
GZRQFJZYBWHXJG-UHFFFAOYNA-N
     RDKit          3D

 63 67  0  0  0  0  0  0  0  0999 V2000
  142.5180   80.5340  222.6390 C   0  0  0  0  0  0  0  0  0  0  0  0
  141.9370   80.1190  223.8410 C   0  0  0  0  0  0  0  0  0  0  0  0
  141.0590   79.0330  223.8550 C   0  0  0  0  0  0  0  0  0  0  0  0
  140.7580   78.3470  222.6660 C   0  0  0  0  0  0  0  0  0  0  0  0
  141.3240   78.7840  221.4400 C   0  0  0  0  0  0  0  0  0  0  0  0
  142.2190   79.8680  221.4460 C   0  0  0  0  0  0  0  0  0  0  0  0
  141.0620   78.0560  220.1390 C   0  0  0  0  0  0  0  0  0  0  0  0
  139.8100   77.1740  220.2130 C   0  0  0  0  0  0  0  0  0  0  0  0
  139.8370   76.4260  221.4720 N   0  0  0  0  0  0  0  0  0  0  0  0
  140.3660   75.0920  221.4900 C   0  0  0  0  0  0  0  0  0  0  0  0
  139.7570   74.1240  222.2230 N   0  0  0  0  0  0  0  0  0  0  0  0
  140.2810   72.8750  222.2720 C   0  0  0  0  0  0  0  0  0  0  0  0
  139.6830   71.8460  223.1790 C   0  0  0  0  0  0  0  0  0  0  0  0
  140.7190   71.2950  224.1690 C   0  0  0  0  0  0  0  0  0  0  0  0
  140.1550   71.2320  225.5420 N   0  0  0  0  0  0  0  0  0  0  0  0
  139.6600   69.8730  225.9020 C   0  0  0  0  0  0  0  0  0  0  0  0
  140.6350   69.1100  226.8060 C   0  0  0  0  0  0  0  0  0  0  0  0
  140.8690   69.8620  228.1270 C   0  0  0  0  0  0  0  0  0  0  0  0
  140.7420   71.3870  227.9680 C   0  0  0  0  0  0  0  0  0  0  0  0
  141.0850   71.8210  226.5370 C   0  0  0  0  0  0  0  0  0  0  0  0
  141.4190   72.5950  221.5880 N   0  0  0  0  0  0  0  0  0  0  0  0
  142.0350   73.5530  220.8460 C   0  0  0  0  0  0  0  0  0  0  0  0
  143.2410   73.2470  220.1150 N   0  0  0  0  0  0  0  0  0  0  0  0
  143.8530   74.2780  219.2620 C   0  0  0  0  0  0  0  0  0  0  0  0
  144.6660   73.6330  218.1300 C   0  0  0  0  0  0  0  0  0  0  0  0
  145.6090   72.6470  218.6730 N   0  0  0  0  0  0  0  0  0  0  0  0
  144.8770   71.5670  219.3450 C   0  0  0  0  0  0  0  0  0  0  0  0
  144.0850   72.1180  220.5350 C   0  0  0  0  0  0  0  0  0  0  0  0
  141.5050   74.8040  220.8120 N   0  0  0  0  0  0  0  0  0  0  0  0
  139.7610   77.2190  222.7030 C   0  0  0  0  0  0  0  0  0  0  0  0
  143.2125   81.3870  222.6315 H   0  0  0  0  0  0  0  0  0  0  0  0
  142.1716   80.6482  224.7764 H   0  0  0  0  0  0  0  0  0  0  0  0
  140.6004   78.7127  224.8022 H   0  0  0  0  0  0  0  0  0  0  0  0
  142.6874   80.1947  220.5059 H   0  0  0  0  0  0  0  0  0  0  0  0
  140.9261   78.7981  219.3385 H   0  0  0  0  0  0  0  0  0  0  0  0
  141.9242   77.4036  219.9366 H   0  0  0  0  0  0  0  0  0  0  0  0
  138.9098   77.8051  220.1765 H   0  0  0  0  0  0  0  0  0  0  0  0
  139.7918   76.4765  219.3626 H   0  0  0  0  0  0  0  0  0  0  0  0
  138.8579   72.3043  223.7439 H   0  0  0  0  0  0  0  0  0  0  0  0
  139.3200   71.0117  222.5609 H   0  0  0  0  0  0  0  0  0  0  0  0
  141.0162   70.2837  223.8544 H   0  0  0  0  0  0  0  0  0  0  0  0
  141.5911   71.9654  224.1764 H   0  0  0  0  0  0  0  0  0  0  0  0
  138.6993   69.9760  226.4278 H   0  0  0  0  0  0  0  0  0  0  0  0
  139.5530   69.2999  224.9692 H   0  0  0  0  0  0  0  0  0  0  0  0
  140.2175   68.1166  227.0272 H   0  0  0  0  0  0  0  0  0  0  0  0
  141.5975   69.0168  226.2817 H   0  0  0  0  0  0  0  0  0  0  0  0
  140.1262   69.5211  228.8632 H   0  0  0  0  0  0  0  0  0  0  0  0
  141.8955   69.6450  228.4575 H   0  0  0  0  0  0  0  0  0  0  0  0
  139.7091   71.6878  228.1973 H   0  0  0  0  0  0  0  0  0  0  0  0
  141.4470   71.8714  228.6596 H   0  0  0  0  0  0  0  0  0  0  0  0
  141.0252   72.9176  226.4740 H   0  0  0  0  0  0  0  0  0  0  0  0
  142.1002   71.4652  226.3070 H   0  0  0  0  0  0  0  0  0  0  0  0
  143.0601   74.9035  218.8261 H   0  0  0  0  0  0  0  0  0  0  0  0
  144.5278   74.8914  219.8772 H   0  0  0  0  0  0  0  0  0  0  0  0
  143.9799   73.1316  217.4315 H   0  0  0  0  0  0  0  0  0  0  0  0
  145.2326   74.4173  217.6067 H   0  0  0  0  0  0  0  0  0  0  0  0
  146.1310   72.2290  217.8640 H   0  0  0  0  0  0  0  0  0  0  0  0
  144.1815   71.1017  218.6310 H   0  0  0  0  0  0  0  0  0  0  0  0
  145.5981   70.8214  219.7111 H   0  0  0  0  0  0  0  0  0  0  0  0
  143.4463   71.3215  220.9445 H   0  0  0  0  0  0  0  0  0  0  0  0
  144.7924   72.4688  221.3008 H   0  0  0  0  0  0  0  0  0  0  0  0
  138.7476   77.6347  222.8038 H   0  0  0  0  0  0  0  0  0  0  0  0
  139.9911   76.5688  223.5599 H   0  0  0  0  0  0  0  0  0  0  0  0
  1  2  2  0
  2  3  1  0
  3  4  2  0
  4  5  1  0
  5  6  2  0
  5  7  1  0
  7  8  1  0
  8  9  1  0
  9 10  1  0
 10 11  2  0
 11 12  1  0
 12 13  1  0
 13 14  1  0
 14 15  1  0
 15 16  1  0
 16 17  1  0
 17 18  1  0
 18 19  1  0
 19 20  1  0
 12 21  2  0
 21 22  1  0
 22 23  1  0
 23 24  1  0
 24 25  1  0
 25 26  1  0
 26 27  1  0
 27 28  1  0
 22 29  2  0
  9 30  1  0
  6  1  1  0
 29 10  1  0
 30  4  1  0
 20 15  1  0
 28 23  1  0
  1 31  1  0
  2 32  1  0
  3 33  1  0
  6 34  1  0
  7 35  1  0
  7 36  1  0
  8 37  1  0
  8 38  1  0
 13 39  1  0
 13 40  1  0
 14 41  1  0
 14 42  1  0
 16 43  1  0
 16 44  1  0
 17 45  1  0
 17 46  1  0
 18 47  1  0
 18 48  1  0
 19 49  1  0
 19 50  1  0
 20 51  1  0
 20 52  1  0
 24 53  1  0
 24 54  1  0
 25 55  1  0
 25 56  1  0
 26 57  1  0
 27 58  1  0
 27 59  1  0
 28 60  1  0
 28 61  1  0
 30 62  1  0
 30 63  1  0
M  END
>  <UniqueID>  (73) 
564

>  <SMILES>  (73) 
c1ccc2c(c1)CCN(c1nc(CCN3CCCCC3)nc(N3CCNCC3)n1)C2

>  <Energy>  (73) 
75.38599246996786

>  <Genealogy>  (73) 
c1ccc2c(c1)CCN(c1nc(CCN3CCCCC3)nc(N3CCNCC3)n1)C2 (3D coordinates assigned)
c1ccc2c(c1)CCN(c1nc(CCN3CCCCC3)nc(N3CCNCC3)n1)C2 (nonaromatic ring conformer: 75.38599246996786 kcal/mol)

>  <smiles>  (73) 
c1ccc2c(c1)CCN(c1nc(CCN3CCCCC3)nc(N3CCNCC3)n1)C2

>  <score_type>  (73) 
oracle

>  <origin>  (73) 
autodockgpu

>  <m_score__min__energy>  (73) 
-9.8000000000000007

>  <m_primary>  (73) 
energy

>  <meeko>  (73) 
{"free_energy": -9.45, "intermolecular_energy": -10.94, "internal_energy": -0.92, "cluster_size": 17, "cluster_id": 1, "rank_in_cluster": 15}

>  <energy>  (73) 
-9.64

>  <cluster_rmsd>  (73) 
0.44

>  <rmsd>  (73) 
271.87

>  <cluster>  (73) 
1

$$$$
GZRQFJZYBWHXJG-UHFFFAOYNA-N
     RDKit          3D

 63 67  0  0  0  0  0  0  0  0999 V2000
  142.5210   80.8120  222.6150 C   0  0  0  0  0  0  0  0  0  0  0  0
  141.9950   80.3620  223.8290 C   0  0  0  0  0  0  0  0  0  0  0  0
  141.1480   79.2510  223.8550 C   0  0  0  0  0  0  0  0  0  0  0  0
  140.8230   78.5780  222.6650 C   0  0  0  0  0  0  0  0  0  0  0  0
  141.3330   79.0510  221.4280 C   0  0  0  0  0  0  0  0  0  0  0  0
  142.1980   80.1590  221.4210 C   0  0  0  0  0  0  0  0  0  0  0  0
  141.0440   78.3370  220.1240 C   0  0  0  0  0  0  0  0  0  0  0  0
  139.8200   77.4200  220.2270 C   0  0  0  0  0  0  0  0  0  0  0  0
  139.9120   76.6530  221.4710 N   0  0  0  0  0  0  0  0  0  0  0  0
  140.4770   75.3340  221.4460 C   0  0  0  0  0  0  0  0  0  0  0  0
  139.8460   74.3070  222.0730 N   0  0  0  0  0  0  0  0  0  0  0  0
  140.4010   73.0700  222.0840 C   0  0  0  0  0  0  0  0  0  0  0  0
  139.7700   71.9730  222.8810 C   0  0  0  0  0  0  0  0  0  0  0  0
  140.7530   71.3760  223.8980 C   0  0  0  0  0  0  0  0  0  0  0  0
  140.1610   71.3640  225.2600 N   0  0  0  0  0  0  0  0  0  0  0  0
  139.5580   70.0490  225.6170 C   0  0  0  0  0  0  0  0  0  0  0  0
  140.4550   69.2210  226.5440 C   0  0  0  0  0  0  0  0  0  0  0  0
  140.7190   69.9610  227.8660 C   0  0  0  0  0  0  0  0  0  0  0  0
  140.7110   71.4900  227.6970 C   0  0  0  0  0  0  0  0  0  0  0  0
  141.1130   71.8890  226.2710 C   0  0  0  0  0  0  0  0  0  0  0  0
  141.5930   72.8610  221.4690 N   0  0  0  0  0  0  0  0  0  0  0  0
  142.2320   73.8790  220.8330 C   0  0  0  0  0  0  0  0  0  0  0  0
  143.4950   73.6500  220.1750 N   0  0  0  0  0  0  0  0  0  0  0  0
  144.6880   73.3470  220.9810 C   0  0  0  0  0  0  0  0  0  0  0  0
  145.9650   73.7690  220.2380 C   0  0  0  0  0  0  0  0  0  0  0  0
  145.9810   73.2030  218.8840 N   0  0  0  0  0  0  0  0  0  0  0  0
  144.8460   73.7170  218.1100 C   0  0  0  0  0  0  0  0  0  0  0  0
  143.5220   73.2840  218.7500 C   0  0  0  0  0  0  0  0  0  0  0  0
  141.6700   75.1160  220.8360 N   0  0  0  0  0  0  0  0  0  0  0  0
  139.8580   77.4220  222.7170 C   0  0  0  0  0  0  0  0  0  0  0  0
  143.1919   81.6835  222.5984 H   0  0  0  0  0  0  0  0  0  0  0  0
  142.2478   80.8826  224.7644 H   0  0  0  0  0  0  0  0  0  0  0  0
  140.7334   78.9014  224.8120 H   0  0  0  0  0  0  0  0  0  0  0  0
  142.6234   80.5146  220.4709 H   0  0  0  0  0  0  0  0  0  0  0  0
  140.8595   79.0881  219.3418 H   0  0  0  0  0  0  0  0  0  0  0  0
  141.9156   77.7120  219.8799 H   0  0  0  0  0  0  0  0  0  0  0  0
  138.9024   78.0266  220.2330 H   0  0  0  0  0  0  0  0  0  0  0  0
  139.7904   76.7360  219.3660 H   0  0  0  0  0  0  0  0  0  0  0  0
  138.9008   72.3779  223.4200 H   0  0  0  0  0  0  0  0  0  0  0  0
  139.4656   71.1752  222.1875 H   0  0  0  0  0  0  0  0  0  0  0  0
  140.9966   70.3451  223.6016 H   0  0  0  0  0  0  0  0  0  0  0  0
  141.6622   71.9949  223.9144 H   0  0  0  0  0  0  0  0  0  0  0  0
  138.5978   70.2276  226.1232 H   0  0  0  0  0  0  0  0  0  0  0  0
  139.4259   69.4793  224.6853 H   0  0  0  0  0  0  0  0  0  0  0  0
  139.9599   68.2631  226.7613 H   0  0  0  0  0  0  0  0  0  0  0  0
  141.4180   69.0532  226.0395 H   0  0  0  0  0  0  0  0  0  0  0  0
  139.9380   69.6819  228.5886 H   0  0  0  0  0  0  0  0  0  0  0  0
  141.7192   69.6689  228.2186 H   0  0  0  0  0  0  0  0  0  0  0  0
  139.6996   71.8694  227.9048 H   0  0  0  0  0  0  0  0  0  0  0  0
  141.4378   71.9235  228.3997 H   0  0  0  0  0  0  0  0  0  0  0  0
  141.1357   72.9866  226.2019 H   0  0  0  0  0  0  0  0  0  0  0  0
  142.1034   71.4580  226.0628 H   0  0  0  0  0  0  0  0  0  0  0  0
  144.6279   73.8921  221.9346 H   0  0  0  0  0  0  0  0  0  0  0  0
  144.7262   72.2630  221.1637 H   0  0  0  0  0  0  0  0  0  0  0  0
  146.0000   74.8665  220.1723 H   0  0  0  0  0  0  0  0  0  0  0  0
  146.8392   73.3949  220.7910 H   0  0  0  0  0  0  0  0  0  0  0  0
  146.8640   73.5260  218.4160 H   0  0  0  0  0  0  0  0  0  0  0  0
  144.8934   74.8157  218.0835 H   0  0  0  0  0  0  0  0  0  0  0  0
  144.8979   73.3113  217.0889 H   0  0  0  0  0  0  0  0  0  0  0  0
  142.6894   73.7827  218.2322 H   0  0  0  0  0  0  0  0  0  0  0  0
  143.4240   72.1920  218.6610 H   0  0  0  0  0  0  0  0  0  0  0  0
  138.8380   77.8079  222.8604 H   0  0  0  0  0  0  0  0  0  0  0  0
  140.1353   76.7641  223.5538 H   0  0  0  0  0  0  0  0  0  0  0  0
  1  2  2  0
  2  3  1  0
  3  4  2  0
  4  5  1  0
  5  6  2  0
  5  7  1  0
  7  8  1  0
  8  9  1  0
  9 10  1  0
 10 11  2  0
 11 12  1  0
 12 13  1  0
 13 14  1  0
 14 15  1  0
 15 16  1  0
 16 17  1  0
 17 18  1  0
 18 19  1  0
 19 20  1  0
 12 21  2  0
 21 22  1  0
 22 23  1  0
 23 24  1  0
 24 25  1  0
 25 26  1  0
 26 27  1  0
 27 28  1  0
 22 29  2  0
  9 30  1  0
  6  1  1  0
 29 10  1  0
 30  4  1  0
 20 15  1  0
 28 23  1  0
  1 31  1  0
  2 32  1  0
  3 33  1  0
  6 34  1  0
  7 35  1  0
  7 36  1  0
  8 37  1  0
  8 38  1  0
 13 39  1  0
 13 40  1  0
 14 41  1  0
 14 42  1  0
 16 43  1  0
 16 44  1  0
 17 45  1  0
 17 46  1  0
 18 47  1  0
 18 48  1  0
 19 49  1  0
 19 50  1  0
 20 51  1  0
 20 52  1  0
 24 53  1  0
 24 54  1  0
 25 55  1  0
 25 56  1  0
 26 57  1  0
 27 58  1  0
 27 59  1  0
 28 60  1  0
 28 61  1  0
 30 62  1  0
 30 63  1  0
M  END
>  <UniqueID>  (74) 
564

>  <SMILES>  (74) 
c1ccc2c(c1)CCN(c1nc(CCN3CCCCC3)nc(N3CCNCC3)n1)C2

>  <Energy>  (74) 
75.38599246996786

>  <Genealogy>  (74) 
c1ccc2c(c1)CCN(c1nc(CCN3CCCCC3)nc(N3CCNCC3)n1)C2 (3D coordinates assigned)
c1ccc2c(c1)CCN(c1nc(CCN3CCCCC3)nc(N3CCNCC3)n1)C2 (nonaromatic ring conformer: 75.38599246996786 kcal/mol)

>  <smiles>  (74) 
c1ccc2c(c1)CCN(c1nc(CCN3CCCCC3)nc(N3CCNCC3)n1)C2

>  <score_type>  (74) 
oracle

>  <origin>  (74) 
autodockgpu

>  <m_score__min__energy>  (74) 
-9.8000000000000007

>  <m_primary>  (74) 
energy

>  <meeko>  (74) 
{"free_energy": -9.79, "intermolecular_energy": -11.28, "internal_energy": -0.9, "cluster_size": 17, "cluster_id": 1, "rank_in_cluster": 5}

>  <energy>  (74) 
-9.48

>  <cluster_rmsd>  (74) 
0.51

>  <rmsd>  (74) 
271.73

>  <cluster>  (74) 
1

$$$$
GZRQFJZYBWHXJG-UHFFFAOYNA-N
     RDKit          3D

 63 67  0  0  0  0  0  0  0  0999 V2000
  142.5220   80.5110  222.5100 C   0  0  0  0  0  0  0  0  0  0  0  0
  142.0700   80.0410  223.7460 C   0  0  0  0  0  0  0  0  0  0  0  0
  141.2790   78.8910  223.8090 C   0  0  0  0  0  0  0  0  0  0  0  0
  140.9380   78.1980  222.6350 C   0  0  0  0  0  0  0  0  0  0  0  0
  141.3730   78.6910  221.3770 C   0  0  0  0  0  0  0  0  0  0  0  0
  142.1820   79.8380  221.3320 C   0  0  0  0  0  0  0  0  0  0  0  0
  141.0650   77.9590  220.0870 C   0  0  0  0  0  0  0  0  0  0  0  0
  139.8920   76.9840  220.2420 C   0  0  0  0  0  0  0  0  0  0  0  0
  140.0730   76.2270  221.4830 N   0  0  0  0  0  0  0  0  0  0  0  0
  140.6990   74.9370  221.4370 C   0  0  0  0  0  0  0  0  0  0  0  0
  140.1100   73.8680  222.0350 N   0  0  0  0  0  0  0  0  0  0  0  0
  140.7230   72.6590  222.0270 C   0  0  0  0  0  0  0  0  0  0  0  0
  140.1360   71.5160  222.7930 C   0  0  0  0  0  0  0  0  0  0  0  0
  139.9860   71.8550  224.2840 C   0  0  0  0  0  0  0  0  0  0  0  0
  140.7530   70.8980  225.1220 N   0  0  0  0  0  0  0  0  0  0  0  0
  141.4320   71.5540  226.2750 C   0  0  0  0  0  0  0  0  0  0  0  0
  140.6870   71.3410  227.5980 C   0  0  0  0  0  0  0  0  0  0  0  0
  140.5790   69.8450  227.9380 C   0  0  0  0  0  0  0  0  0  0  0  0
  140.5240   68.9570  226.6840 C   0  0  0  0  0  0  0  0  0  0  0  0
  139.9280   69.7210  225.4940 C   0  0  0  0  0  0  0  0  0  0  0  0
  141.9290   72.5190  221.4200 N   0  0  0  0  0  0  0  0  0  0  0  0
  142.5260   73.5790  220.8130 C   0  0  0  0  0  0  0  0  0  0  0  0
  143.8050   73.4230  220.1640 N   0  0  0  0  0  0  0  0  0  0  0  0
  145.0160   73.2480  220.9810 C   0  0  0  0  0  0  0  0  0  0  0  0
  146.2580   73.7380  220.2220 C   0  0  0  0  0  0  0  0  0  0  0  0
  146.3220   73.1200  218.8910 N   0  0  0  0  0  0  0  0  0  0  0  0
  145.1520   73.5120  218.0980 C   0  0  0  0  0  0  0  0  0  0  0  0
  143.8650   73.0030  218.7560 C   0  0  0  0  0  0  0  0  0  0  0  0
  141.9060   74.7880  220.8360 N   0  0  0  0  0  0  0  0  0  0  0  0
  140.0330   76.9970  222.7280 C   0  0  0  0  0  0  0  0  0  0  0  0
  143.1480   81.4143  222.4633 H   0  0  0  0  0  0  0  0  0  0  0  0
  142.3369   80.5763  224.6691 H   0  0  0  0  0  0  0  0  0  0  0  0
  140.9212   78.5260  224.7830 H   0  0  0  0  0  0  0  0  0  0  0  0
  142.5505   80.2094  220.3644 H   0  0  0  0  0  0  0  0  0  0  0  0
  140.8121   78.6975  219.3120 H   0  0  0  0  0  0  0  0  0  0  0  0
  141.9550   77.3759  219.8081 H   0  0  0  0  0  0  0  0  0  0  0  0
  138.9470   77.5453  220.2850 H   0  0  0  0  0  0  0  0  0  0  0  0
  139.8597   76.2962  219.3841 H   0  0  0  0  0  0  0  0  0  0  0  0
  139.1448   71.2797  222.3787 H   0  0  0  0  0  0  0  0  0  0  0  0
  140.8142   70.6548  222.7015 H   0  0  0  0  0  0  0  0  0  0  0  0
  140.3629   72.8729  224.4621 H   0  0  0  0  0  0  0  0  0  0  0  0
  138.9222   71.7878  224.5557 H   0  0  0  0  0  0  0  0  0  0  0  0
  142.4455   71.1371  226.3705 H   0  0  0  0  0  0  0  0  0  0  0  0
  141.4548   72.6357  226.0763 H   0  0  0  0  0  0  0  0  0  0  0  0
  141.2321   71.8541  228.4039 H   0  0  0  0  0  0  0  0  0  0  0  0
  139.6711   71.7505  227.4967 H   0  0  0  0  0  0  0  0  0  0  0  0
  141.4552   69.5555  228.5368 H   0  0  0  0  0  0  0  0  0  0  0  0
  139.6413   69.6961  228.4935 H   0  0  0  0  0  0  0  0  0  0  0  0
  141.5434   68.6320  226.4285 H   0  0  0  0  0  0  0  0  0  0  0  0
  139.8844   68.0880  226.8980 H   0  0  0  0  0  0  0  0  0  0  0  0
  139.8669   69.0424  224.6304 H   0  0  0  0  0  0  0  0  0  0  0  0
  138.9309   70.0824  225.7860 H   0  0  0  0  0  0  0  0  0  0  0  0
  144.9104   73.8251  221.9115 H   0  0  0  0  0  0  0  0  0  0  0  0
  145.1387   72.1785  221.2072 H   0  0  0  0  0  0  0  0  0  0  0  0
  146.2075   74.8313  220.1119 H   0  0  0  0  0  0  0  0  0  0  0  0
  147.1571   73.4563  220.7897 H   0  0  0  0  0  0  0  0  0  0  0  0
  147.1780   73.4920  218.4110 H   0  0  0  0  0  0  0  0  0  0  0  0
  145.1133   74.6090  218.0272 H   0  0  0  0  0  0  0  0  0  0  0  0
  145.2377   73.0709  217.0940 H   0  0  0  0  0  0  0  0  0  0  0  0
  142.9972   73.4131  218.2187 H   0  0  0  0  0  0  0  0  0  0  0  0
  143.8538   71.9039  218.7120 H   0  0  0  0  0  0  0  0  0  0  0  0
  139.0022   77.3339  222.9123 H   0  0  0  0  0  0  0  0  0  0  0  0
  140.3759   76.3563  223.5537 H   0  0  0  0  0  0  0  0  0  0  0  0
  1  2  2  0
  2  3  1  0
  3  4  2  0
  4  5  1  0
  5  6  2  0
  5  7  1  0
  7  8  1  0
  8  9  1  0
  9 10  1  0
 10 11  2  0
 11 12  1  0
 12 13  1  0
 13 14  1  0
 14 15  1  0
 15 16  1  0
 16 17  1  0
 17 18  1  0
 18 19  1  0
 19 20  1  0
 12 21  2  0
 21 22  1  0
 22 23  1  0
 23 24  1  0
 24 25  1  0
 25 26  1  0
 26 27  1  0
 27 28  1  0
 22 29  2  0
  9 30  1  0
  6  1  1  0
 29 10  1  0
 30  4  1  0
 20 15  1  0
 28 23  1  0
  1 31  1  0
  2 32  1  0
  3 33  1  0
  6 34  1  0
  7 35  1  0
  7 36  1  0
  8 37  1  0
  8 38  1  0
 13 39  1  0
 13 40  1  0
 14 41  1  0
 14 42  1  0
 16 43  1  0
 16 44  1  0
 17 45  1  0
 17 46  1  0
 18 47  1  0
 18 48  1  0
 19 49  1  0
 19 50  1  0
 20 51  1  0
 20 52  1  0
 24 53  1  0
 24 54  1  0
 25 55  1  0
 25 56  1  0
 26 57  1  0
 27 58  1  0
 27 59  1  0
 28 60  1  0
 28 61  1  0
 30 62  1  0
 30 63  1  0
M  END
>  <UniqueID>  (75) 
564

>  <SMILES>  (75) 
c1ccc2c(c1)CCN(c1nc(CCN3CCCCC3)nc(N3CCNCC3)n1)C2

>  <Energy>  (75) 
75.38599246996786

>  <Genealogy>  (75) 
c1ccc2c(c1)CCN(c1nc(CCN3CCCCC3)nc(N3CCNCC3)n1)C2 (3D coordinates assigned)
c1ccc2c(c1)CCN(c1nc(CCN3CCCCC3)nc(N3CCNCC3)n1)C2 (nonaromatic ring conformer: 75.38599246996786 kcal/mol)

>  <smiles>  (75) 
c1ccc2c(c1)CCN(c1nc(CCN3CCCCC3)nc(N3CCNCC3)n1)C2

>  <score_type>  (75) 
oracle

>  <origin>  (75) 
autodockgpu

>  <m_score__min__energy>  (75) 
-9.8000000000000007

>  <m_primary>  (75) 
energy

>  <meeko>  (75) 
{"free_energy": -9.64, "intermolecular_energy": -11.13, "internal_energy": -0.91, "cluster_size": 17, "cluster_id": 1, "rank_in_cluster": 13}

>  <energy>  (75) 
-9.45

>  <cluster_rmsd>  (75) 
0.65

>  <rmsd>  (75) 
271.75

>  <cluster>  (75) 
1

$$$$
GZRQFJZYBWHXJG-UHFFFAOYNA-N
     RDKit          3D

 63 67  0  0  0  0  0  0  0  0999 V2000
  142.2010   80.3320  222.0230 C   0  0  0  0  0  0  0  0  0  0  0  0
  141.9380   79.9030  223.3260 C   0  0  0  0  0  0  0  0  0  0  0  0
  141.2330   78.7160  223.5430 C   0  0  0  0  0  0  0  0  0  0  0  0
  140.7890   77.9450  222.4550 C   0  0  0  0  0  0  0  0  0  0  0  0
  141.0300   78.3940  221.1300 C   0  0  0  0  0  0  0  0  0  0  0  0
  141.7560   79.5810  220.9300 C   0  0  0  0  0  0  0  0  0  0  0  0
  140.6080   77.5800  219.9250 C   0  0  0  0  0  0  0  0  0  0  0  0
  139.5250   76.5520  220.2740 C   0  0  0  0  0  0  0  0  0  0  0  0
  139.9070   75.8720  221.5140 N   0  0  0  0  0  0  0  0  0  0  0  0
  140.5990   74.6170  221.4460 C   0  0  0  0  0  0  0  0  0  0  0  0
  140.0660   73.5080  222.0210 N   0  0  0  0  0  0  0  0  0  0  0  0
  140.7410   72.3330  221.9920 C   0  0  0  0  0  0  0  0  0  0  0  0
  140.2120   71.1470  222.7350 C   0  0  0  0  0  0  0  0  0  0  0  0
  139.0100   71.5210  223.6120 C   0  0  0  0  0  0  0  0  0  0  0  0
  139.2630   71.1690  225.0330 N   0  0  0  0  0  0  0  0  0  0  0  0
  138.8120   69.7900  225.3760 C   0  0  0  0  0  0  0  0  0  0  0  0
  139.9700   68.7890  225.4430 C   0  0  0  0  0  0  0  0  0  0  0  0
  140.9960   69.2000  226.5120 C   0  0  0  0  0  0  0  0  0  0  0  0
  141.0690   70.7240  226.7060 C   0  0  0  0  0  0  0  0  0  0  0  0
  140.6650   71.4620  225.4230 C   0  0  0  0  0  0  0  0  0  0  0  0
  141.9550   72.2680  221.3880 N   0  0  0  0  0  0  0  0  0  0  0  0
  142.4970   73.3690  220.8030 C   0  0  0  0  0  0  0  0  0  0  0  0
  143.7850   73.2920  220.1560 N   0  0  0  0  0  0  0  0  0  0  0  0
  145.0020   73.1770  220.9750 C   0  0  0  0  0  0  0  0  0  0  0  0
  146.2160   73.7450  220.2240 C   0  0  0  0  0  0  0  0  0  0  0  0
  146.3170   73.1460  218.8870 N   0  0  0  0  0  0  0  0  0  0  0  0
  145.1290   73.4800  218.0940 C   0  0  0  0  0  0  0  0  0  0  0  0
  143.8710   72.8920  218.7430 C   0  0  0  0  0  0  0  0  0  0  0  0
  141.8150   74.5440  220.8460 N   0  0  0  0  0  0  0  0  0  0  0  0
  139.9780   76.7030  222.7180 C   0  0  0  0  0  0  0  0  0  0  0  0
  142.7604   81.2643  221.8557 H   0  0  0  0  0  0  0  0  0  0  0  0
  142.2860   80.4999  224.1819 H   0  0  0  0  0  0  0  0  0  0  0  0
  141.0245   78.3834  224.5706 H   0  0  0  0  0  0  0  0  0  0  0  0
  141.9756   79.9215  219.9073 H   0  0  0  0  0  0  0  0  0  0  0  0
  140.2154   78.2618  219.1562 H   0  0  0  0  0  0  0  0  0  0  0  0
  141.4897   77.0327  219.5603 H   0  0  0  0  0  0  0  0  0  0  0  0
  138.5608   77.0627  220.4135 H   0  0  0  0  0  0  0  0  0  0  0  0
  139.4262   75.8195  219.4593 H   0  0  0  0  0  0  0  0  0  0  0  0
  139.9002   70.3811  222.0096 H   0  0  0  0  0  0  0  0  0  0  0  0
  141.0103   70.7663  223.3891 H   0  0  0  0  0  0  0  0  0  0  0  0
  138.8307   72.6036  223.5352 H   0  0  0  0  0  0  0  0  0  0  0  0
  138.1304   70.9610  223.2616 H   0  0  0  0  0  0  0  0  0  0  0  0
  138.3126   69.8165  226.3557 H   0  0  0  0  0  0  0  0  0  0  0  0
  138.1295   69.4560  224.5806 H   0  0  0  0  0  0  0  0  0  0  0  0
  139.5712   67.7944  225.6914 H   0  0  0  0  0  0  0  0  0  0  0  0
  140.4729   68.7707  224.4649 H   0  0  0  0  0  0  0  0  0  0  0  0
  140.7133   68.7361  227.4685 H   0  0  0  0  0  0  0  0  0  0  0  0
  141.9854   68.8593  226.1729 H   0  0  0  0  0  0  0  0  0  0  0  0
  140.3877   71.0161  227.5187 H   0  0  0  0  0  0  0  0  0  0  0  0
  142.1053   70.9961  226.9551 H   0  0  0  0  0  0  0  0  0  0  0  0
  140.7693   72.5446  225.5878 H   0  0  0  0  0  0  0  0  0  0  0  0
  141.3231   71.1188  224.6111 H   0  0  0  0  0  0  0  0  0  0  0  0
  144.8618   73.7372  221.9112 H   0  0  0  0  0  0  0  0  0  0  0  0
  145.1846   72.1139  221.1908 H   0  0  0  0  0  0  0  0  0  0  0  0
  146.1038   74.8348  220.1254 H   0  0  0  0  0  0  0  0  0  0  0  0
  147.1287   73.5087  220.7907 H   0  0  0  0  0  0  0  0  0  0  0  0
  147.1520   73.5710  218.4130 H   0  0  0  0  0  0  0  0  0  0  0  0
  145.0287   74.5738  218.0344 H   0  0  0  0  0  0  0  0  0  0  0  0
  145.2421   73.0554  217.0855 H   0  0  0  0  0  0  0  0  0  0  0  0
  142.9826   73.2590  218.2082 H   0  0  0  0  0  0  0  0  0  0  0  0
  143.9214   71.7946  218.6864 H   0  0  0  0  0  0  0  0  0  0  0  0
  138.9602   76.9923  223.0187 H   0  0  0  0  0  0  0  0  0  0  0  0
  140.4610   76.1261  223.5204 H   0  0  0  0  0  0  0  0  0  0  0  0
  1  2  2  0
  2  3  1  0
  3  4  2  0
  4  5  1  0
  5  6  2  0
  5  7  1  0
  7  8  1  0
  8  9  1  0
  9 10  1  0
 10 11  2  0
 11 12  1  0
 12 13  1  0
 13 14  1  0
 14 15  1  0
 15 16  1  0
 16 17  1  0
 17 18  1  0
 18 19  1  0
 19 20  1  0
 12 21  2  0
 21 22  1  0
 22 23  1  0
 23 24  1  0
 24 25  1  0
 25 26  1  0
 26 27  1  0
 27 28  1  0
 22 29  2  0
  9 30  1  0
  6  1  1  0
 29 10  1  0
 30  4  1  0
 20 15  1  0
 28 23  1  0
  1 31  1  0
  2 32  1  0
  3 33  1  0
  6 34  1  0
  7 35  1  0
  7 36  1  0
  8 37  1  0
  8 38  1  0
 13 39  1  0
 13 40  1  0
 14 41  1  0
 14 42  1  0
 16 43  1  0
 16 44  1  0
 17 45  1  0
 17 46  1  0
 18 47  1  0
 18 48  1  0
 19 49  1  0
 19 50  1  0
 20 51  1  0
 20 52  1  0
 24 53  1  0
 24 54  1  0
 25 55  1  0
 25 56  1  0
 26 57  1  0
 27 58  1  0
 27 59  1  0
 28 60  1  0
 28 61  1  0
 30 62  1  0
 30 63  1  0
M  END
>  <UniqueID>  (76) 
564

>  <SMILES>  (76) 
c1ccc2c(c1)CCN(c1nc(CCN3CCCCC3)nc(N3CCNCC3)n1)C2

>  <Energy>  (76) 
75.38599246996786

>  <Genealogy>  (76) 
c1ccc2c(c1)CCN(c1nc(CCN3CCCCC3)nc(N3CCNCC3)n1)C2 (3D coordinates assigned)
c1ccc2c(c1)CCN(c1nc(CCN3CCCCC3)nc(N3CCNCC3)n1)C2 (nonaromatic ring conformer: 75.38599246996786 kcal/mol)

>  <smiles>  (76) 
c1ccc2c(c1)CCN(c1nc(CCN3CCCCC3)nc(N3CCNCC3)n1)C2

>  <score_type>  (76) 
oracle

>  <origin>  (76) 
autodockgpu

>  <m_score__min__energy>  (76) 
-9.8000000000000007

>  <m_primary>  (76) 
energy

>  <meeko>  (76) 
{"free_energy": -8.66, "intermolecular_energy": -10.15, "internal_energy": -1.04, "cluster_size": 17, "cluster_id": 1, "rank_in_cluster": 17}

>  <energy>  (76) 
-9.43

>  <cluster_rmsd>  (76) 
0.65

>  <rmsd>  (76) 
271.73

>  <cluster>  (76) 
1

$$$$
GZRQFJZYBWHXJG-UHFFFAOYNA-N
     RDKit          3D

 63 67  0  0  0  0  0  0  0  0999 V2000
  142.4590   80.6330  222.6600 C   0  0  0  0  0  0  0  0  0  0  0  0
  141.8410   80.2440  223.8510 C   0  0  0  0  0  0  0  0  0  0  0  0
  140.9680   79.1530  223.8620 C   0  0  0  0  0  0  0  0  0  0  0  0
  140.7090   78.4390  222.6800 C   0  0  0  0  0  0  0  0  0  0  0  0
  141.3120   78.8510  221.4630 C   0  0  0  0  0  0  0  0  0  0  0  0
  142.2020   79.9380  221.4730 C   0  0  0  0  0  0  0  0  0  0  0  0
  141.0960   78.0910  220.1710 C   0  0  0  0  0  0  0  0  0  0  0  0
  139.8450   77.2050  220.2260 C   0  0  0  0  0  0  0  0  0  0  0  0
  139.8350   76.4870  221.5020 N   0  0  0  0  0  0  0  0  0  0  0  0
  140.3680   75.1560  221.5680 C   0  0  0  0  0  0  0  0  0  0  0  0
  139.6800   74.1740  222.2060 N   0  0  0  0  0  0  0  0  0  0  0  0
  140.2050   72.9270  222.3030 C   0  0  0  0  0  0  0  0  0  0  0  0
  139.5060   71.8820  223.1140 C   0  0  0  0  0  0  0  0  0  0  0  0
  140.4850   71.1250  224.0230 C   0  0  0  0  0  0  0  0  0  0  0  0
  140.0280   71.1600  225.4360 N   0  0  0  0  0  0  0  0  0  0  0  0
  139.5330   69.8390  225.9170 C   0  0  0  0  0  0  0  0  0  0  0  0
  140.5580   69.1070  226.7910 C   0  0  0  0  0  0  0  0  0  0  0  0
  140.9100   69.9310  228.0400 C   0  0  0  0  0  0  0  0  0  0  0  0
  140.8050   71.4460  227.7970 C   0  0  0  0  0  0  0  0  0  0  0  0
  141.0450   71.7840  226.3190 C   0  0  0  0  0  0  0  0  0  0  0  0
  141.4210   72.6640  221.7630 N   0  0  0  0  0  0  0  0  0  0  0  0
  142.1170   73.6370  221.1170 C   0  0  0  0  0  0  0  0  0  0  0  0
  143.4080   73.3490  220.5390 N   0  0  0  0  0  0  0  0  0  0  0  0
  143.5600   72.1890  219.6470 C   0  0  0  0  0  0  0  0  0  0  0  0
  145.0090   71.6780  219.6650 C   0  0  0  0  0  0  0  0  0  0  0  0
  145.9440   72.7790  219.4040 N   0  0  0  0  0  0  0  0  0  0  0  0
  145.8340   73.7940  220.4590 C   0  0  0  0  0  0  0  0  0  0  0  0
  144.4290   74.4060  220.4670 C   0  0  0  0  0  0  0  0  0  0  0  0
  141.5860   74.8850  221.0330 N   0  0  0  0  0  0  0  0  0  0  0  0
  139.7150   77.3070  222.7100 C   0  0  0  0  0  0  0  0  0  0  0  0
  143.1501   81.4887  222.6553 H   0  0  0  0  0  0  0  0  0  0  0  0
  142.0417   80.7968  224.7806 H   0  0  0  0  0  0  0  0  0  0  0  0
  140.4809   78.8515  224.8011 H   0  0  0  0  0  0  0  0  0  0  0  0
  142.7001   80.2448  220.5415 H   0  0  0  0  0  0  0  0  0  0  0  0
  140.9834   78.8133  219.3490 H   0  0  0  0  0  0  0  0  0  0  0  0
  141.9670   77.4384  220.0118 H   0  0  0  0  0  0  0  0  0  0  0  0
  138.9440   77.8310  220.1463 H   0  0  0  0  0  0  0  0  0  0  0  0
  139.8563   76.4878  219.3920 H   0  0  0  0  0  0  0  0  0  0  0  0
  138.7410   72.3668  223.7383 H   0  0  0  0  0  0  0  0  0  0  0  0
  139.0480   71.1589  222.4231 H   0  0  0  0  0  0  0  0  0  0  0  0
  140.5497   70.0784  223.6908 H   0  0  0  0  0  0  0  0  0  0  0  0
  141.4709   71.6087  223.9594 H   0  0  0  0  0  0  0  0  0  0  0  0
  138.6181   69.9991  226.5064 H   0  0  0  0  0  0  0  0  0  0  0  0
  139.3422   69.2131  225.0328 H   0  0  0  0  0  0  0  0  0  0  0  0
  140.1370   68.1405  227.1052 H   0  0  0  0  0  0  0  0  0  0  0  0
  141.4749   68.9566  226.2022 H   0  0  0  0  0  0  0  0  0  0  0  0
  140.2191   69.6553  228.8504 H   0  0  0  0  0  0  0  0  0  0  0  0
  141.9542   69.7071  228.3039 H   0  0  0  0  0  0  0  0  0  0  0  0
  139.8001   71.7878  228.0856 H   0  0  0  0  0  0  0  0  0  0  0  0
  141.5724   71.9519  228.4013 H   0  0  0  0  0  0  0  0  0  0  0  0
  141.0036   72.8759  226.1927 H   0  0  0  0  0  0  0  0  0  0  0  0
  142.0315   71.3889  226.0349 H   0  0  0  0  0  0  0  0  0  0  0  0
  142.8890   71.3846  219.9827 H   0  0  0  0  0  0  0  0  0  0  0  0
  143.3049   72.4948  218.6216 H   0  0  0  0  0  0  0  0  0  0  0  0
  145.2276   71.2432  220.6515 H   0  0  0  0  0  0  0  0  0  0  0  0
  145.1280   70.9159  218.8808 H   0  0  0  0  0  0  0  0  0  0  0  0
  146.9160   72.3830  219.4370 H   0  0  0  0  0  0  0  0  0  0  0  0
  146.0309   73.3256  221.4346 H   0  0  0  0  0  0  0  0  0  0  0  0
  146.5688   74.5897  220.2667 H   0  0  0  0  0  0  0  0  0  0  0  0
  144.3272   75.0679  221.3396 H   0  0  0  0  0  0  0  0  0  0  0  0
  144.2844   74.9782  219.5387 H   0  0  0  0  0  0  0  0  0  0  0  0
  138.6972   77.7203  222.7674 H   0  0  0  0  0  0  0  0  0  0  0  0
  139.9187   76.6777  223.5889 H   0  0  0  0  0  0  0  0  0  0  0  0
  1  2  2  0
  2  3  1  0
  3  4  2  0
  4  5  1  0
  5  6  2  0
  5  7  1  0
  7  8  1  0
  8  9  1  0
  9 10  1  0
 10 11  2  0
 11 12  1  0
 12 13  1  0
 13 14  1  0
 14 15  1  0
 15 16  1  0
 16 17  1  0
 17 18  1  0
 18 19  1  0
 19 20  1  0
 12 21  2  0
 21 22  1  0
 22 23  1  0
 23 24  1  0
 24 25  1  0
 25 26  1  0
 26 27  1  0
 27 28  1  0
 22 29  2  0
  9 30  1  0
  6  1  1  0
 29 10  1  0
 30  4  1  0
 20 15  1  0
 28 23  1  0
  1 31  1  0
  2 32  1  0
  3 33  1  0
  6 34  1  0
  7 35  1  0
  7 36  1  0
  8 37  1  0
  8 38  1  0
 13 39  1  0
 13 40  1  0
 14 41  1  0
 14 42  1  0
 16 43  1  0
 16 44  1  0
 17 45  1  0
 17 46  1  0
 18 47  1  0
 18 48  1  0
 19 49  1  0
 19 50  1  0
 20 51  1  0
 20 52  1  0
 24 53  1  0
 24 54  1  0
 25 55  1  0
 25 56  1  0
 26 57  1  0
 27 58  1  0
 27 59  1  0
 28 60  1  0
 28 61  1  0
 30 62  1  0
 30 63  1  0
M  END
>  <UniqueID>  (77) 
564

>  <SMILES>  (77) 
c1ccc2c(c1)CCN(c1nc(CCN3CCCCC3)nc(N3CCNCC3)n1)C2

>  <Energy>  (77) 
75.38599246996786

>  <Genealogy>  (77) 
c1ccc2c(c1)CCN(c1nc(CCN3CCCCC3)nc(N3CCNCC3)n1)C2 (3D coordinates assigned)
c1ccc2c(c1)CCN(c1nc(CCN3CCCCC3)nc(N3CCNCC3)n1)C2 (nonaromatic ring conformer: 75.38599246996786 kcal/mol)

>  <smiles>  (77) 
c1ccc2c(c1)CCN(c1nc(CCN3CCCCC3)nc(N3CCNCC3)n1)C2

>  <score_type>  (77) 
oracle

>  <origin>  (77) 
autodockgpu

>  <m_score__min__energy>  (77) 
-9.8000000000000007

>  <m_primary>  (77) 
energy

>  <meeko>  (77) 
{"free_energy": -9.68, "intermolecular_energy": -11.17, "internal_energy": -0.93, "cluster_size": 17, "cluster_id": 1, "rank_in_cluster": 10}

>  <energy>  (77) 
-8.66

>  <cluster_rmsd>  (77) 
0.76

>  <rmsd>  (77) 
271.5

>  <cluster>  (77) 
1

$$$$
GZRQFJZYBWHXJG-UHFFFAOYNA-N
     RDKit          3D

 63 67  0  0  0  0  0  0  0  0999 V2000
  142.4770   80.7950  222.6330 C   0  0  0  0  0  0  0  0  0  0  0  0
  141.9430   80.3460  223.8440 C   0  0  0  0  0  0  0  0  0  0  0  0
  141.1040   79.2290  223.8660 C   0  0  0  0  0  0  0  0  0  0  0  0
  140.7970   78.5470  222.6760 C   0  0  0  0  0  0  0  0  0  0  0  0
  141.3160   79.0190  221.4420 C   0  0  0  0  0  0  0  0  0  0  0  0
  142.1710   80.1330  221.4390 C   0  0  0  0  0  0  0  0  0  0  0  0
  141.0460   78.2970  220.1380 C   0  0  0  0  0  0  0  0  0  0  0  0
  139.8280   77.3700  220.2330 C   0  0  0  0  0  0  0  0  0  0  0  0
  139.9140   76.6100  221.4820 N   0  0  0  0  0  0  0  0  0  0  0  0
  140.4890   75.2950  221.4690 C   0  0  0  0  0  0  0  0  0  0  0  0
  139.8790   74.2740  222.1260 N   0  0  0  0  0  0  0  0  0  0  0  0
  140.4450   73.0420  222.1470 C   0  0  0  0  0  0  0  0  0  0  0  0
  139.8390   71.9540  222.9750 C   0  0  0  0  0  0  0  0  0  0  0  0
  140.8230   71.4340  224.0330 C   0  0  0  0  0  0  0  0  0  0  0  0
  140.1800   71.3840  225.3710 N   0  0  0  0  0  0  0  0  0  0  0  0
  139.5780   70.0540  225.6740 C   0  0  0  0  0  0  0  0  0  0  0  0
  140.4490   69.2120  226.6130 C   0  0  0  0  0  0  0  0  0  0  0  0
  140.6570   69.9220  227.9610 C   0  0  0  0  0  0  0  0  0  0  0  0
  140.6390   71.4550  227.8300 C   0  0  0  0  0  0  0  0  0  0  0  0
  141.0890   71.8920  226.4290 C   0  0  0  0  0  0  0  0  0  0  0  0
  141.6270   72.8330  221.5130 N   0  0  0  0  0  0  0  0  0  0  0  0
  142.2440   73.8450  220.8480 C   0  0  0  0  0  0  0  0  0  0  0  0
  143.4970   73.6140  220.1690 N   0  0  0  0  0  0  0  0  0  0  0  0
  144.6980   73.2900  220.9550 C   0  0  0  0  0  0  0  0  0  0  0  0
  145.9690   73.7110  220.2020 C   0  0  0  0  0  0  0  0  0  0  0  0
  145.9620   73.1650  218.8390 N   0  0  0  0  0  0  0  0  0  0  0  0
  144.8210   73.7010  218.0880 C   0  0  0  0  0  0  0  0  0  0  0  0
  143.5020   73.2700  218.7390 C   0  0  0  0  0  0  0  0  0  0  0  0
  141.6720   75.0770  220.8400 N   0  0  0  0  0  0  0  0  0  0  0  0
  139.8410   77.3840  222.7230 C   0  0  0  0  0  0  0  0  0  0  0  0
  143.1405   81.6723  222.6185 H   0  0  0  0  0  0  0  0  0  0  0  0
  142.1832   80.8720  224.7797 H   0  0  0  0  0  0  0  0  0  0  0  0
  140.6813   78.8813  224.8202 H   0  0  0  0  0  0  0  0  0  0  0  0
  142.6031   80.4875  220.4916 H   0  0  0  0  0  0  0  0  0  0  0  0
  140.8632   79.0432  219.3507 H   0  0  0  0  0  0  0  0  0  0  0  0
  141.9252   77.6782  219.9052 H   0  0  0  0  0  0  0  0  0  0  0  0
  138.9054   77.9689  220.2267 H   0  0  0  0  0  0  0  0  0  0  0  0
  139.8125   76.6816  219.3752 H   0  0  0  0  0  0  0  0  0  0  0  0
  138.9450   72.3467  223.4814 H   0  0  0  0  0  0  0  0  0  0  0  0
  139.5779   71.1191  222.3082 H   0  0  0  0  0  0  0  0  0  0  0  0
  141.1525   70.4225  223.7531 H   0  0  0  0  0  0  0  0  0  0  0  0
  141.6838   72.1173  224.0805 H   0  0  0  0  0  0  0  0  0  0  0  0
  138.5982   70.2109  226.1487 H   0  0  0  0  0  0  0  0  0  0  0  0
  139.4863   69.5061  224.7246 H   0  0  0  0  0  0  0  0  0  0  0  0
  139.9561   68.2445  226.7889 H   0  0  0  0  0  0  0  0  0  0  0  0
  141.4314   69.0654  226.1403 H   0  0  0  0  0  0  0  0  0  0  0  0
  139.8533   69.6174  228.6475 H   0  0  0  0  0  0  0  0  0  0  0  0
  141.6471   69.6313  228.3420 H   0  0  0  0  0  0  0  0  0  0  0  0
  139.6168   71.8195  228.0097 H   0  0  0  0  0  0  0  0  0  0  0  0
  141.3344   71.8784  228.5697 H   0  0  0  0  0  0  0  0  0  0  0  0
  141.1039   72.9911  226.3872 H   0  0  0  0  0  0  0  0  0  0  0  0
  142.0902   71.4741  226.2472 H   0  0  0  0  0  0  0  0  0  0  0  0
  144.6548   73.8224  221.9166 H   0  0  0  0  0  0  0  0  0  0  0  0
  144.7292   72.2032  221.1218 H   0  0  0  0  0  0  0  0  0  0  0  0
  146.0137   74.8090  220.1522 H   0  0  0  0  0  0  0  0  0  0  0  0
  146.8466   73.3205  220.7379 H   0  0  0  0  0  0  0  0  0  0  0  0
  146.8410   73.4870  218.3650 H   0  0  0  0  0  0  0  0  0  0  0  0
  144.8779   74.7995  218.0776 H   0  0  0  0  0  0  0  0  0  0  0  0
  144.8556   73.3106  217.0602 H   0  0  0  0  0  0  0  0  0  0  0  0
  142.6671   73.7839  218.2401 H   0  0  0  0  0  0  0  0  0  0  0  0
  143.3931   72.1804  218.6347 H   0  0  0  0  0  0  0  0  0  0  0  0
  138.8165   77.7625  222.8539 H   0  0  0  0  0  0  0  0  0  0  0  0
  140.1148   76.7321  223.5657 H   0  0  0  0  0  0  0  0  0  0  0  0
  1  2  2  0
  2  3  1  0
  3  4  2  0
  4  5  1  0
  5  6  2  0
  5  7  1  0
  7  8  1  0
  8  9  1  0
  9 10  1  0
 10 11  2  0
 11 12  1  0
 12 13  1  0
 13 14  1  0
 14 15  1  0
 15 16  1  0
 16 17  1  0
 17 18  1  0
 18 19  1  0
 19 20  1  0
 12 21  2  0
 21 22  1  0
 22 23  1  0
 23 24  1  0
 24 25  1  0
 25 26  1  0
 26 27  1  0
 27 28  1  0
 22 29  2  0
  9 30  1  0
  6  1  1  0
 29 10  1  0
 30  4  1  0
 20 15  1  0
 28 23  1  0
  1 31  1  0
  2 32  1  0
  3 33  1  0
  6 34  1  0
  7 35  1  0
  7 36  1  0
  8 37  1  0
  8 38  1  0
 13 39  1  0
 13 40  1  0
 14 41  1  0
 14 42  1  0
 16 43  1  0
 16 44  1  0
 17 45  1  0
 17 46  1  0
 18 47  1  0
 18 48  1  0
 19 49  1  0
 19 50  1  0
 20 51  1  0
 20 52  1  0
 24 53  1  0
 24 54  1  0
 25 55  1  0
 25 56  1  0
 26 57  1  0
 27 58  1  0
 27 59  1  0
 28 60  1  0
 28 61  1  0
 30 62  1  0
 30 63  1  0
M  END
>  <UniqueID>  (78) 
564

>  <SMILES>  (78) 
c1ccc2c(c1)CCN(c1nc(CCN3CCCCC3)nc(N3CCNCC3)n1)C2

>  <Energy>  (78) 
75.38599246996786

>  <Genealogy>  (78) 
c1ccc2c(c1)CCN(c1nc(CCN3CCCCC3)nc(N3CCNCC3)n1)C2 (3D coordinates assigned)
c1ccc2c(c1)CCN(c1nc(CCN3CCCCC3)nc(N3CCNCC3)n1)C2 (nonaromatic ring conformer: 75.38599246996786 kcal/mol)

>  <smiles>  (78) 
c1ccc2c(c1)CCN(c1nc(CCN3CCCCC3)nc(N3CCNCC3)n1)C2

>  <score_type>  (78) 
oracle

>  <origin>  (78) 
autodockgpu

>  <m_score__min__energy>  (78) 
-9.8000000000000007

>  <m_primary>  (78) 
energy

>  <meeko>  (78) 
{"free_energy": -9.8, "intermolecular_energy": -11.29, "internal_energy": -0.89, "cluster_size": 17, "cluster_id": 1, "rank_in_cluster": 1}

>  <energy>  (78) 
-7.58

>  <cluster_rmsd>  (78) 
0.0

>  <rmsd>  (78) 
270.99

>  <cluster>  (78) 
2

$$$$
GZRQFJZYBWHXJG-UHFFFAOYNA-N
     RDKit          3D

 63 67  0  0  0  0  0  0  0  0999 V2000
  142.4660   80.7090  222.6400 C   0  0  0  0  0  0  0  0  0  0  0  0
  141.9460   80.2380  223.8490 C   0  0  0  0  0  0  0  0  0  0  0  0
  141.1250   79.1080  223.8640 C   0  0  0  0  0  0  0  0  0  0  0  0
  140.8210   78.4350  222.6690 C   0  0  0  0  0  0  0  0  0  0  0  0
  141.3250   78.9280  221.4370 C   0  0  0  0  0  0  0  0  0  0  0  0
  142.1630   80.0550  221.4410 C   0  0  0  0  0  0  0  0  0  0  0  0
  141.0580   78.2150  220.1270 C   0  0  0  0  0  0  0  0  0  0  0  0
  139.8550   77.2690  220.2190 C   0  0  0  0  0  0  0  0  0  0  0  0
  139.9610   76.4960  221.4590 N   0  0  0  0  0  0  0  0  0  0  0  0
  140.5560   75.1910  221.4290 C   0  0  0  0  0  0  0  0  0  0  0  0
  139.9520   74.1470  222.0540 N   0  0  0  0  0  0  0  0  0  0  0  0
  140.5360   72.9240  222.0590 C   0  0  0  0  0  0  0  0  0  0  0  0
  139.9330   71.8100  222.8540 C   0  0  0  0  0  0  0  0  0  0  0  0
  140.3390   71.8880  224.3330 C   0  0  0  0  0  0  0  0  0  0  0  0
  140.6000   70.5320  224.8810 N   0  0  0  0  0  0  0  0  0  0  0  0
  141.3860   70.5610  226.1470 C   0  0  0  0  0  0  0  0  0  0  0  0
  140.5130   70.3480  227.3880 C   0  0  0  0  0  0  0  0  0  0  0  0
  139.8020   68.9850  227.3390 C   0  0  0  0  0  0  0  0  0  0  0  0
  139.5060   68.5260  225.9010 C   0  0  0  0  0  0  0  0  0  0  0  0
  139.3540   69.7290  224.9600 C   0  0  0  0  0  0  0  0  0  0  0  0
  141.7310   72.7460  221.4400 N   0  0  0  0  0  0  0  0  0  0  0  0
  142.3430   73.7800  220.8060 C   0  0  0  0  0  0  0  0  0  0  0  0
  143.6100   73.5830  220.1430 N   0  0  0  0  0  0  0  0  0  0  0  0
  144.8120   73.3070  220.9450 C   0  0  0  0  0  0  0  0  0  0  0  0
  146.0770   73.7610  220.2010 C   0  0  0  0  0  0  0  0  0  0  0  0
  146.1020   73.1990  218.8440 N   0  0  0  0  0  0  0  0  0  0  0  0
  144.9530   73.6890  218.0750 C   0  0  0  0  0  0  0  0  0  0  0  0
  143.6420   73.2230  218.7180 C   0  0  0  0  0  0  0  0  0  0  0  0
  141.7520   75.0040  220.8150 N   0  0  0  0  0  0  0  0  0  0  0  0
  139.8840   77.2560  222.7100 C   0  0  0  0  0  0  0  0  0  0  0  0
  143.1155   81.5967  222.6313 H   0  0  0  0  0  0  0  0  0  0  0  0
  142.1834   80.7575  224.7891 H   0  0  0  0  0  0  0  0  0  0  0  0
  140.7142   78.7431  224.8169 H   0  0  0  0  0  0  0  0  0  0  0  0
  142.5840   80.4260  220.4949 H   0  0  0  0  0  0  0  0  0  0  0  0
  140.8595   78.9663  219.3485 H   0  0  0  0  0  0  0  0  0  0  0  0
  141.9449   77.6117  219.8832 H   0  0  0  0  0  0  0  0  0  0  0  0
  138.9234   77.8539  220.2256 H   0  0  0  0  0  0  0  0  0  0  0  0
  139.8439   76.5904  219.3533 H   0  0  0  0  0  0  0  0  0  0  0  0
  138.8372   71.8714  222.7808 H   0  0  0  0  0  0  0  0  0  0  0  0
  140.3008   70.8571  222.4457 H   0  0  0  0  0  0  0  0  0  0  0  0
  141.2512   72.4958  224.4249 H   0  0  0  0  0  0  0  0  0  0  0  0
  139.5153   72.3451  224.9009 H   0  0  0  0  0  0  0  0  0  0  0  0
  142.1444   69.7651  226.1090 H   0  0  0  0  0  0  0  0  0  0  0  0
  141.8462   71.5566  226.2305 H   0  0  0  0  0  0  0  0  0  0  0  0
  141.1481   70.3896  228.2852 H   0  0  0  0  0  0  0  0  0  0  0  0
  139.7492   71.1391  227.4172 H   0  0  0  0  0  0  0  0  0  0  0  0
  140.4440   68.2347  227.8236 H   0  0  0  0  0  0  0  0  0  0  0  0
  138.8394   69.0914  227.8606 H   0  0  0  0  0  0  0  0  0  0  0  0
  140.3345   67.8949  225.5471 H   0  0  0  0  0  0  0  0  0  0  0  0
  138.5630   67.9597  225.9010 H   0  0  0  0  0  0  0  0  0  0  0  0
  139.1023   69.3634  223.9535 H   0  0  0  0  0  0  0  0  0  0  0  0
  138.5576   70.3746  225.3586 H   0  0  0  0  0  0  0  0  0  0  0  0
  144.7410   73.8481  221.9001 H   0  0  0  0  0  0  0  0  0  0  0  0
  144.8766   72.2236  221.1242 H   0  0  0  0  0  0  0  0  0  0  0  0
  146.0865   74.8592  220.1388 H   0  0  0  0  0  0  0  0  0  0  0  0
  146.9612   73.4061  220.7507 H   0  0  0  0  0  0  0  0  0  0  0  0
  146.9760   73.5450  218.3760 H   0  0  0  0  0  0  0  0  0  0  0  0
  144.9746   74.7885  218.0519 H   0  0  0  0  0  0  0  0  0  0  0  0
  145.0110   73.2883  217.0522 H   0  0  0  0  0  0  0  0  0  0  0  0
  142.7962   73.7035  218.2043 H   0  0  0  0  0  0  0  0  0  0  0  0
  143.5702   72.1292  218.6261 H   0  0  0  0  0  0  0  0  0  0  0  0
  138.8545   77.6164  222.8519 H   0  0  0  0  0  0  0  0  0  0  0  0
  140.1740   76.5996  223.5437 H   0  0  0  0  0  0  0  0  0  0  0  0
  1  2  2  0
  2  3  1  0
  3  4  2  0
  4  5  1  0
  5  6  2  0
  5  7  1  0
  7  8  1  0
  8  9  1  0
  9 10  1  0
 10 11  2  0
 11 12  1  0
 12 13  1  0
 13 14  1  0
 14 15  1  0
 15 16  1  0
 16 17  1  0
 17 18  1  0
 18 19  1  0
 19 20  1  0
 12 21  2  0
 21 22  1  0
 22 23  1  0
 23 24  1  0
 24 25  1  0
 25 26  1  0
 26 27  1  0
 27 28  1  0
 22 29  2  0
  9 30  1  0
  6  1  1  0
 29 10  1  0
 30  4  1  0
 20 15  1  0
 28 23  1  0
  1 31  1  0
  2 32  1  0
  3 33  1  0
  6 34  1  0
  7 35  1  0
  7 36  1  0
  8 37  1  0
  8 38  1  0
 13 39  1  0
 13 40  1  0
 14 41  1  0
 14 42  1  0
 16 43  1  0
 16 44  1  0
 17 45  1  0
 17 46  1  0
 18 47  1  0
 18 48  1  0
 19 49  1  0
 19 50  1  0
 20 51  1  0
 20 52  1  0
 24 53  1  0
 24 54  1  0
 25 55  1  0
 25 56  1  0
 26 57  1  0
 27 58  1  0
 27 59  1  0
 28 60  1  0
 28 61  1  0
 30 62  1  0
 30 63  1  0
M  END
>  <UniqueID>  (79) 
564

>  <SMILES>  (79) 
c1ccc2c(c1)CCN(c1nc(CCN3CCCCC3)nc(N3CCNCC3)n1)C2

>  <Energy>  (79) 
75.38599246996786

>  <Genealogy>  (79) 
c1ccc2c(c1)CCN(c1nc(CCN3CCCCC3)nc(N3CCNCC3)n1)C2 (3D coordinates assigned)
c1ccc2c(c1)CCN(c1nc(CCN3CCCCC3)nc(N3CCNCC3)n1)C2 (nonaromatic ring conformer: 75.38599246996786 kcal/mol)

>  <smiles>  (79) 
c1ccc2c(c1)CCN(c1nc(CCN3CCCCC3)nc(N3CCNCC3)n1)C2

>  <score_type>  (79) 
oracle

>  <origin>  (79) 
autodockgpu

>  <m_score__min__energy>  (79) 
-9.8000000000000007

>  <m_primary>  (79) 
energy

>  <meeko>  (79) 
{"free_energy": -9.48, "intermolecular_energy": -10.97, "internal_energy": -0.88, "cluster_size": 17, "cluster_id": 1, "rank_in_cluster": 14}

>  <energy>  (79) 
-7.36

>  <cluster_rmsd>  (79) 
0.0

>  <rmsd>  (79) 
270.81

>  <cluster>  (79) 
3

$$$$
GZRQFJZYBWHXJG-UHFFFAOYNA-N
     RDKit          3D

 63 67  0  0  0  0  0  0  0  0999 V2000
  142.4910   80.5140  222.5410 C   0  0  0  0  0  0  0  0  0  0  0  0
  142.0200   80.0440  223.7690 C   0  0  0  0  0  0  0  0  0  0  0  0
  141.2280   78.8950  223.8210 C   0  0  0  0  0  0  0  0  0  0  0  0
  140.9040   78.2020  222.6420 C   0  0  0  0  0  0  0  0  0  0  0  0
  141.3570   78.6940  221.3910 C   0  0  0  0  0  0  0  0  0  0  0  0
  142.1680   79.8410  221.3580 C   0  0  0  0  0  0  0  0  0  0  0  0
  141.0680   77.9620  220.0970 C   0  0  0  0  0  0  0  0  0  0  0  0
  139.8920   76.9880  220.2350 C   0  0  0  0  0  0  0  0  0  0  0  0
  140.0540   76.2310  221.4780 N   0  0  0  0  0  0  0  0  0  0  0  0
  140.6800   74.9400  221.4420 C   0  0  0  0  0  0  0  0  0  0  0  0
  140.0930   73.8760  222.0490 N   0  0  0  0  0  0  0  0  0  0  0  0
  140.7050   72.6670  222.0490 C   0  0  0  0  0  0  0  0  0  0  0  0
  140.1190   71.5310  222.8260 C   0  0  0  0  0  0  0  0  0  0  0  0
  140.0130   71.8640  224.3210 C   0  0  0  0  0  0  0  0  0  0  0  0
  140.8160   70.9130  225.1320 N   0  0  0  0  0  0  0  0  0  0  0  0
  141.4410   71.5540  226.3240 C   0  0  0  0  0  0  0  0  0  0  0  0
  140.6880   71.2460  227.6220 C   0  0  0  0  0  0  0  0  0  0  0  0
  140.6540   69.7340  227.8980 C   0  0  0  0  0  0  0  0  0  0  0  0
  140.6660   68.8980  226.6060 C   0  0  0  0  0  0  0  0  0  0  0  0
  140.0490   69.6800  225.4390 C   0  0  0  0  0  0  0  0  0  0  0  0
  141.9110   72.5220  221.4430 N   0  0  0  0  0  0  0  0  0  0  0  0
  142.5070   73.5770  220.8270 C   0  0  0  0  0  0  0  0  0  0  0  0
  143.7860   73.4160  220.1780 N   0  0  0  0  0  0  0  0  0  0  0  0
  145.0000   73.2690  220.9950 C   0  0  0  0  0  0  0  0  0  0  0  0
  146.2370   73.7510  220.2210 C   0  0  0  0  0  0  0  0  0  0  0  0
  146.3020   73.1030  218.9050 N   0  0  0  0  0  0  0  0  0  0  0  0
  145.1260   73.4680  218.1060 C   0  0  0  0  0  0  0  0  0  0  0  0
  143.8450   72.9640  218.7790 C   0  0  0  0  0  0  0  0  0  0  0  0
  141.8880   74.7870  220.8410 N   0  0  0  0  0  0  0  0  0  0  0  0
  139.9970   77.0010  222.7230 C   0  0  0  0  0  0  0  0  0  0  0  0
  143.1183   81.4168  222.5040 H   0  0  0  0  0  0  0  0  0  0  0  0
  142.2731   80.5794  224.6960 H   0  0  0  0  0  0  0  0  0  0  0  0
  140.8558   78.5304  224.7898 H   0  0  0  0  0  0  0  0  0  0  0  0
  142.5512   80.2120  220.3960 H   0  0  0  0  0  0  0  0  0  0  0  0
  140.8273   78.7004  219.3180 H   0  0  0  0  0  0  0  0  0  0  0  0
  141.9617   77.3782  219.8314 H   0  0  0  0  0  0  0  0  0  0  0  0
  138.9470   77.5502  220.2643 H   0  0  0  0  0  0  0  0  0  0  0  0
  139.8717   76.3002  219.3768 H   0  0  0  0  0  0  0  0  0  0  0  0
  139.1135   71.3133  222.4366 H   0  0  0  0  0  0  0  0  0  0  0  0
  140.7810   70.6597  222.7137 H   0  0  0  0  0  0  0  0  0  0  0  0
  140.3848   72.8854  224.4901 H   0  0  0  0  0  0  0  0  0  0  0  0
  138.9591   71.7845  224.6258 H   0  0  0  0  0  0  0  0  0  0  0  0
  142.4735   71.1872  226.4203 H   0  0  0  0  0  0  0  0  0  0  0  0
  141.4095   72.6429  226.1713 H   0  0  0  0  0  0  0  0  0  0  0  0
  141.1921   71.7524  228.4583 H   0  0  0  0  0  0  0  0  0  0  0  0
  139.6534   71.6052  227.5188 H   0  0  0  0  0  0  0  0  0  0  0  0
  141.5347   69.4655  228.4999 H   0  0  0  0  0  0  0  0  0  0  0  0
  139.7171   69.5127  228.4303 H   0  0  0  0  0  0  0  0  0  0  0  0
  141.7051   68.6382  226.3554 H   0  0  0  0  0  0  0  0  0  0  0  0
  140.0704   67.9882  226.7719 H   0  0  0  0  0  0  0  0  0  0  0  0
  140.0375   69.0369  224.5466 H   0  0  0  0  0  0  0  0  0  0  0  0
  139.0296   69.9757  225.7279 H   0  0  0  0  0  0  0  0  0  0  0  0
  144.8925   73.8665  221.9123 H   0  0  0  0  0  0  0  0  0  0  0  0
  145.1314   72.2059  221.2453 H   0  0  0  0  0  0  0  0  0  0  0  0
  146.1779   74.8410  220.0857 H   0  0  0  0  0  0  0  0  0  0  0  0
  147.1398   73.4894  220.7925 H   0  0  0  0  0  0  0  0  0  0  0  0
  147.1530   73.4710  218.4140 H   0  0  0  0  0  0  0  0  0  0  0  0
  145.0785   74.5628  218.0104 H   0  0  0  0  0  0  0  0  0  0  0  0
  145.2125   73.0049  217.1120 H   0  0  0  0  0  0  0  0  0  0  0  0
  142.9724   73.3549  218.2351 H   0  0  0  0  0  0  0  0  0  0  0  0
  143.8421   71.8642  218.7600 H   0  0  0  0  0  0  0  0  0  0  0  0
  138.9639   77.3382  222.8933 H   0  0  0  0  0  0  0  0  0  0  0  0
  140.3280   76.3602  223.5535 H   0  0  0  0  0  0  0  0  0  0  0  0
  1  2  2  0
  2  3  1  0
  3  4  2  0
  4  5  1  0
  5  6  2  0
  5  7  1  0
  7  8  1  0
  8  9  1  0
  9 10  1  0
 10 11  2  0
 11 12  1  0
 12 13  1  0
 13 14  1  0
 14 15  1  0
 15 16  1  0
 16 17  1  0
 17 18  1  0
 18 19  1  0
 19 20  1  0
 12 21  2  0
 21 22  1  0
 22 23  1  0
 23 24  1  0
 24 25  1  0
 25 26  1  0
 26 27  1  0
 27 28  1  0
 22 29  2  0
  9 30  1  0
  6  1  1  0
 29 10  1  0
 30  4  1  0
 20 15  1  0
 28 23  1  0
  1 31  1  0
  2 32  1  0
  3 33  1  0
  6 34  1  0
  7 35  1  0
  7 36  1  0
  8 37  1  0
  8 38  1  0
 13 39  1  0
 13 40  1  0
 14 41  1  0
 14 42  1  0
 16 43  1  0
 16 44  1  0
 17 45  1  0
 17 46  1  0
 18 47  1  0
 18 48  1  0
 19 49  1  0
 19 50  1  0
 20 51  1  0
 20 52  1  0
 24 53  1  0
 24 54  1  0
 25 55  1  0
 25 56  1  0
 26 57  1  0
 27 58  1  0
 27 59  1  0
 28 60  1  0
 28 61  1  0
 30 62  1  0
 30 63  1  0
M  END
>  <UniqueID>  (80) 
564

>  <SMILES>  (80) 
c1ccc2c(c1)CCN(c1nc(CCN3CCCCC3)nc(N3CCNCC3)n1)C2

>  <Energy>  (80) 
75.38599246996786

>  <Genealogy>  (80) 
c1ccc2c(c1)CCN(c1nc(CCN3CCCCC3)nc(N3CCNCC3)n1)C2 (3D coordinates assigned)
c1ccc2c(c1)CCN(c1nc(CCN3CCCCC3)nc(N3CCNCC3)n1)C2 (nonaromatic ring conformer: 75.38599246996786 kcal/mol)

>  <smiles>  (80) 
c1ccc2c(c1)CCN(c1nc(CCN3CCCCC3)nc(N3CCNCC3)n1)C2

>  <score_type>  (80) 
oracle

>  <origin>  (80) 
autodockgpu

>  <m_score__min__energy>  (80) 
-9.8000000000000007

>  <m_primary>  (80) 
energy

>  <meeko>  (80) 
{"free_energy": -9.65, "intermolecular_energy": -11.14, "internal_energy": -0.91, "cluster_size": 17, "cluster_id": 1, "rank_in_cluster": 12}

>  <energy>  (80) 
-7.31

>  <cluster_rmsd>  (80) 
0.19

>  <rmsd>  (80) 
270.79

>  <cluster>  (80) 
3

$$$$
