
     RDKit          3D

 54 57  0  0  0  0  0  0  0  0999 V2000
  141.4710   72.3060  221.5660 O   0  0  0  0  0  0  0  0  0  0  0  0
  140.6090   72.5540  222.4640 C   0  0  0  0  0  0  0  0  0  0  0  0
  139.9150   73.7940  222.3350 N   0  0  0  0  0  0  0  0  0  0  0  0
  140.2630   74.6270  221.2080 C   0  0  0  0  0  0  0  0  0  0  0  0
  140.0810   76.0710  221.5080 C   0  0  0  0  0  0  0  0  0  0  0  0
  139.1170   76.4680  222.2210 O   0  0  0  0  0  0  0  0  0  0  0  0
  141.0350   76.9730  220.9580 N   0  0  0  0  0  0  0  0  0  0  0  0
  141.4690   78.1730  221.6380 C   0  0  0  0  0  0  0  0  0  0  0  0
  141.4670   79.3890  220.7750 C   0  0  0  0  0  0  0  0  0  0  0  0
  141.4400   79.1920  219.3240 C   0  0  0  0  0  0  0  0  0  0  0  0
  141.2180   77.8360  218.7810 C   0  0  0  0  0  0  0  0  0  0  0  0
  141.6130   76.6920  219.6560 C   0  0  1  0  0  0  0  0  0  0  0  0
  143.1070   76.4840  219.7480 C   0  0  0  0  0  0  0  0  0  0  0  0
  143.4010   75.0280  219.6950 C   0  0  0  0  0  0  0  0  0  0  0  0
  142.6850   74.1370  218.9300 C   0  0  0  0  0  0  0  0  0  0  0  0
  142.9910   72.7890  218.9080 C   0  0  0  0  0  0  0  0  0  0  0  0
  144.0500   72.3600  219.6840 C   0  0  0  0  0  0  0  0  0  0  0  0
  144.4170   70.6330  219.6340 Cl  0  0  0  0  0  0  0  0  0  0  0  0
  144.8050   73.2040  220.4700 C   0  0  0  0  0  0  0  0  0  0  0  0
  144.4510   74.5440  220.4530 C   0  0  0  0  0  0  0  0  0  0  0  0
  140.3380   71.6330  223.5650 C   0  0  0  0  0  0  0  0  0  0  0  0
  139.6780   70.4580  223.2610 C   0  0  0  0  0  0  0  0  0  0  0  0
  139.3870   69.5470  224.2380 C   0  0  0  0  0  0  0  0  0  0  0  0
  139.7710   69.8220  225.5530 C   0  0  0  0  0  0  0  0  0  0  0  0
  139.4860   68.9140  226.5380 C   0  0  0  0  0  0  0  0  0  0  0  0
  139.8840   69.2240  227.8390 C   0  0  0  0  0  0  0  0  0  0  0  0
  140.5450   70.4120  228.1090 C   0  0  0  0  0  0  0  0  0  0  0  0
  140.8350   71.3280  227.1220 C   0  0  0  0  0  0  0  0  0  0  0  0
  140.4350   71.0090  225.8400 C   0  0  0  0  0  0  0  0  0  0  0  0
  140.7030   71.8870  224.8360 N   0  0  0  0  0  0  0  0  0  0  0  0
  139.1950   74.0700  223.0280 H   0  0  0  0  0  0  0  0  0  0  0  0
  141.3163   74.4484  220.9458 H   0  0  0  0  0  0  0  0  0  0  0  0
  139.5963   74.3660  220.3729 H   0  0  0  0  0  0  0  0  0  0  0  0
  140.7962   78.3513  222.4898 H   0  0  0  0  0  0  0  0  0  0  0  0
  142.5099   78.0046  221.9512 H   0  0  0  0  0  0  0  0  0  0  0  0
  140.5795   79.9810  221.0431 H   0  0  0  0  0  0  0  0  0  0  0  0
  142.4349   79.8728  220.9727 H   0  0  0  0  0  0  0  0  0  0  0  0
  140.6368   79.8312  218.9286 H   0  0  0  0  0  0  0  0  0  0  0  0
  142.4664   79.4328  219.0100 H   0  0  0  0  0  0  0  0  0  0  0  0
  140.1443   77.7350  218.5642 H   0  0  0  0  0  0  0  0  0  0  0  0
  141.8722   77.7661  217.8995 H   0  0  0  0  0  0  0  0  0  0  0  0
  141.2391   75.7494  219.2297 H   0  0  0  0  0  0  0  0  0  0  0  0
  143.6016   76.9903  218.9060 H   0  0  0  0  0  0  0  0  0  0  0  0
  143.4813   76.9028  220.6938 H   0  0  0  0  0  0  0  0  0  0  0  0
  141.8475   74.5065  218.3201 H   0  0  0  0  0  0  0  0  0  0  0  0
  142.4118   72.0833  218.2944 H   0  0  0  0  0  0  0  0  0  0  0  0
  145.6435   72.8339  221.0782 H   0  0  0  0  0  0  0  0  0  0  0  0
  145.0286   75.2506  221.0671 H   0  0  0  0  0  0  0  0  0  0  0  0
  139.3833   70.2531  222.2212 H   0  0  0  0  0  0  0  0  0  0  0  0
  138.8595   68.6133  223.9930 H   0  0  0  0  0  0  0  0  0  0  0  0
  138.9619   67.9737  226.3115 H   0  0  0  0  0  0  0  0  0  0  0  0
  139.6715   68.5199  228.6569 H   0  0  0  0  0  0  0  0  0  0  0  0
  140.8474   70.6301  229.1439 H   0  0  0  0  0  0  0  0  0  0  0  0
  141.3601   72.2685  227.3447 H   0  0  0  0  0  0  0  0  0  0  0  0
  1  2  2  0
  2  3  1  0
  3  4  1  0
  4  5  1  0
  5  6  2  0
  5  7  1  0
  7  8  1  0
  8  9  1  0
  9 10  1  0
 10 11  1  0
 11 12  1  0
 12 13  1  0
 13 14  1  0
 14 15  2  0
 15 16  1  0
 16 17  2  0
 17 18  1  0
 17 19  1  0
 19 20  2  0
  2 21  1  0
 21 22  2  0
 22 23  1  0
 23 24  2  0
 24 25  1  0
 25 26  2  0
 26 27  1  0
 27 28  2  0
 28 29  1  0
 29 30  2  0
 12  7  1  0
 20 14  1  0
 30 21  1  0
 29 24  1  0
  3 31  1  0
  4 32  1  0
  4 33  1  0
  8 34  1  0
  8 35  1  0
  9 36  1  0
  9 37  1  0
 10 38  1  0
 10 39  1  0
 11 40  1  0
 11 41  1  0
 12 42  1  6
 13 43  1  0
 13 44  1  0
 15 45  1  0
 16 46  1  0
 19 47  1  0
 20 48  1  0
 22 49  1  0
 23 50  1  0
 25 51  1  0
 26 52  1  0
 27 53  1  0
 28 54  1  0
M  END
>  <smiles>  (1) 
O=C(NCC(=O)N1CCCC[C@H]1Cc1ccc(Cl)cc1)c1ccc2ccccc2n1

>  <score_type>  (1) 
oracle

>  <origin>  (1) 
autodockgpu

>  <m_score__min__energy>  (1) 
-9.0700000000000003

>  <m_primary>  (1) 
energy

>  <meeko>  (1) 
{"free_energy": -8.43, "intermolecular_energy": -10.22, "internal_energy": -2.15, "cluster_size": 10, "cluster_id": 2, "rank_in_cluster": 9}

>  <energy>  (1) 
-9.07

>  <cluster_rmsd>  (1) 
0.0

>  <rmsd>  (1) 
271.14

>  <cluster>  (1) 
1

$$$$

     RDKit          3D

 54 57  0  0  0  0  0  0  0  0999 V2000
  139.9740   70.9630  221.4020 O   0  0  0  0  0  0  0  0  0  0  0  0
  139.8390   71.5300  222.5290 C   0  0  0  0  0  0  0  0  0  0  0  0
  139.6670   72.9460  222.4990 N   0  0  0  0  0  0  0  0  0  0  0  0
  139.6640   73.5790  221.2000 C   0  0  0  0  0  0  0  0  0  0  0  0
  140.1300   74.9880  221.2690 C   0  0  0  0  0  0  0  0  0  0  0  0
  140.0500   75.6460  222.3440 O   0  0  0  0  0  0  0  0  0  0  0  0
  140.6630   75.5530  220.0760 N   0  0  0  0  0  0  0  0  0  0  0  0
  140.1190   75.2820  218.7630 C   0  0  0  0  0  0  0  0  0  0  0  0
  141.1490   74.9330  217.7440 C   0  0  0  0  0  0  0  0  0  0  0  0
  142.5400   75.2890  218.0350 C   0  0  0  0  0  0  0  0  0  0  0  0
  142.8940   75.7860  219.3810 C   0  0  0  0  0  0  0  0  0  0  0  0
  141.8040   76.4470  220.1580 C   0  0  1  0  0  0  0  0  0  0  0  0
  141.4570   77.8320  219.6640 C   0  0  0  0  0  0  0  0  0  0  0  0
  141.6440   78.8060  220.7710 C   0  0  0  0  0  0  0  0  0  0  0  0
  141.8090   80.1580  220.5720 C   0  0  0  0  0  0  0  0  0  0  0  0
  141.9790   81.0310  221.6300 C   0  0  0  0  0  0  0  0  0  0  0  0
  141.9770   80.5010  222.9050 C   0  0  0  0  0  0  0  0  0  0  0  0
  142.1950   81.6430  224.2350 Cl  0  0  0  0  0  0  0  0  0  0  0  0
  141.8150   79.1580  223.1680 C   0  0  0  0  0  0  0  0  0  0  0  0
  141.6490   78.3300  222.0690 C   0  0  0  0  0  0  0  0  0  0  0  0
  139.8580   70.7860  223.7870 C   0  0  0  0  0  0  0  0  0  0  0  0
  139.2700   69.5360  223.7930 C   0  0  0  0  0  0  0  0  0  0  0  0
  139.2470   68.7800  224.9320 C   0  0  0  0  0  0  0  0  0  0  0  0
  139.8310   69.2920  226.0940 C   0  0  0  0  0  0  0  0  0  0  0  0
  139.8140   68.5420  227.2390 C   0  0  0  0  0  0  0  0  0  0  0  0
  140.4070   69.0870  228.3790 C   0  0  0  0  0  0  0  0  0  0  0  0
  140.9870   70.3450  228.3380 C   0  0  0  0  0  0  0  0  0  0  0  0
  141.0080   71.1030  227.1890 C   0  0  0  0  0  0  0  0  0  0  0  0
  140.4180   70.5520  226.0690 C   0  0  0  0  0  0  0  0  0  0  0  0
  140.4170   71.2700  224.9130 N   0  0  0  0  0  0  0  0  0  0  0  0
  139.5490   73.4830  223.3780 H   0  0  0  0  0  0  0  0  0  0  0  0
  140.3299   73.0167  220.5289 H   0  0  0  0  0  0  0  0  0  0  0  0
  138.6304   73.5799  220.8237 H   0  0  0  0  0  0  0  0  0  0  0  0
  139.4151   74.4408  218.8464 H   0  0  0  0  0  0  0  0  0  0  0  0
  139.6320   76.2073  218.4215 H   0  0  0  0  0  0  0  0  0  0  0  0
  141.1119   73.8433  217.5986 H   0  0  0  0  0  0  0  0  0  0  0  0
  140.8852   75.5362  216.8628 H   0  0  0  0  0  0  0  0  0  0  0  0
  143.1457   74.3883  217.8562 H   0  0  0  0  0  0  0  0  0  0  0  0
  142.7297   76.1527  217.3807 H   0  0  0  0  0  0  0  0  0  0  0  0
  143.2508   74.9284  219.9701 H   0  0  0  0  0  0  0  0  0  0  0  0
  143.6461   76.5707  219.2117 H   0  0  0  0  0  0  0  0  0  0  0  0
  142.1316   76.6098  221.1954 H   0  0  0  0  0  0  0  0  0  0  0  0
  142.1152   78.0988  218.8240 H   0  0  0  0  0  0  0  0  0  0  0  0
  140.4104   77.8527  219.3259 H   0  0  0  0  0  0  0  0  0  0  0  0
  141.8055   80.5534  219.5456 H   0  0  0  0  0  0  0  0  0  0  0  0
  142.1112   82.1100  221.4622 H   0  0  0  0  0  0  0  0  0  0  0  0
  141.8173   78.7642  224.1951 H   0  0  0  0  0  0  0  0  0  0  0  0
  141.5159   77.2510  222.2362 H   0  0  0  0  0  0  0  0  0  0  0  0
  138.8152   69.1445  222.8711 H   0  0  0  0  0  0  0  0  0  0  0  0
  138.7768   67.7856  224.9338 H   0  0  0  0  0  0  0  0  0  0  0  0
  139.3495   67.5451  227.2600 H   0  0  0  0  0  0  0  0  0  0  0  0
  140.4140   68.5133  229.3175 H   0  0  0  0  0  0  0  0  0  0  0  0
  141.4449   70.7506  229.2522 H   0  0  0  0  0  0  0  0  0  0  0  0
  141.4725   72.0998  227.1644 H   0  0  0  0  0  0  0  0  0  0  0  0
  1  2  2  0
  2  3  1  0
  3  4  1  0
  4  5  1  0
  5  6  2  0
  5  7  1  0
  7  8  1  0
  8  9  1  0
  9 10  1  0
 10 11  1  0
 11 12  1  0
 12 13  1  0
 13 14  1  0
 14 15  2  0
 15 16  1  0
 16 17  2  0
 17 18  1  0
 17 19  1  0
 19 20  2  0
  2 21  1  0
 21 22  2  0
 22 23  1  0
 23 24  2  0
 24 25  1  0
 25 26  2  0
 26 27  1  0
 27 28  2  0
 28 29  1  0
 29 30  2  0
 12  7  1  0
 20 14  1  0
 30 21  1  0
 29 24  1  0
  3 31  1  0
  4 32  1  0
  4 33  1  0
  8 34  1  0
  8 35  1  0
  9 36  1  0
  9 37  1  0
 10 38  1  0
 10 39  1  0
 11 40  1  0
 11 41  1  0
 12 42  1  1
 13 43  1  0
 13 44  1  0
 15 45  1  0
 16 46  1  0
 19 47  1  0
 20 48  1  0
 22 49  1  0
 23 50  1  0
 25 51  1  0
 26 52  1  0
 27 53  1  0
 28 54  1  0
M  END
>  <smiles>  (2) 
O=C(NCC(=O)N1CCCC[C@H]1Cc1ccc(Cl)cc1)c1ccc2ccccc2n1

>  <score_type>  (2) 
oracle

>  <origin>  (2) 
autodockgpu

>  <m_score__min__energy>  (2) 
-9.0700000000000003

>  <m_primary>  (2) 
energy

>  <meeko>  (2) 
{"free_energy": -9.02, "intermolecular_energy": -10.81, "internal_energy": -1.76, "cluster_size": 7, "cluster_id": 1, "rank_in_cluster": 5}

>  <energy>  (2) 
-9.07

>  <cluster_rmsd>  (2) 
0.7

>  <rmsd>  (2) 
271.22

>  <cluster>  (2) 
1

$$$$

     RDKit          3D

 54 57  0  0  0  0  0  0  0  0999 V2000
  141.4580   72.0100  221.6840 O   0  0  0  0  0  0  0  0  0  0  0  0
  140.5990   72.3120  222.5660 C   0  0  0  0  0  0  0  0  0  0  0  0
  139.8900   73.5320  222.3550 N   0  0  0  0  0  0  0  0  0  0  0  0
  140.2220   74.2870  221.1690 C   0  0  0  0  0  0  0  0  0  0  0  0
  140.4700   75.7200  221.4760 C   0  0  0  0  0  0  0  0  0  0  0  0
  139.8320   76.3060  222.3950 O   0  0  0  0  0  0  0  0  0  0  0  0
  141.4490   76.3900  220.6900 N   0  0  0  0  0  0  0  0  0  0  0  0
  141.7250   77.8050  220.8130 C   0  0  0  0  0  0  0  0  0  0  0  0
  141.7880   78.5220  219.5070 C   0  0  0  0  0  0  0  0  0  0  0  0
  141.9780   77.7170  218.2980 C   0  0  0  0  0  0  0  0  0  0  0  0
  141.8990   76.2440  218.3890 C   0  0  0  0  0  0  0  0  0  0  0  0
  142.2190   75.6380  219.7160 C   0  0  1  0  0  0  0  0  0  0  0  0
  143.6930   75.6480  220.0500 C   0  0  0  0  0  0  0  0  0  0  0  0
  144.2550   74.2920  219.8180 C   0  0  0  0  0  0  0  0  0  0  0  0
  145.3470   73.7980  220.4940 C   0  0  0  0  0  0  0  0  0  0  0  0
  145.8390   72.5300  220.2490 C   0  0  0  0  0  0  0  0  0  0  0  0
  145.1950   71.7650  219.2960 C   0  0  0  0  0  0  0  0  0  0  0  0
  145.8460   70.1490  219.0060 Cl  0  0  0  0  0  0  0  0  0  0  0  0
  144.0970   72.2040  218.5870 C   0  0  0  0  0  0  0  0  0  0  0  0
  143.6480   73.4830  218.8750 C   0  0  0  0  0  0  0  0  0  0  0  0
  140.3440   71.4680  223.7310 C   0  0  0  0  0  0  0  0  0  0  0  0
  139.6760   70.2770  223.5180 C   0  0  0  0  0  0  0  0  0  0  0  0
  139.4000   69.4350  224.5590 C   0  0  0  0  0  0  0  0  0  0  0  0
  139.8060   69.7960  225.8460 C   0  0  0  0  0  0  0  0  0  0  0  0
  139.5350   68.9580  226.8940 C   0  0  0  0  0  0  0  0  0  0  0  0
  139.9560   69.3530  228.1650 C   0  0  0  0  0  0  0  0  0  0  0  0
  140.6230   70.5550  228.3430 C   0  0  0  0  0  0  0  0  0  0  0  0
  140.8990   71.4010  227.2930 C   0  0  0  0  0  0  0  0  0  0  0  0
  140.4770   70.9980  226.0420 C   0  0  0  0  0  0  0  0  0  0  0  0
  140.7300   71.8060  224.9760 N   0  0  0  0  0  0  0  0  0  0  0  0
  139.1700   73.8480  223.0310 H   0  0  0  0  0  0  0  0  0  0  0  0
  141.1283   73.8582  220.7165 H   0  0  0  0  0  0  0  0  0  0  0  0
  139.3683   74.2291  220.4777 H   0  0  0  0  0  0  0  0  0  0  0  0
  140.9304   78.2617  221.4213 H   0  0  0  0  0  0  0  0  0  0  0  0
  142.7176   77.8984  221.2778 H   0  0  0  0  0  0  0  0  0  0  0  0
  140.8440   79.0742  219.3893 H   0  0  0  0  0  0  0  0  0  0  0  0
  142.6936   79.1428  219.5735 H   0  0  0  0  0  0  0  0  0  0  0  0
  141.2108   78.0354  217.5769 H   0  0  0  0  0  0  0  0  0  0  0  0
  143.0263   77.9047  218.0226 H   0  0  0  0  0  0  0  0  0  0  0  0
  140.8729   75.9479  218.1256 H   0  0  0  0  0  0  0  0  0  0  0  0
  142.6741   75.8691  217.7044 H   0  0  0  0  0  0  0  0  0  0  0  0
  141.9544   74.5703  219.7120 H   0  0  0  0  0  0  0  0  0  0  0  0
  144.2109   76.3758  219.4081 H   0  0  0  0  0  0  0  0  0  0  0  0
  143.8315   75.9305  221.1041 H   0  0  0  0  0  0  0  0  0  0  0  0
  145.8407   74.4282  221.2484 H   0  0  0  0  0  0  0  0  0  0  0  0
  146.7129   72.1434  220.7938 H   0  0  0  0  0  0  0  0  0  0  0  0
  143.6038   71.5728  217.8331 H   0  0  0  0  0  0  0  0  0  0  0  0
  142.7735   73.8703  218.3316 H   0  0  0  0  0  0  0  0  0  0  0  0
  139.3629   70.0036  222.4996 H   0  0  0  0  0  0  0  0  0  0  0  0
  138.8668   68.4885  224.3860 H   0  0  0  0  0  0  0  0  0  0  0  0
  139.0042   68.0069  226.7400 H   0  0  0  0  0  0  0  0  0  0  0  0
  139.7569   68.7056  229.0317 H   0  0  0  0  0  0  0  0  0  0  0  0
  140.9420   70.8419  229.3559 H   0  0  0  0  0  0  0  0  0  0  0  0
  141.4302   72.3524  227.4435 H   0  0  0  0  0  0  0  0  0  0  0  0
  1  2  2  0
  2  3  1  0
  3  4  1  0
  4  5  1  0
  5  6  2  0
  5  7  1  0
  7  8  1  0
  8  9  1  0
  9 10  1  0
 10 11  1  0
 11 12  1  0
 12 13  1  0
 13 14  1  0
 14 15  2  0
 15 16  1  0
 16 17  2  0
 17 18  1  0
 17 19  1  0
 19 20  2  0
  2 21  1  0
 21 22  2  0
 22 23  1  0
 23 24  2  0
 24 25  1  0
 25 26  2  0
 26 27  1  0
 27 28  2  0
 28 29  1  0
 29 30  2  0
 12  7  1  0
 20 14  1  0
 30 21  1  0
 29 24  1  0
  3 31  1  0
  4 32  1  0
  4 33  1  0
  8 34  1  0
  8 35  1  0
  9 36  1  0
  9 37  1  0
 10 38  1  0
 10 39  1  0
 11 40  1  0
 11 41  1  0
 12 42  1  6
 13 43  1  0
 13 44  1  0
 15 45  1  0
 16 46  1  0
 19 47  1  0
 20 48  1  0
 22 49  1  0
 23 50  1  0
 25 51  1  0
 26 52  1  0
 27 53  1  0
 28 54  1  0
M  END
>  <smiles>  (3) 
O=C(NCC(=O)N1CCCC[C@H]1Cc1ccc(Cl)cc1)c1ccc2ccccc2n1

>  <score_type>  (3) 
oracle

>  <origin>  (3) 
autodockgpu

>  <m_score__min__energy>  (3) 
-9.0700000000000003

>  <m_primary>  (3) 
energy

>  <meeko>  (3) 
{"free_energy": -8.92, "intermolecular_energy": -10.71, "internal_energy": -1.8, "cluster_size": 10, "cluster_id": 2, "rank_in_cluster": 3}

>  <energy>  (3) 
-9.06

>  <cluster_rmsd>  (3) 
0.08

>  <rmsd>  (3) 
271.15

>  <cluster>  (3) 
1

$$$$

     RDKit          3D

 54 57  0  0  0  0  0  0  0  0999 V2000
  138.4440   72.2420  222.6860 O   0  0  0  0  0  0  0  0  0  0  0  0
  139.5650   71.8070  223.0910 C   0  0  0  0  0  0  0  0  0  0  0  0
  140.7140   72.3440  222.4370 N   0  0  0  0  0  0  0  0  0  0  0  0
  140.4830   73.3150  221.3940 C   0  0  0  0  0  0  0  0  0  0  0  0
  141.7400   73.6900  220.6950 C   0  0  0  0  0  0  0  0  0  0  0  0
  142.7880   73.0000  220.8340 O   0  0  0  0  0  0  0  0  0  0  0  0
  141.7030   74.8500  219.8730 N   0  0  0  0  0  0  0  0  0  0  0  0
  141.2280   74.8340  218.5060 C   0  0  0  0  0  0  0  0  0  0  0  0
  142.1290   75.5330  217.5470 C   0  0  0  0  0  0  0  0  0  0  0  0
  143.1130   76.4680  218.0970 C   0  0  0  0  0  0  0  0  0  0  0  0
  143.3120   76.5330  219.5590 C   0  0  0  0  0  0  0  0  0  0  0  0
  142.1560   76.1200  220.4100 C   0  0  1  0  0  0  0  0  0  0  0  0
  141.0360   77.1350  220.4490 C   0  0  0  0  0  0  0  0  0  0  0  0
  141.4210   78.2520  221.3510 C   0  0  0  0  0  0  0  0  0  0  0  0
  141.8340   79.4840  220.8990 C   0  0  0  0  0  0  0  0  0  0  0  0
  142.1820   80.4970  221.7720 C   0  0  0  0  0  0  0  0  0  0  0  0
  142.1020   80.2340  223.1250 C   0  0  0  0  0  0  0  0  0  0  0  0
  142.5530   81.5490  224.2140 Cl  0  0  0  0  0  0  0  0  0  0  0  0
  141.6950   79.0210  223.6380 C   0  0  0  0  0  0  0  0  0  0  0  0
  141.3580   78.0430  222.7170 C   0  0  0  0  0  0  0  0  0  0  0  0
  139.6810   70.8190  224.1600 C   0  0  0  0  0  0  0  0  0  0  0  0
  139.1160   69.5780  223.9410 C   0  0  0  0  0  0  0  0  0  0  0  0
  139.1820   68.6010  224.8940 C   0  0  0  0  0  0  0  0  0  0  0  0
  139.8350   68.8760  226.0990 C   0  0  0  0  0  0  0  0  0  0  0  0
  139.9080   67.9030  227.0600 C   0  0  0  0  0  0  0  0  0  0  0  0
  140.5680   68.2160  228.2490 C   0  0  0  0  0  0  0  0  0  0  0  0
  141.1240   69.4720  228.4360 C   0  0  0  0  0  0  0  0  0  0  0  0
  141.0540   70.4540  227.4730 C   0  0  0  0  0  0  0  0  0  0  0  0
  140.3990   70.1310  226.3020 C   0  0  0  0  0  0  0  0  0  0  0  0
  140.3080   71.0730  225.3250 N   0  0  0  0  0  0  0  0  0  0  0  0
  141.6670   72.0400  222.7110 H   0  0  0  0  0  0  0  0  0  0  0  0
  139.7823   72.8890  220.6608 H   0  0  0  0  0  0  0  0  0  0  0  0
  140.0690   74.2218  221.8592 H   0  0  0  0  0  0  0  0  0  0  0  0
  141.1273   73.7863  218.1863 H   0  0  0  0  0  0  0  0  0  0  0  0
  140.2688   75.3724  218.4943 H   0  0  0  0  0  0  0  0  0  0  0  0
  142.6830   74.7604  216.9937 H   0  0  0  0  0  0  0  0  0  0  0  0
  141.4582   76.1593  216.9405 H   0  0  0  0  0  0  0  0  0  0  0  0
  144.0851   76.2087  217.6524 H   0  0  0  0  0  0  0  0  0  0  0  0
  142.7003   77.4565  217.8468 H   0  0  0  0  0  0  0  0  0  0  0  0
  144.1611   75.8801  219.8097 H   0  0  0  0  0  0  0  0  0  0  0  0
  143.4714   77.5981  219.7831 H   0  0  0  0  0  0  0  0  0  0  0  0
  142.4762   76.0365  221.4591 H   0  0  0  0  0  0  0  0  0  0  0  0
  140.8571   77.5248  219.4361 H   0  0  0  0  0  0  0  0  0  0  0  0
  140.1175   76.6582  220.8219 H   0  0  0  0  0  0  0  0  0  0  0  0
  141.8885   79.6672  219.8157 H   0  0  0  0  0  0  0  0  0  0  0  0
  142.5114   81.4790  221.4018 H   0  0  0  0  0  0  0  0  0  0  0  0
  141.6407   78.8394  224.7215 H   0  0  0  0  0  0  0  0  0  0  0  0
  141.0271   77.0611  223.0864 H   0  0  0  0  0  0  0  0  0  0  0  0
  138.6066   69.3736  222.9877 H   0  0  0  0  0  0  0  0  0  0  0  0
  138.7289   67.6146  224.7159 H   0  0  0  0  0  0  0  0  0  0  0  0
  139.4623   66.9101  226.9003 H   0  0  0  0  0  0  0  0  0  0  0  0
  140.6477   67.4601  229.0441 H   0  0  0  0  0  0  0  0  0  0  0  0
  141.6375   69.6913  229.3838 H   0  0  0  0  0  0  0  0  0  0  0  0
  141.4987   71.4478  227.6296 H   0  0  0  0  0  0  0  0  0  0  0  0
  1  2  2  0
  2  3  1  0
  3  4  1  0
  4  5  1  0
  5  6  2  0
  5  7  1  0
  7  8  1  0
  8  9  1  0
  9 10  1  0
 10 11  1  0
 11 12  1  0
 12 13  1  0
 13 14  1  0
 14 15  2  0
 15 16  1  0
 16 17  2  0
 17 18  1  0
 17 19  1  0
 19 20  2  0
  2 21  1  0
 21 22  2  0
 22 23  1  0
 23 24  2  0
 24 25  1  0
 25 26  2  0
 26 27  1  0
 27 28  2  0
 28 29  1  0
 29 30  2  0
 12  7  1  0
 20 14  1  0
 30 21  1  0
 29 24  1  0
  3 31  1  0
  4 32  1  0
  4 33  1  0
  8 34  1  0
  8 35  1  0
  9 36  1  0
  9 37  1  0
 10 38  1  0
 10 39  1  0
 11 40  1  0
 11 41  1  0
 12 42  1  1
 13 43  1  0
 13 44  1  0
 15 45  1  0
 16 46  1  0
 19 47  1  0
 20 48  1  0
 22 49  1  0
 23 50  1  0
 25 51  1  0
 26 52  1  0
 27 53  1  0
 28 54  1  0
M  END
>  <smiles>  (4) 
O=C(NCC(=O)N1CCCC[C@H]1Cc1ccc(Cl)cc1)c1ccc2ccccc2n1

>  <score_type>  (4) 
oracle

>  <origin>  (4) 
autodockgpu

>  <m_score__min__energy>  (4) 
-9.0700000000000003

>  <m_primary>  (4) 
energy

>  <meeko>  (4) 
{"free_energy": -8.63, "intermolecular_energy": -10.42, "internal_energy": -1.68, "cluster_size": 7, "cluster_id": 1, "rank_in_cluster": 7}

>  <energy>  (4) 
-9.04

>  <cluster_rmsd>  (4) 
0.32

>  <rmsd>  (4) 
271.15

>  <cluster>  (4) 
1

$$$$

     RDKit          3D

 54 57  0  0  0  0  0  0  0  0999 V2000
  140.1870   70.7530  221.4150 O   0  0  0  0  0  0  0  0  0  0  0  0
  139.9290   71.3140  222.5230 C   0  0  0  0  0  0  0  0  0  0  0  0
  139.6670   72.7160  222.4660 N   0  0  0  0  0  0  0  0  0  0  0  0
  139.7220   73.3410  221.1650 C   0  0  0  0  0  0  0  0  0  0  0  0
  139.9900   74.8000  221.2620 C   0  0  0  0  0  0  0  0  0  0  0  0
  139.7780   75.4270  222.3380 O   0  0  0  0  0  0  0  0  0  0  0  0
  140.4900   75.4460  220.0970 N   0  0  0  0  0  0  0  0  0  0  0  0
  139.9280   75.2410  218.7800 C   0  0  0  0  0  0  0  0  0  0  0  0
  140.9470   74.9750  217.7250 C   0  0  0  0  0  0  0  0  0  0  0  0
  142.3360   75.3440  218.0130 C   0  0  0  0  0  0  0  0  0  0  0  0
  142.7030   75.7680  219.3790 C   0  0  0  0  0  0  0  0  0  0  0  0
  141.6140   76.3570  220.2130 C   0  0  1  0  0  0  0  0  0  0  0  0
  141.2290   77.7620  219.8080 C   0  0  0  0  0  0  0  0  0  0  0  0
  141.5290   78.6920  220.9280 C   0  0  0  0  0  0  0  0  0  0  0  0
  141.5270   78.3130  222.2500 C   0  0  0  0  0  0  0  0  0  0  0  0
  141.8110   79.2100  223.2620 C   0  0  0  0  0  0  0  0  0  0  0  0
  142.1020   80.5110  222.9030 C   0  0  0  0  0  0  0  0  0  0  0  0
  142.4620   81.6330  224.2190 Cl  0  0  0  0  0  0  0  0  0  0  0  0
  142.1210   80.9500  221.5970 C   0  0  0  0  0  0  0  0  0  0  0  0
  141.8270   80.0080  220.6240 C   0  0  0  0  0  0  0  0  0  0  0  0
  139.9000   70.5780  223.7850 C   0  0  0  0  0  0  0  0  0  0  0  0
  139.2480   69.3610  223.7940 C   0  0  0  0  0  0  0  0  0  0  0  0
  139.1770   68.6140  224.9370 C   0  0  0  0  0  0  0  0  0  0  0  0
  139.7780   69.1030  226.1010 C   0  0  0  0  0  0  0  0  0  0  0  0
  139.7140   68.3620  227.2500 C   0  0  0  0  0  0  0  0  0  0  0  0
  140.3250   68.8830  228.3920 C   0  0  0  0  0  0  0  0  0  0  0  0
  140.9700   70.1080  228.3470 C   0  0  0  0  0  0  0  0  0  0  0  0
  141.0390   70.8570  227.1940 C   0  0  0  0  0  0  0  0  0  0  0  0
  140.4300   70.3300  226.0730 C   0  0  0  0  0  0  0  0  0  0  0  0
  140.4750   71.0390  224.9120 N   0  0  0  0  0  0  0  0  0  0  0  0
  139.4470   73.2470  223.3290 H   0  0  0  0  0  0  0  0  0  0  0  0
  140.5243   72.8703  220.5779 H   0  0  0  0  0  0  0  0  0  0  0  0
  138.7440   73.2055  220.6800 H   0  0  0  0  0  0  0  0  0  0  0  0
  139.2433   74.3813  218.8252 H   0  0  0  0  0  0  0  0  0  0  0  0
  139.4154   76.1737  218.5020 H   0  0  0  0  0  0  0  0  0  0  0  0
  140.9302   73.8951  217.5164 H   0  0  0  0  0  0  0  0  0  0  0  0
  140.6548   75.6230  216.8855 H   0  0  0  0  0  0  0  0  0  0  0  0
  142.9572   74.4691  217.7708 H   0  0  0  0  0  0  0  0  0  0  0  0
  142.4959   76.2485  217.4078 H   0  0  0  0  0  0  0  0  0  0  0  0
  143.0890   74.8852  219.9097 H   0  0  0  0  0  0  0  0  0  0  0  0
  143.4343   76.5785  219.2437 H   0  0  0  0  0  0  0  0  0  0  0  0
  141.9575   76.4637  221.2525 H   0  0  0  0  0  0  0  0  0  0  0  0
  141.8040   78.0593  218.9186 H   0  0  0  0  0  0  0  0  0  0  0  0
  140.1547   77.7985  219.5745 H   0  0  0  0  0  0  0  0  0  0  0  0
  141.2934   77.2696  222.5083 H   0  0  0  0  0  0  0  0  0  0  0  0
  141.8054   78.8984  224.3169 H   0  0  0  0  0  0  0  0  0  0  0  0
  142.3571   81.9932  221.3403 H   0  0  0  0  0  0  0  0  0  0  0  0
  141.8308   80.3190  219.5689 H   0  0  0  0  0  0  0  0  0  0  0  0
  138.7802   68.9880  222.8709 H   0  0  0  0  0  0  0  0  0  0  0  0
  138.6561   67.6451  224.9408 H   0  0  0  0  0  0  0  0  0  0  0  0
  139.1993   67.3901  227.2728 H   0  0  0  0  0  0  0  0  0  0  0  0
  140.2940   68.3166  229.3344 H   0  0  0  0  0  0  0  0  0  0  0  0
  141.4423   70.4948  229.2621 H   0  0  0  0  0  0  0  0  0  0  0  0
  141.5545   71.8284  227.1673 H   0  0  0  0  0  0  0  0  0  0  0  0
  1  2  2  0
  2  3  1  0
  3  4  1  0
  4  5  1  0
  5  6  2  0
  5  7  1  0
  7  8  1  0
  8  9  1  0
  9 10  1  0
 10 11  1  0
 11 12  1  0
 12 13  1  0
 13 14  1  0
 14 15  2  0
 15 16  1  0
 16 17  2  0
 17 18  1  0
 17 19  1  0
 19 20  2  0
  2 21  1  0
 21 22  2  0
 22 23  1  0
 23 24  2  0
 24 25  1  0
 25 26  2  0
 26 27  1  0
 27 28  2  0
 28 29  1  0
 29 30  2  0
 12  7  1  0
 20 14  1  0
 30 21  1  0
 29 24  1  0
  3 31  1  0
  4 32  1  0
  4 33  1  0
  8 34  1  0
  8 35  1  0
  9 36  1  0
  9 37  1  0
 10 38  1  0
 10 39  1  0
 11 40  1  0
 11 41  1  0
 12 42  1  1
 13 43  1  0
 13 44  1  0
 15 45  1  0
 16 46  1  0
 19 47  1  0
 20 48  1  0
 22 49  1  0
 23 50  1  0
 25 51  1  0
 26 52  1  0
 27 53  1  0
 28 54  1  0
M  END
>  <smiles>  (5) 
O=C(NCC(=O)N1CCCC[C@H]1Cc1ccc(Cl)cc1)c1ccc2ccccc2n1

>  <score_type>  (5) 
oracle

>  <origin>  (5) 
autodockgpu

>  <m_score__min__energy>  (5) 
-9.0700000000000003

>  <m_primary>  (5) 
energy

>  <meeko>  (5) 
{"free_energy": -8.98, "intermolecular_energy": -10.77, "internal_energy": -1.73, "cluster_size": 7, "cluster_id": 1, "rank_in_cluster": 6}

>  <energy>  (5) 
-9.02

>  <cluster_rmsd>  (5) 
0.37

>  <rmsd>  (5) 
271.17

>  <cluster>  (5) 
1

$$$$

     RDKit          3D

 54 57  0  0  0  0  0  0  0  0999 V2000
  141.4760   72.2610  221.7720 O   0  0  0  0  0  0  0  0  0  0  0  0
  140.5210   72.4310  222.5890 C   0  0  0  0  0  0  0  0  0  0  0  0
  139.6720   73.5480  222.3330 N   0  0  0  0  0  0  0  0  0  0  0  0
  139.9860   74.3610  221.1810 C   0  0  0  0  0  0  0  0  0  0  0  0
  140.4370   75.7230  221.5700 C   0  0  0  0  0  0  0  0  0  0  0  0
  139.9570   76.3000  222.5850 O   0  0  0  0  0  0  0  0  0  0  0  0
  141.4250   76.3360  220.7490 N   0  0  0  0  0  0  0  0  0  0  0  0
  141.7520   77.7430  220.8270 C   0  0  0  0  0  0  0  0  0  0  0  0
  141.8160   78.4210  219.5010 C   0  0  0  0  0  0  0  0  0  0  0  0
  141.9560   77.5770  218.3120 C   0  0  0  0  0  0  0  0  0  0  0  0
  141.8280   76.1110  218.4460 C   0  0  0  0  0  0  0  0  0  0  0  0
  142.1500   75.5310  219.7830 C   0  0  1  0  0  0  0  0  0  0  0  0
  143.6290   75.4980  220.0920 C   0  0  0  0  0  0  0  0  0  0  0  0
  144.1600   74.1420  219.7940 C   0  0  0  0  0  0  0  0  0  0  0  0
  143.5160   73.2370  218.9820 C   0  0  0  0  0  0  0  0  0  0  0  0
  144.0450   71.9850  218.7310 C   0  0  0  0  0  0  0  0  0  0  0  0
  145.2510   71.6670  219.3230 C   0  0  0  0  0  0  0  0  0  0  0  0
  145.9000   70.0600  218.9800 Cl  0  0  0  0  0  0  0  0  0  0  0  0
  145.9430   72.5300  220.1440 C   0  0  0  0  0  0  0  0  0  0  0  0
  145.3660   73.7710  220.3610 C   0  0  0  0  0  0  0  0  0  0  0  0
  140.2960   71.5410  223.7260 C   0  0  0  0  0  0  0  0  0  0  0  0
  139.6390   70.3510  223.4800 C   0  0  0  0  0  0  0  0  0  0  0  0
  139.3910   69.4670  224.4930 C   0  0  0  0  0  0  0  0  0  0  0  0
  139.8160   69.7850  225.7860 C   0  0  0  0  0  0  0  0  0  0  0  0
  139.5740   68.9060  226.8070 C   0  0  0  0  0  0  0  0  0  0  0  0
  140.0130   69.2580  228.0840 C   0  0  0  0  0  0  0  0  0  0  0  0
  140.6690   70.4600  228.2950 C   0  0  0  0  0  0  0  0  0  0  0  0
  140.9160   71.3480  227.2720 C   0  0  0  0  0  0  0  0  0  0  0  0
  140.4770   70.9870  226.0150 C   0  0  0  0  0  0  0  0  0  0  0  0
  140.7010   71.8370  224.9760 N   0  0  0  0  0  0  0  0  0  0  0  0
  138.8680   73.7540  222.9550 H   0  0  0  0  0  0  0  0  0  0  0  0
  140.7871   73.8713  220.6078 H   0  0  0  0  0  0  0  0  0  0  0  0
  139.0723   74.4640  220.5772 H   0  0  0  0  0  0  0  0  0  0  0  0
  140.9849   78.2439  221.4358 H   0  0  0  0  0  0  0  0  0  0  0  0
  142.7556   77.8141  221.2716 H   0  0  0  0  0  0  0  0  0  0  0  0
  140.8897   79.0026  219.3841 H   0  0  0  0  0  0  0  0  0  0  0  0
  142.7436   79.0112  219.5344 H   0  0  0  0  0  0  0  0  0  0  0  0
  141.1871   77.9020  217.5956 H   0  0  0  0  0  0  0  0  0  0  0  0
  143.0048   77.7204  218.0131 H   0  0  0  0  0  0  0  0  0  0  0  0
  140.7878   75.8438  218.2082 H   0  0  0  0  0  0  0  0  0  0  0  0
  142.5778   75.6907  217.7596 H   0  0  0  0  0  0  0  0  0  0  0  0
  141.8477   74.4738  219.8126 H   0  0  0  0  0  0  0  0  0  0  0  0
  144.1511   76.2420  219.4724 H   0  0  0  0  0  0  0  0  0  0  0  0
  143.7901   75.7329  221.1545 H   0  0  0  0  0  0  0  0  0  0  0  0
  142.5570   73.5166  218.5215 H   0  0  0  0  0  0  0  0  0  0  0  0
  143.5230   71.2666  218.0818 H   0  0  0  0  0  0  0  0  0  0  0  0
  146.9024   72.2490  220.6028 H   0  0  0  0  0  0  0  0  0  0  0  0
  145.8877   74.4898  221.0100 H   0  0  0  0  0  0  0  0  0  0  0  0
  139.3117   70.1119  222.4574 H   0  0  0  0  0  0  0  0  0  0  0  0
  138.8658   68.5213  224.2938 H   0  0  0  0  0  0  0  0  0  0  0  0
  139.0515   67.9549  226.6271 H   0  0  0  0  0  0  0  0  0  0  0  0
  139.8370   68.5763  228.9292 H   0  0  0  0  0  0  0  0  0  0  0  0
  141.0031   70.7130  229.3120 H   0  0  0  0  0  0  0  0  0  0  0  0
  141.4384   72.2998  227.4487 H   0  0  0  0  0  0  0  0  0  0  0  0
  1  2  2  0
  2  3  1  0
  3  4  1  0
  4  5  1  0
  5  6  2  0
  5  7  1  0
  7  8  1  0
  8  9  1  0
  9 10  1  0
 10 11  1  0
 11 12  1  0
 12 13  1  0
 13 14  1  0
 14 15  2  0
 15 16  1  0
 16 17  2  0
 17 18  1  0
 17 19  1  0
 19 20  2  0
  2 21  1  0
 21 22  2  0
 22 23  1  0
 23 24  2  0
 24 25  1  0
 25 26  2  0
 26 27  1  0
 27 28  2  0
 28 29  1  0
 29 30  2  0
 12  7  1  0
 20 14  1  0
 30 21  1  0
 29 24  1  0
  3 31  1  0
  4 32  1  0
  4 33  1  0
  8 34  1  0
  8 35  1  0
  9 36  1  0
  9 37  1  0
 10 38  1  0
 10 39  1  0
 11 40  1  0
 11 41  1  0
 12 42  1  6
 13 43  1  0
 13 44  1  0
 15 45  1  0
 16 46  1  0
 19 47  1  0
 20 48  1  0
 22 49  1  0
 23 50  1  0
 25 51  1  0
 26 52  1  0
 27 53  1  0
 28 54  1  0
M  END
>  <smiles>  (6) 
O=C(NCC(=O)N1CCCC[C@H]1Cc1ccc(Cl)cc1)c1ccc2ccccc2n1

>  <score_type>  (6) 
oracle

>  <origin>  (6) 
autodockgpu

>  <m_score__min__energy>  (6) 
-9.0700000000000003

>  <m_primary>  (6) 
energy

>  <meeko>  (6) 
{"free_energy": -8.98, "intermolecular_energy": -10.77, "internal_energy": -1.75, "cluster_size": 10, "cluster_id": 2, "rank_in_cluster": 1}

>  <energy>  (6) 
-8.98

>  <cluster_rmsd>  (6) 
0.23

>  <rmsd>  (6) 
271.12

>  <cluster>  (6) 
1

$$$$

     RDKit          3D

 54 57  0  0  0  0  0  0  0  0999 V2000
  138.8250   75.5070  221.5860 O   0  0  0  0  0  0  0  0  0  0  0  0
  139.9870   75.9470  221.8420 C   0  0  0  0  0  0  0  0  0  0  0  0
  141.0640   75.0440  221.5930 N   0  0  0  0  0  0  0  0  0  0  0  0
  140.7200   73.7380  221.0800 C   0  0  0  0  0  0  0  0  0  0  0  0
  141.8570   72.7860  221.1810 C   0  0  0  0  0  0  0  0  0  0  0  0
  141.8260   71.8260  222.0010 O   0  0  0  0  0  0  0  0  0  0  0  0
  142.9670   73.0090  220.3200 N   0  0  0  0  0  0  0  0  0  0  0  0
  143.6560   71.9410  219.6290 C   0  0  0  0  0  0  0  0  0  0  0  0
  145.1410   72.0110  219.7410 C   0  0  0  0  0  0  0  0  0  0  0  0
  145.7330   73.2890  220.1430 C   0  0  0  0  0  0  0  0  0  0  0  0
  144.8520   74.3810  220.6080 C   0  0  0  0  0  0  0  0  0  0  0  0
  143.4450   74.3640  220.1080 C   0  0  1  0  0  0  0  0  0  0  0  0
  143.3080   74.7780  218.6610 C   0  0  0  0  0  0  0  0  0  0  0  0
  142.9750   76.2250  218.5970 C   0  0  0  0  0  0  0  0  0  0  0  0
  142.4950   76.9410  219.6700 C   0  0  0  0  0  0  0  0  0  0  0  0
  142.1980   78.2870  219.5680 C   0  0  0  0  0  0  0  0  0  0  0  0
  142.4000   78.8980  218.3470 C   0  0  0  0  0  0  0  0  0  0  0  0
  142.0120   80.6180  218.2500 Cl  0  0  0  0  0  0  0  0  0  0  0  0
  142.8790   78.2350  217.2370 C   0  0  0  0  0  0  0  0  0  0  0  0
  143.1590   76.8870  217.3980 C   0  0  0  0  0  0  0  0  0  0  0  0
  140.2180   77.2930  222.3610 C   0  0  0  0  0  0  0  0  0  0  0  0
  139.1080   78.0390  222.7070 C   0  0  0  0  0  0  0  0  0  0  0  0
  139.2430   79.3070  223.1980 C   0  0  0  0  0  0  0  0  0  0  0  0
  140.5260   79.8400  223.3480 C   0  0  0  0  0  0  0  0  0  0  0  0
  140.6720   81.1090  223.8400 C   0  0  0  0  0  0  0  0  0  0  0  0
  141.9690   81.6070  223.9740 C   0  0  0  0  0  0  0  0  0  0  0  0
  143.0610   80.8310  223.6170 C   0  0  0  0  0  0  0  0  0  0  0  0
  142.9200   79.5550  223.1220 C   0  0  0  0  0  0  0  0  0  0  0  0
  141.6320   79.0750  222.9940 C   0  0  0  0  0  0  0  0  0  0  0  0
  141.4500   77.8170  222.5090 N   0  0  0  0  0  0  0  0  0  0  0  0
  142.0440   75.3280  221.7760 H   0  0  0  0  0  0  0  0  0  0  0  0
  139.8717   73.3413  221.6571 H   0  0  0  0  0  0  0  0  0  0  0  0
  140.4599   73.8469  220.0168 H   0  0  0  0  0  0  0  0  0  0  0  0
  143.3213   70.9821  220.0514 H   0  0  0  0  0  0  0  0  0  0  0  0
  143.4104   72.0396  218.5613 H   0  0  0  0  0  0  0  0  0  0  0  0
  145.4507   71.2581  220.4807 H   0  0  0  0  0  0  0  0  0  0  0  0
  145.5057   71.8452  218.7165 H   0  0  0  0  0  0  0  0  0  0  0  0
  146.4359   73.0736  220.9613 H   0  0  0  0  0  0  0  0  0  0  0  0
  146.1630   73.6814  219.2097 H   0  0  0  0  0  0  0  0  0  0  0  0
  144.8163   74.3361  221.7065 H   0  0  0  0  0  0  0  0  0  0  0  0
  145.2932   75.3028  220.2010 H   0  0  0  0  0  0  0  0  0  0  0  0
  142.8457   75.1069  220.6548 H   0  0  0  0  0  0  0  0  0  0  0  0
  144.2563   74.5949  218.1344 H   0  0  0  0  0  0  0  0  0  0  0  0
  142.5085   74.1929  218.1829 H   0  0  0  0  0  0  0  0  0  0  0  0
  142.3441   76.4296  220.6321 H   0  0  0  0  0  0  0  0  0  0  0  0
  141.8139   78.8518  220.4302 H   0  0  0  0  0  0  0  0  0  0  0  0
  143.0307   78.7480  216.2758 H   0  0  0  0  0  0  0  0  0  0  0  0
  143.5432   76.3213  216.5364 H   0  0  0  0  0  0  0  0  0  0  0  0
  138.1036   77.6072  222.5858 H   0  0  0  0  0  0  0  0  0  0  0  0
  138.3565   79.8984  223.4706 H   0  0  0  0  0  0  0  0  0  0  0  0
  139.7978   81.7151  224.1200 H   0  0  0  0  0  0  0  0  0  0  0  0
  142.1259   82.6228  224.3658 H   0  0  0  0  0  0  0  0  0  0  0  0
  144.0720   81.2486  223.7332 H   0  0  0  0  0  0  0  0  0  0  0  0
  143.7922   78.9462  222.8415 H   0  0  0  0  0  0  0  0  0  0  0  0
  1  2  2  0
  2  3  1  0
  3  4  1  0
  4  5  1  0
  5  6  2  0
  5  7  1  0
  7  8  1  0
  8  9  1  0
  9 10  1  0
 10 11  1  0
 11 12  1  0
 12 13  1  0
 13 14  1  0
 14 15  2  0
 15 16  1  0
 16 17  2  0
 17 18  1  0
 17 19  1  0
 19 20  2  0
  2 21  1  0
 21 22  2  0
 22 23  1  0
 23 24  2  0
 24 25  1  0
 25 26  2  0
 26 27  1  0
 27 28  2  0
 28 29  1  0
 29 30  2  0
 12  7  1  0
 20 14  1  0
 30 21  1  0
 29 24  1  0
  3 31  1  0
  4 32  1  0
  4 33  1  0
  8 34  1  0
  8 35  1  0
  9 36  1  0
  9 37  1  0
 10 38  1  0
 10 39  1  0
 11 40  1  0
 11 41  1  0
 12 42  1  1
 13 43  1  0
 13 44  1  0
 15 45  1  0
 16 46  1  0
 19 47  1  0
 20 48  1  0
 22 49  1  0
 23 50  1  0
 25 51  1  0
 26 52  1  0
 27 53  1  0
 28 54  1  0
M  END
>  <smiles>  (7) 
O=C(NCC(=O)N1CCCC[C@H]1Cc1ccc(Cl)cc1)c1ccc2ccccc2n1

>  <score_type>  (7) 
oracle

>  <origin>  (7) 
autodockgpu

>  <m_score__min__energy>  (7) 
-9.0700000000000003

>  <m_primary>  (7) 
energy

>  <meeko>  (7) 
{"free_energy": -8.05, "intermolecular_energy": -9.84, "internal_energy": -2.45, "cluster_size": 3, "cluster_id": 3, "rank_in_cluster": 2}

>  <energy>  (7) 
-8.63

>  <cluster_rmsd>  (7) 
1.19

>  <rmsd>  (7) 
271.34

>  <cluster>  (7) 
1

$$$$

     RDKit          3D

 54 57  0  0  0  0  0  0  0  0999 V2000
  140.0980   70.8640  221.4100 O   0  0  0  0  0  0  0  0  0  0  0  0
  139.8870   71.4380  222.5220 C   0  0  0  0  0  0  0  0  0  0  0  0
  139.6770   72.8480  222.4660 N   0  0  0  0  0  0  0  0  0  0  0  0
  139.7260   73.4680  221.1620 C   0  0  0  0  0  0  0  0  0  0  0  0
  140.1310   74.8960  221.2410 C   0  0  0  0  0  0  0  0  0  0  0  0
  139.9730   75.5550  222.3060 O   0  0  0  0  0  0  0  0  0  0  0  0
  140.6960   75.4740  220.0710 N   0  0  0  0  0  0  0  0  0  0  0  0
  140.2100   75.1930  218.7380 C   0  0  0  0  0  0  0  0  0  0  0  0
  141.2860   74.8700  217.7590 C   0  0  0  0  0  0  0  0  0  0  0  0
  142.6570   75.2570  218.1030 C   0  0  0  0  0  0  0  0  0  0  0  0
  142.9470   75.7600  219.4620 C   0  0  0  0  0  0  0  0  0  0  0  0
  141.8130   76.3940  220.1970 C   0  0  1  0  0  0  0  0  0  0  0  0
  141.4540   77.7720  219.6910 C   0  0  0  0  0  0  0  0  0  0  0  0
  141.6440   78.7590  220.7860 C   0  0  0  0  0  0  0  0  0  0  0  0
  141.8620   80.1000  220.5690 C   0  0  0  0  0  0  0  0  0  0  0  0
  142.0340   80.9850  221.6160 C   0  0  0  0  0  0  0  0  0  0  0  0
  141.9780   80.4800  222.8990 C   0  0  0  0  0  0  0  0  0  0  0  0
  142.2010   81.6370  224.2150 Cl  0  0  0  0  0  0  0  0  0  0  0  0
  141.7630   79.1480  223.1810 C   0  0  0  0  0  0  0  0  0  0  0  0
  141.5980   78.3060  222.0920 C   0  0  0  0  0  0  0  0  0  0  0  0
  139.8580   70.7070  223.7870 C   0  0  0  0  0  0  0  0  0  0  0  0
  139.2190   69.4830  223.7980 C   0  0  0  0  0  0  0  0  0  0  0  0
  139.1500   68.7410  224.9440 C   0  0  0  0  0  0  0  0  0  0  0  0
  139.7400   69.2400  226.1080 C   0  0  0  0  0  0  0  0  0  0  0  0
  139.6770   68.5040  227.2610 C   0  0  0  0  0  0  0  0  0  0  0  0
  140.2770   69.0350  228.4030 C   0  0  0  0  0  0  0  0  0  0  0  0
  140.9110   70.2670  228.3560 C   0  0  0  0  0  0  0  0  0  0  0  0
  140.9770   71.0120  227.2000 C   0  0  0  0  0  0  0  0  0  0  0  0
  140.3800   70.4740  226.0780 C   0  0  0  0  0  0  0  0  0  0  0  0
  140.4230   71.1790  224.9150 N   0  0  0  0  0  0  0  0  0  0  0  0
  139.4970   73.3900  223.3310 H   0  0  0  0  0  0  0  0  0  0  0  0
  140.4523   72.9266  220.5381 H   0  0  0  0  0  0  0  0  0  0  0  0
  138.7171   73.4239  220.7259 H   0  0  0  0  0  0  0  0  0  0  0  0
  139.5232   74.3356  218.7933 H   0  0  0  0  0  0  0  0  0  0  0  0
  139.7154   76.1076  218.3789 H   0  0  0  0  0  0  0  0  0  0  0  0
  141.2794   73.7800  217.6109 H   0  0  0  0  0  0  0  0  0  0  0  0
  141.0423   75.4693  216.8694 H   0  0  0  0  0  0  0  0  0  0  0  0
  143.2894   74.3705  217.9472 H   0  0  0  0  0  0  0  0  0  0  0  0
  142.8526   76.1252  217.4566 H   0  0  0  0  0  0  0  0  0  0  0  0
  143.3009   74.9100  220.0638 H   0  0  0  0  0  0  0  0  0  0  0  0
  143.6863   76.5624  219.3222 H   0  0  0  0  0  0  0  0  0  0  0  0
  142.0964   76.5619  221.2465 H   0  0  0  0  0  0  0  0  0  0  0  0
  142.1040   78.0335  218.8430 H   0  0  0  0  0  0  0  0  0  0  0  0
  140.4047   77.7830  219.3612 H   0  0  0  0  0  0  0  0  0  0  0  0
  141.9003   80.4769  219.5363 H   0  0  0  0  0  0  0  0  0  0  0  0
  142.2095   82.0554  221.4331 H   0  0  0  0  0  0  0  0  0  0  0  0
  141.7244   78.7732  224.2145 H   0  0  0  0  0  0  0  0  0  0  0  0
  141.4236   77.2352  222.2738 H   0  0  0  0  0  0  0  0  0  0  0  0
  138.7603   69.1007  222.8742 H   0  0  0  0  0  0  0  0  0  0  0  0
  138.6384   67.7672  224.9496 H   0  0  0  0  0  0  0  0  0  0  0  0
  139.1708   67.5277  227.2859 H   0  0  0  0  0  0  0  0  0  0  0  0
  140.2468   68.4721  229.3476 H   0  0  0  0  0  0  0  0  0  0  0  0
  141.3761   70.6619  229.2713 H   0  0  0  0  0  0  0  0  0  0  0  0
  141.4814   71.9891  227.1720 H   0  0  0  0  0  0  0  0  0  0  0  0
  1  2  2  0
  2  3  1  0
  3  4  1  0
  4  5  1  0
  5  6  2  0
  5  7  1  0
  7  8  1  0
  8  9  1  0
  9 10  1  0
 10 11  1  0
 11 12  1  0
 12 13  1  0
 13 14  1  0
 14 15  2  0
 15 16  1  0
 16 17  2  0
 17 18  1  0
 17 19  1  0
 19 20  2  0
  2 21  1  0
 21 22  2  0
 22 23  1  0
 23 24  2  0
 24 25  1  0
 25 26  2  0
 26 27  1  0
 27 28  2  0
 28 29  1  0
 29 30  2  0
 12  7  1  0
 20 14  1  0
 30 21  1  0
 29 24  1  0
  3 31  1  0
  4 32  1  0
  4 33  1  0
  8 34  1  0
  8 35  1  0
  9 36  1  0
  9 37  1  0
 10 38  1  0
 10 39  1  0
 11 40  1  0
 11 41  1  0
 12 42  1  1
 13 43  1  0
 13 44  1  0
 15 45  1  0
 16 46  1  0
 19 47  1  0
 20 48  1  0
 22 49  1  0
 23 50  1  0
 25 51  1  0
 26 52  1  0
 27 53  1  0
 28 54  1  0
M  END
>  <smiles>  (8) 
O=C(NCC(=O)N1CCCC[C@H]1Cc1ccc(Cl)cc1)c1ccc2ccccc2n1

>  <score_type>  (8) 
oracle

>  <origin>  (8) 
autodockgpu

>  <m_score__min__energy>  (8) 
-9.0700000000000003

>  <m_primary>  (8) 
energy

>  <meeko>  (8) 
{"free_energy": -9.04, "intermolecular_energy": -10.83, "internal_energy": -1.75, "cluster_size": 7, "cluster_id": 1, "rank_in_cluster": 4}

>  <energy>  (8) 
-8.98

>  <cluster_rmsd>  (8) 
0.0

>  <rmsd>  (8) 
270.83

>  <cluster>  (8) 
2

$$$$

     RDKit          3D

 54 57  0  0  0  0  0  0  0  0999 V2000
  139.7460   70.5750  221.4270 O   0  0  0  0  0  0  0  0  0  0  0  0
  139.7330   71.1290  222.5680 C   0  0  0  0  0  0  0  0  0  0  0  0
  139.6570   72.5540  222.5690 N   0  0  0  0  0  0  0  0  0  0  0  0
  139.6040   73.2090  221.2820 C   0  0  0  0  0  0  0  0  0  0  0  0
  139.8680   74.6670  221.3900 C   0  0  0  0  0  0  0  0  0  0  0  0
  139.5820   75.3010  222.4450 O   0  0  0  0  0  0  0  0  0  0  0  0
  140.4510   75.3050  220.2600 N   0  0  0  0  0  0  0  0  0  0  0  0
  140.0350   75.0360  218.9010 C   0  0  0  0  0  0  0  0  0  0  0  0
  141.1670   74.7950  217.9610 C   0  0  0  0  0  0  0  0  0  0  0  0
  142.5000   75.2410  218.3730 C   0  0  0  0  0  0  0  0  0  0  0  0
  142.7070   75.7200  219.7550 C   0  0  0  0  0  0  0  0  0  0  0  0
  141.5120   76.2760  220.4570 C   0  0  1  0  0  0  0  0  0  0  0  0
  141.1040   77.6470  219.9710 C   0  0  0  0  0  0  0  0  0  0  0  0
  141.4640   78.6580  221.0000 C   0  0  0  0  0  0  0  0  0  0  0  0
  141.8220   79.9520  220.7000 C   0  0  0  0  0  0  0  0  0  0  0  0
  142.1490   80.8610  221.6870 C   0  0  0  0  0  0  0  0  0  0  0  0
  142.1050   80.4290  222.9980 C   0  0  0  0  0  0  0  0  0  0  0  0
  142.5270   81.6140  224.2370 Cl  0  0  0  0  0  0  0  0  0  0  0  0
  141.7530   79.1460  223.3610 C   0  0  0  0  0  0  0  0  0  0  0  0
  141.4360   78.2780  222.3290 C   0  0  0  0  0  0  0  0  0  0  0  0
  139.7910   70.3640  223.8110 C   0  0  0  0  0  0  0  0  0  0  0  0
  139.1990   69.1160  223.8160 C   0  0  0  0  0  0  0  0  0  0  0  0
  139.2120   68.3400  224.9410 C   0  0  0  0  0  0  0  0  0  0  0  0
  139.8370   68.8300  226.0910 C   0  0  0  0  0  0  0  0  0  0  0  0
  139.8560   68.0600  227.2240 C   0  0  0  0  0  0  0  0  0  0  0  0
  140.4880   68.5830  228.3520 C   0  0  0  0  0  0  0  0  0  0  0  0
  141.0720   69.8390  228.3130 C   0  0  0  0  0  0  0  0  0  0  0  0
  141.0560   70.6170  227.1770 C   0  0  0  0  0  0  0  0  0  0  0  0
  140.4280   70.0880  226.0690 C   0  0  0  0  0  0  0  0  0  0  0  0
  140.3900   70.8250  224.9260 N   0  0  0  0  0  0  0  0  0  0  0  0
  139.6410   73.0820  223.4610 H   0  0  0  0  0  0  0  0  0  0  0  0
  140.3606   72.7587  220.6226 H   0  0  0  0  0  0  0  0  0  0  0  0
  138.5914   73.0757  220.8736 H   0  0  0  0  0  0  0  0  0  0  0  0
  139.3921   74.1435  218.9055 H   0  0  0  0  0  0  0  0  0  0  0  0
  139.5080   75.9331  218.5441 H   0  0  0  0  0  0  0  0  0  0  0  0
  141.2230   73.7106  217.7852 H   0  0  0  0  0  0  0  0  0  0  0  0
  140.9299   75.4058  217.0774 H   0  0  0  0  0  0  0  0  0  0  0  0
  143.1833   74.3923  218.2218 H   0  0  0  0  0  0  0  0  0  0  0  0
  142.6770   76.1356  217.7580 H   0  0  0  0  0  0  0  0  0  0  0  0
  143.0788   74.8725  220.3496 H   0  0  0  0  0  0  0  0  0  0  0  0
  143.4093   76.5621  219.6675 H   0  0  0  0  0  0  0  0  0  0  0  0
  141.7424   76.4295  221.5216 H   0  0  0  0  0  0  0  0  0  0  0  0
  141.6286   77.8754  219.0315 H   0  0  0  0  0  0  0  0  0  0  0  0
  140.0183   77.6688  219.7956 H   0  0  0  0  0  0  0  0  0  0  0  0
  141.8485   80.2707  219.6475 H   0  0  0  0  0  0  0  0  0  0  0  0
  142.4347   81.8935  221.4375 H   0  0  0  0  0  0  0  0  0  0  0  0
  141.7254   78.8288  224.4139 H   0  0  0  0  0  0  0  0  0  0  0  0
  141.1506   77.2450  222.5768 H   0  0  0  0  0  0  0  0  0  0  0  0
  138.7113   68.7422  222.9036 H   0  0  0  0  0  0  0  0  0  0  0  0
  138.7388   67.3470  224.9413 H   0  0  0  0  0  0  0  0  0  0  0  0
  139.3892   67.0642  227.2434 H   0  0  0  0  0  0  0  0  0  0  0  0
  140.5231   67.9936  229.2801 H   0  0  0  0  0  0  0  0  0  0  0  0
  141.5636   70.2265  229.2175 H   0  0  0  0  0  0  0  0  0  0  0  0
  141.5220   71.6132  227.1543 H   0  0  0  0  0  0  0  0  0  0  0  0
  1  2  2  0
  2  3  1  0
  3  4  1  0
  4  5  1  0
  5  6  2  0
  5  7  1  0
  7  8  1  0
  8  9  1  0
  9 10  1  0
 10 11  1  0
 11 12  1  0
 12 13  1  0
 13 14  1  0
 14 15  2  0
 15 16  1  0
 16 17  2  0
 17 18  1  0
 17 19  1  0
 19 20  2  0
  2 21  1  0
 21 22  2  0
 22 23  1  0
 23 24  2  0
 24 25  1  0
 25 26  2  0
 26 27  1  0
 27 28  2  0
 28 29  1  0
 29 30  2  0
 12  7  1  0
 20 14  1  0
 30 21  1  0
 29 24  1  0
  3 31  1  0
  4 32  1  0
  4 33  1  0
  8 34  1  0
  8 35  1  0
  9 36  1  0
  9 37  1  0
 10 38  1  0
 10 39  1  0
 11 40  1  0
 11 41  1  0
 12 42  1  1
 13 43  1  0
 13 44  1  0
 15 45  1  0
 16 46  1  0
 19 47  1  0
 20 48  1  0
 22 49  1  0
 23 50  1  0
 25 51  1  0
 26 52  1  0
 27 53  1  0
 28 54  1  0
M  END
>  <smiles>  (9) 
O=C(NCC(=O)N1CCCC[C@H]1Cc1ccc(Cl)cc1)c1ccc2ccccc2n1

>  <score_type>  (9) 
oracle

>  <origin>  (9) 
autodockgpu

>  <m_score__min__energy>  (9) 
-9.0700000000000003

>  <m_primary>  (9) 
energy

>  <meeko>  (9) 
{"free_energy": -9.06, "intermolecular_energy": -10.85, "internal_energy": -1.75, "cluster_size": 7, "cluster_id": 1, "rank_in_cluster": 3}

>  <energy>  (9) 
-8.92

>  <cluster_rmsd>  (9) 
0.22

>  <rmsd>  (9) 
270.88

>  <cluster>  (9) 
2

$$$$

     RDKit          3D

 54 57  0  0  0  0  0  0  0  0999 V2000
  141.4580   72.0160  221.6550 O   0  0  0  0  0  0  0  0  0  0  0  0
  140.6160   72.3460  222.5460 C   0  0  0  0  0  0  0  0  0  0  0  0
  139.9540   73.5940  222.3460 N   0  0  0  0  0  0  0  0  0  0  0  0
  140.3090   74.3430  221.1620 C   0  0  0  0  0  0  0  0  0  0  0  0
  140.4800   75.7910  221.4520 C   0  0  0  0  0  0  0  0  0  0  0  0
  139.7970   76.3570  222.3510 O   0  0  0  0  0  0  0  0  0  0  0  0
  141.4390   76.4980  220.6750 N   0  0  0  0  0  0  0  0  0  0  0  0
  141.7490   77.8950  220.8850 C   0  0  0  0  0  0  0  0  0  0  0  0
  141.7740   78.7020  219.6320 C   0  0  0  0  0  0  0  0  0  0  0  0
  141.8970   77.9820  218.3620 C   0  0  0  0  0  0  0  0  0  0  0  0
  141.7920   76.5080  218.3530 C   0  0  0  0  0  0  0  0  0  0  0  0
  142.1540   75.8040  219.6190 C   0  0  1  0  0  0  0  0  0  0  0  0
  143.6400   75.7640  219.8910 C   0  0  0  0  0  0  0  0  0  0  0  0
  144.1440   74.3880  219.6430 C   0  0  0  0  0  0  0  0  0  0  0  0
  143.6890   73.5850  218.6230 C   0  0  0  0  0  0  0  0  0  0  0  0
  144.1850   72.3100  218.4260 C   0  0  0  0  0  0  0  0  0  0  0  0
  145.1640   71.8630  219.2910 C   0  0  0  0  0  0  0  0  0  0  0  0
  145.7790   70.2310  219.0130 Cl  0  0  0  0  0  0  0  0  0  0  0  0
  145.6610   72.6200  220.3300 C   0  0  0  0  0  0  0  0  0  0  0  0
  145.1260   73.8890  220.4800 C   0  0  0  0  0  0  0  0  0  0  0  0
  140.3360   71.5060  223.7070 C   0  0  0  0  0  0  0  0  0  0  0  0
  139.6660   70.3180  223.4840 C   0  0  0  0  0  0  0  0  0  0  0  0
  139.3670   69.4800  224.5210 C   0  0  0  0  0  0  0  0  0  0  0  0
  139.7510   69.8420  225.8150 C   0  0  0  0  0  0  0  0  0  0  0  0
  139.4570   69.0070  226.8600 C   0  0  0  0  0  0  0  0  0  0  0  0
  139.8560   69.4030  228.1380 C   0  0  0  0  0  0  0  0  0  0  0  0
  140.5260   70.6020  228.3250 C   0  0  0  0  0  0  0  0  0  0  0  0
  140.8250   71.4440  227.2780 C   0  0  0  0  0  0  0  0  0  0  0  0
  140.4240   71.0400  226.0210 C   0  0  0  0  0  0  0  0  0  0  0  0
  140.7010   71.8450  224.9590 N   0  0  0  0  0  0  0  0  0  0  0  0
  139.2520   73.9350  223.0280 H   0  0  0  0  0  0  0  0  0  0  0  0
  141.2534   73.9469  220.7606 H   0  0  0  0  0  0  0  0  0  0  0  0
  139.4921   74.2357  220.4333 H   0  0  0  0  0  0  0  0  0  0  0  0
  140.9894   78.3214  221.5567 H   0  0  0  0  0  0  0  0  0  0  0  0
  142.7616   77.9371  221.3127 H   0  0  0  0  0  0  0  0  0  0  0  0
  140.8381   79.2787  219.5937 H   0  0  0  0  0  0  0  0  0  0  0  0
  142.6948   79.2995  219.7038 H   0  0  0  0  0  0  0  0  0  0  0  0
  141.1069   78.3640  217.6988 H   0  0  0  0  0  0  0  0  0  0  0  0
  142.9363   78.1709  218.0551 H   0  0  0  0  0  0  0  0  0  0  0  0
  140.7501   76.2492  218.1134 H   0  0  0  0  0  0  0  0  0  0  0  0
  142.5306   76.1693  217.6115 H   0  0  0  0  0  0  0  0  0  0  0  0
  141.8687   74.7438  219.5507 H   0  0  0  0  0  0  0  0  0  0  0  0
  144.1555   76.4707  219.2240 H   0  0  0  0  0  0  0  0  0  0  0  0
  143.8326   76.0459  220.9367 H   0  0  0  0  0  0  0  0  0  0  0  0
  142.9103   73.9674  217.9467 H   0  0  0  0  0  0  0  0  0  0  0  0
  143.8130   71.6740  217.6092 H   0  0  0  0  0  0  0  0  0  0  0  0
  146.4410   72.2369  221.0043 H   0  0  0  0  0  0  0  0  0  0  0  0
  145.4968   74.5252  221.2972 H   0  0  0  0  0  0  0  0  0  0  0  0
  139.3702   70.0441  222.4605 H   0  0  0  0  0  0  0  0  0  0  0  0
  138.8327   68.5357  224.3402 H   0  0  0  0  0  0  0  0  0  0  0  0
  138.9252   68.0578  226.6981 H   0  0  0  0  0  0  0  0  0  0  0  0
  139.6372   68.7590  229.0025 H   0  0  0  0  0  0  0  0  0  0  0  0
  140.8284   70.8898  229.3427 H   0  0  0  0  0  0  0  0  0  0  0  0
  141.3580   72.3933  227.4357 H   0  0  0  0  0  0  0  0  0  0  0  0
  1  2  2  0
  2  3  1  0
  3  4  1  0
  4  5  1  0
  5  6  2  0
  5  7  1  0
  7  8  1  0
  8  9  1  0
  9 10  1  0
 10 11  1  0
 11 12  1  0
 12 13  1  0
 13 14  1  0
 14 15  2  0
 15 16  1  0
 16 17  2  0
 17 18  1  0
 17 19  1  0
 19 20  2  0
  2 21  1  0
 21 22  2  0
 22 23  1  0
 23 24  2  0
 24 25  1  0
 25 26  2  0
 26 27  1  0
 27 28  2  0
 28 29  1  0
 29 30  2  0
 12  7  1  0
 20 14  1  0
 30 21  1  0
 29 24  1  0
  3 31  1  0
  4 32  1  0
  4 33  1  0
  8 34  1  0
  8 35  1  0
  9 36  1  0
  9 37  1  0
 10 38  1  0
 10 39  1  0
 11 40  1  0
 11 41  1  0
 12 42  1  6
 13 43  1  0
 13 44  1  0
 15 45  1  0
 16 46  1  0
 19 47  1  0
 20 48  1  0
 22 49  1  0
 23 50  1  0
 25 51  1  0
 26 52  1  0
 27 53  1  0
 28 54  1  0
M  END
>  <smiles>  (10) 
O=C(NCC(=O)N1CCCC[C@H]1Cc1ccc(Cl)cc1)c1ccc2ccccc2n1

>  <score_type>  (10) 
oracle

>  <origin>  (10) 
autodockgpu

>  <m_score__min__energy>  (10) 
-9.0700000000000003

>  <m_primary>  (10) 
energy

>  <meeko>  (10) 
{"free_energy": -8.85, "intermolecular_energy": -10.64, "internal_energy": -1.83, "cluster_size": 10, "cluster_id": 2, "rank_in_cluster": 5}

>  <energy>  (10) 
-8.92

>  <cluster_rmsd>  (10) 
0.16

>  <rmsd>  (10) 
270.86

>  <cluster>  (10) 
2

$$$$

     RDKit          3D

 54 57  0  0  0  0  0  0  0  0999 V2000
  141.5860   72.4460  221.6220 O   0  0  0  0  0  0  0  0  0  0  0  0
  140.6620   72.6380  222.4690 C   0  0  0  0  0  0  0  0  0  0  0  0
  139.9450   73.8650  222.3420 N   0  0  0  0  0  0  0  0  0  0  0  0
  140.3430   74.7500  221.2730 C   0  0  0  0  0  0  0  0  0  0  0  0
  140.3750   76.1700  221.7110 C   0  0  0  0  0  0  0  0  0  0  0  0
  139.6420   76.5730  222.6570 O   0  0  0  0  0  0  0  0  0  0  0  0
  141.2610   77.0420  221.0190 N   0  0  0  0  0  0  0  0  0  0  0  0
  141.7180   78.3000  221.5660 C   0  0  0  0  0  0  0  0  0  0  0  0
  141.6190   79.4430  220.6140 C   0  0  0  0  0  0  0  0  0  0  0  0
  141.4840   79.1310  219.1890 C   0  0  0  0  0  0  0  0  0  0  0  0
  141.2540   77.7320  218.7730 C   0  0  0  0  0  0  0  0  0  0  0  0
  141.7430   76.6690  219.7010 C   0  0  1  0  0  0  0  0  0  0  0  0
  143.2450   76.4960  219.6900 C   0  0  0  0  0  0  0  0  0  0  0  0
  143.5690   75.0460  219.7130 C   0  0  0  0  0  0  0  0  0  0  0  0
  144.5820   74.5070  220.4730 C   0  0  0  0  0  0  0  0  0  0  0  0
  144.8510   73.1510  220.4660 C   0  0  0  0  0  0  0  0  0  0  0  0
  144.0640   72.3450  219.6670 C   0  0  0  0  0  0  0  0  0  0  0  0
  144.4320   70.6180  219.6810 Cl  0  0  0  0  0  0  0  0  0  0  0  0
  143.0360   72.8260  218.8850 C   0  0  0  0  0  0  0  0  0  0  0  0
  142.8120   74.1920  218.9310 C   0  0  0  0  0  0  0  0  0  0  0  0
  140.3440   71.6670  223.5140 C   0  0  0  0  0  0  0  0  0  0  0  0
  139.6340   70.5430  223.1410 C   0  0  0  0  0  0  0  0  0  0  0  0
  139.2980   69.5900  224.0620 C   0  0  0  0  0  0  0  0  0  0  0  0
  139.6870   69.7710  225.3920 C   0  0  0  0  0  0  0  0  0  0  0  0
  139.3560   68.8220  226.3220 C   0  0  0  0  0  0  0  0  0  0  0  0
  139.7600   69.0370  227.6400 C   0  0  0  0  0  0  0  0  0  0  0  0
  140.4720   70.1770  227.9800 C   0  0  0  0  0  0  0  0  0  0  0  0
  140.8080   71.1340  227.0490 C   0  0  0  0  0  0  0  0  0  0  0  0
  140.4010   70.9080  225.7500 C   0  0  0  0  0  0  0  0  0  0  0  0
  140.7130   71.8310  224.7990 N   0  0  0  0  0  0  0  0  0  0  0  0
  139.1740   74.0960  222.9960 H   0  0  0  0  0  0  0  0  0  0  0  0
  141.3469   74.4617  220.9280 H   0  0  0  0  0  0  0  0  0  0  0  0
  139.6039   74.6599  220.4633 H   0  0  0  0  0  0  0  0  0  0  0  0
  141.1101   78.5337  222.4525 H   0  0  0  0  0  0  0  0  0  0  0  0
  142.7841   78.1756  221.8066 H   0  0  0  0  0  0  0  0  0  0  0  0
  140.7408   80.0381  220.9049 H   0  0  0  0  0  0  0  0  0  0  0  0
  142.5873   79.9584  220.6958 H   0  0  0  0  0  0  0  0  0  0  0  0
  140.6369   79.7217  218.8102 H   0  0  0  0  0  0  0  0  0  0  0  0
  142.4763   79.3654  218.7762 H   0  0  0  0  0  0  0  0  0  0  0  0
  140.1696   77.5945  218.6500 H   0  0  0  0  0  0  0  0  0  0  0  0
  141.8400   77.6038  217.8509 H   0  0  0  0  0  0  0  0  0  0  0  0
  141.3597   75.6889  219.3809 H   0  0  0  0  0  0  0  0  0  0  0  0
  143.6614   76.9518  218.7796 H   0  0  0  0  0  0  0  0  0  0  0  0
  143.6804   76.9865  220.5731 H   0  0  0  0  0  0  0  0  0  0  0  0
  145.1928   75.1717  221.1016 H   0  0  0  0  0  0  0  0  0  0  0  0
  145.6635   72.7287  221.0755 H   0  0  0  0  0  0  0  0  0  0  0  0
  142.4256   72.1600  218.2574 H   0  0  0  0  0  0  0  0  0  0  0  0
  141.9998   74.6147  218.3214 H   0  0  0  0  0  0  0  0  0  0  0  0
  139.3352   70.4128  222.0904 H   0  0  0  0  0  0  0  0  0  0  0  0
  138.7314   68.6964  223.7613 H   0  0  0  0  0  0  0  0  0  0  0  0
  138.7911   67.9213  226.0397 H   0  0  0  0  0  0  0  0  0  0  0  0
  139.5118   68.2968  228.4149 H   0  0  0  0  0  0  0  0  0  0  0  0
  140.7781   70.3214  229.0266 H   0  0  0  0  0  0  0  0  0  0  0  0
  141.3737   72.0354  227.3273 H   0  0  0  0  0  0  0  0  0  0  0  0
  1  2  2  0
  2  3  1  0
  3  4  1  0
  4  5  1  0
  5  6  2  0
  5  7  1  0
  7  8  1  0
  8  9  1  0
  9 10  1  0
 10 11  1  0
 11 12  1  0
 12 13  1  0
 13 14  1  0
 14 15  2  0
 15 16  1  0
 16 17  2  0
 17 18  1  0
 17 19  1  0
 19 20  2  0
  2 21  1  0
 21 22  2  0
 22 23  1  0
 23 24  2  0
 24 25  1  0
 25 26  2  0
 26 27  1  0
 27 28  2  0
 28 29  1  0
 29 30  2  0
 12  7  1  0
 20 14  1  0
 30 21  1  0
 29 24  1  0
  3 31  1  0
  4 32  1  0
  4 33  1  0
  8 34  1  0
  8 35  1  0
  9 36  1  0
  9 37  1  0
 10 38  1  0
 10 39  1  0
 11 40  1  0
 11 41  1  0
 12 42  1  6
 13 43  1  0
 13 44  1  0
 15 45  1  0
 16 46  1  0
 19 47  1  0
 20 48  1  0
 22 49  1  0
 23 50  1  0
 25 51  1  0
 26 52  1  0
 27 53  1  0
 28 54  1  0
M  END
>  <smiles>  (11) 
O=C(NCC(=O)N1CCCC[C@H]1Cc1ccc(Cl)cc1)c1ccc2ccccc2n1

>  <score_type>  (11) 
oracle

>  <origin>  (11) 
autodockgpu

>  <m_score__min__energy>  (11) 
-9.0700000000000003

>  <m_primary>  (11) 
energy

>  <meeko>  (11) 
{"free_energy": -8.42, "intermolecular_energy": -10.21, "internal_energy": -2.16, "cluster_size": 10, "cluster_id": 2, "rank_in_cluster": 10}

>  <energy>  (11) 
-8.88

>  <cluster_rmsd>  (11) 
0.26

>  <rmsd>  (11) 
270.86

>  <cluster>  (11) 
2

$$$$

     RDKit          3D

 54 57  0  0  0  0  0  0  0  0999 V2000
  141.2870   71.9300  221.5650 O   0  0  0  0  0  0  0  0  0  0  0  0
  140.5320   72.3140  222.5090 C   0  0  0  0  0  0  0  0  0  0  0  0
  139.9150   73.5880  222.3360 N   0  0  0  0  0  0  0  0  0  0  0  0
  140.2110   74.3000  221.1140 C   0  0  0  0  0  0  0  0  0  0  0  0
  140.3220   75.7650  221.3390 C   0  0  0  0  0  0  0  0  0  0  0  0
  139.5240   76.3650  222.1110 O   0  0  0  0  0  0  0  0  0  0  0  0
  141.3610   76.4490  220.6480 N   0  0  0  0  0  0  0  0  0  0  0  0
  141.6710   77.8440  220.8690 C   0  0  0  0  0  0  0  0  0  0  0  0
  141.8250   78.6340  219.6150 C   0  0  0  0  0  0  0  0  0  0  0  0
  142.0570   77.8950  218.3710 C   0  0  0  0  0  0  0  0  0  0  0  0
  141.9310   76.4230  218.3690 C   0  0  0  0  0  0  0  0  0  0  0  0
  142.1610   75.7310  219.6710 C   0  0  1  0  0  0  0  0  0  0  0  0
  143.6140   75.6740  220.0830 C   0  0  0  0  0  0  0  0  0  0  0  0
  144.1500   74.3170  219.7980 C   0  0  0  0  0  0  0  0  0  0  0  0
  143.5920   73.4590  218.8790 C   0  0  0  0  0  0  0  0  0  0  0  0
  144.1210   72.2040  218.6440 C   0  0  0  0  0  0  0  0  0  0  0  0
  145.2390   71.8340  219.3650 C   0  0  0  0  0  0  0  0  0  0  0  0
  145.8920   70.2250  219.0410 Cl  0  0  0  0  0  0  0  0  0  0  0  0
  145.8430   72.6490  220.2980 C   0  0  0  0  0  0  0  0  0  0  0  0
  145.2690   73.8950  220.4920 C   0  0  0  0  0  0  0  0  0  0  0  0
  140.3040   71.5070  223.7060 C   0  0  0  0  0  0  0  0  0  0  0  0
  139.6360   70.3090  223.5450 C   0  0  0  0  0  0  0  0  0  0  0  0
  139.3840   69.4990  224.6170 C   0  0  0  0  0  0  0  0  0  0  0  0
  139.8160   69.9020  225.8830 C   0  0  0  0  0  0  0  0  0  0  0  0
  139.5690   69.0980  226.9630 C   0  0  0  0  0  0  0  0  0  0  0  0
  140.0150   69.5340  228.2120 C   0  0  0  0  0  0  0  0  0  0  0  0
  140.6820   70.7420  228.3380 C   0  0  0  0  0  0  0  0  0  0  0  0
  140.9330   71.5550  227.2550 C   0  0  0  0  0  0  0  0  0  0  0  0
  140.4870   71.1110  226.0270 C   0  0  0  0  0  0  0  0  0  0  0  0
  140.7150   71.8850  224.9310 N   0  0  0  0  0  0  0  0  0  0  0  0
  139.2830   73.9730  223.0630 H   0  0  0  0  0  0  0  0  0  0  0  0
  141.1639   73.9293  220.7084 H   0  0  0  0  0  0  0  0  0  0  0  0
  139.3850   74.1251  220.4089 H   0  0  0  0  0  0  0  0  0  0  0  0
  140.8585   78.2897  221.4616 H   0  0  0  0  0  0  0  0  0  0  0  0
  142.6400   77.8775  221.3886 H   0  0  0  0  0  0  0  0  0  0  0  0
  140.9050   79.2221  219.4816 H   0  0  0  0  0  0  0  0  0  0  0  0
  142.7428   79.2212  219.7661 H   0  0  0  0  0  0  0  0  0  0  0  0
  141.3394   78.2793  217.6311 H   0  0  0  0  0  0  0  0  0  0  0  0
  143.1237   78.0649  218.1627 H   0  0  0  0  0  0  0  0  0  0  0  0
  140.9126   76.1757  218.0349 H   0  0  0  0  0  0  0  0  0  0  0  0
  142.7309   76.0643  217.7046 H   0  0  0  0  0  0  0  0  0  0  0  0
  141.8665   74.6745  219.5875 H   0  0  0  0  0  0  0  0  0  0  0  0
  144.1869   76.4224  219.5158 H   0  0  0  0  0  0  0  0  0  0  0  0
  143.7019   75.8877  221.1585 H   0  0  0  0  0  0  0  0  0  0  0  0
  142.7024   73.7798  218.3170 H   0  0  0  0  0  0  0  0  0  0  0  0
  143.6673   71.5237  217.9083 H   0  0  0  0  0  0  0  0  0  0  0  0
  146.7331   72.3275  220.8586 H   0  0  0  0  0  0  0  0  0  0  0  0
  145.7217   74.5759  221.2278 H   0  0  0  0  0  0  0  0  0  0  0  0
  139.3028   70.0030  222.5423 H   0  0  0  0  0  0  0  0  0  0  0  0
  138.8503   68.5463  224.4851 H   0  0  0  0  0  0  0  0  0  0  0  0
  139.0375   68.1415  226.8506 H   0  0  0  0  0  0  0  0  0  0  0  0
  139.8356   68.9140  229.1027 H   0  0  0  0  0  0  0  0  0  0  0  0
  141.0217   71.0616  229.3342 H   0  0  0  0  0  0  0  0  0  0  0  0
  141.4636   72.5124  227.3638 H   0  0  0  0  0  0  0  0  0  0  0  0
  1  2  2  0
  2  3  1  0
  3  4  1  0
  4  5  1  0
  5  6  2  0
  5  7  1  0
  7  8  1  0
  8  9  1  0
  9 10  1  0
 10 11  1  0
 11 12  1  0
 12 13  1  0
 13 14  1  0
 14 15  2  0
 15 16  1  0
 16 17  2  0
 17 18  1  0
 17 19  1  0
 19 20  2  0
  2 21  1  0
 21 22  2  0
 22 23  1  0
 23 24  2  0
 24 25  1  0
 25 26  2  0
 26 27  1  0
 27 28  2  0
 28 29  1  0
 29 30  2  0
 12  7  1  0
 20 14  1  0
 30 21  1  0
 29 24  1  0
  3 31  1  0
  4 32  1  0
  4 33  1  0
  8 34  1  0
  8 35  1  0
  9 36  1  0
  9 37  1  0
 10 38  1  0
 10 39  1  0
 11 40  1  0
 11 41  1  0
 12 42  1  6
 13 43  1  0
 13 44  1  0
 15 45  1  0
 16 46  1  0
 19 47  1  0
 20 48  1  0
 22 49  1  0
 23 50  1  0
 25 51  1  0
 26 52  1  0
 27 53  1  0
 28 54  1  0
M  END
>  <smiles>  (12) 
O=C(NCC(=O)N1CCCC[C@H]1Cc1ccc(Cl)cc1)c1ccc2ccccc2n1

>  <score_type>  (12) 
oracle

>  <origin>  (12) 
autodockgpu

>  <m_score__min__energy>  (12) 
-9.0700000000000003

>  <m_primary>  (12) 
energy

>  <meeko>  (12) 
{"free_energy": -8.88, "intermolecular_energy": -10.67, "internal_energy": -1.81, "cluster_size": 10, "cluster_id": 2, "rank_in_cluster": 4}

>  <energy>  (12) 
-8.85

>  <cluster_rmsd>  (12) 
0.27

>  <rmsd>  (12) 
270.84

>  <cluster>  (12) 
2

$$$$

     RDKit          3D

 54 57  0  0  0  0  0  0  0  0999 V2000
  138.9810   75.0910  221.8780 O   0  0  0  0  0  0  0  0  0  0  0  0
  140.0960   75.6750  222.0380 C   0  0  0  0  0  0  0  0  0  0  0  0
  141.2560   74.8690  221.8370 N   0  0  0  0  0  0  0  0  0  0  0  0
  141.0410   73.4870  221.4760 C   0  0  0  0  0  0  0  0  0  0  0  0
  141.2180   73.2600  220.0180 C   0  0  0  0  0  0  0  0  0  0  0  0
  140.2560   72.8650  219.3020 O   0  0  0  0  0  0  0  0  0  0  0  0
  142.5110   73.5060  219.4770 N   0  0  0  0  0  0  0  0  0  0  0  0
  143.2410   72.5280  218.7010 C   0  0  0  0  0  0  0  0  0  0  0  0
  144.6610   72.3620  219.1220 C   0  0  0  0  0  0  0  0  0  0  0  0
  145.2580   73.4270  219.9330 C   0  0  0  0  0  0  0  0  0  0  0  0
  144.3960   74.5040  220.4620 C   0  0  0  0  0  0  0  0  0  0  0  0
  143.1440   74.7930  219.7010 C   0  0  1  0  0  0  0  0  0  0  0  0
  143.3780   75.5270  218.4010 C   0  0  0  0  0  0  0  0  0  0  0  0
  142.9020   76.9280  218.5380 C   0  0  0  0  0  0  0  0  0  0  0  0
  143.0120   77.8680  217.5400 C   0  0  0  0  0  0  0  0  0  0  0  0
  142.5560   79.1620  217.7080 C   0  0  0  0  0  0  0  0  0  0  0  0
  141.9790   79.4860  218.9200 C   0  0  0  0  0  0  0  0  0  0  0  0
  141.4050   81.1460  219.1040 Cl  0  0  0  0  0  0  0  0  0  0  0  0
  141.8400   78.5890  219.9570 C   0  0  0  0  0  0  0  0  0  0  0  0
  142.3160   77.3070  219.7320 C   0  0  0  0  0  0  0  0  0  0  0  0
  140.1960   77.0860  222.4050 C   0  0  0  0  0  0  0  0  0  0  0  0
  139.0320   77.8290  222.3910 C   0  0  0  0  0  0  0  0  0  0  0  0
  139.0450   79.1550  222.7210 C   0  0  0  0  0  0  0  0  0  0  0  0
  140.2580   79.7500  223.0760 C   0  0  0  0  0  0  0  0  0  0  0  0
  140.2810   81.0780  223.4100 C   0  0  0  0  0  0  0  0  0  0  0  0
  141.5110   81.6380  223.7580 C   0  0  0  0  0  0  0  0  0  0  0  0
  142.6600   80.8630  223.7620 C   0  0  0  0  0  0  0  0  0  0  0  0
  142.6430   79.5270  223.4270 C   0  0  0  0  0  0  0  0  0  0  0  0
  141.4200   78.9870  223.0850 C   0  0  0  0  0  0  0  0  0  0  0  0
  141.3600   77.6700  222.7490 N   0  0  0  0  0  0  0  0  0  0  0  0
  142.2050   75.2720  221.9480 H   0  0  0  0  0  0  0  0  0  0  0  0
  141.7608   72.8606  222.0232 H   0  0  0  0  0  0  0  0  0  0  0  0
  140.0057   73.2237  221.7383 H   0  0  0  0  0  0  0  0  0  0  0  0
  142.7339   71.5571  218.8019 H   0  0  0  0  0  0  0  0  0  0  0  0
  143.2558   72.8904  217.6625 H   0  0  0  0  0  0  0  0  0  0  0  0
  144.7249   71.4305  219.7036 H   0  0  0  0  0  0  0  0  0  0  0  0
  145.2335   72.3723  218.1828 H   0  0  0  0  0  0  0  0  0  0  0  0
  145.7336   72.9426  220.7986 H   0  0  0  0  0  0  0  0  0  0  0  0
  145.9228   73.9485  219.2287 H   0  0  0  0  0  0  0  0  0  0  0  0
  144.1073   74.2274  221.4868 H   0  0  0  0  0  0  0  0  0  0  0  0
  144.9989   75.4210  220.3875 H   0  0  0  0  0  0  0  0  0  0  0  0
  142.5046   75.4751  220.2805 H   0  0  0  0  0  0  0  0  0  0  0  0
  144.4525   75.5249  218.1657 H   0  0  0  0  0  0  0  0  0  0  0  0
  142.8274   75.0273  217.5904 H   0  0  0  0  0  0  0  0  0  0  0  0
  143.4747   77.5827  216.5837 H   0  0  0  0  0  0  0  0  0  0  0  0
  142.6495   79.9074  216.9045 H   0  0  0  0  0  0  0  0  0  0  0  0
  141.3760   78.8753  220.9124 H   0  0  0  0  0  0  0  0  0  0  0  0
  142.2240   76.5611  220.5352 H   0  0  0  0  0  0  0  0  0  0  0  0
  138.0833   77.3478  222.1110 H   0  0  0  0  0  0  0  0  0  0  0  0
  138.1160   79.7439  222.7073 H   0  0  0  0  0  0  0  0  0  0  0  0
  139.3619   81.6823  223.4042 H   0  0  0  0  0  0  0  0  0  0  0  0
  141.5690   82.7020  224.0310 H   0  0  0  0  0  0  0  0  0  0  0  0
  143.6160   81.3297  224.0416 H   0  0  0  0  0  0  0  0  0  0  0  0
  143.5602   78.9198  223.4319 H   0  0  0  0  0  0  0  0  0  0  0  0
  1  2  2  0
  2  3  1  0
  3  4  1  0
  4  5  1  0
  5  6  2  0
  5  7  1  0
  7  8  1  0
  8  9  1  0
  9 10  1  0
 10 11  1  0
 11 12  1  0
 12 13  1  0
 13 14  1  0
 14 15  2  0
 15 16  1  0
 16 17  2  0
 17 18  1  0
 17 19  1  0
 19 20  2  0
  2 21  1  0
 21 22  2  0
 22 23  1  0
 23 24  2  0
 24 25  1  0
 25 26  2  0
 26 27  1  0
 27 28  2  0
 28 29  1  0
 29 30  2  0
 12  7  1  0
 20 14  1  0
 30 21  1  0
 29 24  1  0
  3 31  1  0
  4 32  1  0
  4 33  1  0
  8 34  1  0
  8 35  1  0
  9 36  1  0
  9 37  1  0
 10 38  1  0
 10 39  1  0
 11 40  1  0
 11 41  1  0
 12 42  1  1
 13 43  1  0
 13 44  1  0
 15 45  1  0
 16 46  1  0
 19 47  1  0
 20 48  1  0
 22 49  1  0
 23 50  1  0
 25 51  1  0
 26 52  1  0
 27 53  1  0
 28 54  1  0
M  END
>  <smiles>  (13) 
O=C(NCC(=O)N1CCCC[C@H]1Cc1ccc(Cl)cc1)c1ccc2ccccc2n1

>  <score_type>  (13) 
oracle

>  <origin>  (13) 
autodockgpu

>  <m_score__min__energy>  (13) 
-9.0700000000000003

>  <m_primary>  (13) 
energy

>  <meeko>  (13) 
{"free_energy": -7.55, "intermolecular_energy": -9.34, "internal_energy": -2.74, "cluster_size": 3, "cluster_id": 3, "rank_in_cluster": 3}

>  <energy>  (13) 
-8.85

>  <cluster_rmsd>  (13) 
0.28

>  <rmsd>  (13) 
270.85

>  <cluster>  (13) 
2

$$$$

     RDKit          3D

 54 57  0  0  0  0  0  0  0  0999 V2000
  141.4920   72.0540  221.6720 O   0  0  0  0  0  0  0  0  0  0  0  0
  140.6370   72.3740  222.5520 C   0  0  0  0  0  0  0  0  0  0  0  0
  139.9620   73.6140  222.3450 N   0  0  0  0  0  0  0  0  0  0  0  0
  140.3190   74.3660  221.1650 C   0  0  0  0  0  0  0  0  0  0  0  0
  140.5260   75.8070  221.4680 C   0  0  0  0  0  0  0  0  0  0  0  0
  139.8890   76.3710  222.4010 O   0  0  0  0  0  0  0  0  0  0  0  0
  141.4660   76.5090  220.6620 N   0  0  0  0  0  0  0  0  0  0  0  0
  141.7660   77.9120  220.8420 C   0  0  0  0  0  0  0  0  0  0  0  0
  141.7620   78.6970  219.5750 C   0  0  0  0  0  0  0  0  0  0  0  0
  141.8710   77.9550  218.3160 C   0  0  0  0  0  0  0  0  0  0  0  0
  141.7810   76.4810  218.3350 C   0  0  0  0  0  0  0  0  0  0  0  0
  142.1700   75.8020  219.6070 C   0  0  1  0  0  0  0  0  0  0  0  0
  143.6600   75.7810  219.8540 C   0  0  0  0  0  0  0  0  0  0  0  0
  144.1740   74.4050  219.6270 C   0  0  0  0  0  0  0  0  0  0  0  0
  143.7630   73.6050  218.5860 C   0  0  0  0  0  0  0  0  0  0  0  0
  144.2660   72.3300  218.4100 C   0  0  0  0  0  0  0  0  0  0  0  0
  145.2040   71.8790  219.3170 C   0  0  0  0  0  0  0  0  0  0  0  0
  145.8280   70.2460  219.0640 Cl  0  0  0  0  0  0  0  0  0  0  0  0
  145.6550   72.6330  220.3790 C   0  0  0  0  0  0  0  0  0  0  0  0
  145.1150   73.9030  220.5060 C   0  0  0  0  0  0  0  0  0  0  0  0
  140.3540   71.5310  223.7120 C   0  0  0  0  0  0  0  0  0  0  0  0
  139.7150   70.3280  223.4800 C   0  0  0  0  0  0  0  0  0  0  0  0
  139.4150   69.4860  224.5140 C   0  0  0  0  0  0  0  0  0  0  0  0
  139.7690   69.8590  225.8130 C   0  0  0  0  0  0  0  0  0  0  0  0
  139.4750   69.0210  226.8560 C   0  0  0  0  0  0  0  0  0  0  0  0
  139.8430   69.4280  228.1390 C   0  0  0  0  0  0  0  0  0  0  0  0
  140.4840   70.6410  228.3350 C   0  0  0  0  0  0  0  0  0  0  0  0
  140.7830   71.4880  227.2910 C   0  0  0  0  0  0  0  0  0  0  0  0
  140.4130   71.0720  226.0270 C   0  0  0  0  0  0  0  0  0  0  0  0
  140.6910   71.8800  224.9680 N   0  0  0  0  0  0  0  0  0  0  0  0
  139.2480   73.9450  223.0190 H   0  0  0  0  0  0  0  0  0  0  0  0
  141.2493   73.9530  220.7479 H   0  0  0  0  0  0  0  0  0  0  0  0
  139.4914   74.2843  220.4450 H   0  0  0  0  0  0  0  0  0  0  0  0
  141.0139   78.3431  221.5191 H   0  0  0  0  0  0  0  0  0  0  0  0
  142.7853   77.9710  221.2513 H   0  0  0  0  0  0  0  0  0  0  0  0
  140.8199   79.2639  219.5422 H   0  0  0  0  0  0  0  0  0  0  0  0
  142.6775   79.3051  219.6206 H   0  0  0  0  0  0  0  0  0  0  0  0
  141.0661   78.3171  217.6595 H   0  0  0  0  0  0  0  0  0  0  0  0
  142.9031   78.1485  217.9884 H   0  0  0  0  0  0  0  0  0  0  0  0
  140.7381   76.2078  218.1167 H   0  0  0  0  0  0  0  0  0  0  0  0
  142.5118   76.1370  217.5883 H   0  0  0  0  0  0  0  0  0  0  0  0
  141.8935   74.7382  219.5630 H   0  0  0  0  0  0  0  0  0  0  0  0
  144.1572   76.4780  219.1634 H   0  0  0  0  0  0  0  0  0  0  0  0
  143.8670   76.0864  220.8903 H   0  0  0  0  0  0  0  0  0  0  0  0
  143.0157   73.9897  217.8764 H   0  0  0  0  0  0  0  0  0  0  0  0
  143.9305   71.6962  217.5759 H   0  0  0  0  0  0  0  0  0  0  0  0
  146.4031   72.2476  221.0874 H   0  0  0  0  0  0  0  0  0  0  0  0
  145.4489   74.5373  221.3404 H   0  0  0  0  0  0  0  0  0  0  0  0
  139.4448   70.0449  222.4520 H   0  0  0  0  0  0  0  0  0  0  0  0
  138.9033   68.5305  224.3265 H   0  0  0  0  0  0  0  0  0  0  0  0
  138.9663   68.0603  226.6879 H   0  0  0  0  0  0  0  0  0  0  0  0
  139.6227   68.7813  229.0011 H   0  0  0  0  0  0  0  0  0  0  0  0
  140.7629   70.9367  229.3571 H   0  0  0  0  0  0  0  0  0  0  0  0
  141.2918   72.4492  227.4558 H   0  0  0  0  0  0  0  0  0  0  0  0
  1  2  2  0
  2  3  1  0
  3  4  1  0
  4  5  1  0
  5  6  2  0
  5  7  1  0
  7  8  1  0
  8  9  1  0
  9 10  1  0
 10 11  1  0
 11 12  1  0
 12 13  1  0
 13 14  1  0
 14 15  2  0
 15 16  1  0
 16 17  2  0
 17 18  1  0
 17 19  1  0
 19 20  2  0
  2 21  1  0
 21 22  2  0
 22 23  1  0
 23 24  2  0
 24 25  1  0
 25 26  2  0
 26 27  1  0
 27 28  2  0
 28 29  1  0
 29 30  2  0
 12  7  1  0
 20 14  1  0
 30 21  1  0
 29 24  1  0
  3 31  1  0
  4 32  1  0
  4 33  1  0
  8 34  1  0
  8 35  1  0
  9 36  1  0
  9 37  1  0
 10 38  1  0
 10 39  1  0
 11 40  1  0
 11 41  1  0
 12 42  1  6
 13 43  1  0
 13 44  1  0
 15 45  1  0
 16 46  1  0
 19 47  1  0
 20 48  1  0
 22 49  1  0
 23 50  1  0
 25 51  1  0
 26 52  1  0
 27 53  1  0
 28 54  1  0
M  END
>  <smiles>  (14) 
O=C(NCC(=O)N1CCCC[C@H]1Cc1ccc(Cl)cc1)c1ccc2ccccc2n1

>  <score_type>  (14) 
oracle

>  <origin>  (14) 
autodockgpu

>  <m_score__min__energy>  (14) 
-9.0700000000000003

>  <m_primary>  (14) 
energy

>  <meeko>  (14) 
{"free_energy": -8.85, "intermolecular_energy": -10.64, "internal_energy": -1.83, "cluster_size": 10, "cluster_id": 2, "rank_in_cluster": 6}

>  <energy>  (14) 
-8.78

>  <cluster_rmsd>  (14) 
0.38

>  <rmsd>  (14) 
270.84

>  <cluster>  (14) 
2

$$$$

     RDKit          3D

 54 57  0  0  0  0  0  0  0  0999 V2000
  138.8300   75.5100  221.6890 O   0  0  0  0  0  0  0  0  0  0  0  0
  139.9960   75.9790  221.8650 C   0  0  0  0  0  0  0  0  0  0  0  0
  141.0750   75.1070  221.5330 N   0  0  0  0  0  0  0  0  0  0  0  0
  140.7300   73.7960  221.0350 C   0  0  0  0  0  0  0  0  0  0  0  0
  141.8610   72.8390  221.1630 C   0  0  0  0  0  0  0  0  0  0  0  0
  141.8220   71.8990  222.0050 O   0  0  0  0  0  0  0  0  0  0  0  0
  142.9750   73.0340  220.2990 N   0  0  0  0  0  0  0  0  0  0  0  0
  143.6390   71.9490  219.6120 C   0  0  0  0  0  0  0  0  0  0  0  0
  145.1250   71.9860  219.7220 C   0  0  0  0  0  0  0  0  0  0  0  0
  145.7460   73.2520  220.1190 C   0  0  0  0  0  0  0  0  0  0  0  0
  144.8900   74.3640  220.5810 C   0  0  0  0  0  0  0  0  0  0  0  0
  143.4830   74.3770  220.0830 C   0  0  1  0  0  0  0  0  0  0  0  0
  143.3530   74.7890  218.6350 C   0  0  0  0  0  0  0  0  0  0  0  0
  142.9990   76.2310  218.5670 C   0  0  0  0  0  0  0  0  0  0  0  0
  143.0870   76.9810  217.4170 C   0  0  0  0  0  0  0  0  0  0  0  0
  142.7470   78.3200  217.3970 C   0  0  0  0  0  0  0  0  0  0  0  0
  142.3120   78.8900  218.5770 C   0  0  0  0  0  0  0  0  0  0  0  0
  141.8840   80.6020  218.5190 Cl  0  0  0  0  0  0  0  0  0  0  0  0
  142.2030   78.1910  219.7600 C   0  0  0  0  0  0  0  0  0  0  0  0
  142.5570   76.8520  219.7210 C   0  0  0  0  0  0  0  0  0  0  0  0
  140.2280   77.3280  222.3770 C   0  0  0  0  0  0  0  0  0  0  0  0
  139.1180   78.0820  222.7050 C   0  0  0  0  0  0  0  0  0  0  0  0
  139.2550   79.3530  223.1880 C   0  0  0  0  0  0  0  0  0  0  0  0
  140.5390   79.8800  223.3490 C   0  0  0  0  0  0  0  0  0  0  0  0
  140.6860   81.1520  223.8340 C   0  0  0  0  0  0  0  0  0  0  0  0
  141.9840   81.6440  223.9790 C   0  0  0  0  0  0  0  0  0  0  0  0
  143.0750   80.8600  223.6400 C   0  0  0  0  0  0  0  0  0  0  0  0
  142.9330   79.5810  223.1530 C   0  0  0  0  0  0  0  0  0  0  0  0
  141.6440   79.1070  223.0140 C   0  0  0  0  0  0  0  0  0  0  0  0
  141.4610   77.8460  222.5350 N   0  0  0  0  0  0  0  0  0  0  0  0
  142.0580   75.4160  221.6480 H   0  0  0  0  0  0  0  0  0  0  0  0
  139.8728   73.4122  221.6077 H   0  0  0  0  0  0  0  0  0  0  0  0
  140.4829   73.8910  219.9673 H   0  0  0  0  0  0  0  0  0  0  0  0
  143.2834   70.9994  220.0385 H   0  0  0  0  0  0  0  0  0  0  0  0
  143.3946   72.0492  218.5442 H   0  0  0  0  0  0  0  0  0  0  0  0
  145.4187   71.2289  220.4640 H   0  0  0  0  0  0  0  0  0  0  0  0
  145.4846   71.8085  218.6977 H   0  0  0  0  0  0  0  0  0  0  0  0
  146.4449   73.0238  220.9372 H   0  0  0  0  0  0  0  0  0  0  0  0
  146.1839   73.6316  219.1841 H   0  0  0  0  0  0  0  0  0  0  0  0
  144.8546   74.3234  221.6797 H   0  0  0  0  0  0  0  0  0  0  0  0
  145.3510   75.2743  220.1701 H   0  0  0  0  0  0  0  0  0  0  0  0
  142.9019   75.1350  220.6287 H   0  0  0  0  0  0  0  0  0  0  0  0
  144.3087   74.6200  218.1172 H   0  0  0  0  0  0  0  0  0  0  0  0
  142.5664   74.1921  218.1501 H   0  0  0  0  0  0  0  0  0  0  0  0
  143.4368   76.5027  216.4903 H   0  0  0  0  0  0  0  0  0  0  0  0
  142.8203   78.9117  216.4726 H   0  0  0  0  0  0  0  0  0  0  0  0
  141.8535   78.6708  220.6860 H   0  0  0  0  0  0  0  0  0  0  0  0
  142.4836   76.2592  220.6447 H   0  0  0  0  0  0  0  0  0  0  0  0
  138.1127   77.6546  222.5760 H   0  0  0  0  0  0  0  0  0  0  0  0
  138.3688   79.9515  223.4459 H   0  0  0  0  0  0  0  0  0  0  0  0
  139.8119   81.7645  224.1000 H   0  0  0  0  0  0  0  0  0  0  0  0
  142.1421   82.6617  224.3653 H   0  0  0  0  0  0  0  0  0  0  0  0
  144.0868   81.2733  223.7642 H   0  0  0  0  0  0  0  0  0  0  0  0
  143.8051   78.9655  222.8871 H   0  0  0  0  0  0  0  0  0  0  0  0
  1  2  2  0
  2  3  1  0
  3  4  1  0
  4  5  1  0
  5  6  2  0
  5  7  1  0
  7  8  1  0
  8  9  1  0
  9 10  1  0
 10 11  1  0
 11 12  1  0
 12 13  1  0
 13 14  1  0
 14 15  2  0
 15 16  1  0
 16 17  2  0
 17 18  1  0
 17 19  1  0
 19 20  2  0
  2 21  1  0
 21 22  2  0
 22 23  1  0
 23 24  2  0
 24 25  1  0
 25 26  2  0
 26 27  1  0
 27 28  2  0
 28 29  1  0
 29 30  2  0
 12  7  1  0
 20 14  1  0
 30 21  1  0
 29 24  1  0
  3 31  1  0
  4 32  1  0
  4 33  1  0
  8 34  1  0
  8 35  1  0
  9 36  1  0
  9 37  1  0
 10 38  1  0
 10 39  1  0
 11 40  1  0
 11 41  1  0
 12 42  1  1
 13 43  1  0
 13 44  1  0
 15 45  1  0
 16 46  1  0
 19 47  1  0
 20 48  1  0
 22 49  1  0
 23 50  1  0
 25 51  1  0
 26 52  1  0
 27 53  1  0
 28 54  1  0
M  END
>  <smiles>  (15) 
O=C(NCC(=O)N1CCCC[C@H]1Cc1ccc(Cl)cc1)c1ccc2ccccc2n1

>  <score_type>  (15) 
oracle

>  <origin>  (15) 
autodockgpu

>  <m_score__min__energy>  (15) 
-9.0700000000000003

>  <m_primary>  (15) 
energy

>  <meeko>  (15) 
{"free_energy": -8.06, "intermolecular_energy": -9.85, "internal_energy": -2.41, "cluster_size": 3, "cluster_id": 3, "rank_in_cluster": 1}

>  <energy>  (15) 
-8.57

>  <cluster_rmsd>  (15) 
0.66

>  <rmsd>  (15) 
270.82

>  <cluster>  (15) 
2

$$$$

     RDKit          3D

 54 57  0  0  0  0  0  0  0  0999 V2000
  139.9300   70.5920  221.3920 O   0  0  0  0  0  0  0  0  0  0  0  0
  139.8140   71.1490  222.5260 C   0  0  0  0  0  0  0  0  0  0  0  0
  139.6520   72.5670  222.5100 N   0  0  0  0  0  0  0  0  0  0  0  0
  139.6380   73.2120  221.2180 C   0  0  0  0  0  0  0  0  0  0  0  0
  139.8890   74.6730  221.3240 C   0  0  0  0  0  0  0  0  0  0  0  0
  139.5670   75.3120  222.3640 O   0  0  0  0  0  0  0  0  0  0  0  0
  140.5030   75.3070  220.2070 N   0  0  0  0  0  0  0  0  0  0  0  0
  140.1240   75.0330  218.8380 C   0  0  0  0  0  0  0  0  0  0  0  0
  141.2800   74.7880  217.9310 C   0  0  0  0  0  0  0  0  0  0  0  0
  142.6020   75.2360  218.3770 C   0  0  0  0  0  0  0  0  0  0  0  0
  142.7720   75.7200  219.7630 C   0  0  0  0  0  0  0  0  0  0  0  0
  141.5590   76.2780  220.4300 C   0  0  1  0  0  0  0  0  0  0  0  0
  141.1640   77.6480  219.9280 C   0  0  0  0  0  0  0  0  0  0  0  0
  141.4960   78.6620  220.9630 C   0  0  0  0  0  0  0  0  0  0  0  0
  141.8220   79.9660  220.6700 C   0  0  0  0  0  0  0  0  0  0  0  0
  142.1240   80.8780  221.6640 C   0  0  0  0  0  0  0  0  0  0  0  0
  142.0870   80.4380  222.9720 C   0  0  0  0  0  0  0  0  0  0  0  0
  142.4770   81.6270  224.2180 Cl  0  0  0  0  0  0  0  0  0  0  0  0
  141.7670   79.1450  223.3280 C   0  0  0  0  0  0  0  0  0  0  0  0
  141.4740   78.2740  222.2910 C   0  0  0  0  0  0  0  0  0  0  0  0
  139.8430   70.3940  223.7760 C   0  0  0  0  0  0  0  0  0  0  0  0
  139.2290   69.1570  223.7830 C   0  0  0  0  0  0  0  0  0  0  0  0
  139.2130   68.3910  224.9160 C   0  0  0  0  0  0  0  0  0  0  0  0
  139.8320   68.8790  226.0690 C   0  0  0  0  0  0  0  0  0  0  0  0
  139.8230   68.1190  227.2080 C   0  0  0  0  0  0  0  0  0  0  0  0
  140.4510   68.6400  228.3400 C   0  0  0  0  0  0  0  0  0  0  0  0
  141.0570   69.8860  228.2980 C   0  0  0  0  0  0  0  0  0  0  0  0
  141.0700   70.6540  227.1550 C   0  0  0  0  0  0  0  0  0  0  0  0
  140.4460   70.1260  226.0430 C   0  0  0  0  0  0  0  0  0  0  0  0
  140.4360   70.8540  224.8940 N   0  0  0  0  0  0  0  0  0  0  0  0
  139.5500   73.0960  223.3960 H   0  0  0  0  0  0  0  0  0  0  0  0
  140.4191   72.7620  220.5876 H   0  0  0  0  0  0  0  0  0  0  0  0
  138.6405   73.0691  220.7770 H   0  0  0  0  0  0  0  0  0  0  0  0
  139.4806   74.1408  218.8283 H   0  0  0  0  0  0  0  0  0  0  0  0
  139.6075   75.9291  218.4634 H   0  0  0  0  0  0  0  0  0  0  0  0
  141.3406   73.7028  217.7617 H   0  0  0  0  0  0  0  0  0  0  0  0
  141.0670   75.3949  217.0386 H   0  0  0  0  0  0  0  0  0  0  0  0
  143.2893   74.3870  218.2470 H   0  0  0  0  0  0  0  0  0  0  0  0
  142.7952   76.1286  217.7638 H   0  0  0  0  0  0  0  0  0  0  0  0
  143.1276   74.8746  220.3704 H   0  0  0  0  0  0  0  0  0  0  0  0
  143.4766   76.5617  219.6917 H   0  0  0  0  0  0  0  0  0  0  0  0
  141.7609   76.4345  221.4999 H   0  0  0  0  0  0  0  0  0  0  0  0
  141.7139   77.8734  219.0024 H   0  0  0  0  0  0  0  0  0  0  0  0
  140.0835   77.6692  219.7229 H   0  0  0  0  0  0  0  0  0  0  0  0
  141.8429   80.2909  219.6193 H   0  0  0  0  0  0  0  0  0  0  0  0
  142.3848   81.9186  221.4211 H   0  0  0  0  0  0  0  0  0  0  0  0
  141.7454   78.8221  224.3793 H   0  0  0  0  0  0  0  0  0  0  0  0
  141.2136   77.2330  222.5330 H   0  0  0  0  0  0  0  0  0  0  0  0
  138.7475   68.7836  222.8672 H   0  0  0  0  0  0  0  0  0  0  0  0
  138.7209   67.4072  224.9191 H   0  0  0  0  0  0  0  0  0  0  0  0
  139.3376   67.1321  227.2299 H   0  0  0  0  0  0  0  0  0  0  0  0
  140.4653   68.0574  229.2729 H   0  0  0  0  0  0  0  0  0  0  0  0
  141.5426   70.2733  229.2059 H   0  0  0  0  0  0  0  0  0  0  0  0
  141.5546   71.6412  227.1295 H   0  0  0  0  0  0  0  0  0  0  0  0
  1  2  2  0
  2  3  1  0
  3  4  1  0
  4  5  1  0
  5  6  2  0
  5  7  1  0
  7  8  1  0
  8  9  1  0
  9 10  1  0
 10 11  1  0
 11 12  1  0
 12 13  1  0
 13 14  1  0
 14 15  2  0
 15 16  1  0
 16 17  2  0
 17 18  1  0
 17 19  1  0
 19 20  2  0
  2 21  1  0
 21 22  2  0
 22 23  1  0
 23 24  2  0
 24 25  1  0
 25 26  2  0
 26 27  1  0
 27 28  2  0
 28 29  1  0
 29 30  2  0
 12  7  1  0
 20 14  1  0
 30 21  1  0
 29 24  1  0
  3 31  1  0
  4 32  1  0
  4 33  1  0
  8 34  1  0
  8 35  1  0
  9 36  1  0
  9 37  1  0
 10 38  1  0
 10 39  1  0
 11 40  1  0
 11 41  1  0
 12 42  1  1
 13 43  1  0
 13 44  1  0
 15 45  1  0
 16 46  1  0
 19 47  1  0
 20 48  1  0
 22 49  1  0
 23 50  1  0
 25 51  1  0
 26 52  1  0
 27 53  1  0
 28 54  1  0
M  END
>  <smiles>  (16) 
O=C(NCC(=O)N1CCCC[C@H]1Cc1ccc(Cl)cc1)c1ccc2ccccc2n1

>  <score_type>  (16) 
oracle

>  <origin>  (16) 
autodockgpu

>  <m_score__min__energy>  (16) 
-9.0700000000000003

>  <m_primary>  (16) 
energy

>  <meeko>  (16) 
{"free_energy": -9.07, "intermolecular_energy": -10.86, "internal_energy": -1.74, "cluster_size": 7, "cluster_id": 1, "rank_in_cluster": 1}

>  <energy>  (16) 
-8.43

>  <cluster_rmsd>  (16) 
0.8

>  <rmsd>  (16) 
270.83

>  <cluster>  (16) 
2

$$$$

     RDKit          3D

 54 57  0  0  0  0  0  0  0  0999 V2000
  141.5320   72.0350  221.6460 O   0  0  0  0  0  0  0  0  0  0  0  0
  140.6900   72.3660  222.5350 C   0  0  0  0  0  0  0  0  0  0  0  0
  140.0450   73.6250  222.3450 N   0  0  0  0  0  0  0  0  0  0  0  0
  140.4150   74.3810  221.1710 C   0  0  0  0  0  0  0  0  0  0  0  0
  140.5430   75.8320  221.4640 C   0  0  0  0  0  0  0  0  0  0  0  0
  139.8620   76.3720  222.3800 O   0  0  0  0  0  0  0  0  0  0  0  0
  141.4610   76.5740  220.6680 N   0  0  0  0  0  0  0  0  0  0  0  0
  141.7310   77.9800  220.8800 C   0  0  0  0  0  0  0  0  0  0  0  0
  141.7000   78.7940  219.6320 C   0  0  0  0  0  0  0  0  0  0  0  0
  141.8150   78.0860  218.3550 C   0  0  0  0  0  0  0  0  0  0  0  0
  141.7560   76.6100  218.3380 C   0  0  0  0  0  0  0  0  0  0  0  0
  142.1710   75.9090  219.5900 C   0  0  1  0  0  0  0  0  0  0  0  0
  143.6630   75.9150  219.8260 C   0  0  0  0  0  0  0  0  0  0  0  0
  144.1910   74.5370  219.6480 C   0  0  0  0  0  0  0  0  0  0  0  0
  145.0140   73.9170  220.5580 C   0  0  0  0  0  0  0  0  0  0  0  0
  145.4830   72.6330  220.3550 C   0  0  0  0  0  0  0  0  0  0  0  0
  145.0960   71.9840  219.1990 C   0  0  0  0  0  0  0  0  0  0  0  0
  145.7100   70.3440  218.9690 Cl  0  0  0  0  0  0  0  0  0  0  0  0
  144.2730   72.5520  218.2500 C   0  0  0  0  0  0  0  0  0  0  0  0
  143.8340   73.8410  218.5070 C   0  0  0  0  0  0  0  0  0  0  0  0
  140.3940   71.5180  223.6870 C   0  0  0  0  0  0  0  0  0  0  0  0
  139.7530   70.3190  223.4440 C   0  0  0  0  0  0  0  0  0  0  0  0
  139.4420   69.4720  224.4700 C   0  0  0  0  0  0  0  0  0  0  0  0
  139.7830   69.8380  225.7750 C   0  0  0  0  0  0  0  0  0  0  0  0
  139.4760   68.9960  226.8100 C   0  0  0  0  0  0  0  0  0  0  0  0
  139.8320   69.3960  228.0990 C   0  0  0  0  0  0  0  0  0  0  0  0
  140.4740   70.6060  228.3070 C   0  0  0  0  0  0  0  0  0  0  0  0
  140.7860   71.4570  227.2700 C   0  0  0  0  0  0  0  0  0  0  0  0
  140.4280   71.0490  226.0010 C   0  0  0  0  0  0  0  0  0  0  0  0
  140.7180   71.8610  224.9490 N   0  0  0  0  0  0  0  0  0  0  0  0
  139.3440   73.9680  223.0280 H   0  0  0  0  0  0  0  0  0  0  0  0
  141.3795   74.0073  220.7968 H   0  0  0  0  0  0  0  0  0  0  0  0
  139.6218   74.2536  220.4195 H   0  0  0  0  0  0  0  0  0  0  0  0
  140.9743   78.3778  221.5722 H   0  0  0  0  0  0  0  0  0  0  0  0
  142.7515   78.0526  221.2842 H   0  0  0  0  0  0  0  0  0  0  0  0
  140.7456   79.3407  219.6199 H   0  0  0  0  0  0  0  0  0  0  0  0
  142.6030   79.4199  219.6855 H   0  0  0  0  0  0  0  0  0  0  0  0
  140.9978   78.4471  217.7133 H   0  0  0  0  0  0  0  0  0  0  0  0
  142.8404   78.3092  218.0252 H   0  0  0  0  0  0  0  0  0  0  0  0
  140.7171   76.3201  218.1221 H   0  0  0  0  0  0  0  0  0  0  0  0
  142.4865   76.2996  217.5764 H   0  0  0  0  0  0  0  0  0  0  0  0
  141.9176   74.8408  219.5206 H   0  0  0  0  0  0  0  0  0  0  0  0
  144.1469   76.5905  219.1052 H   0  0  0  0  0  0  0  0  0  0  0  0
  143.8743   76.2628  220.8479 H   0  0  0  0  0  0  0  0  0  0  0  0
  145.3066   74.4566  221.4708 H   0  0  0  0  0  0  0  0  0  0  0  0
  146.1416   72.1449  221.0885 H   0  0  0  0  0  0  0  0  0  0  0  0
  143.9805   72.0111  217.3379 H   0  0  0  0  0  0  0  0  0  0  0  0
  143.1753   74.3304  217.7744 H   0  0  0  0  0  0  0  0  0  0  0  0
  139.4898   70.0427  222.4123 H   0  0  0  0  0  0  0  0  0  0  0  0
  138.9317   68.5178  224.2722 H   0  0  0  0  0  0  0  0  0  0  0  0
  138.9665   68.0375  226.6319 H   0  0  0  0  0  0  0  0  0  0  0  0
  139.6012   68.7459  228.9558 H   0  0  0  0  0  0  0  0  0  0  0  0
  140.7432   70.8963  229.3333 H   0  0  0  0  0  0  0  0  0  0  0  0
  141.2960   72.4158  227.4448 H   0  0  0  0  0  0  0  0  0  0  0  0
  1  2  2  0
  2  3  1  0
  3  4  1  0
  4  5  1  0
  5  6  2  0
  5  7  1  0
  7  8  1  0
  8  9  1  0
  9 10  1  0
 10 11  1  0
 11 12  1  0
 12 13  1  0
 13 14  1  0
 14 15  2  0
 15 16  1  0
 16 17  2  0
 17 18  1  0
 17 19  1  0
 19 20  2  0
  2 21  1  0
 21 22  2  0
 22 23  1  0
 23 24  2  0
 24 25  1  0
 25 26  2  0
 26 27  1  0
 27 28  2  0
 28 29  1  0
 29 30  2  0
 12  7  1  0
 20 14  1  0
 30 21  1  0
 29 24  1  0
  3 31  1  0
  4 32  1  0
  4 33  1  0
  8 34  1  0
  8 35  1  0
  9 36  1  0
  9 37  1  0
 10 38  1  0
 10 39  1  0
 11 40  1  0
 11 41  1  0
 12 42  1  6
 13 43  1  0
 13 44  1  0
 15 45  1  0
 16 46  1  0
 19 47  1  0
 20 48  1  0
 22 49  1  0
 23 50  1  0
 25 51  1  0
 26 52  1  0
 27 53  1  0
 28 54  1  0
M  END
>  <smiles>  (17) 
O=C(NCC(=O)N1CCCC[C@H]1Cc1ccc(Cl)cc1)c1ccc2ccccc2n1

>  <score_type>  (17) 
oracle

>  <origin>  (17) 
autodockgpu

>  <m_score__min__energy>  (17) 
-9.0700000000000003

>  <m_primary>  (17) 
energy

>  <meeko>  (17) 
{"free_energy": -8.78, "intermolecular_energy": -10.57, "internal_energy": -1.87, "cluster_size": 10, "cluster_id": 2, "rank_in_cluster": 7}

>  <energy>  (17) 
-8.42

>  <cluster_rmsd>  (17) 
0.79

>  <rmsd>  (17) 
270.84

>  <cluster>  (17) 
2

$$$$

     RDKit          3D

 54 57  0  0  0  0  0  0  0  0999 V2000
  140.6250   71.9620  221.9420 O   0  0  0  0  0  0  0  0  0  0  0  0
  139.6990   71.8520  222.8030 C   0  0  0  0  0  0  0  0  0  0  0  0
  138.5510   72.6720  222.5920 N   0  0  0  0  0  0  0  0  0  0  0  0
  138.5640   73.5340  221.4330 C   0  0  0  0  0  0  0  0  0  0  0  0
  139.4180   74.7320  221.6420 C   0  0  0  0  0  0  0  0  0  0  0  0
  139.3830   75.3720  222.7310 O   0  0  0  0  0  0  0  0  0  0  0  0
  140.2670   75.1180  220.5670 N   0  0  0  0  0  0  0  0  0  0  0  0
  140.0010   74.7700  219.1890 C   0  0  0  0  0  0  0  0  0  0  0  0
  141.1840   74.2200  218.4670 C   0  0  0  0  0  0  0  0  0  0  0  0
  142.5080   74.4650  219.0460 C   0  0  0  0  0  0  0  0  0  0  0  0
  142.6090   75.0590  220.3950 C   0  0  0  0  0  0  0  0  0  0  0  0
  141.4590   75.8990  220.8440 C   0  0  1  0  0  0  0  0  0  0  0  0
  141.3980   77.2540  220.1790 C   0  0  0  0  0  0  0  0  0  0  0  0
  141.5980   78.3120  221.2040 C   0  0  0  0  0  0  0  0  0  0  0  0
  141.4510   78.0950  222.5550 C   0  0  0  0  0  0  0  0  0  0  0  0
  141.6460   79.1070  223.4760 C   0  0  0  0  0  0  0  0  0  0  0  0
  141.9980   80.3520  222.9970 C   0  0  0  0  0  0  0  0  0  0  0  0
  142.2420   81.6230  224.1990 Cl  0  0  0  0  0  0  0  0  0  0  0  0
  142.1610   80.6300  221.6570 C   0  0  0  0  0  0  0  0  0  0  0  0
  141.9520   79.5790  220.7790 C   0  0  0  0  0  0  0  0  0  0  0  0
  139.7940   70.9420  223.9420 C   0  0  0  0  0  0  0  0  0  0  0  0
  139.2690   69.6740  223.7860 C   0  0  0  0  0  0  0  0  0  0  0  0
  139.3190   68.7660  224.8080 C   0  0  0  0  0  0  0  0  0  0  0  0
  139.9130   69.1420  226.0160 C   0  0  0  0  0  0  0  0  0  0  0  0
  139.9690   68.2390  227.0440 C   0  0  0  0  0  0  0  0  0  0  0  0
  140.5690   68.6510  228.2350 C   0  0  0  0  0  0  0  0  0  0  0  0
  141.0860   69.9310  228.3570 C   0  0  0  0  0  0  0  0  0  0  0  0
  141.0320   70.8430  227.3260 C   0  0  0  0  0  0  0  0  0  0  0  0
  140.4360   70.4220  226.1540 C   0  0  0  0  0  0  0  0  0  0  0  0
  140.3640   71.2930  225.1110 N   0  0  0  0  0  0  0  0  0  0  0  0
  137.7510   72.6400  223.2510 H   0  0  0  0  0  0  0  0  0  0  0  0
  138.9506   72.9675  220.5730 H   0  0  0  0  0  0  0  0  0  0  0  0
  137.5346   73.8769  221.2521 H   0  0  0  0  0  0  0  0  0  0  0  0
  139.2016   74.0146  219.1704 H   0  0  0  0  0  0  0  0  0  0  0  0
  139.7153   75.6990  218.6739 H   0  0  0  0  0  0  0  0  0  0  0  0
  141.0509   73.1301  218.4000 H   0  0  0  0  0  0  0  0  0  0  0  0
  141.1970   74.7543  217.5055 H   0  0  0  0  0  0  0  0  0  0  0  0
  143.0265   73.4955  219.0827 H   0  0  0  0  0  0  0  0  0  0  0  0
  142.9408   75.2344  218.3897 H   0  0  0  0  0  0  0  0  0  0  0  0
  142.7213   74.2349  221.1149 H   0  0  0  0  0  0  0  0  0  0  0  0
  143.4673   75.7452  220.3460 H   0  0  0  0  0  0  0  0  0  0  0  0
  141.5638   76.1327  221.9138 H   0  0  0  0  0  0  0  0  0  0  0  0
  142.1884   77.3258  219.4173 H   0  0  0  0  0  0  0  0  0  0  0  0
  140.4171   77.3858  219.6989 H   0  0  0  0  0  0  0  0  0  0  0  0
  141.1716   77.0922  222.9104 H   0  0  0  0  0  0  0  0  0  0  0  0
  141.5247   78.9259  224.5542 H   0  0  0  0  0  0  0  0  0  0  0  0
  142.4421   81.6330  221.3035 H   0  0  0  0  0  0  0  0  0  0  0  0
  142.0725   79.7598  219.7007 H   0  0  0  0  0  0  0  0  0  0  0  0
  138.8055   69.3911  222.8293 H   0  0  0  0  0  0  0  0  0  0  0  0
  138.8989   67.7573  224.6812 H   0  0  0  0  0  0  0  0  0  0  0  0
  139.5559   67.2253  226.9351 H   0  0  0  0  0  0  0  0  0  0  0  0
  140.6320   67.9540  229.0837 H   0  0  0  0  0  0  0  0  0  0  0  0
  141.5542   70.2281  229.3070 H   0  0  0  0  0  0  0  0  0  0  0  0
  141.4438   71.8576  227.4314 H   0  0  0  0  0  0  0  0  0  0  0  0
  1  2  2  0
  2  3  1  0
  3  4  1  0
  4  5  1  0
  5  6  2  0
  5  7  1  0
  7  8  1  0
  8  9  1  0
  9 10  1  0
 10 11  1  0
 11 12  1  0
 12 13  1  0
 13 14  1  0
 14 15  2  0
 15 16  1  0
 16 17  2  0
 17 18  1  0
 17 19  1  0
 19 20  2  0
  2 21  1  0
 21 22  2  0
 22 23  1  0
 23 24  2  0
 24 25  1  0
 25 26  2  0
 26 27  1  0
 27 28  2  0
 28 29  1  0
 29 30  2  0
 12  7  1  0
 20 14  1  0
 30 21  1  0
 29 24  1  0
  3 31  1  0
  4 32  1  0
  4 33  1  0
  8 34  1  0
  8 35  1  0
  9 36  1  0
  9 37  1  0
 10 38  1  0
 10 39  1  0
 11 40  1  0
 11 41  1  0
 12 42  1  1
 13 43  1  0
 13 44  1  0
 15 45  1  0
 16 46  1  0
 19 47  1  0
 20 48  1  0
 22 49  1  0
 23 50  1  0
 25 51  1  0
 26 52  1  0
 27 53  1  0
 28 54  1  0
M  END
>  <smiles>  (18) 
O=C(NCC(=O)N1CCCC[C@H]1Cc1ccc(Cl)cc1)c1ccc2ccccc2n1

>  <score_type>  (18) 
oracle

>  <origin>  (18) 
autodockgpu

>  <m_score__min__energy>  (18) 
-9.0700000000000003

>  <m_primary>  (18) 
energy

>  <meeko>  (18) 
{"free_energy": -9.07, "intermolecular_energy": -10.86, "internal_energy": -1.59, "cluster_size": 7, "cluster_id": 1, "rank_in_cluster": 2}

>  <energy>  (18) 
-8.06

>  <cluster_rmsd>  (18) 
0.0

>  <rmsd>  (18) 
271.06

>  <cluster>  (18) 
3

$$$$

     RDKit          3D

 54 57  0  0  0  0  0  0  0  0999 V2000
  141.5240   72.3330  221.6060 O   0  0  0  0  0  0  0  0  0  0  0  0
  140.6340   72.5740  222.4770 C   0  0  0  0  0  0  0  0  0  0  0  0
  139.9430   73.8140  222.3360 N   0  0  0  0  0  0  0  0  0  0  0  0
  140.3250   74.6560  221.2260 C   0  0  0  0  0  0  0  0  0  0  0  0
  140.2940   76.0970  221.5870 C   0  0  0  0  0  0  0  0  0  0  0  0
  139.4900   76.5300  222.4590 O   0  0  0  0  0  0  0  0  0  0  0  0
  141.2060   76.9540  220.9090 N   0  0  0  0  0  0  0  0  0  0  0  0
  141.5850   78.2570  221.4090 C   0  0  0  0  0  0  0  0  0  0  0  0
  141.5260   79.3370  220.3830 C   0  0  0  0  0  0  0  0  0  0  0  0
  141.5080   78.9360  218.9740 C   0  0  0  0  0  0  0  0  0  0  0  0
  141.3480   77.5080  218.6300 C   0  0  0  0  0  0  0  0  0  0  0  0
  141.7950   76.5190  219.6550 C   0  0  1  0  0  0  0  0  0  0  0  0
  143.2970   76.3940  219.7660 C   0  0  0  0  0  0  0  0  0  0  0  0
  143.6800   74.9640  219.6230 C   0  0  0  0  0  0  0  0  0  0  0  0
  143.1010   74.1110  218.7130 C   0  0  0  0  0  0  0  0  0  0  0  0
  143.4860   72.7880  218.6120 C   0  0  0  0  0  0  0  0  0  0  0  0
  144.4810   72.3430  219.4600 C   0  0  0  0  0  0  0  0  0  0  0  0
  144.9520   70.6480  219.3070 Cl  0  0  0  0  0  0  0  0  0  0  0  0
  145.0990   73.1490  220.3920 C   0  0  0  0  0  0  0  0  0  0  0  0
  144.6720   74.4670  220.4480 C   0  0  0  0  0  0  0  0  0  0  0  0
  140.3300   71.6440  223.5630 C   0  0  0  0  0  0  0  0  0  0  0  0
  139.6350   70.4950  223.2380 C   0  0  0  0  0  0  0  0  0  0  0  0
  139.3120   69.5780  224.1990 C   0  0  0  0  0  0  0  0  0  0  0  0
  139.6990   69.8200  225.5190 C   0  0  0  0  0  0  0  0  0  0  0  0
  139.3810   68.9070  226.4890 C   0  0  0  0  0  0  0  0  0  0  0  0
  139.7830   69.1830  227.7970 C   0  0  0  0  0  0  0  0  0  0  0  0
  140.4790   70.3460  228.0870 C   0  0  0  0  0  0  0  0  0  0  0  0
  140.8010   71.2680  227.1170 C   0  0  0  0  0  0  0  0  0  0  0  0
  140.3970   70.9810  225.8280 C   0  0  0  0  0  0  0  0  0  0  0  0
  140.6970   71.8670  224.8390 N   0  0  0  0  0  0  0  0  0  0  0  0
  139.2010   74.0840  223.0080 H   0  0  0  0  0  0  0  0  0  0  0  0
  141.3452   74.3898  220.9124 H   0  0  0  0  0  0  0  0  0  0  0  0
  139.6044   74.4933  220.4110 H   0  0  0  0  0  0  0  0  0  0  0  0
  140.9057   78.5234  222.2321 H   0  0  0  0  0  0  0  0  0  0  0  0
  142.6330   78.1822  221.7347 H   0  0  0  0  0  0  0  0  0  0  0  0
  140.6118   79.9193  220.5708 H   0  0  0  0  0  0  0  0  0  0  0  0
  142.4704   79.8878  220.5038 H   0  0  0  0  0  0  0  0  0  0  0  0
  140.6765   79.4759  218.4974 H   0  0  0  0  0  0  0  0  0  0  0  0
  142.5221   79.1764  218.6220 H   0  0  0  0  0  0  0  0  0  0  0  0
  140.2800   77.3289  218.4371 H   0  0  0  0  0  0  0  0  0  0  0  0
  142.0045   77.3435  217.7628 H   0  0  0  0  0  0  0  0  0  0  0  0
  141.4637   75.5102  219.3677 H   0  0  0  0  0  0  0  0  0  0  0  0
  143.7752   76.9844  218.9706 H   0  0  0  0  0  0  0  0  0  0  0  0
  143.6279   76.7693  220.7456 H   0  0  0  0  0  0  0  0  0  0  0  0
  142.3113   74.4917  218.0486 H   0  0  0  0  0  0  0  0  0  0  0  0
  143.0164   72.1127  217.8816 H   0  0  0  0  0  0  0  0  0  0  0  0
  145.8886   72.7670  221.0558 H   0  0  0  0  0  0  0  0  0  0  0  0
  145.1409   75.1438  221.1774 H   0  0  0  0  0  0  0  0  0  0  0  0
  139.3382   70.3160  222.1940 H   0  0  0  0  0  0  0  0  0  0  0  0
  138.7568   68.6652  223.9372 H   0  0  0  0  0  0  0  0  0  0  0  0
  138.8278   67.9878  226.2458 H   0  0  0  0  0  0  0  0  0  0  0  0
  139.5459   68.4728  228.6028 H   0  0  0  0  0  0  0  0  0  0  0  0
  140.7840   70.5385  229.1262 H   0  0  0  0  0  0  0  0  0  0  0  0
  141.3532   72.1886  227.3569 H   0  0  0  0  0  0  0  0  0  0  0  0
  1  2  2  0
  2  3  1  0
  3  4  1  0
  4  5  1  0
  5  6  2  0
  5  7  1  0
  7  8  1  0
  8  9  1  0
  9 10  1  0
 10 11  1  0
 11 12  1  0
 12 13  1  0
 13 14  1  0
 14 15  2  0
 15 16  1  0
 16 17  2  0
 17 18  1  0
 17 19  1  0
 19 20  2  0
  2 21  1  0
 21 22  2  0
 22 23  1  0
 23 24  2  0
 24 25  1  0
 25 26  2  0
 26 27  1  0
 27 28  2  0
 28 29  1  0
 29 30  2  0
 12  7  1  0
 20 14  1  0
 30 21  1  0
 29 24  1  0
  3 31  1  0
  4 32  1  0
  4 33  1  0
  8 34  1  0
  8 35  1  0
  9 36  1  0
  9 37  1  0
 10 38  1  0
 10 39  1  0
 11 40  1  0
 11 41  1  0
 12 42  1  6
 13 43  1  0
 13 44  1  0
 15 45  1  0
 16 46  1  0
 19 47  1  0
 20 48  1  0
 22 49  1  0
 23 50  1  0
 25 51  1  0
 26 52  1  0
 27 53  1  0
 28 54  1  0
M  END
>  <smiles>  (19) 
O=C(NCC(=O)N1CCCC[C@H]1Cc1ccc(Cl)cc1)c1ccc2ccccc2n1

>  <score_type>  (19) 
oracle

>  <origin>  (19) 
autodockgpu

>  <m_score__min__energy>  (19) 
-9.0700000000000003

>  <m_primary>  (19) 
energy

>  <meeko>  (19) 
{"free_energy": -8.57, "intermolecular_energy": -10.36, "internal_energy": -2.04, "cluster_size": 10, "cluster_id": 2, "rank_in_cluster": 8}

>  <energy>  (19) 
-8.05

>  <cluster_rmsd>  (19) 
0.11

>  <rmsd>  (19) 
271.04

>  <cluster>  (19) 
3

$$$$

     RDKit          3D

 54 57  0  0  0  0  0  0  0  0999 V2000
  141.5000   72.0910  221.6830 O   0  0  0  0  0  0  0  0  0  0  0  0
  140.6270   72.3800  222.5570 C   0  0  0  0  0  0  0  0  0  0  0  0
  139.9010   73.5880  222.3380 N   0  0  0  0  0  0  0  0  0  0  0  0
  140.2330   74.3480  221.1560 C   0  0  0  0  0  0  0  0  0  0  0  0
  140.4290   75.7900  221.4600 C   0  0  0  0  0  0  0  0  0  0  0  0
  139.7330   76.3660  222.3420 O   0  0  0  0  0  0  0  0  0  0  0  0
  141.4280   76.4780  220.7160 N   0  0  0  0  0  0  0  0  0  0  0  0
  141.7400   77.8760  220.9200 C   0  0  0  0  0  0  0  0  0  0  0  0
  141.8250   78.6650  219.6570 C   0  0  0  0  0  0  0  0  0  0  0  0
  141.9980   77.9250  218.4050 C   0  0  0  0  0  0  0  0  0  0  0  0
  141.8820   76.4530  218.4110 C   0  0  0  0  0  0  0  0  0  0  0  0
  142.1820   75.7640  219.7020 C   0  0  1  0  0  0  0  0  0  0  0  0
  143.6540   75.7160  220.0390 C   0  0  0  0  0  0  0  0  0  0  0  0
  144.1790   74.3570  219.7470 C   0  0  0  0  0  0  0  0  0  0  0  0
  143.6390   73.5240  218.7930 C   0  0  0  0  0  0  0  0  0  0  0  0
  144.1580   72.2660  218.5520 C   0  0  0  0  0  0  0  0  0  0  0  0
  145.2450   71.8660  219.3030 C   0  0  0  0  0  0  0  0  0  0  0  0
  145.8860   70.2540  218.9700 Cl  0  0  0  0  0  0  0  0  0  0  0  0
  145.8300   72.6540  220.2710 C   0  0  0  0  0  0  0  0  0  0  0  0
  145.2680   73.9050  220.4700 C   0  0  0  0  0  0  0  0  0  0  0  0
  140.3740   71.5320  223.7200 C   0  0  0  0  0  0  0  0  0  0  0  0
  139.7190   70.3350  223.5020 C   0  0  0  0  0  0  0  0  0  0  0  0
  139.4460   69.4890  224.5400 C   0  0  0  0  0  0  0  0  0  0  0  0
  139.8410   69.8530  225.8300 C   0  0  0  0  0  0  0  0  0  0  0  0
  139.5730   69.0110  226.8760 C   0  0  0  0  0  0  0  0  0  0  0  0
  139.9820   69.4090  228.1490 C   0  0  0  0  0  0  0  0  0  0  0  0
  140.6370   70.6170  228.3320 C   0  0  0  0  0  0  0  0  0  0  0  0
  140.9100   71.4670  227.2840 C   0  0  0  0  0  0  0  0  0  0  0  0
  140.4990   71.0610  226.0300 C   0  0  0  0  0  0  0  0  0  0  0  0
  140.7500   71.8720  224.9670 N   0  0  0  0  0  0  0  0  0  0  0  0
  139.1690   73.8930  223.0070 H   0  0  0  0  0  0  0  0  0  0  0  0
  141.1616   73.9463  220.7243 H   0  0  0  0  0  0  0  0  0  0  0  0
  139.3956   74.2600  220.4482 H   0  0  0  0  0  0  0  0  0  0  0  0
  140.9558   78.3175  221.5525 H   0  0  0  0  0  0  0  0  0  0  0  0
  142.7335   77.9169  221.3904 H   0  0  0  0  0  0  0  0  0  0  0  0
  140.8957   79.2470  219.5695 H   0  0  0  0  0  0  0  0  0  0  0  0
  142.7455   79.2583  219.7600 H   0  0  0  0  0  0  0  0  0  0  0  0
  141.2411   78.3032  217.7021 H   0  0  0  0  0  0  0  0  0  0  0  0
  143.0518   78.1011  218.1431 H   0  0  0  0  0  0  0  0  0  0  0  0
  140.8498   76.1984  218.1288 H   0  0  0  0  0  0  0  0  0  0  0  0
  142.6499   76.0986  217.7076 H   0  0  0  0  0  0  0  0  0  0  0  0
  141.8903   74.7054  219.6360 H   0  0  0  0  0  0  0  0  0  0  0  0
  144.1946   76.4573  219.4321 H   0  0  0  0  0  0  0  0  0  0  0  0
  143.7962   75.9454  221.1054 H   0  0  0  0  0  0  0  0  0  0  0  0
  142.7732   73.8682  218.2083 H   0  0  0  0  0  0  0  0  0  0  0  0
  143.7201   71.6064  217.7883 H   0  0  0  0  0  0  0  0  0  0  0  0
  146.6963   72.3084  220.8541 H   0  0  0  0  0  0  0  0  0  0  0  0
  145.7055   74.5649  221.2336 H   0  0  0  0  0  0  0  0  0  0  0  0
  139.4139   70.0600  222.4816 H   0  0  0  0  0  0  0  0  0  0  0  0
  138.9239   68.5371  224.3629 H   0  0  0  0  0  0  0  0  0  0  0  0
  139.0535   68.0544  226.7181 H   0  0  0  0  0  0  0  0  0  0  0  0
  139.7832   68.7593  229.0141 H   0  0  0  0  0  0  0  0  0  0  0  0
  140.9485   70.9055  229.3468 H   0  0  0  0  0  0  0  0  0  0  0  0
  141.4306   72.4237  227.4383 H   0  0  0  0  0  0  0  0  0  0  0  0
  1  2  2  0
  2  3  1  0
  3  4  1  0
  4  5  1  0
  5  6  2  0
  5  7  1  0
  7  8  1  0
  8  9  1  0
  9 10  1  0
 10 11  1  0
 11 12  1  0
 12 13  1  0
 13 14  1  0
 14 15  2  0
 15 16  1  0
 16 17  2  0
 17 18  1  0
 17 19  1  0
 19 20  2  0
  2 21  1  0
 21 22  2  0
 22 23  1  0
 23 24  2  0
 24 25  1  0
 25 26  2  0
 26 27  1  0
 27 28  2  0
 28 29  1  0
 29 30  2  0
 12  7  1  0
 20 14  1  0
 30 21  1  0
 29 24  1  0
  3 31  1  0
  4 32  1  0
  4 33  1  0
  8 34  1  0
  8 35  1  0
  9 36  1  0
  9 37  1  0
 10 38  1  0
 10 39  1  0
 11 40  1  0
 11 41  1  0
 12 42  1  6
 13 43  1  0
 13 44  1  0
 15 45  1  0
 16 46  1  0
 19 47  1  0
 20 48  1  0
 22 49  1  0
 23 50  1  0
 25 51  1  0
 26 52  1  0
 27 53  1  0
 28 54  1  0
M  END
>  <smiles>  (20) 
O=C(NCC(=O)N1CCCC[C@H]1Cc1ccc(Cl)cc1)c1ccc2ccccc2n1

>  <score_type>  (20) 
oracle

>  <origin>  (20) 
autodockgpu

>  <m_score__min__energy>  (20) 
-9.0700000000000003

>  <m_primary>  (20) 
energy

>  <meeko>  (20) 
{"free_energy": -8.92, "intermolecular_energy": -10.71, "internal_energy": -1.8, "cluster_size": 10, "cluster_id": 2, "rank_in_cluster": 2}

>  <energy>  (20) 
-7.55

>  <cluster_rmsd>  (20) 
0.87

>  <rmsd>  (20) 
270.85

>  <cluster>  (20) 
3

$$$$
