
     RDKit          3D

 58 61  0  0  1  0  0  0  0  0999 V2000
  143.2620   80.5720  223.8280 C   0  0  0  0  0  0  0  0  0  0  0  0
  142.1710   81.5950  223.7880 C   0  0  0  0  0  0  0  0  0  0  0  0
  141.1860   81.3320  222.6980 C   0  0  0  0  0  0  0  0  0  0  0  0
  141.2500   82.0540  221.6710 O   0  0  0  0  0  0  0  0  0  0  0  0
  140.2300   80.2900  222.8650 N   0  0  0  0  0  0  0  0  0  0  0  0
  138.8500   80.6250  223.1380 C   0  0  0  0  0  0  0  0  0  0  0  0
  137.9750   80.9600  222.1300 C   0  0  0  0  0  0  0  0  0  0  0  0
  136.6670   81.2620  222.4490 C   0  0  0  0  0  0  0  0  0  0  0  0
  136.2810   81.2160  223.7830 C   0  0  0  0  0  0  0  0  0  0  0  0
  137.1630   80.8820  224.7720 C   0  0  0  0  0  0  0  0  0  0  0  0
  138.4790   80.5770  224.4670 C   0  0  0  0  0  0  0  0  0  0  0  0
  140.5950   78.9030  222.7780 C   0  0  0  0  0  0  0  0  0  0  0  0
  141.6850   78.5820  221.8340 C   0  0  0  0  0  0  0  0  0  0  0  0
  141.4100   77.4100  220.9010 C   0  0  0  0  0  0  0  0  0  0  0  0
  140.7780   76.2950  221.5190 N   0  0  0  0  0  0  0  0  0  0  0  0
  140.8280   74.9440  221.1150 C   0  0  0  0  0  0  0  0  0  0  0  0
  140.1980   74.0680  221.8320 O   0  0  0  0  0  0  0  0  0  0  0  0
  141.5220   74.3830  219.9490 C   0  0  2  0  0  0  0  0  0  0  0  0
  141.3040   75.1540  218.7850 N   0  0  0  0  0  0  0  0  0  0  0  0
  140.9580   72.9830  219.6580 C   0  0  0  0  0  0  0  0  0  0  0  0
  141.8290   72.1070  220.5030 C   0  0  0  0  0  0  0  0  0  0  0  0
  143.1390   72.7910  220.5480 C   0  0  0  0  0  0  0  0  0  0  0  0
  144.3940   72.2670  220.8570 C   0  0  0  0  0  0  0  0  0  0  0  0
  145.4520   73.1600  220.8180 C   0  0  0  0  0  0  0  0  0  0  0  0
  145.2800   74.4990  220.4930 C   0  0  0  0  0  0  0  0  0  0  0  0
  144.0300   75.0040  220.1890 C   0  0  0  0  0  0  0  0  0  0  0  0
  142.9630   74.1200  220.2240 C   0  0  0  0  0  0  0  0  0  0  0  0
  139.9630   76.5790  222.7160 C   0  0  0  0  0  0  0  0  0  0  0  0
  139.4000   77.9890  222.4850 C   0  0  0  0  0  0  0  0  0  0  0  0
  143.5091   80.3403  224.8745 H   0  0  0  0  0  0  0  0  0  0  0  0
  142.9251   79.6566  223.3194 H   0  0  0  0  0  0  0  0  0  0  0  0
  144.1538   80.9670  223.3194 H   0  0  0  0  0  0  0  0  0  0  0  0
  141.6420   81.5856  224.7524 H   0  0  0  0  0  0  0  0  0  0  0  0
  142.6347   82.5733  223.5930 H   0  0  0  0  0  0  0  0  0  0  0  0
  138.3139   80.9867  221.0838 H   0  0  0  0  0  0  0  0  0  0  0  0
  135.9455   81.5333  221.6643 H   0  0  0  0  0  0  0  0  0  0  0  0
  135.2406   81.4541  224.0494 H   0  0  0  0  0  0  0  0  0  0  0  0
  136.8250   80.8552  225.8185 H   0  0  0  0  0  0  0  0  0  0  0  0
  139.2002   80.3072  225.2525 H   0  0  0  0  0  0  0  0  0  0  0  0
  140.9832   78.7040  223.7878 H   0  0  0  0  0  0  0  0  0  0  0  0
  141.8732   79.4722  221.2159 H   0  0  0  0  0  0  0  0  0  0  0  0
  142.5461   78.2857  222.4510 H   0  0  0  0  0  0  0  0  0  0  0  0
  140.7604   77.7647  220.0872 H   0  0  0  0  0  0  0  0  0  0  0  0
  142.3901   77.0562  220.5486 H   0  0  0  0  0  0  0  0  0  0  0  0
  142.1720   75.4830  218.3150 H   0  0  0  0  0  0  0  0  0  0  0  0
  140.5880   75.9050  218.8770 H   0  0  0  0  0  0  0  0  0  0  0  0
  139.9033   72.9074  219.9610 H   0  0  0  0  0  0  0  0  0  0  0  0
  140.9683   72.7168  218.5908 H   0  0  0  0  0  0  0  0  0  0  0  0
  141.4104   72.0083  221.5154 H   0  0  0  0  0  0  0  0  0  0  0  0
  141.9102   71.0896  220.0929 H   0  0  0  0  0  0  0  0  0  0  0  0
  144.5352   71.2074  221.1163 H   0  0  0  0  0  0  0  0  0  0  0  0
  146.4632   72.7960  221.0525 H   0  0  0  0  0  0  0  0  0  0  0  0
  146.1526   75.1685  220.4773 H   0  0  0  0  0  0  0  0  0  0  0  0
  143.8878   76.0636  219.9300 H   0  0  0  0  0  0  0  0  0  0  0  0
  139.1472   75.8473  222.8113 H   0  0  0  0  0  0  0  0  0  0  0  0
  140.5520   76.5149  223.6428 H   0  0  0  0  0  0  0  0  0  0  0  0
  139.0572   78.1104  221.4469 H   0  0  0  0  0  0  0  0  0  0  0  0
  138.5262   78.2104  223.1155 H   0  0  0  0  0  0  0  0  0  0  0  0
  1  2  1  0
  2  3  1  0
  3  4  2  0
  3  5  1  0
  5  6  1  0
  6  7  2  0
  7  8  1  0
  8  9  2  0
  9 10  1  0
 10 11  2  0
  5 12  1  0
 12 13  1  0
 13 14  1  0
 14 15  1  0
 15 16  1  0
 16 17  2  0
 16 18  1  0
 18 19  1  6
 18 20  1  0
 20 21  1  0
 21 22  1  0
 22 23  2  0
 23 24  1  0
 24 25  2  0
 25 26  1  0
 26 27  2  0
 15 28  1  0
 28 29  1  0
 11  6  1  0
 29 12  1  0
 27 18  1  0
 27 22  1  0
  1 30  1  0
  1 31  1  0
  1 32  1  0
  2 33  1  0
  2 34  1  0
  7 35  1  0
  8 36  1  0
  9 37  1  0
 10 38  1  0
 11 39  1  0
 12 40  1  0
 13 41  1  0
 13 42  1  0
 14 43  1  0
 14 44  1  0
 19 45  1  0
 19 46  1  0
 20 47  1  0
 20 48  1  0
 21 49  1  0
 21 50  1  0
 23 51  1  0
 24 52  1  0
 25 53  1  0
 26 54  1  0
 28 55  1  0
 28 56  1  0
 29 57  1  0
 29 58  1  0
M  END
>  <smiles>  (1) 
CCC(=O)N(c1ccccc1)C1CCN(C(=O)C2(N)CCc3ccccc32)CC1

>  <score_type>  (1) 
oracle

>  <origin>  (1) 
autodockgpu

>  <m_score__min__energy>  (1) 
-7.1500000000000004

>  <m_primary>  (1) 
energy

>  <meeko>  (1) 
{"free_energy": -6.87, "intermolecular_energy": -8.66, "internal_energy": -1.62, "cluster_size": 10, "cluster_id": 3, "rank_in_cluster": 2}

>  <energy>  (1) 
-7.15

>  <cluster_rmsd>  (1) 
0.0

>  <rmsd>  (1) 
269.99

>  <cluster>  (1) 
1

$$$$

     RDKit          3D

 58 61  0  0  1  0  0  0  0  0999 V2000
  137.5580   78.4670  221.5640 C   0  0  0  0  0  0  0  0  0  0  0  0
  138.1540   77.7440  222.7310 C   0  0  0  0  0  0  0  0  0  0  0  0
  139.3810   76.9810  222.3590 C   0  0  0  0  0  0  0  0  0  0  0  0
  139.4360   75.7710  222.6980 O   0  0  0  0  0  0  0  0  0  0  0  0
  140.4210   77.6450  221.6490 N   0  0  0  0  0  0  0  0  0  0  0  0
  141.0140   78.8410  222.2050 C   0  0  0  0  0  0  0  0  0  0  0  0
  140.7540   80.0870  221.6810 C   0  0  0  0  0  0  0  0  0  0  0  0
  141.3410   81.1930  222.2590 C   0  0  0  0  0  0  0  0  0  0  0  0
  142.1770   81.0070  223.3540 C   0  0  0  0  0  0  0  0  0  0  0  0
  142.4250   79.7630  223.8610 C   0  0  0  0  0  0  0  0  0  0  0  0
  141.8430   78.6430  223.2910 C   0  0  0  0  0  0  0  0  0  0  0  0
  140.9020   77.1650  220.3840 C   0  0  0  0  0  0  0  0  0  0  0  0
  141.0810   75.7020  220.2750 C   0  0  0  0  0  0  0  0  0  0  0  0
  142.4100   75.2540  219.6810 C   0  0  0  0  0  0  0  0  0  0  0  0
  142.8460   76.0150  218.5610 N   0  0  0  0  0  0  0  0  0  0  0  0
  143.7080   75.6030  217.5220 C   0  0  0  0  0  0  0  0  0  0  0  0
  143.9660   76.4450  216.5720 O   0  0  0  0  0  0  0  0  0  0  0  0
  144.3720   74.3030  217.3720 C   0  0  2  0  0  0  0  0  0  0  0  0
  145.6220   74.4220  216.7220 N   0  0  0  0  0  0  0  0  0  0  0  0
  143.5030   73.3960  216.4870 C   0  0  0  0  0  0  0  0  0  0  0  0
  142.6070   72.7380  217.4890 C   0  0  0  0  0  0  0  0  0  0  0  0
  143.4120   72.6430  218.7260 C   0  0  0  0  0  0  0  0  0  0  0  0
  143.2350   71.8080  219.8280 C   0  0  0  0  0  0  0  0  0  0  0  0
  144.1580   71.9480  220.8520 C   0  0  0  0  0  0  0  0  0  0  0  0
  145.1980   72.8660  220.7910 C   0  0  0  0  0  0  0  0  0  0  0  0
  145.3610   73.6880  219.6920 C   0  0  0  0  0  0  0  0  0  0  0  0
  144.4440   73.5560  218.6610 C   0  0  0  0  0  0  0  0  0  0  0  0
  142.3540   77.4040  218.4750 C   0  0  0  0  0  0  0  0  0  0  0  0
  142.1940   77.8570  219.9350 C   0  0  0  0  0  0  0  0  0  0  0  0
  136.8976   79.2681  221.9274 H   0  0  0  0  0  0  0  0  0  0  0  0
  138.3622   78.9034  220.9534 H   0  0  0  0  0  0  0  0  0  0  0  0
  136.9762   77.7608  220.9534 H   0  0  0  0  0  0  0  0  0  0  0  0
  138.4163   78.4793  223.5060 H   0  0  0  0  0  0  0  0  0  0  0  0
  137.4079   77.0231  223.0965 H   0  0  0  0  0  0  0  0  0  0  0  0
  140.0873   80.1990  220.8133 H   0  0  0  0  0  0  0  0  0  0  0  0
  141.1517   82.2012  221.8619 H   0  0  0  0  0  0  0  0  0  0  0  0
  142.6500   81.8822  223.8233 H   0  0  0  0  0  0  0  0  0  0  0  0
  143.0919   79.6500  224.7284 H   0  0  0  0  0  0  0  0  0  0  0  0
  142.0338   77.6351  223.6881 H   0  0  0  0  0  0  0  0  0  0  0  0
  140.0761   77.4331  219.7087 H   0  0  0  0  0  0  0  0  0  0  0  0
  140.9974   75.2727  221.2843 H   0  0  0  0  0  0  0  0  0  0  0  0
  140.3026   75.3499  219.5820 H   0  0  0  0  0  0  0  0  0  0  0  0
  143.1780   75.3271  220.4651 H   0  0  0  0  0  0  0  0  0  0  0  0
  142.2584   74.2264  219.3190 H   0  0  0  0  0  0  0  0  0  0  0  0
  146.4360   74.1130  217.2910 H   0  0  0  0  0  0  0  0  0  0  0  0
  145.7880   75.3320  216.2430 H   0  0  0  0  0  0  0  0  0  0  0  0
  142.9238   73.9848  215.7604 H   0  0  0  0  0  0  0  0  0  0  0  0
  144.0833   72.6850  215.8806 H   0  0  0  0  0  0  0  0  0  0  0  0
  141.7071   73.3470  217.6603 H   0  0  0  0  0  0  0  0  0  0  0  0
  142.2619   71.7513  217.1464 H   0  0  0  0  0  0  0  0  0  0  0  0
  142.4113   71.0809  219.8816 H   0  0  0  0  0  0  0  0  0  0  0  0
  144.0636   71.3103  221.7433 H   0  0  0  0  0  0  0  0  0  0  0  0
  145.9039   72.9402  221.6314 H   0  0  0  0  0  0  0  0  0  0  0  0
  146.1837   74.4162  219.6378 H   0  0  0  0  0  0  0  0  0  0  0  0
  143.0812   78.0405  217.9496 H   0  0  0  0  0  0  0  0  0  0  0  0
  141.4111   77.4757  217.9131 H   0  0  0  0  0  0  0  0  0  0  0  0
  143.0486   77.5283  220.5447 H   0  0  0  0  0  0  0  0  0  0  0  0
  142.1541   78.9510  220.0425 H   0  0  0  0  0  0  0  0  0  0  0  0
  1  2  1  0
  2  3  1  0
  3  4  2  0
  3  5  1  0
  5  6  1  0
  6  7  2  0
  7  8  1  0
  8  9  2  0
  9 10  1  0
 10 11  2  0
  5 12  1  0
 12 13  1  0
 13 14  1  0
 14 15  1  0
 15 16  1  0
 16 17  2  0
 16 18  1  0
 18 19  1  6
 18 20  1  0
 20 21  1  0
 21 22  1  0
 22 23  2  0
 23 24  1  0
 24 25  2  0
 25 26  1  0
 26 27  2  0
 15 28  1  0
 28 29  1  0
 11  6  1  0
 29 12  1  0
 27 18  1  0
 27 22  1  0
  1 30  1  0
  1 31  1  0
  1 32  1  0
  2 33  1  0
  2 34  1  0
  7 35  1  0
  8 36  1  0
  9 37  1  0
 10 38  1  0
 11 39  1  0
 12 40  1  0
 13 41  1  0
 13 42  1  0
 14 43  1  0
 14 44  1  0
 19 45  1  0
 19 46  1  0
 20 47  1  0
 20 48  1  0
 21 49  1  0
 21 50  1  0
 23 51  1  0
 24 52  1  0
 25 53  1  0
 26 54  1  0
 28 55  1  0
 28 56  1  0
 29 57  1  0
 29 58  1  0
M  END
>  <smiles>  (2) 
CCC(=O)N(c1ccccc1)C1CCN(C(=O)C2(N)CCc3ccccc32)CC1

>  <score_type>  (2) 
oracle

>  <origin>  (2) 
autodockgpu

>  <m_score__min__energy>  (2) 
-7.1500000000000004

>  <m_primary>  (2) 
energy

>  <meeko>  (2) 
{"free_energy": -6.34, "intermolecular_energy": -8.13, "internal_energy": -2.08, "cluster_size": 2, "cluster_id": 6, "rank_in_cluster": 2}

>  <energy>  (2) 
-7.11

>  <cluster_rmsd>  (2) 
0.0

>  <rmsd>  (2) 
270.09

>  <cluster>  (2) 
2

$$$$

     RDKit          3D

 58 61  0  0  1  0  0  0  0  0999 V2000
  141.2350   81.5350  220.3050 C   0  0  0  0  0  0  0  0  0  0  0  0
  141.3730   82.3040  221.5810 C   0  0  0  0  0  0  0  0  0  0  0  0
  141.4030   81.4140  222.7780 C   0  0  0  0  0  0  0  0  0  0  0  0
  142.3210   81.6010  223.6170 O   0  0  0  0  0  0  0  0  0  0  0  0
  140.4080   80.4060  222.9180 N   0  0  0  0  0  0  0  0  0  0  0  0
  139.0370   80.7880  223.1760 C   0  0  0  0  0  0  0  0  0  0  0  0
  138.2210   81.2710  222.1790 C   0  0  0  0  0  0  0  0  0  0  0  0
  136.9200   81.6110  222.4820 C   0  0  0  0  0  0  0  0  0  0  0  0
  136.4780   81.4510  223.7900 C   0  0  0  0  0  0  0  0  0  0  0  0
  137.3010   80.9690  224.7690 C   0  0  0  0  0  0  0  0  0  0  0  0
  138.6110   80.6250  224.4790 C   0  0  0  0  0  0  0  0  0  0  0  0
  140.7230   79.0080  222.8160 C   0  0  0  0  0  0  0  0  0  0  0  0
  141.8070   78.6590  221.8760 C   0  0  0  0  0  0  0  0  0  0  0  0
  141.4970   77.5090  220.9270 C   0  0  0  0  0  0  0  0  0  0  0  0
  140.8220   76.4100  221.5280 N   0  0  0  0  0  0  0  0  0  0  0  0
  140.8260   75.0620  221.1090 C   0  0  0  0  0  0  0  0  0  0  0  0
  140.1610   74.2020  221.8120 O   0  0  0  0  0  0  0  0  0  0  0  0
  141.5060   74.4900  219.9410 C   0  0  2  0  0  0  0  0  0  0  0  0
  141.3060   75.2710  218.7800 N   0  0  0  0  0  0  0  0  0  0  0  0
  140.9110   73.1050  219.6450 C   0  0  0  0  0  0  0  0  0  0  0  0
  141.7610   72.2060  220.4860 C   0  0  0  0  0  0  0  0  0  0  0  0
  143.0870   72.8590  220.5330 C   0  0  0  0  0  0  0  0  0  0  0  0
  144.3290   72.3050  220.8400 C   0  0  0  0  0  0  0  0  0  0  0  0
  145.4080   73.1730  220.8050 C   0  0  0  0  0  0  0  0  0  0  0  0
  145.2660   74.5180  220.4850 C   0  0  0  0  0  0  0  0  0  0  0  0
  144.0280   75.0520  220.1840 C   0  0  0  0  0  0  0  0  0  0  0  0
  142.9420   74.1930  220.2150 C   0  0  0  0  0  0  0  0  0  0  0  0
  140.0100   76.7090  222.7240 C   0  0  0  0  0  0  0  0  0  0  0  0
  139.4990   78.1410  222.5060 C   0  0  0  0  0  0  0  0  0  0  0  0
  141.0450   80.4760  220.5338 H   0  0  0  0  0  0  0  0  0  0  0  0
  140.3953   81.9405  219.7215 H   0  0  0  0  0  0  0  0  0  0  0  0
  142.1633   81.6232  219.7215 H   0  0  0  0  0  0  0  0  0  0  0  0
  142.3083   82.8819  221.5463 H   0  0  0  0  0  0  0  0  0  0  0  0
  140.4969   82.9628  221.6733 H   0  0  0  0  0  0  0  0  0  0  0  0
  138.6020   81.3844  221.1533 H   0  0  0  0  0  0  0  0  0  0  0  0
  136.2458   82.0007  221.7051 H   0  0  0  0  0  0  0  0  0  0  0  0
  135.4415   81.7186  224.0432 H   0  0  0  0  0  0  0  0  0  0  0  0
  136.9203   80.8535  225.7945 H   0  0  0  0  0  0  0  0  0  0  0  0
  139.2855   80.2371  225.2565 H   0  0  0  0  0  0  0  0  0  0  0  0
  141.0969   78.7836  223.8259 H   0  0  0  0  0  0  0  0  0  0  0  0
  142.0317   79.5491  221.2701 H   0  0  0  0  0  0  0  0  0  0  0  0
  142.6522   78.3243  222.4954 H   0  0  0  0  0  0  0  0  0  0  0  0
  140.8656   77.8961  220.1137 H   0  0  0  0  0  0  0  0  0  0  0  0
  142.4661   77.1250  220.5758 H   0  0  0  0  0  0  0  0  0  0  0  0
  142.1670   75.4440  218.2220 H   0  0  0  0  0  0  0  0  0  0  0  0
  140.7360   76.1310  218.9160 H   0  0  0  0  0  0  0  0  0  0  0  0
  139.8548   73.0523  219.9477 H   0  0  0  0  0  0  0  0  0  0  0  0
  140.9158   72.8429  218.5767 H   0  0  0  0  0  0  0  0  0  0  0  0
  141.3405   72.1133  221.4982 H   0  0  0  0  0  0  0  0  0  0  0  0
  141.8181   71.1885  220.0721 H   0  0  0  0  0  0  0  0  0  0  0  0
  144.4453   71.2413  221.0950 H   0  0  0  0  0  0  0  0  0  0  0  0
  146.4105   72.7848  221.0382 H   0  0  0  0  0  0  0  0  0  0  0  0
  146.1535   75.1677  220.4712 H   0  0  0  0  0  0  0  0  0  0  0  0
  143.9096   76.1157  219.9302 H   0  0  0  0  0  0  0  0  0  0  0  0
  139.1681   76.0058  222.8060 H   0  0  0  0  0  0  0  0  0  0  0  0
  140.5904   76.6132  223.6535 H   0  0  0  0  0  0  0  0  0  0  0  0
  139.1671   78.2862  221.4674 H   0  0  0  0  0  0  0  0  0  0  0  0
  138.6299   78.3862  223.1341 H   0  0  0  0  0  0  0  0  0  0  0  0
  1  2  1  0
  2  3  1  0
  3  4  2  0
  3  5  1  0
  5  6  1  0
  6  7  2  0
  7  8  1  0
  8  9  2  0
  9 10  1  0
 10 11  2  0
  5 12  1  0
 12 13  1  0
 13 14  1  0
 14 15  1  0
 15 16  1  0
 16 17  2  0
 16 18  1  0
 18 19  1  6
 18 20  1  0
 20 21  1  0
 21 22  1  0
 22 23  2  0
 23 24  1  0
 24 25  2  0
 25 26  1  0
 26 27  2  0
 15 28  1  0
 28 29  1  0
 11  6  1  0
 29 12  1  0
 27 18  1  0
 27 22  1  0
  1 30  1  0
  1 31  1  0
  1 32  1  0
  2 33  1  0
  2 34  1  0
  7 35  1  0
  8 36  1  0
  9 37  1  0
 10 38  1  0
 11 39  1  0
 12 40  1  0
 13 41  1  0
 13 42  1  0
 14 43  1  0
 14 44  1  0
 19 45  1  0
 19 46  1  0
 20 47  1  0
 20 48  1  0
 21 49  1  0
 21 50  1  0
 23 51  1  0
 24 52  1  0
 25 53  1  0
 26 54  1  0
 28 55  1  0
 28 56  1  0
 29 57  1  0
 29 58  1  0
M  END
>  <smiles>  (3) 
CCC(=O)N(c1ccccc1)C1CCN(C(=O)C2(N)CCc3ccccc32)CC1

>  <score_type>  (3) 
oracle

>  <origin>  (3) 
autodockgpu

>  <m_score__min__energy>  (3) 
-7.1500000000000004

>  <m_primary>  (3) 
energy

>  <meeko>  (3) 
{"free_energy": -6.65, "intermolecular_energy": -8.44, "internal_energy": -1.7, "cluster_size": 10, "cluster_id": 3, "rank_in_cluster": 10}

>  <energy>  (3) 
-7.1

>  <cluster_rmsd>  (3) 
0.04

>  <rmsd>  (3) 
270.08

>  <cluster>  (3) 
2

$$$$

     RDKit          3D

 58 61  0  0  1  0  0  0  0  0999 V2000
  146.4450   73.3480  221.9670 C   0  0  0  0  0  0  0  0  0  0  0  0
  145.9360   74.1630  220.8190 C   0  0  0  0  0  0  0  0  0  0  0  0
  145.6100   73.3240  219.6290 C   0  0  0  0  0  0  0  0  0  0  0  0
  146.2830   72.2760  219.4560 O   0  0  0  0  0  0  0  0  0  0  0  0
  144.5670   73.7400  218.7540 N   0  0  0  0  0  0  0  0  0  0  0  0
  144.8610   73.9860  217.3600 C   0  0  0  0  0  0  0  0  0  0  0  0
  144.4660   75.1440  216.7310 C   0  0  0  0  0  0  0  0  0  0  0  0
  144.7830   75.3270  215.4010 C   0  0  0  0  0  0  0  0  0  0  0  0
  145.4940   74.3310  214.7430 C   0  0  0  0  0  0  0  0  0  0  0  0
  145.8800   73.1860  215.3830 C   0  0  0  0  0  0  0  0  0  0  0  0
  145.5670   72.9880  216.7170 C   0  0  0  0  0  0  0  0  0  0  0  0
  143.2200   73.9310  219.2140 C   0  0  0  0  0  0  0  0  0  0  0  0
  142.6480   75.2750  218.9950 C   0  0  0  0  0  0  0  0  0  0  0  0
  141.9570   75.8900  220.2050 C   0  0  0  0  0  0  0  0  0  0  0  0
  141.1460   74.9880  220.9480 N   0  0  0  0  0  0  0  0  0  0  0  0
  140.0390   75.2980  221.7670 C   0  0  0  0  0  0  0  0  0  0  0  0
  139.4140   74.3210  222.3440 O   0  0  0  0  0  0  0  0  0  0  0  0
  139.4870   76.6250  222.0610 C   0  0  2  0  0  0  0  0  0  0  0  0
  138.5210   76.5770  223.0920 N   0  0  0  0  0  0  0  0  0  0  0  0
  138.7670   77.1560  220.8120 C   0  0  0  0  0  0  0  0  0  0  0  0
  139.8700   77.8590  220.0840 C   0  0  0  0  0  0  0  0  0  0  0  0
  140.7760   78.3570  221.1410 C   0  0  0  0  0  0  0  0  0  0  0  0
  141.7280   79.3740  221.0740 C   0  0  0  0  0  0  0  0  0  0  0  0
  142.4370   79.6190  222.2390 C   0  0  0  0  0  0  0  0  0  0  0  0
  142.2180   78.8990  223.4060 C   0  0  0  0  0  0  0  0  0  0  0  0
  141.2710   77.8940  223.4560 C   0  0  0  0  0  0  0  0  0  0  0  0
  140.5550   77.6390  222.2970 C   0  0  0  0  0  0  0  0  0  0  0  0
  141.5060   73.5590  220.8670 C   0  0  0  0  0  0  0  0  0  0  0  0
  143.0310   73.5460  220.6860 C   0  0  0  0  0  0  0  0  0  0  0  0
  146.1484   73.8229  222.9138 H   0  0  0  0  0  0  0  0  0  0  0  0
  146.0185   72.3354  221.9153 H   0  0  0  0  0  0  0  0  0  0  0  0
  147.5421   73.2869  221.9153 H   0  0  0  0  0  0  0  0  0  0  0  0
  145.0265   74.6935  221.1376 H   0  0  0  0  0  0  0  0  0  0  0  0
  146.7301   74.8661  220.5275 H   0  0  0  0  0  0  0  0  0  0  0  0
  143.9049   75.9137  217.2813 H   0  0  0  0  0  0  0  0  0  0  0  0
  144.4792   76.2425  214.8723 H   0  0  0  0  0  0  0  0  0  0  0  0
  145.7524   74.4668  213.6824 H   0  0  0  0  0  0  0  0  0  0  0  0
  146.4431   72.4168  214.8341 H   0  0  0  0  0  0  0  0  0  0  0  0
  145.8689   72.0712  217.2445 H   0  0  0  0  0  0  0  0  0  0  0  0
  142.6584   73.2400  218.5682 H   0  0  0  0  0  0  0  0  0  0  0  0
  143.4641   75.9469  218.6910 H   0  0  0  0  0  0  0  0  0  0  0  0
  141.8696   75.1544  218.2272 H   0  0  0  0  0  0  0  0  0  0  0  0
  142.7320   76.2873  220.8770 H   0  0  0  0  0  0  0  0  0  0  0  0
  141.2821   76.6667  219.8161 H   0  0  0  0  0  0  0  0  0  0  0  0
  138.3960   75.6380  223.5230 H   0  0  0  0  0  0  0  0  0  0  0  0
  137.6160   77.0430  222.8750 H   0  0  0  0  0  0  0  0  0  0  0  0
  138.3534   76.3332  220.2104 H   0  0  0  0  0  0  0  0  0  0  0  0
  137.9071   77.8028  221.0404 H   0  0  0  0  0  0  0  0  0  0  0  0
  140.3998   77.1609  219.4192 H   0  0  0  0  0  0  0  0  0  0  0  0
  139.4904   78.6740  219.4502 H   0  0  0  0  0  0  0  0  0  0  0  0
  141.9053   79.9470  220.1520 H   0  0  0  0  0  0  0  0  0  0  0  0
  143.1999   80.4115  222.2394 H   0  0  0  0  0  0  0  0  0  0  0  0
  142.8077   79.1324  224.3048 H   0  0  0  0  0  0  0  0  0  0  0  0
  141.0928   77.3202  224.3774 H   0  0  0  0  0  0  0  0  0  0  0  0
  141.2214   73.0351  221.7914 H   0  0  0  0  0  0  0  0  0  0  0  0
  140.9866   73.0469  220.0436 H   0  0  0  0  0  0  0  0  0  0  0  0
  143.5119   74.2800  221.3493 H   0  0  0  0  0  0  0  0  0  0  0  0
  143.4839   72.5754  220.9366 H   0  0  0  0  0  0  0  0  0  0  0  0
  1  2  1  0
  2  3  1  0
  3  4  2  0
  3  5  1  0
  5  6  1  0
  6  7  2  0
  7  8  1  0
  8  9  2  0
  9 10  1  0
 10 11  2  0
  5 12  1  0
 12 13  1  0
 13 14  1  0
 14 15  1  0
 15 16  1  0
 16 17  2  0
 16 18  1  0
 18 19  1  1
 18 20  1  0
 20 21  1  0
 21 22  1  0
 22 23  2  0
 23 24  1  0
 24 25  2  0
 25 26  1  0
 26 27  2  0
 15 28  1  0
 28 29  1  0
 11  6  1  0
 29 12  1  0
 27 18  1  0
 27 22  1  0
  1 30  1  0
  1 31  1  0
  1 32  1  0
  2 33  1  0
  2 34  1  0
  7 35  1  0
  8 36  1  0
  9 37  1  0
 10 38  1  0
 11 39  1  0
 12 40  1  0
 13 41  1  0
 13 42  1  0
 14 43  1  0
 14 44  1  0
 19 45  1  0
 19 46  1  0
 20 47  1  0
 20 48  1  0
 21 49  1  0
 21 50  1  0
 23 51  1  0
 24 52  1  0
 25 53  1  0
 26 54  1  0
 28 55  1  0
 28 56  1  0
 29 57  1  0
 29 58  1  0
M  END
>  <smiles>  (4) 
CCC(=O)N(c1ccccc1)C1CCN(C(=O)C2(N)CCc3ccccc32)CC1

>  <score_type>  (4) 
oracle

>  <origin>  (4) 
autodockgpu

>  <m_score__min__energy>  (4) 
-7.1500000000000004

>  <m_primary>  (4) 
energy

>  <meeko>  (4) 
{"free_energy": -7.11, "intermolecular_energy": -8.9, "internal_energy": -1.55, "cluster_size": 4, "cluster_id": 2, "rank_in_cluster": 1}

>  <energy>  (4) 
-7.08

>  <cluster_rmsd>  (4) 
0.1

>  <rmsd>  (4) 
270.12

>  <cluster>  (4) 
2

$$$$

     RDKit          3D

 58 61  0  0  1  0  0  0  0  0999 V2000
  146.3760   73.3280  221.9620 C   0  0  0  0  0  0  0  0  0  0  0  0
  145.9090   74.1530  220.8040 C   0  0  0  0  0  0  0  0  0  0  0  0
  145.5720   73.3190  219.6130 C   0  0  0  0  0  0  0  0  0  0  0  0
  146.2360   72.2660  219.4360 O   0  0  0  0  0  0  0  0  0  0  0  0
  144.5300   73.7450  218.7420 N   0  0  0  0  0  0  0  0  0  0  0  0
  144.8240   73.9990  217.3490 C   0  0  0  0  0  0  0  0  0  0  0  0
  144.4360   75.1650  216.7290 C   0  0  0  0  0  0  0  0  0  0  0  0
  144.7530   75.3560  215.4000 C   0  0  0  0  0  0  0  0  0  0  0  0
  145.4560   74.3590  214.7340 C   0  0  0  0  0  0  0  0  0  0  0  0
  145.8340   73.2070  215.3650 C   0  0  0  0  0  0  0  0  0  0  0  0
  145.5220   73.0010  216.6980 C   0  0  0  0  0  0  0  0  0  0  0  0
  143.1840   73.9390  219.2050 C   0  0  0  0  0  0  0  0  0  0  0  0
  142.6170   75.2860  218.9910 C   0  0  0  0  0  0  0  0  0  0  0  0
  141.9290   75.8990  220.2030 C   0  0  0  0  0  0  0  0  0  0  0  0
  141.1160   74.9970  220.9450 N   0  0  0  0  0  0  0  0  0  0  0  0
  140.0120   75.3080  221.7660 C   0  0  0  0  0  0  0  0  0  0  0  0
  139.3840   74.3310  222.3410 O   0  0  0  0  0  0  0  0  0  0  0  0
  139.4640   76.6360  222.0660 C   0  0  2  0  0  0  0  0  0  0  0  0
  138.4980   76.5870  223.0960 N   0  0  0  0  0  0  0  0  0  0  0  0
  138.7460   77.1740  220.8180 C   0  0  0  0  0  0  0  0  0  0  0  0
  139.8510   77.8760  220.0930 C   0  0  0  0  0  0  0  0  0  0  0  0
  140.7590   78.3670  221.1510 C   0  0  0  0  0  0  0  0  0  0  0  0
  141.7140   79.3800  221.0890 C   0  0  0  0  0  0  0  0  0  0  0  0
  142.4250   79.6200  222.2540 C   0  0  0  0  0  0  0  0  0  0  0  0
  142.2030   78.8950  223.4180 C   0  0  0  0  0  0  0  0  0  0  0  0
  141.2520   77.8930  223.4650 C   0  0  0  0  0  0  0  0  0  0  0  0
  140.5360   77.6460  222.3050 C   0  0  0  0  0  0  0  0  0  0  0  0
  141.4720   73.5670  220.8590 C   0  0  0  0  0  0  0  0  0  0  0  0
  142.9970   73.5500  220.6750 C   0  0  0  0  0  0  0  0  0  0  0  0
  146.0951   73.8242  222.9027 H   0  0  0  0  0  0  0  0  0  0  0  0
  145.9065   72.3343  221.9172 H   0  0  0  0  0  0  0  0  0  0  0  0
  147.4697   73.2191  221.9172 H   0  0  0  0  0  0  0  0  0  0  0  0
  145.0129   74.7139  221.1080 H   0  0  0  0  0  0  0  0  0  0  0  0
  146.7292   74.8288  220.5201 H   0  0  0  0  0  0  0  0  0  0  0  0
  143.8806   75.9342  217.2857 H   0  0  0  0  0  0  0  0  0  0  0  0
  144.4557   76.2778  214.8785 H   0  0  0  0  0  0  0  0  0  0  0  0
  145.7142   74.5004  213.6741 H   0  0  0  0  0  0  0  0  0  0  0  0
  146.3904   72.4377  214.8095 H   0  0  0  0  0  0  0  0  0  0  0  0
  145.8185   72.0783  217.2183 H   0  0  0  0  0  0  0  0  0  0  0  0
  142.6180   73.2522  218.5585 H   0  0  0  0  0  0  0  0  0  0  0  0
  143.4356   75.9559  218.6892 H   0  0  0  0  0  0  0  0  0  0  0  0
  141.8379   75.1711  218.2230 H   0  0  0  0  0  0  0  0  0  0  0  0
  142.7057   76.2924  220.8753 H   0  0  0  0  0  0  0  0  0  0  0  0
  141.2555   76.6782  219.8167 H   0  0  0  0  0  0  0  0  0  0  0  0
  138.3710   75.6480  223.5250 H   0  0  0  0  0  0  0  0  0  0  0  0
  137.5940   77.0560  222.8800 H   0  0  0  0  0  0  0  0  0  0  0  0
  138.3301   76.3546  220.2133 H   0  0  0  0  0  0  0  0  0  0  0  0
  137.8881   77.8228  221.0484 H   0  0  0  0  0  0  0  0  0  0  0  0
  140.3782   77.1786  219.4254 H   0  0  0  0  0  0  0  0  0  0  0  0
  139.4737   78.6948  219.4628 H   0  0  0  0  0  0  0  0  0  0  0  0
  141.8930   79.9556  220.1689 H   0  0  0  0  0  0  0  0  0  0  0  0
  143.1901   80.4103  222.2572 H   0  0  0  0  0  0  0  0  0  0  0  0
  142.7940   79.1221  224.3175 H   0  0  0  0  0  0  0  0  0  0  0  0
  141.0714   77.3164  224.3842 H   0  0  0  0  0  0  0  0  0  0  0  0
  141.1877   73.0411  221.7824 H   0  0  0  0  0  0  0  0  0  0  0  0
  140.9497   73.0590  220.0349 H   0  0  0  0  0  0  0  0  0  0  0  0
  143.4814   74.2804  221.3397 H   0  0  0  0  0  0  0  0  0  0  0  0
  143.4476   72.5773  220.9215 H   0  0  0  0  0  0  0  0  0  0  0  0
  1  2  1  0
  2  3  1  0
  3  4  2  0
  3  5  1  0
  5  6  1  0
  6  7  2  0
  7  8  1  0
  8  9  2  0
  9 10  1  0
 10 11  2  0
  5 12  1  0
 12 13  1  0
 13 14  1  0
 14 15  1  0
 15 16  1  0
 16 17  2  0
 16 18  1  0
 18 19  1  1
 18 20  1  0
 20 21  1  0
 21 22  1  0
 22 23  2  0
 23 24  1  0
 24 25  2  0
 25 26  1  0
 26 27  2  0
 15 28  1  0
 28 29  1  0
 11  6  1  0
 29 12  1  0
 27 18  1  0
 27 22  1  0
  1 30  1  0
  1 31  1  0
  1 32  1  0
  2 33  1  0
  2 34  1  0
  7 35  1  0
  8 36  1  0
  9 37  1  0
 10 38  1  0
 11 39  1  0
 12 40  1  0
 13 41  1  0
 13 42  1  0
 14 43  1  0
 14 44  1  0
 19 45  1  0
 19 46  1  0
 20 47  1  0
 20 48  1  0
 21 49  1  0
 21 50  1  0
 23 51  1  0
 24 52  1  0
 25 53  1  0
 26 54  1  0
 28 55  1  0
 28 56  1  0
 29 57  1  0
 29 58  1  0
M  END
>  <smiles>  (5) 
CCC(=O)N(c1ccccc1)C1CCN(C(=O)C2(N)CCc3ccccc32)CC1

>  <score_type>  (5) 
oracle

>  <origin>  (5) 
autodockgpu

>  <m_score__min__energy>  (5) 
-7.1500000000000004

>  <m_primary>  (5) 
energy

>  <meeko>  (5) 
{"free_energy": -7.1, "intermolecular_energy": -8.89, "internal_energy": -1.56, "cluster_size": 4, "cluster_id": 2, "rank_in_cluster": 2}

>  <energy>  (5) 
-7.05

>  <cluster_rmsd>  (5) 
0.08

>  <rmsd>  (5) 
270.07

>  <cluster>  (5) 
2

$$$$

     RDKit          3D

 58 61  0  0  1  0  0  0  0  0999 V2000
  137.6800   71.0100  219.0830 C   0  0  0  0  0  0  0  0  0  0  0  0
  136.5370   71.8950  219.4680 C   0  0  0  0  0  0  0  0  0  0  0  0
  136.1710   71.7550  220.9070 C   0  0  0  0  0  0  0  0  0  0  0  0
  134.9730   71.4810  221.1770 O   0  0  0  0  0  0  0  0  0  0  0  0
  137.1760   71.9350  221.8990 N   0  0  0  0  0  0  0  0  0  0  0  0
  137.9970   73.1250  221.8750 C   0  0  0  0  0  0  0  0  0  0  0  0
  137.4570   74.3800  222.0410 C   0  0  0  0  0  0  0  0  0  0  0  0
  138.2910   75.4780  222.0180 C   0  0  0  0  0  0  0  0  0  0  0  0
  139.6530   75.2760  221.8250 C   0  0  0  0  0  0  0  0  0  0  0  0
  140.1730   74.0220  221.6620 C   0  0  0  0  0  0  0  0  0  0  0  0
  139.3480   72.9100  221.6820 C   0  0  0  0  0  0  0  0  0  0  0  0
  137.4090   70.9620  222.9300 C   0  0  0  0  0  0  0  0  0  0  0  0
  137.9570   71.4850  224.1980 C   0  0  0  0  0  0  0  0  0  0  0  0
  139.1430   70.7120  224.7590 C   0  0  0  0  0  0  0  0  0  0  0  0
  139.0230   69.2970  224.6750 N   0  0  0  0  0  0  0  0  0  0  0  0
  139.6470   68.3290  225.4900 C   0  0  0  0  0  0  0  0  0  0  0  0
  139.3870   67.0800  225.2640 O   0  0  0  0  0  0  0  0  0  0  0  0
  140.5860   68.5590  226.5950 C   0  0  2  0  0  0  0  0  0  0  0  0
  141.7530   67.7720  226.4670 N   0  0  0  0  0  0  0  0  0  0  0  0
  139.9180   68.1400  227.9130 C   0  0  0  0  0  0  0  0  0  0  0  0
  139.2290   69.4000  228.3360 C   0  0  0  0  0  0  0  0  0  0  0  0
  140.0750   70.4960  227.8170 C   0  0  0  0  0  0  0  0  0  0  0  0
  140.1290   71.8300  228.2200 C   0  0  0  0  0  0  0  0  0  0  0  0
  141.0290   72.6350  227.5400 C   0  0  0  0  0  0  0  0  0  0  0  0
  141.8300   72.1480  226.5150 C   0  0  0  0  0  0  0  0  0  0  0  0
  141.7640   70.8230  226.1260 C   0  0  0  0  0  0  0  0  0  0  0  0
  140.8680   70.0090  226.8000 C   0  0  0  0  0  0  0  0  0  0  0  0
  138.1540   68.7720  223.6040 C   0  0  0  0  0  0  0  0  0  0  0  0
  138.2770   69.7900  222.4600 C   0  0  0  0  0  0  0  0  0  0  0  0
  138.1712   70.6297  219.9908 H   0  0  0  0  0  0  0  0  0  0  0  0
  137.3048   70.1646  218.4875 H   0  0  0  0  0  0  0  0  0  0  0  0
  138.4045   71.5849  218.4875 H   0  0  0  0  0  0  0  0  0  0  0  0
  136.8189   72.9406  219.2750 H   0  0  0  0  0  0  0  0  0  0  0  0
  135.6642   71.5964  218.8687 H   0  0  0  0  0  0  0  0  0  0  0  0
  136.3744   74.5056  222.1901 H   0  0  0  0  0  0  0  0  0  0  0  0
  137.8871   76.4926  222.1496 H   0  0  0  0  0  0  0  0  0  0  0  0
  140.3275   76.1447  221.8029 H   0  0  0  0  0  0  0  0  0  0  0  0
  141.2556   73.8954  221.5138 H   0  0  0  0  0  0  0  0  0  0  0  0
  139.7523   71.8956  221.5495 H   0  0  0  0  0  0  0  0  0  0  0  0
  136.3894   70.6115  223.1482 H   0  0  0  0  0  0  0  0  0  0  0  0
  138.2773   72.5235  224.0277 H   0  0  0  0  0  0  0  0  0  0  0  0
  137.1515   71.3901  224.9411 H   0  0  0  0  0  0  0  0  0  0  0  0
  140.0427   71.0133  224.2025 H   0  0  0  0  0  0  0  0  0  0  0  0
  139.1950   70.9566  225.8302 H   0  0  0  0  0  0  0  0  0  0  0  0
  142.6010   68.3010  226.1800 H   0  0  0  0  0  0  0  0  0  0  0  0
  141.6340   66.8840  225.9360 H   0  0  0  0  0  0  0  0  0  0  0  0
  139.1960   67.3258  227.7525 H   0  0  0  0  0  0  0  0  0  0  0  0
  140.6248   67.7519  228.6612 H   0  0  0  0  0  0  0  0  0  0  0  0
  138.2198   69.4526  227.9015 H   0  0  0  0  0  0  0  0  0  0  0  0
  139.1070   69.4558  229.4278 H   0  0  0  0  0  0  0  0  0  0  0  0
  139.4948   72.2201  229.0297 H   0  0  0  0  0  0  0  0  0  0  0  0
  141.1118   73.6952  227.8214 H   0  0  0  0  0  0  0  0  0  0  0  0
  142.5282   72.8276  226.0045 H   0  0  0  0  0  0  0  0  0  0  0  0
  142.3963   70.4315  225.3155 H   0  0  0  0  0  0  0  0  0  0  0  0
  138.4986   67.7797  223.2776 H   0  0  0  0  0  0  0  0  0  0  0  0
  137.1133   68.6488  223.9384 H   0  0  0  0  0  0  0  0  0  0  0  0
  139.3223   70.1045  222.3241 H   0  0  0  0  0  0  0  0  0  0  0  0
  137.9590   69.3836  221.4886 H   0  0  0  0  0  0  0  0  0  0  0  0
  1  2  1  0
  2  3  1  0
  3  4  2  0
  3  5  1  0
  5  6  1  0
  6  7  2  0
  7  8  1  0
  8  9  2  0
  9 10  1  0
 10 11  2  0
  5 12  1  0
 12 13  1  0
 13 14  1  0
 14 15  1  0
 15 16  1  0
 16 17  2  0
 16 18  1  0
 18 19  1  6
 18 20  1  0
 20 21  1  0
 21 22  1  0
 22 23  2  0
 23 24  1  0
 24 25  2  0
 25 26  1  0
 26 27  2  0
 15 28  1  0
 28 29  1  0
 11  6  1  0
 29 12  1  0
 27 18  1  0
 27 22  1  0
  1 30  1  0
  1 31  1  0
  1 32  1  0
  2 33  1  0
  2 34  1  0
  7 35  1  0
  8 36  1  0
  9 37  1  0
 10 38  1  0
 11 39  1  0
 12 40  1  0
 13 41  1  0
 13 42  1  0
 14 43  1  0
 14 44  1  0
 19 45  1  0
 19 46  1  0
 20 47  1  0
 20 48  1  0
 21 49  1  0
 21 50  1  0
 23 51  1  0
 24 52  1  0
 25 53  1  0
 26 54  1  0
 28 55  1  0
 28 56  1  0
 29 57  1  0
 29 58  1  0
M  END
>  <smiles>  (6) 
CCC(=O)N(c1ccccc1)C1CCN(C(=O)C2(N)CCc3ccccc32)CC1

>  <score_type>  (6) 
oracle

>  <origin>  (6) 
autodockgpu

>  <m_score__min__energy>  (6) 
-7.1500000000000004

>  <m_primary>  (6) 
energy

>  <meeko>  (6) 
{"free_energy": -6.78, "intermolecular_energy": -8.57, "internal_energy": -1.9, "cluster_size": 2, "cluster_id": 4, "rank_in_cluster": 2}

>  <energy>  (6) 
-6.89

>  <cluster_rmsd>  (6) 
0.0

>  <rmsd>  (6) 
270.99

>  <cluster>  (6) 
3

$$$$

     RDKit          3D

 58 61  0  0  1  0  0  0  0  0999 V2000
  141.2160   81.5160  220.2890 C   0  0  0  0  0  0  0  0  0  0  0  0
  141.3750   82.2920  221.5590 C   0  0  0  0  0  0  0  0  0  0  0  0
  141.3970   81.4100  222.7630 C   0  0  0  0  0  0  0  0  0  0  0  0
  142.3080   81.6050  223.6080 O   0  0  0  0  0  0  0  0  0  0  0  0
  140.4020   80.4020  222.9010 N   0  0  0  0  0  0  0  0  0  0  0  0
  139.0300   80.7830  223.1530 C   0  0  0  0  0  0  0  0  0  0  0  0
  138.2200   81.2720  222.1540 C   0  0  0  0  0  0  0  0  0  0  0  0
  136.9170   81.6110  222.4510 C   0  0  0  0  0  0  0  0  0  0  0  0
  136.4680   81.4450  223.7570 C   0  0  0  0  0  0  0  0  0  0  0  0
  137.2850   80.9580  224.7380 C   0  0  0  0  0  0  0  0  0  0  0  0
  138.5960   80.6150  224.4530 C   0  0  0  0  0  0  0  0  0  0  0  0
  140.7180   79.0040  222.8030 C   0  0  0  0  0  0  0  0  0  0  0  0
  141.8020   78.6530  221.8630 C   0  0  0  0  0  0  0  0  0  0  0  0
  141.4920   77.5000  220.9180 C   0  0  0  0  0  0  0  0  0  0  0  0
  140.8190   76.4020  221.5230 N   0  0  0  0  0  0  0  0  0  0  0  0
  140.8240   75.0530  221.1080 C   0  0  0  0  0  0  0  0  0  0  0  0
  140.1600   74.1940  221.8140 O   0  0  0  0  0  0  0  0  0  0  0  0
  141.5040   74.4780  219.9410 C   0  0  2  0  0  0  0  0  0  0  0  0
  141.3000   75.2540  218.7770 N   0  0  0  0  0  0  0  0  0  0  0  0
  140.9110   73.0910  219.6510 C   0  0  0  0  0  0  0  0  0  0  0  0
  141.7650   72.1960  220.4940 C   0  0  0  0  0  0  0  0  0  0  0  0
  143.0890   72.8530  220.5370 C   0  0  0  0  0  0  0  0  0  0  0  0
  144.3330   72.3030  220.8440 C   0  0  0  0  0  0  0  0  0  0  0  0
  145.4090   73.1740  220.8040 C   0  0  0  0  0  0  0  0  0  0  0  0
  145.2640   74.5170  220.4800 C   0  0  0  0  0  0  0  0  0  0  0  0
  144.0240   75.0470  220.1780 C   0  0  0  0  0  0  0  0  0  0  0  0
  142.9400   74.1850  220.2140 C   0  0  0  0  0  0  0  0  0  0  0  0
  140.0070   76.7040  222.7180 C   0  0  0  0  0  0  0  0  0  0  0  0
  139.4940   78.1350  222.4960 C   0  0  0  0  0  0  0  0  0  0  0  0
  141.0004   80.4639  220.5267 H   0  0  0  0  0  0  0  0  0  0  0  0
  140.3855   81.9372  219.7035 H   0  0  0  0  0  0  0  0  0  0  0  0
  142.1452   81.5766  219.7035 H   0  0  0  0  0  0  0  0  0  0  0  0
  142.3199   82.8535  221.5145 H   0  0  0  0  0  0  0  0  0  0  0  0
  140.5109   82.9663  221.6517 H   0  0  0  0  0  0  0  0  0  0  0  0
  138.6071   81.3910  221.1313 H   0  0  0  0  0  0  0  0  0  0  0  0
  136.2471   82.0042  221.6721 H   0  0  0  0  0  0  0  0  0  0  0  0
  135.4304   81.7122  224.0060 H   0  0  0  0  0  0  0  0  0  0  0  0
  136.8988   80.8376  225.7609 H   0  0  0  0  0  0  0  0  0  0  0  0
  139.2661   80.2236  225.2326 H   0  0  0  0  0  0  0  0  0  0  0  0
  141.0926   78.7827  223.8133 H   0  0  0  0  0  0  0  0  0  0  0  0
  142.0255   79.5414  221.2542 H   0  0  0  0  0  0  0  0  0  0  0  0
  142.6481   78.3210  222.4827 H   0  0  0  0  0  0  0  0  0  0  0  0
  140.8591   77.8841  220.1044 H   0  0  0  0  0  0  0  0  0  0  0  0
  142.4611   77.1160  220.5667 H   0  0  0  0  0  0  0  0  0  0  0  0
  142.1380   75.7800  218.4570 H   0  0  0  0  0  0  0  0  0  0  0  0
  140.4360   75.8350  218.7770 H   0  0  0  0  0  0  0  0  0  0  0  0
  139.8555   73.0374  219.9560 H   0  0  0  0  0  0  0  0  0  0  0  0
  140.9141   72.8252  218.5836 H   0  0  0  0  0  0  0  0  0  0  0  0
  141.3462   72.1051  221.5071 H   0  0  0  0  0  0  0  0  0  0  0  0
  141.8242   71.1773  220.0832 H   0  0  0  0  0  0  0  0  0  0  0  0
  144.4526   71.2405  221.1026 H   0  0  0  0  0  0  0  0  0  0  0  0
  146.4128   72.7891  221.0368 H   0  0  0  0  0  0  0  0  0  0  0  0
  146.1500   75.1687  220.4636 H   0  0  0  0  0  0  0  0  0  0  0  0
  143.9027   76.1093  219.9197 H   0  0  0  0  0  0  0  0  0  0  0  0
  139.1659   76.0001  222.8024 H   0  0  0  0  0  0  0  0  0  0  0  0
  140.5880   76.6119  223.6475 H   0  0  0  0  0  0  0  0  0  0  0  0
  139.1613   78.2769  221.4572 H   0  0  0  0  0  0  0  0  0  0  0  0
  138.6248   78.3813  223.1236 H   0  0  0  0  0  0  0  0  0  0  0  0
  1  2  1  0
  2  3  1  0
  3  4  2  0
  3  5  1  0
  5  6  1  0
  6  7  2  0
  7  8  1  0
  8  9  2  0
  9 10  1  0
 10 11  2  0
  5 12  1  0
 12 13  1  0
 13 14  1  0
 14 15  1  0
 15 16  1  0
 16 17  2  0
 16 18  1  0
 18 19  1  6
 18 20  1  0
 20 21  1  0
 21 22  1  0
 22 23  2  0
 23 24  1  0
 24 25  2  0
 25 26  1  0
 26 27  2  0
 15 28  1  0
 28 29  1  0
 11  6  1  0
 29 12  1  0
 27 18  1  0
 27 22  1  0
  1 30  1  0
  1 31  1  0
  1 32  1  0
  2 33  1  0
  2 34  1  0
  7 35  1  0
  8 36  1  0
  9 37  1  0
 10 38  1  0
 11 39  1  0
 12 40  1  0
 13 41  1  0
 13 42  1  0
 14 43  1  0
 14 44  1  0
 19 45  1  0
 19 46  1  0
 20 47  1  0
 20 48  1  0
 21 49  1  0
 21 50  1  0
 23 51  1  0
 24 52  1  0
 25 53  1  0
 26 54  1  0
 28 55  1  0
 28 56  1  0
 29 57  1  0
 29 58  1  0
M  END
>  <smiles>  (7) 
CCC(=O)N(c1ccccc1)C1CCN(C(=O)C2(N)CCc3ccccc32)CC1

>  <score_type>  (7) 
oracle

>  <origin>  (7) 
autodockgpu

>  <m_score__min__energy>  (7) 
-7.1500000000000004

>  <m_primary>  (7) 
energy

>  <meeko>  (7) 
{"free_energy": -6.67, "intermolecular_energy": -8.46, "internal_energy": -1.7, "cluster_size": 10, "cluster_id": 3, "rank_in_cluster": 9}

>  <energy>  (7) 
-6.87

>  <cluster_rmsd>  (7) 
0.08

>  <rmsd>  (7) 
270.99

>  <cluster>  (7) 
3

$$$$

     RDKit          3D

 58 61  0  0  1  0  0  0  0  0999 V2000
  143.2650   80.5450  223.8360 C   0  0  0  0  0  0  0  0  0  0  0  0
  142.1910   81.5560  223.5850 C   0  0  0  0  0  0  0  0  0  0  0  0
  141.2680   81.1430  222.4880 C   0  0  0  0  0  0  0  0  0  0  0  0
  141.4040   81.7070  221.3730 O   0  0  0  0  0  0  0  0  0  0  0  0
  140.2880   80.1430  222.7470 N   0  0  0  0  0  0  0  0  0  0  0  0
  138.9310   80.5370  223.0570 C   0  0  0  0  0  0  0  0  0  0  0  0
  138.0420   80.9000  222.0710 C   0  0  0  0  0  0  0  0  0  0  0  0
  136.7580   81.2580  222.4260 C   0  0  0  0  0  0  0  0  0  0  0  0
  136.4090   81.2390  223.7710 C   0  0  0  0  0  0  0  0  0  0  0  0
  137.3050   80.8760  224.7370 C   0  0  0  0  0  0  0  0  0  0  0  0
  138.5980   80.5150  224.3960 C   0  0  0  0  0  0  0  0  0  0  0  0
  140.6050   78.7420  222.7170 C   0  0  0  0  0  0  0  0  0  0  0  0
  141.7050   78.3500  221.8120 C   0  0  0  0  0  0  0  0  0  0  0  0
  141.4110   77.1560  220.9140 C   0  0  0  0  0  0  0  0  0  0  0  0
  140.7260   76.0860  221.5550 N   0  0  0  0  0  0  0  0  0  0  0  0
  140.7380   74.7200  221.1990 C   0  0  0  0  0  0  0  0  0  0  0  0
  140.0610   73.8930  221.9310 O   0  0  0  0  0  0  0  0  0  0  0  0
  141.4380   74.0940  220.0710 C   0  0  2  0  0  0  0  0  0  0  0  0
  141.1300   74.7260  218.8450 N   0  0  0  0  0  0  0  0  0  0  0  0
  140.9710   72.6360  219.9410 C   0  0  0  0  0  0  0  0  0  0  0  0
  141.9280   71.9140  220.8370 C   0  0  0  0  0  0  0  0  0  0  0  0
  143.1840   72.6900  220.7670 C   0  0  0  0  0  0  0  0  0  0  0  0
  144.4820   72.2900  221.0820 C   0  0  0  0  0  0  0  0  0  0  0  0
  145.4710   73.2470  220.9170 C   0  0  0  0  0  0  0  0  0  0  0  0
  145.1910   74.5310  220.4670 C   0  0  0  0  0  0  0  0  0  0  0  0
  143.8990   74.9130  220.1600 C   0  0  0  0  0  0  0  0  0  0  0  0
  142.9020   73.9630  220.3200 C   0  0  0  0  0  0  0  0  0  0  0  0
  139.8940   76.4400  222.7210 C   0  0  0  0  0  0  0  0  0  0  0  0
  139.3860   77.8600  222.4270 C   0  0  0  0  0  0  0  0  0  0  0  0
  143.4015   80.4165  224.9199 H   0  0  0  0  0  0  0  0  0  0  0  0
  142.9759   79.5836  223.3863 H   0  0  0  0  0  0  0  0  0  0  0  0
  144.2072   80.8916  223.3863 H   0  0  0  0  0  0  0  0  0  0  0  0
  141.6068   81.6876  224.5077 H   0  0  0  0  0  0  0  0  0  0  0  0
  142.6774   82.4941  223.2794 H   0  0  0  0  0  0  0  0  0  0  0  0
  138.3509   80.9046  221.0153 H   0  0  0  0  0  0  0  0  0  0  0  0
  136.0254   81.5525  221.6601 H   0  0  0  0  0  0  0  0  0  0  0  0
  135.3877   81.5228  224.0650 H   0  0  0  0  0  0  0  0  0  0  0  0
  136.9971   80.8705  225.7930 H   0  0  0  0  0  0  0  0  0  0  0  0
  139.3307   80.2223  225.1625 H   0  0  0  0  0  0  0  0  0  0  0  0
  140.9617   78.5658  223.7425 H   0  0  0  0  0  0  0  0  0  0  0  0
  141.9391   79.2106  221.1682 H   0  0  0  0  0  0  0  0  0  0  0  0
  142.5402   78.0463  222.4602 H   0  0  0  0  0  0  0  0  0  0  0  0
  140.7933   77.5035  220.0727 H   0  0  0  0  0  0  0  0  0  0  0  0
  142.3860   76.7566  220.5980 H   0  0  0  0  0  0  0  0  0  0  0  0
  140.3530   75.4160  218.8980 H   0  0  0  0  0  0  0  0  0  0  0  0
  141.0480   74.0890  218.0250 H   0  0  0  0  0  0  0  0  0  0  0  0
  139.9338   72.5174  220.2877 H   0  0  0  0  0  0  0  0  0  0  0  0
  140.9705   72.2641  218.9058 H   0  0  0  0  0  0  0  0  0  0  0  0
  141.5468   71.8891  221.8686 H   0  0  0  0  0  0  0  0  0  0  0  0
  142.0726   70.8685  220.5273 H   0  0  0  0  0  0  0  0  0  0  0  0
  144.7078   71.2748  221.4403 H   0  0  0  0  0  0  0  0  0  0  0  0
  146.5125   72.9808  221.1502 H   0  0  0  0  0  0  0  0  0  0  0  0
  146.0110   75.2554  220.3532 H   0  0  0  0  0  0  0  0  0  0  0  0
  143.6711   75.9284  219.8036 H   0  0  0  0  0  0  0  0  0  0  0  0
  139.0511   75.7405  222.8218 H   0  0  0  0  0  0  0  0  0  0  0  0
  140.4586   76.3888  223.6637 H   0  0  0  0  0  0  0  0  0  0  0  0
  139.0719   77.9559  221.3772 H   0  0  0  0  0  0  0  0  0  0  0  0
  138.5060   78.1336  223.0277 H   0  0  0  0  0  0  0  0  0  0  0  0
  1  2  1  0
  2  3  1  0
  3  4  2  0
  3  5  1  0
  5  6  1  0
  6  7  2  0
  7  8  1  0
  8  9  2  0
  9 10  1  0
 10 11  2  0
  5 12  1  0
 12 13  1  0
 13 14  1  0
 14 15  1  0
 15 16  1  0
 16 17  2  0
 16 18  1  0
 18 19  1  6
 18 20  1  0
 20 21  1  0
 21 22  1  0
 22 23  2  0
 23 24  1  0
 24 25  2  0
 25 26  1  0
 26 27  2  0
 15 28  1  0
 28 29  1  0
 11  6  1  0
 29 12  1  0
 27 18  1  0
 27 22  1  0
  1 30  1  0
  1 31  1  0
  1 32  1  0
  2 33  1  0
  2 34  1  0
  7 35  1  0
  8 36  1  0
  9 37  1  0
 10 38  1  0
 11 39  1  0
 12 40  1  0
 13 41  1  0
 13 42  1  0
 14 43  1  0
 14 44  1  0
 19 45  1  0
 19 46  1  0
 20 47  1  0
 20 48  1  0
 21 49  1  0
 21 50  1  0
 23 51  1  0
 24 52  1  0
 25 53  1  0
 26 54  1  0
 28 55  1  0
 28 56  1  0
 29 57  1  0
 29 58  1  0
M  END
>  <smiles>  (8) 
CCC(=O)N(c1ccccc1)C1CCN(C(=O)C2(N)CCc3ccccc32)CC1

>  <score_type>  (8) 
oracle

>  <origin>  (8) 
autodockgpu

>  <m_score__min__energy>  (8) 
-7.1500000000000004

>  <m_primary>  (8) 
energy

>  <meeko>  (8) 
{"free_energy": -6.77, "intermolecular_energy": -8.56, "internal_energy": -1.7, "cluster_size": 10, "cluster_id": 3, "rank_in_cluster": 6}

>  <energy>  (8) 
-6.86

>  <cluster_rmsd>  (8) 
0.11

>  <rmsd>  (8) 
271.0

>  <cluster>  (8) 
3

$$$$

     RDKit          3D

 58 61  0  0  1  0  0  0  0  0999 V2000
  143.3040   80.5570  223.8200 C   0  0  0  0  0  0  0  0  0  0  0  0
  142.2030   81.5710  223.8060 C   0  0  0  0  0  0  0  0  0  0  0  0
  141.2270   81.3320  222.7040 C   0  0  0  0  0  0  0  0  0  0  0  0
  141.3010   82.0750  221.6920 O   0  0  0  0  0  0  0  0  0  0  0  0
  140.2660   80.2900  222.8420 N   0  0  0  0  0  0  0  0  0  0  0  0
  138.8790   80.6240  223.0750 C   0  0  0  0  0  0  0  0  0  0  0  0
  138.0360   80.9710  222.0430 C   0  0  0  0  0  0  0  0  0  0  0  0
  136.7200   81.2710  222.3250 C   0  0  0  0  0  0  0  0  0  0  0  0
  136.2920   81.2130  223.6460 C   0  0  0  0  0  0  0  0  0  0  0  0
  137.1420   80.8670  224.6590 C   0  0  0  0  0  0  0  0  0  0  0  0
  138.4670   80.5630  224.3910 C   0  0  0  0  0  0  0  0  0  0  0  0
  140.6340   78.9030  222.7630 C   0  0  0  0  0  0  0  0  0  0  0  0
  141.7240   78.5790  221.8200 C   0  0  0  0  0  0  0  0  0  0  0  0
  141.4510   77.4000  220.8950 C   0  0  0  0  0  0  0  0  0  0  0  0
  140.8220   76.2870  221.5200 N   0  0  0  0  0  0  0  0  0  0  0  0
  140.8740   74.9340  221.1250 C   0  0  0  0  0  0  0  0  0  0  0  0
  140.2470   74.0620  221.8490 O   0  0  0  0  0  0  0  0  0  0  0  0
  141.5680   74.3670  219.9620 C   0  0  2  0  0  0  0  0  0  0  0  0
  141.3540   75.1350  218.7950 N   0  0  0  0  0  0  0  0  0  0  0  0
  141.0000   72.9680  219.6750 C   0  0  0  0  0  0  0  0  0  0  0  0
  141.8670   72.0920  220.5250 C   0  0  0  0  0  0  0  0  0  0  0  0
  143.1790   72.7720  220.5690 C   0  0  0  0  0  0  0  0  0  0  0  0
  144.4320   72.2450  220.8820 C   0  0  0  0  0  0  0  0  0  0  0  0
  145.4930   73.1350  220.8410 C   0  0  0  0  0  0  0  0  0  0  0  0
  145.3250   74.4730  220.5110 C   0  0  0  0  0  0  0  0  0  0  0  0
  144.0770   74.9810  220.2040 C   0  0  0  0  0  0  0  0  0  0  0  0
  143.0080   74.1000  220.2410 C   0  0  0  0  0  0  0  0  0  0  0  0
  140.0070   76.5770  222.7160 C   0  0  0  0  0  0  0  0  0  0  0  0
  139.4410   77.9850  222.4770 C   0  0  0  0  0  0  0  0  0  0  0  0
  143.5666   80.3152  224.8605 H   0  0  0  0  0  0  0  0  0  0  0  0
  142.9688   79.6447  223.3049 H   0  0  0  0  0  0  0  0  0  0  0  0
  144.1857   80.9660  223.3049 H   0  0  0  0  0  0  0  0  0  0  0  0
  141.6693   81.5269  224.7669 H   0  0  0  0  0  0  0  0  0  0  0  0
  142.6580   82.5593  223.6439 H   0  0  0  0  0  0  0  0  0  0  0  0
  138.4072   81.0084  221.0082 H   0  0  0  0  0  0  0  0  0  0  0  0
  136.0233   81.5505  221.5210 H   0  0  0  0  0  0  0  0  0  0  0  0
  135.2443   81.4512  223.8819 H   0  0  0  0  0  0  0  0  0  0  0  0
  136.7716   80.8296  225.6941 H   0  0  0  0  0  0  0  0  0  0  0  0
  139.1633   80.2840  225.1955 H   0  0  0  0  0  0  0  0  0  0  0  0
  141.0235   78.7105  223.7736 H   0  0  0  0  0  0  0  0  0  0  0  0
  141.9091   79.4657  221.1959 H   0  0  0  0  0  0  0  0  0  0  0  0
  142.5867   78.2894  222.4379 H   0  0  0  0  0  0  0  0  0  0  0  0
  140.8001   77.7480  220.0794 H   0  0  0  0  0  0  0  0  0  0  0  0
  142.4319   77.0462  220.5449 H   0  0  0  0  0  0  0  0  0  0  0  0
  142.1960   75.6370  218.4490 H   0  0  0  0  0  0  0  0  0  0  0  0
  140.5040   75.7370  218.8090 H   0  0  0  0  0  0  0  0  0  0  0  0
  139.9445   72.8969  219.9764 H   0  0  0  0  0  0  0  0  0  0  0  0
  141.0113   72.6979  218.6087 H   0  0  0  0  0  0  0  0  0  0  0  0
  141.4466   71.9986  221.5372 H   0  0  0  0  0  0  0  0  0  0  0  0
  141.9454   71.0726  220.1192 H   0  0  0  0  0  0  0  0  0  0  0  0
  144.5695   71.1860  221.1457 H   0  0  0  0  0  0  0  0  0  0  0  0
  146.5029   72.7690  221.0780 H   0  0  0  0  0  0  0  0  0  0  0  0
  146.1997   75.1398  220.4936 H   0  0  0  0  0  0  0  0  0  0  0  0
  143.9380   76.0401  219.9413 H   0  0  0  0  0  0  0  0  0  0  0  0
  139.1926   75.8444  222.8163 H   0  0  0  0  0  0  0  0  0  0  0  0
  140.5968   76.5197  223.6428 H   0  0  0  0  0  0  0  0  0  0  0  0
  139.0968   78.0994  221.4385 H   0  0  0  0  0  0  0  0  0  0  0  0
  138.5675   78.2084  223.1072 H   0  0  0  0  0  0  0  0  0  0  0  0
  1  2  1  0
  2  3  1  0
  3  4  2  0
  3  5  1  0
  5  6  1  0
  6  7  2  0
  7  8  1  0
  8  9  2  0
  9 10  1  0
 10 11  2  0
  5 12  1  0
 12 13  1  0
 13 14  1  0
 14 15  1  0
 15 16  1  0
 16 17  2  0
 16 18  1  0
 18 19  1  6
 18 20  1  0
 20 21  1  0
 21 22  1  0
 22 23  2  0
 23 24  1  0
 24 25  2  0
 25 26  1  0
 26 27  2  0
 15 28  1  0
 28 29  1  0
 11  6  1  0
 29 12  1  0
 27 18  1  0
 27 22  1  0
  1 30  1  0
  1 31  1  0
  1 32  1  0
  2 33  1  0
  2 34  1  0
  7 35  1  0
  8 36  1  0
  9 37  1  0
 10 38  1  0
 11 39  1  0
 12 40  1  0
 13 41  1  0
 13 42  1  0
 14 43  1  0
 14 44  1  0
 19 45  1  0
 19 46  1  0
 20 47  1  0
 20 48  1  0
 21 49  1  0
 21 50  1  0
 23 51  1  0
 24 52  1  0
 25 53  1  0
 26 54  1  0
 28 55  1  0
 28 56  1  0
 29 57  1  0
 29 58  1  0
M  END
>  <smiles>  (9) 
CCC(=O)N(c1ccccc1)C1CCN(C(=O)C2(N)CCc3ccccc32)CC1

>  <score_type>  (9) 
oracle

>  <origin>  (9) 
autodockgpu

>  <m_score__min__energy>  (9) 
-7.1500000000000004

>  <m_primary>  (9) 
energy

>  <meeko>  (9) 
{"free_energy": -6.89, "intermolecular_energy": -8.68, "internal_energy": -1.62, "cluster_size": 10, "cluster_id": 3, "rank_in_cluster": 1}

>  <energy>  (9) 
-6.84

>  <cluster_rmsd>  (9) 
0.25

>  <rmsd>  (9) 
270.96

>  <cluster>  (9) 
3

$$$$

     RDKit          3D

 58 61  0  0  1  0  0  0  0  0999 V2000
  143.2940   80.5310  223.8160 C   0  0  0  0  0  0  0  0  0  0  0  0
  142.1830   81.5140  223.6200 C   0  0  0  0  0  0  0  0  0  0  0  0
  141.2690   81.1210  222.5080 C   0  0  0  0  0  0  0  0  0  0  0  0
  141.4200   81.6990  221.4010 O   0  0  0  0  0  0  0  0  0  0  0  0
  140.2800   80.1240  222.7420 N   0  0  0  0  0  0  0  0  0  0  0  0
  138.9190   80.5220  223.0240 C   0  0  0  0  0  0  0  0  0  0  0  0
  138.0490   80.8840  222.0210 C   0  0  0  0  0  0  0  0  0  0  0  0
  136.7590   81.2460  222.3490 C   0  0  0  0  0  0  0  0  0  0  0  0
  136.3840   81.2320  223.6880 C   0  0  0  0  0  0  0  0  0  0  0  0
  137.2610   80.8700  224.6720 C   0  0  0  0  0  0  0  0  0  0  0  0
  138.5590   80.5050  224.3570 C   0  0  0  0  0  0  0  0  0  0  0  0
  140.5930   78.7220  222.7150 C   0  0  0  0  0  0  0  0  0  0  0  0
  141.6960   78.3260  221.8160 C   0  0  0  0  0  0  0  0  0  0  0  0
  141.4010   77.1320  220.9170 C   0  0  0  0  0  0  0  0  0  0  0  0
  140.7100   76.0650  221.5550 N   0  0  0  0  0  0  0  0  0  0  0  0
  140.7190   74.6990  221.2010 C   0  0  0  0  0  0  0  0  0  0  0  0
  140.0360   73.8740  221.9300 O   0  0  0  0  0  0  0  0  0  0  0  0
  141.4220   74.0690  220.0760 C   0  0  2  0  0  0  0  0  0  0  0  0
  141.1210   74.7000  218.8480 N   0  0  0  0  0  0  0  0  0  0  0  0
  140.9530   72.6120  219.9460 C   0  0  0  0  0  0  0  0  0  0  0  0
  141.9040   71.8890  220.8470 C   0  0  0  0  0  0  0  0  0  0  0  0
  143.1630   72.6620  220.7810 C   0  0  0  0  0  0  0  0  0  0  0  0
  144.4590   72.2600  221.1020 C   0  0  0  0  0  0  0  0  0  0  0  0
  145.4500   73.2150  220.9400 C   0  0  0  0  0  0  0  0  0  0  0  0
  145.1740   74.4990  220.4870 C   0  0  0  0  0  0  0  0  0  0  0  0
  143.8840   74.8830  220.1740 C   0  0  0  0  0  0  0  0  0  0  0  0
  142.8850   73.9360  220.3310 C   0  0  0  0  0  0  0  0  0  0  0  0
  139.8740   76.4220  222.7170 C   0  0  0  0  0  0  0  0  0  0  0  0
  139.3720   77.8440  222.4200 C   0  0  0  0  0  0  0  0  0  0  0  0
  143.4645   80.3801  224.8922 H   0  0  0  0  0  0  0  0  0  0  0  0
  143.0220   79.5725  223.3499 H   0  0  0  0  0  0  0  0  0  0  0  0
  144.2123   80.9178  223.3499 H   0  0  0  0  0  0  0  0  0  0  0  0
  141.6002   81.5794  224.5506 H   0  0  0  0  0  0  0  0  0  0  0  0
  142.6332   82.4832  223.3591 H   0  0  0  0  0  0  0  0  0  0  0  0
  138.3780   80.8847  220.9714 H   0  0  0  0  0  0  0  0  0  0  0  0
  136.0422   81.5395  221.5680 H   0  0  0  0  0  0  0  0  0  0  0  0
  135.3579   81.5189  223.9616 H   0  0  0  0  0  0  0  0  0  0  0  0
  136.9331   80.8686  225.7220 H   0  0  0  0  0  0  0  0  0  0  0  0
  139.2758   80.2127  225.1385 H   0  0  0  0  0  0  0  0  0  0  0  0
  140.9446   78.5450  223.7422 H   0  0  0  0  0  0  0  0  0  0  0  0
  141.9365   79.1854  221.1729 H   0  0  0  0  0  0  0  0  0  0  0  0
  142.5274   78.0200  222.4681 H   0  0  0  0  0  0  0  0  0  0  0  0
  140.7879   77.4814  220.0732 H   0  0  0  0  0  0  0  0  0  0  0  0
  142.3759   76.7289  220.6054 H   0  0  0  0  0  0  0  0  0  0  0  0
  140.2700   75.2990  218.8670 H   0  0  0  0  0  0  0  0  0  0  0  0
  141.1600   74.0830  218.0100 H   0  0  0  0  0  0  0  0  0  0  0  0
  139.9140   72.4960  220.2881 H   0  0  0  0  0  0  0  0  0  0  0  0
  140.9568   72.2388  218.9112 H   0  0  0  0  0  0  0  0  0  0  0  0
  141.5184   71.8667  221.8770 H   0  0  0  0  0  0  0  0  0  0  0  0
  142.0471   70.8426  220.5396 H   0  0  0  0  0  0  0  0  0  0  0  0
  144.6816   71.2449  221.4625 H   0  0  0  0  0  0  0  0  0  0  0  0
  146.4901   72.9474  221.1781 H   0  0  0  0  0  0  0  0  0  0  0  0
  145.9957   75.2218  220.3757 H   0  0  0  0  0  0  0  0  0  0  0  0
  143.6596   75.8983  219.8151 H   0  0  0  0  0  0  0  0  0  0  0  0
  139.0283   75.7253  222.8142 H   0  0  0  0  0  0  0  0  0  0  0  0
  140.4340   76.3692  223.6623 H   0  0  0  0  0  0  0  0  0  0  0  0
  139.0628   77.9405  221.3688 H   0  0  0  0  0  0  0  0  0  0  0  0
  138.4903   78.1210  223.0166 H   0  0  0  0  0  0  0  0  0  0  0  0
  1  2  1  0
  2  3  1  0
  3  4  2  0
  3  5  1  0
  5  6  1  0
  6  7  2  0
  7  8  1  0
  8  9  2  0
  9 10  1  0
 10 11  2  0
  5 12  1  0
 12 13  1  0
 13 14  1  0
 14 15  1  0
 15 16  1  0
 16 17  2  0
 16 18  1  0
 18 19  1  6
 18 20  1  0
 20 21  1  0
 21 22  1  0
 22 23  2  0
 23 24  1  0
 24 25  2  0
 25 26  1  0
 26 27  2  0
 15 28  1  0
 28 29  1  0
 11  6  1  0
 29 12  1  0
 27 18  1  0
 27 22  1  0
  1 30  1  0
  1 31  1  0
  1 32  1  0
  2 33  1  0
  2 34  1  0
  7 35  1  0
  8 36  1  0
  9 37  1  0
 10 38  1  0
 11 39  1  0
 12 40  1  0
 13 41  1  0
 13 42  1  0
 14 43  1  0
 14 44  1  0
 19 45  1  0
 19 46  1  0
 20 47  1  0
 20 48  1  0
 21 49  1  0
 21 50  1  0
 23 51  1  0
 24 52  1  0
 25 53  1  0
 26 54  1  0
 28 55  1  0
 28 56  1  0
 29 57  1  0
 29 58  1  0
M  END
>  <smiles>  (10) 
CCC(=O)N(c1ccccc1)C1CCN(C(=O)C2(N)CCc3ccccc32)CC1

>  <score_type>  (10) 
oracle

>  <origin>  (10) 
autodockgpu

>  <m_score__min__energy>  (10) 
-7.1500000000000004

>  <m_primary>  (10) 
energy

>  <meeko>  (10) 
{"free_energy": -6.76, "intermolecular_energy": -8.55, "internal_energy": -1.7, "cluster_size": 10, "cluster_id": 3, "rank_in_cluster": 8}

>  <energy>  (10) 
-6.77

>  <cluster_rmsd>  (10) 
0.32

>  <rmsd>  (10) 
270.94

>  <cluster>  (10) 
3

$$$$

     RDKit          3D

 58 61  0  0  1  0  0  0  0  0999 V2000
  143.3370   80.5740  223.8010 C   0  0  0  0  0  0  0  0  0  0  0  0
  142.2170   81.5650  223.7630 C   0  0  0  0  0  0  0  0  0  0  0  0
  141.2430   81.2790  222.6690 C   0  0  0  0  0  0  0  0  0  0  0  0
  141.3250   81.9720  221.6230 O   0  0  0  0  0  0  0  0  0  0  0  0
  140.2760   80.2500  222.8540 N   0  0  0  0  0  0  0  0  0  0  0  0
  138.9030   80.6030  223.1370 C   0  0  0  0  0  0  0  0  0  0  0  0
  138.0230   80.9420  222.1340 C   0  0  0  0  0  0  0  0  0  0  0  0
  136.7220   81.2620  222.4630 C   0  0  0  0  0  0  0  0  0  0  0  0
  136.3470   81.2300  223.8010 C   0  0  0  0  0  0  0  0  0  0  0  0
  137.2340   80.8910  224.7840 C   0  0  0  0  0  0  0  0  0  0  0  0
  138.5430   80.5680  224.4690 C   0  0  0  0  0  0  0  0  0  0  0  0
  140.6240   78.8580  222.7750 C   0  0  0  0  0  0  0  0  0  0  0  0
  141.7180   78.5200  221.8420 C   0  0  0  0  0  0  0  0  0  0  0  0
  141.4370   77.3480  220.9100 C   0  0  0  0  0  0  0  0  0  0  0  0
  140.7860   76.2430  221.5260 N   0  0  0  0  0  0  0  0  0  0  0  0
  140.8220   74.8900  221.1280 C   0  0  0  0  0  0  0  0  0  0  0  0
  140.1750   74.0250  221.8430 O   0  0  0  0  0  0  0  0  0  0  0  0
  141.5180   74.3160  219.9700 C   0  0  2  0  0  0  0  0  0  0  0  0
  141.2760   75.0550  218.7900 N   0  0  0  0  0  0  0  0  0  0  0  0
  140.9800   72.8990  219.7160 C   0  0  0  0  0  0  0  0  0  0  0  0
  141.8750   72.0610  220.5750 C   0  0  0  0  0  0  0  0  0  0  0  0
  143.1710   72.7710  220.5930 C   0  0  0  0  0  0  0  0  0  0  0  0
  144.4390   72.2800  220.9040 C   0  0  0  0  0  0  0  0  0  0  0  0
  145.4780   73.1930  220.8370 C   0  0  0  0  0  0  0  0  0  0  0  0
  145.2770   74.5210  220.4820 C   0  0  0  0  0  0  0  0  0  0  0  0
  144.0140   74.9930  220.1760 C   0  0  0  0  0  0  0  0  0  0  0  0
  142.9670   74.0890  220.2400 C   0  0  0  0  0  0  0  0  0  0  0  0
  139.9640   76.5420  222.7150 C   0  0  0  0  0  0  0  0  0  0  0  0
  139.4210   77.9580  222.4750 C   0  0  0  0  0  0  0  0  0  0  0  0
  143.5918   80.3486  224.8471 H   0  0  0  0  0  0  0  0  0  0  0  0
  143.0262   79.6497  223.2919 H   0  0  0  0  0  0  0  0  0  0  0  0
  144.2165   80.9950  223.2919 H   0  0  0  0  0  0  0  0  0  0  0  0
  141.6859   81.5354  224.7258 H   0  0  0  0  0  0  0  0  0  0  0  0
  142.6526   82.5573  223.5742 H   0  0  0  0  0  0  0  0  0  0  0  0
  138.3527   80.9575  221.0847 H   0  0  0  0  0  0  0  0  0  0  0  0
  135.9968   81.5367  221.6829 H   0  0  0  0  0  0  0  0  0  0  0  0
  135.3123   81.4834  224.0751 H   0  0  0  0  0  0  0  0  0  0  0  0
  136.9053   80.8746  225.8336 H   0  0  0  0  0  0  0  0  0  0  0  0
  139.2678   80.2942  225.2498 H   0  0  0  0  0  0  0  0  0  0  0  0
  141.0003   78.6580  223.7891 H   0  0  0  0  0  0  0  0  0  0  0  0
  141.9229   79.4057  221.2227 H   0  0  0  0  0  0  0  0  0  0  0  0
  142.5696   78.2149  222.4679 H   0  0  0  0  0  0  0  0  0  0  0  0
  140.7990   77.7078  220.0893 H   0  0  0  0  0  0  0  0  0  0  0  0
  142.4158   76.9811  220.5674 H   0  0  0  0  0  0  0  0  0  0  0  0
  140.2950   75.3850  218.6810 H   0  0  0  0  0  0  0  0  0  0  0  0
  141.6590   74.6370  217.9170 H   0  0  0  0  0  0  0  0  0  0  0  0
  139.9292   72.8095  220.0288 H   0  0  0  0  0  0  0  0  0  0  0  0
  140.9876   72.6078  218.6553 H   0  0  0  0  0  0  0  0  0  0  0  0
  141.4661   71.9787  221.5929 H   0  0  0  0  0  0  0  0  0  0  0  0
  141.9733   71.0358  220.1887 H   0  0  0  0  0  0  0  0  0  0  0  0
  144.6039   71.2296  221.1858 H   0  0  0  0  0  0  0  0  0  0  0  0
  146.4978   72.8550  221.0731 H   0  0  0  0  0  0  0  0  0  0  0  0
  146.1357   75.2074  220.4438 H   0  0  0  0  0  0  0  0  0  0  0  0
  143.8478   76.0430  219.8934 H   0  0  0  0  0  0  0  0  0  0  0  0
  139.1381   75.8211  222.8056 H   0  0  0  0  0  0  0  0  0  0  0  0
  140.5443   76.4738  223.6470 H   0  0  0  0  0  0  0  0  0  0  0  0
  139.0885   78.0803  221.4336 H   0  0  0  0  0  0  0  0  0  0  0  0
  138.5450   78.1921  223.0977 H   0  0  0  0  0  0  0  0  0  0  0  0
  1  2  1  0
  2  3  1  0
  3  4  2  0
  3  5  1  0
  5  6  1  0
  6  7  2  0
  7  8  1  0
  8  9  2  0
  9 10  1  0
 10 11  2  0
  5 12  1  0
 12 13  1  0
 13 14  1  0
 14 15  1  0
 15 16  1  0
 16 17  2  0
 16 18  1  0
 18 19  1  6
 18 20  1  0
 20 21  1  0
 21 22  1  0
 22 23  2  0
 23 24  1  0
 24 25  2  0
 25 26  1  0
 26 27  2  0
 15 28  1  0
 28 29  1  0
 11  6  1  0
 29 12  1  0
 27 18  1  0
 27 22  1  0
  1 30  1  0
  1 31  1  0
  1 32  1  0
  2 33  1  0
  2 34  1  0
  7 35  1  0
  8 36  1  0
  9 37  1  0
 10 38  1  0
 11 39  1  0
 12 40  1  0
 13 41  1  0
 13 42  1  0
 14 43  1  0
 14 44  1  0
 19 45  1  0
 19 46  1  0
 20 47  1  0
 20 48  1  0
 21 49  1  0
 21 50  1  0
 23 51  1  0
 24 52  1  0
 25 53  1  0
 26 54  1  0
 28 55  1  0
 28 56  1  0
 29 57  1  0
 29 58  1  0
M  END
>  <smiles>  (11) 
CCC(=O)N(c1ccccc1)C1CCN(C(=O)C2(N)CCc3ccccc32)CC1

>  <score_type>  (11) 
oracle

>  <origin>  (11) 
autodockgpu

>  <m_score__min__energy>  (11) 
-7.1500000000000004

>  <m_primary>  (11) 
energy

>  <meeko>  (11) 
{"free_energy": -6.84, "intermolecular_energy": -8.63, "internal_energy": -1.64, "cluster_size": 10, "cluster_id": 3, "rank_in_cluster": 4}

>  <energy>  (11) 
-6.77

>  <cluster_rmsd>  (11) 
0.42

>  <rmsd>  (11) 
270.92

>  <cluster>  (11) 
3

$$$$

     RDKit          3D

 58 61  0  0  1  0  0  0  0  0999 V2000
  146.3390   73.3870  221.7700 C   0  0  0  0  0  0  0  0  0  0  0  0
  145.4400   74.0100  220.7500 C   0  0  0  0  0  0  0  0  0  0  0  0
  145.2480   73.1370  219.5540 C   0  0  0  0  0  0  0  0  0  0  0  0
  145.9640   73.3690  218.5470 O   0  0  0  0  0  0  0  0  0  0  0  0
  144.2780   72.0970  219.6040 N   0  0  0  0  0  0  0  0  0  0  0  0
  144.7010   70.7210  219.4640 C   0  0  0  0  0  0  0  0  0  0  0  0
  145.9830   70.3930  219.0870 C   0  0  0  0  0  0  0  0  0  0  0  0
  146.3310   69.0630  218.9790 C   0  0  0  0  0  0  0  0  0  0  0  0
  145.3690   68.0980  219.2550 C   0  0  0  0  0  0  0  0  0  0  0  0
  144.1000   68.4410  219.6290 C   0  0  0  0  0  0  0  0  0  0  0  0
  143.7360   69.7730  219.7410 C   0  0  0  0  0  0  0  0  0  0  0  0
  142.8800   72.3700  219.7850 C   0  0  0  0  0  0  0  0  0  0  0  0
  142.4000   73.6590  219.2470 C   0  0  0  0  0  0  0  0  0  0  0  0
  141.5340   74.4760  220.1960 C   0  0  0  0  0  0  0  0  0  0  0  0
  140.5780   73.7180  220.9280 N   0  0  0  0  0  0  0  0  0  0  0  0
  139.3590   74.1690  221.4780 C   0  0  0  0  0  0  0  0  0  0  0  0
  138.6120   73.3090  222.0940 O   0  0  0  0  0  0  0  0  0  0  0  0
  138.8110   75.5300  221.4450 C   0  0  2  0  0  0  0  0  0  0  0  0
  137.7570   75.6960  222.3720 N   0  0  0  0  0  0  0  0  0  0  0  0
  138.2150   75.7940  220.0530 C   0  0  0  0  0  0  0  0  0  0  0  0
  139.3920   76.3310  219.3000 C   0  0  0  0  0  0  0  0  0  0  0  0
  140.2110   77.0340  220.3100 C   0  0  0  0  0  0  0  0  0  0  0  0
  141.1860   78.0130  220.1250 C   0  0  0  0  0  0  0  0  0  0  0  0
  141.7950   78.4910  221.2740 C   0  0  0  0  0  0  0  0  0  0  0  0
  141.4590   78.0250  222.5390 C   0  0  0  0  0  0  0  0  0  0  0  0
  140.4900   77.0540  222.7070 C   0  0  0  0  0  0  0  0  0  0  0  0
  139.8740   76.5690  221.5640 C   0  0  0  0  0  0  0  0  0  0  0  0
  140.8980   72.2950  221.1540 C   0  0  0  0  0  0  0  0  0  0  0  0
  142.4310   72.2440  221.2450 C   0  0  0  0  0  0  0  0  0  0  0  0
  145.9780   73.6371  222.7785 H   0  0  0  0  0  0  0  0  0  0  0  0
  146.3385   72.2946  221.6408 H   0  0  0  0  0  0  0  0  0  0  0  0
  147.3617   73.7710  221.6408 H   0  0  0  0  0  0  0  0  0  0  0  0
  144.4593   74.1987  221.2111 H   0  0  0  0  0  0  0  0  0  0  0  0
  145.9119   74.9444  220.4119 H   0  0  0  0  0  0  0  0  0  0  0  0
  146.7204   71.1811  218.8746 H   0  0  0  0  0  0  0  0  0  0  0  0
  147.3489   68.7716  218.6806 H   0  0  0  0  0  0  0  0  0  0  0  0
  145.6353   67.0341  219.1704 H   0  0  0  0  0  0  0  0  0  0  0  0
  143.3622   67.6536  219.8427 H   0  0  0  0  0  0  0  0  0  0  0  0
  142.7179   70.0641  220.0390 H   0  0  0  0  0  0  0  0  0  0  0  0
  142.4126   71.5810  219.1775 H   0  0  0  0  0  0  0  0  0  0  0  0
  143.2787   74.2651  218.9812 H   0  0  0  0  0  0  0  0  0  0  0  0
  141.7603   73.4113  218.3871 H   0  0  0  0  0  0  0  0  0  0  0  0
  142.1956   74.9802  220.9157 H   0  0  0  0  0  0  0  0  0  0  0  0
  140.9622   75.1770  219.5701 H   0  0  0  0  0  0  0  0  0  0  0  0
  137.7390   74.9910  223.1370 H   0  0  0  0  0  0  0  0  0  0  0  0
  136.8170   75.8570  221.9520 H   0  0  0  0  0  0  0  0  0  0  0  0
  137.8401   74.8656  219.5973 H   0  0  0  0  0  0  0  0  0  0  0  0
  137.3512   76.4750  220.0651 H   0  0  0  0  0  0  0  0  0  0  0  0
  139.9643   75.5104  218.8427 H   0  0  0  0  0  0  0  0  0  0  0  0
  139.0861   76.9993  218.4816 H   0  0  0  0  0  0  0  0  0  0  0  0
  141.4560   78.3842  219.1254 H   0  0  0  0  0  0  0  0  0  0  0  0
  142.5706   79.2655  221.1816 H   0  0  0  0  0  0  0  0  0  0  0  0
  141.9725   78.4355  223.4210 H   0  0  0  0  0  0  0  0  0  0  0  0
  140.2190   76.6817  223.7060 H   0  0  0  0  0  0  0  0  0  0  0  0
  140.4427   71.9399  222.0903 H   0  0  0  0  0  0  0  0  0  0  0  0
  140.5092   71.6507  220.3517 H   0  0  0  0  0  0  0  0  0  0  0  0
  142.8171   73.0786  221.8486 H   0  0  0  0  0  0  0  0  0  0  0  0
  142.8014   71.3287  221.7299 H   0  0  0  0  0  0  0  0  0  0  0  0
  1  2  1  0
  2  3  1  0
  3  4  2  0
  3  5  1  0
  5  6  1  0
  6  7  2  0
  7  8  1  0
  8  9  2  0
  9 10  1  0
 10 11  2  0
  5 12  1  0
 12 13  1  0
 13 14  1  0
 14 15  1  0
 15 16  1  0
 16 17  2  0
 16 18  1  0
 18 19  1  1
 18 20  1  0
 20 21  1  0
 21 22  1  0
 22 23  2  0
 23 24  1  0
 24 25  2  0
 25 26  1  0
 26 27  2  0
 15 28  1  0
 28 29  1  0
 11  6  1  0
 29 12  1  0
 27 18  1  0
 27 22  1  0
  1 30  1  0
  1 31  1  0
  1 32  1  0
  2 33  1  0
  2 34  1  0
  7 35  1  0
  8 36  1  0
  9 37  1  0
 10 38  1  0
 11 39  1  0
 12 40  1  0
 13 41  1  0
 13 42  1  0
 14 43  1  0
 14 44  1  0
 19 45  1  0
 19 46  1  0
 20 47  1  0
 20 48  1  0
 21 49  1  0
 21 50  1  0
 23 51  1  0
 24 52  1  0
 25 53  1  0
 26 54  1  0
 28 55  1  0
 28 56  1  0
 29 57  1  0
 29 58  1  0
M  END
>  <smiles>  (12) 
CCC(=O)N(c1ccccc1)C1CCN(C(=O)C2(N)CCc3ccccc32)CC1

>  <score_type>  (12) 
oracle

>  <origin>  (12) 
autodockgpu

>  <m_score__min__energy>  (12) 
-7.1500000000000004

>  <m_primary>  (12) 
energy

>  <meeko>  (12) 
{"free_energy": -6.6, "intermolecular_energy": -8.39, "internal_energy": -2.05, "cluster_size": 1, "cluster_id": 5, "rank_in_cluster": 1}

>  <energy>  (12) 
-6.77

>  <cluster_rmsd>  (12) 
0.44

>  <rmsd>  (12) 
270.91

>  <cluster>  (12) 
3

$$$$

     RDKit          3D

 58 61  0  0  1  0  0  0  0  0999 V2000
  137.9650   70.9090  219.1320 C   0  0  0  0  0  0  0  0  0  0  0  0
  136.7220   71.7150  219.3410 C   0  0  0  0  0  0  0  0  0  0  0  0
  136.2950   71.7380  220.7710 C   0  0  0  0  0  0  0  0  0  0  0  0
  135.0700   71.5860  221.0130 O   0  0  0  0  0  0  0  0  0  0  0  0
  137.2760   71.9280  221.7840 N   0  0  0  0  0  0  0  0  0  0  0  0
  138.0990   73.1170  221.7660 C   0  0  0  0  0  0  0  0  0  0  0  0
  139.4620   73.0510  221.5860 C   0  0  0  0  0  0  0  0  0  0  0  0
  140.1940   74.2190  221.5690 C   0  0  0  0  0  0  0  0  0  0  0  0
  139.5250   75.4270  221.7350 C   0  0  0  0  0  0  0  0  0  0  0  0
  138.1700   75.4750  221.9120 C   0  0  0  0  0  0  0  0  0  0  0  0
  137.4220   74.3090  221.9330 C   0  0  0  0  0  0  0  0  0  0  0  0
  137.4830   70.9670  222.8310 C   0  0  0  0  0  0  0  0  0  0  0  0
  138.0290   71.4990  224.0960 C   0  0  0  0  0  0  0  0  0  0  0  0
  139.1970   70.7140  224.6790 C   0  0  0  0  0  0  0  0  0  0  0  0
  139.0530   69.3000  224.6140 N   0  0  0  0  0  0  0  0  0  0  0  0
  139.6540   68.3340  225.4490 C   0  0  0  0  0  0  0  0  0  0  0  0
  139.3750   67.0870  225.2390 O   0  0  0  0  0  0  0  0  0  0  0  0
  140.5870   68.5640  226.5580 C   0  0  2  0  0  0  0  0  0  0  0  0
  141.7590   67.7850  226.4310 N   0  0  0  0  0  0  0  0  0  0  0  0
  139.9160   68.1340  227.8720 C   0  0  0  0  0  0  0  0  0  0  0  0
  139.2180   69.3880  228.2980 C   0  0  0  0  0  0  0  0  0  0  0  0
  140.0590   70.4920  227.7890 C   0  0  0  0  0  0  0  0  0  0  0  0
  140.1030   71.8240  228.1990 C   0  0  0  0  0  0  0  0  0  0  0  0
  141.0000   72.6380  227.5260 C   0  0  0  0  0  0  0  0  0  0  0  0
  141.8090   72.1610  226.5020 C   0  0  0  0  0  0  0  0  0  0  0  0
  141.7530   70.8380  226.1060 C   0  0  0  0  0  0  0  0  0  0  0  0
  140.8590   70.0150  226.7730 C   0  0  0  0  0  0  0  0  0  0  0  0
  138.1850   68.7740  223.5430 C   0  0  0  0  0  0  0  0  0  0  0  0
  138.3360   69.7740  222.3860 C   0  0  0  0  0  0  0  0  0  0  0  0
  138.3912   70.6326  220.1077 H   0  0  0  0  0  0  0  0  0  0  0  0
  137.7202   69.9973  218.5673 H   0  0  0  0  0  0  0  0  0  0  0  0
  138.6975   71.5045  218.5673 H   0  0  0  0  0  0  0  0  0  0  0  0
  136.9104   72.7474  219.0115 H   0  0  0  0  0  0  0  0  0  0  0  0
  135.9158   71.2474  218.7568 H   0  0  0  0  0  0  0  0  0  0  0  0
  139.9606   72.0790  221.4574 H   0  0  0  0  0  0  0  0  0  0  0  0
  141.2846   74.1961  221.4271 H   0  0  0  0  0  0  0  0  0  0  0  0
  140.0991   76.3653  221.7236 H   0  0  0  0  0  0  0  0  0  0  0  0
  137.6701   76.4466  222.0387 H   0  0  0  0  0  0  0  0  0  0  0  0
  136.3317   74.3318  222.0770 H   0  0  0  0  0  0  0  0  0  0  0  0
  136.4556   70.6374  223.0450 H   0  0  0  0  0  0  0  0  0  0  0  0
  138.3686   72.5292  223.9135 H   0  0  0  0  0  0  0  0  0  0  0  0
  137.2156   71.4287  224.8332 H   0  0  0  0  0  0  0  0  0  0  0  0
  140.1067   70.9918  224.1264 H   0  0  0  0  0  0  0  0  0  0  0  0
  139.2441   70.9733  225.7470 H   0  0  0  0  0  0  0  0  0  0  0  0
  141.6670   66.9670  225.7950 H   0  0  0  0  0  0  0  0  0  0  0  0
  142.2330   67.5460  227.3270 H   0  0  0  0  0  0  0  0  0  0  0  0
  139.1995   67.3163  227.7046 H   0  0  0  0  0  0  0  0  0  0  0  0
  140.6220   67.7462  228.6211 H   0  0  0  0  0  0  0  0  0  0  0  0
  138.2105   69.4367  227.8592 H   0  0  0  0  0  0  0  0  0  0  0  0
  139.0914   69.4374  229.3896 H   0  0  0  0  0  0  0  0  0  0  0  0
  139.4637   72.2059  229.0086 H   0  0  0  0  0  0  0  0  0  0  0  0
  141.0741   73.6976  227.8121 H   0  0  0  0  0  0  0  0  0  0  0  0
  142.5054   72.8475  225.9983 H   0  0  0  0  0  0  0  0  0  0  0  0
  142.3908   70.4545  225.2960 H   0  0  0  0  0  0  0  0  0  0  0  0
  138.5158   67.7715  223.2339 H   0  0  0  0  0  0  0  0  0  0  0  0
  137.1394   68.6725  223.8693 H   0  0  0  0  0  0  0  0  0  0  0  0
  139.3877   70.0692  222.2561 H   0  0  0  0  0  0  0  0  0  0  0  0
  138.0206   69.3593  221.4172 H   0  0  0  0  0  0  0  0  0  0  0  0
  1  2  1  0
  2  3  1  0
  3  4  2  0
  3  5  1  0
  5  6  1  0
  6  7  2  0
  7  8  1  0
  8  9  2  0
  9 10  1  0
 10 11  2  0
  5 12  1  0
 12 13  1  0
 13 14  1  0
 14 15  1  0
 15 16  1  0
 16 17  2  0
 16 18  1  0
 18 19  1  6
 18 20  1  0
 20 21  1  0
 21 22  1  0
 22 23  2  0
 23 24  1  0
 24 25  2  0
 25 26  1  0
 26 27  2  0
 15 28  1  0
 28 29  1  0
 11  6  1  0
 29 12  1  0
 27 18  1  0
 27 22  1  0
  1 30  1  0
  1 31  1  0
  1 32  1  0
  2 33  1  0
  2 34  1  0
  7 35  1  0
  8 36  1  0
  9 37  1  0
 10 38  1  0
 11 39  1  0
 12 40  1  0
 13 41  1  0
 13 42  1  0
 14 43  1  0
 14 44  1  0
 19 45  1  0
 19 46  1  0
 20 47  1  0
 20 48  1  0
 21 49  1  0
 21 50  1  0
 23 51  1  0
 24 52  1  0
 25 53  1  0
 26 54  1  0
 28 55  1  0
 28 56  1  0
 29 57  1  0
 29 58  1  0
M  END
>  <smiles>  (13) 
CCC(=O)N(c1ccccc1)C1CCN(C(=O)C2(N)CCc3ccccc32)CC1

>  <score_type>  (13) 
oracle

>  <origin>  (13) 
autodockgpu

>  <m_score__min__energy>  (13) 
-7.1500000000000004

>  <m_primary>  (13) 
energy

>  <meeko>  (13) 
{"free_energy": -6.8, "intermolecular_energy": -8.59, "internal_energy": -1.86, "cluster_size": 2, "cluster_id": 4, "rank_in_cluster": 1}

>  <energy>  (13) 
-6.76

>  <cluster_rmsd>  (13) 
0.43

>  <rmsd>  (13) 
270.9

>  <cluster>  (13) 
3

$$$$

     RDKit          3D

 58 61  0  0  1  0  0  0  0  0999 V2000
  146.4270   73.3820  221.9670 C   0  0  0  0  0  0  0  0  0  0  0  0
  145.9190   74.2040  220.8250 C   0  0  0  0  0  0  0  0  0  0  0  0
  145.5750   73.3710  219.6350 C   0  0  0  0  0  0  0  0  0  0  0  0
  146.2230   72.3060  219.4660 O   0  0  0  0  0  0  0  0  0  0  0  0
  144.5460   73.8100  218.7550 N   0  0  0  0  0  0  0  0  0  0  0  0
  144.8550   74.0600  217.3640 C   0  0  0  0  0  0  0  0  0  0  0  0
  144.4460   75.2100  216.7280 C   0  0  0  0  0  0  0  0  0  0  0  0
  144.7790   75.3980  215.4030 C   0  0  0  0  0  0  0  0  0  0  0  0
  145.5170   74.4140  214.7560 C   0  0  0  0  0  0  0  0  0  0  0  0
  145.9160   73.2780  215.4030 C   0  0  0  0  0  0  0  0  0  0  0  0
  145.5890   73.0750  216.7340 C   0  0  0  0  0  0  0  0  0  0  0  0
  143.1990   74.0220  219.2070 C   0  0  0  0  0  0  0  0  0  0  0  0
  142.6560   75.3800  219.0010 C   0  0  0  0  0  0  0  0  0  0  0  0
  141.9670   75.9930  220.2130 C   0  0  0  0  0  0  0  0  0  0  0  0
  141.1320   75.0970  220.9370 N   0  0  0  0  0  0  0  0  0  0  0  0
  140.0250   75.4180  221.7520 C   0  0  0  0  0  0  0  0  0  0  0  0
  139.3760   74.4460  222.3110 O   0  0  0  0  0  0  0  0  0  0  0  0
  139.4970   76.7520  222.0590 C   0  0  2  0  0  0  0  0  0  0  0  0
  138.5330   76.7120  223.0920 N   0  0  0  0  0  0  0  0  0  0  0  0
  138.7830   77.3060  220.8160 C   0  0  0  0  0  0  0  0  0  0  0  0
  139.8950   77.9970  220.0910 C   0  0  0  0  0  0  0  0  0  0  0  0
  140.8130   78.4700  221.1500 C   0  0  0  0  0  0  0  0  0  0  0  0
  141.7820   79.4700  221.0900 C   0  0  0  0  0  0  0  0  0  0  0  0
  142.4990   79.6940  222.2540 C   0  0  0  0  0  0  0  0  0  0  0  0
  142.2700   78.9670  223.4150 C   0  0  0  0  0  0  0  0  0  0  0  0
  141.3060   77.9780  223.4590 C   0  0  0  0  0  0  0  0  0  0  0  0
  140.5830   77.7460  222.3000 C   0  0  0  0  0  0  0  0  0  0  0  0
  141.4650   73.6620  220.8410 C   0  0  0  0  0  0  0  0  0  0  0  0
  142.9920   73.6210  220.6720 C   0  0  0  0  0  0  0  0  0  0  0  0
  146.1353   73.8540  222.9168 H   0  0  0  0  0  0  0  0  0  0  0  0
  145.9956   72.3716  221.9120 H   0  0  0  0  0  0  0  0  0  0  0  0
  147.5236   73.3160  221.9120 H   0  0  0  0  0  0  0  0  0  0  0  0
  145.0177   74.7437  221.1512 H   0  0  0  0  0  0  0  0  0  0  0  0
  146.7189   74.8987  220.5290 H   0  0  0  0  0  0  0  0  0  0  0  0
  143.8616   75.9687  217.2691 H   0  0  0  0  0  0  0  0  0  0  0  0
  144.4670   76.3079  214.8693 H   0  0  0  0  0  0  0  0  0  0  0  0
  145.7863   74.5526  213.6985 H   0  0  0  0  0  0  0  0  0  0  0  0
  146.5012   72.5192  214.8629 H   0  0  0  0  0  0  0  0  0  0  0  0
  145.9018   72.1653  217.2674 H   0  0  0  0  0  0  0  0  0  0  0  0
  142.6276   73.3517  218.5481 H   0  0  0  0  0  0  0  0  0  0  0  0
  143.4881   76.0392  218.7129 H   0  0  0  0  0  0  0  0  0  0  0  0
  141.8820   75.2851  218.2251 H   0  0  0  0  0  0  0  0  0  0  0  0
  142.7437   76.3661  220.8967 H   0  0  0  0  0  0  0  0  0  0  0  0
  141.3111   76.7882  219.8290 H   0  0  0  0  0  0  0  0  0  0  0  0
  138.4150   75.7780  223.5360 H   0  0  0  0  0  0  0  0  0  0  0  0
  137.6240   77.1690  222.8700 H   0  0  0  0  0  0  0  0  0  0  0  0
  138.3544   76.4954  220.2084 H   0  0  0  0  0  0  0  0  0  0  0  0
  137.9347   77.9652  221.0524 H   0  0  0  0  0  0  0  0  0  0  0  0
  140.4108   77.2963  219.4180 H   0  0  0  0  0  0  0  0  0  0  0  0
  139.5271   78.8241  219.4661 H   0  0  0  0  0  0  0  0  0  0  0  0
  141.9666   80.0475  220.1722 H   0  0  0  0  0  0  0  0  0  0  0  0
  143.2753   80.4734  222.2589 H   0  0  0  0  0  0  0  0  0  0  0  0
  142.8658   79.1820  224.3143 H   0  0  0  0  0  0  0  0  0  0  0  0
  141.1204   77.3991  224.3757 H   0  0  0  0  0  0  0  0  0  0  0  0
  141.1626   73.1324  221.7565 H   0  0  0  0  0  0  0  0  0  0  0  0
  140.9427   73.1705  220.0070 H   0  0  0  0  0  0  0  0  0  0  0  0
  143.4821   74.3364  221.3488 H   0  0  0  0  0  0  0  0  0  0  0  0
  143.4242   72.6387  220.9132 H   0  0  0  0  0  0  0  0  0  0  0  0
  1  2  1  0
  2  3  1  0
  3  4  2  0
  3  5  1  0
  5  6  1  0
  6  7  2  0
  7  8  1  0
  8  9  2  0
  9 10  1  0
 10 11  2  0
  5 12  1  0
 12 13  1  0
 13 14  1  0
 14 15  1  0
 15 16  1  0
 16 17  2  0
 16 18  1  0
 18 19  1  1
 18 20  1  0
 20 21  1  0
 21 22  1  0
 22 23  2  0
 23 24  1  0
 24 25  2  0
 25 26  1  0
 26 27  2  0
 15 28  1  0
 28 29  1  0
 11  6  1  0
 29 12  1  0
 27 18  1  0
 27 22  1  0
  1 30  1  0
  1 31  1  0
  1 32  1  0
  2 33  1  0
  2 34  1  0
  7 35  1  0
  8 36  1  0
  9 37  1  0
 10 38  1  0
 11 39  1  0
 12 40  1  0
 13 41  1  0
 13 42  1  0
 14 43  1  0
 14 44  1  0
 19 45  1  0
 19 46  1  0
 20 47  1  0
 20 48  1  0
 21 49  1  0
 21 50  1  0
 23 51  1  0
 24 52  1  0
 25 53  1  0
 26 54  1  0
 28 55  1  0
 28 56  1  0
 29 57  1  0
 29 58  1  0
M  END
>  <smiles>  (14) 
CCC(=O)N(c1ccccc1)C1CCN(C(=O)C2(N)CCc3ccccc32)CC1

>  <score_type>  (14) 
oracle

>  <origin>  (14) 
autodockgpu

>  <m_score__min__energy>  (14) 
-7.1500000000000004

>  <m_primary>  (14) 
energy

>  <meeko>  (14) 
{"free_energy": -7.08, "intermolecular_energy": -8.87, "internal_energy": -1.56, "cluster_size": 4, "cluster_id": 2, "rank_in_cluster": 3}

>  <energy>  (14) 
-6.67

>  <cluster_rmsd>  (14) 
0.67

>  <rmsd>  (14) 
270.92

>  <cluster>  (14) 
3

$$$$

     RDKit          3D

 58 61  0  0  1  0  0  0  0  0999 V2000
  143.3330   80.6010  223.8310 C   0  0  0  0  0  0  0  0  0  0  0  0
  142.2050   81.5840  223.8080 C   0  0  0  0  0  0  0  0  0  0  0  0
  141.2410   81.3150  222.7010 C   0  0  0  0  0  0  0  0  0  0  0  0
  141.3310   82.0270  221.6680 O   0  0  0  0  0  0  0  0  0  0  0  0
  140.2750   80.2820  222.8590 N   0  0  0  0  0  0  0  0  0  0  0  0
  138.8950   80.6290  223.1170 C   0  0  0  0  0  0  0  0  0  0  0  0
  138.0300   80.9580  222.0980 C   0  0  0  0  0  0  0  0  0  0  0  0
  136.7220   81.2710  222.4040 C   0  0  0  0  0  0  0  0  0  0  0  0
  136.3250   81.2430  223.7360 C   0  0  0  0  0  0  0  0  0  0  0  0
  137.1970   80.9130  224.7350 C   0  0  0  0  0  0  0  0  0  0  0  0
  138.5130   80.5970  224.4430 C   0  0  0  0  0  0  0  0  0  0  0  0
  140.6290   78.8920  222.7770 C   0  0  0  0  0  0  0  0  0  0  0  0
  141.7200   78.5600  221.8380 C   0  0  0  0  0  0  0  0  0  0  0  0
  141.4400   77.3880  220.9070 C   0  0  0  0  0  0  0  0  0  0  0  0
  140.7970   76.2790  221.5250 N   0  0  0  0  0  0  0  0  0  0  0  0
  140.8380   74.9260  221.1250 C   0  0  0  0  0  0  0  0  0  0  0  0
  140.1990   74.0580  221.8420 O   0  0  0  0  0  0  0  0  0  0  0  0
  141.5310   74.3570  219.9630 C   0  0  2  0  0  0  0  0  0  0  0  0
  141.3030   75.1130  218.7910 N   0  0  0  0  0  0  0  0  0  0  0  0
  140.9770   72.9500  219.6910 C   0  0  0  0  0  0  0  0  0  0  0  0
  141.8580   72.0900  220.5430 C   0  0  0  0  0  0  0  0  0  0  0  0
  143.1630   72.7850  220.5740 C   0  0  0  0  0  0  0  0  0  0  0  0
  144.4230   72.2740  220.8840 C   0  0  0  0  0  0  0  0  0  0  0  0
  145.4740   73.1740  220.8310 C   0  0  0  0  0  0  0  0  0  0  0  0
  145.2910   74.5090  220.4900 C   0  0  0  0  0  0  0  0  0  0  0  0
  144.0350   75.0000  220.1860 C   0  0  0  0  0  0  0  0  0  0  0  0
  142.9760   74.1080  220.2360 C   0  0  0  0  0  0  0  0  0  0  0  0
  139.9800   76.5720  222.7180 C   0  0  0  0  0  0  0  0  0  0  0  0
  139.4290   77.9860  222.4820 C   0  0  0  0  0  0  0  0  0  0  0  0
  143.5974   80.3706  224.8736 H   0  0  0  0  0  0  0  0  0  0  0  0
  143.0253   79.6778  223.3181 H   0  0  0  0  0  0  0  0  0  0  0  0
  144.2055   81.0320  223.3181 H   0  0  0  0  0  0  0  0  0  0  0  0
  141.6677   81.5281  224.7662 H   0  0  0  0  0  0  0  0  0  0  0  0
  142.6336   82.5839  223.6451 H   0  0  0  0  0  0  0  0  0  0  0  0
  138.3770   80.9711  221.0543 H   0  0  0  0  0  0  0  0  0  0  0  0
  136.0080   81.5372  221.6107 H   0  0  0  0  0  0  0  0  0  0  0  0
  135.2846   81.4923  223.9917 H   0  0  0  0  0  0  0  0  0  0  0  0
  136.8508   80.8983  225.7790 H   0  0  0  0  0  0  0  0  0  0  0  0
  139.2264   80.3308  225.2369 H   0  0  0  0  0  0  0  0  0  0  0  0
  141.0110   78.6932  223.7892 H   0  0  0  0  0  0  0  0  0  0  0  0
  141.9174   79.4472  221.2184 H   0  0  0  0  0  0  0  0  0  0  0  0
  142.5762   78.2585  222.4593 H   0  0  0  0  0  0  0  0  0  0  0  0
  140.7964   77.7456  220.0897 H   0  0  0  0  0  0  0  0  0  0  0  0
  142.4189   77.0260  220.5596 H   0  0  0  0  0  0  0  0  0  0  0  0
  141.9760   75.8920  218.6410 H   0  0  0  0  0  0  0  0  0  0  0  0
  140.3140   75.4000  218.6330 H   0  0  0  0  0  0  0  0  0  0  0  0
  139.9240   72.8700  219.9990 H   0  0  0  0  0  0  0  0  0  0  0  0
  140.9855   72.6714  218.6269 H   0  0  0  0  0  0  0  0  0  0  0  0
  141.4443   72.0001  221.5583 H   0  0  0  0  0  0  0  0  0  0  0  0
  141.9451   71.0682  220.1451 H   0  0  0  0  0  0  0  0  0  0  0  0
  144.5731   71.2184  221.1546 H   0  0  0  0  0  0  0  0  0  0  0  0
  146.4885   72.8203  221.0668 H   0  0  0  0  0  0  0  0  0  0  0  0
  146.1584   75.1848  220.4616 H   0  0  0  0  0  0  0  0  0  0  0  0
  143.8826   76.0553  219.9156 H   0  0  0  0  0  0  0  0  0  0  0  0
  139.1581   75.8470  222.8118 H   0  0  0  0  0  0  0  0  0  0  0  0
  140.5650   76.5052  223.6471 H   0  0  0  0  0  0  0  0  0  0  0  0
  139.0908   78.1076  221.4424 H   0  0  0  0  0  0  0  0  0  0  0  0
  138.5550   78.2152  223.1093 H   0  0  0  0  0  0  0  0  0  0  0  0
  1  2  1  0
  2  3  1  0
  3  4  2  0
  3  5  1  0
  5  6  1  0
  6  7  2  0
  7  8  1  0
  8  9  2  0
  9 10  1  0
 10 11  2  0
  5 12  1  0
 12 13  1  0
 13 14  1  0
 14 15  1  0
 15 16  1  0
 16 17  2  0
 16 18  1  0
 18 19  1  6
 18 20  1  0
 20 21  1  0
 21 22  1  0
 22 23  2  0
 23 24  1  0
 24 25  2  0
 25 26  1  0
 26 27  2  0
 15 28  1  0
 28 29  1  0
 11  6  1  0
 29 12  1  0
 27 18  1  0
 27 22  1  0
  1 30  1  0
  1 31  1  0
  1 32  1  0
  2 33  1  0
  2 34  1  0
  7 35  1  0
  8 36  1  0
  9 37  1  0
 10 38  1  0
 11 39  1  0
 12 40  1  0
 13 41  1  0
 13 42  1  0
 14 43  1  0
 14 44  1  0
 19 45  1  0
 19 46  1  0
 20 47  1  0
 20 48  1  0
 21 49  1  0
 21 50  1  0
 23 51  1  0
 24 52  1  0
 25 53  1  0
 26 54  1  0
 28 55  1  0
 28 56  1  0
 29 57  1  0
 29 58  1  0
M  END
>  <smiles>  (15) 
CCC(=O)N(c1ccccc1)C1CCN(C(=O)C2(N)CCc3ccccc32)CC1

>  <score_type>  (15) 
oracle

>  <origin>  (15) 
autodockgpu

>  <m_score__min__energy>  (15) 
-7.1500000000000004

>  <m_primary>  (15) 
energy

>  <meeko>  (15) 
{"free_energy": -6.86, "intermolecular_energy": -8.65, "internal_energy": -1.64, "cluster_size": 10, "cluster_id": 3, "rank_in_cluster": 3}

>  <energy>  (15) 
-6.65

>  <cluster_rmsd>  (15) 
0.68

>  <rmsd>  (15) 
270.94

>  <cluster>  (15) 
3

$$$$

     RDKit          3D

 58 61  0  0  1  0  0  0  0  0999 V2000
  137.5540   78.4620  221.5530 C   0  0  0  0  0  0  0  0  0  0  0  0
  138.1560   77.7540  222.7250 C   0  0  0  0  0  0  0  0  0  0  0  0
  139.3840   76.9910  222.3580 C   0  0  0  0  0  0  0  0  0  0  0  0
  139.4420   75.7830  222.7030 O   0  0  0  0  0  0  0  0  0  0  0  0
  140.4230   77.6520  221.6430 N   0  0  0  0  0  0  0  0  0  0  0  0
  141.0170   78.8490  222.1950 C   0  0  0  0  0  0  0  0  0  0  0  0
  140.7500   80.0950  221.6740 C   0  0  0  0  0  0  0  0  0  0  0  0
  141.3380   81.2020  222.2470 C   0  0  0  0  0  0  0  0  0  0  0  0
  142.1850   81.0190  223.3350 C   0  0  0  0  0  0  0  0  0  0  0  0
  142.4390   79.7740  223.8400 C   0  0  0  0  0  0  0  0  0  0  0  0
  141.8560   78.6530  223.2740 C   0  0  0  0  0  0  0  0  0  0  0  0
  140.9010   77.1680  220.3780 C   0  0  0  0  0  0  0  0  0  0  0  0
  141.0920   75.7070  220.2770 C   0  0  0  0  0  0  0  0  0  0  0  0
  142.4220   75.2670  219.6780 C   0  0  0  0  0  0  0  0  0  0  0  0
  142.8450   76.0260  218.5510 N   0  0  0  0  0  0  0  0  0  0  0  0
  143.7040   75.6150  217.5090 C   0  0  0  0  0  0  0  0  0  0  0  0
  143.9490   76.4540  216.5530 O   0  0  0  0  0  0  0  0  0  0  0  0
  144.3800   74.3200  217.3640 C   0  0  2  0  0  0  0  0  0  0  0  0
  145.6270   74.4470  216.7110 N   0  0  0  0  0  0  0  0  0  0  0  0
  143.5170   73.4020  216.4840 C   0  0  0  0  0  0  0  0  0  0  0  0
  142.6280   72.7400  217.4900 C   0  0  0  0  0  0  0  0  0  0  0  0
  143.4360   72.6570  218.7260 C   0  0  0  0  0  0  0  0  0  0  0  0
  143.2680   71.8250  219.8310 C   0  0  0  0  0  0  0  0  0  0  0  0
  144.1910   71.9770  220.8530 C   0  0  0  0  0  0  0  0  0  0  0  0
  145.2230   72.9040  220.7870 C   0  0  0  0  0  0  0  0  0  0  0  0
  145.3770   73.7230  219.6840 C   0  0  0  0  0  0  0  0  0  0  0  0
  144.4590   73.5790  218.6560 C   0  0  0  0  0  0  0  0  0  0  0  0
  142.3400   77.4090  218.4600 C   0  0  0  0  0  0  0  0  0  0  0  0
  142.1840   77.8690  219.9170 C   0  0  0  0  0  0  0  0  0  0  0  0
  136.8800   79.2546  221.9101 H   0  0  0  0  0  0  0  0  0  0  0  0
  138.3539   78.9078  220.9435 H   0  0  0  0  0  0  0  0  0  0  0  0
  136.9854   77.7442  220.9435 H   0  0  0  0  0  0  0  0  0  0  0  0
  138.4183   78.4985  223.4911 H   0  0  0  0  0  0  0  0  0  0  0  0
  137.4134   77.0346  223.1003 H   0  0  0  0  0  0  0  0  0  0  0  0
  140.0762   80.2056  220.8116 H   0  0  0  0  0  0  0  0  0  0  0  0
  141.1415   82.2096  221.8520 H   0  0  0  0  0  0  0  0  0  0  0  0
  142.6610   81.8952  223.7994 H   0  0  0  0  0  0  0  0  0  0  0  0
  143.1120   79.6621  224.7029 H   0  0  0  0  0  0  0  0  0  0  0  0
  142.0535   77.6454  223.6686 H   0  0  0  0  0  0  0  0  0  0  0  0
  140.0688   77.4242  219.7059 H   0  0  0  0  0  0  0  0  0  0  0  0
  141.0178   75.2832  221.2894 H   0  0  0  0  0  0  0  0  0  0  0  0
  140.3128   75.3438  219.5907 H   0  0  0  0  0  0  0  0  0  0  0  0
  143.1937   75.3511  220.4574 H   0  0  0  0  0  0  0  0  0  0  0  0
  142.2776   74.2360  219.3227 H   0  0  0  0  0  0  0  0  0  0  0  0
  146.4440   74.1380  217.2770 H   0  0  0  0  0  0  0  0  0  0  0  0
  145.7880   75.3600  216.2370 H   0  0  0  0  0  0  0  0  0  0  0  0
  142.9316   73.9830  215.7562 H   0  0  0  0  0  0  0  0  0  0  0  0
  144.1024   72.6936  215.8795 H   0  0  0  0  0  0  0  0  0  0  0  0
  141.7231   73.3418  217.6604 H   0  0  0  0  0  0  0  0  0  0  0  0
  142.2908   71.7491  217.1518 H   0  0  0  0  0  0  0  0  0  0  0  0
  142.4508   71.0909  219.8885 H   0  0  0  0  0  0  0  0  0  0  0  0
  144.1034   71.3420  221.7469 H   0  0  0  0  0  0  0  0  0  0  0  0
  145.9294   72.9879  221.6260 H   0  0  0  0  0  0  0  0  0  0  0  0
  146.1935   74.4577  219.6249 H   0  0  0  0  0  0  0  0  0  0  0  0
  143.0583   78.0491  217.9268 H   0  0  0  0  0  0  0  0  0  0  0  0
  141.3932   77.4685  217.9032 H   0  0  0  0  0  0  0  0  0  0  0  0
  143.0450   77.5520  220.5238 H   0  0  0  0  0  0  0  0  0  0  0  0
  142.1344   78.9632  220.0179 H   0  0  0  0  0  0  0  0  0  0  0  0
  1  2  1  0
  2  3  1  0
  3  4  2  0
  3  5  1  0
  5  6  1  0
  6  7  2  0
  7  8  1  0
  8  9  2  0
  9 10  1  0
 10 11  2  0
  5 12  1  0
 12 13  1  0
 13 14  1  0
 14 15  1  0
 15 16  1  0
 16 17  2  0
 16 18  1  0
 18 19  1  6
 18 20  1  0
 20 21  1  0
 21 22  1  0
 22 23  2  0
 23 24  1  0
 24 25  2  0
 25 26  1  0
 26 27  2  0
 15 28  1  0
 28 29  1  0
 11  6  1  0
 29 12  1  0
 27 18  1  0
 27 22  1  0
  1 30  1  0
  1 31  1  0
  1 32  1  0
  2 33  1  0
  2 34  1  0
  7 35  1  0
  8 36  1  0
  9 37  1  0
 10 38  1  0
 11 39  1  0
 12 40  1  0
 13 41  1  0
 13 42  1  0
 14 43  1  0
 14 44  1  0
 19 45  1  0
 19 46  1  0
 20 47  1  0
 20 48  1  0
 21 49  1  0
 21 50  1  0
 23 51  1  0
 24 52  1  0
 25 53  1  0
 26 54  1  0
 28 55  1  0
 28 56  1  0
 29 57  1  0
 29 58  1  0
M  END
>  <smiles>  (16) 
CCC(=O)N(c1ccccc1)C1CCN(C(=O)C2(N)CCc3ccccc32)CC1

>  <score_type>  (16) 
oracle

>  <origin>  (16) 
autodockgpu

>  <m_score__min__energy>  (16) 
-7.1500000000000004

>  <m_primary>  (16) 
energy

>  <meeko>  (16) 
{"free_energy": -6.34, "intermolecular_energy": -8.13, "internal_energy": -2.08, "cluster_size": 2, "cluster_id": 6, "rank_in_cluster": 1}

>  <energy>  (16) 
-6.8

>  <cluster_rmsd>  (16) 
0.0

>  <rmsd>  (16) 
270.48

>  <cluster>  (16) 
4

$$$$

     RDKit          3D

 58 61  0  0  1  0  0  0  0  0999 V2000
  146.3500   73.3110  221.9470 C   0  0  0  0  0  0  0  0  0  0  0  0
  145.9520   74.1330  220.7620 C   0  0  0  0  0  0  0  0  0  0  0  0
  145.5420   73.2920  219.6000 C   0  0  0  0  0  0  0  0  0  0  0  0
  146.1370   72.1950  219.4400 O   0  0  0  0  0  0  0  0  0  0  0  0
  144.5130   73.7590  218.7350 N   0  0  0  0  0  0  0  0  0  0  0  0
  144.8200   74.0480  217.3520 C   0  0  0  0  0  0  0  0  0  0  0  0
  144.4270   75.2240  216.7550 C   0  0  0  0  0  0  0  0  0  0  0  0
  144.7570   75.4490  215.4350 C   0  0  0  0  0  0  0  0  0  0  0  0
  145.4770   74.4750  214.7530 C   0  0  0  0  0  0  0  0  0  0  0  0
  145.8600   73.3120  215.3620 C   0  0  0  0  0  0  0  0  0  0  0  0
  145.5350   73.0720  216.6860 C   0  0  0  0  0  0  0  0  0  0  0  0
  143.1670   73.9600  219.1950 C   0  0  0  0  0  0  0  0  0  0  0  0
  142.6080   75.3110  218.9820 C   0  0  0  0  0  0  0  0  0  0  0  0
  141.9220   75.9270  220.1930 C   0  0  0  0  0  0  0  0  0  0  0  0
  141.1020   75.0280  220.9320 N   0  0  0  0  0  0  0  0  0  0  0  0
  139.9970   75.3450  221.7510 C   0  0  0  0  0  0  0  0  0  0  0  0
  139.3630   74.3720  222.3240 O   0  0  0  0  0  0  0  0  0  0  0  0
  139.4570   76.6760  222.0510 C   0  0  2  0  0  0  0  0  0  0  0  0
  138.4970   76.6340  223.0880 N   0  0  0  0  0  0  0  0  0  0  0  0
  138.7350   77.2150  220.8070 C   0  0  0  0  0  0  0  0  0  0  0  0
  139.8380   77.9110  220.0740 C   0  0  0  0  0  0  0  0  0  0  0  0
  140.7540   78.4000  221.1260 C   0  0  0  0  0  0  0  0  0  0  0  0
  141.7140   79.4090  221.0560 C   0  0  0  0  0  0  0  0  0  0  0  0
  142.4320   79.6470  222.2170 C   0  0  0  0  0  0  0  0  0  0  0  0
  142.2140   78.9260  223.3840 C   0  0  0  0  0  0  0  0  0  0  0  0
  141.2590   77.9280  223.4380 C   0  0  0  0  0  0  0  0  0  0  0  0
  140.5340   77.6820  222.2820 C   0  0  0  0  0  0  0  0  0  0  0  0
  141.4490   73.5970  220.8450 C   0  0  0  0  0  0  0  0  0  0  0  0
  142.9740   73.5700  220.6650 C   0  0  0  0  0  0  0  0  0  0  0  0
  146.0896   73.8489  222.8705 H   0  0  0  0  0  0  0  0  0  0  0  0
  145.8182   72.3485  221.9209 H   0  0  0  0  0  0  0  0  0  0  0  0
  147.4349   73.1313  221.9209 H   0  0  0  0  0  0  0  0  0  0  0  0
  145.1078   74.7782  221.0468 H   0  0  0  0  0  0  0  0  0  0  0  0
  146.8262   74.7261  220.4556 H   0  0  0  0  0  0  0  0  0  0  0  0
  143.8574   75.9743  217.3229 H   0  0  0  0  0  0  0  0  0  0  0  0
  144.4566   76.3801  214.9322 H   0  0  0  0  0  0  0  0  0  0  0  0
  145.7448   74.6435  213.6995 H   0  0  0  0  0  0  0  0  0  0  0  0
  146.4307   72.5615  214.7954 H   0  0  0  0  0  0  0  0  0  0  0  0
  145.8346   72.1402  217.1881 H   0  0  0  0  0  0  0  0  0  0  0  0
  142.5990   73.2773  218.5459 H   0  0  0  0  0  0  0  0  0  0  0  0
  143.4310   75.9764  218.6821 H   0  0  0  0  0  0  0  0  0  0  0  0
  141.8291   75.2012  218.2131 H   0  0  0  0  0  0  0  0  0  0  0  0
  142.6998   76.3148  220.8673 H   0  0  0  0  0  0  0  0  0  0  0  0
  141.2544   76.7114  219.8070 H   0  0  0  0  0  0  0  0  0  0  0  0
  138.3890   75.7020  223.5380 H   0  0  0  0  0  0  0  0  0  0  0  0
  137.5840   77.0820  222.8650 H   0  0  0  0  0  0  0  0  0  0  0  0
  138.3120   76.3965  220.2061 H   0  0  0  0  0  0  0  0  0  0  0  0
  137.8817   77.8682  221.0417 H   0  0  0  0  0  0  0  0  0  0  0  0
  140.3584   77.2104  219.4045 H   0  0  0  0  0  0  0  0  0  0  0  0
  139.4604   78.7301  219.4443 H   0  0  0  0  0  0  0  0  0  0  0  0
  141.8908   79.9820  220.1338 H   0  0  0  0  0  0  0  0  0  0  0  0
  143.2008   80.4337  222.2143 H   0  0  0  0  0  0  0  0  0  0  0  0
  142.8109   79.1528  224.2797 H   0  0  0  0  0  0  0  0  0  0  0  0
  141.0818   77.3534  224.3591 H   0  0  0  0  0  0  0  0  0  0  0  0
  141.1588   73.0717  221.7669 H   0  0  0  0  0  0  0  0  0  0  0  0
  140.9257   73.0937  220.0187 H   0  0  0  0  0  0  0  0  0  0  0  0
  143.4617   74.2962  221.3319 H   0  0  0  0  0  0  0  0  0  0  0  0
  143.4176   72.5940  220.9114 H   0  0  0  0  0  0  0  0  0  0  0  0
  1  2  1  0
  2  3  1  0
  3  4  2  0
  3  5  1  0
  5  6  1  0
  6  7  2  0
  7  8  1  0
  8  9  2  0
  9 10  1  0
 10 11  2  0
  5 12  1  0
 12 13  1  0
 13 14  1  0
 14 15  1  0
 15 16  1  0
 16 17  2  0
 16 18  1  0
 18 19  1  1
 18 20  1  0
 20 21  1  0
 21 22  1  0
 22 23  2  0
 23 24  1  0
 24 25  2  0
 25 26  1  0
 26 27  2  0
 15 28  1  0
 28 29  1  0
 11  6  1  0
 29 12  1  0
 27 18  1  0
 27 22  1  0
  1 30  1  0
  1 31  1  0
  1 32  1  0
  2 33  1  0
  2 34  1  0
  7 35  1  0
  8 36  1  0
  9 37  1  0
 10 38  1  0
 11 39  1  0
 12 40  1  0
 13 41  1  0
 13 42  1  0
 14 43  1  0
 14 44  1  0
 19 45  1  0
 19 46  1  0
 20 47  1  0
 20 48  1  0
 21 49  1  0
 21 50  1  0
 23 51  1  0
 24 52  1  0
 25 53  1  0
 26 54  1  0
 28 55  1  0
 28 56  1  0
 29 57  1  0
 29 58  1  0
M  END
>  <smiles>  (17) 
CCC(=O)N(c1ccccc1)C1CCN(C(=O)C2(N)CCc3ccccc32)CC1

>  <score_type>  (17) 
oracle

>  <origin>  (17) 
autodockgpu

>  <m_score__min__energy>  (17) 
-7.1500000000000004

>  <m_primary>  (17) 
energy

>  <meeko>  (17) 
{"free_energy": -7.05, "intermolecular_energy": -8.84, "internal_energy": -1.58, "cluster_size": 4, "cluster_id": 2, "rank_in_cluster": 4}

>  <energy>  (17) 
-6.78

>  <cluster_rmsd>  (17) 
0.29

>  <rmsd>  (17) 
270.49

>  <cluster>  (17) 
4

$$$$

     RDKit          3D

 58 61  0  0  1  0  0  0  0  0999 V2000
  143.2730   80.5250  223.8470 C   0  0  0  0  0  0  0  0  0  0  0  0
  142.1920   81.5340  223.6180 C   0  0  0  0  0  0  0  0  0  0  0  0
  141.2690   81.1360  222.5150 C   0  0  0  0  0  0  0  0  0  0  0  0
  141.4090   81.7110  221.4050 O   0  0  0  0  0  0  0  0  0  0  0  0
  140.2840   80.1380  222.7620 N   0  0  0  0  0  0  0  0  0  0  0  0
  138.9260   80.5350  223.0630 C   0  0  0  0  0  0  0  0  0  0  0  0
  138.0440   80.9030  222.0730 C   0  0  0  0  0  0  0  0  0  0  0  0
  136.7590   81.2630  222.4200 C   0  0  0  0  0  0  0  0  0  0  0  0
  136.4010   81.2420  223.7630 C   0  0  0  0  0  0  0  0  0  0  0  0
  137.2900   80.8730  224.7340 C   0  0  0  0  0  0  0  0  0  0  0  0
  138.5840   80.5100  224.4010 C   0  0  0  0  0  0  0  0  0  0  0  0
  140.5970   78.7370  222.7270 C   0  0  0  0  0  0  0  0  0  0  0  0
  141.6960   78.3440  221.8210 C   0  0  0  0  0  0  0  0  0  0  0  0
  141.3970   77.1540  220.9190 C   0  0  0  0  0  0  0  0  0  0  0  0
  140.7100   76.0830  221.5570 N   0  0  0  0  0  0  0  0  0  0  0  0
  140.7170   74.7190  221.1970 C   0  0  0  0  0  0  0  0  0  0  0  0
  140.0380   73.8910  221.9270 O   0  0  0  0  0  0  0  0  0  0  0  0
  141.4150   74.0940  220.0670 C   0  0  2  0  0  0  0  0  0  0  0  0
  141.1120   74.7330  218.8430 N   0  0  0  0  0  0  0  0  0  0  0  0
  140.9410   72.6390  219.9300 C   0  0  0  0  0  0  0  0  0  0  0  0
  141.8940   71.9080  220.8240 C   0  0  0  0  0  0  0  0  0  0  0  0
  143.1540   72.6780  220.7580 C   0  0  0  0  0  0  0  0  0  0  0  0
  144.4500   72.2710  221.0720 C   0  0  0  0  0  0  0  0  0  0  0  0
  145.4430   73.2240  220.9120 C   0  0  0  0  0  0  0  0  0  0  0  0
  145.1700   74.5110  220.4670 C   0  0  0  0  0  0  0  0  0  0  0  0
  143.8800   74.9000  220.1610 C   0  0  0  0  0  0  0  0  0  0  0  0
  142.8790   73.9550  220.3160 C   0  0  0  0  0  0  0  0  0  0  0  0
  139.8790   76.4370  222.7240 C   0  0  0  0  0  0  0  0  0  0  0  0
  139.3760   77.8590  222.4350 C   0  0  0  0  0  0  0  0  0  0  0  0
  143.4219   80.3861  224.9280 H   0  0  0  0  0  0  0  0  0  0  0  0
  142.9831   79.5670  223.3907 H   0  0  0  0  0  0  0  0  0  0  0  0
  144.2087   80.8802  223.3907 H   0  0  0  0  0  0  0  0  0  0  0  0
  141.6091   81.6441  224.5444 H   0  0  0  0  0  0  0  0  0  0  0  0
  142.6717   82.4810  223.3296 H   0  0  0  0  0  0  0  0  0  0  0  0
  138.3597   80.9099  221.0193 H   0  0  0  0  0  0  0  0  0  0  0  0
  136.0321   81.5607  221.6499 H   0  0  0  0  0  0  0  0  0  0  0  0
  135.3789   81.5289  224.0512 H   0  0  0  0  0  0  0  0  0  0  0  0
  136.9748   80.8644  225.7878 H   0  0  0  0  0  0  0  0  0  0  0  0
  139.3109   80.2134  225.1715 H   0  0  0  0  0  0  0  0  0  0  0  0
  140.9536   78.5574  223.7520 H   0  0  0  0  0  0  0  0  0  0  0  0
  141.9337   79.2058  221.1801 H   0  0  0  0  0  0  0  0  0  0  0  0
  142.5302   78.0352  222.4681 H   0  0  0  0  0  0  0  0  0  0  0  0
  140.7788   77.5064  220.0802 H   0  0  0  0  0  0  0  0  0  0  0  0
  142.3704   76.7531  220.6001 H   0  0  0  0  0  0  0  0  0  0  0  0
  141.6380   75.6150  218.6740 H   0  0  0  0  0  0  0  0  0  0  0  0
  140.0970   74.8230  218.6290 H   0  0  0  0  0  0  0  0  0  0  0  0
  139.9029   72.5239  220.2752 H   0  0  0  0  0  0  0  0  0  0  0  0
  140.9397   72.2718  218.8931 H   0  0  0  0  0  0  0  0  0  0  0  0
  141.5120   71.8807  221.8552 H   0  0  0  0  0  0  0  0  0  0  0  0
  142.0334   70.8630  220.5101 H   0  0  0  0  0  0  0  0  0  0  0  0
  144.6711   71.2532  221.4259 H   0  0  0  0  0  0  0  0  0  0  0  0
  146.4830   72.9520  221.1454 H   0  0  0  0  0  0  0  0  0  0  0  0
  145.9935   75.2318  220.3564 H   0  0  0  0  0  0  0  0  0  0  0  0
  143.6571   75.9180  219.8089 H   0  0  0  0  0  0  0  0  0  0  0  0
  139.0336   75.7402  222.8226 H   0  0  0  0  0  0  0  0  0  0  0  0
  140.4437   76.3813  223.6663 H   0  0  0  0  0  0  0  0  0  0  0  0
  139.0618   77.9591  221.3856 H   0  0  0  0  0  0  0  0  0  0  0  0
  138.4974   78.1332  223.0374 H   0  0  0  0  0  0  0  0  0  0  0  0
  1  2  1  0
  2  3  1  0
  3  4  2  0
  3  5  1  0
  5  6  1  0
  6  7  2  0
  7  8  1  0
  8  9  2  0
  9 10  1  0
 10 11  2  0
  5 12  1  0
 12 13  1  0
 13 14  1  0
 14 15  1  0
 15 16  1  0
 16 17  2  0
 16 18  1  0
 18 19  1  6
 18 20  1  0
 20 21  1  0
 21 22  1  0
 22 23  2  0
 23 24  1  0
 24 25  2  0
 25 26  1  0
 26 27  2  0
 15 28  1  0
 28 29  1  0
 11  6  1  0
 29 12  1  0
 27 18  1  0
 27 22  1  0
  1 30  1  0
  1 31  1  0
  1 32  1  0
  2 33  1  0
  2 34  1  0
  7 35  1  0
  8 36  1  0
  9 37  1  0
 10 38  1  0
 11 39  1  0
 12 40  1  0
 13 41  1  0
 13 42  1  0
 14 43  1  0
 14 44  1  0
 19 45  1  0
 19 46  1  0
 20 47  1  0
 20 48  1  0
 21 49  1  0
 21 50  1  0
 23 51  1  0
 24 52  1  0
 25 53  1  0
 26 54  1  0
 28 55  1  0
 28 56  1  0
 29 57  1  0
 29 58  1  0
M  END
>  <smiles>  (18) 
CCC(=O)N(c1ccccc1)C1CCN(C(=O)C2(N)CCc3ccccc32)CC1

>  <score_type>  (18) 
oracle

>  <origin>  (18) 
autodockgpu

>  <m_score__min__energy>  (18) 
-7.1500000000000004

>  <m_primary>  (18) 
energy

>  <meeko>  (18) 
{"free_energy": -6.77, "intermolecular_energy": -8.56, "internal_energy": -1.7, "cluster_size": 10, "cluster_id": 3, "rank_in_cluster": 5}

>  <energy>  (18) 
-6.6

>  <cluster_rmsd>  (18) 
0.0

>  <rmsd>  (18) 
269.68

>  <cluster>  (18) 
5

$$$$

     RDKit          3D

 58 61  0  0  1  0  0  0  0  0999 V2000
  146.3180   73.0550  221.6450 C   0  0  0  0  0  0  0  0  0  0  0  0
  145.6100   74.0600  220.7930 C   0  0  0  0  0  0  0  0  0  0  0  0
  144.8770   73.4260  219.6590 C   0  0  0  0  0  0  0  0  0  0  0  0
  145.4910   72.5610  218.9830 O   0  0  0  0  0  0  0  0  0  0  0  0
  143.5350   73.8210  219.3930 N   0  0  0  0  0  0  0  0  0  0  0  0
  143.2830   75.0460  218.6660 C   0  0  0  0  0  0  0  0  0  0  0  0
  143.1730   75.0630  217.2950 C   0  0  0  0  0  0  0  0  0  0  0  0
  142.9220   76.2600  216.6570 C   0  0  0  0  0  0  0  0  0  0  0  0
  142.7900   77.4100  217.4270 C   0  0  0  0  0  0  0  0  0  0  0  0
  142.9030   77.3750  218.7890 C   0  0  0  0  0  0  0  0  0  0  0  0
  143.1550   76.1810  219.4430 C   0  0  0  0  0  0  0  0  0  0  0  0
  142.4130   73.0400  219.8320 C   0  0  0  0  0  0  0  0  0  0  0  0
  141.5590   73.6620  220.8640 C   0  0  0  0  0  0  0  0  0  0  0  0
  141.2140   72.7650  222.0460 C   0  0  0  0  0  0  0  0  0  0  0  0
  140.8870   71.4240  221.6980 N   0  0  0  0  0  0  0  0  0  0  0  0
  140.0850   70.5170  222.4230 C   0  0  0  0  0  0  0  0  0  0  0  0
  139.8870   69.3400  221.9200 O   0  0  0  0  0  0  0  0  0  0  0  0
  139.4260   70.7400  223.7150 C   0  0  2  0  0  0  0  0  0  0  0  0
  138.0840   71.1540  223.5580 N   0  0  0  0  0  0  0  0  0  0  0  0
  140.1500   71.8740  224.4570 C   0  0  0  0  0  0  0  0  0  0  0  0
  141.2110   71.1360  225.2110 C   0  0  0  0  0  0  0  0  0  0  0  0
  140.6260   69.8110  225.5060 C   0  0  0  0  0  0  0  0  0  0  0  0
  140.9980   68.8820  226.4770 C   0  0  0  0  0  0  0  0  0  0  0  0
  140.2570   67.7120  226.5160 C   0  0  0  0  0  0  0  0  0  0  0  0
  139.2060   67.4720  225.6400 C   0  0  0  0  0  0  0  0  0  0  0  0
  138.8490   68.4020  224.6820 C   0  0  0  0  0  0  0  0  0  0  0  0
  139.5830   69.5760  224.6350 C   0  0  0  0  0  0  0  0  0  0  0  0
  141.4610   70.9110  220.4390 C   0  0  0  0  0  0  0  0  0  0  0  0
  142.8090   71.6340  220.2950 C   0  0  0  0  0  0  0  0  0  0  0  0
  146.1513   73.2916  222.7063 H   0  0  0  0  0  0  0  0  0  0  0  0
  145.9274   72.0499  221.4277 H   0  0  0  0  0  0  0  0  0  0  0  0
  147.3959   73.0844  221.4277 H   0  0  0  0  0  0  0  0  0  0  0  0
  144.8892   74.6080  221.4176 H   0  0  0  0  0  0  0  0  0  0  0  0
  146.3682   74.7342  220.3681 H   0  0  0  0  0  0  0  0  0  0  0  0
  143.2837   74.1347  216.7153 H   0  0  0  0  0  0  0  0  0  0  0  0
  142.8282   76.3037  215.5619 H   0  0  0  0  0  0  0  0  0  0  0  0
  142.5900   78.3702  216.9289 H   0  0  0  0  0  0  0  0  0  0  0  0
  142.7929   78.3027  219.3698 H   0  0  0  0  0  0  0  0  0  0  0  0
  143.2496   76.1378  220.5381 H   0  0  0  0  0  0  0  0  0  0  0  0
  141.8055   72.9774  218.9171 H   0  0  0  0  0  0  0  0  0  0  0  0
  142.0832   74.5484  221.2508 H   0  0  0  0  0  0  0  0  0  0  0  0
  140.6047   73.8972  220.3700 H   0  0  0  0  0  0  0  0  0  0  0  0
  142.0805   72.7419  222.7233 H   0  0  0  0  0  0  0  0  0  0  0  0
  140.3140   73.1944  222.5103 H   0  0  0  0  0  0  0  0  0  0  0  0
  137.6500   70.8780  222.6530 H   0  0  0  0  0  0  0  0  0  0  0  0
  137.8930   72.1470  223.8080 H   0  0  0  0  0  0  0  0  0  0  0  0
  140.5904   72.5940  223.7516 H   0  0  0  0  0  0  0  0  0  0  0  0
  139.4880   72.4722  225.1004 H   0  0  0  0  0  0  0  0  0  0  0  0
  142.1174   71.0295  224.5969 H   0  0  0  0  0  0  0  0  0  0  0  0
  141.5093   71.6670  226.1270 H   0  0  0  0  0  0  0  0  0  0  0  0
  141.8309   69.0672  227.1713 H   0  0  0  0  0  0  0  0  0  0  0  0
  140.5094   66.9476  227.2657 H   0  0  0  0  0  0  0  0  0  0  0  0
  138.6487   66.5262  225.7099 H   0  0  0  0  0  0  0  0  0  0  0  0
  138.0172   68.2178  223.9862 H   0  0  0  0  0  0  0  0  0  0  0  0
  141.6099   69.8227  220.4968 H   0  0  0  0  0  0  0  0  0  0  0  0
  140.8001   71.0924  219.5786 H   0  0  0  0  0  0  0  0  0  0  0  0
  143.3396   71.6720  221.2578 H   0  0  0  0  0  0  0  0  0  0  0  0
  143.4932   71.1298  219.5967 H   0  0  0  0  0  0  0  0  0  0  0  0
  1  2  1  0
  2  3  1  0
  3  4  2  0
  3  5  1  0
  5  6  1  0
  6  7  2  0
  7  8  1  0
  8  9  2  0
  9 10  1  0
 10 11  2  0
  5 12  1  0
 12 13  1  0
 13 14  1  0
 14 15  1  0
 15 16  1  0
 16 17  2  0
 16 18  1  0
 18 19  1  6
 18 20  1  0
 20 21  1  0
 21 22  1  0
 22 23  2  0
 23 24  1  0
 24 25  2  0
 25 26  1  0
 26 27  2  0
 15 28  1  0
 28 29  1  0
 11  6  1  0
 29 12  1  0
 27 18  1  0
 27 22  1  0
  1 30  1  0
  1 31  1  0
  1 32  1  0
  2 33  1  0
  2 34  1  0
  7 35  1  0
  8 36  1  0
  9 37  1  0
 10 38  1  0
 11 39  1  0
 12 40  1  0
 13 41  1  0
 13 42  1  0
 14 43  1  0
 14 44  1  0
 19 45  1  0
 19 46  1  0
 20 47  1  0
 20 48  1  0
 21 49  1  0
 21 50  1  0
 23 51  1  0
 24 52  1  0
 25 53  1  0
 26 54  1  0
 28 55  1  0
 28 56  1  0
 29 57  1  0
 29 58  1  0
M  END
>  <smiles>  (19) 
CCC(=O)N(c1ccccc1)C1CCN(C(=O)C2(N)CCc3ccccc32)CC1

>  <score_type>  (19) 
oracle

>  <origin>  (19) 
autodockgpu

>  <m_score__min__energy>  (19) 
-7.1500000000000004

>  <m_primary>  (19) 
energy

>  <meeko>  (19) 
{"free_energy": -7.15, "intermolecular_energy": -8.94, "internal_energy": -1.33, "cluster_size": 1, "cluster_id": 1, "rank_in_cluster": 1}

>  <energy>  (19) 
-6.34

>  <cluster_rmsd>  (19) 
0.0

>  <rmsd>  (19) 
270.08

>  <cluster>  (19) 
6

$$$$

     RDKit          3D

 58 61  0  0  1  0  0  0  0  0999 V2000
  143.1770   80.5230  223.8210 C   0  0  0  0  0  0  0  0  0  0  0  0
  142.1730   81.5750  223.4680 C   0  0  0  0  0  0  0  0  0  0  0  0
  141.2270   81.1210  222.4070 C   0  0  0  0  0  0  0  0  0  0  0  0
  141.3310   81.6530  221.2720 O   0  0  0  0  0  0  0  0  0  0  0  0
  140.2610   80.1230  222.7200 N   0  0  0  0  0  0  0  0  0  0  0  0
  138.9170   80.5190  223.0780 C   0  0  0  0  0  0  0  0  0  0  0  0
  137.9850   80.8580  222.1230 C   0  0  0  0  0  0  0  0  0  0  0  0
  136.7160   81.2180  222.5240 C   0  0  0  0  0  0  0  0  0  0  0  0
  136.4230   81.2260  223.8830 C   0  0  0  0  0  0  0  0  0  0  0  0
  137.3610   80.8860  224.8180 C   0  0  0  0  0  0  0  0  0  0  0  0
  138.6400   80.5230  224.4300 C   0  0  0  0  0  0  0  0  0  0  0  0
  140.5820   78.7230  222.6970 C   0  0  0  0  0  0  0  0  0  0  0  0
  141.6800   78.3280  221.7920 C   0  0  0  0  0  0  0  0  0  0  0  0
  141.3860   77.1280  220.9020 C   0  0  0  0  0  0  0  0  0  0  0  0
  140.7050   76.0600  221.5500 N   0  0  0  0  0  0  0  0  0  0  0  0
  140.7190   74.6930  221.2030 C   0  0  0  0  0  0  0  0  0  0  0  0
  140.0450   73.8680  221.9420 O   0  0  0  0  0  0  0  0  0  0  0  0
  141.4180   74.0610  220.0780 C   0  0  2  0  0  0  0  0  0  0  0  0
  141.1080   74.6860  218.8480 N   0  0  0  0  0  0  0  0  0  0  0  0
  140.9520   72.6020  219.9560 C   0  0  0  0  0  0  0  0  0  0  0  0
  141.9110   71.8850  220.8540 C   0  0  0  0  0  0  0  0  0  0  0  0
  143.1670   72.6620  220.7780 C   0  0  0  0  0  0  0  0  0  0  0  0
  144.4660   72.2650  221.0930 C   0  0  0  0  0  0  0  0  0  0  0  0
  145.4530   73.2220  220.9220 C   0  0  0  0  0  0  0  0  0  0  0  0
  145.1710   74.5030  220.4660 C   0  0  0  0  0  0  0  0  0  0  0  0
  143.8780   74.8820  220.1580 C   0  0  0  0  0  0  0  0  0  0  0  0
  142.8830   73.9330  220.3250 C   0  0  0  0  0  0  0  0  0  0  0  0
  139.8750   76.4200  222.7160 C   0  0  0  0  0  0  0  0  0  0  0  0
  139.3640   77.8370  222.4150 C   0  0  0  0  0  0  0  0  0  0  0  0
  143.2541   80.4422  224.9153 H   0  0  0  0  0  0  0  0  0  0  0  0
  142.8577   79.5567  223.4036 H   0  0  0  0  0  0  0  0  0  0  0  0
  144.1572   80.7968  223.4036 H   0  0  0  0  0  0  0  0  0  0  0  0
  141.5971   81.8312  224.3695 H   0  0  0  0  0  0  0  0  0  0  0  0
  142.7207   82.4466  223.0803 H   0  0  0  0  0  0  0  0  0  0  0  0
  138.2491   80.8418  221.0553 H   0  0  0  0  0  0  0  0  0  0  0  0
  135.9506   81.4934  221.7835 H   0  0  0  0  0  0  0  0  0  0  0  0
  135.4137   81.5123  224.2136 H   0  0  0  0  0  0  0  0  0  0  0  0
  137.0979   80.9009  225.8860 H   0  0  0  0  0  0  0  0  0  0  0  0
  139.4054   80.2485  225.1708 H   0  0  0  0  0  0  0  0  0  0  0  0
  140.9428   78.5538  223.7223 H   0  0  0  0  0  0  0  0  0  0  0  0
  141.9107   79.1852  221.1424 H   0  0  0  0  0  0  0  0  0  0  0  0
  142.5175   78.0299  222.4398 H   0  0  0  0  0  0  0  0  0  0  0  0
  140.7655   77.4695  220.0603 H   0  0  0  0  0  0  0  0  0  0  0  0
  142.3612   76.7287  220.5866 H   0  0  0  0  0  0  0  0  0  0  0  0
  140.5400   75.5530  218.9360 H   0  0  0  0  0  0  0  0  0  0  0  0
  140.7580   74.0500  218.1020 H   0  0  0  0  0  0  0  0  0  0  0  0
  139.9155   72.4843  220.3049 H   0  0  0  0  0  0  0  0  0  0  0  0
  140.9502   72.2250  218.9226 H   0  0  0  0  0  0  0  0  0  0  0  0
  141.5316   71.8649  221.8863 H   0  0  0  0  0  0  0  0  0  0  0  0
  142.0558   70.8380  220.5492 H   0  0  0  0  0  0  0  0  0  0  0  0
  144.6936   71.2518  221.4558 H   0  0  0  0  0  0  0  0  0  0  0  0
  146.4951   72.9583  221.1553 H   0  0  0  0  0  0  0  0  0  0  0  0
  145.9900   75.2278  220.3480 H   0  0  0  0  0  0  0  0  0  0  0  0
  143.6488   75.8949  219.7954 H   0  0  0  0  0  0  0  0  0  0  0  0
  139.0335   75.7197  222.8230 H   0  0  0  0  0  0  0  0  0  0  0  0
  140.4421   76.3756  223.6575 H   0  0  0  0  0  0  0  0  0  0  0  0
  139.0473   77.9262  221.3653 H   0  0  0  0  0  0  0  0  0  0  0  0
  138.4850   78.1125  223.0162 H   0  0  0  0  0  0  0  0  0  0  0  0
  1  2  1  0
  2  3  1  0
  3  4  2  0
  3  5  1  0
  5  6  1  0
  6  7  2  0
  7  8  1  0
  8  9  2  0
  9 10  1  0
 10 11  2  0
  5 12  1  0
 12 13  1  0
 13 14  1  0
 14 15  1  0
 15 16  1  0
 16 17  2  0
 16 18  1  0
 18 19  1  6
 18 20  1  0
 20 21  1  0
 21 22  1  0
 22 23  2  0
 23 24  1  0
 24 25  2  0
 25 26  1  0
 26 27  2  0
 15 28  1  0
 28 29  1  0
 11  6  1  0
 29 12  1  0
 27 18  1  0
 27 22  1  0
  1 30  1  0
  1 31  1  0
  1 32  1  0
  2 33  1  0
  2 34  1  0
  7 35  1  0
  8 36  1  0
  9 37  1  0
 10 38  1  0
 11 39  1  0
 12 40  1  0
 13 41  1  0
 13 42  1  0
 14 43  1  0
 14 44  1  0
 19 45  1  0
 19 46  1  0
 20 47  1  0
 20 48  1  0
 21 49  1  0
 21 50  1  0
 23 51  1  0
 24 52  1  0
 25 53  1  0
 26 54  1  0
 28 55  1  0
 28 56  1  0
 29 57  1  0
 29 58  1  0
M  END
>  <smiles>  (20) 
CCC(=O)N(c1ccccc1)C1CCN(C(=O)C2(N)CCc3ccccc32)CC1

>  <score_type>  (20) 
oracle

>  <origin>  (20) 
autodockgpu

>  <m_score__min__energy>  (20) 
-7.1500000000000004

>  <m_primary>  (20) 
energy

>  <meeko>  (20) 
{"free_energy": -6.77, "intermolecular_energy": -8.56, "internal_energy": -1.7, "cluster_size": 10, "cluster_id": 3, "rank_in_cluster": 7}

>  <energy>  (20) 
-6.34

>  <cluster_rmsd>  (20) 
0.02

>  <rmsd>  (20) 
270.08

>  <cluster>  (20) 
6

$$$$

     RDKit          3D

 58 61  0  0  1  0  0  0  0  0999 V2000
  142.2220   80.8610  218.5440 C   0  0  0  0  0  0  0  0  0  0  0  0
  141.1200   81.9050  218.6720 C   0  0  0  0  0  0  0  0  0  0  0  0
  140.5810   81.9090  220.0430 C   0  0  0  0  0  0  0  0  0  0  0  0
  140.1360   82.9990  220.5380 O   0  0  0  0  0  0  0  0  0  0  0  0
  140.5070   80.7770  220.8920 N   0  0  0  0  0  0  0  0  0  0  0  0
  141.4000   80.7770  222.0210 C   0  0  0  0  0  0  0  0  0  0  0  0
  141.2390   81.6740  223.0620 C   0  0  0  0  0  0  0  0  0  0  0  0
  142.1340   81.6320  224.1310 C   0  0  0  0  0  0  0  0  0  0  0  0
  143.1750   80.6990  224.1410 C   0  0  0  0  0  0  0  0  0  0  0  0
  143.3240   79.8010  223.0820 C   0  0  0  0  0  0  0  0  0  0  0  0
  142.4310   79.8500  222.0260 C   0  0  0  0  0  0  0  0  0  0  0  0
  139.6310   79.6600  220.7220 C   0  0  0  0  0  0  0  0  0  0  0  0
  139.1820   79.1340  222.0670 C   0  0  0  0  0  0  0  0  0  0  0  0
  138.1890   78.0090  221.8710 C   0  0  0  0  0  0  0  0  0  0  0  0
  138.9200   76.9580  221.1130 N   0  0  0  0  0  0  0  0  0  0  0  0
  139.0350   75.7230  221.7650 C   0  0  0  0  0  0  0  0  0  0  0  0
  138.4800   75.6770  222.9360 O   0  0  0  0  0  0  0  0  0  0  0  0
  139.6790   74.5000  221.3250 C   0  0  1  0  0  0  0  0  0  0  0  0
  139.9210   73.5340  222.3350 N   0  0  0  0  0  0  0  0  0  0  0  0
  138.8500   73.8480  220.2320 C   0  0  0  0  0  0  0  0  0  0  0  0
  139.8770   72.9470  219.5780 C   0  0  0  0  0  0  0  0  0  0  0  0
  141.0750   73.8270  219.5470 C   0  0  0  0  0  0  0  0  0  0  0  0
  142.2000   73.9160  218.7640 C   0  0  0  0  0  0  0  0  0  0  0  0
  143.1650   74.8860  219.0080 C   0  0  0  0  0  0  0  0  0  0  0  0
  143.0250   75.7950  220.0500 C   0  0  0  0  0  0  0  0  0  0  0  0
  141.9030   75.7080  220.8340 C   0  0  0  0  0  0  0  0  0  0  0  0
  140.9490   74.7380  220.5800 C   0  0  0  0  0  0  0  0  0  0  0  0
  139.3990   77.3470  219.8350 C   0  0  0  0  0  0  0  0  0  0  0  0
  140.2960   78.5750  219.8960 C   0  0  0  0  0  0  0  0  0  0  0  0
  142.5505   80.5498  219.5466 H   0  0  0  0  0  0  0  0  0  0  0  0
  141.8379   79.9877  217.9965 H   0  0  0  0  0  0  0  0  0  0  0  0
  143.0733   81.2917  217.9965 H   0  0  0  0  0  0  0  0  0  0  0  0
  141.5317   82.8984  218.4403 H   0  0  0  0  0  0  0  0  0  0  0  0
  140.3104   81.6611  217.9683 H   0  0  0  0  0  0  0  0  0  0  0  0
  140.4194   82.4075  223.0469 H   0  0  0  0  0  0  0  0  0  0  0  0
  142.0203   82.3354  224.9690 H   0  0  0  0  0  0  0  0  0  0  0  0
  143.8790   80.6721  224.9858 H   0  0  0  0  0  0  0  0  0  0  0  0
  144.1407   79.0642  223.0872 H   0  0  0  0  0  0  0  0  0  0  0  0
  142.5398   79.1491  221.1853 H   0  0  0  0  0  0  0  0  0  0  0  0
  138.7381   79.9935  220.1729 H   0  0  0  0  0  0  0  0  0  0  0  0
  140.0543   78.7587  222.6222 H   0  0  0  0  0  0  0  0  0  0  0  0
  138.7038   79.9464  222.6339 H   0  0  0  0  0  0  0  0  0  0  0  0
  137.8542   77.6185  222.8433 H   0  0  0  0  0  0  0  0  0  0  0  0
  137.2907   78.3478  221.3341 H   0  0  0  0  0  0  0  0  0  0  0  0
  139.4660   73.7390  223.2510 H   0  0  0  0  0  0  0  0  0  0  0  0
  139.8840   72.5390  222.0520 H   0  0  0  0  0  0  0  0  0  0  0  0
  138.0148   73.2682  220.6518 H   0  0  0  0  0  0  0  0  0  0  0  0
  138.3722   74.5605  219.5434 H   0  0  0  0  0  0  0  0  0  0  0  0
  140.0585   72.0438  220.1791 H   0  0  0  0  0  0  0  0  0  0  0  0
  139.5748   72.5696  218.5899 H   0  0  0  0  0  0  0  0  0  0  0  0
  142.3391   73.2097  217.9323 H   0  0  0  0  0  0  0  0  0  0  0  0
  144.0559   74.9352  218.3646 H   0  0  0  0  0  0  0  0  0  0  0  0
  143.7910   76.5612  220.2402 H   0  0  0  0  0  0  0  0  0  0  0  0
  141.7609   76.4116  221.6675 H   0  0  0  0  0  0  0  0  0  0  0  0
  139.9724   76.5127  219.4046 H   0  0  0  0  0  0  0  0  0  0  0  0
  138.5267   77.6016  219.2152 H   0  0  0  0  0  0  0  0  0  0  0  0
  141.2566   78.3024  220.3576 H   0  0  0  0  0  0  0  0  0  0  0  0
  140.4665   78.9498  218.8760 H   0  0  0  0  0  0  0  0  0  0  0  0
  1  2  1  0
  2  3  1  0
  3  4  2  0
  3  5  1  0
  5  6  1  0
  6  7  2  0
  7  8  1  0
  8  9  2  0
  9 10  1  0
 10 11  2  0
  5 12  1  0
 12 13  1  0
 13 14  1  0
 14 15  1  0
 15 16  1  0
 16 17  2  0
 16 18  1  0
 18 19  1  1
 18 20  1  0
 20 21  1  0
 21 22  1  0
 22 23  2  0
 23 24  1  0
 24 25  2  0
 25 26  1  0
 26 27  2  0
 15 28  1  0
 28 29  1  0
 11  6  1  0
 29 12  1  0
 27 18  1  0
 27 22  1  0
  1 30  1  0
  1 31  1  0
  1 32  1  0
  2 33  1  0
  2 34  1  0
  7 35  1  0
  8 36  1  0
  9 37  1  0
 10 38  1  0
 11 39  1  0
 12 40  1  0
 13 41  1  0
 13 42  1  0
 14 43  1  0
 14 44  1  0
 19 45  1  0
 19 46  1  0
 20 47  1  0
 20 48  1  0
 21 49  1  0
 21 50  1  0
 23 51  1  0
 24 52  1  0
 25 53  1  0
 26 54  1  0
 28 55  1  0
 28 56  1  0
 29 57  1  0
 29 58  1  0
M  END
>  <smiles>  (21) 
CCC(=O)N(c1ccccc1)C1CCN(C(=O)C2(N)CCc3ccccc32)CC1

>  <score_type>  (21) 
oracle

>  <origin>  (21) 
autodockgpu

>  <m_score__min__energy>  (21) 
-8.0700000000000003

>  <m_primary>  (21) 
energy

>  <meeko>  (21) 
{"free_energy": -5.94, "intermolecular_energy": -7.73, "internal_energy": -2.68, "cluster_size": 5, "cluster_id": 4, "rank_in_cluster": 4}

>  <energy>  (21) 
-8.07

>  <cluster_rmsd>  (21) 
0.0

>  <rmsd>  (21) 
269.56

>  <cluster>  (21) 
1

$$$$

     RDKit          3D

 58 61  0  0  1  0  0  0  0  0999 V2000
  146.6900   73.3740  221.5540 C   0  0  0  0  0  0  0  0  0  0  0  0
  145.2330   73.1860  221.1500 C   0  0  0  0  0  0  0  0  0  0  0  0
  145.1500   72.4480  219.8770 C   0  0  0  0  0  0  0  0  0  0  0  0
  146.0420   72.6390  218.9830 O   0  0  0  0  0  0  0  0  0  0  0  0
  144.1380   71.5150  219.5410 N   0  0  0  0  0  0  0  0  0  0  0  0
  144.5950   70.2170  219.1160 C   0  0  0  0  0  0  0  0  0  0  0  0
  145.1110   70.0190  217.8480 C   0  0  0  0  0  0  0  0  0  0  0  0
  145.5350   68.7400  217.4870 C   0  0  0  0  0  0  0  0  0  0  0  0
  145.4370   67.6830  218.3950 C   0  0  0  0  0  0  0  0  0  0  0  0
  144.9120   67.8990  219.6710 C   0  0  0  0  0  0  0  0  0  0  0  0
  144.4940   69.1710  220.0210 C   0  0  0  0  0  0  0  0  0  0  0  0
  142.7300   71.7530  219.5950 C   0  0  0  0  0  0  0  0  0  0  0  0
  142.4360   72.9890  220.4160 C   0  0  0  0  0  0  0  0  0  0  0  0
  140.9510   73.2790  220.3920 C   0  0  0  0  0  0  0  0  0  0  0  0
  140.3010   72.0830  220.9920 N   0  0  0  0  0  0  0  0  0  0  0  0
  139.5580   72.3270  222.1550 C   0  0  0  0  0  0  0  0  0  0  0  0
  139.5420   73.5670  222.5340 O   0  0  0  0  0  0  0  0  0  0  0  0
  138.8100   71.4050  222.9880 C   0  0  1  0  0  0  0  0  0  0  0  0
  137.5740   71.8890  223.4870 N   0  0  0  0  0  0  0  0  0  0  0  0
  138.5440   70.1210  222.2220 C   0  0  0  0  0  0  0  0  0  0  0  0
  138.2520   69.1560  223.3520 C   0  0  0  0  0  0  0  0  0  0  0  0
  139.2840   69.5400  224.3520 C   0  0  0  0  0  0  0  0  0  0  0  0
  139.9360   68.8980  225.3770 C   0  0  0  0  0  0  0  0  0  0  0  0
  140.8780   69.5640  226.1510 C   0  0  0  0  0  0  0  0  0  0  0  0
  141.1910   70.8970  225.9160 C   0  0  0  0  0  0  0  0  0  0  0  0
  140.5420   71.5400  224.8930 C   0  0  0  0  0  0  0  0  0  0  0  0
  139.6060   70.8660  224.1290 C   0  0  0  0  0  0  0  0  0  0  0  0
  140.5210   70.8590  220.3080 C   0  0  0  0  0  0  0  0  0  0  0  0
  141.9990   70.5400  220.1380 C   0  0  0  0  0  0  0  0  0  0  0  0
  146.7679   73.3841  222.6512 H   0  0  0  0  0  0  0  0  0  0  0  0
  147.2919   72.5461  221.1512 H   0  0  0  0  0  0  0  0  0  0  0  0
  147.0621   74.3276  221.1512 H   0  0  0  0  0  0  0  0  0  0  0  0
  144.7087   72.6193  221.9336 H   0  0  0  0  0  0  0  0  0  0  0  0
  144.7647   74.1734  221.0242 H   0  0  0  0  0  0  0  0  0  0  0  0
  145.1856   70.8551  217.1371 H   0  0  0  0  0  0  0  0  0  0  0  0
  145.9483   68.5630  216.4831 H   0  0  0  0  0  0  0  0  0  0  0  0
  145.7744   66.6773  218.1041 H   0  0  0  0  0  0  0  0  0  0  0  0
  144.8318   67.0690  220.3884 H   0  0  0  0  0  0  0  0  0  0  0  0
  144.0791   69.3535  221.0232 H   0  0  0  0  0  0  0  0  0  0  0  0
  142.3640   71.9297  218.5728 H   0  0  0  0  0  0  0  0  0  0  0  0
  142.7589   72.8230  221.4543 H   0  0  0  0  0  0  0  0  0  0  0  0
  142.9802   73.8453  219.9910 H   0  0  0  0  0  0  0  0  0  0  0  0
  140.7254   74.1772  220.9856 H   0  0  0  0  0  0  0  0  0  0  0  0
  140.5896   73.4698  219.3707 H   0  0  0  0  0  0  0  0  0  0  0  0
  137.4750   72.9270  223.4720 H   0  0  0  0  0  0  0  0  0  0  0  0
  136.7210   71.3740  223.2080 H   0  0  0  0  0  0  0  0  0  0  0  0
  137.6806   70.2255  221.5485 H   0  0  0  0  0  0  0  0  0  0  0  0
  139.3696   69.8091  221.5654 H   0  0  0  0  0  0  0  0  0  0  0  0
  137.2362   69.2993  223.7491 H   0  0  0  0  0  0  0  0  0  0  0  0
  138.2900   68.0973  223.0557 H   0  0  0  0  0  0  0  0  0  0  0  0
  139.7091   67.8425  225.5876 H   0  0  0  0  0  0  0  0  0  0  0  0
  141.3855   69.0258  226.9651 H   0  0  0  0  0  0  0  0  0  0  0  0
  141.9368   71.4210  226.5318 H   0  0  0  0  0  0  0  0  0  0  0  0
  140.7665   72.5954  224.6792 H   0  0  0  0  0  0  0  0  0  0  0  0
  140.0489   70.0464  220.8796 H   0  0  0  0  0  0  0  0  0  0  0  0
  140.0839   70.9561  219.3033 H   0  0  0  0  0  0  0  0  0  0  0  0
  142.4267   70.2626  221.1127 H   0  0  0  0  0  0  0  0  0  0  0  0
  142.1101   69.7041  219.4316 H   0  0  0  0  0  0  0  0  0  0  0  0
  1  2  1  0
  2  3  1  0
  3  4  2  0
  3  5  1  0
  5  6  1  0
  6  7  2  0
  7  8  1  0
  8  9  2  0
  9 10  1  0
 10 11  2  0
  5 12  1  0
 12 13  1  0
 13 14  1  0
 14 15  1  0
 15 16  1  0
 16 17  2  0
 16 18  1  0
 18 19  1  1
 18 20  1  0
 20 21  1  0
 21 22  1  0
 22 23  2  0
 23 24  1  0
 24 25  2  0
 25 26  1  0
 26 27  2  0
 15 28  1  0
 28 29  1  0
 11  6  1  0
 29 12  1  0
 27 18  1  0
 27 22  1  0
  1 30  1  0
  1 31  1  0
  1 32  1  0
  2 33  1  0
  2 34  1  0
  7 35  1  0
  8 36  1  0
  9 37  1  0
 10 38  1  0
 11 39  1  0
 12 40  1  0
 13 41  1  0
 13 42  1  0
 14 43  1  0
 14 44  1  0
 19 45  1  0
 19 46  1  0
 20 47  1  0
 20 48  1  0
 21 49  1  0
 21 50  1  0
 23 51  1  0
 24 52  1  0
 25 53  1  0
 26 54  1  0
 28 55  1  0
 28 56  1  0
 29 57  1  0
 29 58  1  0
M  END
>  <smiles>  (22) 
CCC(=O)N(c1ccccc1)C1CCN(C(=O)C2(N)CCc3ccccc32)CC1

>  <score_type>  (22) 
oracle

>  <origin>  (22) 
autodockgpu

>  <m_score__min__energy>  (22) 
-8.0700000000000003

>  <m_primary>  (22) 
energy

>  <meeko>  (22) 
{"free_energy": -7.85, "intermolecular_energy": -9.64, "internal_energy": -1.39, "cluster_size": 6, "cluster_id": 1, "rank_in_cluster": 5}

>  <energy>  (22) 
-7.91

>  <cluster_rmsd>  (22) 
0.26

>  <rmsd>  (22) 
269.5

>  <cluster>  (22) 
1

$$$$

     RDKit          3D

 58 61  0  0  1  0  0  0  0  0999 V2000
  142.5770   81.2630  223.9440 C   0  0  0  0  0  0  0  0  0  0  0  0
  142.5790   80.0870  222.9750 C   0  0  0  0  0  0  0  0  0  0  0  0
  141.6580   79.0380  223.4460 C   0  0  0  0  0  0  0  0  0  0  0  0
  141.8500   78.5040  224.5910 O   0  0  0  0  0  0  0  0  0  0  0  0
  140.5420   78.5510  222.7230 N   0  0  0  0  0  0  0  0  0  0  0  0
  139.2710   79.1420  223.0540 C   0  0  0  0  0  0  0  0  0  0  0  0
  139.1910   80.2760  223.8420 C   0  0  0  0  0  0  0  0  0  0  0  0
  137.9330   80.8040  224.1340 C   0  0  0  0  0  0  0  0  0  0  0  0
  136.7790   80.1930  223.6370 C   0  0  0  0  0  0  0  0  0  0  0  0
  136.8770   79.0480  222.8440 C   0  0  0  0  0  0  0  0  0  0  0  0
  138.1290   78.5300  222.5590 C   0  0  0  0  0  0  0  0  0  0  0  0
  140.5760   77.5440  221.7090 C   0  0  0  0  0  0  0  0  0  0  0  0
  140.5020   76.1670  222.3320 C   0  0  0  0  0  0  0  0  0  0  0  0
  140.4510   75.1150  221.2450 C   0  0  0  0  0  0  0  0  0  0  0  0
  141.7140   75.2770  220.4750 N   0  0  0  0  0  0  0  0  0  0  0  0
  142.5550   74.1560  220.4640 C   0  0  0  0  0  0  0  0  0  0  0  0
  142.1030   73.1370  221.1270 O   0  0  0  0  0  0  0  0  0  0  0  0
  143.8440   73.9700  219.8270 C   0  0  1  0  0  0  0  0  0  0  0  0
  144.0980   74.7910  218.6990 N   0  0  0  0  0  0  0  0  0  0  0  0
  144.9540   74.1950  220.8390 C   0  0  0  0  0  0  0  0  0  0  0  0
  146.1120   73.4810  220.1730 C   0  0  0  0  0  0  0  0  0  0  0  0
  145.4520   72.2540  219.6540 C   0  0  0  0  0  0  0  0  0  0  0  0
  145.8630   70.9780  219.3540 C   0  0  0  0  0  0  0  0  0  0  0  0
  144.9660   70.0340  218.8690 C   0  0  0  0  0  0  0  0  0  0  0  0
  143.6270   70.3490  218.6720 C   0  0  0  0  0  0  0  0  0  0  0  0
  143.2130   71.6220  218.9720 C   0  0  0  0  0  0  0  0  0  0  0  0
  144.1170   72.5520  219.4540 C   0  0  0  0  0  0  0  0  0  0  0  0
  141.8950   76.5400  219.8540 C   0  0  0  0  0  0  0  0  0  0  0  0
  141.8110   77.6950  220.8420 C   0  0  0  0  0  0  0  0  0  0  0  0
  142.5776   80.8865  224.9776 H   0  0  0  0  0  0  0  0  0  0  0  0
  143.4741   81.8773  223.7770 H   0  0  0  0  0  0  0  0  0  0  0  0
  141.6778   81.8742  223.7770 H   0  0  0  0  0  0  0  0  0  0  0  0
  142.2572   80.4339  221.9820 H   0  0  0  0  0  0  0  0  0  0  0  0
  143.5960   79.6719  222.9165 H   0  0  0  0  0  0  0  0  0  0  0  0
  140.1026   80.7529  224.2313 H   0  0  0  0  0  0  0  0  0  0  0  0
  137.8493   81.7057  224.7585 H   0  0  0  0  0  0  0  0  0  0  0  0
  135.7906   80.6152  223.8711 H   0  0  0  0  0  0  0  0  0  0  0  0
  135.9711   78.5636  222.4507 H   0  0  0  0  0  0  0  0  0  0  0  0
  138.2185   77.6277  221.9363 H   0  0  0  0  0  0  0  0  0  0  0  0
  139.6978   77.6695  221.0586 H   0  0  0  0  0  0  0  0  0  0  0  0
  141.3905   76.0016  222.9590 H   0  0  0  0  0  0  0  0  0  0  0  0
  139.5944   76.0958  222.9494 H   0  0  0  0  0  0  0  0  0  0  0  0
  140.3961   74.1088  221.6861 H   0  0  0  0  0  0  0  0  0  0  0  0
  139.5646   75.2330  220.6043 H   0  0  0  0  0  0  0  0  0  0  0  0
  144.0310   75.8160  218.8830 H   0  0  0  0  0  0  0  0  0  0  0  0
  144.8860   74.5180  218.0860 H   0  0  0  0  0  0  0  0  0  0  0  0
  145.1651   75.2661  220.9736 H   0  0  0  0  0  0  0  0  0  0  0  0
  144.7219   73.8307  221.8506 H   0  0  0  0  0  0  0  0  0  0  0  0
  146.5380   74.0829  219.3567 H   0  0  0  0  0  0  0  0  0  0  0  0
  146.9595   73.2816  220.8453 H   0  0  0  0  0  0  0  0  0  0  0  0
  146.9172   70.6996  219.4998 H   0  0  0  0  0  0  0  0  0  0  0  0
  145.3222   69.0195  218.6369 H   0  0  0  0  0  0  0  0  0  0  0  0
  142.9198   69.5996  218.2868 H   0  0  0  0  0  0  0  0  0  0  0  0
  142.1595   71.9042  218.8290 H   0  0  0  0  0  0  0  0  0  0  0  0
  142.8846   76.5581  219.3740 H   0  0  0  0  0  0  0  0  0  0  0  0
  141.0860   76.6696  219.1201 H   0  0  0  0  0  0  0  0  0  0  0  0
  142.7069   77.6949  221.4802 H   0  0  0  0  0  0  0  0  0  0  0  0
  141.7500   78.6427  220.2868 H   0  0  0  0  0  0  0  0  0  0  0  0
  1  2  1  0
  2  3  1  0
  3  4  2  0
  3  5  1  0
  5  6  1  0
  6  7  2  0
  7  8  1  0
  8  9  2  0
  9 10  1  0
 10 11  2  0
  5 12  1  0
 12 13  1  0
 13 14  1  0
 14 15  1  0
 15 16  1  0
 16 17  2  0
 16 18  1  0
 18 19  1  6
 18 20  1  0
 20 21  1  0
 21 22  1  0
 22 23  2  0
 23 24  1  0
 24 25  2  0
 25 26  1  0
 26 27  2  0
 15 28  1  0
 28 29  1  0
 11  6  1  0
 29 12  1  0
 27 18  1  0
 27 22  1  0
  1 30  1  0
  1 31  1  0
  1 32  1  0
  2 33  1  0
  2 34  1  0
  7 35  1  0
  8 36  1  0
  9 37  1  0
 10 38  1  0
 11 39  1  0
 12 40  1  0
 13 41  1  0
 13 42  1  0
 14 43  1  0
 14 44  1  0
 19 45  1  0
 19 46  1  0
 20 47  1  0
 20 48  1  0
 21 49  1  0
 21 50  1  0
 23 51  1  0
 24 52  1  0
 25 53  1  0
 26 54  1  0
 28 55  1  0
 28 56  1  0
 29 57  1  0
 29 58  1  0
M  END
>  <smiles>  (23) 
CCC(=O)N(c1ccccc1)C1CCN(C(=O)C2(N)CCc3ccccc32)CC1

>  <score_type>  (23) 
oracle

>  <origin>  (23) 
autodockgpu

>  <m_score__min__energy>  (23) 
-8.0700000000000003

>  <m_primary>  (23) 
energy

>  <meeko>  (23) 
{"free_energy": -7.51, "intermolecular_energy": -9.3, "internal_energy": -1.49, "cluster_size": 4, "cluster_id": 2, "rank_in_cluster": 1}

>  <energy>  (23) 
-7.9

>  <cluster_rmsd>  (23) 
0.54

>  <rmsd>  (23) 
269.52

>  <cluster>  (23) 
1

$$$$

     RDKit          3D

 58 61  0  0  1  0  0  0  0  0999 V2000
  142.5740   80.4260  218.2090 C   0  0  0  0  0  0  0  0  0  0  0  0
  141.3780   81.3690  218.2220 C   0  0  0  0  0  0  0  0  0  0  0  0
  140.8950   81.5570  219.6020 C   0  0  0  0  0  0  0  0  0  0  0  0
  140.6140   82.7340  220.0110 O   0  0  0  0  0  0  0  0  0  0  0  0
  140.7080   80.5190  220.5470 N   0  0  0  0  0  0  0  0  0  0  0  0
  141.4580   80.6380  221.7710 C   0  0  0  0  0  0  0  0  0  0  0  0
  141.1110   81.5660  222.7360 C   0  0  0  0  0  0  0  0  0  0  0  0
  141.8740   81.6400  223.9020 C   0  0  0  0  0  0  0  0  0  0  0  0
  142.9680   80.7900  224.0830 C   0  0  0  0  0  0  0  0  0  0  0  0
  143.3050   79.8600  223.0980 C   0  0  0  0  0  0  0  0  0  0  0  0
  142.5430   79.7930  221.9450 C   0  0  0  0  0  0  0  0  0  0  0  0
  139.8480   79.3890  220.3880 C   0  0  0  0  0  0  0  0  0  0  0  0
  139.3290   78.9280  221.7320 C   0  0  0  0  0  0  0  0  0  0  0  0
  138.3530   77.7880  221.5420 C   0  0  0  0  0  0  0  0  0  0  0  0
  139.1280   76.7050  220.8790 N   0  0  0  0  0  0  0  0  0  0  0  0
  139.2150   75.5050  221.5970 C   0  0  0  0  0  0  0  0  0  0  0  0
  138.5970   75.5150  222.7380 O   0  0  0  0  0  0  0  0  0  0  0  0
  139.8860   74.2660  221.2560 C   0  0  1  0  0  0  0  0  0  0  0  0
  140.0790   73.3550  222.3250 N   0  0  0  0  0  0  0  0  0  0  0  0
  139.1190   73.5530  220.1560 C   0  0  0  0  0  0  0  0  0  0  0  0
  140.1840   72.6270  219.6040 C   0  0  0  0  0  0  0  0  0  0  0  0
  141.3780   73.5140  219.5910 C   0  0  0  0  0  0  0  0  0  0  0  0
  142.5430   73.5720  218.8650 C   0  0  0  0  0  0  0  0  0  0  0  0
  143.4880   74.5590  219.1090 C   0  0  0  0  0  0  0  0  0  0  0  0
  143.2890   75.5190  220.0940 C   0  0  0  0  0  0  0  0  0  0  0  0
  142.1270   75.4640  220.8210 C   0  0  0  0  0  0  0  0  0  0  0  0
  141.1930   74.4750  220.5680 C   0  0  0  0  0  0  0  0  0  0  0  0
  139.6740   77.0320  219.6100 C   0  0  0  0  0  0  0  0  0  0  0  0
  140.5610   78.2680  219.6550 C   0  0  0  0  0  0  0  0  0  0  0  0
  142.8689   80.1935  219.2429 H   0  0  0  0  0  0  0  0  0  0  0  0
  142.3024   79.4964  217.6873 H   0  0  0  0  0  0  0  0  0  0  0  0
  143.4145   80.9070  217.6873 H   0  0  0  0  0  0  0  0  0  0  0  0
  141.6777   82.3422  217.8058 H   0  0  0  0  0  0  0  0  0  0  0  0
  140.5706   80.9342  217.6145 H   0  0  0  0  0  0  0  0  0  0  0  0
  140.2494   82.2335  222.5871 H   0  0  0  0  0  0  0  0  0  0  0  0
  141.6131   82.3706  224.6819 H   0  0  0  0  0  0  0  0  0  0  0  0
  143.5655   80.8538  225.0044 H   0  0  0  0  0  0  0  0  0  0  0  0
  144.1655   79.1889  223.2367 H   0  0  0  0  0  0  0  0  0  0  0  0
  142.7998   79.0647  221.1616 H   0  0  0  0  0  0  0  0  0  0  0  0
  138.9846   79.6885  219.7758 H   0  0  0  0  0  0  0  0  0  0  0  0
  140.1718   78.5875  222.3515 H   0  0  0  0  0  0  0  0  0  0  0  0
  138.8169   79.7648  222.2295 H   0  0  0  0  0  0  0  0  0  0  0  0
  137.9686   77.4454  222.5141 H   0  0  0  0  0  0  0  0  0  0  0  0
  137.4830   78.0924  220.9416 H   0  0  0  0  0  0  0  0  0  0  0  0
  139.5410   73.5790  223.1900 H   0  0  0  0  0  0  0  0  0  0  0  0
  140.1040   72.3480  222.0860 H   0  0  0  0  0  0  0  0  0  0  0  0
  138.2655   72.9892  220.5605 H   0  0  0  0  0  0  0  0  0  0  0  0
  138.6749   74.2257  219.4075 H   0  0  0  0  0  0  0  0  0  0  0  0
  140.3379   71.7571  220.2595 H   0  0  0  0  0  0  0  0  0  0  0  0
  139.9365   72.1971  218.6222 H   0  0  0  0  0  0  0  0  0  0  0  0
  142.7296   72.8254  218.0790 H   0  0  0  0  0  0  0  0  0  0  0  0
  144.4114   74.5817  218.5117 H   0  0  0  0  0  0  0  0  0  0  0  0
  144.0405   76.2993  220.2849 H   0  0  0  0  0  0  0  0  0  0  0  0
  141.9371   76.2088  221.6079 H   0  0  0  0  0  0  0  0  0  0  0  0
  140.2735   76.1810  219.2546 H   0  0  0  0  0  0  0  0  0  0  0  0
  138.8351   77.2486  218.9323 H   0  0  0  0  0  0  0  0  0  0  0  0
  141.4969   78.0263  220.1800 H   0  0  0  0  0  0  0  0  0  0  0  0
  140.7838   78.5914  218.6275 H   0  0  0  0  0  0  0  0  0  0  0  0
  1  2  1  0
  2  3  1  0
  3  4  2  0
  3  5  1  0
  5  6  1  0
  6  7  2  0
  7  8  1  0
  8  9  2  0
  9 10  1  0
 10 11  2  0
  5 12  1  0
 12 13  1  0
 13 14  1  0
 14 15  1  0
 15 16  1  0
 16 17  2  0
 16 18  1  0
 18 19  1  1
 18 20  1  0
 20 21  1  0
 21 22  1  0
 22 23  2  0
 23 24  1  0
 24 25  2  0
 25 26  1  0
 26 27  2  0
 15 28  1  0
 28 29  1  0
 11  6  1  0
 29 12  1  0
 27 18  1  0
 27 22  1  0
  1 30  1  0
  1 31  1  0
  1 32  1  0
  2 33  1  0
  2 34  1  0
  7 35  1  0
  8 36  1  0
  9 37  1  0
 10 38  1  0
 11 39  1  0
 12 40  1  0
 13 41  1  0
 13 42  1  0
 14 43  1  0
 14 44  1  0
 19 45  1  0
 19 46  1  0
 20 47  1  0
 20 48  1  0
 21 49  1  0
 21 50  1  0
 23 51  1  0
 24 52  1  0
 25 53  1  0
 26 54  1  0
 28 55  1  0
 28 56  1  0
 29 57  1  0
 29 58  1  0
M  END
>  <smiles>  (24) 
CCC(=O)N(c1ccccc1)C1CCN(C(=O)C2(N)CCc3ccccc32)CC1

>  <score_type>  (24) 
oracle

>  <origin>  (24) 
autodockgpu

>  <m_score__min__energy>  (24) 
-8.0700000000000003

>  <m_primary>  (24) 
energy

>  <meeko>  (24) 
{"free_energy": -6.07, "intermolecular_energy": -7.86, "internal_energy": -2.65, "cluster_size": 5, "cluster_id": 4, "rank_in_cluster": 2}

>  <energy>  (24) 
-7.86

>  <cluster_rmsd>  (24) 
0.56

>  <rmsd>  (24) 
269.47

>  <cluster>  (24) 
1

$$$$

     RDKit          3D

 58 61  0  0  1  0  0  0  0  0999 V2000
  141.8520   81.1700  222.0830 C   0  0  0  0  0  0  0  0  0  0  0  0
  142.6050   80.1020  222.8660 C   0  0  0  0  0  0  0  0  0  0  0  0
  141.6610   79.1100  223.4110 C   0  0  0  0  0  0  0  0  0  0  0  0
  141.8400   78.6600  224.5930 O   0  0  0  0  0  0  0  0  0  0  0  0
  140.5360   78.5940  222.7230 N   0  0  0  0  0  0  0  0  0  0  0  0
  139.2620   79.1580  223.0860 C   0  0  0  0  0  0  0  0  0  0  0  0
  139.1790   80.2980  223.8650 C   0  0  0  0  0  0  0  0  0  0  0  0
  137.9180   80.7990  224.1890 C   0  0  0  0  0  0  0  0  0  0  0  0
  136.7650   80.1560  223.7330 C   0  0  0  0  0  0  0  0  0  0  0  0
  136.8660   79.0060  222.9480 C   0  0  0  0  0  0  0  0  0  0  0  0
  138.1210   78.5150  222.6300 C   0  0  0  0  0  0  0  0  0  0  0  0
  140.5650   77.5810  221.7140 C   0  0  0  0  0  0  0  0  0  0  0  0
  140.4930   76.2080  222.3440 C   0  0  0  0  0  0  0  0  0  0  0  0
  140.4360   75.1500  221.2630 C   0  0  0  0  0  0  0  0  0  0  0  0
  141.6950   75.3070  220.4850 N   0  0  0  0  0  0  0  0  0  0  0  0
  142.5350   74.1860  220.4770 C   0  0  0  0  0  0  0  0  0  0  0  0
  142.0860   73.1700  221.1470 O   0  0  0  0  0  0  0  0  0  0  0  0
  143.8210   73.9960  219.8340 C   0  0  1  0  0  0  0  0  0  0  0  0
  144.0770   74.8230  218.7120 N   0  0  0  0  0  0  0  0  0  0  0  0
  144.9360   74.2050  220.8440 C   0  0  0  0  0  0  0  0  0  0  0  0
  146.0870   73.4880  220.1690 C   0  0  0  0  0  0  0  0  0  0  0  0
  145.4170   72.2690  219.6430 C   0  0  0  0  0  0  0  0  0  0  0  0
  145.8180   70.9920  219.3320 C   0  0  0  0  0  0  0  0  0  0  0  0
  144.9130   70.0590  218.8440 C   0  0  0  0  0  0  0  0  0  0  0  0
  143.5750   70.3840  218.6530 C   0  0  0  0  0  0  0  0  0  0  0  0
  143.1710   71.6580  218.9630 C   0  0  0  0  0  0  0  0  0  0  0  0
  144.0830   72.5780  219.4490 C   0  0  0  0  0  0  0  0  0  0  0  0
  141.8740   76.5670  219.8580 C   0  0  0  0  0  0  0  0  0  0  0  0
  141.7960   77.7270  220.8400 C   0  0  0  0  0  0  0  0  0  0  0  0
  141.3636   81.8627  222.7841 H   0  0  0  0  0  0  0  0  0  0  0  0
  142.5584   81.7268  221.4497 H   0  0  0  0  0  0  0  0  0  0  0  0
  141.0903   80.6917  221.4497 H   0  0  0  0  0  0  0  0  0  0  0  0
  143.3178   79.5965  222.1979 H   0  0  0  0  0  0  0  0  0  0  0  0
  143.1437   80.5796  223.6977 H   0  0  0  0  0  0  0  0  0  0  0  0
  140.0902   80.8001  224.2223 H   0  0  0  0  0  0  0  0  0  0  0  0
  137.8313   81.7050  224.8067 H   0  0  0  0  0  0  0  0  0  0  0  0
  135.7743   80.5570  223.9932 H   0  0  0  0  0  0  0  0  0  0  0  0
  135.9604   78.4966  222.5868 H   0  0  0  0  0  0  0  0  0  0  0  0
  138.2135   77.6097  222.0121 H   0  0  0  0  0  0  0  0  0  0  0  0
  139.6837   77.7033  221.0671 H   0  0  0  0  0  0  0  0  0  0  0  0
  141.3844   76.0452  222.9676 H   0  0  0  0  0  0  0  0  0  0  0  0
  139.5881   76.1408  222.9659 H   0  0  0  0  0  0  0  0  0  0  0  0
  140.3831   74.1463  221.7100 H   0  0  0  0  0  0  0  0  0  0  0  0
  139.5463   75.2650  220.6264 H   0  0  0  0  0  0  0  0  0  0  0  0
  144.0320   75.8470  218.9060 H   0  0  0  0  0  0  0  0  0  0  0  0
  144.8530   74.5410  218.0870 H   0  0  0  0  0  0  0  0  0  0  0  0
  145.1552   75.2735  220.9863 H   0  0  0  0  0  0  0  0  0  0  0  0
  144.7045   73.8342  221.8534 H   0  0  0  0  0  0  0  0  0  0  0  0
  146.5145   74.0929  219.3558 H   0  0  0  0  0  0  0  0  0  0  0  0
  146.9352   73.2779  220.8372 H   0  0  0  0  0  0  0  0  0  0  0  0
  146.8707   70.7049  219.4716 H   0  0  0  0  0  0  0  0  0  0  0  0
  145.2613   69.0436  218.6040 H   0  0  0  0  0  0  0  0  0  0  0  0
  142.8616   69.6421  218.2650 H   0  0  0  0  0  0  0  0  0  0  0  0
  142.1192   71.9488  218.8248 H   0  0  0  0  0  0  0  0  0  0  0  0
  142.8613   76.5819  219.3732 H   0  0  0  0  0  0  0  0  0  0  0  0
  141.0609   76.6938  219.1281 H   0  0  0  0  0  0  0  0  0  0  0  0
  142.6951   77.7296  221.4737 H   0  0  0  0  0  0  0  0  0  0  0  0
  141.7331   78.6719  220.2804 H   0  0  0  0  0  0  0  0  0  0  0  0
  1  2  1  0
  2  3  1  0
  3  4  2  0
  3  5  1  0
  5  6  1  0
  6  7  2  0
  7  8  1  0
  8  9  2  0
  9 10  1  0
 10 11  2  0
  5 12  1  0
 12 13  1  0
 13 14  1  0
 14 15  1  0
 15 16  1  0
 16 17  2  0
 16 18  1  0
 18 19  1  6
 18 20  1  0
 20 21  1  0
 21 22  1  0
 22 23  2  0
 23 24  1  0
 24 25  2  0
 25 26  1  0
 26 27  2  0
 15 28  1  0
 28 29  1  0
 11  6  1  0
 29 12  1  0
 27 18  1  0
 27 22  1  0
  1 30  1  0
  1 31  1  0
  1 32  1  0
  2 33  1  0
  2 34  1  0
  7 35  1  0
  8 36  1  0
  9 37  1  0
 10 38  1  0
 11 39  1  0
 12 40  1  0
 13 41  1  0
 13 42  1  0
 14 43  1  0
 14 44  1  0
 19 45  1  0
 19 46  1  0
 20 47  1  0
 20 48  1  0
 21 49  1  0
 21 50  1  0
 23 51  1  0
 24 52  1  0
 25 53  1  0
 26 54  1  0
 28 55  1  0
 28 56  1  0
 29 57  1  0
 29 58  1  0
M  END
>  <smiles>  (25) 
CCC(=O)N(c1ccccc1)C1CCN(C(=O)C2(N)CCc3ccccc32)CC1

>  <score_type>  (25) 
oracle

>  <origin>  (25) 
autodockgpu

>  <m_score__min__energy>  (25) 
-8.0700000000000003

>  <m_primary>  (25) 
energy

>  <meeko>  (25) 
{"free_energy": -7.44, "intermolecular_energy": -9.23, "internal_energy": -1.51, "cluster_size": 4, "cluster_id": 2, "rank_in_cluster": 3}

>  <energy>  (25) 
-7.85

>  <cluster_rmsd>  (25) 
0.53

>  <rmsd>  (25) 
269.47

>  <cluster>  (25) 
1

$$$$

     RDKit          3D

 58 61  0  0  1  0  0  0  0  0999 V2000
  145.6640   74.1540  220.8510 C   0  0  0  0  0  0  0  0  0  0  0  0
  145.7880   72.6360  220.8610 C   0  0  0  0  0  0  0  0  0  0  0  0
  145.3370   72.0810  219.5720 C   0  0  0  0  0  0  0  0  0  0  0  0
  145.9440   72.4170  218.5000 O   0  0  0  0  0  0  0  0  0  0  0  0
  144.2570   71.1800  219.4080 N   0  0  0  0  0  0  0  0  0  0  0  0
  144.6130   69.8230  219.0820 C   0  0  0  0  0  0  0  0  0  0  0  0
  144.5930   68.8270  220.0400 C   0  0  0  0  0  0  0  0  0  0  0  0
  144.9500   67.5300  219.6700 C   0  0  0  0  0  0  0  0  0  0  0  0
  145.3210   67.2510  218.3530 C   0  0  0  0  0  0  0  0  0  0  0  0
  145.3380   68.2680  217.3970 C   0  0  0  0  0  0  0  0  0  0  0  0
  144.9820   69.5520  217.7720 C   0  0  0  0  0  0  0  0  0  0  0  0
  142.8710   71.5020  219.5410 C   0  0  0  0  0  0  0  0  0  0  0  0
  142.6970   72.7310  220.4060 C   0  0  0  0  0  0  0  0  0  0  0  0
  141.2340   73.1120  220.4670 C   0  0  0  0  0  0  0  0  0  0  0  0
  140.5420   71.9410  221.0710 N   0  0  0  0  0  0  0  0  0  0  0  0
  139.8750   72.1980  222.2760 C   0  0  0  0  0  0  0  0  0  0  0  0
  139.9550   73.4250  222.6860 O   0  0  0  0  0  0  0  0  0  0  0  0
  139.1140   71.3000  223.1240 C   0  0  1  0  0  0  0  0  0  0  0  0
  137.8370   71.7670  223.5270 N   0  0  0  0  0  0  0  0  0  0  0  0
  138.9330   69.9640  222.4250 C   0  0  0  0  0  0  0  0  0  0  0  0
  138.6120   69.0580  223.5960 C   0  0  0  0  0  0  0  0  0  0  0  0
  139.5740   69.5380  224.6230 C   0  0  0  0  0  0  0  0  0  0  0  0
  140.1910   68.9830  225.7180 C   0  0  0  0  0  0  0  0  0  0  0  0
  141.0670   69.7260  226.4980 C   0  0  0  0  0  0  0  0  0  0  0  0
  141.3470   71.0540  226.1980 C   0  0  0  0  0  0  0  0  0  0  0  0
  140.7340   71.6110  225.1050 C   0  0  0  0  0  0  0  0  0  0  0  0
  139.8640   70.8590  224.3360 C   0  0  0  0  0  0  0  0  0  0  0  0
  140.6490   70.7260  220.3450 C   0  0  0  0  0  0  0  0  0  0  0  0
  142.0940   70.3220  220.0910 C   0  0  0  0  0  0  0  0  0  0  0  0
  145.6336   74.5262  221.8857 H   0  0  0  0  0  0  0  0  0  0  0  0
  146.5296   74.5892  220.3301 H   0  0  0  0  0  0  0  0  0  0  0  0
  144.7393   74.4429  220.3301 H   0  0  0  0  0  0  0  0  0  0  0  0
  146.8390   72.3582  221.0286 H   0  0  0  0  0  0  0  0  0  0  0  0
  145.1595   72.2294  221.6670 H   0  0  0  0  0  0  0  0  0  0  0  0
  144.3007   69.0529  221.0761 H   0  0  0  0  0  0  0  0  0  0  0  0
  144.9392   66.7241  220.4186 H   0  0  0  0  0  0  0  0  0  0  0  0
  145.6009   66.2261  218.0679 H   0  0  0  0  0  0  0  0  0  0  0  0
  145.6306   68.0518  216.3589 H   0  0  0  0  0  0  0  0  0  0  0  0
  144.9916   70.3618  217.0277 H   0  0  0  0  0  0  0  0  0  0  0  0
  142.4654   71.7286  218.5440 H   0  0  0  0  0  0  0  0  0  0  0  0
  143.0613   72.5172  221.4217 H   0  0  0  0  0  0  0  0  0  0  0  0
  143.2714   73.5636  219.9737 H   0  0  0  0  0  0  0  0  0  0  0  0
  141.0954   74.0054  221.0935 H   0  0  0  0  0  0  0  0  0  0  0  0
  140.8336   73.3531  219.4712 H   0  0  0  0  0  0  0  0  0  0  0  0
  137.4850   71.3570  224.4190 H   0  0  0  0  0  0  0  0  0  0  0  0
  137.6530   72.7800  223.4210 H   0  0  0  0  0  0  0  0  0  0  0  0
  138.1046   69.9966  221.7021 H   0  0  0  0  0  0  0  0  0  0  0  0
  139.8028   69.6438  221.8326 H   0  0  0  0  0  0  0  0  0  0  0  0
  137.5719   69.1876  223.9296 H   0  0  0  0  0  0  0  0  0  0  0  0
  138.7015   67.9857  223.3678 H   0  0  0  0  0  0  0  0  0  0  0  0
  139.9879   67.9343  225.9807 H   0  0  0  0  0  0  0  0  0  0  0  0
  141.5477   69.2555  227.3684 H   0  0  0  0  0  0  0  0  0  0  0  0
  142.0398   71.6409  226.8190 H   0  0  0  0  0  0  0  0  0  0  0  0
  140.9347   72.6593  224.8389 H   0  0  0  0  0  0  0  0  0  0  0  0
  140.1556   69.9278  220.9191 H   0  0  0  0  0  0  0  0  0  0  0  0
  140.1686   70.8784  219.3672 H   0  0  0  0  0  0  0  0  0  0  0  0
  142.5518   69.9921  221.0353 H   0  0  0  0  0  0  0  0  0  0  0  0
  142.1171   69.5008  219.3596 H   0  0  0  0  0  0  0  0  0  0  0  0
  1  2  1  0
  2  3  1  0
  3  4  2  0
  3  5  1  0
  5  6  1  0
  6  7  2  0
  7  8  1  0
  8  9  2  0
  9 10  1  0
 10 11  2  0
  5 12  1  0
 12 13  1  0
 13 14  1  0
 14 15  1  0
 15 16  1  0
 16 17  2  0
 16 18  1  0
 18 19  1  1
 18 20  1  0
 20 21  1  0
 21 22  1  0
 22 23  2  0
 23 24  1  0
 24 25  2  0
 25 26  1  0
 26 27  2  0
 15 28  1  0
 28 29  1  0
 11  6  1  0
 29 12  1  0
 27 18  1  0
 27 22  1  0
  1 30  1  0
  1 31  1  0
  1 32  1  0
  2 33  1  0
  2 34  1  0
  7 35  1  0
  8 36  1  0
  9 37  1  0
 10 38  1  0
 11 39  1  0
 12 40  1  0
 13 41  1  0
 13 42  1  0
 14 43  1  0
 14 44  1  0
 19 45  1  0
 19 46  1  0
 20 47  1  0
 20 48  1  0
 21 49  1  0
 21 50  1  0
 23 51  1  0
 24 52  1  0
 25 53  1  0
 26 54  1  0
 28 55  1  0
 28 56  1  0
 29 57  1  0
 29 58  1  0
M  END
>  <smiles>  (26) 
CCC(=O)N(c1ccccc1)C1CCN(C(=O)C2(N)CCc3ccccc32)CC1

>  <score_type>  (26) 
oracle

>  <origin>  (26) 
autodockgpu

>  <m_score__min__energy>  (26) 
-8.0700000000000003

>  <m_primary>  (26) 
energy

>  <meeko>  (26) 
{"free_energy": -8.07, "intermolecular_energy": -9.86, "internal_energy": -1.37, "cluster_size": 6, "cluster_id": 1, "rank_in_cluster": 1}

>  <energy>  (26) 
-7.69

>  <cluster_rmsd>  (26) 
0.32

>  <rmsd>  (26) 
269.39

>  <cluster>  (26) 
1

$$$$

     RDKit          3D

 58 61  0  0  1  0  0  0  0  0999 V2000
  146.6920   73.3760  221.5990 C   0  0  0  0  0  0  0  0  0  0  0  0
  145.2650   72.9950  221.2300 C   0  0  0  0  0  0  0  0  0  0  0  0
  145.2300   72.3990  219.8820 C   0  0  0  0  0  0  0  0  0  0  0  0
  146.1400   72.7030  219.0390 O   0  0  0  0  0  0  0  0  0  0  0  0
  144.2470   71.4890  219.4210 N   0  0  0  0  0  0  0  0  0  0  0  0
  144.7430   70.2620  218.8510 C   0  0  0  0  0  0  0  0  0  0  0  0
  145.1280   70.1920  217.5250 C   0  0  0  0  0  0  0  0  0  0  0  0
  145.5980   68.9780  217.0250 C   0  0  0  0  0  0  0  0  0  0  0  0
  145.6740   67.8560  217.8550 C   0  0  0  0  0  0  0  0  0  0  0  0
  145.2800   67.9440  219.1920 C   0  0  0  0  0  0  0  0  0  0  0  0
  144.8160   69.1530  219.6800 C   0  0  0  0  0  0  0  0  0  0  0  0
  142.8320   71.6860  219.4780 C   0  0  0  0  0  0  0  0  0  0  0  0
  142.5080   72.9580  220.2280 C   0  0  0  0  0  0  0  0  0  0  0  0
  141.0140   73.2000  220.2060 C   0  0  0  0  0  0  0  0  0  0  0  0
  140.4090   72.0210  220.8820 N   0  0  0  0  0  0  0  0  0  0  0  0
  139.6700   72.3090  222.0380 C   0  0  0  0  0  0  0  0  0  0  0  0
  139.6180   73.5690  222.3440 O   0  0  0  0  0  0  0  0  0  0  0  0
  138.9610   71.4150  222.9320 C   0  0  1  0  0  0  0  0  0  0  0  0
  137.7100   71.8830  223.4070 N   0  0  0  0  0  0  0  0  0  0  0  0
  138.7410   70.0760  222.2510 C   0  0  0  0  0  0  0  0  0  0  0  0
  138.4900   69.1740  223.4420 C   0  0  0  0  0  0  0  0  0  0  0  0
  139.5100   69.6600  224.4090 C   0  0  0  0  0  0  0  0  0  0  0  0
  140.1890   69.1100  225.4690 C   0  0  0  0  0  0  0  0  0  0  0  0
  141.1080   69.8580  226.1940 C   0  0  0  0  0  0  0  0  0  0  0  0
  141.3700   71.1850  225.8720 C   0  0  0  0  0  0  0  0  0  0  0  0
  140.6930   71.7360  224.8140 C   0  0  0  0  0  0  0  0  0  0  0  0
  139.7810   70.9800  224.1010 C   0  0  0  0  0  0  0  0  0  0  0  0
  140.6600   70.7670  220.2680 C   0  0  0  0  0  0  0  0  0  0  0  0
  142.1460   70.4840  220.0990 C   0  0  0  0  0  0  0  0  0  0  0  0
  146.7928   73.4029  222.6940 H   0  0  0  0  0  0  0  0  0  0  0  0
  147.3888   72.6324  221.1848 H   0  0  0  0  0  0  0  0  0  0  0  0
  146.9254   74.3679  221.1848 H   0  0  0  0  0  0  0  0  0  0  0  0
  144.8832   72.2658  221.9598 H   0  0  0  0  0  0  0  0  0  0  0  0
  144.6381   73.8989  221.2394 H   0  0  0  0  0  0  0  0  0  0  0  0
  145.0647   71.0779  216.8761 H   0  0  0  0  0  0  0  0  0  0  0  0
  145.9103   68.9031  215.9729 H   0  0  0  0  0  0  0  0  0  0  0  0
  146.0451   66.9012  217.4541 H   0  0  0  0  0  0  0  0  0  0  0  0
  145.3378   67.0635  219.8488 H   0  0  0  0  0  0  0  0  0  0  0  0
  144.5033   69.2346  220.7315 H   0  0  0  0  0  0  0  0  0  0  0  0
  142.4491   71.7912  218.4522 H   0  0  0  0  0  0  0  0  0  0  0  0
  142.8474   72.8640  221.2701 H   0  0  0  0  0  0  0  0  0  0  0  0
  143.0200   73.8040  219.7463 H   0  0  0  0  0  0  0  0  0  0  0  0
  140.7664   74.1236  220.7497 H   0  0  0  0  0  0  0  0  0  0  0  0
  140.6357   73.3201  219.1801 H   0  0  0  0  0  0  0  0  0  0  0  0
  137.6050   72.9200  223.4090 H   0  0  0  0  0  0  0  0  0  0  0  0
  136.8670   71.3690  223.0950 H   0  0  0  0  0  0  0  0  0  0  0  0
  137.8717   70.1049  221.5776 H   0  0  0  0  0  0  0  0  0  0  0  0
  139.5754   69.7542  221.6105 H   0  0  0  0  0  0  0  0  0  0  0  0
  137.4709   69.3035  223.8353 H   0  0  0  0  0  0  0  0  0  0  0  0
  138.5673   68.1008  223.2133 H   0  0  0  0  0  0  0  0  0  0  0  0
  140.0023   68.0624  225.7476 H   0  0  0  0  0  0  0  0  0  0  0  0
  141.6379   69.3922  227.0379 H   0  0  0  0  0  0  0  0  0  0  0  0
  142.0980   71.7749  226.4482 H   0  0  0  0  0  0  0  0  0  0  0  0
  140.8763   72.7832  224.5317 H   0  0  0  0  0  0  0  0  0  0  0  0
  140.2194   69.9751  220.8916 H   0  0  0  0  0  0  0  0  0  0  0  0
  140.2097   70.7917  219.2647 H   0  0  0  0  0  0  0  0  0  0  0  0
  142.5923   70.2771  221.0829 H   0  0  0  0  0  0  0  0  0  0  0  0
  142.2766   69.6120  219.4412 H   0  0  0  0  0  0  0  0  0  0  0  0
  1  2  1  0
  2  3  1  0
  3  4  2  0
  3  5  1  0
  5  6  1  0
  6  7  2  0
  7  8  1  0
  8  9  2  0
  9 10  1  0
 10 11  2  0
  5 12  1  0
 12 13  1  0
 13 14  1  0
 14 15  1  0
 15 16  1  0
 16 17  2  0
 16 18  1  0
 18 19  1  1
 18 20  1  0
 20 21  1  0
 21 22  1  0
 22 23  2  0
 23 24  1  0
 24 25  2  0
 25 26  1  0
 26 27  2  0
 15 28  1  0
 28 29  1  0
 11  6  1  0
 29 12  1  0
 27 18  1  0
 27 22  1  0
  1 30  1  0
  1 31  1  0
  1 32  1  0
  2 33  1  0
  2 34  1  0
  7 35  1  0
  8 36  1  0
  9 37  1  0
 10 38  1  0
 11 39  1  0
 12 40  1  0
 13 41  1  0
 13 42  1  0
 14 43  1  0
 14 44  1  0
 19 45  1  0
 19 46  1  0
 20 47  1  0
 20 48  1  0
 21 49  1  0
 21 50  1  0
 23 51  1  0
 24 52  1  0
 25 53  1  0
 26 54  1  0
 28 55  1  0
 28 56  1  0
 29 57  1  0
 29 58  1  0
M  END
>  <smiles>  (27) 
CCC(=O)N(c1ccccc1)C1CCN(C(=O)C2(N)CCc3ccccc32)CC1

>  <score_type>  (27) 
oracle

>  <origin>  (27) 
autodockgpu

>  <m_score__min__energy>  (27) 
-8.0700000000000003

>  <m_primary>  (27) 
energy

>  <meeko>  (27) 
{"free_energy": -7.86, "intermolecular_energy": -9.65, "internal_energy": -1.57, "cluster_size": 6, "cluster_id": 1, "rank_in_cluster": 4}

>  <energy>  (27) 
-7.51

>  <cluster_rmsd>  (27) 
0.0

>  <rmsd>  (27) 
270.64

>  <cluster>  (27) 
2

$$$$

     RDKit          3D

 58 61  0  0  1  0  0  0  0  0999 V2000
  145.9510   74.1100  220.8400 C   0  0  0  0  0  0  0  0  0  0  0  0
  145.4800   72.6680  220.9790 C   0  0  0  0  0  0  0  0  0  0  0  0
  145.2060   72.0930  219.6500 C   0  0  0  0  0  0  0  0  0  0  0  0
  145.9400   72.4260  218.6600 O   0  0  0  0  0  0  0  0  0  0  0  0
  144.1680   71.1730  219.3600 N   0  0  0  0  0  0  0  0  0  0  0  0
  144.5890   69.8610  218.9410 C   0  0  0  0  0  0  0  0  0  0  0  0
  144.8950   69.5950  217.6190 C   0  0  0  0  0  0  0  0  0  0  0  0
  145.2950   68.3060  217.2670 C   0  0  0  0  0  0  0  0  0  0  0  0
  145.3800   67.3060  218.2390 C   0  0  0  0  0  0  0  0  0  0  0  0
  145.0660   67.5900  219.5690 C   0  0  0  0  0  0  0  0  0  0  0  0
  144.6710   68.8720  219.9100 C   0  0  0  0  0  0  0  0  0  0  0  0
  142.7660   71.4370  219.4540 C   0  0  0  0  0  0  0  0  0  0  0  0
  142.5210   72.7150  220.2240 C   0  0  0  0  0  0  0  0  0  0  0  0
  141.0410   73.0280  220.2410 C   0  0  0  0  0  0  0  0  0  0  0  0
  140.3960   71.8730  220.9200 N   0  0  0  0  0  0  0  0  0  0  0  0
  139.6990   72.1830  222.0960 C   0  0  0  0  0  0  0  0  0  0  0  0
  139.7160   73.4400  222.4160 O   0  0  0  0  0  0  0  0  0  0  0  0
  138.9690   71.3140  222.9980 C   0  0  1  0  0  0  0  0  0  0  0  0
  137.7430   71.8270  223.4910 N   0  0  0  0  0  0  0  0  0  0  0  0
  138.6900   69.9850  222.3170 C   0  0  0  0  0  0  0  0  0  0  0  0
  138.4210   69.0910  223.5100 C   0  0  0  0  0  0  0  0  0  0  0  0
  139.4710   69.5350  224.4640 C   0  0  0  0  0  0  0  0  0  0  0  0
  140.1440   68.9580  225.5130 C   0  0  0  0  0  0  0  0  0  0  0  0
  141.1000   69.6690  226.2270 C   0  0  0  0  0  0  0  0  0  0  0  0
  141.4070   70.9860  225.9040 C   0  0  0  0  0  0  0  0  0  0  0  0
  140.7380   71.5650  224.8570 C   0  0  0  0  0  0  0  0  0  0  0  0
  139.7880   70.8450  224.1540 C   0  0  0  0  0  0  0  0  0  0  0  0
  140.5720   70.6140  220.2870 C   0  0  0  0  0  0  0  0  0  0  0  0
  142.0380   70.2630  220.0800 C   0  0  0  0  0  0  0  0  0  0  0  0
  146.0938   74.5470  221.8393 H   0  0  0  0  0  0  0  0  0  0  0  0
  146.9034   74.1332  220.2902 H   0  0  0  0  0  0  0  0  0  0  0  0
  145.1959   74.6910  220.2902 H   0  0  0  0  0  0  0  0  0  0  0  0
  146.2624   72.0764  221.4769 H   0  0  0  0  0  0  0  0  0  0  0  0
  144.5569   72.6474  221.5768 H   0  0  0  0  0  0  0  0  0  0  0  0
  144.8242   70.3863  216.8581 H   0  0  0  0  0  0  0  0  0  0  0  0
  145.5444   68.0760  216.2206 H   0  0  0  0  0  0  0  0  0  0  0  0
  145.6955   66.2912  217.9551 H   0  0  0  0  0  0  0  0  0  0  0  0
  145.1316   66.8048  220.3366 H   0  0  0  0  0  0  0  0  0  0  0  0
  144.4208   69.1077  220.9549 H   0  0  0  0  0  0  0  0  0  0  0  0
  142.3646   71.5716  218.4387 H   0  0  0  0  0  0  0  0  0  0  0  0
  142.8804   72.5937  221.2565 H   0  0  0  0  0  0  0  0  0  0  0  0
  143.0611   73.5408  219.7379 H   0  0  0  0  0  0  0  0  0  0  0  0
  140.8513   73.9566  220.7993 H   0  0  0  0  0  0  0  0  0  0  0  0
  140.6446   73.1766  219.2257 H   0  0  0  0  0  0  0  0  0  0  0  0
  137.6630   72.8670  223.4600 H   0  0  0  0  0  0  0  0  0  0  0  0
  136.8800   71.3230  223.2190 H   0  0  0  0  0  0  0  0  0  0  0  0
  137.8137   70.0478  221.6551 H   0  0  0  0  0  0  0  0  0  0  0  0
  139.5031   69.6335  221.6649 H   0  0  0  0  0  0  0  0  0  0  0  0
  137.4129   69.2585  223.9171 H   0  0  0  0  0  0  0  0  0  0  0  0
  138.4546   68.0162  223.2784 H   0  0  0  0  0  0  0  0  0  0  0  0
  139.9226   67.9172  225.7919 H   0  0  0  0  0  0  0  0  0  0  0  0
  141.6234   69.1815  227.0627 H   0  0  0  0  0  0  0  0  0  0  0  0
  142.1642   71.5467  226.4718 H   0  0  0  0  0  0  0  0  0  0  0  0
  140.9570   72.6053  224.5747 H   0  0  0  0  0  0  0  0  0  0  0  0
  140.1087   69.8371  220.9130 H   0  0  0  0  0  0  0  0  0  0  0  0
  140.0998   70.6709  219.2951 H   0  0  0  0  0  0  0  0  0  0  0  0
  142.4968   70.0250  221.0510 H   0  0  0  0  0  0  0  0  0  0  0  0
  142.1113   69.3928  219.4111 H   0  0  0  0  0  0  0  0  0  0  0  0
  1  2  1  0
  2  3  1  0
  3  4  2  0
  3  5  1  0
  5  6  1  0
  6  7  2  0
  7  8  1  0
  8  9  2  0
  9 10  1  0
 10 11  2  0
  5 12  1  0
 12 13  1  0
 13 14  1  0
 14 15  1  0
 15 16  1  0
 16 17  2  0
 16 18  1  0
 18 19  1  1
 18 20  1  0
 20 21  1  0
 21 22  1  0
 22 23  2  0
 23 24  1  0
 24 25  2  0
 25 26  1  0
 26 27  2  0
 15 28  1  0
 28 29  1  0
 11  6  1  0
 29 12  1  0
 27 18  1  0
 27 22  1  0
  1 30  1  0
  1 31  1  0
  1 32  1  0
  2 33  1  0
  2 34  1  0
  7 35  1  0
  8 36  1  0
  9 37  1  0
 10 38  1  0
 11 39  1  0
 12 40  1  0
 13 41  1  0
 13 42  1  0
 14 43  1  0
 14 44  1  0
 19 45  1  0
 19 46  1  0
 20 47  1  0
 20 48  1  0
 21 49  1  0
 21 50  1  0
 23 51  1  0
 24 52  1  0
 25 53  1  0
 26 54  1  0
 28 55  1  0
 28 56  1  0
 29 57  1  0
 29 58  1  0
M  END
>  <smiles>  (28) 
CCC(=O)N(c1ccccc1)C1CCN(C(=O)C2(N)CCc3ccccc32)CC1

>  <score_type>  (28) 
oracle

>  <origin>  (28) 
autodockgpu

>  <m_score__min__energy>  (28) 
-8.0700000000000003

>  <m_primary>  (28) 
energy

>  <meeko>  (28) 
{"free_energy": -7.69, "intermolecular_energy": -9.48, "internal_energy": -1.65, "cluster_size": 6, "cluster_id": 1, "rank_in_cluster": 6}

>  <energy>  (28) 
-7.5

>  <cluster_rmsd>  (28) 
0.04

>  <rmsd>  (28) 
270.62

>  <cluster>  (28) 
2

$$$$

     RDKit          3D

 58 61  0  0  1  0  0  0  0  0999 V2000
  142.5720   81.1880  223.8760 C   0  0  0  0  0  0  0  0  0  0  0  0
  142.5240   80.0170  222.9030 C   0  0  0  0  0  0  0  0  0  0  0  0
  141.6210   78.9700  223.4120 C   0  0  0  0  0  0  0  0  0  0  0  0
  141.8340   78.4670  224.5670 O   0  0  0  0  0  0  0  0  0  0  0  0
  140.5010   78.4520  222.7160 N   0  0  0  0  0  0  0  0  0  0  0  0
  139.2250   79.0170  223.0670 C   0  0  0  0  0  0  0  0  0  0  0  0
  138.0430   78.4390  222.6410 C   0  0  0  0  0  0  0  0  0  0  0  0
  136.8340   79.0300  223.0080 C   0  0  0  0  0  0  0  0  0  0  0  0
  136.8250   80.1870  223.7930 C   0  0  0  0  0  0  0  0  0  0  0  0
  138.0270   80.7580  224.2150 C   0  0  0  0  0  0  0  0  0  0  0  0
  139.2220   80.1650  223.8460 C   0  0  0  0  0  0  0  0  0  0  0  0
  140.5380   77.4370  221.7100 C   0  0  0  0  0  0  0  0  0  0  0  0
  140.4880   76.0650  222.3440 C   0  0  0  0  0  0  0  0  0  0  0  0
  140.4390   75.0030  221.2670 C   0  0  0  0  0  0  0  0  0  0  0  0
  141.6910   75.1740  220.4820 N   0  0  0  0  0  0  0  0  0  0  0  0
  142.5460   74.0640  220.4720 C   0  0  0  0  0  0  0  0  0  0  0  0
  142.1140   73.0450  221.1480 O   0  0  0  0  0  0  0  0  0  0  0  0
  143.8310   73.8890  219.8220 C   0  0  1  0  0  0  0  0  0  0  0  0
  144.0620   74.7030  218.6850 N   0  0  0  0  0  0  0  0  0  0  0  0
  144.9490   74.1370  220.8200 C   0  0  0  0  0  0  0  0  0  0  0  0
  146.1090   73.4320  220.1480 C   0  0  0  0  0  0  0  0  0  0  0  0
  145.4590   72.1920  219.6480 C   0  0  0  0  0  0  0  0  0  0  0  0
  145.8830   70.9180  219.3540 C   0  0  0  0  0  0  0  0  0  0  0  0
  144.9940   69.9590  218.8880 C   0  0  0  0  0  0  0  0  0  0  0  0
  143.6480   70.2550  218.7020 C   0  0  0  0  0  0  0  0  0  0  0  0
  143.2220   71.5250  218.9950 C   0  0  0  0  0  0  0  0  0  0  0  0
  144.1180   72.4710  219.4590 C   0  0  0  0  0  0  0  0  0  0  0  0
  141.8500   76.4350  219.8490 C   0  0  0  0  0  0  0  0  0  0  0  0
  141.7620   77.5960  220.8280 C   0  0  0  0  0  0  0  0  0  0  0  0
  142.5564   80.8080  224.9082 H   0  0  0  0  0  0  0  0  0  0  0  0
  143.4945   81.7640  223.7113 H   0  0  0  0  0  0  0  0  0  0  0  0
  141.6997   81.8376  223.7113 H   0  0  0  0  0  0  0  0  0  0  0  0
  142.1581   80.3698  221.9275 H   0  0  0  0  0  0  0  0  0  0  0  0
  143.5353   79.5979  222.7952 H   0  0  0  0  0  0  0  0  0  0  0  0
  138.0561   77.5289  222.0234 H   0  0  0  0  0  0  0  0  0  0  0  0
  135.8839   78.5841  222.6785 H   0  0  0  0  0  0  0  0  0  0  0  0
  135.8683   80.6485  224.0788 H   0  0  0  0  0  0  0  0  0  0  0  0
  138.0244   81.6679  224.8331 H   0  0  0  0  0  0  0  0  0  0  0  0
  140.1751   80.6066  224.1724 H   0  0  0  0  0  0  0  0  0  0  0  0
  139.6515   77.5466  221.0681 H   0  0  0  0  0  0  0  0  0  0  0  0
  141.3851   75.9160  222.9629 H   0  0  0  0  0  0  0  0  0  0  0  0
  139.5875   75.9877  222.9710 H   0  0  0  0  0  0  0  0  0  0  0  0
  140.4018   74.0002  221.7175 H   0  0  0  0  0  0  0  0  0  0  0  0
  139.5444   75.1041  220.6350 H   0  0  0  0  0  0  0  0  0  0  0  0
  145.0670   74.8160  218.4270 H   0  0  0  0  0  0  0  0  0  0  0  0
  143.4250   74.5760  217.8790 H   0  0  0  0  0  0  0  0  0  0  0  0
  145.1478   75.2119  220.9430 H   0  0  0  0  0  0  0  0  0  0  0  0
  144.7324   73.7786  221.8372 H   0  0  0  0  0  0  0  0  0  0  0  0
  146.5182   74.0315  219.3215 H   0  0  0  0  0  0  0  0  0  0  0  0
  146.9665   73.2500  220.8125 H   0  0  0  0  0  0  0  0  0  0  0  0
  146.9423   70.6545  219.4900 H   0  0  0  0  0  0  0  0  0  0  0  0
  145.3608   68.9469  218.6618 H   0  0  0  0  0  0  0  0  0  0  0  0
  142.9463   69.4934  218.3311 H   0  0  0  0  0  0  0  0  0  0  0  0
  142.1635   71.7925  218.8605 H   0  0  0  0  0  0  0  0  0  0  0  0
  142.8343   76.4615  219.3586 H   0  0  0  0  0  0  0  0  0  0  0  0
  141.0318   76.5488  219.1226 H   0  0  0  0  0  0  0  0  0  0  0  0
  142.6646   77.6122  221.4565 H   0  0  0  0  0  0  0  0  0  0  0  0
  141.6829   78.5382  220.2658 H   0  0  0  0  0  0  0  0  0  0  0  0
  1  2  1  0
  2  3  1  0
  3  4  2  0
  3  5  1  0
  5  6  1  0
  6  7  2  0
  7  8  1  0
  8  9  2  0
  9 10  1  0
 10 11  2  0
  5 12  1  0
 12 13  1  0
 13 14  1  0
 14 15  1  0
 15 16  1  0
 16 17  2  0
 16 18  1  0
 18 19  1  6
 18 20  1  0
 20 21  1  0
 21 22  1  0
 22 23  2  0
 23 24  1  0
 24 25  2  0
 25 26  1  0
 26 27  2  0
 15 28  1  0
 28 29  1  0
 11  6  1  0
 29 12  1  0
 27 18  1  0
 27 22  1  0
  1 30  1  0
  1 31  1  0
  1 32  1  0
  2 33  1  0
  2 34  1  0
  7 35  1  0
  8 36  1  0
  9 37  1  0
 10 38  1  0
 11 39  1  0
 12 40  1  0
 13 41  1  0
 13 42  1  0
 14 43  1  0
 14 44  1  0
 19 45  1  0
 19 46  1  0
 20 47  1  0
 20 48  1  0
 21 49  1  0
 21 50  1  0
 23 51  1  0
 24 52  1  0
 25 53  1  0
 26 54  1  0
 28 55  1  0
 28 56  1  0
 29 57  1  0
 29 58  1  0
M  END
>  <smiles>  (29) 
CCC(=O)N(c1ccccc1)C1CCN(C(=O)C2(N)CCc3ccccc32)CC1

>  <score_type>  (29) 
oracle

>  <origin>  (29) 
autodockgpu

>  <m_score__min__energy>  (29) 
-8.0700000000000003

>  <m_primary>  (29) 
energy

>  <meeko>  (29) 
{"free_energy": -7.4, "intermolecular_energy": -9.19, "internal_energy": -1.49, "cluster_size": 4, "cluster_id": 2, "rank_in_cluster": 4}

>  <energy>  (29) 
-7.44

>  <cluster_rmsd>  (29) 
0.29

>  <rmsd>  (29) 
270.58

>  <cluster>  (29) 
2

$$$$

     RDKit          3D

 58 61  0  0  1  0  0  0  0  0999 V2000
  138.1120   80.5480  224.4670 C   0  0  0  0  0  0  0  0  0  0  0  0
  137.8850   80.1490  223.0150 C   0  0  0  0  0  0  0  0  0  0  0  0
  138.2620   78.7390  222.8100 C   0  0  0  0  0  0  0  0  0  0  0  0
  137.4260   77.8180  223.1010 O   0  0  0  0  0  0  0  0  0  0  0  0
  139.5080   78.2960  222.3030 N   0  0  0  0  0  0  0  0  0  0  0  0
  140.6390   79.1440  222.5800 C   0  0  0  0  0  0  0  0  0  0  0  0
  141.1510   79.9930  221.6160 C   0  0  0  0  0  0  0  0  0  0  0  0
  142.2490   80.7910  221.9370 C   0  0  0  0  0  0  0  0  0  0  0  0
  142.8160   80.7280  223.2130 C   0  0  0  0  0  0  0  0  0  0  0  0
  142.2870   79.8650  224.1750 C   0  0  0  0  0  0  0  0  0  0  0  0
  141.1970   79.0770  223.8480 C   0  0  0  0  0  0  0  0  0  0  0  0
  139.7300   77.0960  221.5580 C   0  0  0  0  0  0  0  0  0  0  0  0
  140.9760   76.3940  222.0490 C   0  0  0  0  0  0  0  0  0  0  0  0
  141.1500   75.0830  221.3120 C   0  0  0  0  0  0  0  0  0  0  0  0
  141.2820   75.4480  219.8760 N   0  0  0  0  0  0  0  0  0  0  0  0
  142.4900   75.0710  219.2730 C   0  0  0  0  0  0  0  0  0  0  0  0
  143.3150   74.4530  220.0590 O   0  0  0  0  0  0  0  0  0  0  0  0
  142.9470   75.2690  217.9110 C   0  0  1  0  0  0  0  0  0  0  0  0
  144.2990   74.9260  217.6590 N   0  0  0  0  0  0  0  0  0  0  0  0
  142.0700   74.4800  216.9550 C   0  0  0  0  0  0  0  0  0  0  0  0
  142.3450   75.1900  215.6450 C   0  0  0  0  0  0  0  0  0  0  0  0
  142.3490   76.6150  216.0680 C   0  0  0  0  0  0  0  0  0  0  0  0
  142.0930   77.8170  215.4530 C   0  0  0  0  0  0  0  0  0  0  0  0
  142.1900   79.0120  216.1540 C   0  0  0  0  0  0  0  0  0  0  0  0
  142.5490   79.0330  217.4960 C   0  0  0  0  0  0  0  0  0  0  0  0
  142.8060   77.8360  218.1130 C   0  0  0  0  0  0  0  0  0  0  0  0
  142.7050   76.6520  217.4040 C   0  0  0  0  0  0  0  0  0  0  0  0
  140.1700   76.1240  219.3110 C   0  0  0  0  0  0  0  0  0  0  0  0
  139.8070   77.3910  220.0730 C   0  0  0  0  0  0  0  0  0  0  0  0
  137.6777   79.7846  225.1292 H   0  0  0  0  0  0  0  0  0  0  0  0
  139.1918   80.6297  224.6603 H   0  0  0  0  0  0  0  0  0  0  0  0
  137.6305   81.5179  224.6603 H   0  0  0  0  0  0  0  0  0  0  0  0
  136.8223   80.2813  222.7637 H   0  0  0  0  0  0  0  0  0  0  0  0
  138.5060   80.7846  222.3667 H   0  0  0  0  0  0  0  0  0  0  0  0
  140.7003   80.0382  220.6136 H   0  0  0  0  0  0  0  0  0  0  0  0
  142.6702   81.4724  221.1832 H   0  0  0  0  0  0  0  0  0  0  0  0
  143.6816   81.3602  223.4602 H   0  0  0  0  0  0  0  0  0  0  0  0
  142.7310   79.8121  225.1800 H   0  0  0  0  0  0  0  0  0  0  0  0
  140.7711   78.3940  224.5978 H   0  0  0  0  0  0  0  0  0  0  0  0
  138.8765   76.4204  221.7167 H   0  0  0  0  0  0  0  0  0  0  0  0
  141.8517   77.0343  221.8669 H   0  0  0  0  0  0  0  0  0  0  0  0
  140.8801   76.1950  223.1266 H   0  0  0  0  0  0  0  0  0  0  0  0
  142.0543   74.5630  221.6610 H   0  0  0  0  0  0  0  0  0  0  0  0
  140.3025   74.4031  221.4837 H   0  0  0  0  0  0  0  0  0  0  0  0
  144.8310   75.6300  217.1020 H   0  0  0  0  0  0  0  0  0  0  0  0
  144.8320   74.5100  218.4430 H   0  0  0  0  0  0  0  0  0  0  0  0
  142.3715   73.4230  216.9112 H   0  0  0  0  0  0  0  0  0  0  0  0
  141.0073   74.4519  217.2377 H   0  0  0  0  0  0  0  0  0  0  0  0
  143.3177   74.8939  215.2252 H   0  0  0  0  0  0  0  0  0  0  0  0
  141.6168   74.9620  214.8527 H   0  0  0  0  0  0  0  0  0  0  0  0
  141.8073   77.8329  214.3909 H   0  0  0  0  0  0  0  0  0  0  0  0
  141.9786   79.9596  215.6370 H   0  0  0  0  0  0  0  0  0  0  0  0
  142.6248   79.9819  218.0471 H   0  0  0  0  0  0  0  0  0  0  0  0
  143.0933   77.8167  219.1747 H   0  0  0  0  0  0  0  0  0  0  0  0
  140.4123   76.3944  218.2727 H   0  0  0  0  0  0  0  0  0  0  0  0
  139.3060   75.4451  219.3620 H   0  0  0  0  0  0  0  0  0  0  0  0
  140.5750   78.1576  219.8928 H   0  0  0  0  0  0  0  0  0  0  0  0
  138.8291   77.7552  219.7250 H   0  0  0  0  0  0  0  0  0  0  0  0
  1  2  1  0
  2  3  1  0
  3  4  2  0
  3  5  1  0
  5  6  1  0
  6  7  2  0
  7  8  1  0
  8  9  2  0
  9 10  1  0
 10 11  2  0
  5 12  1  0
 12 13  1  0
 13 14  1  0
 14 15  1  0
 15 16  1  0
 16 17  2  0
 16 18  1  0
 18 19  1  1
 18 20  1  0
 20 21  1  0
 21 22  1  0
 22 23  2  0
 23 24  1  0
 24 25  2  0
 25 26  1  0
 26 27  2  0
 15 28  1  0
 28 29  1  0
 11  6  1  0
 29 12  1  0
 27 18  1  0
 27 22  1  0
  1 30  1  0
  1 31  1  0
  1 32  1  0
  2 33  1  0
  2 34  1  0
  7 35  1  0
  8 36  1  0
  9 37  1  0
 10 38  1  0
 11 39  1  0
 12 40  1  0
 13 41  1  0
 13 42  1  0
 14 43  1  0
 14 44  1  0
 19 45  1  0
 19 46  1  0
 20 47  1  0
 20 48  1  0
 21 49  1  0
 21 50  1  0
 23 51  1  0
 24 52  1  0
 25 53  1  0
 26 54  1  0
 28 55  1  0
 28 56  1  0
 29 57  1  0
 29 58  1  0
M  END
>  <smiles>  (30) 
CCC(=O)N(c1ccccc1)C1CCN(C(=O)C2(N)CCc3ccccc32)CC1

>  <score_type>  (30) 
oracle

>  <origin>  (30) 
autodockgpu

>  <m_score__min__energy>  (30) 
-8.0700000000000003

>  <m_primary>  (30) 
energy

>  <meeko>  (30) 
{"free_energy": -5.97, "intermolecular_energy": -7.76, "internal_energy": -2.74, "cluster_size": 4, "cluster_id": 5, "rank_in_cluster": 3}

>  <energy>  (30) 
-7.4

>  <cluster_rmsd>  (30) 
0.3

>  <rmsd>  (30) 
270.59

>  <cluster>  (30) 
2

$$$$

     RDKit          3D

 58 61  0  0  1  0  0  0  0  0999 V2000
  138.0710   80.5410  224.5840 C   0  0  0  0  0  0  0  0  0  0  0  0
  137.8930   80.1910  223.1120 C   0  0  0  0  0  0  0  0  0  0  0  0
  138.2470   78.7800  222.8790 C   0  0  0  0  0  0  0  0  0  0  0  0
  137.3740   77.8720  223.0880 O   0  0  0  0  0  0  0  0  0  0  0  0
  139.5100   78.3220  222.4290 N   0  0  0  0  0  0  0  0  0  0  0  0
  140.6330   79.1700  222.7340 C   0  0  0  0  0  0  0  0  0  0  0  0
  141.2520   79.1220  223.9700 C   0  0  0  0  0  0  0  0  0  0  0  0
  142.3340   79.9680  224.2130 C   0  0  0  0  0  0  0  0  0  0  0  0
  142.7790   80.8460  223.2210 C   0  0  0  0  0  0  0  0  0  0  0  0
  142.1420   80.8830  221.9780 C   0  0  0  0  0  0  0  0  0  0  0  0
  141.0690   80.0400  221.7460 C   0  0  0  0  0  0  0  0  0  0  0  0
  139.7530   77.1080  221.7140 C   0  0  0  0  0  0  0  0  0  0  0  0
  141.0260   76.4540  222.2040 C   0  0  0  0  0  0  0  0  0  0  0  0
  141.2260   75.1290  221.5020 C   0  0  0  0  0  0  0  0  0  0  0  0
  141.3260   75.4560  220.0540 N   0  0  0  0  0  0  0  0  0  0  0  0
  142.5350   75.0960  219.4430 C   0  0  0  0  0  0  0  0  0  0  0  0
  143.3890   74.5230  220.2330 O   0  0  0  0  0  0  0  0  0  0  0  0
  142.9660   75.2680  218.0690 C   0  0  1  0  0  0  0  0  0  0  0  0
  144.3110   74.9120  217.7960 N   0  0  0  0  0  0  0  0  0  0  0  0
  142.0650   74.4670  217.1440 C   0  0  0  0  0  0  0  0  0  0  0  0
  142.3190   75.1520  215.8170 C   0  0  0  0  0  0  0  0  0  0  0  0
  142.3390   76.5850  216.2160 C   0  0  0  0  0  0  0  0  0  0  0  0
  142.0780   77.7770  215.5850 C   0  0  0  0  0  0  0  0  0  0  0  0
  142.1950   78.9840  216.2620 C   0  0  0  0  0  0  0  0  0  0  0  0
  142.5810   79.0260  217.5970 C   0  0  0  0  0  0  0  0  0  0  0  0
  142.8430   77.8380  218.2290 C   0  0  0  0  0  0  0  0  0  0  0  0
  142.7220   76.6420  217.5430 C   0  0  0  0  0  0  0  0  0  0  0  0
  140.1870   76.0850  219.4890 C   0  0  0  0  0  0  0  0  0  0  0  0
  139.8000   77.3630  220.2200 C   0  0  0  0  0  0  0  0  0  0  0  0
  137.6596   79.7321  225.2056 H   0  0  0  0  0  0  0  0  0  0  0  0
  139.1415   80.6647  224.8046 H   0  0  0  0  0  0  0  0  0  0  0  0
  137.5404   81.4790  224.8046 H   0  0  0  0  0  0  0  0  0  0  0  0
  136.8442   80.3551  222.8236 H   0  0  0  0  0  0  0  0  0  0  0  0
  138.5527   80.8314  222.5081 H   0  0  0  0  0  0  0  0  0  0  0  0
  140.8974   78.4291  224.7473 H   0  0  0  0  0  0  0  0  0  0  0  0
  142.8393   79.9440  225.1898 H   0  0  0  0  0  0  0  0  0  0  0  0
  143.6333   81.5099  223.4193 H   0  0  0  0  0  0  0  0  0  0  0  0
  142.4886   81.5728  221.1944 H   0  0  0  0  0  0  0  0  0  0  0  0
  140.5588   80.0603  220.7717 H   0  0  0  0  0  0  0  0  0  0  0  0
  138.9205   76.4149  221.9051 H   0  0  0  0  0  0  0  0  0  0  0  0
  141.8805   77.1129  221.9902 H   0  0  0  0  0  0  0  0  0  0  0  0
  140.9515   76.2825  223.2880 H   0  0  0  0  0  0  0  0  0  0  0  0
  142.1499   74.6448  221.8512 H   0  0  0  0  0  0  0  0  0  0  0  0
  140.4007   74.4309  221.7061 H   0  0  0  0  0  0  0  0  0  0  0  0
  144.8300   75.5940  217.2020 H   0  0  0  0  0  0  0  0  0  0  0  0
  144.8620   74.5230  218.5820 H   0  0  0  0  0  0  0  0  0  0  0  0
  142.3592   73.4075  217.1132 H   0  0  0  0  0  0  0  0  0  0  0  0
  141.0079   74.4504  217.4476 H   0  0  0  0  0  0  0  0  0  0  0  0
  143.2818   74.8429  215.3840 H   0  0  0  0  0  0  0  0  0  0  0  0
  141.5749   74.9146  215.0424 H   0  0  0  0  0  0  0  0  0  0  0  0
  141.7720   77.7755  214.5284 H   0  0  0  0  0  0  0  0  0  0  0  0
  141.9784   79.9235  215.7325 H   0  0  0  0  0  0  0  0  0  0  0  0
  142.6734   79.9837  218.1301 H   0  0  0  0  0  0  0  0  0  0  0  0
  143.1505   77.8353  219.2851 H   0  0  0  0  0  0  0  0  0  0  0  0
  140.4054   76.3319  218.4396 H   0  0  0  0  0  0  0  0  0  0  0  0
  139.3433   75.3843  219.5743 H   0  0  0  0  0  0  0  0  0  0  0  0
  140.5437   78.1449  220.0065 H   0  0  0  0  0  0  0  0  0  0  0  0
  138.8076   77.6906  219.8768 H   0  0  0  0  0  0  0  0  0  0  0  0
  1  2  1  0
  2  3  1  0
  3  4  2  0
  3  5  1  0
  5  6  1  0
  6  7  2  0
  7  8  1  0
  8  9  2  0
  9 10  1  0
 10 11  2  0
  5 12  1  0
 12 13  1  0
 13 14  1  0
 14 15  1  0
 15 16  1  0
 16 17  2  0
 16 18  1  0
 18 19  1  1
 18 20  1  0
 20 21  1  0
 21 22  1  0
 22 23  2  0
 23 24  1  0
 24 25  2  0
 25 26  1  0
 26 27  2  0
 15 28  1  0
 28 29  1  0
 11  6  1  0
 29 12  1  0
 27 18  1  0
 27 22  1  0
  1 30  1  0
  1 31  1  0
  1 32  1  0
  2 33  1  0
  2 34  1  0
  7 35  1  0
  8 36  1  0
  9 37  1  0
 10 38  1  0
 11 39  1  0
 12 40  1  0
 13 41  1  0
 13 42  1  0
 14 43  1  0
 14 44  1  0
 19 45  1  0
 19 46  1  0
 20 47  1  0
 20 48  1  0
 21 49  1  0
 21 50  1  0
 23 51  1  0
 24 52  1  0
 25 53  1  0
 26 54  1  0
 28 55  1  0
 28 56  1  0
 29 57  1  0
 29 58  1  0
M  END
>  <smiles>  (31) 
CCC(=O)N(c1ccccc1)C1CCN(C(=O)C2(N)CCc3ccccc32)CC1

>  <score_type>  (31) 
oracle

>  <origin>  (31) 
autodockgpu

>  <m_score__min__energy>  (31) 
-8.0700000000000003

>  <m_primary>  (31) 
energy

>  <meeko>  (31) 
{"free_energy": -6.0, "intermolecular_energy": -7.79, "internal_energy": -2.74, "cluster_size": 4, "cluster_id": 5, "rank_in_cluster": 1}

>  <energy>  (31) 
-6.33

>  <cluster_rmsd>  (31) 
0.0

>  <rmsd>  (31) 
270.17

>  <cluster>  (31) 
3

$$$$

     RDKit          3D

 58 61  0  0  1  0  0  0  0  0999 V2000
  145.6770   74.1640  220.8600 C   0  0  0  0  0  0  0  0  0  0  0  0
  145.5740   72.6460  220.9170 C   0  0  0  0  0  0  0  0  0  0  0  0
  145.2240   72.1100  219.5890 C   0  0  0  0  0  0  0  0  0  0  0  0
  145.9270   72.4400  218.5750 O   0  0  0  0  0  0  0  0  0  0  0  0
  144.1430   71.2330  219.3250 N   0  0  0  0  0  0  0  0  0  0  0  0
  144.4990   69.9160  218.8640 C   0  0  0  0  0  0  0  0  0  0  0  0
  144.8080   68.9040  219.7540 C   0  0  0  0  0  0  0  0  0  0  0  0
  145.1490   67.6480  219.2520 C   0  0  0  0  0  0  0  0  0  0  0  0
  145.1750   67.4240  217.8730 C   0  0  0  0  0  0  0  0  0  0  0  0
  144.8610   68.4570  216.9870 C   0  0  0  0  0  0  0  0  0  0  0  0
  144.5230   69.7000  217.4940 C   0  0  0  0  0  0  0  0  0  0  0  0
  142.7560   71.5440  219.4820 C   0  0  0  0  0  0  0  0  0  0  0  0
  142.5880   72.7940  220.3160 C   0  0  0  0  0  0  0  0  0  0  0  0
  141.1220   73.1610  220.4000 C   0  0  0  0  0  0  0  0  0  0  0  0
  140.4580   72.0000  221.0520 N   0  0  0  0  0  0  0  0  0  0  0  0
  139.8160   72.2830  222.2650 C   0  0  0  0  0  0  0  0  0  0  0  0
  139.8910   73.5230  222.6390 O   0  0  0  0  0  0  0  0  0  0  0  0
  139.0850   71.4020  223.1560 C   0  0  1  0  0  0  0  0  0  0  0  0
  137.8290   71.8830  223.6050 N   0  0  0  0  0  0  0  0  0  0  0  0
  138.8670   70.0580  222.4820 C   0  0  0  0  0  0  0  0  0  0  0  0
  138.5890   69.1690  223.6770 C   0  0  0  0  0  0  0  0  0  0  0  0
  139.5960   69.6560  224.6570 C   0  0  0  0  0  0  0  0  0  0  0  0
  140.2540   69.1110  225.7330 C   0  0  0  0  0  0  0  0  0  0  0  0
  141.1660   69.8590  226.4660 C   0  0  0  0  0  0  0  0  0  0  0  0
  141.4420   71.1800  226.1370 C   0  0  0  0  0  0  0  0  0  0  0  0
  140.7880   71.7280  225.0640 C   0  0  0  0  0  0  0  0  0  0  0  0
  139.8820   70.9710  224.3410 C   0  0  0  0  0  0  0  0  0  0  0  0
  140.5630   70.7660  220.3590 C   0  0  0  0  0  0  0  0  0  0  0  0
  142.0060   70.3710  220.0830 C   0  0  0  0  0  0  0  0  0  0  0  0
  145.7044   74.5683  221.8826 H   0  0  0  0  0  0  0  0  0  0  0  0
  146.5966   74.4494  220.3281 H   0  0  0  0  0  0  0  0  0  0  0  0
  144.8044   74.5710  220.3281 H   0  0  0  0  0  0  0  0  0  0  0  0
  146.5406   72.2278  221.2346 H   0  0  0  0  0  0  0  0  0  0  0  0
  144.7897   72.3659  221.6356 H   0  0  0  0  0  0  0  0  0  0  0  0
  144.7853   69.0861  220.8386 H   0  0  0  0  0  0  0  0  0  0  0  0
  145.3985   66.8306  219.9445 H   0  0  0  0  0  0  0  0  0  0  0  0
  145.4437   66.4308  217.4839 H   0  0  0  0  0  0  0  0  0  0  0  0
  144.8820   68.2851  215.9007 H   0  0  0  0  0  0  0  0  0  0  0  0
  144.2720   70.5212  216.8065 H   0  0  0  0  0  0  0  0  0  0  0  0
  142.3245   71.7386  218.4890 H   0  0  0  0  0  0  0  0  0  0  0  0
  142.9776   72.6125  221.3285 H   0  0  0  0  0  0  0  0  0  0  0  0
  143.1431   73.6203  219.8479 H   0  0  0  0  0  0  0  0  0  0  0  0
  140.9874   74.0701  221.0045 H   0  0  0  0  0  0  0  0  0  0  0  0
  140.6962   73.3700  219.4075 H   0  0  0  0  0  0  0  0  0  0  0  0
  137.6360   71.7150  224.6160 H   0  0  0  0  0  0  0  0  0  0  0  0
  137.5320   72.8130  223.2610 H   0  0  0  0  0  0  0  0  0  0  0  0
  138.0096   70.0870  221.7934 H   0  0  0  0  0  0  0  0  0  0  0  0
  139.7096   69.7245  221.8584 H   0  0  0  0  0  0  0  0  0  0  0  0
  137.5644   69.3098  224.0516 H   0  0  0  0  0  0  0  0  0  0  0  0
  138.6621   68.0932  223.4594 H   0  0  0  0  0  0  0  0  0  0  0  0
  140.0556   68.0672  226.0179 H   0  0  0  0  0  0  0  0  0  0  0  0
  141.6790   69.3971  227.3225 H   0  0  0  0  0  0  0  0  0  0  0  0
  142.1645   71.7694  226.7206 H   0  0  0  0  0  0  0  0  0  0  0  0
  140.9836   72.7717  224.7768 H   0  0  0  0  0  0  0  0  0  0  0  0
  140.0925   69.9793  220.9671 H   0  0  0  0  0  0  0  0  0  0  0  0
  140.0587   70.8848  219.3887 H   0  0  0  0  0  0  0  0  0  0  0  0
  142.4893   70.0732  221.0252 H   0  0  0  0  0  0  0  0  0  0  0  0
  142.0221   69.5295  219.3748 H   0  0  0  0  0  0  0  0  0  0  0  0
  1  2  1  0
  2  3  1  0
  3  4  2  0
  3  5  1  0
  5  6  1  0
  6  7  2  0
  7  8  1  0
  8  9  2  0
  9 10  1  0
 10 11  2  0
  5 12  1  0
 12 13  1  0
 13 14  1  0
 14 15  1  0
 15 16  1  0
 16 17  2  0
 16 18  1  0
 18 19  1  1
 18 20  1  0
 20 21  1  0
 21 22  1  0
 22 23  2  0
 23 24  1  0
 24 25  2  0
 25 26  1  0
 26 27  2  0
 15 28  1  0
 28 29  1  0
 11  6  1  0
 29 12  1  0
 27 18  1  0
 27 22  1  0
  1 30  1  0
  1 31  1  0
  1 32  1  0
  2 33  1  0
  2 34  1  0
  7 35  1  0
  8 36  1  0
  9 37  1  0
 10 38  1  0
 11 39  1  0
 12 40  1  0
 13 41  1  0
 13 42  1  0
 14 43  1  0
 14 44  1  0
 19 45  1  0
 19 46  1  0
 20 47  1  0
 20 48  1  0
 21 49  1  0
 21 50  1  0
 23 51  1  0
 24 52  1  0
 25 53  1  0
 26 54  1  0
 28 55  1  0
 28 56  1  0
 29 57  1  0
 29 58  1  0
M  END
>  <smiles>  (32) 
CCC(=O)N(c1ccccc1)C1CCN(C(=O)C2(N)CCc3ccccc32)CC1

>  <score_type>  (32) 
oracle

>  <origin>  (32) 
autodockgpu

>  <m_score__min__energy>  (32) 
-8.0700000000000003

>  <m_primary>  (32) 
energy

>  <meeko>  (32) 
{"free_energy": -7.91, "intermolecular_energy": -9.7, "internal_energy": -1.52, "cluster_size": 6, "cluster_id": 1, "rank_in_cluster": 2}

>  <energy>  (32) 
-6.08

>  <cluster_rmsd>  (32) 
0.0

>  <rmsd>  (32) 
270.2

>  <cluster>  (32) 
4

$$$$

     RDKit          3D

 58 61  0  0  1  0  0  0  0  0999 V2000
  142.4320   80.8250  218.2460 C   0  0  0  0  0  0  0  0  0  0  0  0
  141.1410   81.6220  218.3850 C   0  0  0  0  0  0  0  0  0  0  0  0
  140.7990   81.7940  219.8080 C   0  0  0  0  0  0  0  0  0  0  0  0
  140.6400   82.9710  220.2760 O   0  0  0  0  0  0  0  0  0  0  0  0
  140.6240   80.7370  220.7350 N   0  0  0  0  0  0  0  0  0  0  0  0
  141.4170   80.8150  221.9350 C   0  0  0  0  0  0  0  0  0  0  0  0
  141.0260   81.6030  223.0020 C   0  0  0  0  0  0  0  0  0  0  0  0
  141.8330   81.6440  224.1390 C   0  0  0  0  0  0  0  0  0  0  0  0
  143.0140   80.8990  224.1910 C   0  0  0  0  0  0  0  0  0  0  0  0
  143.3950   80.1080  223.1050 C   0  0  0  0  0  0  0  0  0  0  0  0
  142.5880   80.0730  221.9810 C   0  0  0  0  0  0  0  0  0  0  0  0
  139.7390   79.6260  220.5800 C   0  0  0  0  0  0  0  0  0  0  0  0
  139.2630   79.1380  221.9300 C   0  0  0  0  0  0  0  0  0  0  0  0
  138.2600   78.0200  221.7480 C   0  0  0  0  0  0  0  0  0  0  0  0
  138.9910   76.9430  221.0270 N   0  0  0  0  0  0  0  0  0  0  0  0
  139.0830   75.7230  221.7110 C   0  0  0  0  0  0  0  0  0  0  0  0
  138.5100   75.7120  222.8740 O   0  0  0  0  0  0  0  0  0  0  0  0
  139.7190   74.4820  221.3110 C   0  0  1  0  0  0  0  0  0  0  0  0
  139.9230   73.5340  222.3450 N   0  0  0  0  0  0  0  0  0  0  0  0
  138.9070   73.8200  220.2120 C   0  0  0  0  0  0  0  0  0  0  0  0
  139.9360   72.8910  219.6010 C   0  0  0  0  0  0  0  0  0  0  0  0
  141.1470   73.7540  219.5820 C   0  0  0  0  0  0  0  0  0  0  0  0
  142.2920   73.8120  218.8240 C   0  0  0  0  0  0  0  0  0  0  0  0
  143.2650   74.7720  219.0720 C   0  0  0  0  0  0  0  0  0  0  0  0
  143.1130   75.7040  220.0920 C   0  0  0  0  0  0  0  0  0  0  0  0
  141.9710   75.6490  220.8500 C   0  0  0  0  0  0  0  0  0  0  0  0
  141.0100   74.6870  220.5920 C   0  0  0  0  0  0  0  0  0  0  0  0
  139.4940   77.2950  219.7480 C   0  0  0  0  0  0  0  0  0  0  0  0
  140.4030   78.5140  219.7910 C   0  0  0  0  0  0  0  0  0  0  0  0
  142.8232   80.5835  219.2453 H   0  0  0  0  0  0  0  0  0  0  0  0
  142.2306   79.8938  217.6962 H   0  0  0  0  0  0  0  0  0  0  0  0
  143.1743   81.4223  217.6962 H   0  0  0  0  0  0  0  0  0  0  0  0
  141.2727   82.6106  217.9210 H   0  0  0  0  0  0  0  0  0  0  0  0
  140.3274   81.0770  217.8840 H   0  0  0  0  0  0  0  0  0  0  0  0
  140.0951   82.1871  222.9549 H   0  0  0  0  0  0  0  0  0  0  0  0
  141.5386   82.2651  224.9978 H   0  0  0  0  0  0  0  0  0  0  0  0
  143.6459   80.9357  225.0906 H   0  0  0  0  0  0  0  0  0  0  0  0
  144.3242   79.5205  223.1423 H   0  0  0  0  0  0  0  0  0  0  0  0
  142.8769   79.4532  221.1194 H   0  0  0  0  0  0  0  0  0  0  0  0
  138.8583   79.9562  220.0096 H   0  0  0  0  0  0  0  0  0  0  0  0
  140.1224   78.7668  222.5076 H   0  0  0  0  0  0  0  0  0  0  0  0
  138.7851   79.9698  222.4683 H   0  0  0  0  0  0  0  0  0  0  0  0
  137.9070   77.6575  222.7247 H   0  0  0  0  0  0  0  0  0  0  0  0
  137.3728   78.3547  221.1904 H   0  0  0  0  0  0  0  0  0  0  0  0
  139.4610   73.7710  223.2500 H   0  0  0  0  0  0  0  0  0  0  0  0
  139.8640   72.5340  222.0840 H   0  0  0  0  0  0  0  0  0  0  0  0
  138.0535   73.2609  220.6231 H   0  0  0  0  0  0  0  0  0  0  0  0
  138.4564   74.5250  219.4980 H   0  0  0  0  0  0  0  0  0  0  0  0
  140.0899   71.9976  220.2241 H   0  0  0  0  0  0  0  0  0  0  0  0
  139.6523   72.4976  218.6137 H   0  0  0  0  0  0  0  0  0  0  0  0
  142.4401   73.0879  218.0093 H   0  0  0  0  0  0  0  0  0  0  0  0
  144.1720   74.7950  218.4500 H   0  0  0  0  0  0  0  0  0  0  0  0
  143.8854   76.4629  220.2856 H   0  0  0  0  0  0  0  0  0  0  0  0
  141.8186   76.3716  221.6653 H   0  0  0  0  0  0  0  0  0  0  0  0
  140.0647   76.4441  219.3477 H   0  0  0  0  0  0  0  0  0  0  0  0
  138.6338   77.5437  219.1091 H   0  0  0  0  0  0  0  0  0  0  0  0
  141.3541   78.2429  220.2726 H   0  0  0  0  0  0  0  0  0  0  0  0
  140.5915   78.8613  218.7644 H   0  0  0  0  0  0  0  0  0  0  0  0
  1  2  1  0
  2  3  1  0
  3  4  2  0
  3  5  1  0
  5  6  1  0
  6  7  2  0
  7  8  1  0
  8  9  2  0
  9 10  1  0
 10 11  2  0
  5 12  1  0
 12 13  1  0
 13 14  1  0
 14 15  1  0
 15 16  1  0
 16 17  2  0
 16 18  1  0
 18 19  1  1
 18 20  1  0
 20 21  1  0
 21 22  1  0
 22 23  2  0
 23 24  1  0
 24 25  2  0
 25 26  1  0
 26 27  2  0
 15 28  1  0
 28 29  1  0
 11  6  1  0
 29 12  1  0
 27 18  1  0
 27 22  1  0
  1 30  1  0
  1 31  1  0
  1 32  1  0
  2 33  1  0
  2 34  1  0
  7 35  1  0
  8 36  1  0
  9 37  1  0
 10 38  1  0
 11 39  1  0
 12 40  1  0
 13 41  1  0
 13 42  1  0
 14 43  1  0
 14 44  1  0
 19 45  1  0
 19 46  1  0
 20 47  1  0
 20 48  1  0
 21 49  1  0
 21 50  1  0
 23 51  1  0
 24 52  1  0
 25 53  1  0
 26 54  1  0
 28 55  1  0
 28 56  1  0
 29 57  1  0
 29 58  1  0
M  END
>  <smiles>  (33) 
CCC(=O)N(c1ccccc1)C1CCN(C(=O)C2(N)CCc3ccccc32)CC1

>  <score_type>  (33) 
oracle

>  <origin>  (33) 
autodockgpu

>  <m_score__min__energy>  (33) 
-8.0700000000000003

>  <m_primary>  (33) 
energy

>  <meeko>  (33) 
{"free_energy": -6.01, "intermolecular_energy": -7.8, "internal_energy": -2.66, "cluster_size": 5, "cluster_id": 4, "rank_in_cluster": 3}

>  <energy>  (33) 
-6.07

>  <cluster_rmsd>  (33) 
0.07

>  <rmsd>  (33) 
270.19

>  <cluster>  (33) 
4

$$$$

     RDKit          3D

 58 61  0  0  1  0  0  0  0  0999 V2000
  146.7140   73.4220  221.6190 C   0  0  0  0  0  0  0  0  0  0  0  0
  145.2850   73.0400  221.2570 C   0  0  0  0  0  0  0  0  0  0  0  0
  145.2480   72.4140  219.9230 C   0  0  0  0  0  0  0  0  0  0  0  0
  146.1630   72.6920  219.0760 O   0  0  0  0  0  0  0  0  0  0  0  0
  144.2600   71.5020  219.4790 N   0  0  0  0  0  0  0  0  0  0  0  0
  144.7460   70.2530  218.9520 C   0  0  0  0  0  0  0  0  0  0  0  0
  144.7720   69.1090  219.7280 C   0  0  0  0  0  0  0  0  0  0  0  0
  145.2560   67.9270  219.1670 C   0  0  0  0  0  0  0  0  0  0  0  0
  145.7060   67.9080  217.8440 C   0  0  0  0  0  0  0  0  0  0  0  0
  145.6740   69.0720  217.0740 C   0  0  0  0  0  0  0  0  0  0  0  0
  145.1920   70.2400  217.6380 C   0  0  0  0  0  0  0  0  0  0  0  0
  142.8470   71.7160  219.5170 C   0  0  0  0  0  0  0  0  0  0  0  0
  142.5280   73.0010  220.2480 C   0  0  0  0  0  0  0  0  0  0  0  0
  141.0380   73.2600  220.2040 C   0  0  0  0  0  0  0  0  0  0  0  0
  140.4110   72.0970  220.8880 N   0  0  0  0  0  0  0  0  0  0  0  0
  139.6620   72.4080  222.0300 C   0  0  0  0  0  0  0  0  0  0  0  0
  139.6210   73.6710  222.3210 O   0  0  0  0  0  0  0  0  0  0  0  0
  138.9310   71.5330  222.9270 C   0  0  1  0  0  0  0  0  0  0  0  0
  137.7180   72.0540  223.4440 N   0  0  0  0  0  0  0  0  0  0  0  0
  138.6250   70.2210  222.2260 C   0  0  0  0  0  0  0  0  0  0  0  0
  138.3580   69.3090  223.4070 C   0  0  0  0  0  0  0  0  0  0  0  0
  139.4270   69.7220  224.3550 C   0  0  0  0  0  0  0  0  0  0  0  0
  140.1050   69.1170  225.3850 C   0  0  0  0  0  0  0  0  0  0  0  0
  141.0800   69.8020  226.0980 C   0  0  0  0  0  0  0  0  0  0  0  0
  141.4010   71.1200  225.7950 C   0  0  0  0  0  0  0  0  0  0  0  0
  140.7270   71.7270  224.7670 C   0  0  0  0  0  0  0  0  0  0  0  0
  139.7580   71.0330  224.0640 C   0  0  0  0  0  0  0  0  0  0  0  0
  140.6550   70.8320  220.2910 C   0  0  0  0  0  0  0  0  0  0  0  0
  142.1390   70.5310  220.1440 C   0  0  0  0  0  0  0  0  0  0  0  0
  146.8199   73.4503  222.7135 H   0  0  0  0  0  0  0  0  0  0  0  0
  147.4091   72.6781  221.2025 H   0  0  0  0  0  0  0  0  0  0  0  0
  146.9452   74.4135  221.2025 H   0  0  0  0  0  0  0  0  0  0  0  0
  144.8988   72.3295  222.0027 H   0  0  0  0  0  0  0  0  0  0  0  0
  144.6629   73.9471  221.2453 H   0  0  0  0  0  0  0  0  0  0  0  0
  144.4174   69.1305  220.7691 H   0  0  0  0  0  0  0  0  0  0  0  0
  145.2836   67.0063  219.7683 H   0  0  0  0  0  0  0  0  0  0  0  0
  146.0867   66.9726  217.4079 H   0  0  0  0  0  0  0  0  0  0  0  0
  146.0274   69.0608  216.0324 H   0  0  0  0  0  0  0  0  0  0  0  0
  145.1622   71.1636  217.0413 H   0  0  0  0  0  0  0  0  0  0  0  0
  142.4788   71.8128  218.4850 H   0  0  0  0  0  0  0  0  0  0  0  0
  142.8529   72.9155  221.2954 H   0  0  0  0  0  0  0  0  0  0  0  0
  143.0559   73.8352  219.7628 H   0  0  0  0  0  0  0  0  0  0  0  0
  140.7945   74.1936  220.7323 H   0  0  0  0  0  0  0  0  0  0  0  0
  140.6738   73.3709  219.1720 H   0  0  0  0  0  0  0  0  0  0  0  0
  137.5570   71.8590  224.4560 H   0  0  0  0  0  0  0  0  0  0  0  0
  137.4520   73.0090  223.1450 H   0  0  0  0  0  0  0  0  0  0  0  0
  137.7415   70.3079  221.5764 H   0  0  0  0  0  0  0  0  0  0  0  0
  139.4249   69.8700  221.5574 H   0  0  0  0  0  0  0  0  0  0  0  0
  137.3577   69.4833  223.8301 H   0  0  0  0  0  0  0  0  0  0  0  0
  138.3730   68.2380  223.1563 H   0  0  0  0  0  0  0  0  0  0  0  0
  139.8722   68.0748  225.6489 H   0  0  0  0  0  0  0  0  0  0  0  0
  141.6079   69.2923  226.9175 H   0  0  0  0  0  0  0  0  0  0  0  0
  142.1728   71.6599  226.3631 H   0  0  0  0  0  0  0  0  0  0  0  0
  140.9572   72.7690  224.5002 H   0  0  0  0  0  0  0  0  0  0  0  0
  140.1978   70.0524  220.9181 H   0  0  0  0  0  0  0  0  0  0  0  0
  140.2171   70.8497  219.2821 H   0  0  0  0  0  0  0  0  0  0  0  0
  142.5706   70.3315  221.1359 H   0  0  0  0  0  0  0  0  0  0  0  0
  142.2672   69.6498  219.4983 H   0  0  0  0  0  0  0  0  0  0  0  0
  1  2  1  0
  2  3  1  0
  3  4  2  0
  3  5  1  0
  5  6  1  0
  6  7  2  0
  7  8  1  0
  8  9  2  0
  9 10  1  0
 10 11  2  0
  5 12  1  0
 12 13  1  0
 13 14  1  0
 14 15  1  0
 15 16  1  0
 16 17  2  0
 16 18  1  0
 18 19  1  1
 18 20  1  0
 20 21  1  0
 21 22  1  0
 22 23  2  0
 23 24  1  0
 24 25  2  0
 25 26  1  0
 26 27  2  0
 15 28  1  0
 28 29  1  0
 11  6  1  0
 29 12  1  0
 27 18  1  0
 27 22  1  0
  1 30  1  0
  1 31  1  0
  1 32  1  0
  2 33  1  0
  2 34  1  0
  7 35  1  0
  8 36  1  0
  9 37  1  0
 10 38  1  0
 11 39  1  0
 12 40  1  0
 13 41  1  0
 13 42  1  0
 14 43  1  0
 14 44  1  0
 19 45  1  0
 19 46  1  0
 20 47  1  0
 20 48  1  0
 21 49  1  0
 21 50  1  0
 23 51  1  0
 24 52  1  0
 25 53  1  0
 26 54  1  0
 28 55  1  0
 28 56  1  0
 29 57  1  0
 29 58  1  0
M  END
>  <smiles>  (34) 
CCC(=O)N(c1ccccc1)C1CCN(C(=O)C2(N)CCc3ccccc32)CC1

>  <score_type>  (34) 
oracle

>  <origin>  (34) 
autodockgpu

>  <m_score__min__energy>  (34) 
-8.0700000000000003

>  <m_primary>  (34) 
energy

>  <meeko>  (34) 
{"free_energy": -7.9, "intermolecular_energy": -9.69, "internal_energy": -1.6, "cluster_size": 6, "cluster_id": 1, "rank_in_cluster": 3}

>  <energy>  (34) 
-6.01

>  <cluster_rmsd>  (34) 
0.28

>  <rmsd>  (34) 
270.27

>  <cluster>  (34) 
4

$$$$

     RDKit          3D

 58 61  0  0  1  0  0  0  0  0999 V2000
  142.4990   81.2640  223.9250 C   0  0  0  0  0  0  0  0  0  0  0  0
  142.5910   80.0430  223.0190 C   0  0  0  0  0  0  0  0  0  0  0  0
  141.6520   79.0020  223.4720 C   0  0  0  0  0  0  0  0  0  0  0  0
  141.8250   78.4560  224.6130 O   0  0  0  0  0  0  0  0  0  0  0  0
  140.5370   78.5350  222.7330 N   0  0  0  0  0  0  0  0  0  0  0  0
  139.2710   79.1440  223.0520 C   0  0  0  0  0  0  0  0  0  0  0  0
  139.1990   80.2810  223.8350 C   0  0  0  0  0  0  0  0  0  0  0  0
  137.9470   80.8270  224.1150 C   0  0  0  0  0  0  0  0  0  0  0  0
  136.7890   80.2290  223.6110 C   0  0  0  0  0  0  0  0  0  0  0  0
  136.8780   79.0800  222.8220 C   0  0  0  0  0  0  0  0  0  0  0  0
  138.1250   78.5450  222.5490 C   0  0  0  0  0  0  0  0  0  0  0  0
  140.5680   77.5330  221.7150 C   0  0  0  0  0  0  0  0  0  0  0  0
  140.4880   76.1540  222.3310 C   0  0  0  0  0  0  0  0  0  0  0  0
  140.4340   75.1070  221.2400 C   0  0  0  0  0  0  0  0  0  0  0  0
  141.6980   75.2670  220.4710 N   0  0  0  0  0  0  0  0  0  0  0  0
  142.5350   74.1430  220.4570 C   0  0  0  0  0  0  0  0  0  0  0  0
  142.0780   73.1220  221.1140 O   0  0  0  0  0  0  0  0  0  0  0  0
  143.8240   73.9550  219.8190 C   0  0  1  0  0  0  0  0  0  0  0  0
  144.0820   74.7800  218.6960 N   0  0  0  0  0  0  0  0  0  0  0  0
  144.9340   74.1710  220.8340 C   0  0  0  0  0  0  0  0  0  0  0  0
  146.0900   73.4550  220.1650 C   0  0  0  0  0  0  0  0  0  0  0  0
  145.4250   72.2320  219.6410 C   0  0  0  0  0  0  0  0  0  0  0  0
  145.8310   70.9560  219.3350 C   0  0  0  0  0  0  0  0  0  0  0  0
  144.9310   70.0180  218.8450 C   0  0  0  0  0  0  0  0  0  0  0  0
  143.5930   70.3390  218.6490 C   0  0  0  0  0  0  0  0  0  0  0  0
  143.1850   71.6120  218.9530 C   0  0  0  0  0  0  0  0  0  0  0  0
  144.0910   72.5370  219.4400 C   0  0  0  0  0  0  0  0  0  0  0  0
  141.8850   76.5320  219.8570 C   0  0  0  0  0  0  0  0  0  0  0  0
  141.8050   77.6830  220.8490 C   0  0  0  0  0  0  0  0  0  0  0  0
  142.5232   80.9428  224.9768 H   0  0  0  0  0  0  0  0  0  0  0  0
  143.3493   81.9330  223.7263 H   0  0  0  0  0  0  0  0  0  0  0  0
  141.5581   81.7980  223.7263 H   0  0  0  0  0  0  0  0  0  0  0  0
  142.3402   80.3353  221.9886 H   0  0  0  0  0  0  0  0  0  0  0  0
  143.6153   79.6439  223.0571 H   0  0  0  0  0  0  0  0  0  0  0  0
  140.1137   80.7469  224.2303 H   0  0  0  0  0  0  0  0  0  0  0  0
  137.8705   81.7323  224.7352 H   0  0  0  0  0  0  0  0  0  0  0  0
  135.8043   80.6645  223.8363 H   0  0  0  0  0  0  0  0  0  0  0  0
  135.9690   78.6064  222.4228 H   0  0  0  0  0  0  0  0  0  0  0  0
  138.2080   77.6397  221.9297 H   0  0  0  0  0  0  0  0  0  0  0  0
  139.6908   77.6652  221.0646 H   0  0  0  0  0  0  0  0  0  0  0  0
  141.3752   75.9823  222.9582 H   0  0  0  0  0  0  0  0  0  0  0  0
  139.5792   76.0837  222.9468 H   0  0  0  0  0  0  0  0  0  0  0  0
  140.3751   74.0993  221.6771 H   0  0  0  0  0  0  0  0  0  0  0  0
  139.5485   75.2312  220.5993 H   0  0  0  0  0  0  0  0  0  0  0  0
  144.0080   75.8030  218.8810 H   0  0  0  0  0  0  0  0  0  0  0  0
  144.8760   74.5110  218.0880 H   0  0  0  0  0  0  0  0  0  0  0  0
  145.1494   75.2406  220.9740 H   0  0  0  0  0  0  0  0  0  0  0  0
  144.6995   73.8032  221.8438 H   0  0  0  0  0  0  0  0  0  0  0  0
  146.5183   74.0584  219.3511 H   0  0  0  0  0  0  0  0  0  0  0  0
  146.9367   73.2498  220.8365 H   0  0  0  0  0  0  0  0  0  0  0  0
  146.8840   70.6728  219.4800 H   0  0  0  0  0  0  0  0  0  0  0  0
  145.2835   69.0033  218.6080 H   0  0  0  0  0  0  0  0  0  0  0  0
  142.8826   69.5939  218.2615 H   0  0  0  0  0  0  0  0  0  0  0  0
  142.1329   71.8991  218.8091 H   0  0  0  0  0  0  0  0  0  0  0  0
  142.8752   76.5480  219.3783 H   0  0  0  0  0  0  0  0  0  0  0  0
  141.0767   76.6684  219.1235 H   0  0  0  0  0  0  0  0  0  0  0  0
  142.7005   77.6769  221.4878 H   0  0  0  0  0  0  0  0  0  0  0  0
  141.7482   78.6332  220.2977 H   0  0  0  0  0  0  0  0  0  0  0  0
  1  2  1  0
  2  3  1  0
  3  4  2  0
  3  5  1  0
  5  6  1  0
  6  7  2  0
  7  8  1  0
  8  9  2  0
  9 10  1  0
 10 11  2  0
  5 12  1  0
 12 13  1  0
 13 14  1  0
 14 15  1  0
 15 16  1  0
 16 17  2  0
 16 18  1  0
 18 19  1  6
 18 20  1  0
 20 21  1  0
 21 22  1  0
 22 23  2  0
 23 24  1  0
 24 25  2  0
 25 26  1  0
 26 27  2  0
 15 28  1  0
 28 29  1  0
 11  6  1  0
 29 12  1  0
 27 18  1  0
 27 22  1  0
  1 30  1  0
  1 31  1  0
  1 32  1  0
  2 33  1  0
  2 34  1  0
  7 35  1  0
  8 36  1  0
  9 37  1  0
 10 38  1  0
 11 39  1  0
 12 40  1  0
 13 41  1  0
 13 42  1  0
 14 43  1  0
 14 44  1  0
 19 45  1  0
 19 46  1  0
 20 47  1  0
 20 48  1  0
 21 49  1  0
 21 50  1  0
 23 51  1  0
 24 52  1  0
 25 53  1  0
 26 54  1  0
 28 55  1  0
 28 56  1  0
 29 57  1  0
 29 58  1  0
M  END
>  <smiles>  (35) 
CCC(=O)N(c1ccccc1)C1CCN(C(=O)C2(N)CCc3ccccc32)CC1

>  <score_type>  (35) 
oracle

>  <origin>  (35) 
autodockgpu

>  <m_score__min__energy>  (35) 
-8.0700000000000003

>  <m_primary>  (35) 
energy

>  <meeko>  (35) 
{"free_energy": -7.5, "intermolecular_energy": -9.29, "internal_energy": -1.49, "cluster_size": 4, "cluster_id": 2, "rank_in_cluster": 2}

>  <energy>  (35) 
-5.94

>  <cluster_rmsd>  (35) 
0.4

>  <rmsd>  (35) 
270.29

>  <cluster>  (35) 
4

$$$$

     RDKit          3D

 58 61  0  0  1  0  0  0  0  0999 V2000
  138.1080   80.5460  224.5210 C   0  0  0  0  0  0  0  0  0  0  0  0
  137.8920   80.1670  223.0620 C   0  0  0  0  0  0  0  0  0  0  0  0
  138.2730   78.7610  222.8390 C   0  0  0  0  0  0  0  0  0  0  0  0
  137.4330   77.8360  223.1010 O   0  0  0  0  0  0  0  0  0  0  0  0
  139.5280   78.3270  222.3450 N   0  0  0  0  0  0  0  0  0  0  0  0
  140.6480   79.1870  222.6290 C   0  0  0  0  0  0  0  0  0  0  0  0
  141.1170   80.0870  221.6900 C   0  0  0  0  0  0  0  0  0  0  0  0
  142.2080   80.8930  222.0170 C   0  0  0  0  0  0  0  0  0  0  0  0
  142.8100   80.7860  223.2730 C   0  0  0  0  0  0  0  0  0  0  0  0
  142.3250   79.8720  224.2100 C   0  0  0  0  0  0  0  0  0  0  0  0
  141.2420   79.0760  223.8770 C   0  0  0  0  0  0  0  0  0  0  0  0
  139.7660   77.1280  221.6050 C   0  0  0  0  0  0  0  0  0  0  0  0
  141.0380   76.4600  222.0790 C   0  0  0  0  0  0  0  0  0  0  0  0
  141.2320   75.1490  221.3490 C   0  0  0  0  0  0  0  0  0  0  0  0
  141.3300   75.5050  219.9080 N   0  0  0  0  0  0  0  0  0  0  0  0
  142.5360   75.1530  219.2870 C   0  0  0  0  0  0  0  0  0  0  0  0
  143.3900   74.5620  220.0630 O   0  0  0  0  0  0  0  0  0  0  0  0
  142.9640   75.3520  217.9150 C   0  0  1  0  0  0  0  0  0  0  0  0
  144.3090   75.0010  217.6340 N   0  0  0  0  0  0  0  0  0  0  0  0
  142.0620   74.5700  216.9780 C   0  0  0  0  0  0  0  0  0  0  0  0
  142.3130   75.2800  215.6630 C   0  0  0  0  0  0  0  0  0  0  0  0
  142.3340   76.7050  216.0890 C   0  0  0  0  0  0  0  0  0  0  0  0
  142.0710   77.9090  215.4820 C   0  0  0  0  0  0  0  0  0  0  0  0
  142.1900   79.1030  216.1830 C   0  0  0  0  0  0  0  0  0  0  0  0
  142.5790   79.1190  217.5170 C   0  0  0  0  0  0  0  0  0  0  0  0
  142.8420   77.9180  218.1260 C   0  0  0  0  0  0  0  0  0  0  0  0
  142.7190   76.7360  217.4170 C   0  0  0  0  0  0  0  0  0  0  0  0
  140.1910   76.1490  219.3580 C   0  0  0  0  0  0  0  0  0  0  0  0
  139.8100   77.4120  220.1160 C   0  0  0  0  0  0  0  0  0  0  0  0
  137.6680   79.7740  225.1694 H   0  0  0  0  0  0  0  0  0  0  0  0
  139.1863   80.6242  224.7238 H   0  0  0  0  0  0  0  0  0  0  0  0
  137.6257   81.5136  224.7238 H   0  0  0  0  0  0  0  0  0  0  0  0
  136.8308   80.3009  222.8052 H   0  0  0  0  0  0  0  0  0  0  0  0
  138.5166   80.8128  222.4274 H   0  0  0  0  0  0  0  0  0  0  0  0
  140.6385   80.1662  220.7027 H   0  0  0  0  0  0  0  0  0  0  0  0
  142.5954   81.6152  221.2832 H   0  0  0  0  0  0  0  0  0  0  0  0
  143.6696   81.4245  223.5247 H   0  0  0  0  0  0  0  0  0  0  0  0
  142.7969   79.7853  225.1998 H   0  0  0  0  0  0  0  0  0  0  0  0
  140.8508   78.3516  224.6065 H   0  0  0  0  0  0  0  0  0  0  0  0
  138.9315   76.4340  221.7838 H   0  0  0  0  0  0  0  0  0  0  0  0
  141.8942   77.1204  221.8771 H   0  0  0  0  0  0  0  0  0  0  0  0
  140.9654   76.2665  223.1594 H   0  0  0  0  0  0  0  0  0  0  0  0
  142.1550   74.6546  221.6861 H   0  0  0  0  0  0  0  0  0  0  0  0
  140.4046   74.4499  221.5405 H   0  0  0  0  0  0  0  0  0  0  0  0
  144.8510   75.7320  217.1240 H   0  0  0  0  0  0  0  0  0  0  0  0
  144.8370   74.5230  218.3850 H   0  0  0  0  0  0  0  0  0  0  0  0
  142.3559   73.5112  216.9265 H   0  0  0  0  0  0  0  0  0  0  0  0
  141.0055   74.5481  217.2836 H   0  0  0  0  0  0  0  0  0  0  0  0
  143.2748   74.9791  215.2220 H   0  0  0  0  0  0  0  0  0  0  0  0
  141.5672   75.0572  214.8857 H   0  0  0  0  0  0  0  0  0  0  0  0
  141.7619   77.9282  214.4265 H   0  0  0  0  0  0  0  0  0  0  0  0
  141.9723   80.0528  215.6726 H   0  0  0  0  0  0  0  0  0  0  0  0
  142.6732   80.0663  218.0682 H   0  0  0  0  0  0  0  0  0  0  0  0
  143.1516   77.8946  219.1813 H   0  0  0  0  0  0  0  0  0  0  0  0
  140.4079   76.4169  218.3134 H   0  0  0  0  0  0  0  0  0  0  0  0
  139.3453   75.4492  219.4302 H   0  0  0  0  0  0  0  0  0  0  0  0
  140.5554   78.1959  219.9162 H   0  0  0  0  0  0  0  0  0  0  0  0
  138.8173   77.7485  219.7824 H   0  0  0  0  0  0  0  0  0  0  0  0
  1  2  1  0
  2  3  1  0
  3  4  2  0
  3  5  1  0
  5  6  1  0
  6  7  2  0
  7  8  1  0
  8  9  2  0
  9 10  1  0
 10 11  2  0
  5 12  1  0
 12 13  1  0
 13 14  1  0
 14 15  1  0
 15 16  1  0
 16 17  2  0
 16 18  1  0
 18 19  1  1
 18 20  1  0
 20 21  1  0
 21 22  1  0
 22 23  2  0
 23 24  1  0
 24 25  2  0
 25 26  1  0
 26 27  2  0
 15 28  1  0
 28 29  1  0
 11  6  1  0
 29 12  1  0
 27 18  1  0
 27 22  1  0
  1 30  1  0
  1 31  1  0
  1 32  1  0
  2 33  1  0
  2 34  1  0
  7 35  1  0
  8 36  1  0
  9 37  1  0
 10 38  1  0
 11 39  1  0
 12 40  1  0
 13 41  1  0
 13 42  1  0
 14 43  1  0
 14 44  1  0
 19 45  1  0
 19 46  1  0
 20 47  1  0
 20 48  1  0
 21 49  1  0
 21 50  1  0
 23 51  1  0
 24 52  1  0
 25 53  1  0
 26 54  1  0
 28 55  1  0
 28 56  1  0
 29 57  1  0
 29 58  1  0
M  END
>  <smiles>  (36) 
CCC(=O)N(c1ccccc1)C1CCN(C(=O)C2(N)CCc3ccccc32)CC1

>  <score_type>  (36) 
oracle

>  <origin>  (36) 
autodockgpu

>  <m_score__min__energy>  (36) 
-8.0700000000000003

>  <m_primary>  (36) 
energy

>  <meeko>  (36) 
{"free_energy": -5.98, "intermolecular_energy": -7.77, "internal_energy": -2.73, "cluster_size": 4, "cluster_id": 5, "rank_in_cluster": 2}

>  <energy>  (36) 
-5.93

>  <cluster_rmsd>  (36) 
0.25

>  <rmsd>  (36) 
270.21

>  <cluster>  (36) 
4

$$$$

     RDKit          3D

 58 61  0  0  1  0  0  0  0  0999 V2000
  138.0130   81.2270  222.8720 C   0  0  0  0  0  0  0  0  0  0  0  0
  138.1870   80.0670  223.8440 C   0  0  0  0  0  0  0  0  0  0  0  0
  138.3740   78.8070  223.1040 C   0  0  0  0  0  0  0  0  0  0  0  0
  137.3730   78.0360  222.9170 O   0  0  0  0  0  0  0  0  0  0  0  0
  139.6030   78.3570  222.5610 N   0  0  0  0  0  0  0  0  0  0  0  0
  140.7450   79.1990  222.8060 C   0  0  0  0  0  0  0  0  0  0  0  0
  141.4190   79.1600  224.0130 C   0  0  0  0  0  0  0  0  0  0  0  0
  142.5170   79.9990  224.1970 C   0  0  0  0  0  0  0  0  0  0  0  0
  142.9230   80.8620  223.1760 C   0  0  0  0  0  0  0  0  0  0  0  0
  142.2320   80.8900  221.9630 C   0  0  0  0  0  0  0  0  0  0  0  0
  141.1430   80.0530  221.7890 C   0  0  0  0  0  0  0  0  0  0  0  0
  139.7950   77.1560  221.8090 C   0  0  0  0  0  0  0  0  0  0  0  0
  141.0420   76.4380  222.2750 C   0  0  0  0  0  0  0  0  0  0  0  0
  141.1870   75.1270  221.5330 C   0  0  0  0  0  0  0  0  0  0  0  0
  141.2970   75.4930  220.0960 N   0  0  0  0  0  0  0  0  0  0  0  0
  142.4890   75.1030  219.4690 C   0  0  0  0  0  0  0  0  0  0  0  0
  143.3210   74.4730  220.2390 O   0  0  0  0  0  0  0  0  0  0  0  0
  142.9240   75.2990  218.1000 C   0  0  1  0  0  0  0  0  0  0  0  0
  144.2660   74.9370  217.8220 N   0  0  0  0  0  0  0  0  0  0  0  0
  142.0170   74.5260  217.1580 C   0  0  0  0  0  0  0  0  0  0  0  0
  142.2790   75.2350  215.8450 C   0  0  0  0  0  0  0  0  0  0  0  0
  142.3120   76.6590  216.2730 C   0  0  0  0  0  0  0  0  0  0  0  0
  142.0610   77.8660  215.6660 C   0  0  0  0  0  0  0  0  0  0  0  0
  142.1880   79.0580  216.3680 C   0  0  0  0  0  0  0  0  0  0  0  0
  142.5730   79.0700  217.7030 C   0  0  0  0  0  0  0  0  0  0  0  0
  142.8230   77.8660  218.3120 C   0  0  0  0  0  0  0  0  0  0  0  0
  142.6920   76.6860  217.6020 C   0  0  0  0  0  0  0  0  0  0  0  0
  140.1830   76.1850  219.5530 C   0  0  0  0  0  0  0  0  0  0  0  0
  139.8490   77.4540  220.3230 C   0  0  0  0  0  0  0  0  0  0  0  0
  137.8730   82.1606  223.4366 H   0  0  0  0  0  0  0  0  0  0  0  0
  138.9084   81.3122  222.2388 H   0  0  0  0  0  0  0  0  0  0  0  0
  137.1320   81.0458  222.2388 H   0  0  0  0  0  0  0  0  0  0  0  0
  139.0683   80.2515  224.4759 H   0  0  0  0  0  0  0  0  0  0  0  0
  137.2864   79.9852  224.4702 H   0  0  0  0  0  0  0  0  0  0  0  0
  141.0945   78.4791  224.8136 H   0  0  0  0  0  0  0  0  0  0  0  0
  143.0660   79.9815  225.1500 H   0  0  0  0  0  0  0  0  0  0  0  0
  143.7900   81.5216  223.3283 H   0  0  0  0  0  0  0  0  0  0  0  0
  142.5486   81.5679  221.1566 H   0  0  0  0  0  0  0  0  0  0  0  0
  140.5902   80.0657  220.8381 H   0  0  0  0  0  0  0  0  0  0  0  0
  138.9359   76.4911  221.9817 H   0  0  0  0  0  0  0  0  0  0  0  0
  141.9215   77.0684  222.0776 H   0  0  0  0  0  0  0  0  0  0  0  0
  140.9638   76.2377  223.3538 H   0  0  0  0  0  0  0  0  0  0  0  0
  142.0913   74.5957  221.8646 H   0  0  0  0  0  0  0  0  0  0  0  0
  140.3348   74.4568  221.7190 H   0  0  0  0  0  0  0  0  0  0  0  0
  144.7960   75.6320  217.2530 H   0  0  0  0  0  0  0  0  0  0  0  0
  144.8090   74.5160  218.5970 H   0  0  0  0  0  0  0  0  0  0  0  0
  142.3011   73.4646  217.1062 H   0  0  0  0  0  0  0  0  0  0  0  0
  140.9594   74.5137  217.4601 H   0  0  0  0  0  0  0  0  0  0  0  0
  143.2394   74.9256  215.4068 H   0  0  0  0  0  0  0  0  0  0  0  0
  141.5338   75.0202  215.0649 H   0  0  0  0  0  0  0  0  0  0  0  0
  141.7553   77.8886  214.6096 H   0  0  0  0  0  0  0  0  0  0  0  0
  141.9799   80.0099  215.8576 H   0  0  0  0  0  0  0  0  0  0  0  0
  142.6743   80.0160  218.2550 H   0  0  0  0  0  0  0  0  0  0  0  0
  143.1286   77.8391  219.3683 H   0  0  0  0  0  0  0  0  0  0  0  0
  140.4099   76.4548  218.5110 H   0  0  0  0  0  0  0  0  0  0  0  0
  139.3118   75.5167  219.6192 H   0  0  0  0  0  0  0  0  0  0  0  0
  140.6228   78.2118  220.1307 H   0  0  0  0  0  0  0  0  0  0  0  0
  138.8697   77.8310  219.9931 H   0  0  0  0  0  0  0  0  0  0  0  0
  1  2  1  0
  2  3  1  0
  3  4  2  0
  3  5  1  0
  5  6  1  0
  6  7  2  0
  7  8  1  0
  8  9  2  0
  9 10  1  0
 10 11  2  0
  5 12  1  0
 12 13  1  0
 13 14  1  0
 14 15  1  0
 15 16  1  0
 16 17  2  0
 16 18  1  0
 18 19  1  1
 18 20  1  0
 20 21  1  0
 21 22  1  0
 22 23  2  0
 23 24  1  0
 24 25  2  0
 25 26  1  0
 26 27  2  0
 15 28  1  0
 28 29  1  0
 11  6  1  0
 29 12  1  0
 27 18  1  0
 27 22  1  0
  1 30  1  0
  1 31  1  0
  1 32  1  0
  2 33  1  0
  2 34  1  0
  7 35  1  0
  8 36  1  0
  9 37  1  0
 10 38  1  0
 11 39  1  0
 12 40  1  0
 13 41  1  0
 13 42  1  0
 14 43  1  0
 14 44  1  0
 19 45  1  0
 19 46  1  0
 20 47  1  0
 20 48  1  0
 21 49  1  0
 21 50  1  0
 23 51  1  0
 24 52  1  0
 25 53  1  0
 26 54  1  0
 28 55  1  0
 28 56  1  0
 29 57  1  0
 29 58  1  0
M  END
>  <smiles>  (37) 
CCC(=O)N(c1ccccc1)C1CCN(C(=O)C2(N)CCc3ccccc32)CC1

>  <score_type>  (37) 
oracle

>  <origin>  (37) 
autodockgpu

>  <m_score__min__energy>  (37) 
-8.0700000000000003

>  <m_primary>  (37) 
energy

>  <meeko>  (37) 
{"free_energy": -5.96, "intermolecular_energy": -7.75, "internal_energy": -2.74, "cluster_size": 4, "cluster_id": 5, "rank_in_cluster": 4}

>  <energy>  (37) 
-6.0

>  <cluster_rmsd>  (37) 
0.0

>  <rmsd>  (37) 
269.88

>  <cluster>  (37) 
5

$$$$

     RDKit          3D

 58 61  0  0  1  0  0  0  0  0999 V2000
  142.3770   80.5490  218.3210 C   0  0  0  0  0  0  0  0  0  0  0  0
  141.8310   81.8950  218.7830 C   0  0  0  0  0  0  0  0  0  0  0  0
  140.7390   81.6950  219.7520 C   0  0  0  0  0  0  0  0  0  0  0  0
  139.8010   82.5590  219.8250 O   0  0  0  0  0  0  0  0  0  0  0  0
  140.6300   80.5960  220.6390 N   0  0  0  0  0  0  0  0  0  0  0  0
  141.4730   80.6420  221.8050 C   0  0  0  0  0  0  0  0  0  0  0  0
  142.5530   79.7890  221.9430 C   0  0  0  0  0  0  0  0  0  0  0  0
  143.3350   79.8750  223.0950 C   0  0  0  0  0  0  0  0  0  0  0  0
  143.0260   80.8070  224.0880 C   0  0  0  0  0  0  0  0  0  0  0  0
  141.9310   81.6610  223.9340 C   0  0  0  0  0  0  0  0  0  0  0  0
  141.1610   81.5690  222.7880 C   0  0  0  0  0  0  0  0  0  0  0  0
  139.7640   79.4710  220.4740 C   0  0  0  0  0  0  0  0  0  0  0  0
  139.2530   78.9980  221.8170 C   0  0  0  0  0  0  0  0  0  0  0  0
  138.2700   77.8640  221.6220 C   0  0  0  0  0  0  0  0  0  0  0  0
  139.0360   76.7850  220.9410 N   0  0  0  0  0  0  0  0  0  0  0  0
  139.1220   75.5770  221.6470 C   0  0  0  0  0  0  0  0  0  0  0  0
  138.5130   75.5770  222.7920 O   0  0  0  0  0  0  0  0  0  0  0  0
  139.7860   74.3390  221.2870 C   0  0  1  0  0  0  0  0  0  0  0  0
  139.9890   73.4190  222.3470 N   0  0  0  0  0  0  0  0  0  0  0  0
  139.0040   73.6370  220.1910 C   0  0  0  0  0  0  0  0  0  0  0  0
  140.0590   72.7130  219.6190 C   0  0  0  0  0  0  0  0  0  0  0  0
  141.2560   73.5960  219.5990 C   0  0  0  0  0  0  0  0  0  0  0  0
  142.4120   73.6560  218.8590 C   0  0  0  0  0  0  0  0  0  0  0  0
  143.3630   74.6390  219.1000 C   0  0  0  0  0  0  0  0  0  0  0  0
  143.1780   75.5920  220.0950 C   0  0  0  0  0  0  0  0  0  0  0  0
  142.0250   75.5340  220.8360 C   0  0  0  0  0  0  0  0  0  0  0  0
  141.0850   74.5500  220.5850 C   0  0  0  0  0  0  0  0  0  0  0  0
  139.5740   77.1240  219.6720 C   0  0  0  0  0  0  0  0  0  0  0  0
  140.4670   78.3550  219.7240 C   0  0  0  0  0  0  0  0  0  0  0  0
  142.6265   79.9339  219.1982 H   0  0  0  0  0  0  0  0  0  0  0  0
  141.6170   80.0332  217.7157 H   0  0  0  0  0  0  0  0  0  0  0  0
  143.2815   80.7085  217.7157 H   0  0  0  0  0  0  0  0  0  0  0  0
  142.6384   82.4707  219.2590 H   0  0  0  0  0  0  0  0  0  0  0  0
  141.4424   82.4431  217.9120 H   0  0  0  0  0  0  0  0  0  0  0  0
  142.7911   79.0558  221.1583 H   0  0  0  0  0  0  0  0  0  0  0  0
  144.1988   79.2058  223.2218 H   0  0  0  0  0  0  0  0  0  0  0  0
  143.6466   80.8690  224.9941 H   0  0  0  0  0  0  0  0  0  0  0  0
  141.6843   82.3968  224.7135 H   0  0  0  0  0  0  0  0  0  0  0  0
  140.2959   82.2354  222.6559 H   0  0  0  0  0  0  0  0  0  0  0  0
  138.8975   79.7803  219.8711 H   0  0  0  0  0  0  0  0  0  0  0  0
  140.0989   78.6471  222.4264 H   0  0  0  0  0  0  0  0  0  0  0  0
  138.7486   79.8317  222.3274 H   0  0  0  0  0  0  0  0  0  0  0  0
  137.8915   77.5123  222.5931 H   0  0  0  0  0  0  0  0  0  0  0  0
  137.3966   78.1786  221.0319 H   0  0  0  0  0  0  0  0  0  0  0  0
  139.5060   73.6670  223.2370 H   0  0  0  0  0  0  0  0  0  0  0  0
  139.9540   72.4120  222.1080 H   0  0  0  0  0  0  0  0  0  0  0  0
  138.1538   73.0724  220.6014 H   0  0  0  0  0  0  0  0  0  0  0  0
  138.5528   74.3169  219.4533 H   0  0  0  0  0  0  0  0  0  0  0  0
  140.2178   71.8372  220.2653 H   0  0  0  0  0  0  0  0  0  0  0  0
  139.7984   72.2924  218.6366 H   0  0  0  0  0  0  0  0  0  0  0  0
  142.5867   72.9153  218.0647 H   0  0  0  0  0  0  0  0  0  0  0  0
  144.2796   74.6639  218.4923 H   0  0  0  0  0  0  0  0  0  0  0  0
  143.9334   76.3693  220.2825 H   0  0  0  0  0  0  0  0  0  0  0  0
  141.8471   76.2719  221.6321 H   0  0  0  0  0  0  0  0  0  0  0  0
  140.1668   76.2743  219.3024 H   0  0  0  0  0  0  0  0  0  0  0  0
  138.7310   77.3524  219.0033 H   0  0  0  0  0  0  0  0  0  0  0  0
  141.4054   78.1034  220.2399 H   0  0  0  0  0  0  0  0  0  0  0  0
  140.6845   78.6885  218.6986 H   0  0  0  0  0  0  0  0  0  0  0  0
  1  2  1  0
  2  3  1  0
  3  4  2  0
  3  5  1  0
  5  6  1  0
  6  7  2  0
  7  8  1  0
  8  9  2  0
  9 10  1  0
 10 11  2  0
  5 12  1  0
 12 13  1  0
 13 14  1  0
 14 15  1  0
 15 16  1  0
 16 17  2  0
 16 18  1  0
 18 19  1  1
 18 20  1  0
 20 21  1  0
 21 22  1  0
 22 23  2  0
 23 24  1  0
 24 25  2  0
 25 26  1  0
 26 27  2  0
 15 28  1  0
 28 29  1  0
 11  6  1  0
 29 12  1  0
 27 18  1  0
 27 22  1  0
  1 30  1  0
  1 31  1  0
  1 32  1  0
  2 33  1  0
  2 34  1  0
  7 35  1  0
  8 36  1  0
  9 37  1  0
 10 38  1  0
 11 39  1  0
 12 40  1  0
 13 41  1  0
 13 42  1  0
 14 43  1  0
 14 44  1  0
 19 45  1  0
 19 46  1  0
 20 47  1  0
 20 48  1  0
 21 49  1  0
 21 50  1  0
 23 51  1  0
 24 52  1  0
 25 53  1  0
 26 54  1  0
 28 55  1  0
 28 56  1  0
 29 57  1  0
 29 58  1  0
M  END
>  <smiles>  (38) 
CCC(=O)N(c1ccccc1)C1CCN(C(=O)C2(N)CCc3ccccc32)CC1

>  <score_type>  (38) 
oracle

>  <origin>  (38) 
autodockgpu

>  <m_score__min__energy>  (38) 
-8.0700000000000003

>  <m_primary>  (38) 
energy

>  <meeko>  (38) 
{"free_energy": -5.93, "intermolecular_energy": -7.72, "internal_energy": -2.66, "cluster_size": 5, "cluster_id": 4, "rank_in_cluster": 5}

>  <energy>  (38) 
-5.98

>  <cluster_rmsd>  (38) 
0.14

>  <rmsd>  (38) 
269.82

>  <cluster>  (38) 
5

$$$$

     RDKit          3D

 58 61  0  0  1  0  0  0  0  0999 V2000
  142.6040   80.4510  218.2210 C   0  0  0  0  0  0  0  0  0  0  0  0
  141.4260   81.4160  218.2490 C   0  0  0  0  0  0  0  0  0  0  0  0
  140.9470   81.5940  219.6310 C   0  0  0  0  0  0  0  0  0  0  0  0
  140.6790   82.7680  220.0550 O   0  0  0  0  0  0  0  0  0  0  0  0
  140.7480   80.5460  220.5640 N   0  0  0  0  0  0  0  0  0  0  0  0
  141.5000   80.6420  221.7880 C   0  0  0  0  0  0  0  0  0  0  0  0
  141.1840   81.5830  222.7510 C   0  0  0  0  0  0  0  0  0  0  0  0
  141.9480   81.6340  223.9170 C   0  0  0  0  0  0  0  0  0  0  0  0
  143.0120   80.7480  224.1020 C   0  0  0  0  0  0  0  0  0  0  0  0
  143.3180   79.8040  223.1190 C   0  0  0  0  0  0  0  0  0  0  0  0
  142.5550   79.7600  221.9650 C   0  0  0  0  0  0  0  0  0  0  0  0
  139.8760   79.4270  220.3920 C   0  0  0  0  0  0  0  0  0  0  0  0
  139.3310   78.9730  221.7280 C   0  0  0  0  0  0  0  0  0  0  0  0
  138.3430   77.8460  221.5230 C   0  0  0  0  0  0  0  0  0  0  0  0
  139.1140   76.7530  220.8710 N   0  0  0  0  0  0  0  0  0  0  0  0
  139.1740   75.5520  221.5900 C   0  0  0  0  0  0  0  0  0  0  0  0
  138.5400   75.5700  222.7220 O   0  0  0  0  0  0  0  0  0  0  0  0
  139.8330   74.3040  221.2580 C   0  0  1  0  0  0  0  0  0  0  0  0
  140.0140   73.3980  222.3340 N   0  0  0  0  0  0  0  0  0  0  0  0
  139.0630   73.5930  220.1600 C   0  0  0  0  0  0  0  0  0  0  0  0
  140.1200   72.6530  219.6170 C   0  0  0  0  0  0  0  0  0  0  0  0
  141.3220   73.5270  219.6030 C   0  0  0  0  0  0  0  0  0  0  0  0
  142.4900   73.5690  218.8800 C   0  0  0  0  0  0  0  0  0  0  0  0
  143.4450   74.5480  219.1210 C   0  0  0  0  0  0  0  0  0  0  0  0
  143.2520   75.5160  220.1000 C   0  0  0  0  0  0  0  0  0  0  0  0
  142.0880   75.4770  220.8230 C   0  0  0  0  0  0  0  0  0  0  0  0
  141.1440   74.4960  220.5730 C   0  0  0  0  0  0  0  0  0  0  0  0
  139.6820   77.0730  219.6110 C   0  0  0  0  0  0  0  0  0  0  0  0
  140.5840   78.2970  219.6690 C   0  0  0  0  0  0  0  0  0  0  0  0
  142.9023   80.2066  219.2512 H   0  0  0  0  0  0  0  0  0  0  0  0
  142.3111   79.5299  217.6958 H   0  0  0  0  0  0  0  0  0  0  0  0
  143.4494   80.9195  217.6958 H   0  0  0  0  0  0  0  0  0  0  0  0
  141.7437   82.3891  217.8464 H   0  0  0  0  0  0  0  0  0  0  0  0
  140.6102   81.0045  217.6365 H   0  0  0  0  0  0  0  0  0  0  0  0
  140.3454   82.2787  222.6002 H   0  0  0  0  0  0  0  0  0  0  0  0
  141.7115   82.3754  224.6944 H   0  0  0  0  0  0  0  0  0  0  0  0
  143.6103   80.7938  225.0239 H   0  0  0  0  0  0  0  0  0  0  0  0
  144.1549   79.1043  223.2602 H   0  0  0  0  0  0  0  0  0  0  0  0
  142.7870   79.0211  221.1839 H   0  0  0  0  0  0  0  0  0  0  0  0
  139.0259   79.7379  219.7669 H   0  0  0  0  0  0  0  0  0  0  0  0
  140.1599   78.6214  222.3599 H   0  0  0  0  0  0  0  0  0  0  0  0
  138.8227   79.8165  222.2181 H   0  0  0  0  0  0  0  0  0  0  0  0
  137.9397   77.5082  222.4890 H   0  0  0  0  0  0  0  0  0  0  0  0
  137.4860   78.1619  220.9100 H   0  0  0  0  0  0  0  0  0  0  0  0
  139.5670   73.6910  223.2290 H   0  0  0  0  0  0  0  0  0  0  0  0
  139.9210   72.3900  222.1190 H   0  0  0  0  0  0  0  0  0  0  0  0
  138.2023   73.0404  220.5648 H   0  0  0  0  0  0  0  0  0  0  0  0
  138.6285   74.2660  219.4062 H   0  0  0  0  0  0  0  0  0  0  0  0
  140.2628   71.7854  220.2780 H   0  0  0  0  0  0  0  0  0  0  0  0
  139.8714   72.2199  218.6369 H   0  0  0  0  0  0  0  0  0  0  0  0
  142.6711   72.8160  218.0989 H   0  0  0  0  0  0  0  0  0  0  0  0
  144.3706   74.5577  218.5267 H   0  0  0  0  0  0  0  0  0  0  0  0
  144.0105   76.2899  220.2888 H   0  0  0  0  0  0  0  0  0  0  0  0
  141.9034   76.2283  221.6050 H   0  0  0  0  0  0  0  0  0  0  0  0
  140.2755   76.2143  219.2639 H   0  0  0  0  0  0  0  0  0  0  0  0
  138.8557   77.3008  218.9215 H   0  0  0  0  0  0  0  0  0  0  0  0
  141.5092   78.0430  220.2071 H   0  0  0  0  0  0  0  0  0  0  0  0
  140.8252   78.6176  218.6448 H   0  0  0  0  0  0  0  0  0  0  0  0
  1  2  1  0
  2  3  1  0
  3  4  2  0
  3  5  1  0
  5  6  1  0
  6  7  2  0
  7  8  1  0
  8  9  2  0
  9 10  1  0
 10 11  2  0
  5 12  1  0
 12 13  1  0
 13 14  1  0
 14 15  1  0
 15 16  1  0
 16 17  2  0
 16 18  1  0
 18 19  1  1
 18 20  1  0
 20 21  1  0
 21 22  1  0
 22 23  2  0
 23 24  1  0
 24 25  2  0
 25 26  1  0
 26 27  2  0
 15 28  1  0
 28 29  1  0
 11  6  1  0
 29 12  1  0
 27 18  1  0
 27 22  1  0
  1 30  1  0
  1 31  1  0
  1 32  1  0
  2 33  1  0
  2 34  1  0
  7 35  1  0
  8 36  1  0
  9 37  1  0
 10 38  1  0
 11 39  1  0
 12 40  1  0
 13 41  1  0
 13 42  1  0
 14 43  1  0
 14 44  1  0
 19 45  1  0
 19 46  1  0
 20 47  1  0
 20 48  1  0
 21 49  1  0
 21 50  1  0
 23 51  1  0
 24 52  1  0
 25 53  1  0
 26 54  1  0
 28 55  1  0
 28 56  1  0
 29 57  1  0
 29 58  1  0
M  END
>  <smiles>  (39) 
CCC(=O)N(c1ccccc1)C1CCN(C(=O)C2(N)CCc3ccccc32)CC1

>  <score_type>  (39) 
oracle

>  <origin>  (39) 
autodockgpu

>  <m_score__min__energy>  (39) 
-8.0700000000000003

>  <m_primary>  (39) 
energy

>  <meeko>  (39) 
{"free_energy": -6.08, "intermolecular_energy": -7.87, "internal_energy": -2.64, "cluster_size": 5, "cluster_id": 4, "rank_in_cluster": 1}

>  <energy>  (39) 
-5.97

>  <cluster_rmsd>  (39) 
0.15

>  <rmsd>  (39) 
269.77

>  <cluster>  (39) 
5

$$$$

     RDKit          3D

 58 61  0  0  1  0  0  0  0  0999 V2000
  140.3550   71.5530  222.5510 C   0  0  0  0  0  0  0  0  0  0  0  0
  141.0990   71.9450  221.2810 C   0  0  0  0  0  0  0  0  0  0  0  0
  141.2840   73.4060  221.2310 C   0  0  0  0  0  0  0  0  0  0  0  0
  140.7450   74.1370  222.1290 O   0  0  0  0  0  0  0  0  0  0  0  0
  142.0300   74.0980  220.2450 N   0  0  0  0  0  0  0  0  0  0  0  0
  143.3790   73.6400  220.0380 C   0  0  0  0  0  0  0  0  0  0  0  0
  143.6770   72.7090  219.0590 C   0  0  0  0  0  0  0  0  0  0  0  0
  145.0010   72.2970  218.9040 C   0  0  0  0  0  0  0  0  0  0  0  0
  146.0020   72.8200  219.7270 C   0  0  0  0  0  0  0  0  0  0  0  0
  145.6840   73.7580  220.7110 C   0  0  0  0  0  0  0  0  0  0  0  0
  144.3680   74.1610  220.8580 C   0  0  0  0  0  0  0  0  0  0  0  0
  141.5570   75.1910  219.4520 C   0  0  0  0  0  0  0  0  0  0  0  0
  142.7220   75.9600  218.8690 C   0  0  0  0  0  0  0  0  0  0  0  0
  142.2080   77.0580  217.9640 C   0  0  0  0  0  0  0  0  0  0  0  0
  141.3800   77.9370  218.8320 N   0  0  0  0  0  0  0  0  0  0  0  0
  141.8160   79.2650  218.9290 C   0  0  0  0  0  0  0  0  0  0  0  0
  142.8800   79.5340  218.2380 O   0  0  0  0  0  0  0  0  0  0  0  0
  141.2570   80.3730  219.6800 C   0  0  1  0  0  0  0  0  0  0  0  0
  141.8270   81.6440  219.4180 N   0  0  0  0  0  0  0  0  0  0  0  0
  139.7620   80.4600  219.4290 C   0  0  0  0  0  0  0  0  0  0  0  0
  139.3070   81.2710  220.6250 C   0  0  0  0  0  0  0  0  0  0  0  0
  140.1130   80.6700  221.7210 C   0  0  0  0  0  0  0  0  0  0  0  0
  139.9680   80.5400  223.0810 C   0  0  0  0  0  0  0  0  0  0  0  0
  140.9380   79.9040  223.8450 C   0  0  0  0  0  0  0  0  0  0  0  0
  142.0850   79.3800  223.2610 C   0  0  0  0  0  0  0  0  0  0  0  0
  142.2340   79.5090  221.9040 C   0  0  0  0  0  0  0  0  0  0  0  0
  141.2600   80.1440  221.1540 C   0  0  0  0  0  0  0  0  0  0  0  0
  140.2610   77.3130  219.4440 C   0  0  0  0  0  0  0  0  0  0  0  0
  140.6480   76.0920  220.2650 C   0  0  0  0  0  0  0  0  0  0  0  0
  140.9409   71.8617  223.4293 H   0  0  0  0  0  0  0  0  0  0  0  0
  139.3747   72.0517  222.5704 H   0  0  0  0  0  0  0  0  0  0  0  0
  140.2120   70.4625  222.5704 H   0  0  0  0  0  0  0  0  0  0  0  0
  142.0830   71.4534  221.2697 H   0  0  0  0  0  0  0  0  0  0  0  0
  140.5109   71.6272  220.4074 H   0  0  0  0  0  0  0  0  0  0  0  0
  142.8845   72.3010  218.4145 H   0  0  0  0  0  0  0  0  0  0  0  0
  145.2579   71.5577  218.1311 H   0  0  0  0  0  0  0  0  0  0  0  0
  147.0440   72.4915  219.5991 H   0  0  0  0  0  0  0  0  0  0  0  0
  146.4692   74.1714  221.3611 H   0  0  0  0  0  0  0  0  0  0  0  0
  144.1053   74.8991  221.6301 H   0  0  0  0  0  0  0  0  0  0  0  0
  140.9635   74.7900  218.6171 H   0  0  0  0  0  0  0  0  0  0  0  0
  143.3112   76.4046  219.6846 H   0  0  0  0  0  0  0  0  0  0  0  0
  143.3551   75.2747  218.2862 H   0  0  0  0  0  0  0  0  0  0  0  0
  143.0467   77.6242  217.5328 H   0  0  0  0  0  0  0  0  0  0  0  0
  141.6268   76.6530  217.1224 H   0  0  0  0  0  0  0  0  0  0  0  0
  142.6320   81.6320  218.7550 H   0  0  0  0  0  0  0  0  0  0  0  0
  141.1710   82.4340  219.2810 H   0  0  0  0  0  0  0  0  0  0  0  0
  139.5418   80.9780  218.4839 H   0  0  0  0  0  0  0  0  0  0  0  0
  139.2641   79.4841  219.3307 H   0  0  0  0  0  0  0  0  0  0  0  0
  139.5378   82.3388  220.4967 H   0  0  0  0  0  0  0  0  0  0  0  0
  138.2214   81.2387  220.7996 H   0  0  0  0  0  0  0  0  0  0  0  0
  139.0709   80.9454  223.5718 H   0  0  0  0  0  0  0  0  0  0  0  0
  140.7958   79.8134  224.9320 H   0  0  0  0  0  0  0  0  0  0  0  0
  142.8508   78.8766  223.8694 H   0  0  0  0  0  0  0  0  0  0  0  0
  143.1307   79.1064  221.4101 H   0  0  0  0  0  0  0  0  0  0  0  0
  139.7700   78.0414  220.1060 H   0  0  0  0  0  0  0  0  0  0  0  0
  139.5881   76.9754  218.6420 H   0  0  0  0  0  0  0  0  0  0  0  0
  141.1744   76.4161  221.1749 H   0  0  0  0  0  0  0  0  0  0  0  0
  139.7389   75.5369  220.5395 H   0  0  0  0  0  0  0  0  0  0  0  0
  1  2  1  0
  2  3  1  0
  3  4  2  0
  3  5  1  0
  5  6  1  0
  6  7  2  0
  7  8  1  0
  8  9  2  0
  9 10  1  0
 10 11  2  0
  5 12  1  0
 12 13  1  0
 13 14  1  0
 14 15  1  0
 15 16  1  0
 16 17  2  0
 16 18  1  0
 18 19  1  1
 18 20  1  0
 20 21  1  0
 21 22  1  0
 22 23  2  0
 23 24  1  0
 24 25  2  0
 25 26  1  0
 26 27  2  0
 15 28  1  0
 28 29  1  0
 11  6  1  0
 29 12  1  0
 27 18  1  0
 27 22  1  0
  1 30  1  0
  1 31  1  0
  1 32  1  0
  2 33  1  0
  2 34  1  0
  7 35  1  0
  8 36  1  0
  9 37  1  0
 10 38  1  0
 11 39  1  0
 12 40  1  0
 13 41  1  0
 13 42  1  0
 14 43  1  0
 14 44  1  0
 19 45  1  0
 19 46  1  0
 20 47  1  0
 20 48  1  0
 21 49  1  0
 21 50  1  0
 23 51  1  0
 24 52  1  0
 25 53  1  0
 26 54  1  0
 28 55  1  0
 28 56  1  0
 29 57  1  0
 29 58  1  0
M  END
>  <smiles>  (40) 
CCC(=O)N(c1ccccc1)C1CCN(C(=O)C2(N)CCc3ccccc32)CC1

>  <score_type>  (40) 
oracle

>  <origin>  (40) 
autodockgpu

>  <m_score__min__energy>  (40) 
-8.0700000000000003

>  <m_primary>  (40) 
energy

>  <meeko>  (40) 
{"free_energy": -6.33, "intermolecular_energy": -8.12, "internal_energy": -2.32, "cluster_size": 1, "cluster_id": 3, "rank_in_cluster": 1}

>  <energy>  (40) 
-5.96

>  <cluster_rmsd>  (40) 
0.27

>  <rmsd>  (40) 
269.92

>  <cluster>  (40) 
5

$$$$
