YIYSDEKHFQTGLA-QCMVQFAFNA-N
     RDKit          3D

 54 57  0  0  0  0  0  0  0  0999 V2000
  139.0540   74.5630  223.0410 H   0  0  0  0  0  0  0  0  0  0  0  0
  139.4540   74.0290  222.2790 O   0  0  0  0  0  0  0  0  0  0  0  0
  140.5920   74.4580  221.5940 C   0  0  0  0  0  0  0  0  0  0  0  0
  141.0420   73.7510  220.5560 C   0  0  0  0  0  0  0  0  0  0  0  0
  141.7695   72.9450  220.7327 H   0  0  0  0  0  0  0  0  0  0  0  0
  140.4930   74.0790  218.8800 S   0  0  0  0  0  0  0  0  0  0  0  0
  141.4350   75.6040  218.7820 C   0  0  0  0  0  0  0  0  0  0  0  0
  142.7910   75.7760  218.9930 C   0  0  0  0  0  0  0  0  0  0  0  0
  143.8020   74.7350  219.2640 C   0  0  0  0  0  0  0  0  0  0  0  0
  144.0230   73.7170  218.3230 C   0  0  0  0  0  0  0  0  0  0  0  0
  143.4371   73.6961  217.3923 H   0  0  0  0  0  0  0  0  0  0  0  0
  144.9840   72.7290  218.5620 C   0  0  0  0  0  0  0  0  0  0  0  0
  145.1587   71.9403  217.8154 H   0  0  0  0  0  0  0  0  0  0  0  0
  145.7220   72.7430  219.7480 C   0  0  0  0  0  0  0  0  0  0  0  0
  146.6530   71.7840  219.9780 F   0  0  0  0  0  0  0  0  0  0  0  0
  145.4930   73.7390  220.7000 C   0  0  0  0  0  0  0  0  0  0  0  0
  146.0680   73.7443  221.6377 H   0  0  0  0  0  0  0  0  0  0  0  0
  144.5350   74.7290  220.4640 C   0  0  0  0  0  0  0  0  0  0  0  0
  144.3537   75.5069  221.2203 H   0  0  0  0  0  0  0  0  0  0  0  0
  143.0740   77.0930  218.9650 N   0  0  0  0  0  0  0  0  0  0  0  0
  141.8880   77.6940  218.7180 C   0  0  0  0  0  0  0  0  0  0  0  0
  141.7370   79.1670  218.6170 C   0  0  0  0  0  0  0  0  0  0  0  0
  141.9490   80.0030  219.7310 C   0  0  0  0  0  0  0  0  0  0  0  0
  142.2343   79.5631  220.6980 H   0  0  0  0  0  0  0  0  0  0  0  0
  141.7990   81.3890  219.6150 C   0  0  0  0  0  0  0  0  0  0  0  0
  141.9698   82.0339  220.4896 H   0  0  0  0  0  0  0  0  0  0  0  0
  141.4330   81.9570  218.3920 C   0  0  0  0  0  0  0  0  0  0  0  0
  141.2460   83.7350  218.2470 S   0  0  0  0  0  0  0  0  0  0  0  0
  140.5300   83.9180  219.9100 C   0  0  0  0  0  0  0  0  0  0  0  0
  141.3039   83.7202  220.6662 H   0  0  0  0  0  0  0  0  0  0  0  0
  140.1490   84.9424  220.0345 H   0  0  0  0  0  0  0  0  0  0  0  0
  139.7042   83.2020  220.0345 H   0  0  0  0  0  0  0  0  0  0  0  0
  141.2200   81.1360  217.2800 C   0  0  0  0  0  0  0  0  0  0  0  0
  140.9353   81.5814  216.3153 H   0  0  0  0  0  0  0  0  0  0  0  0
  141.3680   79.7520  217.3920 C   0  0  0  0  0  0  0  0  0  0  0  0
  141.1943   79.1129  216.5137 H   0  0  0  0  0  0  0  0  0  0  0  0
  140.8730   76.8090  218.6040 N   0  0  0  0  0  0  0  0  0  0  0  0
  139.8570   76.9980  218.4630 H   0  0  0  0  0  0  0  0  0  0  0  0
  141.3000   75.6350  222.0160 N   0  0  0  0  0  0  0  0  0  0  0  0
  142.3230   75.5510  222.2170 H   0  0  0  0  0  0  0  0  0  0  0  0
  140.6770   76.9130  222.2200 C   0  0  0  0  0  0  0  0  0  0  0  0
  139.3280   77.1250  221.8890 C   0  0  0  0  0  0  0  0  0  0  0  0
  138.7227   76.2944  221.4971 H   0  0  0  0  0  0  0  0  0  0  0  0
  138.7530   78.3870  222.0560 C   0  0  0  0  0  0  0  0  0  0  0  0
  137.6953   78.5456  221.7990 H   0  0  0  0  0  0  0  0  0  0  0  0
  139.5160   79.4480  222.5480 C   0  0  0  0  0  0  0  0  0  0  0  0
  139.0583   80.4409  222.6694 H   0  0  0  0  0  0  0  0  0  0  0  0
  140.8660   79.2540  222.8890 C   0  0  0  0  0  0  0  0  0  0  0  0
  141.7070   80.4130  223.3650 C   0  0  0  0  0  0  0  0  0  0  0  0
  142.4780   80.9140  222.3310 F   0  0  0  0  0  0  0  0  0  0  0  0
  142.5410   79.9820  224.3800 F   0  0  0  0  0  0  0  0  0  0  0  0
  140.9050   81.4350  223.8430 F   0  0  0  0  0  0  0  0  0  0  0  0
  141.4450   77.9880  222.6920 C   0  0  0  0  0  0  0  0  0  0  0  0
  142.5127   77.8386  222.9105 H   0  0  0  0  0  0  0  0  0  0  0  0
  1  2  1  0
  2  3  1  0
  3  4  2  0
  4  5  1  0
  4  6  1  0
  6  7  1  0
  7  8  2  0
  8  9  1  0
  9 10  2  0
 10 11  1  0
 10 12  1  0
 12 13  1  0
 12 14  2  0
 14 15  1  0
 14 16  1  0
 16 17  1  0
 16 18  2  0
 18 19  1  0
  8 20  1  0
 20 21  2  0
 21 22  1  0
 22 23  2  0
 23 24  1  0
 23 25  1  0
 25 26  1  0
 25 27  2  0
 27 28  1  0
 28 29  1  0
 29 30  1  0
 29 31  1  0
 29 32  1  0
 27 33  1  0
 33 34  1  0
 33 35  2  0
 35 36  1  0
 21 37  1  0
 37 38  1  0
  3 39  1  0
 39 40  1  0
 39 41  1  0
 41 42  2  0
 42 43  1  0
 42 44  1  0
 44 45  1  0
 44 46  2  0
 46 47  1  0
 46 48  1  0
 48 49  1  0
 49 50  1  0
 49 51  1  0
 49 52  1  0
 48 53  2  0
 53 54  1  0
 37  7  1  0
 53 41  1  0
 18  9  1  0
 35 22  1  0
M  END
>  <UniqueID>  (1) 
5

>  <SMILES>  (1) 
CSc1ccc(-c2nc(-c3ccc(F)cc3)c(S/C=C(\O)Nc3cccc(C(F)(F)F)c3)[nH]2)cc1

>  <Energy>  (1) 
87.19671064561335

>  <Genealogy>  (1) 
CSc1ccc(-c2nc(-c3ccc(F)cc3)c(SC=C(O)Nc3cccc(C(F)(F)F)c3)[nH]2)cc1 (tautomer)
CSc1ccc(-c2nc(-c3ccc(F)cc3)c(S/C=C(\O)Nc3cccc(C(F)(F)F)c3)[nH]2)cc1 (cis-trans isomerization)
CSc1ccc(-c2nc(-c3ccc(F)cc3)c(S/C=C(\O)Nc3cccc(C(F)(F)F)c3)[nH]2)cc1 (3D coordinates assigned)
CSc1ccc(-c2nc(-c3ccc(F)cc3)c(S/C=C(\O)Nc3cccc(C(F)(F)F)c3)[nH]2)cc1 (optimized conformer: 87.19671064561335 kcal/mol)

>  <smiles>  (1) 
CSc1ccc(-c2nc(-c3ccc(F)cc3)c(SCC(=O)Nc3cccc(C(F)(F)F)c3)[nH]2)cc1

>  <score_type>  (1) 
oracle

>  <origin>  (1) 
autodockgpu

>  <m_score__min__energy>  (1) 
-8.5999999999999996

>  <m_primary>  (1) 
energy

>  <meeko>  (1) 
{"free_energy": -6.79, "intermolecular_energy": -9.78, "internal_energy": -2.61, "cluster_size": 8, "cluster_id": 3, "rank_in_cluster": 7}

>  <energy>  (1) 
-8.6

>  <cluster_rmsd>  (1) 
0.0

>  <rmsd>  (1) 
271.19

>  <cluster>  (1) 
1

$$$$
YIYSDEKHFQTGLA-QCMVQFAFNA-N
     RDKit          3D

 54 57  0  0  0  0  0  0  0  0999 V2000
  137.9280   75.3840  223.4820 H   0  0  0  0  0  0  0  0  0  0  0  0
  138.4510   76.1780  223.1330 O   0  0  0  0  0  0  0  0  0  0  0  0
  139.5780   76.0240  222.3240 C   0  0  0  0  0  0  0  0  0  0  0  0
  139.5310   75.1980  221.2770 C   0  0  0  0  0  0  0  0  0  0  0  0
  138.6290   75.1826  220.6476 H   0  0  0  0  0  0  0  0  0  0  0  0
  140.8990   74.1120  220.8680 S   0  0  0  0  0  0  0  0  0  0  0  0
  141.8060   75.4290  220.0510 C   0  0  0  0  0  0  0  0  0  0  0  0
  143.1250   75.4170  219.6360 C   0  0  0  0  0  0  0  0  0  0  0  0
  144.0780   74.2910  219.6860 C   0  0  0  0  0  0  0  0  0  0  0  0
  144.0510   73.3110  218.6820 C   0  0  0  0  0  0  0  0  0  0  0  0
  143.3158   73.3830  217.8670 H   0  0  0  0  0  0  0  0  0  0  0  0
  144.9540   72.2430  218.7120 C   0  0  0  0  0  0  0  0  0  0  0  0
  144.9346   71.4848  217.9153 H   0  0  0  0  0  0  0  0  0  0  0  0
  145.8800   72.1380  219.7520 C   0  0  0  0  0  0  0  0  0  0  0  0
  146.7550   71.1020  219.7800 F   0  0  0  0  0  0  0  0  0  0  0  0
  145.8990   73.0960  220.7690 C   0  0  0  0  0  0  0  0  0  0  0  0
  146.6225   73.0080  221.5929 H   0  0  0  0  0  0  0  0  0  0  0  0
  145.0000   74.1660  220.7410 C   0  0  0  0  0  0  0  0  0  0  0  0
  145.0136   74.9137  221.5477 H   0  0  0  0  0  0  0  0  0  0  0  0
  143.4580   76.6490  219.2010 N   0  0  0  0  0  0  0  0  0  0  0  0
  142.3280   77.3790  219.3420 C   0  0  0  0  0  0  0  0  0  0  0  0
  142.2510   78.8180  218.9870 C   0  0  0  0  0  0  0  0  0  0  0  0
  141.8260   79.7820  219.9230 C   0  0  0  0  0  0  0  0  0  0  0  0
  141.5466   79.4696  220.9400 H   0  0  0  0  0  0  0  0  0  0  0  0
  141.7570   81.1330  219.5680 C   0  0  0  0  0  0  0  0  0  0  0  0
  141.4271   81.8781  220.3069 H   0  0  0  0  0  0  0  0  0  0  0  0
  142.1060   81.5390  218.2770 C   0  0  0  0  0  0  0  0  0  0  0  0
  142.0210   83.2730  217.8260 S   0  0  0  0  0  0  0  0  0  0  0  0
  143.6890   83.2920  217.1000 C   0  0  0  0  0  0  0  0  0  0  0  0
  144.4390   83.3005  217.9046 H   0  0  0  0  0  0  0  0  0  0  0  0
  143.8285   82.3954  216.4782 H   0  0  0  0  0  0  0  0  0  0  0  0
  143.8080   84.1916  216.4782 H   0  0  0  0  0  0  0  0  0  0  0  0
  142.5280   80.5910  217.3400 C   0  0  0  0  0  0  0  0  0  0  0  0
  142.8063   80.9094  216.3246 H   0  0  0  0  0  0  0  0  0  0  0  0
  142.5970   79.2410  217.6900 C   0  0  0  0  0  0  0  0  0  0  0  0
  142.9249   78.5011  216.9450 H   0  0  0  0  0  0  0  0  0  0  0  0
  141.3080   76.6600  219.8600 N   0  0  0  0  0  0  0  0  0  0  0  0
  140.3490   76.9820  220.1150 H   0  0  0  0  0  0  0  0  0  0  0  0
  140.7980   76.7210  222.6280 N   0  0  0  0  0  0  0  0  0  0  0  0
  141.6840   76.1670  222.6800 H   0  0  0  0  0  0  0  0  0  0  0  0
  140.8670   78.1280  222.9060 C   0  0  0  0  0  0  0  0  0  0  0  0
  142.0970   78.7640  223.1400 C   0  0  0  0  0  0  0  0  0  0  0  0
  143.0320   78.1877  223.0788 H   0  0  0  0  0  0  0  0  0  0  0  0
  142.1380   80.1250  223.4500 C   0  0  0  0  0  0  0  0  0  0  0  0
  143.1052   80.6176  223.6286 H   0  0  0  0  0  0  0  0  0  0  0  0
  140.9550   80.8630  223.5340 C   0  0  0  0  0  0  0  0  0  0  0  0
  140.9942   81.9332  223.7853 H   0  0  0  0  0  0  0  0  0  0  0  0
  139.7150   80.2450  223.2990 C   0  0  0  0  0  0  0  0  0  0  0  0
  138.4320   81.0270  223.4490 C   0  0  0  0  0  0  0  0  0  0  0  0
  138.2190   81.3670  224.7730 F   0  0  0  0  0  0  0  0  0  0  0  0
  137.3750   80.2530  223.0070 F   0  0  0  0  0  0  0  0  0  0  0  0
  138.4810   82.1920  222.7040 F   0  0  0  0  0  0  0  0  0  0  0  0
  139.6800   78.8680  223.0150 C   0  0  0  0  0  0  0  0  0  0  0  0
  138.7112   78.3656  222.8768 H   0  0  0  0  0  0  0  0  0  0  0  0
  1  2  1  0
  2  3  1  0
  3  4  2  0
  4  5  1  0
  4  6  1  0
  6  7  1  0
  7  8  2  0
  8  9  1  0
  9 10  2  0
 10 11  1  0
 10 12  1  0
 12 13  1  0
 12 14  2  0
 14 15  1  0
 14 16  1  0
 16 17  1  0
 16 18  2  0
 18 19  1  0
  8 20  1  0
 20 21  2  0
 21 22  1  0
 22 23  2  0
 23 24  1  0
 23 25  1  0
 25 26  1  0
 25 27  2  0
 27 28  1  0
 28 29  1  0
 29 30  1  0
 29 31  1  0
 29 32  1  0
 27 33  1  0
 33 34  1  0
 33 35  2  0
 35 36  1  0
 21 37  1  0
 37 38  1  0
  3 39  1  0
 39 40  1  0
 39 41  1  0
 41 42  2  0
 42 43  1  0
 42 44  1  0
 44 45  1  0
 44 46  2  0
 46 47  1  0
 46 48  1  0
 48 49  1  0
 49 50  1  0
 49 51  1  0
 49 52  1  0
 48 53  2  0
 53 54  1  0
 37  7  1  0
 53 41  1  0
 18  9  1  0
 35 22  1  0
M  END
>  <UniqueID>  (2) 
5

>  <SMILES>  (2) 
CSc1ccc(-c2nc(-c3ccc(F)cc3)c(S/C=C(\O)Nc3cccc(C(F)(F)F)c3)[nH]2)cc1

>  <Energy>  (2) 
87.19671064561335

>  <Genealogy>  (2) 
CSc1ccc(-c2nc(-c3ccc(F)cc3)c(SC=C(O)Nc3cccc(C(F)(F)F)c3)[nH]2)cc1 (tautomer)
CSc1ccc(-c2nc(-c3ccc(F)cc3)c(S/C=C(\O)Nc3cccc(C(F)(F)F)c3)[nH]2)cc1 (cis-trans isomerization)
CSc1ccc(-c2nc(-c3ccc(F)cc3)c(S/C=C(\O)Nc3cccc(C(F)(F)F)c3)[nH]2)cc1 (3D coordinates assigned)
CSc1ccc(-c2nc(-c3ccc(F)cc3)c(S/C=C(\O)Nc3cccc(C(F)(F)F)c3)[nH]2)cc1 (optimized conformer: 87.19671064561335 kcal/mol)

>  <smiles>  (2) 
CSc1ccc(-c2nc(-c3ccc(F)cc3)c(SCC(=O)Nc3cccc(C(F)(F)F)c3)[nH]2)cc1

>  <score_type>  (2) 
oracle

>  <origin>  (2) 
autodockgpu

>  <m_score__min__energy>  (2) 
-8.5999999999999996

>  <m_primary>  (2) 
energy

>  <meeko>  (2) 
{"free_energy": -7.86, "intermolecular_energy": -10.84, "internal_energy": -2.09, "cluster_size": 8, "cluster_id": 3, "rank_in_cluster": 1}

>  <energy>  (2) 
-8.11

>  <cluster_rmsd>  (2) 
1.46

>  <rmsd>  (2) 
271.0

>  <cluster>  (2) 
1

$$$$
YIYSDEKHFQTGLA-QCMVQFAFNA-N
     RDKit          3D

 54 57  0  0  0  0  0  0  0  0999 V2000
  139.1000   73.7700  223.0640 H   0  0  0  0  0  0  0  0  0  0  0  0
  139.9510   73.8110  222.5180 O   0  0  0  0  0  0  0  0  0  0  0  0
  140.1930   74.8370  221.6030 C   0  0  0  0  0  0  0  0  0  0  0  0
  139.6220   74.7940  220.3970 C   0  0  0  0  0  0  0  0  0  0  0  0
  138.5794   75.1269  220.2864 H   0  0  0  0  0  0  0  0  0  0  0  0
  140.5090   74.2080  218.9520 S   0  0  0  0  0  0  0  0  0  0  0  0
  141.4830   75.7120  218.8380 C   0  0  0  0  0  0  0  0  0  0  0  0
  142.8480   75.8520  219.0120 C   0  0  0  0  0  0  0  0  0  0  0  0
  143.8420   74.7870  219.2480 C   0  0  0  0  0  0  0  0  0  0  0  0
  144.5210   74.7280  220.4760 C   0  0  0  0  0  0  0  0  0  0  0  0
  144.3131   75.4785  221.2529 H   0  0  0  0  0  0  0  0  0  0  0  0
  145.4600   73.7200  220.7160 C   0  0  0  0  0  0  0  0  0  0  0  0
  145.9800   73.6732  221.6842 H   0  0  0  0  0  0  0  0  0  0  0  0
  145.7390   72.7720  219.7280 C   0  0  0  0  0  0  0  0  0  0  0  0
  146.6500   71.7950  219.9640 F   0  0  0  0  0  0  0  0  0  0  0  0
  145.0860   72.8370  218.4950 C   0  0  0  0  0  0  0  0  0  0  0  0
  145.3121   72.0958  217.7143 H   0  0  0  0  0  0  0  0  0  0  0  0
  144.1450   73.8430  218.2510 C   0  0  0  0  0  0  0  0  0  0  0  0
  143.6401   73.8957  217.2752 H   0  0  0  0  0  0  0  0  0  0  0  0
  143.1600   77.1630  218.9860 N   0  0  0  0  0  0  0  0  0  0  0  0
  141.9810   77.7920  218.7760 C   0  0  0  0  0  0  0  0  0  0  0  0
  141.8610   79.2690  218.6890 C   0  0  0  0  0  0  0  0  0  0  0  0
  142.7150   80.0260  217.8630 C   0  0  0  0  0  0  0  0  0  0  0  0
  143.4870   79.5194  217.2651 H   0  0  0  0  0  0  0  0  0  0  0  0
  142.5880   81.4170  217.7980 C   0  0  0  0  0  0  0  0  0  0  0  0
  143.2575   81.9990  217.1475 H   0  0  0  0  0  0  0  0  0  0  0  0
  141.6130   82.0700  218.5570 C   0  0  0  0  0  0  0  0  0  0  0  0
  141.4500   83.8550  218.4670 S   0  0  0  0  0  0  0  0  0  0  0  0
  142.7280   84.0280  217.1830 C   0  0  0  0  0  0  0  0  0  0  0  0
  143.7106   84.1610  217.6592 H   0  0  0  0  0  0  0  0  0  0  0  0
  142.7434   83.1238  216.5568 H   0  0  0  0  0  0  0  0  0  0  0  0
  142.5025   84.9038  216.5568 H   0  0  0  0  0  0  0  0  0  0  0  0
  140.7610   81.3290  219.3800 C   0  0  0  0  0  0  0  0  0  0  0  0
  139.9907   81.8413  219.9751 H   0  0  0  0  0  0  0  0  0  0  0  0
  140.8850   79.9390  219.4490 C   0  0  0  0  0  0  0  0  0  0  0  0
  140.2136   79.3636  220.1033 H   0  0  0  0  0  0  0  0  0  0  0  0
  140.9430   76.9310  218.6850 N   0  0  0  0  0  0  0  0  0  0  0  0
  139.9290   77.1440  218.5740 H   0  0  0  0  0  0  0  0  0  0  0  0
  141.0770   75.9210  221.9350 N   0  0  0  0  0  0  0  0  0  0  0  0
  142.1080   75.7430  221.9140 H   0  0  0  0  0  0  0  0  0  0  0  0
  140.6280   77.2240  222.3360 C   0  0  0  0  0  0  0  0  0  0  0  0
  139.2620   77.5000  222.5130 C   0  0  0  0  0  0  0  0  0  0  0  0
  138.5193   76.7003  222.3755 H   0  0  0  0  0  0  0  0  0  0  0  0
  138.8430   78.7860  222.8630 C   0  0  0  0  0  0  0  0  0  0  0  0
  137.7721   78.9945  223.0035 H   0  0  0  0  0  0  0  0  0  0  0  0
  139.7790   79.8070  223.0350 C   0  0  0  0  0  0  0  0  0  0  0  0
  139.4412   80.8188  223.3036 H   0  0  0  0  0  0  0  0  0  0  0  0
  141.1510   79.5500  222.8670 C   0  0  0  0  0  0  0  0  0  0  0  0
  142.1580   80.6670  222.9940 C   0  0  0  0  0  0  0  0  0  0  0  0
  141.9230   81.6480  222.0470 F   0  0  0  0  0  0  0  0  0  0  0  0
  143.4290   80.1550  222.8060 F   0  0  0  0  0  0  0  0  0  0  0  0
  142.0870   81.2480  224.2480 F   0  0  0  0  0  0  0  0  0  0  0  0
  141.5620   78.2600  222.4870 C   0  0  0  0  0  0  0  0  0  0  0  0
  142.6285   78.0608  222.3060 H   0  0  0  0  0  0  0  0  0  0  0  0
  1  2  1  0
  2  3  1  0
  3  4  2  0
  4  5  1  0
  4  6  1  0
  6  7  1  0
  7  8  2  0
  8  9  1  0
  9 10  2  0
 10 11  1  0
 10 12  1  0
 12 13  1  0
 12 14  2  0
 14 15  1  0
 14 16  1  0
 16 17  1  0
 16 18  2  0
 18 19  1  0
  8 20  1  0
 20 21  2  0
 21 22  1  0
 22 23  2  0
 23 24  1  0
 23 25  1  0
 25 26  1  0
 25 27  2  0
 27 28  1  0
 28 29  1  0
 29 30  1  0
 29 31  1  0
 29 32  1  0
 27 33  1  0
 33 34  1  0
 33 35  2  0
 35 36  1  0
 21 37  1  0
 37 38  1  0
  3 39  1  0
 39 40  1  0
 39 41  1  0
 41 42  2  0
 42 43  1  0
 42 44  1  0
 44 45  1  0
 44 46  2  0
 46 47  1  0
 46 48  1  0
 48 49  1  0
 49 50  1  0
 49 51  1  0
 49 52  1  0
 48 53  2  0
 53 54  1  0
 37  7  1  0
 53 41  1  0
 18  9  1  0
 35 22  1  0
M  END
>  <UniqueID>  (3) 
5

>  <SMILES>  (3) 
CSc1ccc(-c2nc(-c3ccc(F)cc3)c(S/C=C(\O)Nc3cccc(C(F)(F)F)c3)[nH]2)cc1

>  <Energy>  (3) 
87.19671064561335

>  <Genealogy>  (3) 
CSc1ccc(-c2nc(-c3ccc(F)cc3)c(SC=C(O)Nc3cccc(C(F)(F)F)c3)[nH]2)cc1 (tautomer)
CSc1ccc(-c2nc(-c3ccc(F)cc3)c(S/C=C(\O)Nc3cccc(C(F)(F)F)c3)[nH]2)cc1 (cis-trans isomerization)
CSc1ccc(-c2nc(-c3ccc(F)cc3)c(S/C=C(\O)Nc3cccc(C(F)(F)F)c3)[nH]2)cc1 (3D coordinates assigned)
CSc1ccc(-c2nc(-c3ccc(F)cc3)c(S/C=C(\O)Nc3cccc(C(F)(F)F)c3)[nH]2)cc1 (optimized conformer: 87.19671064561335 kcal/mol)

>  <smiles>  (3) 
CSc1ccc(-c2nc(-c3ccc(F)cc3)c(SCC(=O)Nc3cccc(C(F)(F)F)c3)[nH]2)cc1

>  <score_type>  (3) 
oracle

>  <origin>  (3) 
autodockgpu

>  <m_score__min__energy>  (3) 
-8.5999999999999996

>  <m_primary>  (3) 
energy

>  <meeko>  (3) 
{"free_energy": -7.6, "intermolecular_energy": -10.58, "internal_energy": -2.58, "cluster_size": 8, "cluster_id": 3, "rank_in_cluster": 3}

>  <energy>  (3) 
-7.95

>  <cluster_rmsd>  (3) 
1.4

>  <rmsd>  (3) 
271.07

>  <cluster>  (3) 
1

$$$$
YIYSDEKHFQTGLA-QCMVQFAFNA-N
     RDKit          3D

 54 57  0  0  0  0  0  0  0  0999 V2000
  139.1970   73.9070  223.1020 H   0  0  0  0  0  0  0  0  0  0  0  0
  139.9410   73.2210  223.0540 O   0  0  0  0  0  0  0  0  0  0  0  0
  139.7490   71.9600  222.4880 C   0  0  0  0  0  0  0  0  0  0  0  0
  139.1840   71.8560  221.2840 C   0  0  0  0  0  0  0  0  0  0  0  0
  138.1649   71.4496  221.2045 H   0  0  0  0  0  0  0  0  0  0  0  0
  140.0410   72.3610  219.7910 S   0  0  0  0  0  0  0  0  0  0  0  0
  140.5650   73.9160  220.5210 C   0  0  0  0  0  0  0  0  0  0  0  0
  141.8520   74.3090  220.8410 C   0  0  0  0  0  0  0  0  0  0  0  0
  143.1100   73.5830  220.5810 C   0  0  0  0  0  0  0  0  0  0  0  0
  143.0930   72.1840  220.4570 C   0  0  0  0  0  0  0  0  0  0  0  0
  142.1441   71.6373  220.5602 H   0  0  0  0  0  0  0  0  0  0  0  0
  144.2760   71.4820  220.2030 C   0  0  0  0  0  0  0  0  0  0  0  0
  144.2533   70.3874  220.0968 H   0  0  0  0  0  0  0  0  0  0  0  0
  145.4870   72.1700  220.0840 C   0  0  0  0  0  0  0  0  0  0  0  0
  146.6330   71.4880  219.8370 F   0  0  0  0  0  0  0  0  0  0  0  0
  145.5170   73.5600  220.2290 C   0  0  0  0  0  0  0  0  0  0  0  0
  146.4712   74.1006  220.1439 H   0  0  0  0  0  0  0  0  0  0  0  0
  144.3360   74.2640  220.4820 C   0  0  0  0  0  0  0  0  0  0  0  0
  144.3661   75.3568  220.6043 H   0  0  0  0  0  0  0  0  0  0  0  0
  141.7990   75.4840  221.5010 N   0  0  0  0  0  0  0  0  0  0  0  0
  140.4820   75.7900  221.5500 C   0  0  0  0  0  0  0  0  0  0  0  0
  139.9660   77.0150  222.2100 C   0  0  0  0  0  0  0  0  0  0  0  0
  138.5830   77.2620  222.3180 C   0  0  0  0  0  0  0  0  0  0  0  0
  137.8649   76.5354  221.9100 H   0  0  0  0  0  0  0  0  0  0  0  0
  138.1170   78.4240  222.9400 C   0  0  0  0  0  0  0  0  0  0  0  0
  137.0352   78.6055  223.0224 H   0  0  0  0  0  0  0  0  0  0  0  0
  139.0200   79.3550  223.4570 C   0  0  0  0  0  0  0  0  0  0  0  0
  138.4180   80.8430  224.2590 S   0  0  0  0  0  0  0  0  0  0  0  0
  138.1080   81.7090  222.6890 C   0  0  0  0  0  0  0  0  0  0  0  0
  137.7440   82.7260  222.8969 H   0  0  0  0  0  0  0  0  0  0  0  0
  139.0419   81.7650  222.1105 H   0  0  0  0  0  0  0  0  0  0  0  0
  137.3507   81.1596  222.1105 H   0  0  0  0  0  0  0  0  0  0  0  0
  140.3950   79.1210  223.3560 C   0  0  0  0  0  0  0  0  0  0  0  0
  141.1078   79.8510  223.7672 H   0  0  0  0  0  0  0  0  0  0  0  0
  140.8650   77.9620  222.7340 C   0  0  0  0  0  0  0  0  0  0  0  0
  141.9481   77.7880  222.6531 H   0  0  0  0  0  0  0  0  0  0  0  0
  139.7090   74.8500  220.9630 N   0  0  0  0  0  0  0  0  0  0  0  0
  138.6690   74.8090  220.9000 H   0  0  0  0  0  0  0  0  0  0  0  0
  140.1250   70.7720  223.2050 N   0  0  0  0  0  0  0  0  0  0  0  0
  140.2120   69.8770  222.6690 H   0  0  0  0  0  0  0  0  0  0  0  0
  140.3470   70.7300  224.6230 C   0  0  0  0  0  0  0  0  0  0  0  0
  140.7920   71.8640  225.3230 C   0  0  0  0  0  0  0  0  0  0  0  0
  140.9441   72.8131  224.7882 H   0  0  0  0  0  0  0  0  0  0  0  0
  141.0420   71.7910  226.6950 C   0  0  0  0  0  0  0  0  0  0  0  0
  141.3864   72.6836  227.2379 H   0  0  0  0  0  0  0  0  0  0  0  0
  140.8560   70.5880  227.3800 C   0  0  0  0  0  0  0  0  0  0  0  0
  141.0623   70.5359  228.4592 H   0  0  0  0  0  0  0  0  0  0  0  0
  140.4070   69.4440  226.6990 C   0  0  0  0  0  0  0  0  0  0  0  0
  140.2630   68.1300  227.4250 C   0  0  0  0  0  0  0  0  0  0  0  0
  139.2130   67.3950  226.9040 F   0  0  0  0  0  0  0  0  0  0  0  0
  140.0190   68.3760  228.7640 F   0  0  0  0  0  0  0  0  0  0  0  0
  141.4190   67.3780  227.3080 F   0  0  0  0  0  0  0  0  0  0  0  0
  140.1840   69.5190  225.3120 C   0  0  0  0  0  0  0  0  0  0  0  0
  139.8782   68.6173  224.7612 H   0  0  0  0  0  0  0  0  0  0  0  0
  1  2  1  0
  2  3  1  0
  3  4  2  0
  4  5  1  0
  4  6  1  0
  6  7  1  0
  7  8  2  0
  8  9  1  0
  9 10  2  0
 10 11  1  0
 10 12  1  0
 12 13  1  0
 12 14  2  0
 14 15  1  0
 14 16  1  0
 16 17  1  0
 16 18  2  0
 18 19  1  0
  8 20  1  0
 20 21  2  0
 21 22  1  0
 22 23  2  0
 23 24  1  0
 23 25  1  0
 25 26  1  0
 25 27  2  0
 27 28  1  0
 28 29  1  0
 29 30  1  0
 29 31  1  0
 29 32  1  0
 27 33  1  0
 33 34  1  0
 33 35  2  0
 35 36  1  0
 21 37  1  0
 37 38  1  0
  3 39  1  0
 39 40  1  0
 39 41  1  0
 41 42  2  0
 42 43  1  0
 42 44  1  0
 44 45  1  0
 44 46  2  0
 46 47  1  0
 46 48  1  0
 48 49  1  0
 49 50  1  0
 49 51  1  0
 49 52  1  0
 48 53  2  0
 53 54  1  0
 37  7  1  0
 53 41  1  0
 18  9  1  0
 35 22  1  0
M  END
>  <UniqueID>  (4) 
5

>  <SMILES>  (4) 
CSc1ccc(-c2nc(-c3ccc(F)cc3)c(S/C=C(\O)Nc3cccc(C(F)(F)F)c3)[nH]2)cc1

>  <Energy>  (4) 
87.19671064561335

>  <Genealogy>  (4) 
CSc1ccc(-c2nc(-c3ccc(F)cc3)c(SC=C(O)Nc3cccc(C(F)(F)F)c3)[nH]2)cc1 (tautomer)
CSc1ccc(-c2nc(-c3ccc(F)cc3)c(S/C=C(\O)Nc3cccc(C(F)(F)F)c3)[nH]2)cc1 (cis-trans isomerization)
CSc1ccc(-c2nc(-c3ccc(F)cc3)c(S/C=C(\O)Nc3cccc(C(F)(F)F)c3)[nH]2)cc1 (3D coordinates assigned)
CSc1ccc(-c2nc(-c3ccc(F)cc3)c(S/C=C(\O)Nc3cccc(C(F)(F)F)c3)[nH]2)cc1 (optimized conformer: 87.19671064561335 kcal/mol)

>  <smiles>  (4) 
CSc1ccc(-c2nc(-c3ccc(F)cc3)c(SCC(=O)Nc3cccc(C(F)(F)F)c3)[nH]2)cc1

>  <score_type>  (4) 
oracle

>  <origin>  (4) 
autodockgpu

>  <m_score__min__energy>  (4) 
-8.5999999999999996

>  <m_primary>  (4) 
energy

>  <meeko>  (4) 
{"free_energy": -8.47, "intermolecular_energy": -11.45, "internal_energy": -1.21, "cluster_size": 1, "cluster_id": 2, "rank_in_cluster": 1}

>  <energy>  (4) 
-7.88

>  <cluster_rmsd>  (4) 
1.51

>  <rmsd>  (4) 
270.94

>  <cluster>  (4) 
1

$$$$
YIYSDEKHFQTGLA-QCMVQFAFNA-N
     RDKit          3D

 54 57  0  0  0  0  0  0  0  0999 V2000
  142.4200   75.6070  222.0360 H   0  0  0  0  0  0  0  0  0  0  0  0
  141.4550   75.6400  222.3420 O   0  0  0  0  0  0  0  0  0  0  0  0
  140.4780   76.3360  221.6300 C   0  0  0  0  0  0  0  0  0  0  0  0
  140.1230   75.9170  220.4130 C   0  0  0  0  0  0  0  0  0  0  0  0
  140.5117   76.4455  219.5301 H   0  0  0  0  0  0  0  0  0  0  0  0
  139.0290   74.5150  220.1800 S   0  0  0  0  0  0  0  0  0  0  0  0
  139.9240   73.5140  221.3720 C   0  0  0  0  0  0  0  0  0  0  0  0
  141.1950   72.9830  221.2470 C   0  0  0  0  0  0  0  0  0  0  0  0
  142.1530   73.1830  220.1420 C   0  0  0  0  0  0  0  0  0  0  0  0
  143.4330   73.6910  220.4140 C   0  0  0  0  0  0  0  0  0  0  0  0
  143.7132   73.9434  221.4473 H   0  0  0  0  0  0  0  0  0  0  0  0
  144.3540   73.8780  219.3780 C   0  0  0  0  0  0  0  0  0  0  0  0
  145.3586   74.2674  219.5999 H   0  0  0  0  0  0  0  0  0  0  0  0
  144.0000   73.5710  218.0620 C   0  0  0  0  0  0  0  0  0  0  0  0
  144.8950   73.7520  217.0590 F   0  0  0  0  0  0  0  0  0  0  0  0
  142.7210   73.0860  217.7790 C   0  0  0  0  0  0  0  0  0  0  0  0
  142.4395   72.8524  216.7416 H   0  0  0  0  0  0  0  0  0  0  0  0
  141.7980   72.8970  218.8120 C   0  0  0  0  0  0  0  0  0  0  0  0
  140.7893   72.5228  218.5831 H   0  0  0  0  0  0  0  0  0  0  0  0
  141.4370   72.1770  222.3000 N   0  0  0  0  0  0  0  0  0  0  0  0
  140.3170   72.2510  223.0530 C   0  0  0  0  0  0  0  0  0  0  0  0
  140.1480   71.4960  224.3200 C   0  0  0  0  0  0  0  0  0  0  0  0
  139.2590   70.4070  224.4120 C   0  0  0  0  0  0  0  0  0  0  0  0
  138.6762   70.1019  223.5303 H   0  0  0  0  0  0  0  0  0  0  0  0
  139.1120   69.7110  225.6160 C   0  0  0  0  0  0  0  0  0  0  0  0
  138.4173   68.8602  225.6762 H   0  0  0  0  0  0  0  0  0  0  0  0
  139.8450   70.0930  226.7430 C   0  0  0  0  0  0  0  0  0  0  0  0
  139.6580   69.1950  228.2840 S   0  0  0  0  0  0  0  0  0  0  0  0
  141.1180   68.1480  227.9920 C   0  0  0  0  0  0  0  0  0  0  0  0
  141.5473   67.8401  228.9568 H   0  0  0  0  0  0  0  0  0  0  0  0
  140.8211   67.2557  227.4214 H   0  0  0  0  0  0  0  0  0  0  0  0
  141.8679   68.7154  227.4214 H   0  0  0  0  0  0  0  0  0  0  0  0
  140.7300   71.1720  226.6630 C   0  0  0  0  0  0  0  0  0  0  0  0
  141.3109   71.4715  227.5478 H   0  0  0  0  0  0  0  0  0  0  0  0
  140.8790   71.8710  225.4630 C   0  0  0  0  0  0  0  0  0  0  0  0
  141.5738   72.7222  225.4107 H   0  0  0  0  0  0  0  0  0  0  0  0
  139.3780   73.0570  222.5090 N   0  0  0  0  0  0  0  0  0  0  0  0
  138.4130   73.2540  222.8510 H   0  0  0  0  0  0  0  0  0  0  0  0
  139.8730   77.5190  222.1810 N   0  0  0  0  0  0  0  0  0  0  0  0
  138.8400   77.5140  222.3480 H   0  0  0  0  0  0  0  0  0  0  0  0
  140.5970   78.7230  222.4770 C   0  0  0  0  0  0  0  0  0  0  0  0
  141.5760   78.7540  223.4830 C   0  0  0  0  0  0  0  0  0  0  0  0
  141.8219   77.8357  224.0364 H   0  0  0  0  0  0  0  0  0  0  0  0
  142.2390   79.9460  223.7840 C   0  0  0  0  0  0  0  0  0  0  0  0
  143.0071   79.9623  224.5712 H   0  0  0  0  0  0  0  0  0  0  0  0
  141.9300   81.1170  223.0890 C   0  0  0  0  0  0  0  0  0  0  0  0
  142.4512   82.0536  223.3360 H   0  0  0  0  0  0  0  0  0  0  0  0
  140.9560   81.1050  222.0750 C   0  0  0  0  0  0  0  0  0  0  0  0
  140.5780   82.3820  221.3650 C   0  0  0  0  0  0  0  0  0  0  0  0
  139.3240   82.8110  221.7640 F   0  0  0  0  0  0  0  0  0  0  0  0
  140.5640   82.1550  220.0010 F   0  0  0  0  0  0  0  0  0  0  0  0
  141.4890   83.3850  221.6460 F   0  0  0  0  0  0  0  0  0  0  0  0
  140.2730   79.9070  221.7980 C   0  0  0  0  0  0  0  0  0  0  0  0
  139.4757   79.8984  221.0403 H   0  0  0  0  0  0  0  0  0  0  0  0
  1  2  1  0
  2  3  1  0
  3  4  2  0
  4  5  1  0
  4  6  1  0
  6  7  1  0
  7  8  2  0
  8  9  1  0
  9 10  2  0
 10 11  1  0
 10 12  1  0
 12 13  1  0
 12 14  2  0
 14 15  1  0
 14 16  1  0
 16 17  1  0
 16 18  2  0
 18 19  1  0
  8 20  1  0
 20 21  2  0
 21 22  1  0
 22 23  2  0
 23 24  1  0
 23 25  1  0
 25 26  1  0
 25 27  2  0
 27 28  1  0
 28 29  1  0
 29 30  1  0
 29 31  1  0
 29 32  1  0
 27 33  1  0
 33 34  1  0
 33 35  2  0
 35 36  1  0
 21 37  1  0
 37 38  1  0
  3 39  1  0
 39 40  1  0
 39 41  1  0
 41 42  2  0
 42 43  1  0
 42 44  1  0
 44 45  1  0
 44 46  2  0
 46 47  1  0
 46 48  1  0
 48 49  1  0
 49 50  1  0
 49 51  1  0
 49 52  1  0
 48 53  2  0
 53 54  1  0
 37  7  1  0
 53 41  1  0
 18  9  1  0
 35 22  1  0
M  END
>  <UniqueID>  (5) 
5

>  <SMILES>  (5) 
CSc1ccc(-c2nc(-c3ccc(F)cc3)c(S/C=C(\O)Nc3cccc(C(F)(F)F)c3)[nH]2)cc1

>  <Energy>  (5) 
87.19671064561335

>  <Genealogy>  (5) 
CSc1ccc(-c2nc(-c3ccc(F)cc3)c(SC=C(O)Nc3cccc(C(F)(F)F)c3)[nH]2)cc1 (tautomer)
CSc1ccc(-c2nc(-c3ccc(F)cc3)c(S/C=C(\O)Nc3cccc(C(F)(F)F)c3)[nH]2)cc1 (cis-trans isomerization)
CSc1ccc(-c2nc(-c3ccc(F)cc3)c(S/C=C(\O)Nc3cccc(C(F)(F)F)c3)[nH]2)cc1 (3D coordinates assigned)
CSc1ccc(-c2nc(-c3ccc(F)cc3)c(S/C=C(\O)Nc3cccc(C(F)(F)F)c3)[nH]2)cc1 (optimized conformer: 87.19671064561335 kcal/mol)

>  <smiles>  (5) 
CSc1ccc(-c2nc(-c3ccc(F)cc3)c(SCC(=O)Nc3cccc(C(F)(F)F)c3)[nH]2)cc1

>  <score_type>  (5) 
oracle

>  <origin>  (5) 
autodockgpu

>  <m_score__min__energy>  (5) 
-8.5999999999999996

>  <m_primary>  (5) 
energy

>  <meeko>  (5) 
{"free_energy": -7.95, "intermolecular_energy": -10.93, "internal_energy": -1.27, "cluster_size": 6, "cluster_id": 1, "rank_in_cluster": 3}

>  <energy>  (5) 
-7.71

>  <cluster_rmsd>  (5) 
1.57

>  <rmsd>  (5) 
271.02

>  <cluster>  (5) 
1

$$$$
YIYSDEKHFQTGLA-QCMVQFAFNA-N
     RDKit          3D

 54 57  0  0  0  0  0  0  0  0999 V2000
  136.8680   78.4460  222.6040 H   0  0  0  0  0  0  0  0  0  0  0  0
  137.8360   78.2680  222.8420 O   0  0  0  0  0  0  0  0  0  0  0  0
  138.4380   77.0300  222.6090 C   0  0  0  0  0  0  0  0  0  0  0  0
  137.6780   75.9690  222.3300 C   0  0  0  0  0  0  0  0  0  0  0  0
  136.8385   75.7212  222.9963 H   0  0  0  0  0  0  0  0  0  0  0  0
  137.9900   74.9360  220.8960 S   0  0  0  0  0  0  0  0  0  0  0  0
  139.1880   73.9320  221.7790 C   0  0  0  0  0  0  0  0  0  0  0  0
  140.5580   73.8880  221.5900 C   0  0  0  0  0  0  0  0  0  0  0  0
  141.3720   74.7160  220.6790 C   0  0  0  0  0  0  0  0  0  0  0  0
  142.7680   74.5660  220.6620 C   0  0  0  0  0  0  0  0  0  0  0  0
  143.2480   73.8370  221.3314 H   0  0  0  0  0  0  0  0  0  0  0  0
  143.5520   75.3390  219.7980 C   0  0  0  0  0  0  0  0  0  0  0  0
  144.6441   75.2084  219.7821 H   0  0  0  0  0  0  0  0  0  0  0  0
  142.9490   76.2760  218.9560 C   0  0  0  0  0  0  0  0  0  0  0  0
  143.7110   77.0230  218.1180 F   0  0  0  0  0  0  0  0  0  0  0  0
  141.5630   76.4480  218.9820 C   0  0  0  0  0  0  0  0  0  0  0  0
  141.0897   77.1915  218.3238 H   0  0  0  0  0  0  0  0  0  0  0  0
  140.7760   75.6770  219.8430 C   0  0  0  0  0  0  0  0  0  0  0  0
  139.6860   75.8228  219.8665 H   0  0  0  0  0  0  0  0  0  0  0  0
  141.0720   72.9030  222.3530 N   0  0  0  0  0  0  0  0  0  0  0  0
  140.0080   72.3820  223.0040 C   0  0  0  0  0  0  0  0  0  0  0  0
  140.1230   71.2470  223.9540 C   0  0  0  0  0  0  0  0  0  0  0  0
  139.4510   70.0300  223.7260 C   0  0  0  0  0  0  0  0  0  0  0  0
  138.8286   69.9096  222.8270 H   0  0  0  0  0  0  0  0  0  0  0  0
  139.5700   68.9740  224.6350 C   0  0  0  0  0  0  0  0  0  0  0  0
  139.0443   68.0264  224.4460 H   0  0  0  0  0  0  0  0  0  0  0  0
  140.3540   69.1180  225.7820 C   0  0  0  0  0  0  0  0  0  0  0  0
  140.5070   67.7600  226.9430 S   0  0  0  0  0  0  0  0  0  0  0  0
  140.7950   68.8520  228.3700 C   0  0  0  0  0  0  0  0  0  0  0  0
  140.6456   68.2857  229.3011 H   0  0  0  0  0  0  0  0  0  0  0  0
  141.8252   69.2362  228.3357 H   0  0  0  0  0  0  0  0  0  0  0  0
  140.0883   69.6942  228.3357 H   0  0  0  0  0  0  0  0  0  0  0  0
  141.0250   70.3220  226.0180 C   0  0  0  0  0  0  0  0  0  0  0  0
  141.6467   70.4360  226.9183 H   0  0  0  0  0  0  0  0  0  0  0  0
  140.9080   71.3800  225.1140 C   0  0  0  0  0  0  0  0  0  0  0  0
  141.4343   72.3257  225.3106 H   0  0  0  0  0  0  0  0  0  0  0  0
  138.8480   72.9900  222.6710 N   0  0  0  0  0  0  0  0  0  0  0  0
  137.8800   72.7600  222.9830 H   0  0  0  0  0  0  0  0  0  0  0  0
  139.8650   76.8820  222.7010 N   0  0  0  0  0  0  0  0  0  0  0  0
  140.2500   75.9380  222.9360 H   0  0  0  0  0  0  0  0  0  0  0  0
  140.7940   77.9630  222.5290 C   0  0  0  0  0  0  0  0  0  0  0  0
  141.6730   78.3370  223.5580 C   0  0  0  0  0  0  0  0  0  0  0  0
  141.6788   77.7762  224.5043 H   0  0  0  0  0  0  0  0  0  0  0  0
  142.5400   79.4180  223.3850 C   0  0  0  0  0  0  0  0  0  0  0  0
  143.2298   79.7025  224.1933 H   0  0  0  0  0  0  0  0  0  0  0  0
  142.5340   80.1390  222.1890 C   0  0  0  0  0  0  0  0  0  0  0  0
  143.2137   80.9946  222.0629 H   0  0  0  0  0  0  0  0  0  0  0  0
  141.6650   79.7780  221.1460 C   0  0  0  0  0  0  0  0  0  0  0  0
  141.6150   80.5930  219.8770 C   0  0  0  0  0  0  0  0  0  0  0  0
  140.3830   80.4630  219.2600 F   0  0  0  0  0  0  0  0  0  0  0  0
  142.6000   80.1490  219.0140 F   0  0  0  0  0  0  0  0  0  0  0  0
  141.8240   81.9340  220.1490 F   0  0  0  0  0  0  0  0  0  0  0  0
  140.7750   78.7060  221.3380 C   0  0  0  0  0  0  0  0  0  0  0  0
  140.0563   78.4470  220.5465 H   0  0  0  0  0  0  0  0  0  0  0  0
  1  2  1  0
  2  3  1  0
  3  4  2  0
  4  5  1  0
  4  6  1  0
  6  7  1  0
  7  8  2  0
  8  9  1  0
  9 10  2  0
 10 11  1  0
 10 12  1  0
 12 13  1  0
 12 14  2  0
 14 15  1  0
 14 16  1  0
 16 17  1  0
 16 18  2  0
 18 19  1  0
  8 20  1  0
 20 21  2  0
 21 22  1  0
 22 23  2  0
 23 24  1  0
 23 25  1  0
 25 26  1  0
 25 27  2  0
 27 28  1  0
 28 29  1  0
 29 30  1  0
 29 31  1  0
 29 32  1  0
 27 33  1  0
 33 34  1  0
 33 35  2  0
 35 36  1  0
 21 37  1  0
 37 38  1  0
  3 39  1  0
 39 40  1  0
 39 41  1  0
 41 42  2  0
 42 43  1  0
 42 44  1  0
 44 45  1  0
 44 46  2  0
 46 47  1  0
 46 48  1  0
 48 49  1  0
 49 50  1  0
 49 51  1  0
 49 52  1  0
 48 53  2  0
 53 54  1  0
 37  7  1  0
 53 41  1  0
 18  9  1  0
 35 22  1  0
M  END
>  <UniqueID>  (6) 
5

>  <SMILES>  (6) 
CSc1ccc(-c2nc(-c3ccc(F)cc3)c(S/C=C(\O)Nc3cccc(C(F)(F)F)c3)[nH]2)cc1

>  <Energy>  (6) 
87.19671064561335

>  <Genealogy>  (6) 
CSc1ccc(-c2nc(-c3ccc(F)cc3)c(SC=C(O)Nc3cccc(C(F)(F)F)c3)[nH]2)cc1 (tautomer)
CSc1ccc(-c2nc(-c3ccc(F)cc3)c(S/C=C(\O)Nc3cccc(C(F)(F)F)c3)[nH]2)cc1 (cis-trans isomerization)
CSc1ccc(-c2nc(-c3ccc(F)cc3)c(S/C=C(\O)Nc3cccc(C(F)(F)F)c3)[nH]2)cc1 (3D coordinates assigned)
CSc1ccc(-c2nc(-c3ccc(F)cc3)c(S/C=C(\O)Nc3cccc(C(F)(F)F)c3)[nH]2)cc1 (optimized conformer: 87.19671064561335 kcal/mol)

>  <smiles>  (6) 
CSc1ccc(-c2nc(-c3ccc(F)cc3)c(SCC(=O)Nc3cccc(C(F)(F)F)c3)[nH]2)cc1

>  <score_type>  (6) 
oracle

>  <origin>  (6) 
autodockgpu

>  <m_score__min__energy>  (6) 
-8.5999999999999996

>  <m_primary>  (6) 
energy

>  <meeko>  (6) 
{"free_energy": -7.47, "intermolecular_energy": -10.45, "internal_energy": -2.13, "cluster_size": 4, "cluster_id": 4, "rank_in_cluster": 2}

>  <energy>  (6) 
-6.7

>  <cluster_rmsd>  (6) 
1.88

>  <rmsd>  (6) 
269.8

>  <cluster>  (6) 
1

$$$$
YIYSDEKHFQTGLA-QCMVQFAFNA-N
     RDKit          3D

 54 57  0  0  0  0  0  0  0  0999 V2000
  138.8560   74.9470  223.3690 H   0  0  0  0  0  0  0  0  0  0  0  0
  138.7950   75.9180  223.0870 O   0  0  0  0  0  0  0  0  0  0  0  0
  137.8590   76.3570  222.1490 C   0  0  0  0  0  0  0  0  0  0  0  0
  137.1370   75.4640  221.4690 C   0  0  0  0  0  0  0  0  0  0  0  0
  136.0562   75.3919  221.6602 H   0  0  0  0  0  0  0  0  0  0  0  0
  137.8830   74.3780  220.2510 S   0  0  0  0  0  0  0  0  0  0  0  0
  138.9630   73.6200  221.4680 C   0  0  0  0  0  0  0  0  0  0  0  0
  140.3200   73.8260  221.6390 C   0  0  0  0  0  0  0  0  0  0  0  0
  141.1880   74.7800  220.9210 C   0  0  0  0  0  0  0  0  0  0  0  0
  142.4050   74.3410  220.3760 C   0  0  0  0  0  0  0  0  0  0  0  0
  142.7092   73.2904  220.4930 H   0  0  0  0  0  0  0  0  0  0  0  0
  143.2330   75.2320  219.6850 C   0  0  0  0  0  0  0  0  0  0  0  0
  144.1797   74.8781  219.2507 H   0  0  0  0  0  0  0  0  0  0  0  0
  142.8590   76.5700  219.5460 C   0  0  0  0  0  0  0  0  0  0  0  0
  143.6640   77.4330  218.8760 F   0  0  0  0  0  0  0  0  0  0  0  0
  141.6610   77.0220  220.1050 C   0  0  0  0  0  0  0  0  0  0  0  0
  141.3710   78.0781  220.0021 H   0  0  0  0  0  0  0  0  0  0  0  0
  140.8300   76.1340  220.7950 C   0  0  0  0  0  0  0  0  0  0  0  0
  139.8921   76.4962  221.2412 H   0  0  0  0  0  0  0  0  0  0  0  0
  140.7800   72.9600  222.5640 N   0  0  0  0  0  0  0  0  0  0  0  0
  139.6900   72.2590  222.9500 C   0  0  0  0  0  0  0  0  0  0  0  0
  139.7470   71.1750  223.9620 C   0  0  0  0  0  0  0  0  0  0  0  0
  140.6570   71.2220  225.0370 C   0  0  0  0  0  0  0  0  0  0  0  0
  141.3405   72.0781  225.1371 H   0  0  0  0  0  0  0  0  0  0  0  0
  140.6970   70.1880  225.9770 C   0  0  0  0  0  0  0  0  0  0  0  0
  141.4086   70.2362  226.8145 H   0  0  0  0  0  0  0  0  0  0  0  0
  139.8370   69.0940  225.8570 C   0  0  0  0  0  0  0  0  0  0  0  0
  139.8880   67.7720  227.0680 S   0  0  0  0  0  0  0  0  0  0  0  0
  140.7160   68.7940  228.3270 C   0  0  0  0  0  0  0  0  0  0  0  0
  140.4313   68.4426  229.3297 H   0  0  0  0  0  0  0  0  0  0  0  0
  141.8063   68.7130  228.2059 H   0  0  0  0  0  0  0  0  0  0  0  0
  140.4106   69.8438  228.2059 H   0  0  0  0  0  0  0  0  0  0  0  0
  138.9300   69.0360  224.7940 C   0  0  0  0  0  0  0  0  0  0  0  0
  138.2488   68.1774  224.7002 H   0  0  0  0  0  0  0  0  0  0  0  0
  138.8870   70.0660  223.8510 C   0  0  0  0  0  0  0  0  0  0  0  0
  138.1749   70.0099  223.0145 H   0  0  0  0  0  0  0  0  0  0  0  0
  138.5710   72.6400  222.2960 N   0  0  0  0  0  0  0  0  0  0  0  0
  137.6100   72.2400  222.3620 H   0  0  0  0  0  0  0  0  0  0  0  0
  137.6890   77.7600  221.8860 N   0  0  0  0  0  0  0  0  0  0  0  0
  137.0300   78.0440  221.1250 H   0  0  0  0  0  0  0  0  0  0  0  0
  138.4020   78.7960  222.5800 C   0  0  0  0  0  0  0  0  0  0  0  0
  137.7200   79.8070  223.2760 C   0  0  0  0  0  0  0  0  0  0  0  0
  136.6211   79.7947  223.3228 H   0  0  0  0  0  0  0  0  0  0  0  0
  138.4320   80.8280  223.9090 C   0  0  0  0  0  0  0  0  0  0  0  0
  137.8920   81.6148  224.4562 H   0  0  0  0  0  0  0  0  0  0  0  0
  139.8270   80.8540  223.8500 C   0  0  0  0  0  0  0  0  0  0  0  0
  140.3804   81.6659  224.3445 H   0  0  0  0  0  0  0  0  0  0  0  0
  140.5280   79.8480  223.1620 C   0  0  0  0  0  0  0  0  0  0  0  0
  142.0310   79.9070  223.0460 C   0  0  0  0  0  0  0  0  0  0  0  0
  142.4120   80.1370  221.7360 F   0  0  0  0  0  0  0  0  0  0  0  0
  142.5660   78.7040  223.4660 F   0  0  0  0  0  0  0  0  0  0  0  0
  142.5410   80.9260  223.8310 F   0  0  0  0  0  0  0  0  0  0  0  0
  139.8020   78.8390  222.5030 C   0  0  0  0  0  0  0  0  0  0  0  0
  140.3383   78.0752  221.9208 H   0  0  0  0  0  0  0  0  0  0  0  0
  1  2  1  0
  2  3  1  0
  3  4  2  0
  4  5  1  0
  4  6  1  0
  6  7  1  0
  7  8  2  0
  8  9  1  0
  9 10  2  0
 10 11  1  0
 10 12  1  0
 12 13  1  0
 12 14  2  0
 14 15  1  0
 14 16  1  0
 16 17  1  0
 16 18  2  0
 18 19  1  0
  8 20  1  0
 20 21  2  0
 21 22  1  0
 22 23  2  0
 23 24  1  0
 23 25  1  0
 25 26  1  0
 25 27  2  0
 27 28  1  0
 28 29  1  0
 29 30  1  0
 29 31  1  0
 29 32  1  0
 27 33  1  0
 33 34  1  0
 33 35  2  0
 35 36  1  0
 21 37  1  0
 37 38  1  0
  3 39  1  0
 39 40  1  0
 39 41  1  0
 41 42  2  0
 42 43  1  0
 42 44  1  0
 44 45  1  0
 44 46  2  0
 46 47  1  0
 46 48  1  0
 48 49  1  0
 49 50  1  0
 49 51  1  0
 49 52  1  0
 48 53  2  0
 53 54  1  0
 37  7  1  0
 53 41  1  0
 18  9  1  0
 35 22  1  0
M  END
>  <UniqueID>  (7) 
5

>  <SMILES>  (7) 
CSc1ccc(-c2nc(-c3ccc(F)cc3)c(S/C=C(\O)Nc3cccc(C(F)(F)F)c3)[nH]2)cc1

>  <Energy>  (7) 
87.19671064561335

>  <Genealogy>  (7) 
CSc1ccc(-c2nc(-c3ccc(F)cc3)c(SC=C(O)Nc3cccc(C(F)(F)F)c3)[nH]2)cc1 (tautomer)
CSc1ccc(-c2nc(-c3ccc(F)cc3)c(S/C=C(\O)Nc3cccc(C(F)(F)F)c3)[nH]2)cc1 (cis-trans isomerization)
CSc1ccc(-c2nc(-c3ccc(F)cc3)c(S/C=C(\O)Nc3cccc(C(F)(F)F)c3)[nH]2)cc1 (3D coordinates assigned)
CSc1ccc(-c2nc(-c3ccc(F)cc3)c(S/C=C(\O)Nc3cccc(C(F)(F)F)c3)[nH]2)cc1 (optimized conformer: 87.19671064561335 kcal/mol)

>  <smiles>  (7) 
CSc1ccc(-c2nc(-c3ccc(F)cc3)c(SCC(=O)Nc3cccc(C(F)(F)F)c3)[nH]2)cc1

>  <score_type>  (7) 
oracle

>  <origin>  (7) 
autodockgpu

>  <m_score__min__energy>  (7) 
-8.5999999999999996

>  <m_primary>  (7) 
energy

>  <meeko>  (7) 
{"free_energy": -7.73, "intermolecular_energy": -10.71, "internal_energy": -1.81, "cluster_size": 4, "cluster_id": 4, "rank_in_cluster": 1}

>  <energy>  (7) 
-8.47

>  <cluster_rmsd>  (7) 
0.0

>  <rmsd>  (7) 
271.11

>  <cluster>  (7) 
2

$$$$
YIYSDEKHFQTGLA-QCMVQFAFNA-N
     RDKit          3D

 54 57  0  0  0  0  0  0  0  0999 V2000
  136.4270   74.4550  224.4350 H   0  0  0  0  0  0  0  0  0  0  0  0
  136.2490   75.1960  223.7680 O   0  0  0  0  0  0  0  0  0  0  0  0
  137.0740   75.4090  222.6620 C   0  0  0  0  0  0  0  0  0  0  0  0
  136.6530   75.0550  221.4470 C   0  0  0  0  0  0  0  0  0  0  0  0
  135.5755   75.0762  221.2267 H   0  0  0  0  0  0  0  0  0  0  0  0
  137.7970   74.5450  220.1620 S   0  0  0  0  0  0  0  0  0  0  0  0
  138.8950   73.7530  221.3400 C   0  0  0  0  0  0  0  0  0  0  0  0
  140.2630   73.9140  221.4630 C   0  0  0  0  0  0  0  0  0  0  0  0
  141.1350   74.8390  220.7120 C   0  0  0  0  0  0  0  0  0  0  0  0
  142.4830   74.5080  220.5010 C   0  0  0  0  0  0  0  0  0  0  0  0
  142.8838   73.5649  220.9009 H   0  0  0  0  0  0  0  0  0  0  0  0
  143.3190   75.3710  219.7850 C   0  0  0  0  0  0  0  0  0  0  0  0
  144.3714   75.1002  219.6144 H   0  0  0  0  0  0  0  0  0  0  0  0
  142.8190   76.5770  219.2860 C   0  0  0  0  0  0  0  0  0  0  0  0
  143.6310   77.4120  218.5920 F   0  0  0  0  0  0  0  0  0  0  0  0
  141.4850   76.9250  219.5110 C   0  0  0  0  0  0  0  0  0  0  0  0
  141.0938   77.8778  219.1248 H   0  0  0  0  0  0  0  0  0  0  0  0
  140.6460   76.0650  220.2260 C   0  0  0  0  0  0  0  0  0  0  0  0
  139.5990   76.3484  220.4092 H   0  0  0  0  0  0  0  0  0  0  0  0
  140.7270   73.0340  222.3710 N   0  0  0  0  0  0  0  0  0  0  0  0
  139.6290   72.3690  222.7970 C   0  0  0  0  0  0  0  0  0  0  0  0
  139.6870   71.2830  223.8070 C   0  0  0  0  0  0  0  0  0  0  0  0
  138.8820   70.1330  223.6950 C   0  0  0  0  0  0  0  0  0  0  0  0
  138.1951   70.0287  222.8422 H   0  0  0  0  0  0  0  0  0  0  0  0
  138.9490   69.1230  224.6590 C   0  0  0  0  0  0  0  0  0  0  0  0
  138.3184   68.2272  224.5595 H   0  0  0  0  0  0  0  0  0  0  0  0
  139.8150   69.2480  225.7490 C   0  0  0  0  0  0  0  0  0  0  0  0
  139.9030   67.9480  226.9820 S   0  0  0  0  0  0  0  0  0  0  0  0
  140.7090   69.0090  228.2200 C   0  0  0  0  0  0  0  0  0  0  0  0
  140.4445   68.6608  229.2293 H   0  0  0  0  0  0  0  0  0  0  0  0
  141.8002   68.9607  228.0897 H   0  0  0  0  0  0  0  0  0  0  0  0
  140.3698   70.0473  228.0897 H   0  0  0  0  0  0  0  0  0  0  0  0
  140.6190   70.3850  225.8710 C   0  0  0  0  0  0  0  0  0  0  0  0
  141.3045   70.4832  226.7257 H   0  0  0  0  0  0  0  0  0  0  0  0
  140.5540   71.3970  224.9100 C   0  0  0  0  0  0  0  0  0  0  0  0
  141.1861   72.2910  225.0163 H   0  0  0  0  0  0  0  0  0  0  0  0
  138.5000   72.7870  222.1830 N   0  0  0  0  0  0  0  0  0  0  0  0
  137.5300   72.4180  222.2840 H   0  0  0  0  0  0  0  0  0  0  0  0
  138.3860   75.9750  222.8260 N   0  0  0  0  0  0  0  0  0  0  0  0
  139.1780   75.3300  223.0490 H   0  0  0  0  0  0  0  0  0  0  0  0
  138.6650   77.3810  222.7420 C   0  0  0  0  0  0  0  0  0  0  0  0
  137.6300   78.3210  222.6080 C   0  0  0  0  0  0  0  0  0  0  0  0
  136.5825   77.9852  222.5991 H   0  0  0  0  0  0  0  0  0  0  0  0
  137.9260   79.6810  222.4860 C   0  0  0  0  0  0  0  0  0  0  0  0
  137.1108   80.4127  222.3857 H   0  0  0  0  0  0  0  0  0  0  0  0
  139.2530   80.1140  222.4910 C   0  0  0  0  0  0  0  0  0  0  0  0
  139.4787   81.1856  222.3871 H   0  0  0  0  0  0  0  0  0  0  0  0
  140.3030   79.1890  222.6280 C   0  0  0  0  0  0  0  0  0  0  0  0
  141.7380   79.6500  222.5730 C   0  0  0  0  0  0  0  0  0  0  0  0
  142.5390   78.8510  223.3700 F   0  0  0  0  0  0  0  0  0  0  0  0
  141.8140   80.9550  223.0230 F   0  0  0  0  0  0  0  0  0  0  0  0
  142.2210   79.5910  221.2770 F   0  0  0  0  0  0  0  0  0  0  0  0
  139.9980   77.8190  222.7220 C   0  0  0  0  0  0  0  0  0  0  0  0
  140.8134   77.0830  222.7805 H   0  0  0  0  0  0  0  0  0  0  0  0
  1  2  1  0
  2  3  1  0
  3  4  2  0
  4  5  1  0
  4  6  1  0
  6  7  1  0
  7  8  2  0
  8  9  1  0
  9 10  2  0
 10 11  1  0
 10 12  1  0
 12 13  1  0
 12 14  2  0
 14 15  1  0
 14 16  1  0
 16 17  1  0
 16 18  2  0
 18 19  1  0
  8 20  1  0
 20 21  2  0
 21 22  1  0
 22 23  2  0
 23 24  1  0
 23 25  1  0
 25 26  1  0
 25 27  2  0
 27 28  1  0
 28 29  1  0
 29 30  1  0
 29 31  1  0
 29 32  1  0
 27 33  1  0
 33 34  1  0
 33 35  2  0
 35 36  1  0
 21 37  1  0
 37 38  1  0
  3 39  1  0
 39 40  1  0
 39 41  1  0
 41 42  2  0
 42 43  1  0
 42 44  1  0
 44 45  1  0
 44 46  2  0
 46 47  1  0
 46 48  1  0
 48 49  1  0
 49 50  1  0
 49 51  1  0
 49 52  1  0
 48 53  2  0
 53 54  1  0
 37  7  1  0
 53 41  1  0
 18  9  1  0
 35 22  1  0
M  END
>  <UniqueID>  (8) 
5

>  <SMILES>  (8) 
CSc1ccc(-c2nc(-c3ccc(F)cc3)c(S/C=C(\O)Nc3cccc(C(F)(F)F)c3)[nH]2)cc1

>  <Energy>  (8) 
87.19671064561335

>  <Genealogy>  (8) 
CSc1ccc(-c2nc(-c3ccc(F)cc3)c(SC=C(O)Nc3cccc(C(F)(F)F)c3)[nH]2)cc1 (tautomer)
CSc1ccc(-c2nc(-c3ccc(F)cc3)c(S/C=C(\O)Nc3cccc(C(F)(F)F)c3)[nH]2)cc1 (cis-trans isomerization)
CSc1ccc(-c2nc(-c3ccc(F)cc3)c(S/C=C(\O)Nc3cccc(C(F)(F)F)c3)[nH]2)cc1 (3D coordinates assigned)
CSc1ccc(-c2nc(-c3ccc(F)cc3)c(S/C=C(\O)Nc3cccc(C(F)(F)F)c3)[nH]2)cc1 (optimized conformer: 87.19671064561335 kcal/mol)

>  <smiles>  (8) 
CSc1ccc(-c2nc(-c3ccc(F)cc3)c(SCC(=O)Nc3cccc(C(F)(F)F)c3)[nH]2)cc1

>  <score_type>  (8) 
oracle

>  <origin>  (8) 
autodockgpu

>  <m_score__min__energy>  (8) 
-8.5999999999999996

>  <m_primary>  (8) 
energy

>  <meeko>  (8) 
{"free_energy": -7.42, "intermolecular_energy": -10.4, "internal_energy": -1.9, "cluster_size": 4, "cluster_id": 4, "rank_in_cluster": 4}

>  <energy>  (8) 
-7.86

>  <cluster_rmsd>  (8) 
0.0

>  <rmsd>  (8) 
270.94

>  <cluster>  (8) 
3

$$$$
YIYSDEKHFQTGLA-QCMVQFAFNA-N
     RDKit          3D

 54 57  0  0  0  0  0  0  0  0999 V2000
  138.8980   74.1500  223.0280 H   0  0  0  0  0  0  0  0  0  0  0  0
  139.2030   74.9980  222.5650 O   0  0  0  0  0  0  0  0  0  0  0  0
  140.3780   75.0470  221.8140 C   0  0  0  0  0  0  0  0  0  0  0  0
  140.7220   74.0030  221.0570 C   0  0  0  0  0  0  0  0  0  0  0  0
  141.1350   73.1049  221.5396 H   0  0  0  0  0  0  0  0  0  0  0  0
  140.5290   74.0250  219.2740 S   0  0  0  0  0  0  0  0  0  0  0  0
  141.4950   75.5290  219.1060 C   0  0  0  0  0  0  0  0  0  0  0  0
  142.8640   75.6740  219.2350 C   0  0  0  0  0  0  0  0  0  0  0  0
  143.8680   74.6150  219.4550 C   0  0  0  0  0  0  0  0  0  0  0  0
  143.8550   73.4640  218.6500 C   0  0  0  0  0  0  0  0  0  0  0  0
  143.0929   73.3546  217.8643 H   0  0  0  0  0  0  0  0  0  0  0  0
  144.8060   72.4560  218.8420 C   0  0  0  0  0  0  0  0  0  0  0  0
  144.7970   71.5626  218.2003 H   0  0  0  0  0  0  0  0  0  0  0  0
  145.7670   72.5830  219.8480 C   0  0  0  0  0  0  0  0  0  0  0  0
  146.6880   71.6040  220.0320 F   0  0  0  0  0  0  0  0  0  0  0  0
  145.7740   73.7140  220.6680 C   0  0  0  0  0  0  0  0  0  0  0  0
  146.5268   73.8097  221.4643 H   0  0  0  0  0  0  0  0  0  0  0  0
  144.8270   74.7240  220.4790 C   0  0  0  0  0  0  0  0  0  0  0  0
  144.8312   75.6081  221.1335 H   0  0  0  0  0  0  0  0  0  0  0  0
  143.1720   76.9850  219.1780 N   0  0  0  0  0  0  0  0  0  0  0  0
  141.9860   77.6080  218.9960 C   0  0  0  0  0  0  0  0  0  0  0  0
  141.8600   79.0830  218.8900 C   0  0  0  0  0  0  0  0  0  0  0  0
  142.7360   79.8380  218.0860 C   0  0  0  0  0  0  0  0  0  0  0  0
  143.5310   79.3307  217.5198 H   0  0  0  0  0  0  0  0  0  0  0  0
  142.6030   81.2270  218.0020 C   0  0  0  0  0  0  0  0  0  0  0  0
  143.2905   81.8063  217.3682 H   0  0  0  0  0  0  0  0  0  0  0  0
  141.5990   81.8820  218.7210 C   0  0  0  0  0  0  0  0  0  0  0  0
  141.4280   83.6640  218.6080 S   0  0  0  0  0  0  0  0  0  0  0  0
  140.6970   83.8210  220.2670 C   0  0  0  0  0  0  0  0  0  0  0  0
  141.4741   83.6541  221.0274 H   0  0  0  0  0  0  0  0  0  0  0  0
  140.2761   84.8300  220.3882 H   0  0  0  0  0  0  0  0  0  0  0  0
  139.8989   83.0738  220.3882 H   0  0  0  0  0  0  0  0  0  0  0  0
  140.7240   81.1430  219.5230 C   0  0  0  0  0  0  0  0  0  0  0  0
  139.9311   81.6561  220.0870 H   0  0  0  0  0  0  0  0  0  0  0  0
  140.8540   79.7550  219.6100 C   0  0  0  0  0  0  0  0  0  0  0  0
  140.1641   79.1818  220.2468 H   0  0  0  0  0  0  0  0  0  0  0  0
  140.9480   76.7440  218.9510 N   0  0  0  0  0  0  0  0  0  0  0  0
  139.9300   76.9540  218.8680 H   0  0  0  0  0  0  0  0  0  0  0  0
  141.2370   76.1980  221.8730 N   0  0  0  0  0  0  0  0  0  0  0  0
  142.2310   76.0900  221.5650 H   0  0  0  0  0  0  0  0  0  0  0  0
  140.8220   77.4800  222.3700 C   0  0  0  0  0  0  0  0  0  0  0  0
  139.4730   77.7480  222.6540 C   0  0  0  0  0  0  0  0  0  0  0  0
  138.7189   76.9573  222.5272 H   0  0  0  0  0  0  0  0  0  0  0  0
  139.0850   79.0150  223.0970 C   0  0  0  0  0  0  0  0  0  0  0  0
  138.0274   79.2171  223.3219 H   0  0  0  0  0  0  0  0  0  0  0  0
  140.0350   80.0250  223.2550 C   0  0  0  0  0  0  0  0  0  0  0  0
  139.7209   81.0226  223.5959 H   0  0  0  0  0  0  0  0  0  0  0  0
  141.3910   79.7750  222.9810 C   0  0  0  0  0  0  0  0  0  0  0  0
  142.4090   80.8830  223.0950 C   0  0  0  0  0  0  0  0  0  0  0  0
  142.2980   81.5260  224.3140 F   0  0  0  0  0  0  0  0  0  0  0  0
  142.1990   81.7990  222.0810 F   0  0  0  0  0  0  0  0  0  0  0  0
  143.6930   80.3780  222.9860 F   0  0  0  0  0  0  0  0  0  0  0  0
  141.7690   78.5060  222.5080 C   0  0  0  0  0  0  0  0  0  0  0  0
  142.8195   78.3154  222.2430 H   0  0  0  0  0  0  0  0  0  0  0  0
  1  2  1  0
  2  3  1  0
  3  4  2  0
  4  5  1  0
  4  6  1  0
  6  7  1  0
  7  8  2  0
  8  9  1  0
  9 10  2  0
 10 11  1  0
 10 12  1  0
 12 13  1  0
 12 14  2  0
 14 15  1  0
 14 16  1  0
 16 17  1  0
 16 18  2  0
 18 19  1  0
  8 20  1  0
 20 21  2  0
 21 22  1  0
 22 23  2  0
 23 24  1  0
 23 25  1  0
 25 26  1  0
 25 27  2  0
 27 28  1  0
 28 29  1  0
 29 30  1  0
 29 31  1  0
 29 32  1  0
 27 33  1  0
 33 34  1  0
 33 35  2  0
 35 36  1  0
 21 37  1  0
 37 38  1  0
  3 39  1  0
 39 40  1  0
 39 41  1  0
 41 42  2  0
 42 43  1  0
 42 44  1  0
 44 45  1  0
 44 46  2  0
 46 47  1  0
 46 48  1  0
 48 49  1  0
 49 50  1  0
 49 51  1  0
 49 52  1  0
 48 53  2  0
 53 54  1  0
 37  7  1  0
 53 41  1  0
 18  9  1  0
 35 22  1  0
M  END
>  <UniqueID>  (9) 
5

>  <SMILES>  (9) 
CSc1ccc(-c2nc(-c3ccc(F)cc3)c(S/C=C(\O)Nc3cccc(C(F)(F)F)c3)[nH]2)cc1

>  <Energy>  (9) 
87.19671064561335

>  <Genealogy>  (9) 
CSc1ccc(-c2nc(-c3ccc(F)cc3)c(SC=C(O)Nc3cccc(C(F)(F)F)c3)[nH]2)cc1 (tautomer)
CSc1ccc(-c2nc(-c3ccc(F)cc3)c(S/C=C(\O)Nc3cccc(C(F)(F)F)c3)[nH]2)cc1 (cis-trans isomerization)
CSc1ccc(-c2nc(-c3ccc(F)cc3)c(S/C=C(\O)Nc3cccc(C(F)(F)F)c3)[nH]2)cc1 (3D coordinates assigned)
CSc1ccc(-c2nc(-c3ccc(F)cc3)c(S/C=C(\O)Nc3cccc(C(F)(F)F)c3)[nH]2)cc1 (optimized conformer: 87.19671064561335 kcal/mol)

>  <smiles>  (9) 
CSc1ccc(-c2nc(-c3ccc(F)cc3)c(SCC(=O)Nc3cccc(C(F)(F)F)c3)[nH]2)cc1

>  <score_type>  (9) 
oracle

>  <origin>  (9) 
autodockgpu

>  <m_score__min__energy>  (9) 
-8.5999999999999996

>  <m_primary>  (9) 
energy

>  <meeko>  (9) 
{"free_energy": -7.47, "intermolecular_energy": -10.45, "internal_energy": -2.7, "cluster_size": 8, "cluster_id": 3, "rank_in_cluster": 6}

>  <energy>  (9) 
-7.72

>  <cluster_rmsd>  (9) 
1.72

>  <rmsd>  (9) 
270.7

>  <cluster>  (9) 
3

$$$$
YIYSDEKHFQTGLA-QCMVQFAFNA-N
     RDKit          3D

 54 57  0  0  0  0  0  0  0  0999 V2000
  138.4860   74.8120  222.7530 H   0  0  0  0  0  0  0  0  0  0  0  0
  139.4140   75.2160  222.7230 O   0  0  0  0  0  0  0  0  0  0  0  0
  140.0460   75.5280  221.5180 C   0  0  0  0  0  0  0  0  0  0  0  0
  139.3460   75.5100  220.3820 C   0  0  0  0  0  0  0  0  0  0  0  0
  139.3441   76.4035  219.7404 H   0  0  0  0  0  0  0  0  0  0  0  0
  138.4080   74.0680  219.8730 S   0  0  0  0  0  0  0  0  0  0  0  0
  139.3520   72.9760  220.9410 C   0  0  0  0  0  0  0  0  0  0  0  0
  140.3710   72.1130  220.5800 C   0  0  0  0  0  0  0  0  0  0  0  0
  140.9840   71.9450  219.2480 C   0  0  0  0  0  0  0  0  0  0  0  0
  141.8100   70.8380  218.9960 C   0  0  0  0  0  0  0  0  0  0  0  0
  142.0014   70.1056  219.7941 H   0  0  0  0  0  0  0  0  0  0  0  0
  142.3910   70.6610  217.7360 C   0  0  0  0  0  0  0  0  0  0  0  0
  143.0276   69.7849  217.5428 H   0  0  0  0  0  0  0  0  0  0  0  0
  142.1640   71.5950  216.7230 C   0  0  0  0  0  0  0  0  0  0  0  0
  142.7280   71.4220  215.5020 F   0  0  0  0  0  0  0  0  0  0  0  0
  141.3620   72.7120  216.9710 C   0  0  0  0  0  0  0  0  0  0  0  0
  141.1897   73.4518  216.1754 H   0  0  0  0  0  0  0  0  0  0  0  0
  140.7780   72.8910  218.2290 C   0  0  0  0  0  0  0  0  0  0  0  0
  140.1544   73.7764  218.4220 H   0  0  0  0  0  0  0  0  0  0  0  0
  140.7150   71.3710  221.6510 N   0  0  0  0  0  0  0  0  0  0  0  0
  139.9120   71.8120  222.6460 C   0  0  0  0  0  0  0  0  0  0  0  0
  139.9490   71.2490  224.0190 C   0  0  0  0  0  0  0  0  0  0  0  0
  139.1940   70.1110  224.3660 C   0  0  0  0  0  0  0  0  0  0  0  0
  138.5633   69.6222  223.6088 H   0  0  0  0  0  0  0  0  0  0  0  0
  139.2410   69.5990  225.6660 C   0  0  0  0  0  0  0  0  0  0  0  0
  138.6507   68.7078  225.9256 H   0  0  0  0  0  0  0  0  0  0  0  0
  140.0350   70.2150  226.6370 C   0  0  0  0  0  0  0  0  0  0  0  0
  140.0950   69.5510  228.3020 S   0  0  0  0  0  0  0  0  0  0  0  0
  141.0190   68.0640  227.8060 C   0  0  0  0  0  0  0  0  0  0  0  0
  141.3544   67.5242  228.7039 H   0  0  0  0  0  0  0  0  0  0  0  0
  140.3677   67.4104  227.2071 H   0  0  0  0  0  0  0  0  0  0  0  0
  141.8935   68.3584  227.2071 H   0  0  0  0  0  0  0  0  0  0  0  0
  140.7880   71.3450  226.3040 C   0  0  0  0  0  0  0  0  0  0  0  0
  141.4174   71.8288  227.0654 H   0  0  0  0  0  0  0  0  0  0  0  0
  140.7430   71.8610  225.0070 C   0  0  0  0  0  0  0  0  0  0  0  0
  141.3337   72.7542  224.7552 H   0  0  0  0  0  0  0  0  0  0  0  0
  139.0710   72.7880  222.2390 N   0  0  0  0  0  0  0  0  0  0  0  0
  138.3210   73.2690  222.7810 H   0  0  0  0  0  0  0  0  0  0  0  0
  141.4500   75.8360  221.4860 N   0  0  0  0  0  0  0  0  0  0  0  0
  141.8330   76.4760  222.2200 H   0  0  0  0  0  0  0  0  0  0  0  0
  142.3530   75.3490  220.4800 C   0  0  0  0  0  0  0  0  0  0  0  0
  142.3910   75.9230  219.1990 C   0  0  0  0  0  0  0  0  0  0  0  0
  141.7448   76.7816  218.9641 H   0  0  0  0  0  0  0  0  0  0  0  0
  143.2460   75.4080  218.2220 C   0  0  0  0  0  0  0  0  0  0  0  0
  143.2737   75.8643  217.2215 H   0  0  0  0  0  0  0  0  0  0  0  0
  144.0660   74.3150  218.5120 C   0  0  0  0  0  0  0  0  0  0  0  0
  144.7321   73.9100  217.7359 H   0  0  0  0  0  0  0  0  0  0  0  0
  144.0450   73.7300  219.7890 C   0  0  0  0  0  0  0  0  0  0  0  0
  144.8850   72.5120  220.0850 C   0  0  0  0  0  0  0  0  0  0  0  0
  144.1300   71.5360  220.7110 F   0  0  0  0  0  0  0  0  0  0  0  0
  145.9310   72.8730  220.9150 F   0  0  0  0  0  0  0  0  0  0  0  0
  145.4000   71.9780  218.9170 F   0  0  0  0  0  0  0  0  0  0  0  0
  143.1600   74.2370  220.7590 C   0  0  0  0  0  0  0  0  0  0  0  0
  143.1009   73.7557  221.7464 H   0  0  0  0  0  0  0  0  0  0  0  0
  1  2  1  0
  2  3  1  0
  3  4  2  0
  4  5  1  0
  4  6  1  0
  6  7  1  0
  7  8  2  0
  8  9  1  0
  9 10  2  0
 10 11  1  0
 10 12  1  0
 12 13  1  0
 12 14  2  0
 14 15  1  0
 14 16  1  0
 16 17  1  0
 16 18  2  0
 18 19  1  0
  8 20  1  0
 20 21  2  0
 21 22  1  0
 22 23  2  0
 23 24  1  0
 23 25  1  0
 25 26  1  0
 25 27  2  0
 27 28  1  0
 28 29  1  0
 29 30  1  0
 29 31  1  0
 29 32  1  0
 27 33  1  0
 33 34  1  0
 33 35  2  0
 35 36  1  0
 21 37  1  0
 37 38  1  0
  3 39  1  0
 39 40  1  0
 39 41  1  0
 41 42  2  0
 42 43  1  0
 42 44  1  0
 44 45  1  0
 44 46  2  0
 46 47  1  0
 46 48  1  0
 48 49  1  0
 49 50  1  0
 49 51  1  0
 49 52  1  0
 48 53  2  0
 53 54  1  0
 37  7  1  0
 53 41  1  0
 18  9  1  0
 35 22  1  0
M  END
>  <UniqueID>  (10) 
5

>  <SMILES>  (10) 
CSc1ccc(-c2nc(-c3ccc(F)cc3)c(S/C=C(\O)Nc3cccc(C(F)(F)F)c3)[nH]2)cc1

>  <Energy>  (10) 
87.19671064561335

>  <Genealogy>  (10) 
CSc1ccc(-c2nc(-c3ccc(F)cc3)c(SC=C(O)Nc3cccc(C(F)(F)F)c3)[nH]2)cc1 (tautomer)
CSc1ccc(-c2nc(-c3ccc(F)cc3)c(S/C=C(\O)Nc3cccc(C(F)(F)F)c3)[nH]2)cc1 (cis-trans isomerization)
CSc1ccc(-c2nc(-c3ccc(F)cc3)c(S/C=C(\O)Nc3cccc(C(F)(F)F)c3)[nH]2)cc1 (3D coordinates assigned)
CSc1ccc(-c2nc(-c3ccc(F)cc3)c(S/C=C(\O)Nc3cccc(C(F)(F)F)c3)[nH]2)cc1 (optimized conformer: 87.19671064561335 kcal/mol)

>  <smiles>  (10) 
CSc1ccc(-c2nc(-c3ccc(F)cc3)c(SCC(=O)Nc3cccc(C(F)(F)F)c3)[nH]2)cc1

>  <score_type>  (10) 
oracle

>  <origin>  (10) 
autodockgpu

>  <m_score__min__energy>  (10) 
-8.5999999999999996

>  <m_primary>  (10) 
energy

>  <meeko>  (10) 
{"free_energy": -6.7, "intermolecular_energy": -9.68, "internal_energy": -3.17, "cluster_size": 6, "cluster_id": 1, "rank_in_cluster": 6}

>  <energy>  (10) 
-7.6

>  <cluster_rmsd>  (10) 
1.74

>  <rmsd>  (10) 
270.68

>  <cluster>  (10) 
3

$$$$
YIYSDEKHFQTGLA-QCMVQFAFNA-N
     RDKit          3D

 54 57  0  0  0  0  0  0  0  0999 V2000
  139.0840   73.7600  223.0560 H   0  0  0  0  0  0  0  0  0  0  0  0
  139.9410   73.7780  222.5170 O   0  0  0  0  0  0  0  0  0  0  0  0
  140.2150   74.7950  221.6000 C   0  0  0  0  0  0  0  0  0  0  0  0
  139.6790   74.7450  220.3790 C   0  0  0  0  0  0  0  0  0  0  0  0
  138.6479   75.0992  220.2324 H   0  0  0  0  0  0  0  0  0  0  0  0
  140.5940   74.1160  218.9700 S   0  0  0  0  0  0  0  0  0  0  0  0
  141.5950   75.6010  218.8540 C   0  0  0  0  0  0  0  0  0  0  0  0
  142.9570   75.7220  219.0610 C   0  0  0  0  0  0  0  0  0  0  0  0
  143.9280   74.6460  219.3440 C   0  0  0  0  0  0  0  0  0  0  0  0
  144.2640   73.7300  218.3350 C   0  0  0  0  0  0  0  0  0  0  0  0
  143.7981   73.8147  217.3421 H   0  0  0  0  0  0  0  0  0  0  0  0
  145.1880   72.7100  218.5850 C   0  0  0  0  0  0  0  0  0  0  0  0
  145.4549   72.0025  217.7861 H   0  0  0  0  0  0  0  0  0  0  0  0
  145.7720   72.5890  219.8480 C   0  0  0  0  0  0  0  0  0  0  0  0
  146.6680   71.6000  220.0890 F   0  0  0  0  0  0  0  0  0  0  0  0
  145.4270   73.4830  220.8650 C   0  0  0  0  0  0  0  0  0  0  0  0
  145.8815   73.3827  221.8617 H   0  0  0  0  0  0  0  0  0  0  0  0
  144.5050   74.5050  220.6180 C   0  0  0  0  0  0  0  0  0  0  0  0
  144.2302   75.2014  221.4239 H   0  0  0  0  0  0  0  0  0  0  0  0
  143.2920   77.0270  219.0180 N   0  0  0  0  0  0  0  0  0  0  0  0
  142.1300   77.6710  218.7650 C   0  0  0  0  0  0  0  0  0  0  0  0
  142.0370   79.1480  218.6460 C   0  0  0  0  0  0  0  0  0  0  0  0
  141.0540   79.8790  219.3410 C   0  0  0  0  0  0  0  0  0  0  0  0
  140.3384   79.3521  219.9893 H   0  0  0  0  0  0  0  0  0  0  0  0
  140.9810   81.2690  219.2130 C   0  0  0  0  0  0  0  0  0  0  0  0
  140.2106   81.8306  219.7616 H   0  0  0  0  0  0  0  0  0  0  0  0
  141.8840   81.9470  218.3900 C   0  0  0  0  0  0  0  0  0  0  0  0
  141.7910   83.7320  218.2320 S   0  0  0  0  0  0  0  0  0  0  0  0
  143.2060   83.8270  217.0920 C   0  0  0  0  0  0  0  0  0  0  0  0
  144.1394   83.8897  217.6706 H   0  0  0  0  0  0  0  0  0  0  0  0
  143.2271   82.9283  216.4581 H   0  0  0  0  0  0  0  0  0  0  0  0
  143.1068   84.7205  216.4581 H   0  0  0  0  0  0  0  0  0  0  0  0
  142.8640   81.2320  217.6950 C   0  0  0  0  0  0  0  0  0  0  0  0
  143.5775   81.7647  217.0491 H   0  0  0  0  0  0  0  0  0  0  0  0
  142.9390   79.8430  217.8190 C   0  0  0  0  0  0  0  0  0  0  0  0
  143.7100   79.2872  217.2653 H   0  0  0  0  0  0  0  0  0  0  0  0
  141.0810   76.8260  218.6620 N   0  0  0  0  0  0  0  0  0  0  0  0
  140.0730   77.0530  218.5200 H   0  0  0  0  0  0  0  0  0  0  0  0
  141.0960   75.8760  221.9490 N   0  0  0  0  0  0  0  0  0  0  0  0
  142.1260   75.6940  221.9500 H   0  0  0  0  0  0  0  0  0  0  0  0
  140.6430   77.1830  222.3370 C   0  0  0  0  0  0  0  0  0  0  0  0
  139.2740   77.4650  222.4780 C   0  0  0  0  0  0  0  0  0  0  0  0
  138.5313   76.6688  222.3217 H   0  0  0  0  0  0  0  0  0  0  0  0
  138.8530   78.7530  222.8160 C   0  0  0  0  0  0  0  0  0  0  0  0
  137.7799   78.9664  222.9298 H   0  0  0  0  0  0  0  0  0  0  0  0
  139.7890   79.7710  223.0100 C   0  0  0  0  0  0  0  0  0  0  0  0
  139.4490   80.7850  223.2675 H   0  0  0  0  0  0  0  0  0  0  0  0
  141.1630   79.5070  222.8780 C   0  0  0  0  0  0  0  0  0  0  0  0
  142.1720   80.6180  223.0280 C   0  0  0  0  0  0  0  0  0  0  0  0
  141.9510   81.3250  224.1970 F   0  0  0  0  0  0  0  0  0  0  0  0
  142.0620   81.4810  221.9530 F   0  0  0  0  0  0  0  0  0  0  0  0
  143.4590   80.1080  223.0670 F   0  0  0  0  0  0  0  0  0  0  0  0
  141.5780   78.2140  222.5100 C   0  0  0  0  0  0  0  0  0  0  0  0
  142.6478   78.0094  222.3562 H   0  0  0  0  0  0  0  0  0  0  0  0
  1  2  1  0
  2  3  1  0
  3  4  2  0
  4  5  1  0
  4  6  1  0
  6  7  1  0
  7  8  2  0
  8  9  1  0
  9 10  2  0
 10 11  1  0
 10 12  1  0
 12 13  1  0
 12 14  2  0
 14 15  1  0
 14 16  1  0
 16 17  1  0
 16 18  2  0
 18 19  1  0
  8 20  1  0
 20 21  2  0
 21 22  1  0
 22 23  2  0
 23 24  1  0
 23 25  1  0
 25 26  1  0
 25 27  2  0
 27 28  1  0
 28 29  1  0
 29 30  1  0
 29 31  1  0
 29 32  1  0
 27 33  1  0
 33 34  1  0
 33 35  2  0
 35 36  1  0
 21 37  1  0
 37 38  1  0
  3 39  1  0
 39 40  1  0
 39 41  1  0
 41 42  2  0
 42 43  1  0
 42 44  1  0
 44 45  1  0
 44 46  2  0
 46 47  1  0
 46 48  1  0
 48 49  1  0
 49 50  1  0
 49 51  1  0
 49 52  1  0
 48 53  2  0
 53 54  1  0
 37  7  1  0
 53 41  1  0
 18  9  1  0
 35 22  1  0
M  END
>  <UniqueID>  (11) 
5

>  <SMILES>  (11) 
CSc1ccc(-c2nc(-c3ccc(F)cc3)c(S/C=C(\O)Nc3cccc(C(F)(F)F)c3)[nH]2)cc1

>  <Energy>  (11) 
87.19671064561335

>  <Genealogy>  (11) 
CSc1ccc(-c2nc(-c3ccc(F)cc3)c(SC=C(O)Nc3cccc(C(F)(F)F)c3)[nH]2)cc1 (tautomer)
CSc1ccc(-c2nc(-c3ccc(F)cc3)c(S/C=C(\O)Nc3cccc(C(F)(F)F)c3)[nH]2)cc1 (cis-trans isomerization)
CSc1ccc(-c2nc(-c3ccc(F)cc3)c(S/C=C(\O)Nc3cccc(C(F)(F)F)c3)[nH]2)cc1 (3D coordinates assigned)
CSc1ccc(-c2nc(-c3ccc(F)cc3)c(S/C=C(\O)Nc3cccc(C(F)(F)F)c3)[nH]2)cc1 (optimized conformer: 87.19671064561335 kcal/mol)

>  <smiles>  (11) 
CSc1ccc(-c2nc(-c3ccc(F)cc3)c(SCC(=O)Nc3cccc(C(F)(F)F)c3)[nH]2)cc1

>  <score_type>  (11) 
oracle

>  <origin>  (11) 
autodockgpu

>  <m_score__min__energy>  (11) 
-8.5999999999999996

>  <m_primary>  (11) 
energy

>  <meeko>  (11) 
{"free_energy": -7.72, "intermolecular_energy": -10.7, "internal_energy": -2.52, "cluster_size": 8, "cluster_id": 3, "rank_in_cluster": 2}

>  <energy>  (11) 
-7.57

>  <cluster_rmsd>  (11) 
1.75

>  <rmsd>  (11) 
270.66

>  <cluster>  (11) 
3

$$$$
YIYSDEKHFQTGLA-QCMVQFAFNA-N
     RDKit          3D

 54 57  0  0  0  0  0  0  0  0999 V2000
  136.7960   78.3260  223.0410 H   0  0  0  0  0  0  0  0  0  0  0  0
  137.8020   78.2290  222.9720 O   0  0  0  0  0  0  0  0  0  0  0  0
  138.4060   77.0130  222.6480 C   0  0  0  0  0  0  0  0  0  0  0  0
  137.6460   75.9620  222.3320 C   0  0  0  0  0  0  0  0  0  0  0  0
  136.7886   75.7096  222.9732 H   0  0  0  0  0  0  0  0  0  0  0  0
  137.9850   74.9500  220.8900 S   0  0  0  0  0  0  0  0  0  0  0  0
  139.1910   73.9550  221.7710 C   0  0  0  0  0  0  0  0  0  0  0  0
  140.5590   73.9110  221.5740 C   0  0  0  0  0  0  0  0  0  0  0  0
  141.3660   74.7340  220.6530 C   0  0  0  0  0  0  0  0  0  0  0  0
  142.7630   74.5930  220.6340 C   0  0  0  0  0  0  0  0  0  0  0  0
  143.2493   73.8745  221.3103 H   0  0  0  0  0  0  0  0  0  0  0  0
  143.5400   75.3610  219.7600 C   0  0  0  0  0  0  0  0  0  0  0  0
  144.6329   75.2376  219.7440 H   0  0  0  0  0  0  0  0  0  0  0  0
  142.9300   76.2840  218.9080 C   0  0  0  0  0  0  0  0  0  0  0  0
  143.6850   77.0270  218.0610 F   0  0  0  0  0  0  0  0  0  0  0  0
  141.5420   76.4480  218.9350 C   0  0  0  0  0  0  0  0  0  0  0  0
  141.0626   77.1808  218.2692 H   0  0  0  0  0  0  0  0  0  0  0  0
  140.7620   75.6820  219.8070 C   0  0  0  0  0  0  0  0  0  0  0  0
  139.6711   75.8213  219.8316 H   0  0  0  0  0  0  0  0  0  0  0  0
  141.0800   72.9320  222.3400 N   0  0  0  0  0  0  0  0  0  0  0  0
  140.0210   72.4140  223.0020 C   0  0  0  0  0  0  0  0  0  0  0  0
  140.1440   71.2860  223.9590 C   0  0  0  0  0  0  0  0  0  0  0  0
  140.9830   71.3700  225.0880 C   0  0  0  0  0  0  0  0  0  0  0  0
  141.5600   72.2881  225.2728 H   0  0  0  0  0  0  0  0  0  0  0  0
  141.0870   70.2940  225.9750 C   0  0  0  0  0  0  0  0  0  0  0  0
  141.7429   70.3705  226.8548 H   0  0  0  0  0  0  0  0  0  0  0  0
  140.3610   69.1220  225.7480 C   0  0  0  0  0  0  0  0  0  0  0  0
  140.4930   67.7470  226.8920 S   0  0  0  0  0  0  0  0  0  0  0  0
  140.6940   68.8190  228.3480 C   0  0  0  0  0  0  0  0  0  0  0  0
  140.5815   68.2192  229.2632 H   0  0  0  0  0  0  0  0  0  0  0  0
  141.6938   69.2775  228.3306 H   0  0  0  0  0  0  0  0  0  0  0  0
  139.9282   69.6085  228.3306 H   0  0  0  0  0  0  0  0  0  0  0  0
  139.5250   69.0280  224.6310 C   0  0  0  0  0  0  0  0  0  0  0  0
  138.9492   68.1078  224.4528 H   0  0  0  0  0  0  0  0  0  0  0  0
  139.4190   70.0990  223.7410 C   0  0  0  0  0  0  0  0  0  0  0  0
  138.7633   70.0144  222.8619 H   0  0  0  0  0  0  0  0  0  0  0  0
  138.8580   73.0170  222.6720 N   0  0  0  0  0  0  0  0  0  0  0  0
  137.8920   72.7880  222.9920 H   0  0  0  0  0  0  0  0  0  0  0  0
  139.8360   76.8730  222.6820 N   0  0  0  0  0  0  0  0  0  0  0  0
  140.2360   75.9240  222.8660 H   0  0  0  0  0  0  0  0  0  0  0  0
  140.7500   77.9690  222.5210 C   0  0  0  0  0  0  0  0  0  0  0  0
  141.6000   78.3670  223.5660 C   0  0  0  0  0  0  0  0  0  0  0  0
  141.5948   77.8144  224.5171 H   0  0  0  0  0  0  0  0  0  0  0  0
  142.4520   79.4620  223.4020 C   0  0  0  0  0  0  0  0  0  0  0  0
  143.1186   79.7657  224.2226 H   0  0  0  0  0  0  0  0  0  0  0  0
  142.4600   80.1720  222.2000 C   0  0  0  0  0  0  0  0  0  0  0  0
  143.1274   81.0383  222.0813 H   0  0  0  0  0  0  0  0  0  0  0  0
  141.6210   79.7870  221.1410 C   0  0  0  0  0  0  0  0  0  0  0  0
  141.5860   80.5890  219.8640 C   0  0  0  0  0  0  0  0  0  0  0  0
  140.3630   80.4500  219.2320 F   0  0  0  0  0  0  0  0  0  0  0  0
  142.5830   80.1400  219.0180 F   0  0  0  0  0  0  0  0  0  0  0  0
  141.7880   81.9330  220.1250 F   0  0  0  0  0  0  0  0  0  0  0  0
  140.7460   78.7000  221.3240 C   0  0  0  0  0  0  0  0  0  0  0  0
  140.0508   78.4204  220.5187 H   0  0  0  0  0  0  0  0  0  0  0  0
  1  2  1  0
  2  3  1  0
  3  4  2  0
  4  5  1  0
  4  6  1  0
  6  7  1  0
  7  8  2  0
  8  9  1  0
  9 10  2  0
 10 11  1  0
 10 12  1  0
 12 13  1  0
 12 14  2  0
 14 15  1  0
 14 16  1  0
 16 17  1  0
 16 18  2  0
 18 19  1  0
  8 20  1  0
 20 21  2  0
 21 22  1  0
 22 23  2  0
 23 24  1  0
 23 25  1  0
 25 26  1  0
 25 27  2  0
 27 28  1  0
 28 29  1  0
 29 30  1  0
 29 31  1  0
 29 32  1  0
 27 33  1  0
 33 34  1  0
 33 35  2  0
 35 36  1  0
 21 37  1  0
 37 38  1  0
  3 39  1  0
 39 40  1  0
 39 41  1  0
 41 42  2  0
 42 43  1  0
 42 44  1  0
 44 45  1  0
 44 46  2  0
 46 47  1  0
 46 48  1  0
 48 49  1  0
 49 50  1  0
 49 51  1  0
 49 52  1  0
 48 53  2  0
 53 54  1  0
 37  7  1  0
 53 41  1  0
 18  9  1  0
 35 22  1  0
M  END
>  <UniqueID>  (12) 
5

>  <SMILES>  (12) 
CSc1ccc(-c2nc(-c3ccc(F)cc3)c(S/C=C(\O)Nc3cccc(C(F)(F)F)c3)[nH]2)cc1

>  <Energy>  (12) 
87.19671064561335

>  <Genealogy>  (12) 
CSc1ccc(-c2nc(-c3ccc(F)cc3)c(SC=C(O)Nc3cccc(C(F)(F)F)c3)[nH]2)cc1 (tautomer)
CSc1ccc(-c2nc(-c3ccc(F)cc3)c(S/C=C(\O)Nc3cccc(C(F)(F)F)c3)[nH]2)cc1 (cis-trans isomerization)
CSc1ccc(-c2nc(-c3ccc(F)cc3)c(S/C=C(\O)Nc3cccc(C(F)(F)F)c3)[nH]2)cc1 (3D coordinates assigned)
CSc1ccc(-c2nc(-c3ccc(F)cc3)c(S/C=C(\O)Nc3cccc(C(F)(F)F)c3)[nH]2)cc1 (optimized conformer: 87.19671064561335 kcal/mol)

>  <smiles>  (12) 
CSc1ccc(-c2nc(-c3ccc(F)cc3)c(SCC(=O)Nc3cccc(C(F)(F)F)c3)[nH]2)cc1

>  <score_type>  (12) 
oracle

>  <origin>  (12) 
autodockgpu

>  <m_score__min__energy>  (12) 
-8.5999999999999996

>  <m_primary>  (12) 
energy

>  <meeko>  (12) 
{"free_energy": -7.47, "intermolecular_energy": -10.45, "internal_energy": -2.12, "cluster_size": 4, "cluster_id": 4, "rank_in_cluster": 3}

>  <energy>  (12) 
-7.54

>  <cluster_rmsd>  (12) 
1.84

>  <rmsd>  (12) 
270.7

>  <cluster>  (12) 
3

$$$$
YIYSDEKHFQTGLA-QCMVQFAFNA-N
     RDKit          3D

 54 57  0  0  0  0  0  0  0  0999 V2000
  138.8570   74.8880  223.4100 H   0  0  0  0  0  0  0  0  0  0  0  0
  138.4230   75.6480  222.9010 O   0  0  0  0  0  0  0  0  0  0  0  0
  139.1760   76.6160  222.2340 C   0  0  0  0  0  0  0  0  0  0  0  0
  139.9860   76.2510  221.2380 C   0  0  0  0  0  0  0  0  0  0  0  0
  140.9200   76.8089  221.0758 H   0  0  0  0  0  0  0  0  0  0  0  0
  139.5920   74.8750  220.1570 S   0  0  0  0  0  0  0  0  0  0  0  0
  140.3480   73.6820  221.2650 C   0  0  0  0  0  0  0  0  0  0  0  0
  141.5380   72.9990  221.0900 C   0  0  0  0  0  0  0  0  0  0  0  0
  142.5140   73.1510  219.9920 C   0  0  0  0  0  0  0  0  0  0  0  0
  142.1190   72.8950  218.6690 C   0  0  0  0  0  0  0  0  0  0  0  0
  141.0873   72.5771  218.4581 H   0  0  0  0  0  0  0  0  0  0  0  0
  143.0300   73.0420  217.6180 C   0  0  0  0  0  0  0  0  0  0  0  0
  142.7104   72.8502  216.5831 H   0  0  0  0  0  0  0  0  0  0  0  0
  144.3450   73.4320  217.8810 C   0  0  0  0  0  0  0  0  0  0  0  0
  145.2270   73.5750  216.8610 F   0  0  0  0  0  0  0  0  0  0  0  0
  144.7540   73.6670  219.1970 C   0  0  0  0  0  0  0  0  0  0  0  0
  145.7919   73.9663  219.4046 H   0  0  0  0  0  0  0  0  0  0  0  0
  143.8450   73.5220  220.2500 C   0  0  0  0  0  0  0  0  0  0  0  0
  144.1732   73.6991  221.2849 H   0  0  0  0  0  0  0  0  0  0  0  0
  141.6730   72.0940  222.0800 N   0  0  0  0  0  0  0  0  0  0  0  0
  140.5730   72.2590  222.8480 C   0  0  0  0  0  0  0  0  0  0  0  0
  140.3070   71.4440  224.0590 C   0  0  0  0  0  0  0  0  0  0  0  0
  139.3210   70.4370  224.0630 C   0  0  0  0  0  0  0  0  0  0  0  0
  138.7339   70.2439  223.1531 H   0  0  0  0  0  0  0  0  0  0  0  0
  139.0840   69.6820  225.2150 C   0  0  0  0  0  0  0  0  0  0  0  0
  138.3142   68.8963  225.2067 H   0  0  0  0  0  0  0  0  0  0  0  0
  139.8220   69.9220  226.3780 C   0  0  0  0  0  0  0  0  0  0  0  0
  139.5180   68.9470  227.8530 S   0  0  0  0  0  0  0  0  0  0  0  0
  141.1230   68.0940  227.7660 C   0  0  0  0  0  0  0  0  0  0  0  0
  141.4902   67.8989  228.7844 H   0  0  0  0  0  0  0  0  0  0  0  0
  141.0030   67.1407  227.2305 H   0  0  0  0  0  0  0  0  0  0  0  0
  141.8460   68.7268  227.2305 H   0  0  0  0  0  0  0  0  0  0  0  0
  140.8030   70.9180  226.3850 C   0  0  0  0  0  0  0  0  0  0  0  0
  141.3881   71.1053  227.2974 H   0  0  0  0  0  0  0  0  0  0  0  0
  141.0420   71.6760  225.2360 C   0  0  0  0  0  0  0  0  0  0  0  0
  141.8120   72.4614  225.2517 H   0  0  0  0  0  0  0  0  0  0  0  0
  139.7480   73.2190  222.3720 N   0  0  0  0  0  0  0  0  0  0  0  0
  138.8170   73.5160  222.7370 H   0  0  0  0  0  0  0  0  0  0  0  0
  139.1100   77.9960  222.6310 N   0  0  0  0  0  0  0  0  0  0  0  0
  138.1780   78.3920  222.8930 H   0  0  0  0  0  0  0  0  0  0  0  0
  140.2440   78.8770  222.6490 C   0  0  0  0  0  0  0  0  0  0  0  0
  141.3840   78.5790  223.4140 C   0  0  0  0  0  0  0  0  0  0  0  0
  141.4298   77.6406  223.9862 H   0  0  0  0  0  0  0  0  0  0  0  0
  142.4590   79.4690  223.4510 C   0  0  0  0  0  0  0  0  0  0  0  0
  143.3505   79.2274  224.0484 H   0  0  0  0  0  0  0  0  0  0  0  0
  142.4060   80.6650  222.7320 C   0  0  0  0  0  0  0  0  0  0  0  0
  143.2533   81.3653  222.7723 H   0  0  0  0  0  0  0  0  0  0  0  0
  141.2760   80.9790  221.9570 C   0  0  0  0  0  0  0  0  0  0  0  0
  141.1930   82.2980  221.2280 C   0  0  0  0  0  0  0  0  0  0  0  0
  141.8200   82.2170  219.9980 F   0  0  0  0  0  0  0  0  0  0  0  0
  141.8120   83.2750  221.9850 F   0  0  0  0  0  0  0  0  0  0  0  0
  139.8730   82.6570  221.0190 F   0  0  0  0  0  0  0  0  0  0  0  0
  140.1860   80.0900  221.9480 C   0  0  0  0  0  0  0  0  0  0  0  0
  139.2776   80.3493  221.3845 H   0  0  0  0  0  0  0  0  0  0  0  0
  1  2  1  0
  2  3  1  0
  3  4  2  0
  4  5  1  0
  4  6  1  0
  6  7  1  0
  7  8  2  0
  8  9  1  0
  9 10  2  0
 10 11  1  0
 10 12  1  0
 12 13  1  0
 12 14  2  0
 14 15  1  0
 14 16  1  0
 16 17  1  0
 16 18  2  0
 18 19  1  0
  8 20  1  0
 20 21  2  0
 21 22  1  0
 22 23  2  0
 23 24  1  0
 23 25  1  0
 25 26  1  0
 25 27  2  0
 27 28  1  0
 28 29  1  0
 29 30  1  0
 29 31  1  0
 29 32  1  0
 27 33  1  0
 33 34  1  0
 33 35  2  0
 35 36  1  0
 21 37  1  0
 37 38  1  0
  3 39  1  0
 39 40  1  0
 39 41  1  0
 41 42  2  0
 42 43  1  0
 42 44  1  0
 44 45  1  0
 44 46  2  0
 46 47  1  0
 46 48  1  0
 48 49  1  0
 49 50  1  0
 49 51  1  0
 49 52  1  0
 48 53  2  0
 53 54  1  0
 37  7  1  0
 53 41  1  0
 18  9  1  0
 35 22  1  0
M  END
>  <UniqueID>  (13) 
5

>  <SMILES>  (13) 
CSc1ccc(-c2nc(-c3ccc(F)cc3)c(S/C=C(\O)Nc3cccc(C(F)(F)F)c3)[nH]2)cc1

>  <Energy>  (13) 
87.19671064561335

>  <Genealogy>  (13) 
CSc1ccc(-c2nc(-c3ccc(F)cc3)c(SC=C(O)Nc3cccc(C(F)(F)F)c3)[nH]2)cc1 (tautomer)
CSc1ccc(-c2nc(-c3ccc(F)cc3)c(S/C=C(\O)Nc3cccc(C(F)(F)F)c3)[nH]2)cc1 (cis-trans isomerization)
CSc1ccc(-c2nc(-c3ccc(F)cc3)c(S/C=C(\O)Nc3cccc(C(F)(F)F)c3)[nH]2)cc1 (3D coordinates assigned)
CSc1ccc(-c2nc(-c3ccc(F)cc3)c(S/C=C(\O)Nc3cccc(C(F)(F)F)c3)[nH]2)cc1 (optimized conformer: 87.19671064561335 kcal/mol)

>  <smiles>  (13) 
CSc1ccc(-c2nc(-c3ccc(F)cc3)c(SCC(=O)Nc3cccc(C(F)(F)F)c3)[nH]2)cc1

>  <score_type>  (13) 
oracle

>  <origin>  (13) 
autodockgpu

>  <m_score__min__energy>  (13) 
-8.5999999999999996

>  <m_primary>  (13) 
energy

>  <meeko>  (13) 
{"free_energy": -7.71, "intermolecular_energy": -10.7, "internal_energy": -1.75, "cluster_size": 6, "cluster_id": 1, "rank_in_cluster": 5}

>  <energy>  (13) 
-7.47

>  <cluster_rmsd>  (13) 
1.82

>  <rmsd>  (13) 
270.88

>  <cluster>  (13) 
3

$$$$
YIYSDEKHFQTGLA-QCMVQFAFNA-N
     RDKit          3D

 54 57  0  0  0  0  0  0  0  0999 V2000
  138.2030   75.5070  223.4650 H   0  0  0  0  0  0  0  0  0  0  0  0
  138.5300   76.4540  223.3150 O   0  0  0  0  0  0  0  0  0  0  0  0
  139.4320   76.7710  222.2980 C   0  0  0  0  0  0  0  0  0  0  0  0
  139.0520   76.6680  221.0230 C   0  0  0  0  0  0  0  0  0  0  0  0
  139.1889   77.5292  220.3525 H   0  0  0  0  0  0  0  0  0  0  0  0
  138.3240   75.1630  220.3730 S   0  0  0  0  0  0  0  0  0  0  0  0
  139.4120   74.1190  221.3460 C   0  0  0  0  0  0  0  0  0  0  0  0
  140.7600   73.8810  221.1450 C   0  0  0  0  0  0  0  0  0  0  0  0
  141.6450   74.4930  220.1340 C   0  0  0  0  0  0  0  0  0  0  0  0
  141.9150   73.8080  218.9380 C   0  0  0  0  0  0  0  0  0  0  0  0
  141.4715   72.8167  218.7631 H   0  0  0  0  0  0  0  0  0  0  0  0
  142.7450   74.3800  217.9680 C   0  0  0  0  0  0  0  0  0  0  0  0
  142.9437   73.8425  217.0291 H   0  0  0  0  0  0  0  0  0  0  0  0
  143.3220   75.6330  218.1900 C   0  0  0  0  0  0  0  0  0  0  0  0
  144.1260   76.1850  217.2480 F   0  0  0  0  0  0  0  0  0  0  0  0
  143.0770   76.3110  219.3870 C   0  0  0  0  0  0  0  0  0  0  0  0
  143.5385   77.2934  219.5655 H   0  0  0  0  0  0  0  0  0  0  0  0
  142.2470   75.7440  220.3580 C   0  0  0  0  0  0  0  0  0  0  0  0
  142.0638   76.2787  221.3017 H   0  0  0  0  0  0  0  0  0  0  0  0
  141.1690   72.9290  222.0060 N   0  0  0  0  0  0  0  0  0  0  0  0
  140.0670   72.6220  222.7280 C   0  0  0  0  0  0  0  0  0  0  0  0
  140.0670   71.5940  223.7980 C   0  0  0  0  0  0  0  0  0  0  0  0
  139.3990   70.3650  223.6340 C   0  0  0  0  0  0  0  0  0  0  0  0
  138.8663   70.1542  222.6950 H   0  0  0  0  0  0  0  0  0  0  0  0
  139.4080   69.4110  224.6560 C   0  0  0  0  0  0  0  0  0  0  0  0
  138.8867   68.4526  224.5158 H   0  0  0  0  0  0  0  0  0  0  0  0
  140.0770   69.6710  225.8550 C   0  0  0  0  0  0  0  0  0  0  0  0
  140.0900   68.4420  227.1620 S   0  0  0  0  0  0  0  0  0  0  0  0
  139.5800   69.6270  228.4460 C   0  0  0  0  0  0  0  0  0  0  0  0
  139.7665   69.1937  229.4397 H   0  0  0  0  0  0  0  0  0  0  0  0
  140.1576   70.5568  228.3371 H   0  0  0  0  0  0  0  0  0  0  0  0
  138.5077   69.8467  228.3371 H   0  0  0  0  0  0  0  0  0  0  0  0
  140.7430   70.8880  226.0290 C   0  0  0  0  0  0  0  0  0  0  0  0
  141.2739   71.0930  226.9703 H   0  0  0  0  0  0  0  0  0  0  0  0
  140.7360   71.8440  225.0110 C   0  0  0  0  0  0  0  0  0  0  0  0
  141.2580   72.8010  225.1584 H   0  0  0  0  0  0  0  0  0  0  0  0
  138.9830   73.3320  222.3440 N   0  0  0  0  0  0  0  0  0  0  0  0
  138.0030   73.2630  222.6940 H   0  0  0  0  0  0  0  0  0  0  0  0
  140.7760   77.1750  222.6110 N   0  0  0  0  0  0  0  0  0  0  0  0
  141.4960   76.4300  222.7540 H   0  0  0  0  0  0  0  0  0  0  0  0
  141.1800   78.5430  222.7810 C   0  0  0  0  0  0  0  0  0  0  0  0
  142.1990   78.8930  223.6820 C   0  0  0  0  0  0  0  0  0  0  0  0
  142.7238   78.1090  224.2477 H   0  0  0  0  0  0  0  0  0  0  0  0
  142.5480   80.2330  223.8620 C   0  0  0  0  0  0  0  0  0  0  0  0
  143.3507   80.5004  224.5650 H   0  0  0  0  0  0  0  0  0  0  0  0
  141.8820   81.2350  223.1530 C   0  0  0  0  0  0  0  0  0  0  0  0
  142.1566   82.2890  223.3070 H   0  0  0  0  0  0  0  0  0  0  0  0
  140.8630   80.9040  222.2440 C   0  0  0  0  0  0  0  0  0  0  0  0
  140.1020   81.9890  221.5220 C   0  0  0  0  0  0  0  0  0  0  0  0
  140.8670   83.1370  221.4200 F   0  0  0  0  0  0  0  0  0  0  0  0
  138.9470   82.2780  222.2250 F   0  0  0  0  0  0  0  0  0  0  0  0
  139.7620   81.5790  220.2450 F   0  0  0  0  0  0  0  0  0  0  0  0
  140.4980   79.5540  222.0890 C   0  0  0  0  0  0  0  0  0  0  0  0
  139.6682   79.2887  221.4174 H   0  0  0  0  0  0  0  0  0  0  0  0
  1  2  1  0
  2  3  1  0
  3  4  2  0
  4  5  1  0
  4  6  1  0
  6  7  1  0
  7  8  2  0
  8  9  1  0
  9 10  2  0
 10 11  1  0
 10 12  1  0
 12 13  1  0
 12 14  2  0
 14 15  1  0
 14 16  1  0
 16 17  1  0
 16 18  2  0
 18 19  1  0
  8 20  1  0
 20 21  2  0
 21 22  1  0
 22 23  2  0
 23 24  1  0
 23 25  1  0
 25 26  1  0
 25 27  2  0
 27 28  1  0
 28 29  1  0
 29 30  1  0
 29 31  1  0
 29 32  1  0
 27 33  1  0
 33 34  1  0
 33 35  2  0
 35 36  1  0
 21 37  1  0
 37 38  1  0
  3 39  1  0
 39 40  1  0
 39 41  1  0
 41 42  2  0
 42 43  1  0
 42 44  1  0
 44 45  1  0
 44 46  2  0
 46 47  1  0
 46 48  1  0
 48 49  1  0
 49 50  1  0
 49 51  1  0
 49 52  1  0
 48 53  2  0
 53 54  1  0
 37  7  1  0
 53 41  1  0
 18  9  1  0
 35 22  1  0
M  END
>  <UniqueID>  (14) 
5

>  <SMILES>  (14) 
CSc1ccc(-c2nc(-c3ccc(F)cc3)c(S/C=C(\O)Nc3cccc(C(F)(F)F)c3)[nH]2)cc1

>  <Energy>  (14) 
87.19671064561335

>  <Genealogy>  (14) 
CSc1ccc(-c2nc(-c3ccc(F)cc3)c(SC=C(O)Nc3cccc(C(F)(F)F)c3)[nH]2)cc1 (tautomer)
CSc1ccc(-c2nc(-c3ccc(F)cc3)c(S/C=C(\O)Nc3cccc(C(F)(F)F)c3)[nH]2)cc1 (cis-trans isomerization)
CSc1ccc(-c2nc(-c3ccc(F)cc3)c(S/C=C(\O)Nc3cccc(C(F)(F)F)c3)[nH]2)cc1 (3D coordinates assigned)
CSc1ccc(-c2nc(-c3ccc(F)cc3)c(S/C=C(\O)Nc3cccc(C(F)(F)F)c3)[nH]2)cc1 (optimized conformer: 87.19671064561335 kcal/mol)

>  <smiles>  (14) 
CSc1ccc(-c2nc(-c3ccc(F)cc3)c(SCC(=O)Nc3cccc(C(F)(F)F)c3)[nH]2)cc1

>  <score_type>  (14) 
oracle

>  <origin>  (14) 
autodockgpu

>  <m_score__min__energy>  (14) 
-8.5999999999999996

>  <m_primary>  (14) 
energy

>  <meeko>  (14) 
{"free_energy": -8.11, "intermolecular_energy": -11.09, "internal_energy": -1.7, "cluster_size": 6, "cluster_id": 1, "rank_in_cluster": 2}

>  <energy>  (14) 
-6.79

>  <cluster_rmsd>  (14) 
1.82

>  <rmsd>  (14) 
270.61

>  <cluster>  (14) 
3

$$$$
YIYSDEKHFQTGLA-QCMVQFAFNA-N
     RDKit          3D

 54 57  0  0  0  0  0  0  0  0999 V2000
  139.0870   73.7100  223.0340 H   0  0  0  0  0  0  0  0  0  0  0  0
  139.9520   73.7600  222.5090 O   0  0  0  0  0  0  0  0  0  0  0  0
  140.2000   74.7780  221.5870 C   0  0  0  0  0  0  0  0  0  0  0  0
  139.6310   74.7290  220.3810 C   0  0  0  0  0  0  0  0  0  0  0  0
  138.5862   75.0541  220.2682 H   0  0  0  0  0  0  0  0  0  0  0  0
  140.5250   74.1470  218.9390 S   0  0  0  0  0  0  0  0  0  0  0  0
  141.4960   75.6530  218.8310 C   0  0  0  0  0  0  0  0  0  0  0  0
  142.8600   75.7950  219.0140 C   0  0  0  0  0  0  0  0  0  0  0  0
  143.8560   74.7330  219.2550 C   0  0  0  0  0  0  0  0  0  0  0  0
  144.5580   74.7000  220.4710 C   0  0  0  0  0  0  0  0  0  0  0  0
  144.3675   75.4693  221.2338 H   0  0  0  0  0  0  0  0  0  0  0  0
  145.4980   73.6940  220.7170 C   0  0  0  0  0  0  0  0  0  0  0  0
  146.0360   73.6681  221.6761 H   0  0  0  0  0  0  0  0  0  0  0  0
  145.7550   72.7220  219.7470 C   0  0  0  0  0  0  0  0  0  0  0  0
  146.6660   71.7480  219.9880 F   0  0  0  0  0  0  0  0  0  0  0  0
  145.0770   72.7600  218.5260 C   0  0  0  0  0  0  0  0  0  0  0  0
  145.2842   71.9987  217.7595 H   0  0  0  0  0  0  0  0  0  0  0  0
  144.1360   73.7630  218.2760 C   0  0  0  0  0  0  0  0  0  0  0  0
  143.6122   73.7937  217.3092 H   0  0  0  0  0  0  0  0  0  0  0  0
  143.1690   77.1070  218.9890 N   0  0  0  0  0  0  0  0  0  0  0  0
  141.9910   77.7340  218.7720 C   0  0  0  0  0  0  0  0  0  0  0  0
  141.8690   79.2100  218.6850 C   0  0  0  0  0  0  0  0  0  0  0  0
  142.7210   79.9690  217.8580 C   0  0  0  0  0  0  0  0  0  0  0  0
  143.4936   79.4640  217.2596 H   0  0  0  0  0  0  0  0  0  0  0  0
  142.5910   81.3590  217.7930 C   0  0  0  0  0  0  0  0  0  0  0  0
  143.2589   81.9419  217.1418 H   0  0  0  0  0  0  0  0  0  0  0  0
  141.6160   82.0110  218.5520 C   0  0  0  0  0  0  0  0  0  0  0  0
  141.4500   83.7950  218.4610 S   0  0  0  0  0  0  0  0  0  0  0  0
  142.7010   83.9670  217.1500 C   0  0  0  0  0  0  0  0  0  0  0  0
  143.6930   84.1034  217.6054 H   0  0  0  0  0  0  0  0  0  0  0  0
  142.7054   83.0610  216.5262 H   0  0  0  0  0  0  0  0  0  0  0  0
  142.4607   84.8406  216.5262 H   0  0  0  0  0  0  0  0  0  0  0  0
  140.7650   81.2690  219.3760 C   0  0  0  0  0  0  0  0  0  0  0  0
  139.9944   81.7804  219.9715 H   0  0  0  0  0  0  0  0  0  0  0  0
  140.8910   79.8790  219.4450 C   0  0  0  0  0  0  0  0  0  0  0  0
  140.2201   79.3025  220.0989 H   0  0  0  0  0  0  0  0  0  0  0  0
  140.9560   76.8710  218.6740 N   0  0  0  0  0  0  0  0  0  0  0  0
  139.9410   77.0820  218.5570 H   0  0  0  0  0  0  0  0  0  0  0  0
  141.0870   75.8610  221.9140 N   0  0  0  0  0  0  0  0  0  0  0  0
  142.1170   75.6790  221.8970 H   0  0  0  0  0  0  0  0  0  0  0  0
  140.6410   77.1690  222.3050 C   0  0  0  0  0  0  0  0  0  0  0  0
  139.2750   77.4540  222.4640 C   0  0  0  0  0  0  0  0  0  0  0  0
  138.5287   76.6589  222.3196 H   0  0  0  0  0  0  0  0  0  0  0  0
  138.8610   78.7440  222.8050 C   0  0  0  0  0  0  0  0  0  0  0  0
  137.7900   78.9597  222.9337 H   0  0  0  0  0  0  0  0  0  0  0  0
  139.8010   79.7600  222.9830 C   0  0  0  0  0  0  0  0  0  0  0  0
  139.4662   80.7752  223.2423 H   0  0  0  0  0  0  0  0  0  0  0  0
  141.1730   79.4940  222.8330 C   0  0  0  0  0  0  0  0  0  0  0  0
  142.1860   80.6040  222.9670 C   0  0  0  0  0  0  0  0  0  0  0  0
  143.4680   80.1240  222.7660 F   0  0  0  0  0  0  0  0  0  0  0  0
  142.1010   81.1450  224.2370 F   0  0  0  0  0  0  0  0  0  0  0  0
  141.9450   81.6000  222.0360 F   0  0  0  0  0  0  0  0  0  0  0  0
  141.5800   78.1990  222.4630 C   0  0  0  0  0  0  0  0  0  0  0  0
  142.6473   77.9918  222.2956 H   0  0  0  0  0  0  0  0  0  0  0  0
  1  2  1  0
  2  3  1  0
  3  4  2  0
  4  5  1  0
  4  6  1  0
  6  7  1  0
  7  8  2  0
  8  9  1  0
  9 10  2  0
 10 11  1  0
 10 12  1  0
 12 13  1  0
 12 14  2  0
 14 15  1  0
 14 16  1  0
 16 17  1  0
 16 18  2  0
 18 19  1  0
  8 20  1  0
 20 21  2  0
 21 22  1  0
 22 23  2  0
 23 24  1  0
 23 25  1  0
 25 26  1  0
 25 27  2  0
 27 28  1  0
 28 29  1  0
 29 30  1  0
 29 31  1  0
 29 32  1  0
 27 33  1  0
 33 34  1  0
 33 35  2  0
 35 36  1  0
 21 37  1  0
 37 38  1  0
  3 39  1  0
 39 40  1  0
 39 41  1  0
 41 42  2  0
 42 43  1  0
 42 44  1  0
 44 45  1  0
 44 46  2  0
 46 47  1  0
 46 48  1  0
 48 49  1  0
 49 50  1  0
 49 51  1  0
 49 52  1  0
 48 53  2  0
 53 54  1  0
 37  7  1  0
 53 41  1  0
 18  9  1  0
 35 22  1  0
M  END
>  <UniqueID>  (15) 
5

>  <SMILES>  (15) 
CSc1ccc(-c2nc(-c3ccc(F)cc3)c(S/C=C(\O)Nc3cccc(C(F)(F)F)c3)[nH]2)cc1

>  <Energy>  (15) 
87.19671064561335

>  <Genealogy>  (15) 
CSc1ccc(-c2nc(-c3ccc(F)cc3)c(SC=C(O)Nc3cccc(C(F)(F)F)c3)[nH]2)cc1 (tautomer)
CSc1ccc(-c2nc(-c3ccc(F)cc3)c(S/C=C(\O)Nc3cccc(C(F)(F)F)c3)[nH]2)cc1 (cis-trans isomerization)
CSc1ccc(-c2nc(-c3ccc(F)cc3)c(S/C=C(\O)Nc3cccc(C(F)(F)F)c3)[nH]2)cc1 (3D coordinates assigned)
CSc1ccc(-c2nc(-c3ccc(F)cc3)c(S/C=C(\O)Nc3cccc(C(F)(F)F)c3)[nH]2)cc1 (optimized conformer: 87.19671064561335 kcal/mol)

>  <smiles>  (15) 
CSc1ccc(-c2nc(-c3ccc(F)cc3)c(SCC(=O)Nc3cccc(C(F)(F)F)c3)[nH]2)cc1

>  <score_type>  (15) 
oracle

>  <origin>  (15) 
autodockgpu

>  <m_score__min__energy>  (15) 
-8.5999999999999996

>  <m_primary>  (15) 
energy

>  <meeko>  (15) 
{"free_energy": -7.57, "intermolecular_energy": -10.56, "internal_energy": -2.6, "cluster_size": 8, "cluster_id": 3, "rank_in_cluster": 4}

>  <energy>  (15) 
-6.77

>  <cluster_rmsd>  (15) 
1.41

>  <rmsd>  (15) 
270.22

>  <cluster>  (15) 
3

$$$$
YIYSDEKHFQTGLA-QCMVQFAFNA-N
     RDKit          3D

 54 57  0  0  0  0  0  0  0  0999 V2000
  138.9580   74.1410  222.7730 H   0  0  0  0  0  0  0  0  0  0  0  0
  139.8680   74.1800  222.3290 O   0  0  0  0  0  0  0  0  0  0  0  0
  140.2030   75.1840  221.4190 C   0  0  0  0  0  0  0  0  0  0  0  0
  139.5940   75.2300  220.2330 C   0  0  0  0  0  0  0  0  0  0  0  0
  138.5905   75.6752  220.1635 H   0  0  0  0  0  0  0  0  0  0  0  0
  140.3680   74.5850  218.7480 S   0  0  0  0  0  0  0  0  0  0  0  0
  141.4280   76.0240  218.5770 C   0  0  0  0  0  0  0  0  0  0  0  0
  142.7900   76.1040  218.8040 C   0  0  0  0  0  0  0  0  0  0  0  0
  143.7130   75.0080  219.1560 C   0  0  0  0  0  0  0  0  0  0  0  0
  144.0830   74.0680  218.1800 C   0  0  0  0  0  0  0  0  0  0  0  0
  143.6784   74.1497  217.1604 H   0  0  0  0  0  0  0  0  0  0  0  0
  144.9630   73.0290  218.4980 C   0  0  0  0  0  0  0  0  0  0  0  0
  145.2567   72.3029  217.7257 H   0  0  0  0  0  0  0  0  0  0  0  0
  145.4700   72.9110  219.7940 C   0  0  0  0  0  0  0  0  0  0  0  0
  146.3240   71.9030  220.1000 F   0  0  0  0  0  0  0  0  0  0  0  0
  145.0900   73.8280  220.7780 C   0  0  0  0  0  0  0  0  0  0  0  0
  145.4830   73.7306  221.8008 H   0  0  0  0  0  0  0  0  0  0  0  0
  144.2110   74.8690  220.4640 C   0  0  0  0  0  0  0  0  0  0  0  0
  143.9074   75.5829  221.2439 H   0  0  0  0  0  0  0  0  0  0  0  0
  143.1750   77.3920  218.7030 N   0  0  0  0  0  0  0  0  0  0  0  0
  142.0430   78.0660  218.3970 C   0  0  0  0  0  0  0  0  0  0  0  0
  142.0090   79.5370  218.2050 C   0  0  0  0  0  0  0  0  0  0  0  0
  142.1420   80.1130  216.9260 C   0  0  0  0  0  0  0  0  0  0  0  0
  142.2712   79.4654  216.0463 H   0  0  0  0  0  0  0  0  0  0  0  0
  142.1110   81.5010  216.7670 C   0  0  0  0  0  0  0  0  0  0  0  0
  142.2121   81.9401  215.7635 H   0  0  0  0  0  0  0  0  0  0  0  0
  141.9520   82.3330  217.8780 C   0  0  0  0  0  0  0  0  0  0  0  0
  141.9080   84.1140  217.6690 S   0  0  0  0  0  0  0  0  0  0  0  0
  143.6280   84.2100  217.0820 C   0  0  0  0  0  0  0  0  0  0  0  0
  144.3085   84.2480  217.9454 H   0  0  0  0  0  0  0  0  0  0  0  0
  143.8576   83.3233  216.4729 H   0  0  0  0  0  0  0  0  0  0  0  0
  143.7575   85.1168  216.4729 H   0  0  0  0  0  0  0  0  0  0  0  0
  141.8190   81.7730  219.1520 C   0  0  0  0  0  0  0  0  0  0  0  0
  141.6896   82.4262  220.0276 H   0  0  0  0  0  0  0  0  0  0  0  0
  141.8500   80.3860  219.3160 C   0  0  0  0  0  0  0  0  0  0  0  0
  141.7492   79.9537  220.3224 H   0  0  0  0  0  0  0  0  0  0  0  0
  140.9640   77.2560  218.3170 N   0  0  0  0  0  0  0  0  0  0  0  0
  139.9680   77.5140  218.1450 H   0  0  0  0  0  0  0  0  0  0  0  0
  141.2220   76.1480  221.7360 N   0  0  0  0  0  0  0  0  0  0  0  0
  142.2220   75.8490  221.6740 H   0  0  0  0  0  0  0  0  0  0  0  0
  140.9460   77.4880  222.1730 C   0  0  0  0  0  0  0  0  0  0  0  0
  141.4820   77.9870  223.3720 C   0  0  0  0  0  0  0  0  0  0  0  0
  142.1525   77.3580  223.9759 H   0  0  0  0  0  0  0  0  0  0  0  0
  141.1670   79.2780  223.8000 C   0  0  0  0  0  0  0  0  0  0  0  0
  141.5942   79.6640  224.7373 H   0  0  0  0  0  0  0  0  0  0  0  0
  140.3120   80.0810  223.0430 C   0  0  0  0  0  0  0  0  0  0  0  0
  140.0618   81.0940  223.3913 H   0  0  0  0  0  0  0  0  0  0  0  0
  139.7690   79.6020  221.8380 C   0  0  0  0  0  0  0  0  0  0  0  0
  138.7980   80.4450  221.0500 C   0  0  0  0  0  0  0  0  0  0  0  0
  137.5340   80.3880  221.6080 F   0  0  0  0  0  0  0  0  0  0  0  0
  138.7380   79.9740  219.7510 F   0  0  0  0  0  0  0  0  0  0  0  0
  139.2040   81.7680  221.0310 F   0  0  0  0  0  0  0  0  0  0  0  0
  140.0680   78.2900  221.4280 C   0  0  0  0  0  0  0  0  0  0  0  0
  139.6083   77.8882  220.5130 H   0  0  0  0  0  0  0  0  0  0  0  0
  1  2  1  0
  2  3  1  0
  3  4  2  0
  4  5  1  0
  4  6  1  0
  6  7  1  0
  7  8  2  0
  8  9  1  0
  9 10  2  0
 10 11  1  0
 10 12  1  0
 12 13  1  0
 12 14  2  0
 14 15  1  0
 14 16  1  0
 16 17  1  0
 16 18  2  0
 18 19  1  0
  8 20  1  0
 20 21  2  0
 21 22  1  0
 22 23  2  0
 23 24  1  0
 23 25  1  0
 25 26  1  0
 25 27  2  0
 27 28  1  0
 28 29  1  0
 29 30  1  0
 29 31  1  0
 29 32  1  0
 27 33  1  0
 33 34  1  0
 33 35  2  0
 35 36  1  0
 21 37  1  0
 37 38  1  0
  3 39  1  0
 39 40  1  0
 39 41  1  0
 41 42  2  0
 42 43  1  0
 42 44  1  0
 44 45  1  0
 44 46  2  0
 46 47  1  0
 46 48  1  0
 48 49  1  0
 49 50  1  0
 49 51  1  0
 49 52  1  0
 48 53  2  0
 53 54  1  0
 37  7  1  0
 53 41  1  0
 18  9  1  0
 35 22  1  0
M  END
>  <UniqueID>  (16) 
5

>  <SMILES>  (16) 
CSc1ccc(-c2nc(-c3ccc(F)cc3)c(S/C=C(\O)Nc3cccc(C(F)(F)F)c3)[nH]2)cc1

>  <Energy>  (16) 
87.19671064561335

>  <Genealogy>  (16) 
CSc1ccc(-c2nc(-c3ccc(F)cc3)c(SC=C(O)Nc3cccc(C(F)(F)F)c3)[nH]2)cc1 (tautomer)
CSc1ccc(-c2nc(-c3ccc(F)cc3)c(S/C=C(\O)Nc3cccc(C(F)(F)F)c3)[nH]2)cc1 (cis-trans isomerization)
CSc1ccc(-c2nc(-c3ccc(F)cc3)c(S/C=C(\O)Nc3cccc(C(F)(F)F)c3)[nH]2)cc1 (3D coordinates assigned)
CSc1ccc(-c2nc(-c3ccc(F)cc3)c(S/C=C(\O)Nc3cccc(C(F)(F)F)c3)[nH]2)cc1 (optimized conformer: 87.19671064561335 kcal/mol)

>  <smiles>  (16) 
CSc1ccc(-c2nc(-c3ccc(F)cc3)c(SCC(=O)Nc3cccc(C(F)(F)F)c3)[nH]2)cc1

>  <score_type>  (16) 
oracle

>  <origin>  (16) 
autodockgpu

>  <m_score__min__energy>  (16) 
-8.5999999999999996

>  <m_primary>  (16) 
energy

>  <meeko>  (16) 
{"free_energy": -6.77, "intermolecular_energy": -9.75, "internal_energy": -2.56, "cluster_size": 8, "cluster_id": 3, "rank_in_cluster": 8}

>  <energy>  (16) 
-7.73

>  <cluster_rmsd>  (16) 
0.0

>  <rmsd>  (16) 
270.93

>  <cluster>  (16) 
4

$$$$
YIYSDEKHFQTGLA-QCMVQFAFNA-N
     RDKit          3D

 54 57  0  0  0  0  0  0  0  0999 V2000
  140.3560   76.1210  218.7970 H   0  0  0  0  0  0  0  0  0  0  0  0
  140.9150   76.8830  219.1610 O   0  0  0  0  0  0  0  0  0  0  0  0
  141.0650   77.1010  220.5320 C   0  0  0  0  0  0  0  0  0  0  0  0
  140.2430   76.4940  221.3900 C   0  0  0  0  0  0  0  0  0  0  0  0
  140.3119   76.7376  222.4605 H   0  0  0  0  0  0  0  0  0  0  0  0
  139.0280   75.2910  220.8450 S   0  0  0  0  0  0  0  0  0  0  0  0
  139.9020   73.9330  221.6280 C   0  0  0  0  0  0  0  0  0  0  0  0
  141.1120   73.3770  221.2540 C   0  0  0  0  0  0  0  0  0  0  0  0
  142.0160   73.8220  220.1750 C   0  0  0  0  0  0  0  0  0  0  0  0
  141.7020   73.5280  218.8390 C   0  0  0  0  0  0  0  0  0  0  0  0
  140.7882   72.9627  218.6035 H   0  0  0  0  0  0  0  0  0  0  0  0
  142.5450   73.9500  217.8050 C   0  0  0  0  0  0  0  0  0  0  0  0
  142.2869   73.7256  216.7595 H   0  0  0  0  0  0  0  0  0  0  0  0
  143.7140   74.6560  218.0990 C   0  0  0  0  0  0  0  0  0  0  0  0
  144.5290   75.0650  217.0960 F   0  0  0  0  0  0  0  0  0  0  0  0
  144.0460   74.9340  219.4280 C   0  0  0  0  0  0  0  0  0  0  0  0
  144.9701   75.4839  219.6599 H   0  0  0  0  0  0  0  0  0  0  0  0
  143.2050   74.5140  220.4630 C   0  0  0  0  0  0  0  0  0  0  0  0
  143.4753   74.7262  221.5079 H   0  0  0  0  0  0  0  0  0  0  0  0
  141.3460   72.2880  222.0130 N   0  0  0  0  0  0  0  0  0  0  0  0
  140.2830   72.2160  222.8460 C   0  0  0  0  0  0  0  0  0  0  0  0
  140.1250   71.1410  223.8580 C   0  0  0  0  0  0  0  0  0  0  0  0
  139.3190   70.0130  223.6090 C   0  0  0  0  0  0  0  0  0  0  0  0
  138.7946   69.9180  222.6467 H   0  0  0  0  0  0  0  0  0  0  0  0
  139.1810   69.0130  224.5770 C   0  0  0  0  0  0  0  0  0  0  0  0
  138.5516   68.1346  224.3717 H   0  0  0  0  0  0  0  0  0  0  0  0
  139.8400   69.1260  225.8040 C   0  0  0  0  0  0  0  0  0  0  0  0
  139.6640   67.8390  227.0410 S   0  0  0  0  0  0  0  0  0  0  0  0
  140.7330   68.6840  228.2470 C   0  0  0  0  0  0  0  0  0  0  0  0
  140.4092   68.4280  229.2666 H   0  0  0  0  0  0  0  0  0  0  0  0
  141.7750   68.3628  228.1017 H   0  0  0  0  0  0  0  0  0  0  0  0
  140.6611   69.7720  228.1017 H   0  0  0  0  0  0  0  0  0  0  0  0
  140.6430   70.2410  226.0610 C   0  0  0  0  0  0  0  0  0  0  0  0
  141.1668   70.3295  227.0242 H   0  0  0  0  0  0  0  0  0  0  0  0
  140.7820   71.2430  225.0980 C   0  0  0  0  0  0  0  0  0  0  0  0
  141.4109   72.1200  225.3110 H   0  0  0  0  0  0  0  0  0  0  0  0
  139.3880   73.2040  222.6310 N   0  0  0  0  0  0  0  0  0  0  0  0
  138.4650   73.3590  223.0920 H   0  0  0  0  0  0  0  0  0  0  0  0
  142.0750   77.9970  221.0240 N   0  0  0  0  0  0  0  0  0  0  0  0
  143.0610   77.8530  220.7070 H   0  0  0  0  0  0  0  0  0  0  0  0
  141.8170   79.0550  221.9610 C   0  0  0  0  0  0  0  0  0  0  0  0
  142.8550   79.6250  222.7180 C   0  0  0  0  0  0  0  0  0  0  0  0
  143.8905   79.2831  222.5735 H   0  0  0  0  0  0  0  0  0  0  0  0
  142.5760   80.6240  223.6530 C   0  0  0  0  0  0  0  0  0  0  0  0
  143.3933   81.0698  224.2389 H   0  0  0  0  0  0  0  0  0  0  0  0
  141.2640   81.0590  223.8470 C   0  0  0  0  0  0  0  0  0  0  0  0
  141.0513   81.8399  224.5920 H   0  0  0  0  0  0  0  0  0  0  0  0
  140.2130   80.5050  223.0960 C   0  0  0  0  0  0  0  0  0  0  0  0
  138.7870   80.9310  223.3460 C   0  0  0  0  0  0  0  0  0  0  0  0
  137.9020   79.9640  222.9050 F   0  0  0  0  0  0  0  0  0  0  0  0
  138.5410   82.1110  222.6680 F   0  0  0  0  0  0  0  0  0  0  0  0
  138.5690   81.1340  224.6980 F   0  0  0  0  0  0  0  0  0  0  0  0
  140.4980   79.4790  222.1760 C   0  0  0  0  0  0  0  0  0  0  0  0
  139.6766   79.0043  221.6192 H   0  0  0  0  0  0  0  0  0  0  0  0
  1  2  1  0
  2  3  1  0
  3  4  2  0
  4  5  1  0
  4  6  1  0
  6  7  1  0
  7  8  2  0
  8  9  1  0
  9 10  2  0
 10 11  1  0
 10 12  1  0
 12 13  1  0
 12 14  2  0
 14 15  1  0
 14 16  1  0
 16 17  1  0
 16 18  2  0
 18 19  1  0
  8 20  1  0
 20 21  2  0
 21 22  1  0
 22 23  2  0
 23 24  1  0
 23 25  1  0
 25 26  1  0
 25 27  2  0
 27 28  1  0
 28 29  1  0
 29 30  1  0
 29 31  1  0
 29 32  1  0
 27 33  1  0
 33 34  1  0
 33 35  2  0
 35 36  1  0
 21 37  1  0
 37 38  1  0
  3 39  1  0
 39 40  1  0
 39 41  1  0
 41 42  2  0
 42 43  1  0
 42 44  1  0
 44 45  1  0
 44 46  2  0
 46 47  1  0
 46 48  1  0
 48 49  1  0
 49 50  1  0
 49 51  1  0
 49 52  1  0
 48 53  2  0
 53 54  1  0
 37  7  1  0
 53 41  1  0
 18  9  1  0
 35 22  1  0
M  END
>  <UniqueID>  (17) 
5

>  <SMILES>  (17) 
CSc1ccc(-c2nc(-c3ccc(F)cc3)c(S/C=C(\O)Nc3cccc(C(F)(F)F)c3)[nH]2)cc1

>  <Energy>  (17) 
87.19671064561335

>  <Genealogy>  (17) 
CSc1ccc(-c2nc(-c3ccc(F)cc3)c(SC=C(O)Nc3cccc(C(F)(F)F)c3)[nH]2)cc1 (tautomer)
CSc1ccc(-c2nc(-c3ccc(F)cc3)c(S/C=C(\O)Nc3cccc(C(F)(F)F)c3)[nH]2)cc1 (cis-trans isomerization)
CSc1ccc(-c2nc(-c3ccc(F)cc3)c(S/C=C(\O)Nc3cccc(C(F)(F)F)c3)[nH]2)cc1 (3D coordinates assigned)
CSc1ccc(-c2nc(-c3ccc(F)cc3)c(S/C=C(\O)Nc3cccc(C(F)(F)F)c3)[nH]2)cc1 (optimized conformer: 87.19671064561335 kcal/mol)

>  <smiles>  (17) 
CSc1ccc(-c2nc(-c3ccc(F)cc3)c(SCC(=O)Nc3cccc(C(F)(F)F)c3)[nH]2)cc1

>  <score_type>  (17) 
oracle

>  <origin>  (17) 
autodockgpu

>  <m_score__min__energy>  (17) 
-8.5999999999999996

>  <m_primary>  (17) 
energy

>  <meeko>  (17) 
{"free_energy": -7.88, "intermolecular_energy": -10.86, "internal_energy": -1.58, "cluster_size": 6, "cluster_id": 1, "rank_in_cluster": 4}

>  <energy>  (17) 
-7.47

>  <cluster_rmsd>  (17) 
1.5

>  <rmsd>  (17) 
270.86

>  <cluster>  (17) 
4

$$$$
YIYSDEKHFQTGLA-QCMVQFAFNA-N
     RDKit          3D

 54 57  0  0  0  0  0  0  0  0999 V2000
  145.9130   74.5200  219.7460 H   0  0  0  0  0  0  0  0  0  0  0  0
  145.1760   74.0920  220.2930 O   0  0  0  0  0  0  0  0  0  0  0  0
  143.8260   74.3070  220.0110 C   0  0  0  0  0  0  0  0  0  0  0  0
  143.0750   73.2980  219.5660 C   0  0  0  0  0  0  0  0  0  0  0  0
  143.5010   72.2841  219.5417 H   0  0  0  0  0  0  0  0  0  0  0  0
  141.3890   73.5500  219.0060 S   0  0  0  0  0  0  0  0  0  0  0  0
  140.7130   73.2200  220.6360 C   0  0  0  0  0  0  0  0  0  0  0  0
  140.2550   74.1370  221.5640 C   0  0  0  0  0  0  0  0  0  0  0  0
  140.1340   75.6000  221.4060 C   0  0  0  0  0  0  0  0  0  0  0  0
  140.7210   76.4540  222.3520 C   0  0  0  0  0  0  0  0  0  0  0  0
  141.2625   76.0291  223.2101 H   0  0  0  0  0  0  0  0  0  0  0  0
  140.6220   77.8420  222.2110 C   0  0  0  0  0  0  0  0  0  0  0  0
  141.0947   78.5048  222.9507 H   0  0  0  0  0  0  0  0  0  0  0  0
  139.9230   78.3870  221.1310 C   0  0  0  0  0  0  0  0  0  0  0  0
  139.8280   79.7330  220.9950 F   0  0  0  0  0  0  0  0  0  0  0  0
  139.3150   77.5450  220.1960 C   0  0  0  0  0  0  0  0  0  0  0  0
  138.7578   77.9746  219.3504 H   0  0  0  0  0  0  0  0  0  0  0  0
  139.4140   76.1570  220.3340 C   0  0  0  0  0  0  0  0  0  0  0  0
  138.9265   75.4978  219.6007 H   0  0  0  0  0  0  0  0  0  0  0  0
  139.9650   73.4910  222.7110 N   0  0  0  0  0  0  0  0  0  0  0  0
  140.2340   72.1920  222.4500 C   0  0  0  0  0  0  0  0  0  0  0  0
  140.0630   71.1160  223.4590 C   0  0  0  0  0  0  0  0  0  0  0  0
  139.2770   69.9780  223.1920 C   0  0  0  0  0  0  0  0  0  0  0  0
  138.7778   69.8752  222.2172 H   0  0  0  0  0  0  0  0  0  0  0  0
  139.1270   68.9780  224.1580 C   0  0  0  0  0  0  0  0  0  0  0  0
  138.5140   68.0914  223.9384 H   0  0  0  0  0  0  0  0  0  0  0  0
  139.7530   69.1010  225.4010 C   0  0  0  0  0  0  0  0  0  0  0  0
  139.5610   67.8130  226.6350 S   0  0  0  0  0  0  0  0  0  0  0  0
  140.6790   68.6190  227.8240 C   0  0  0  0  0  0  0  0  0  0  0  0
  140.3547   68.3852  228.8488 H   0  0  0  0  0  0  0  0  0  0  0  0
  141.7042   68.2509  227.6709 H   0  0  0  0  0  0  0  0  0  0  0  0
  140.6537   69.7080  227.6709 H   0  0  0  0  0  0  0  0  0  0  0  0
  140.5350   70.2260  225.6770 C   0  0  0  0  0  0  0  0  0  0  0  0
  141.0320   70.3225  226.6536 H   0  0  0  0  0  0  0  0  0  0  0  0
  140.6870   71.2280  224.7160 C   0  0  0  0  0  0  0  0  0  0  0  0
  141.2998   72.1127  224.9433 H   0  0  0  0  0  0  0  0  0  0  0  0
  140.6920   71.9990  221.1940 N   0  0  0  0  0  0  0  0  0  0  0  0
  141.0170   71.1150  220.7480 H   0  0  0  0  0  0  0  0  0  0  0  0
  143.2460   75.6140  220.1640 N   0  0  0  0  0  0  0  0  0  0  0  0
  142.9380   75.9090  221.1200 H   0  0  0  0  0  0  0  0  0  0  0  0
  143.0250   76.5240  219.0750 C   0  0  0  0  0  0  0  0  0  0  0  0
  143.3170   76.1570  217.7510 C   0  0  0  0  0  0  0  0  0  0  0  0
  143.6919   75.1462  217.5324 H   0  0  0  0  0  0  0  0  0  0  0  0
  143.1330   77.0710  216.7110 C   0  0  0  0  0  0  0  0  0  0  0  0
  143.3584   76.7758  215.6756 H   0  0  0  0  0  0  0  0  0  0  0  0
  142.6640   78.3580  216.9810 C   0  0  0  0  0  0  0  0  0  0  0  0
  142.5294   79.0752  216.1579 H   0  0  0  0  0  0  0  0  0  0  0  0
  142.3630   78.7420  218.2990 C   0  0  0  0  0  0  0  0  0  0  0  0
  141.9130   80.1510  218.5990 C   0  0  0  0  0  0  0  0  0  0  0  0
  142.1270   80.4600  219.9300 F   0  0  0  0  0  0  0  0  0  0  0  0
  140.5630   80.2650  218.3220 F   0  0  0  0  0  0  0  0  0  0  0  0
  142.6110   81.0620  217.8250 F   0  0  0  0  0  0  0  0  0  0  0  0
  142.5760   77.8250  219.3440 C   0  0  0  0  0  0  0  0  0  0  0  0
  142.3884   78.1317  220.3836 H   0  0  0  0  0  0  0  0  0  0  0  0
  1  2  1  0
  2  3  1  0
  3  4  2  0
  4  5  1  0
  4  6  1  0
  6  7  1  0
  7  8  2  0
  8  9  1  0
  9 10  2  0
 10 11  1  0
 10 12  1  0
 12 13  1  0
 12 14  2  0
 14 15  1  0
 14 16  1  0
 16 17  1  0
 16 18  2  0
 18 19  1  0
  8 20  1  0
 20 21  2  0
 21 22  1  0
 22 23  2  0
 23 24  1  0
 23 25  1  0
 25 26  1  0
 25 27  2  0
 27 28  1  0
 28 29  1  0
 29 30  1  0
 29 31  1  0
 29 32  1  0
 27 33  1  0
 33 34  1  0
 33 35  2  0
 35 36  1  0
 21 37  1  0
 37 38  1  0
  3 39  1  0
 39 40  1  0
 39 41  1  0
 41 42  2  0
 42 43  1  0
 42 44  1  0
 44 45  1  0
 44 46  2  0
 46 47  1  0
 46 48  1  0
 48 49  1  0
 49 50  1  0
 49 51  1  0
 49 52  1  0
 48 53  2  0
 53 54  1  0
 37  7  1  0
 53 41  1  0
 18  9  1  0
 35 22  1  0
M  END
>  <UniqueID>  (18) 
5

>  <SMILES>  (18) 
CSc1ccc(-c2nc(-c3ccc(F)cc3)c(S/C=C(\O)Nc3cccc(C(F)(F)F)c3)[nH]2)cc1

>  <Energy>  (18) 
87.19671064561335

>  <Genealogy>  (18) 
CSc1ccc(-c2nc(-c3ccc(F)cc3)c(SC=C(O)Nc3cccc(C(F)(F)F)c3)[nH]2)cc1 (tautomer)
CSc1ccc(-c2nc(-c3ccc(F)cc3)c(S/C=C(\O)Nc3cccc(C(F)(F)F)c3)[nH]2)cc1 (cis-trans isomerization)
CSc1ccc(-c2nc(-c3ccc(F)cc3)c(S/C=C(\O)Nc3cccc(C(F)(F)F)c3)[nH]2)cc1 (3D coordinates assigned)
CSc1ccc(-c2nc(-c3ccc(F)cc3)c(S/C=C(\O)Nc3cccc(C(F)(F)F)c3)[nH]2)cc1 (optimized conformer: 87.19671064561335 kcal/mol)

>  <smiles>  (18) 
CSc1ccc(-c2nc(-c3ccc(F)cc3)c(SCC(=O)Nc3cccc(C(F)(F)F)c3)[nH]2)cc1

>  <score_type>  (18) 
oracle

>  <origin>  (18) 
autodockgpu

>  <m_score__min__energy>  (18) 
-8.5999999999999996

>  <m_primary>  (18) 
energy

>  <meeko>  (18) 
{"free_energy": -7.29, "intermolecular_energy": -10.27, "internal_energy": -2.27, "cluster_size": 1, "cluster_id": 5, "rank_in_cluster": 1}

>  <energy>  (18) 
-7.47

>  <cluster_rmsd>  (18) 
1.5

>  <rmsd>  (18) 
270.86

>  <cluster>  (18) 
4

$$$$
YIYSDEKHFQTGLA-QCMVQFAFNA-N
     RDKit          3D

 54 57  0  0  0  0  0  0  0  0999 V2000
  139.0070   73.7090  223.0540 H   0  0  0  0  0  0  0  0  0  0  0  0
  139.9070   73.7870  222.5970 O   0  0  0  0  0  0  0  0  0  0  0  0
  140.1740   74.7840  221.6570 C   0  0  0  0  0  0  0  0  0  0  0  0
  139.6280   74.7070  220.4410 C   0  0  0  0  0  0  0  0  0  0  0  0
  138.5871   75.0336  220.2998 H   0  0  0  0  0  0  0  0  0  0  0  0
  140.5470   74.0850  219.0310 S   0  0  0  0  0  0  0  0  0  0  0  0
  141.5210   75.5870  218.9010 C   0  0  0  0  0  0  0  0  0  0  0  0
  142.8870   75.7270  219.0700 C   0  0  0  0  0  0  0  0  0  0  0  0
  143.8810   74.6640  219.3150 C   0  0  0  0  0  0  0  0  0  0  0  0
  144.0130   73.6100  218.3960 C   0  0  0  0  0  0  0  0  0  0  0  0
  143.3711   73.5790  217.5032 H   0  0  0  0  0  0  0  0  0  0  0  0
  144.9560   72.6000  218.6100 C   0  0  0  0  0  0  0  0  0  0  0  0
  145.0611   71.7832  217.8808 H   0  0  0  0  0  0  0  0  0  0  0  0
  145.7650   72.6270  219.7490 C   0  0  0  0  0  0  0  0  0  0  0  0
  146.6800   71.6460  219.9550 F   0  0  0  0  0  0  0  0  0  0  0  0
  145.6250   73.6590  220.6800 C   0  0  0  0  0  0  0  0  0  0  0  0
  146.2561   73.6750  221.5808 H   0  0  0  0  0  0  0  0  0  0  0  0
  144.6840   74.6720  220.4690 C   0  0  0  0  0  0  0  0  0  0  0  0
  144.5718   75.4782  221.2089 H   0  0  0  0  0  0  0  0  0  0  0  0
  143.2000   77.0380  219.0300 N   0  0  0  0  0  0  0  0  0  0  0  0
  142.0220   77.6660  218.8160 C   0  0  0  0  0  0  0  0  0  0  0  0
  141.9030   79.1420  218.7150 C   0  0  0  0  0  0  0  0  0  0  0  0
  142.7630   79.8910  217.8870 C   0  0  0  0  0  0  0  0  0  0  0  0
  143.5386   79.3784  217.2990 H   0  0  0  0  0  0  0  0  0  0  0  0
  142.6370   81.2810  217.8080 C   0  0  0  0  0  0  0  0  0  0  0  0
  143.3105   81.8564  217.1558 H   0  0  0  0  0  0  0  0  0  0  0  0
  141.6580   81.9420  218.5550 C   0  0  0  0  0  0  0  0  0  0  0  0
  141.4960   83.7260  218.4470 S   0  0  0  0  0  0  0  0  0  0  0  0
  140.5920   83.8600  220.0200 C   0  0  0  0  0  0  0  0  0  0  0  0
  141.2968   83.7555  220.8580 H   0  0  0  0  0  0  0  0  0  0  0  0
  140.0980   84.8412  220.0766 H   0  0  0  0  0  0  0  0  0  0  0  0
  139.8346   83.0643  220.0766 H   0  0  0  0  0  0  0  0  0  0  0  0
  140.8000   81.2090  219.3800 C   0  0  0  0  0  0  0  0  0  0  0  0
  140.0261   81.7272  219.9653 H   0  0  0  0  0  0  0  0  0  0  0  0
  140.9230   79.8200  219.4630 C   0  0  0  0  0  0  0  0  0  0  0  0
  140.2476   79.2512  220.1190 H   0  0  0  0  0  0  0  0  0  0  0  0
  140.9830   76.8050  218.7360 N   0  0  0  0  0  0  0  0  0  0  0  0
  139.9680   77.0180  218.6250 H   0  0  0  0  0  0  0  0  0  0  0  0
  141.0560   75.8740  221.9750 N   0  0  0  0  0  0  0  0  0  0  0  0
  142.0860   75.6920  221.9760 H   0  0  0  0  0  0  0  0  0  0  0  0
  140.6050   77.1890  222.3340 C   0  0  0  0  0  0  0  0  0  0  0  0
  139.2350   77.4840  222.4390 C   0  0  0  0  0  0  0  0  0  0  0  0
  138.4895   76.6916  222.2765 H   0  0  0  0  0  0  0  0  0  0  0  0
  138.8170   78.7800  222.7490 C   0  0  0  0  0  0  0  0  0  0  0  0
  137.7433   79.0035  222.8343 H   0  0  0  0  0  0  0  0  0  0  0  0
  139.7560   79.7930  222.9510 C   0  0  0  0  0  0  0  0  0  0  0  0
  139.4185   80.8129  223.1872 H   0  0  0  0  0  0  0  0  0  0  0  0
  141.1310   79.5160  222.8540 C   0  0  0  0  0  0  0  0  0  0  0  0
  142.1450   80.6220  223.0120 C   0  0  0  0  0  0  0  0  0  0  0  0
  143.4300   80.1080  223.0370 F   0  0  0  0  0  0  0  0  0  0  0  0
  141.9060   81.2910  224.1990 F   0  0  0  0  0  0  0  0  0  0  0  0
  142.0570   81.5190  221.9630 F   0  0  0  0  0  0  0  0  0  0  0  0
  141.5440   78.2150  222.5140 C   0  0  0  0  0  0  0  0  0  0  0  0
  142.6154   78.0000  222.3879 H   0  0  0  0  0  0  0  0  0  0  0  0
  1  2  1  0
  2  3  1  0
  3  4  2  0
  4  5  1  0
  4  6  1  0
  6  7  1  0
  7  8  2  0
  8  9  1  0
  9 10  2  0
 10 11  1  0
 10 12  1  0
 12 13  1  0
 12 14  2  0
 14 15  1  0
 14 16  1  0
 16 17  1  0
 16 18  2  0
 18 19  1  0
  8 20  1  0
 20 21  2  0
 21 22  1  0
 22 23  2  0
 23 24  1  0
 23 25  1  0
 25 26  1  0
 25 27  2  0
 27 28  1  0
 28 29  1  0
 29 30  1  0
 29 31  1  0
 29 32  1  0
 27 33  1  0
 33 34  1  0
 33 35  2  0
 35 36  1  0
 21 37  1  0
 37 38  1  0
  3 39  1  0
 39 40  1  0
 39 41  1  0
 41 42  2  0
 42 43  1  0
 42 44  1  0
 44 45  1  0
 44 46  2  0
 46 47  1  0
 46 48  1  0
 48 49  1  0
 49 50  1  0
 49 51  1  0
 49 52  1  0
 48 53  2  0
 53 54  1  0
 37  7  1  0
 53 41  1  0
 18  9  1  0
 35 22  1  0
M  END
>  <UniqueID>  (19) 
5

>  <SMILES>  (19) 
CSc1ccc(-c2nc(-c3ccc(F)cc3)c(S/C=C(\O)Nc3cccc(C(F)(F)F)c3)[nH]2)cc1

>  <Energy>  (19) 
87.19671064561335

>  <Genealogy>  (19) 
CSc1ccc(-c2nc(-c3ccc(F)cc3)c(SC=C(O)Nc3cccc(C(F)(F)F)c3)[nH]2)cc1 (tautomer)
CSc1ccc(-c2nc(-c3ccc(F)cc3)c(S/C=C(\O)Nc3cccc(C(F)(F)F)c3)[nH]2)cc1 (cis-trans isomerization)
CSc1ccc(-c2nc(-c3ccc(F)cc3)c(S/C=C(\O)Nc3cccc(C(F)(F)F)c3)[nH]2)cc1 (3D coordinates assigned)
CSc1ccc(-c2nc(-c3ccc(F)cc3)c(S/C=C(\O)Nc3cccc(C(F)(F)F)c3)[nH]2)cc1 (optimized conformer: 87.19671064561335 kcal/mol)

>  <smiles>  (19) 
CSc1ccc(-c2nc(-c3ccc(F)cc3)c(SCC(=O)Nc3cccc(C(F)(F)F)c3)[nH]2)cc1

>  <score_type>  (19) 
oracle

>  <origin>  (19) 
autodockgpu

>  <m_score__min__energy>  (19) 
-8.5999999999999996

>  <m_primary>  (19) 
energy

>  <meeko>  (19) 
{"free_energy": -7.54, "intermolecular_energy": -10.53, "internal_energy": -2.64, "cluster_size": 8, "cluster_id": 3, "rank_in_cluster": 5}

>  <energy>  (19) 
-7.42

>  <cluster_rmsd>  (19) 
0.92

>  <rmsd>  (19) 
270.67

>  <cluster>  (19) 
4

$$$$
YIYSDEKHFQTGLA-QCMVQFAFNA-N
     RDKit          3D

 54 57  0  0  0  0  0  0  0  0999 V2000
  138.4870   74.7930  222.7460 H   0  0  0  0  0  0  0  0  0  0  0  0
  139.0330   75.6030  223.0140 O   0  0  0  0  0  0  0  0  0  0  0  0
  139.9980   76.1560  222.1710 C   0  0  0  0  0  0  0  0  0  0  0  0
  139.9080   75.9680  220.8530 C   0  0  0  0  0  0  0  0  0  0  0  0
  140.2527   76.7621  220.1744 H   0  0  0  0  0  0  0  0  0  0  0  0
  139.2400   74.4550  220.1580 S   0  0  0  0  0  0  0  0  0  0  0  0
  140.0880   73.4300  221.3640 C   0  0  0  0  0  0  0  0  0  0  0  0
  141.3270   72.8270  221.2400 C   0  0  0  0  0  0  0  0  0  0  0  0
  142.2850   72.9500  220.1240 C   0  0  0  0  0  0  0  0  0  0  0  0
  142.9630   74.1630  219.9200 C   0  0  0  0  0  0  0  0  0  0  0  0
  142.7722   75.0158  220.5881 H   0  0  0  0  0  0  0  0  0  0  0  0
  143.8800   74.2920  218.8710 C   0  0  0  0  0  0  0  0  0  0  0  0
  144.4158   75.2413  218.7234 H   0  0  0  0  0  0  0  0  0  0  0  0
  144.1160   73.2170  218.0110 C   0  0  0  0  0  0  0  0  0  0  0  0
  145.0050   73.3450  216.9950 F   0  0  0  0  0  0  0  0  0  0  0  0
  143.4280   72.0140  218.1920 C   0  0  0  0  0  0  0  0  0  0  0  0
  143.6074   71.1706  217.5090 H   0  0  0  0  0  0  0  0  0  0  0  0
  142.5120   71.8810  219.2400 C   0  0  0  0  0  0  0  0  0  0  0  0
  141.9664   70.9352  219.3733 H   0  0  0  0  0  0  0  0  0  0  0  0
  141.5340   72.0300  222.3080 N   0  0  0  0  0  0  0  0  0  0  0  0
  140.4250   72.1810  223.0680 C   0  0  0  0  0  0  0  0  0  0  0  0
  140.2270   71.4620  224.3510 C   0  0  0  0  0  0  0  0  0  0  0  0
  139.2930   70.4130  224.4670 C   0  0  0  0  0  0  0  0  0  0  0  0
  138.6969   70.1131  223.5925 H   0  0  0  0  0  0  0  0  0  0  0  0
  139.1190   69.7510  225.6860 C   0  0  0  0  0  0  0  0  0  0  0  0
  138.3907   68.9304  225.7648 H   0  0  0  0  0  0  0  0  0  0  0  0
  139.8670   70.1280  226.8050 C   0  0  0  0  0  0  0  0  0  0  0  0
  139.6440   69.2720  228.3660 S   0  0  0  0  0  0  0  0  0  0  0  0
  141.0830   68.1870  228.1160 C   0  0  0  0  0  0  0  0  0  0  0  0
  141.4868   67.8826  229.0929 H   0  0  0  0  0  0  0  0  0  0  0  0
  140.7754   67.2941  227.5520 H   0  0  0  0  0  0  0  0  0  0  0  0
  141.8568   68.7284  227.5520 H   0  0  0  0  0  0  0  0  0  0  0  0
  140.7960   71.1670  226.7010 C   0  0  0  0  0  0  0  0  0  0  0  0
  141.3895   71.4618  227.5790 H   0  0  0  0  0  0  0  0  0  0  0  0
  140.9730   71.8320  225.4860 C   0  0  0  0  0  0  0  0  0  0  0  0
  141.7021   72.6526  225.4151 H   0  0  0  0  0  0  0  0  0  0  0  0
  139.5290   73.0270  222.5150 N   0  0  0  0  0  0  0  0  0  0  0  0
  138.5790   73.2840  222.8600 H   0  0  0  0  0  0  0  0  0  0  0  0
  141.1040   76.8980  222.7130 N   0  0  0  0  0  0  0  0  0  0  0  0
  141.9820   76.3780  222.9450 H   0  0  0  0  0  0  0  0  0  0  0  0
  141.0610   78.3060  222.9930 C   0  0  0  0  0  0  0  0  0  0  0  0
  142.2400   79.0510  223.1590 C   0  0  0  0  0  0  0  0  0  0  0  0
  143.2181   78.5615  223.0419 H   0  0  0  0  0  0  0  0  0  0  0  0
  142.1760   80.4100  223.4720 C   0  0  0  0  0  0  0  0  0  0  0  0
  143.1033   80.9885  223.5961 H   0  0  0  0  0  0  0  0  0  0  0  0
  140.9380   81.0370  223.6280 C   0  0  0  0  0  0  0  0  0  0  0  0
  140.8949   82.1063  223.8823 H   0  0  0  0  0  0  0  0  0  0  0  0
  139.7470   80.3100  223.4620 C   0  0  0  0  0  0  0  0  0  0  0  0
  138.4110   80.9730  223.6900 C   0  0  0  0  0  0  0  0  0  0  0  0
  138.3180   82.1490  222.9660 F   0  0  0  0  0  0  0  0  0  0  0  0
  138.2690   81.2590  225.0350 F   0  0  0  0  0  0  0  0  0  0  0  0
  137.3790   80.1390  223.2950 F   0  0  0  0  0  0  0  0  0  0  0  0
  139.8210   78.9360  223.1740 C   0  0  0  0  0  0  0  0  0  0  0  0
  138.8953   78.3479  223.0896 H   0  0  0  0  0  0  0  0  0  0  0  0
  1  2  1  0
  2  3  1  0
  3  4  2  0
  4  5  1  0
  4  6  1  0
  6  7  1  0
  7  8  2  0
  8  9  1  0
  9 10  2  0
 10 11  1  0
 10 12  1  0
 12 13  1  0
 12 14  2  0
 14 15  1  0
 14 16  1  0
 16 17  1  0
 16 18  2  0
 18 19  1  0
  8 20  1  0
 20 21  2  0
 21 22  1  0
 22 23  2  0
 23 24  1  0
 23 25  1  0
 25 26  1  0
 25 27  2  0
 27 28  1  0
 28 29  1  0
 29 30  1  0
 29 31  1  0
 29 32  1  0
 27 33  1  0
 33 34  1  0
 33 35  2  0
 35 36  1  0
 21 37  1  0
 37 38  1  0
  3 39  1  0
 39 40  1  0
 39 41  1  0
 41 42  2  0
 42 43  1  0
 42 44  1  0
 44 45  1  0
 44 46  2  0
 46 47  1  0
 46 48  1  0
 48 49  1  0
 49 50  1  0
 49 51  1  0
 49 52  1  0
 48 53  2  0
 53 54  1  0
 37  7  1  0
 53 41  1  0
 18  9  1  0
 35 22  1  0
M  END
>  <UniqueID>  (20) 
5

>  <SMILES>  (20) 
CSc1ccc(-c2nc(-c3ccc(F)cc3)c(S/C=C(\O)Nc3cccc(C(F)(F)F)c3)[nH]2)cc1

>  <Energy>  (20) 
87.19671064561335

>  <Genealogy>  (20) 
CSc1ccc(-c2nc(-c3ccc(F)cc3)c(SC=C(O)Nc3cccc(C(F)(F)F)c3)[nH]2)cc1 (tautomer)
CSc1ccc(-c2nc(-c3ccc(F)cc3)c(S/C=C(\O)Nc3cccc(C(F)(F)F)c3)[nH]2)cc1 (cis-trans isomerization)
CSc1ccc(-c2nc(-c3ccc(F)cc3)c(S/C=C(\O)Nc3cccc(C(F)(F)F)c3)[nH]2)cc1 (3D coordinates assigned)
CSc1ccc(-c2nc(-c3ccc(F)cc3)c(S/C=C(\O)Nc3cccc(C(F)(F)F)c3)[nH]2)cc1 (optimized conformer: 87.19671064561335 kcal/mol)

>  <smiles>  (20) 
CSc1ccc(-c2nc(-c3ccc(F)cc3)c(SCC(=O)Nc3cccc(C(F)(F)F)c3)[nH]2)cc1

>  <score_type>  (20) 
oracle

>  <origin>  (20) 
autodockgpu

>  <m_score__min__energy>  (20) 
-8.5999999999999996

>  <m_primary>  (20) 
energy

>  <meeko>  (20) 
{"free_energy": -8.6, "intermolecular_energy": -11.59, "internal_energy": -1.71, "cluster_size": 6, "cluster_id": 1, "rank_in_cluster": 1}

>  <energy>  (20) 
-7.29

>  <cluster_rmsd>  (20) 
0.0

>  <rmsd>  (20) 
270.22

>  <cluster>  (20) 
5

$$$$
HBUNGMSMUROVMB-PUXXYCQMNA-N
     RDKit          3D

 54 57  0  0  0  0  0  0  0  0999 V2000
  139.8870   69.2410  220.6470 C   0  0  0  0  0  0  0  0  0  0  0  0
  139.0360   69.7500  222.1740 S   0  0  0  0  0  0  0  0  0  0  0  0
  139.4530   71.4850  221.9760 C   0  0  0  0  0  0  0  0  0  0  0  0
  140.7710   71.9120  222.1440 C   0  0  0  0  0  0  0  0  0  0  0  0
  141.1030   73.2590  221.9710 C   0  0  0  0  0  0  0  0  0  0  0  0
  140.1160   74.2000  221.6220 C   0  0  0  0  0  0  0  0  0  0  0  0
  140.4480   75.6330  221.4240 C   0  0  0  0  0  0  0  0  0  0  0  0
  140.7750   76.4900  222.4150 N   0  0  0  0  0  0  0  0  0  0  0  0
  140.9960   77.6730  221.8150 C   0  0  0  0  0  0  0  0  0  0  0  0
  141.4070   78.8990  222.5410 C   0  0  0  0  0  0  0  0  0  0  0  0
  142.7620   79.2770  222.5640 C   0  0  0  0  0  0  0  0  0  0  0  0
  143.1600   80.4460  223.2210 C   0  0  0  0  0  0  0  0  0  0  0  0
  142.2160   81.2480  223.8630 C   0  0  0  0  0  0  0  0  0  0  0  0
  142.6070   82.3750  224.5060 F   0  0  0  0  0  0  0  0  0  0  0  0
  140.8650   80.8920  223.8320 C   0  0  0  0  0  0  0  0  0  0  0  0
  140.4590   79.7310  223.1660 C   0  0  0  0  0  0  0  0  0  0  0  0
  140.7850   77.5040  220.4570 C   0  0  0  0  0  0  0  0  0  0  0  0
  140.8460   78.7610  219.1760 S   0  0  0  0  0  0  0  0  0  0  0  0
  142.5660   78.4140  218.6780 C   0  0  0  0  0  0  0  0  0  0  0  0
  142.8600   76.9470  218.7250 C   0  0  0  0  0  0  0  0  0  0  0  0
  142.4360   76.2060  217.8000 O   0  0  0  0  0  0  0  0  0  0  0  0
  143.6340   76.4020  219.8090 N   0  0  0  0  0  0  0  0  0  0  0  0
  143.9890   75.0140  219.9380 C   0  0  0  0  0  0  0  0  0  0  0  0
  145.1780   74.6760  220.6010 C   0  0  0  0  0  0  0  0  0  0  0  0
  145.5360   73.3390  220.7740 C   0  0  0  0  0  0  0  0  0  0  0  0
  144.7090   72.3250  220.2910 C   0  0  0  0  0  0  0  0  0  0  0  0
  143.5110   72.6390  219.6320 C   0  0  0  0  0  0  0  0  0  0  0  0
  142.5790   71.5300  219.2030 C   0  0  0  0  0  0  0  0  0  0  0  0
  142.6640   70.4880  220.1180 F   0  0  0  0  0  0  0  0  0  0  0  0
  141.2690   71.9760  219.1450 F   0  0  0  0  0  0  0  0  0  0  0  0
  142.9330   71.0560  217.9470 F   0  0  0  0  0  0  0  0  0  0  0  0
  143.1450   73.9890  219.4750 C   0  0  0  0  0  0  0  0  0  0  0  0
  140.4440   76.2250  220.2090 N   0  0  0  0  0  0  0  0  0  0  0  0
  138.7930   73.7560  221.4560 C   0  0  0  0  0  0  0  0  0  0  0  0
  138.4660   72.4090  221.6310 C   0  0  0  0  0  0  0  0  0  0  0  0
  140.8048   68.6920  220.9043 H   0  0  0  0  0  0  0  0  0  0  0  0
  139.2241   68.5909  220.0571 H   0  0  0  0  0  0  0  0  0  0  0  0
  140.1462   70.1325  220.0571 H   0  0  0  0  0  0  0  0  0  0  0  0
  141.5519   71.1857  222.4137 H   0  0  0  0  0  0  0  0  0  0  0  0
  142.1441   73.5862  222.1087 H   0  0  0  0  0  0  0  0  0  0  0  0
  140.8580   76.2910  223.4360 H   0  0  0  0  0  0  0  0  0  0  0  0
  143.5131   78.6493  222.0622 H   0  0  0  0  0  0  0  0  0  0  0  0
  144.2215   80.7341  223.2315 H   0  0  0  0  0  0  0  0  0  0  0  0
  140.1189   81.5265  224.3327 H   0  0  0  0  0  0  0  0  0  0  0  0
  139.3919   79.4663  223.1304 H   0  0  0  0  0  0  0  0  0  0  0  0
  142.7224   78.7782  217.6519 H   0  0  0  0  0  0  0  0  0  0  0  0
  143.2408   78.9262  219.3796 H   0  0  0  0  0  0  0  0  0  0  0  0
  144.0790   77.0760  220.4680 H   0  0  0  0  0  0  0  0  0  0  0  0
  145.8328   75.4710  220.9873 H   0  0  0  0  0  0  0  0  0  0  0  0
  146.4721   73.0839  221.2922 H   0  0  0  0  0  0  0  0  0  0  0  0
  144.9980   71.2725  220.4277 H   0  0  0  0  0  0  0  0  0  0  0  0
  142.1927   74.2438  218.9870 H   0  0  0  0  0  0  0  0  0  0  0  0
  138.0069   74.4763  221.1855 H   0  0  0  0  0  0  0  0  0  0  0  0
  137.4264   72.0756  221.4963 H   0  0  0  0  0  0  0  0  0  0  0  0
  1  2  1  0
  2  3  1  0
  3  4  2  0
  4  5  1  0
  5  6  2  0
  6  7  1  0
  7  8  1  0
  8  9  1  0
  9 10  1  0
 10 11  2  0
 11 12  1  0
 12 13  2  0
 13 14  1  0
 13 15  1  0
 15 16  2  0
  9 17  2  0
 17 18  1  0
 18 19  1  0
 19 20  1  0
 20 21  2  0
 20 22  1  0
 22 23  1  0
 23 24  2  0
 24 25  1  0
 25 26  2  0
 26 27  1  0
 27 28  1  0
 28 29  1  0
 28 30  1  0
 28 31  1  0
 27 32  2  0
 17 33  1  0
  6 34  1  0
 34 35  2  0
 35  3  1  0
 33  7  2  0
 16 10  1  0
 32 23  1  0
  1 36  1  0
  1 37  1  0
  1 38  1  0
  4 39  1  0
  5 40  1  0
  8 41  1  0
 11 42  1  0
 12 43  1  0
 15 44  1  0
 16 45  1  0
 19 46  1  0
 19 47  1  0
 22 48  1  0
 24 49  1  0
 25 50  1  0
 26 51  1  0
 32 52  1  0
 34 53  1  0
 35 54  1  0
M  END
>  <UniqueID>  (21) 
6

>  <SMILES>  (21) 
CSc1ccc(-c2nc(SCC(=O)Nc3cccc(C(F)(F)F)c3)c(-c3ccc(F)cc3)[nH]2)cc1

>  <Energy>  (21) 
84.54676735977169

>  <Genealogy>  (21) 
CSc1ccc(-c2nc(SCC(=O)Nc3cccc(C(F)(F)F)c3)c(-c3ccc(F)cc3)[nH]2)cc1 (tautomer)
CSc1ccc(-c2nc(SCC(=O)Nc3cccc(C(F)(F)F)c3)c(-c3ccc(F)cc3)[nH]2)cc1 (3D coordinates assigned)
CSc1ccc(-c2nc(SCC(=O)Nc3cccc(C(F)(F)F)c3)c(-c3ccc(F)cc3)[nH]2)cc1 (optimized conformer: 84.54676735977169 kcal/mol)

>  <smiles>  (21) 
CSc1ccc(-c2nc(-c3ccc(F)cc3)c(SCC(=O)Nc3cccc(C(F)(F)F)c3)[nH]2)cc1

>  <score_type>  (21) 
oracle

>  <origin>  (21) 
autodockgpu

>  <m_score__min__energy>  (21) 
-8.5299999999999994

>  <m_primary>  (21) 
energy

>  <meeko>  (21) 
{"free_energy": -7.05, "intermolecular_energy": -9.44, "internal_energy": -2.72, "cluster_size": 1, "cluster_id": 6, "rank_in_cluster": 1}

>  <energy>  (21) 
-8.53

>  <cluster_rmsd>  (21) 
0.0

>  <rmsd>  (21) 
270.05

>  <cluster>  (21) 
1

$$$$
HBUNGMSMUROVMB-PUXXYCQMNA-N
     RDKit          3D

 54 57  0  0  0  0  0  0  0  0999 V2000
  143.1230   84.0700  217.0840 C   0  0  0  0  0  0  0  0  0  0  0  0
  141.7060   83.9610  218.2230 S   0  0  0  0  0  0  0  0  0  0  0  0
  141.7850   82.1720  218.3480 C   0  0  0  0  0  0  0  0  0  0  0  0
  142.8480   81.4750  217.7700 C   0  0  0  0  0  0  0  0  0  0  0  0
  142.9230   80.0840  217.8820 C   0  0  0  0  0  0  0  0  0  0  0  0
  141.9330   79.3690  218.5810 C   0  0  0  0  0  0  0  0  0  0  0  0
  141.9970   77.8920  218.7220 C   0  0  0  0  0  0  0  0  0  0  0  0
  143.1220   77.1950  218.9930 N   0  0  0  0  0  0  0  0  0  0  0  0
  142.7490   75.9040  219.0340 C   0  0  0  0  0  0  0  0  0  0  0  0
  143.6790   74.7880  219.3280 C   0  0  0  0  0  0  0  0  0  0  0  0
  143.7870   73.7100  218.4300 C   0  0  0  0  0  0  0  0  0  0  0  0
  144.6800   72.6650  218.6810 C   0  0  0  0  0  0  0  0  0  0  0  0
  145.4730   72.6780  219.8290 C   0  0  0  0  0  0  0  0  0  0  0  0
  146.3330   71.6590  220.0730 F   0  0  0  0  0  0  0  0  0  0  0  0
  145.3880   73.7510  220.7200 C   0  0  0  0  0  0  0  0  0  0  0  0
  144.5060   74.8060  220.4670 C   0  0  0  0  0  0  0  0  0  0  0  0
  141.3890   75.8490  218.7730 C   0  0  0  0  0  0  0  0  0  0  0  0
  140.3660   74.3810  218.6100 S   0  0  0  0  0  0  0  0  0  0  0  0
  140.4750   73.9010  220.3670 C   0  0  0  0  0  0  0  0  0  0  0  0
  140.5310   75.1050  221.2560 C   0  0  0  0  0  0  0  0  0  0  0  0
  141.2330   75.0650  222.2990 O   0  0  0  0  0  0  0  0  0  0  0  0
  139.8040   76.2950  220.9020 N   0  0  0  0  0  0  0  0  0  0  0  0
  139.8060   77.5090  221.6730 C   0  0  0  0  0  0  0  0  0  0  0  0
  138.6210   77.9120  222.3080 C   0  0  0  0  0  0  0  0  0  0  0  0
  138.5950   79.0660  223.0910 C   0  0  0  0  0  0  0  0  0  0  0  0
  139.7530   79.8280  223.2530 C   0  0  0  0  0  0  0  0  0  0  0  0
  140.9510   79.4390  222.6360 C   0  0  0  0  0  0  0  0  0  0  0  0
  142.2180   80.2180  222.9010 C   0  0  0  0  0  0  0  0  0  0  0  0
  142.1710   80.7330  224.1910 F   0  0  0  0  0  0  0  0  0  0  0  0
  143.3350   79.4090  222.7770 F   0  0  0  0  0  0  0  0  0  0  0  0
  142.3400   81.2690  222.0010 F   0  0  0  0  0  0  0  0  0  0  0  0
  140.9770   78.2650  221.8600 C   0  0  0  0  0  0  0  0  0  0  0  0
  140.9160   77.0940  218.5800 N   0  0  0  0  0  0  0  0  0  0  0  0
  140.8680   80.0820  219.1590 C   0  0  0  0  0  0  0  0  0  0  0  0
  140.7970   81.4730  219.0430 C   0  0  0  0  0  0  0  0  0  0  0  0
  144.0549   84.1417  217.6640 H   0  0  0  0  0  0  0  0  0  0  0  0
  143.1538   83.1716  216.4501 H   0  0  0  0  0  0  0  0  0  0  0  0
  143.0161   84.9626  216.4501 H   0  0  0  0  0  0  0  0  0  0  0  0
  143.6299   82.0233  217.2241 H   0  0  0  0  0  0  0  0  0  0  0  0
  143.7626   79.5438  217.4201 H   0  0  0  0  0  0  0  0  0  0  0  0
  144.0840   77.5640  219.1550 H   0  0  0  0  0  0  0  0  0  0  0  0
  143.1639   73.6898  217.5237 H   0  0  0  0  0  0  0  0  0  0  0  0
  144.7581   71.8287  217.9707 H   0  0  0  0  0  0  0  0  0  0  0  0
  146.0165   73.7657  221.6227 H   0  0  0  0  0  0  0  0  0  0  0  0
  144.4580   75.6563  221.1631 H   0  0  0  0  0  0  0  0  0  0  0  0
  139.5912   73.3015  220.6305 H   0  0  0  0  0  0  0  0  0  0  0  0
  141.3967   73.3184  220.5119 H   0  0  0  0  0  0  0  0  0  0  0  0
  139.3570   76.3230  219.9600 H   0  0  0  0  0  0  0  0  0  0  0  0
  137.7061   77.3134  222.1873 H   0  0  0  0  0  0  0  0  0  0  0  0
  137.6605   79.3760  223.5815 H   0  0  0  0  0  0  0  0  0  0  0  0
  139.7260   80.7393  223.8684 H   0  0  0  0  0  0  0  0  0  0  0  0
  141.9192   77.9368  221.3969 H   0  0  0  0  0  0  0  0  0  0  0  0
  140.0835   79.5401  219.7075 H   0  0  0  0  0  0  0  0  0  0  0  0
  139.9592   82.0189  219.5012 H   0  0  0  0  0  0  0  0  0  0  0  0
  1  2  1  0
  2  3  1  0
  3  4  2  0
  4  5  1  0
  5  6  2  0
  6  7  1  0
  7  8  1  0
  8  9  1  0
  9 10  1  0
 10 11  2  0
 11 12  1  0
 12 13  2  0
 13 14  1  0
 13 15  1  0
 15 16  2  0
  9 17  2  0
 17 18  1  0
 18 19  1  0
 19 20  1  0
 20 21  2  0
 20 22  1  0
 22 23  1  0
 23 24  2  0
 24 25  1  0
 25 26  2  0
 26 27  1  0
 27 28  1  0
 28 29  1  0
 28 30  1  0
 28 31  1  0
 27 32  2  0
 17 33  1  0
  6 34  1  0
 34 35  2  0
 35  3  1  0
 33  7  2  0
 16 10  1  0
 32 23  1  0
  1 36  1  0
  1 37  1  0
  1 38  1  0
  4 39  1  0
  5 40  1  0
  8 41  1  0
 11 42  1  0
 12 43  1  0
 15 44  1  0
 16 45  1  0
 19 46  1  0
 19 47  1  0
 22 48  1  0
 24 49  1  0
 25 50  1  0
 26 51  1  0
 32 52  1  0
 34 53  1  0
 35 54  1  0
M  END
>  <UniqueID>  (22) 
6

>  <SMILES>  (22) 
CSc1ccc(-c2nc(SCC(=O)Nc3cccc(C(F)(F)F)c3)c(-c3ccc(F)cc3)[nH]2)cc1

>  <Energy>  (22) 
84.54676735977169

>  <Genealogy>  (22) 
CSc1ccc(-c2nc(SCC(=O)Nc3cccc(C(F)(F)F)c3)c(-c3ccc(F)cc3)[nH]2)cc1 (tautomer)
CSc1ccc(-c2nc(SCC(=O)Nc3cccc(C(F)(F)F)c3)c(-c3ccc(F)cc3)[nH]2)cc1 (3D coordinates assigned)
CSc1ccc(-c2nc(SCC(=O)Nc3cccc(C(F)(F)F)c3)c(-c3ccc(F)cc3)[nH]2)cc1 (optimized conformer: 84.54676735977169 kcal/mol)

>  <smiles>  (22) 
CSc1ccc(-c2nc(-c3ccc(F)cc3)c(SCC(=O)Nc3cccc(C(F)(F)F)c3)[nH]2)cc1

>  <score_type>  (22) 
oracle

>  <origin>  (22) 
autodockgpu

>  <m_score__min__energy>  (22) 
-8.5299999999999994

>  <m_primary>  (22) 
energy

>  <meeko>  (22) 
{"free_energy": -6.64, "intermolecular_energy": -9.03, "internal_energy": -3.13, "cluster_size": 14, "cluster_id": 2, "rank_in_cluster": 14}

>  <energy>  (22) 
-8.27

>  <cluster_rmsd>  (22) 
0.0

>  <rmsd>  (22) 
269.71

>  <cluster>  (22) 
2

$$$$
HBUNGMSMUROVMB-PUXXYCQMNA-N
     RDKit          3D

 54 57  0  0  0  0  0  0  0  0999 V2000
  143.4280   83.6710  217.0660 C   0  0  0  0  0  0  0  0  0  0  0  0
  141.8500   83.6010  217.9740 S   0  0  0  0  0  0  0  0  0  0  0  0
  141.9310   81.8260  218.2270 C   0  0  0  0  0  0  0  0  0  0  0  0
  142.2220   80.9780  217.1570 C   0  0  0  0  0  0  0  0  0  0  0  0
  142.3040   79.5970  217.3540 C   0  0  0  0  0  0  0  0  0  0  0  0
  142.1000   79.0440  218.6320 C   0  0  0  0  0  0  0  0  0  0  0  0
  142.1930   77.5800  218.8670 C   0  0  0  0  0  0  0  0  0  0  0  0
  143.3500   76.8960  218.9980 N   0  0  0  0  0  0  0  0  0  0  0  0
  142.9940   75.6140  219.1940 C   0  0  0  0  0  0  0  0  0  0  0  0
  143.9650   74.5150  219.4110 C   0  0  0  0  0  0  0  0  0  0  0  0
  144.7540   74.4980  220.5760 C   0  0  0  0  0  0  0  0  0  0  0  0
  145.6540   73.4530  220.8070 C   0  0  0  0  0  0  0  0  0  0  0  0
  145.7800   72.4170  219.8810 C   0  0  0  0  0  0  0  0  0  0  0  0
  146.6600   71.4100  220.1040 F   0  0  0  0  0  0  0  0  0  0  0  0
  144.9900   72.4130  218.7290 C   0  0  0  0  0  0  0  0  0  0  0  0
  144.0780   73.4490  218.4990 C   0  0  0  0  0  0  0  0  0  0  0  0
  141.6110   75.5510  219.1670 C   0  0  0  0  0  0  0  0  0  0  0  0
  140.5810   74.0840  219.2820 S   0  0  0  0  0  0  0  0  0  0  0  0
  140.7070   73.9290  221.0950 C   0  0  0  0  0  0  0  0  0  0  0  0
  140.2840   75.1930  221.7790 C   0  0  0  0  0  0  0  0  0  0  0  0
  139.2050   75.2090  222.4260 O   0  0  0  0  0  0  0  0  0  0  0  0
  141.1190   76.3630  221.7070 N   0  0  0  0  0  0  0  0  0  0  0  0
  140.8170   77.6170  222.3430 C   0  0  0  0  0  0  0  0  0  0  0  0
  139.5000   77.8680  222.7570 C   0  0  0  0  0  0  0  0  0  0  0  0
  139.1770   79.0600  223.4060 C   0  0  0  0  0  0  0  0  0  0  0  0
  140.1670   80.0120  223.6540 C   0  0  0  0  0  0  0  0  0  0  0  0
  141.4920   79.7790  223.2570 C   0  0  0  0  0  0  0  0  0  0  0  0
  142.5690   80.7730  223.6200 C   0  0  0  0  0  0  0  0  0  0  0  0
  143.6300   80.6350  222.7330 F   0  0  0  0  0  0  0  0  0  0  0  0
  142.0900   82.0720  223.5540 F   0  0  0  0  0  0  0  0  0  0  0  0
  143.0290   80.5440  224.9100 F   0  0  0  0  0  0  0  0  0  0  0  0
  141.8160   78.5670  222.6170 C   0  0  0  0  0  0  0  0  0  0  0  0
  141.1060   76.7830  218.9640 N   0  0  0  0  0  0  0  0  0  0  0  0
  141.8090   79.9080  219.7010 C   0  0  0  0  0  0  0  0  0  0  0  0
  141.7260   81.2880  219.4980 C   0  0  0  0  0  0  0  0  0  0  0  0
  144.2619   83.7080  217.7824 H   0  0  0  0  0  0  0  0  0  0  0  0
  143.5272   82.7764  216.4337 H   0  0  0  0  0  0  0  0  0  0  0  0
  143.4476   84.5709  216.4337 H   0  0  0  0  0  0  0  0  0  0  0  0
  142.3875   81.3988  216.1542 H   0  0  0  0  0  0  0  0  0  0  0  0
  142.5298   78.9369  216.5035 H   0  0  0  0  0  0  0  0  0  0  0  0
  144.3240   77.2680  218.9720 H   0  0  0  0  0  0  0  0  0  0  0  0
  144.6622   75.3122  221.3099 H   0  0  0  0  0  0  0  0  0  0  0  0
  146.2647   73.4477  221.7219 H   0  0  0  0  0  0  0  0  0  0  0  0
  145.0850   71.5937  218.0011 H   0  0  0  0  0  0  0  0  0  0  0  0
  143.4452   73.4302  217.5994 H   0  0  0  0  0  0  0  0  0  0  0  0
  140.0591   73.1058  221.4303 H   0  0  0  0  0  0  0  0  0  0  0  0
  141.7568   73.7278  221.3546 H   0  0  0  0  0  0  0  0  0  0  0  0
  142.0650   76.2540  221.2830 H   0  0  0  0  0  0  0  0  0  0  0  0
  138.7164   77.1194  222.5684 H   0  0  0  0  0  0  0  0  0  0  0  0
  138.1408   79.2498  223.7226 H   0  0  0  0  0  0  0  0  0  0  0  0
  139.9065   80.9511  224.1641 H   0  0  0  0  0  0  0  0  0  0  0  0
  142.8579   78.3625  222.3296 H   0  0  0  0  0  0  0  0  0  0  0  0
  141.6450   79.4943  220.7070 H   0  0  0  0  0  0  0  0  0  0  0  0
  141.4980   81.9532  220.3439 H   0  0  0  0  0  0  0  0  0  0  0  0
  1  2  1  0
  2  3  1  0
  3  4  2  0
  4  5  1  0
  5  6  2  0
  6  7  1  0
  7  8  1  0
  8  9  1  0
  9 10  1  0
 10 11  2  0
 11 12  1  0
 12 13  2  0
 13 14  1  0
 13 15  1  0
 15 16  2  0
  9 17  2  0
 17 18  1  0
 18 19  1  0
 19 20  1  0
 20 21  2  0
 20 22  1  0
 22 23  1  0
 23 24  2  0
 24 25  1  0
 25 26  2  0
 26 27  1  0
 27 28  1  0
 28 29  1  0
 28 30  1  0
 28 31  1  0
 27 32  2  0
 17 33  1  0
  6 34  1  0
 34 35  2  0
 35  3  1  0
 33  7  2  0
 16 10  1  0
 32 23  1  0
  1 36  1  0
  1 37  1  0
  1 38  1  0
  4 39  1  0
  5 40  1  0
  8 41  1  0
 11 42  1  0
 12 43  1  0
 15 44  1  0
 16 45  1  0
 19 46  1  0
 19 47  1  0
 22 48  1  0
 24 49  1  0
 25 50  1  0
 26 51  1  0
 32 52  1  0
 34 53  1  0
 35 54  1  0
M  END
>  <UniqueID>  (23) 
6

>  <SMILES>  (23) 
CSc1ccc(-c2nc(SCC(=O)Nc3cccc(C(F)(F)F)c3)c(-c3ccc(F)cc3)[nH]2)cc1

>  <Energy>  (23) 
84.54676735977169

>  <Genealogy>  (23) 
CSc1ccc(-c2nc(SCC(=O)Nc3cccc(C(F)(F)F)c3)c(-c3ccc(F)cc3)[nH]2)cc1 (tautomer)
CSc1ccc(-c2nc(SCC(=O)Nc3cccc(C(F)(F)F)c3)c(-c3ccc(F)cc3)[nH]2)cc1 (3D coordinates assigned)
CSc1ccc(-c2nc(SCC(=O)Nc3cccc(C(F)(F)F)c3)c(-c3ccc(F)cc3)[nH]2)cc1 (optimized conformer: 84.54676735977169 kcal/mol)

>  <smiles>  (23) 
CSc1ccc(-c2nc(-c3ccc(F)cc3)c(SCC(=O)Nc3cccc(C(F)(F)F)c3)[nH]2)cc1

>  <score_type>  (23) 
oracle

>  <origin>  (23) 
autodockgpu

>  <m_score__min__energy>  (23) 
-8.5299999999999994

>  <m_primary>  (23) 
energy

>  <meeko>  (23) 
{"free_energy": -7.9, "intermolecular_energy": -10.29, "internal_energy": -2.24, "cluster_size": 14, "cluster_id": 2, "rank_in_cluster": 12}

>  <energy>  (23) 
-8.25

>  <cluster_rmsd>  (23) 
0.08

>  <rmsd>  (23) 
269.74

>  <cluster>  (23) 
2

$$$$
HBUNGMSMUROVMB-PUXXYCQMNA-N
     RDKit          3D

 54 57  0  0  0  0  0  0  0  0999 V2000
  140.6920   68.5770  228.1980 C   0  0  0  0  0  0  0  0  0  0  0  0
  139.9620   67.6110  226.8380 S   0  0  0  0  0  0  0  0  0  0  0  0
  139.9540   68.9960  225.6940 C   0  0  0  0  0  0  0  0  0  0  0  0
  140.7170   70.1320  225.9650 C   0  0  0  0  0  0  0  0  0  0  0  0
  140.7280   71.2040  225.0670 C   0  0  0  0  0  0  0  0  0  0  0  0
  139.9750   71.1500  223.8800 C   0  0  0  0  0  0  0  0  0  0  0  0
  139.9800   72.2720  222.9070 C   0  0  0  0  0  0  0  0  0  0  0  0
  141.0770   72.7210  222.2590 N   0  0  0  0  0  0  0  0  0  0  0  0
  140.6510   73.7340  221.4840 C   0  0  0  0  0  0  0  0  0  0  0  0
  141.5360   74.5040  220.5770 C   0  0  0  0  0  0  0  0  0  0  0  0
  141.3480   75.8900  220.4260 C   0  0  0  0  0  0  0  0  0  0  0  0
  142.1930   76.6340  219.5960 C   0  0  0  0  0  0  0  0  0  0  0  0
  143.2310   76.0060  218.9070 C   0  0  0  0  0  0  0  0  0  0  0  0
  144.0430   76.7290  218.0970 F   0  0  0  0  0  0  0  0  0  0  0  0
  143.4390   74.6330  219.0620 C   0  0  0  0  0  0  0  0  0  0  0  0
  142.6050   73.8870  219.9010 C   0  0  0  0  0  0  0  0  0  0  0  0
  139.2900   73.8820  221.6920 C   0  0  0  0  0  0  0  0  0  0  0  0
  138.2070   75.1340  220.9940 S   0  0  0  0  0  0  0  0  0  0  0  0
  137.8570   75.9600  222.5820 C   0  0  0  0  0  0  0  0  0  0  0  0
  138.5480   77.2860  222.6680 C   0  0  0  0  0  0  0  0  0  0  0  0
  137.8580   78.3340  222.7520 O   0  0  0  0  0  0  0  0  0  0  0  0
  139.9860   77.3480  222.6750 N   0  0  0  0  0  0  0  0  0  0  0  0
  140.7470   78.5640  222.7740 C   0  0  0  0  0  0  0  0  0  0  0  0
  141.7870   78.6390  223.7130 C   0  0  0  0  0  0  0  0  0  0  0  0
  142.5670   79.7910  223.8140 C   0  0  0  0  0  0  0  0  0  0  0  0
  142.3210   80.8790  222.9750 C   0  0  0  0  0  0  0  0  0  0  0  0
  141.2930   80.8220  222.0230 C   0  0  0  0  0  0  0  0  0  0  0  0
  141.1040   81.9680  221.0560 C   0  0  0  0  0  0  0  0  0  0  0  0
  141.5330   83.1440  221.6590 F   0  0  0  0  0  0  0  0  0  0  0  0
  141.8290   81.7640  219.8940 F   0  0  0  0  0  0  0  0  0  0  0  0
  139.7640   82.1000  220.7160 F   0  0  0  0  0  0  0  0  0  0  0  0
  140.5200   79.6520  221.9130 C   0  0  0  0  0  0  0  0  0  0  0  0
  138.8660   72.9650  222.5810 N   0  0  0  0  0  0  0  0  0  0  0  0
  139.2110   69.9990  223.6190 C   0  0  0  0  0  0  0  0  0  0  0  0
  139.2030   68.9310  224.5200 C   0  0  0  0  0  0  0  0  0  0  0  0
  140.3720   68.1535  229.1615 H   0  0  0  0  0  0  0  0  0  0  0  0
  141.7891   68.5390  228.1270 H   0  0  0  0  0  0  0  0  0  0  0  0
  140.3559   69.6220  228.1270 H   0  0  0  0  0  0  0  0  0  0  0  0
  141.3122   70.1847  226.8885 H   0  0  0  0  0  0  0  0  0  0  0  0
  141.3304   72.0968  225.2907 H   0  0  0  0  0  0  0  0  0  0  0  0
  142.0530   72.3610  222.3220 H   0  0  0  0  0  0  0  0  0  0  0  0
  140.5307   76.3921  220.9645 H   0  0  0  0  0  0  0  0  0  0  0  0
  142.0387   77.7176  219.4861 H   0  0  0  0  0  0  0  0  0  0  0  0
  144.2603   74.1379  218.5231 H   0  0  0  0  0  0  0  0  0  0  0  0
  142.7860   72.8101  220.0335 H   0  0  0  0  0  0  0  0  0  0  0  0
  136.7718   76.1145  222.6743 H   0  0  0  0  0  0  0  0  0  0  0  0
  138.2290   75.3205  223.3961 H   0  0  0  0  0  0  0  0  0  0  0  0
  140.5060   76.4470  222.7480 H   0  0  0  0  0  0  0  0  0  0  0  0
  141.9886   77.7833  224.3741 H   0  0  0  0  0  0  0  0  0  0  0  0
  143.3773   79.8421  224.5561 H   0  0  0  0  0  0  0  0  0  0  0  0
  142.9370   81.7863  223.0611 H   0  0  0  0  0  0  0  0  0  0  0  0
  139.7323   79.5878  221.1479 H   0  0  0  0  0  0  0  0  0  0  0  0
  138.6141   69.9387  222.6970 H   0  0  0  0  0  0  0  0  0  0  0  0
  138.6023   68.0355  224.3028 H   0  0  0  0  0  0  0  0  0  0  0  0
  1  2  1  0
  2  3  1  0
  3  4  2  0
  4  5  1  0
  5  6  2  0
  6  7  1  0
  7  8  1  0
  8  9  1  0
  9 10  1  0
 10 11  2  0
 11 12  1  0
 12 13  2  0
 13 14  1  0
 13 15  1  0
 15 16  2  0
  9 17  2  0
 17 18  1  0
 18 19  1  0
 19 20  1  0
 20 21  2  0
 20 22  1  0
 22 23  1  0
 23 24  2  0
 24 25  1  0
 25 26  2  0
 26 27  1  0
 27 28  1  0
 28 29  1  0
 28 30  1  0
 28 31  1  0
 27 32  2  0
 17 33  1  0
  6 34  1  0
 34 35  2  0
 35  3  1  0
 33  7  2  0
 16 10  1  0
 32 23  1  0
  1 36  1  0
  1 37  1  0
  1 38  1  0
  4 39  1  0
  5 40  1  0
  8 41  1  0
 11 42  1  0
 12 43  1  0
 15 44  1  0
 16 45  1  0
 19 46  1  0
 19 47  1  0
 22 48  1  0
 24 49  1  0
 25 50  1  0
 26 51  1  0
 32 52  1  0
 34 53  1  0
 35 54  1  0
M  END
>  <UniqueID>  (24) 
6

>  <SMILES>  (24) 
CSc1ccc(-c2nc(SCC(=O)Nc3cccc(C(F)(F)F)c3)c(-c3ccc(F)cc3)[nH]2)cc1

>  <Energy>  (24) 
84.54676735977169

>  <Genealogy>  (24) 
CSc1ccc(-c2nc(SCC(=O)Nc3cccc(C(F)(F)F)c3)c(-c3ccc(F)cc3)[nH]2)cc1 (tautomer)
CSc1ccc(-c2nc(SCC(=O)Nc3cccc(C(F)(F)F)c3)c(-c3ccc(F)cc3)[nH]2)cc1 (3D coordinates assigned)
CSc1ccc(-c2nc(SCC(=O)Nc3cccc(C(F)(F)F)c3)c(-c3ccc(F)cc3)[nH]2)cc1 (optimized conformer: 84.54676735977169 kcal/mol)

>  <smiles>  (24) 
CSc1ccc(-c2nc(-c3ccc(F)cc3)c(SCC(=O)Nc3cccc(C(F)(F)F)c3)[nH]2)cc1

>  <score_type>  (24) 
oracle

>  <origin>  (24) 
autodockgpu

>  <m_score__min__energy>  (24) 
-8.5299999999999994

>  <m_primary>  (24) 
energy

>  <meeko>  (24) 
{"free_energy": -7.83, "intermolecular_energy": -10.22, "internal_energy": -1.74, "cluster_size": 1, "cluster_id": 3, "rank_in_cluster": 1}

>  <energy>  (24) 
-8.2

>  <cluster_rmsd>  (24) 
0.07

>  <rmsd>  (24) 
269.72

>  <cluster>  (24) 
2

$$$$
HBUNGMSMUROVMB-PUXXYCQMNA-N
     RDKit          3D

 54 57  0  0  0  0  0  0  0  0999 V2000
  143.2260   83.8570  217.1280 C   0  0  0  0  0  0  0  0  0  0  0  0
  141.7690   83.8430  218.2200 S   0  0  0  0  0  0  0  0  0  0  0  0
  141.8330   82.0690  218.4900 C   0  0  0  0  0  0  0  0  0  0  0  0
  142.5340   81.2500  217.6020 C   0  0  0  0  0  0  0  0  0  0  0  0
  142.6020   79.8710  217.8200 C   0  0  0  0  0  0  0  0  0  0  0  0
  141.9710   79.2910  218.9360 C   0  0  0  0  0  0  0  0  0  0  0  0
  142.0390   77.8300  219.1930 C   0  0  0  0  0  0  0  0  0  0  0  0
  143.1820   77.1120  219.2440 N   0  0  0  0  0  0  0  0  0  0  0  0
  142.8050   75.8460  219.4950 C   0  0  0  0  0  0  0  0  0  0  0  0
  143.7570   74.7210  219.6550 C   0  0  0  0  0  0  0  0  0  0  0  0
  143.5550   73.5260  218.9410 C   0  0  0  0  0  0  0  0  0  0  0  0
  144.4600   72.4670  219.0610 C   0  0  0  0  0  0  0  0  0  0  0  0
  145.5720   72.5850  219.8940 C   0  0  0  0  0  0  0  0  0  0  0  0
  146.4430   71.5520  220.0150 F   0  0  0  0  0  0  0  0  0  0  0  0
  145.7940   73.7730  220.5960 C   0  0  0  0  0  0  0  0  0  0  0  0
  144.8990   74.8400  220.4690 C   0  0  0  0  0  0  0  0  0  0  0  0
  141.4230   75.8260  219.5800 C   0  0  0  0  0  0  0  0  0  0  0  0
  140.3620   74.3950  219.8090 S   0  0  0  0  0  0  0  0  0  0  0  0
  140.1680   74.6120  221.6090 C   0  0  0  0  0  0  0  0  0  0  0  0
  139.9810   76.0540  221.9660 C   0  0  0  0  0  0  0  0  0  0  0  0
  138.8330   76.5630  221.8850 O   0  0  0  0  0  0  0  0  0  0  0  0
  141.1030   76.8360  222.4130 N   0  0  0  0  0  0  0  0  0  0  0  0
  141.0290   78.2200  222.7980 C   0  0  0  0  0  0  0  0  0  0  0  0
  142.2070   78.9810  222.8270 C   0  0  0  0  0  0  0  0  0  0  0  0
  142.1670   80.3340  223.1630 C   0  0  0  0  0  0  0  0  0  0  0  0
  140.9500   80.9440  223.4700 C   0  0  0  0  0  0  0  0  0  0  0  0
  139.7580   80.2050  223.4380 C   0  0  0  0  0  0  0  0  0  0  0  0
  138.4390   80.9010  223.6750 C   0  0  0  0  0  0  0  0  0  0  0  0
  138.3840   82.0460  222.8900 F   0  0  0  0  0  0  0  0  0  0  0  0
  137.3750   80.0760  223.3470 F   0  0  0  0  0  0  0  0  0  0  0  0
  138.3130   81.2630  225.0090 F   0  0  0  0  0  0  0  0  0  0  0  0
  139.8010   78.8440  223.0820 C   0  0  0  0  0  0  0  0  0  0  0  0
  140.9400   77.0690  219.3940 N   0  0  0  0  0  0  0  0  0  0  0  0
  141.2700   80.1270  219.8220 C   0  0  0  0  0  0  0  0  0  0  0  0
  141.2030   81.5050  219.5990 C   0  0  0  0  0  0  0  0  0  0  0  0
  144.1413   83.8658  217.7380 H   0  0  0  0  0  0  0  0  0  0  0  0
  143.2171   82.9587  216.4932 H   0  0  0  0  0  0  0  0  0  0  0  0
  143.1998   84.7549  216.4932 H   0  0  0  0  0  0  0  0  0  0  0  0
  143.0345   81.6919  216.7278 H   0  0  0  0  0  0  0  0  0  0  0  0
  143.1535   79.2337  217.1131 H   0  0  0  0  0  0  0  0  0  0  0  0
  144.1610   77.4530  219.1320 H   0  0  0  0  0  0  0  0  0  0  0  0
  142.6789   73.4239  218.2837 H   0  0  0  0  0  0  0  0  0  0  0  0
  144.2942   71.5376  218.4964 H   0  0  0  0  0  0  0  0  0  0  0  0
  146.6738   73.8688  221.2492 H   0  0  0  0  0  0  0  0  0  0  0  0
  145.0889   75.7792  221.0092 H   0  0  0  0  0  0  0  0  0  0  0  0
  139.2892   74.0426  221.9459 H   0  0  0  0  0  0  0  0  0  0  0  0
  141.0807   74.2475  222.1030 H   0  0  0  0  0  0  0  0  0  0  0  0
  141.9970   76.3320  222.5990 H   0  0  0  0  0  0  0  0  0  0  0  0
  143.1693   78.5072  222.5830 H   0  0  0  0  0  0  0  0  0  0  0  0
  143.0967   80.9215  223.1861 H   0  0  0  0  0  0  0  0  0  0  0  0
  140.9252   82.0104  223.7386 H   0  0  0  0  0  0  0  0  0  0  0  0
  138.8678   78.2644  223.0255 H   0  0  0  0  0  0  0  0  0  0  0  0
  140.7692   79.6924  220.6997 H   0  0  0  0  0  0  0  0  0  0  0  0
  140.6511   82.1473  220.3010 H   0  0  0  0  0  0  0  0  0  0  0  0
  1  2  1  0
  2  3  1  0
  3  4  2  0
  4  5  1  0
  5  6  2  0
  6  7  1  0
  7  8  1  0
  8  9  1  0
  9 10  1  0
 10 11  2  0
 11 12  1  0
 12 13  2  0
 13 14  1  0
 13 15  1  0
 15 16  2  0
  9 17  2  0
 17 18  1  0
 18 19  1  0
 19 20  1  0
 20 21  2  0
 20 22  1  0
 22 23  1  0
 23 24  2  0
 24 25  1  0
 25 26  2  0
 26 27  1  0
 27 28  1  0
 28 29  1  0
 28 30  1  0
 28 31  1  0
 27 32  2  0
 17 33  1  0
  6 34  1  0
 34 35  2  0
 35  3  1  0
 33  7  2  0
 16 10  1  0
 32 23  1  0
  1 36  1  0
  1 37  1  0
  1 38  1  0
  4 39  1  0
  5 40  1  0
  8 41  1  0
 11 42  1  0
 12 43  1  0
 15 44  1  0
 16 45  1  0
 19 46  1  0
 19 47  1  0
 22 48  1  0
 24 49  1  0
 25 50  1  0
 26 51  1  0
 32 52  1  0
 34 53  1  0
 35 54  1  0
M  END
>  <UniqueID>  (25) 
6

>  <SMILES>  (25) 
CSc1ccc(-c2nc(SCC(=O)Nc3cccc(C(F)(F)F)c3)c(-c3ccc(F)cc3)[nH]2)cc1

>  <Energy>  (25) 
84.54676735977169

>  <Genealogy>  (25) 
CSc1ccc(-c2nc(SCC(=O)Nc3cccc(C(F)(F)F)c3)c(-c3ccc(F)cc3)[nH]2)cc1 (tautomer)
CSc1ccc(-c2nc(SCC(=O)Nc3cccc(C(F)(F)F)c3)c(-c3ccc(F)cc3)[nH]2)cc1 (3D coordinates assigned)
CSc1ccc(-c2nc(SCC(=O)Nc3cccc(C(F)(F)F)c3)c(-c3ccc(F)cc3)[nH]2)cc1 (optimized conformer: 84.54676735977169 kcal/mol)

>  <smiles>  (25) 
CSc1ccc(-c2nc(-c3ccc(F)cc3)c(SCC(=O)Nc3cccc(C(F)(F)F)c3)[nH]2)cc1

>  <score_type>  (25) 
oracle

>  <origin>  (25) 
autodockgpu

>  <m_score__min__energy>  (25) 
-8.5299999999999994

>  <m_primary>  (25) 
energy

>  <meeko>  (25) 
{"free_energy": -8.2, "intermolecular_energy": -10.59, "internal_energy": -2.35, "cluster_size": 14, "cluster_id": 2, "rank_in_cluster": 4}

>  <energy>  (25) 
-8.2

>  <cluster_rmsd>  (25) 
0.11

>  <rmsd>  (25) 
269.75

>  <cluster>  (25) 
2

$$$$
HBUNGMSMUROVMB-PUXXYCQMNA-N
     RDKit          3D

 54 57  0  0  0  0  0  0  0  0999 V2000
  141.7900   77.5940  220.4460 C   0  0  0  0  0  0  0  0  0  0  0  0
  141.7930   76.2650  219.2000 S   0  0  0  0  0  0  0  0  0  0  0  0
  141.2010   75.0180  220.3480 C   0  0  0  0  0  0  0  0  0  0  0  0
  141.9330   73.8470  220.5490 C   0  0  0  0  0  0  0  0  0  0  0  0
  141.4850   72.8820  221.4560 C   0  0  0  0  0  0  0  0  0  0  0  0
  140.2950   73.0800  222.1810 C   0  0  0  0  0  0  0  0  0  0  0  0
  139.8060   72.0740  223.1580 C   0  0  0  0  0  0  0  0  0  0  0  0
  140.5430   71.5630  224.1670 N   0  0  0  0  0  0  0  0  0  0  0  0
  139.7350   70.6970  224.8040 C   0  0  0  0  0  0  0  0  0  0  0  0
  140.1410   69.9220  226.0010 C   0  0  0  0  0  0  0  0  0  0  0  0
  140.5560   70.5960  227.1640 C   0  0  0  0  0  0  0  0  0  0  0  0
  140.9160   69.8790  228.3090 C   0  0  0  0  0  0  0  0  0  0  0  0
  140.8670   68.4850  228.3090 C   0  0  0  0  0  0  0  0  0  0  0  0
  141.2240   67.7920  229.4180 F   0  0  0  0  0  0  0  0  0  0  0  0
  140.4400   67.8040  227.1660 C   0  0  0  0  0  0  0  0  0  0  0  0
  140.0670   68.5160  226.0220 C   0  0  0  0  0  0  0  0  0  0  0  0
  138.5140   70.6980  224.1500 C   0  0  0  0  0  0  0  0  0  0  0  0
  137.0840   69.6700  224.5020 S   0  0  0  0  0  0  0  0  0  0  0  0
  136.0690   70.3150  223.1300 C   0  0  0  0  0  0  0  0  0  0  0  0
  135.3260   71.5490  223.5370 C   0  0  0  0  0  0  0  0  0  0  0  0
  134.0680   71.5260  223.5700 O   0  0  0  0  0  0  0  0  0  0  0  0
  136.0500   72.7370  223.9060 N   0  0  0  0  0  0  0  0  0  0  0  0
  135.4360   73.9660  224.3310 C   0  0  0  0  0  0  0  0  0  0  0  0
  134.6580   73.9670  225.4980 C   0  0  0  0  0  0  0  0  0  0  0  0
  134.0740   75.1480  225.9580 C   0  0  0  0  0  0  0  0  0  0  0  0
  134.2650   76.3410  225.2600 C   0  0  0  0  0  0  0  0  0  0  0  0
  135.0460   76.3650  224.0960 C   0  0  0  0  0  0  0  0  0  0  0  0
  135.3250   77.6800  223.4070 C   0  0  0  0  0  0  0  0  0  0  0  0
  134.5700   77.7500  222.2420 F   0  0  0  0  0  0  0  0  0  0  0  0
  134.9960   78.7490  224.2240 F   0  0  0  0  0  0  0  0  0  0  0  0
  136.6700   77.7820  223.0790 F   0  0  0  0  0  0  0  0  0  0  0  0
  135.6470   75.1750  223.6450 C   0  0  0  0  0  0  0  0  0  0  0  0
  138.5550   71.5630  223.1190 N   0  0  0  0  0  0  0  0  0  0  0  0
  139.5680   74.2650  221.9700 C   0  0  0  0  0  0  0  0  0  0  0  0
  140.0190   75.2250  221.0610 C   0  0  0  0  0  0  0  0  0  0  0  0
  141.7910   77.1522  221.4534 H   0  0  0  0  0  0  0  0  0  0  0  0
  142.6867   78.2182  220.3185 H   0  0  0  0  0  0  0  0  0  0  0  0
  140.8904   78.2141  220.3185 H   0  0  0  0  0  0  0  0  0  0  0  0
  142.8667   73.6825  219.9913 H   0  0  0  0  0  0  0  0  0  0  0  0
  142.0672   71.9606  221.6042 H   0  0  0  0  0  0  0  0  0  0  0  0
  141.5280   71.7900  224.4230 H   0  0  0  0  0  0  0  0  0  0  0  0
  140.5976   71.6952  227.1726 H   0  0  0  0  0  0  0  0  0  0  0  0
  141.2390   70.4161  229.2130 H   0  0  0  0  0  0  0  0  0  0  0  0
  140.3972   66.7048  227.1663 H   0  0  0  0  0  0  0  0  0  0  0  0
  139.7134   67.9742  225.1324 H   0  0  0  0  0  0  0  0  0  0  0  0
  136.7255   70.5557  222.2809 H   0  0  0  0  0  0  0  0  0  0  0  0
  135.3356   69.5449  222.8487 H   0  0  0  0  0  0  0  0  0  0  0  0
  137.0860   72.6590  224.0000 H   0  0  0  0  0  0  0  0  0  0  0  0
  134.5071   73.0303  226.0546 H   0  0  0  0  0  0  0  0  0  0  0  0
  133.4622   75.1384  226.8721 H   0  0  0  0  0  0  0  0  0  0  0  0
  133.7999   77.2685  225.6253 H   0  0  0  0  0  0  0  0  0  0  0  0
  136.2861   75.1909  222.7498 H   0  0  0  0  0  0  0  0  0  0  0  0
  138.6349   74.4377  222.5263 H   0  0  0  0  0  0  0  0  0  0  0  0
  139.4404   76.1477  220.9065 H   0  0  0  0  0  0  0  0  0  0  0  0
  1  2  1  0
  2  3  1  0
  3  4  2  0
  4  5  1  0
  5  6  2  0
  6  7  1  0
  7  8  1  0
  8  9  1  0
  9 10  1  0
 10 11  2  0
 11 12  1  0
 12 13  2  0
 13 14  1  0
 13 15  1  0
 15 16  2  0
  9 17  2  0
 17 18  1  0
 18 19  1  0
 19 20  1  0
 20 21  2  0
 20 22  1  0
 22 23  1  0
 23 24  2  0
 24 25  1  0
 25 26  2  0
 26 27  1  0
 27 28  1  0
 28 29  1  0
 28 30  1  0
 28 31  1  0
 27 32  2  0
 17 33  1  0
  6 34  1  0
 34 35  2  0
 35  3  1  0
 33  7  2  0
 16 10  1  0
 32 23  1  0
  1 36  1  0
  1 37  1  0
  1 38  1  0
  4 39  1  0
  5 40  1  0
  8 41  1  0
 11 42  1  0
 12 43  1  0
 15 44  1  0
 16 45  1  0
 19 46  1  0
 19 47  1  0
 22 48  1  0
 24 49  1  0
 25 50  1  0
 26 51  1  0
 32 52  1  0
 34 53  1  0
 35 54  1  0
M  END
>  <UniqueID>  (26) 
6

>  <SMILES>  (26) 
CSc1ccc(-c2nc(SCC(=O)Nc3cccc(C(F)(F)F)c3)c(-c3ccc(F)cc3)[nH]2)cc1

>  <Energy>  (26) 
84.54676735977169

>  <Genealogy>  (26) 
CSc1ccc(-c2nc(SCC(=O)Nc3cccc(C(F)(F)F)c3)c(-c3ccc(F)cc3)[nH]2)cc1 (tautomer)
CSc1ccc(-c2nc(SCC(=O)Nc3cccc(C(F)(F)F)c3)c(-c3ccc(F)cc3)[nH]2)cc1 (3D coordinates assigned)
CSc1ccc(-c2nc(SCC(=O)Nc3cccc(C(F)(F)F)c3)c(-c3ccc(F)cc3)[nH]2)cc1 (optimized conformer: 84.54676735977169 kcal/mol)

>  <smiles>  (26) 
CSc1ccc(-c2nc(-c3ccc(F)cc3)c(SCC(=O)Nc3cccc(C(F)(F)F)c3)[nH]2)cc1

>  <score_type>  (26) 
oracle

>  <origin>  (26) 
autodockgpu

>  <m_score__min__energy>  (26) 
-8.5299999999999994

>  <m_primary>  (26) 
energy

>  <meeko>  (26) 
{"free_energy": -7.34, "intermolecular_energy": -9.72, "internal_energy": -2.28, "cluster_size": 1, "cluster_id": 5, "rank_in_cluster": 1}

>  <energy>  (26) 
-8.15

>  <cluster_rmsd>  (26) 
0.08

>  <rmsd>  (26) 
269.72

>  <cluster>  (26) 
2

$$$$
HBUNGMSMUROVMB-PUXXYCQMNA-N
     RDKit          3D

 54 57  0  0  0  0  0  0  0  0999 V2000
  139.3410   83.5700  221.2240 C   0  0  0  0  0  0  0  0  0  0  0  0
  140.7210   83.7760  220.0540 S   0  0  0  0  0  0  0  0  0  0  0  0
  140.9940   82.0100  219.8730 C   0  0  0  0  0  0  0  0  0  0  0  0
  141.5610   81.2780  220.9170 C   0  0  0  0  0  0  0  0  0  0  0  0
  141.7570   79.9000  220.7870 C   0  0  0  0  0  0  0  0  0  0  0  0
  141.3820   79.2330  219.6060 C   0  0  0  0  0  0  0  0  0  0  0  0
  141.5710   77.7690  219.4500 C   0  0  0  0  0  0  0  0  0  0  0  0
  142.7410   77.1210  219.6410 N   0  0  0  0  0  0  0  0  0  0  0  0
  142.4820   75.8240  219.3980 C   0  0  0  0  0  0  0  0  0  0  0  0
  143.4950   74.7470  219.5160 C   0  0  0  0  0  0  0  0  0  0  0  0
  143.9680   74.1020  218.3590 C   0  0  0  0  0  0  0  0  0  0  0  0
  144.9430   73.1050  218.4530 C   0  0  0  0  0  0  0  0  0  0  0  0
  145.4550   72.7370  219.6980 C   0  0  0  0  0  0  0  0  0  0  0  0
  146.3940   71.7630  219.7850 F   0  0  0  0  0  0  0  0  0  0  0  0
  145.0050   73.3820  220.8520 C   0  0  0  0  0  0  0  0  0  0  0  0
  144.0390   74.3900  220.7640 C   0  0  0  0  0  0  0  0  0  0  0  0
  141.1450   75.7180  219.0520 C   0  0  0  0  0  0  0  0  0  0  0  0
  140.2630   74.2400  218.5360 S   0  0  0  0  0  0  0  0  0  0  0  0
  139.6730   73.8020  220.2060 C   0  0  0  0  0  0  0  0  0  0  0  0
  140.0820   74.8320  221.2140 C   0  0  0  0  0  0  0  0  0  0  0  0
  140.9950   74.5580  222.0360 O   0  0  0  0  0  0  0  0  0  0  0  0
  139.4470   76.1230  221.2210 N   0  0  0  0  0  0  0  0  0  0  0  0
  139.7780   77.1870  222.1310 C   0  0  0  0  0  0  0  0  0  0  0  0
  141.0760   77.2480  222.6610 C   0  0  0  0  0  0  0  0  0  0  0  0
  141.4420   78.2840  223.5190 C   0  0  0  0  0  0  0  0  0  0  0  0
  140.5170   79.2750  223.8540 C   0  0  0  0  0  0  0  0  0  0  0  0
  139.2170   79.2390  223.3290 C   0  0  0  0  0  0  0  0  0  0  0  0
  138.2600   80.3700  223.6220 C   0  0  0  0  0  0  0  0  0  0  0  0
  137.0540   80.1210  222.9780 F   0  0  0  0  0  0  0  0  0  0  0  0
  138.0300   80.4880  224.9830 F   0  0  0  0  0  0  0  0  0  0  0  0
  138.7750   81.5750  223.1620 F   0  0  0  0  0  0  0  0  0  0  0  0
  138.8580   78.2010  222.4500 C   0  0  0  0  0  0  0  0  0  0  0  0
  140.5710   76.9350  219.0860 N   0  0  0  0  0  0  0  0  0  0  0  0
  140.8110   79.9820  218.5620 C   0  0  0  0  0  0  0  0  0  0  0  0
  140.6190   81.3590  218.6970 C   0  0  0  0  0  0  0  0  0  0  0  0
  139.7222   83.6269  222.2543 H   0  0  0  0  0  0  0  0  0  0  0  0
  138.6010   84.3676  221.0623 H   0  0  0  0  0  0  0  0  0  0  0  0
  138.8662   82.5910  221.0623 H   0  0  0  0  0  0  0  0  0  0  0  0
  141.8551   81.7876  221.8464 H   0  0  0  0  0  0  0  0  0  0  0  0
  142.2079   79.3326  221.6144 H   0  0  0  0  0  0  0  0  0  0  0  0
  143.6580   77.5230  219.9300 H   0  0  0  0  0  0  0  0  0  0  0  0
  143.5680   74.3840  217.3739 H   0  0  0  0  0  0  0  0  0  0  0  0
  145.3082   72.6084  217.5420 H   0  0  0  0  0  0  0  0  0  0  0  0
  145.4115   73.0965  221.8335 H   0  0  0  0  0  0  0  0  0  0  0  0
  143.7027   74.9064  221.6752 H   0  0  0  0  0  0  0  0  0  0  0  0
  138.5754   73.7308  220.1913 H   0  0  0  0  0  0  0  0  0  0  0  0
  140.1211   72.8389  220.4916 H   0  0  0  0  0  0  0  0  0  0  0  0
  138.8030   76.3470  220.4320 H   0  0  0  0  0  0  0  0  0  0  0  0
  141.8102   76.4725  222.3974 H   0  0  0  0  0  0  0  0  0  0  0  0
  142.4606   78.3209  223.9326 H   0  0  0  0  0  0  0  0  0  0  0  0
  140.8097   80.0888  224.5338 H   0  0  0  0  0  0  0  0  0  0  0  0
  137.8504   78.1826  222.0092 H   0  0  0  0  0  0  0  0  0  0  0  0
  140.5127   79.4790  217.6303 H   0  0  0  0  0  0  0  0  0  0  0  0
  140.1702   81.9327  217.8727 H   0  0  0  0  0  0  0  0  0  0  0  0
  1  2  1  0
  2  3  1  0
  3  4  2  0
  4  5  1  0
  5  6  2  0
  6  7  1  0
  7  8  1  0
  8  9  1  0
  9 10  1  0
 10 11  2  0
 11 12  1  0
 12 13  2  0
 13 14  1  0
 13 15  1  0
 15 16  2  0
  9 17  2  0
 17 18  1  0
 18 19  1  0
 19 20  1  0
 20 21  2  0
 20 22  1  0
 22 23  1  0
 23 24  2  0
 24 25  1  0
 25 26  2  0
 26 27  1  0
 27 28  1  0
 28 29  1  0
 28 30  1  0
 28 31  1  0
 27 32  2  0
 17 33  1  0
  6 34  1  0
 34 35  2  0
 35  3  1  0
 33  7  2  0
 16 10  1  0
 32 23  1  0
  1 36  1  0
  1 37  1  0
  1 38  1  0
  4 39  1  0
  5 40  1  0
  8 41  1  0
 11 42  1  0
 12 43  1  0
 15 44  1  0
 16 45  1  0
 19 46  1  0
 19 47  1  0
 22 48  1  0
 24 49  1  0
 25 50  1  0
 26 51  1  0
 32 52  1  0
 34 53  1  0
 35 54  1  0
M  END
>  <UniqueID>  (27) 
6

>  <SMILES>  (27) 
CSc1ccc(-c2nc(SCC(=O)Nc3cccc(C(F)(F)F)c3)c(-c3ccc(F)cc3)[nH]2)cc1

>  <Energy>  (27) 
84.54676735977169

>  <Genealogy>  (27) 
CSc1ccc(-c2nc(SCC(=O)Nc3cccc(C(F)(F)F)c3)c(-c3ccc(F)cc3)[nH]2)cc1 (tautomer)
CSc1ccc(-c2nc(SCC(=O)Nc3cccc(C(F)(F)F)c3)c(-c3ccc(F)cc3)[nH]2)cc1 (3D coordinates assigned)
CSc1ccc(-c2nc(SCC(=O)Nc3cccc(C(F)(F)F)c3)c(-c3ccc(F)cc3)[nH]2)cc1 (optimized conformer: 84.54676735977169 kcal/mol)

>  <smiles>  (27) 
CSc1ccc(-c2nc(-c3ccc(F)cc3)c(SCC(=O)Nc3cccc(C(F)(F)F)c3)[nH]2)cc1

>  <score_type>  (27) 
oracle

>  <origin>  (27) 
autodockgpu

>  <m_score__min__energy>  (27) 
-8.5299999999999994

>  <m_primary>  (27) 
energy

>  <meeko>  (27) 
{"free_energy": -6.8, "intermolecular_energy": -9.18, "internal_energy": -3.0, "cluster_size": 14, "cluster_id": 2, "rank_in_cluster": 13}

>  <energy>  (27) 
-8.14

>  <cluster_rmsd>  (27) 
0.15

>  <rmsd>  (27) 
269.69

>  <cluster>  (27) 
2

$$$$
HBUNGMSMUROVMB-PUXXYCQMNA-N
     RDKit          3D

 54 57  0  0  0  0  0  0  0  0999 V2000
  143.2150   83.8770  217.0570 C   0  0  0  0  0  0  0  0  0  0  0  0
  141.7470   83.8770  218.1340 S   0  0  0  0  0  0  0  0  0  0  0  0
  141.8350   82.1150  218.4640 C   0  0  0  0  0  0  0  0  0  0  0  0
  141.1740   81.5750  219.5680 C   0  0  0  0  0  0  0  0  0  0  0  0
  141.2240   80.2000  219.8170 C   0  0  0  0  0  0  0  0  0  0  0  0
  141.9370   79.3430  218.9570 C   0  0  0  0  0  0  0  0  0  0  0  0
  141.9950   77.8790  219.1960 C   0  0  0  0  0  0  0  0  0  0  0  0
  143.1320   77.1500  219.2230 N   0  0  0  0  0  0  0  0  0  0  0  0
  142.7470   75.8850  219.4640 C   0  0  0  0  0  0  0  0  0  0  0  0
  143.6920   74.7490  219.5980 C   0  0  0  0  0  0  0  0  0  0  0  0
  143.5090   73.5920  218.8190 C   0  0  0  0  0  0  0  0  0  0  0  0
  144.4080   72.5250  218.9140 C   0  0  0  0  0  0  0  0  0  0  0  0
  145.4940   72.5970  219.7870 C   0  0  0  0  0  0  0  0  0  0  0  0
  146.3590   71.5570  219.8830 F   0  0  0  0  0  0  0  0  0  0  0  0
  145.6960   73.7480  220.5530 C   0  0  0  0  0  0  0  0  0  0  0  0
  144.8080   74.8240  220.4520 C   0  0  0  0  0  0  0  0  0  0  0  0
  141.3660   75.8760  219.5690 C   0  0  0  0  0  0  0  0  0  0  0  0
  140.2960   74.4510  219.7950 S   0  0  0  0  0  0  0  0  0  0  0  0
  140.1950   74.6010  221.6100 C   0  0  0  0  0  0  0  0  0  0  0  0
  139.9840   76.0240  222.0270 C   0  0  0  0  0  0  0  0  0  0  0  0
  138.8110   76.4590  222.1550 O   0  0  0  0  0  0  0  0  0  0  0  0
  141.1170   76.8710  222.2940 N   0  0  0  0  0  0  0  0  0  0  0  0
  141.0260   78.2410  222.7170 C   0  0  0  0  0  0  0  0  0  0  0  0
  142.1980   79.0090  222.7880 C   0  0  0  0  0  0  0  0  0  0  0  0
  142.1430   80.3520  223.1630 C   0  0  0  0  0  0  0  0  0  0  0  0
  140.9160   80.9440  223.4670 C   0  0  0  0  0  0  0  0  0  0  0  0
  139.7310   80.1980  223.3950 C   0  0  0  0  0  0  0  0  0  0  0  0
  138.4020   80.8770  223.6300 C   0  0  0  0  0  0  0  0  0  0  0  0
  137.3790   79.9980  223.2970 F   0  0  0  0  0  0  0  0  0  0  0  0
  138.2630   81.2530  224.9560 F   0  0  0  0  0  0  0  0  0  0  0  0
  138.2910   82.0150  222.8420 F   0  0  0  0  0  0  0  0  0  0  0  0
  139.7890   78.8480  222.9990 C   0  0  0  0  0  0  0  0  0  0  0  0
  140.8930   77.1250  219.4030 N   0  0  0  0  0  0  0  0  0  0  0  0
  142.5970   79.9000  217.8480 C   0  0  0  0  0  0  0  0  0  0  0  0
  142.5450   81.2750  217.6050 C   0  0  0  0  0  0  0  0  0  0  0  0
  143.5106   82.8399  216.8401 H   0  0  0  0  0  0  0  0  0  0  0  0
  142.9794   84.3955  216.1160 H   0  0  0  0  0  0  0  0  0  0  0  0
  144.0419   84.3955  217.5643 H   0  0  0  0  0  0  0  0  0  0  0  0
  140.6111   82.2340  220.2454 H   0  0  0  0  0  0  0  0  0  0  0  0
  140.7022   79.7845  220.6917 H   0  0  0  0  0  0  0  0  0  0  0  0
  144.1130   77.4840  219.1000 H   0  0  0  0  0  0  0  0  0  0  0  0
  142.6534   73.5262  218.1308 H   0  0  0  0  0  0  0  0  0  0  0  0
  144.2584   71.6258  218.2983 H   0  0  0  0  0  0  0  0  0  0  0  0
  146.5553   73.8081  221.2370 H   0  0  0  0  0  0  0  0  0  0  0  0
  144.9831   75.7345  221.0438 H   0  0  0  0  0  0  0  0  0  0  0  0
  139.3539   73.9924  221.9737 H   0  0  0  0  0  0  0  0  0  0  0  0
  141.1441   74.2497  222.0410 H   0  0  0  0  0  0  0  0  0  0  0  0
  142.0580   76.4220  222.3120 H   0  0  0  0  0  0  0  0  0  0  0  0
  143.1675   78.5490  222.5462 H   0  0  0  0  0  0  0  0  0  0  0  0
  143.0678   80.9449  223.2191 H   0  0  0  0  0  0  0  0  0  0  0  0
  140.8785   82.0022  223.7649 H   0  0  0  0  0  0  0  0  0  0  0  0
  138.8609   78.2644  222.9096 H   0  0  0  0  0  0  0  0  0  0  0  0
  143.1599   79.2471  217.1648 H   0  0  0  0  0  0  0  0  0  0  0  0
  143.0659   81.6971  216.7329 H   0  0  0  0  0  0  0  0  0  0  0  0
  1  2  1  0
  2  3  1  0
  3  4  2  0
  4  5  1  0
  5  6  2  0
  6  7  1  0
  7  8  1  0
  8  9  1  0
  9 10  1  0
 10 11  2  0
 11 12  1  0
 12 13  2  0
 13 14  1  0
 13 15  1  0
 15 16  2  0
  9 17  2  0
 17 18  1  0
 18 19  1  0
 19 20  1  0
 20 21  2  0
 20 22  1  0
 22 23  1  0
 23 24  2  0
 24 25  1  0
 25 26  2  0
 26 27  1  0
 27 28  1  0
 28 29  1  0
 28 30  1  0
 28 31  1  0
 27 32  2  0
 17 33  1  0
  6 34  1  0
 34 35  2  0
 35  3  1  0
 33  7  2  0
 16 10  1  0
 32 23  1  0
  1 36  1  0
  1 37  1  0
  1 38  1  0
  4 39  1  0
  5 40  1  0
  8 41  1  0
 11 42  1  0
 12 43  1  0
 15 44  1  0
 16 45  1  0
 19 46  1  0
 19 47  1  0
 22 48  1  0
 24 49  1  0
 25 50  1  0
 26 51  1  0
 32 52  1  0
 34 53  1  0
 35 54  1  0
M  END
>  <UniqueID>  (28) 
6

>  <SMILES>  (28) 
CSc1ccc(-c2nc(SCC(=O)Nc3cccc(C(F)(F)F)c3)c(-c3ccc(F)cc3)[nH]2)cc1

>  <Energy>  (28) 
84.54676735977169

>  <Genealogy>  (28) 
CSc1ccc(-c2nc(SCC(=O)Nc3cccc(C(F)(F)F)c3)c(-c3ccc(F)cc3)[nH]2)cc1 (tautomer)
CSc1ccc(-c2nc(SCC(=O)Nc3cccc(C(F)(F)F)c3)c(-c3ccc(F)cc3)[nH]2)cc1 (3D coordinates assigned)
CSc1ccc(-c2nc(SCC(=O)Nc3cccc(C(F)(F)F)c3)c(-c3ccc(F)cc3)[nH]2)cc1 (optimized conformer: 84.54676735977169 kcal/mol)

>  <smiles>  (28) 
CSc1ccc(-c2nc(-c3ccc(F)cc3)c(SCC(=O)Nc3cccc(C(F)(F)F)c3)[nH]2)cc1

>  <score_type>  (28) 
oracle

>  <origin>  (28) 
autodockgpu

>  <m_score__min__energy>  (28) 
-8.5299999999999994

>  <m_primary>  (28) 
energy

>  <meeko>  (28) 
{"free_energy": -8.27, "intermolecular_energy": -10.66, "internal_energy": -2.34, "cluster_size": 14, "cluster_id": 2, "rank_in_cluster": 1}

>  <energy>  (28) 
-8.14

>  <cluster_rmsd>  (28) 
0.95

>  <rmsd>  (28) 
269.63

>  <cluster>  (28) 
2

$$$$
HBUNGMSMUROVMB-PUXXYCQMNA-N
     RDKit          3D

 54 57  0  0  0  0  0  0  0  0999 V2000
  143.7230   75.5620  219.6980 C   0  0  0  0  0  0  0  0  0  0  0  0
  142.3000   76.6970  219.7510 S   0  0  0  0  0  0  0  0  0  0  0  0
  141.1610   75.4400  220.3390 C   0  0  0  0  0  0  0  0  0  0  0  0
  140.4360   75.6460  221.5130 C   0  0  0  0  0  0  0  0  0  0  0  0
  139.5330   74.6780  221.9640 C   0  0  0  0  0  0  0  0  0  0  0  0
  139.3410   73.4870  221.2390 C   0  0  0  0  0  0  0  0  0  0  0  0
  138.3810   72.4500  221.6930 C   0  0  0  0  0  0  0  0  0  0  0  0
  137.5790   72.5660  222.7730 N   0  0  0  0  0  0  0  0  0  0  0  0
  136.8770   71.4210  222.8310 C   0  0  0  0  0  0  0  0  0  0  0  0
  135.8510   71.1350  223.8630 C   0  0  0  0  0  0  0  0  0  0  0  0
  135.8870   69.9180  224.5670 C   0  0  0  0  0  0  0  0  0  0  0  0
  134.9430   69.6470  225.5620 C   0  0  0  0  0  0  0  0  0  0  0  0
  133.9530   70.5820  225.8640 C   0  0  0  0  0  0  0  0  0  0  0  0
  133.0340   70.3120  226.8230 F   0  0  0  0  0  0  0  0  0  0  0  0
  133.9170   71.8020  225.1840 C   0  0  0  0  0  0  0  0  0  0  0  0
  134.8670   72.0840  224.1970 C   0  0  0  0  0  0  0  0  0  0  0  0
  137.2840   70.6230  221.7740 C   0  0  0  0  0  0  0  0  0  0  0  0
  136.7570   68.9460  221.4040 S   0  0  0  0  0  0  0  0  0  0  0  0
  138.3880   68.1850  221.7050 C   0  0  0  0  0  0  0  0  0  0  0  0
  138.8900   68.5020  223.0800 C   0  0  0  0  0  0  0  0  0  0  0  0
  138.8500   67.6130  223.9690 O   0  0  0  0  0  0  0  0  0  0  0  0
  139.4280   69.8070  223.3660 N   0  0  0  0  0  0  0  0  0  0  0  0
  139.9530   70.2070  224.6430 C   0  0  0  0  0  0  0  0  0  0  0  0
  140.5840   71.4550  224.7560 C   0  0  0  0  0  0  0  0  0  0  0  0
  141.0760   71.8910  225.9860 C   0  0  0  0  0  0  0  0  0  0  0  0
  140.9390   71.0870  227.1190 C   0  0  0  0  0  0  0  0  0  0  0  0
  140.3030   69.8400  227.0310 C   0  0  0  0  0  0  0  0  0  0  0  0
  140.0750   69.0260  228.2840 C   0  0  0  0  0  0  0  0  0  0  0  0
  139.1940   69.7100  229.1130 F   0  0  0  0  0  0  0  0  0  0  0  0
  139.5390   67.7860  227.9800 F   0  0  0  0  0  0  0  0  0  0  0  0
  141.2710   68.8300  228.9610 F   0  0  0  0  0  0  0  0  0  0  0  0
  139.7930   69.4120  225.7910 C   0  0  0  0  0  0  0  0  0  0  0  0
  138.2250   71.2670  221.0580 N   0  0  0  0  0  0  0  0  0  0  0  0
  140.0770   73.2920  220.0570 C   0  0  0  0  0  0  0  0  0  0  0  0
  140.9790   74.2620  219.6120 C   0  0  0  0  0  0  0  0  0  0  0  0
  144.0331   75.3146  220.7240 H   0  0  0  0  0  0  0  0  0  0  0  0
  143.4377   74.6407  219.1690 H   0  0  0  0  0  0  0  0  0  0  0  0
  144.5578   76.0450  219.1690 H   0  0  0  0  0  0  0  0  0  0  0  0
  140.5753   76.5742  222.0866 H   0  0  0  0  0  0  0  0  0  0  0  0
  138.9685   74.8488  222.8925 H   0  0  0  0  0  0  0  0  0  0  0  0
  137.4960   73.3740  223.4280 H   0  0  0  0  0  0  0  0  0  0  0  0
  136.6631   69.1744  224.3332 H   0  0  0  0  0  0  0  0  0  0  0  0
  134.9811   68.6932  226.1086 H   0  0  0  0  0  0  0  0  0  0  0  0
  133.1400   72.5422  225.4254 H   0  0  0  0  0  0  0  0  0  0  0  0
  134.8449   73.0539  223.6785 H   0  0  0  0  0  0  0  0  0  0  0  0
  138.2996   67.0938  221.5984 H   0  0  0  0  0  0  0  0  0  0  0  0
  139.1013   68.5906  220.9725 H   0  0  0  0  0  0  0  0  0  0  0  0
  139.5690   70.4550  222.5620 H   0  0  0  0  0  0  0  0  0  0  0  0
  140.6915   72.0946  223.8675 H   0  0  0  0  0  0  0  0  0  0  0  0
  141.5726   72.8695  226.0635 H   0  0  0  0  0  0  0  0  0  0  0  0
  141.3320   71.4334  228.0862 H   0  0  0  0  0  0  0  0  0  0  0  0
  139.2658   68.4492  225.7199 H   0  0  0  0  0  0  0  0  0  0  0  0
  139.9415   72.3671  219.4771 H   0  0  0  0  0  0  0  0  0  0  0  0
  141.5480   74.0968  218.6852 H   0  0  0  0  0  0  0  0  0  0  0  0
  1  2  1  0
  2  3  1  0
  3  4  2  0
  4  5  1  0
  5  6  2  0
  6  7  1  0
  7  8  1  0
  8  9  1  0
  9 10  1  0
 10 11  2  0
 11 12  1  0
 12 13  2  0
 13 14  1  0
 13 15  1  0
 15 16  2  0
  9 17  2  0
 17 18  1  0
 18 19  1  0
 19 20  1  0
 20 21  2  0
 20 22  1  0
 22 23  1  0
 23 24  2  0
 24 25  1  0
 25 26  2  0
 26 27  1  0
 27 28  1  0
 28 29  1  0
 28 30  1  0
 28 31  1  0
 27 32  2  0
 17 33  1  0
  6 34  1  0
 34 35  2  0
 35  3  1  0
 33  7  2  0
 16 10  1  0
 32 23  1  0
  1 36  1  0
  1 37  1  0
  1 38  1  0
  4 39  1  0
  5 40  1  0
  8 41  1  0
 11 42  1  0
 12 43  1  0
 15 44  1  0
 16 45  1  0
 19 46  1  0
 19 47  1  0
 22 48  1  0
 24 49  1  0
 25 50  1  0
 26 51  1  0
 32 52  1  0
 34 53  1  0
 35 54  1  0
M  END
>  <UniqueID>  (29) 
6

>  <SMILES>  (29) 
CSc1ccc(-c2nc(SCC(=O)Nc3cccc(C(F)(F)F)c3)c(-c3ccc(F)cc3)[nH]2)cc1

>  <Energy>  (29) 
84.54676735977169

>  <Genealogy>  (29) 
CSc1ccc(-c2nc(SCC(=O)Nc3cccc(C(F)(F)F)c3)c(-c3ccc(F)cc3)[nH]2)cc1 (tautomer)
CSc1ccc(-c2nc(SCC(=O)Nc3cccc(C(F)(F)F)c3)c(-c3ccc(F)cc3)[nH]2)cc1 (3D coordinates assigned)
CSc1ccc(-c2nc(SCC(=O)Nc3cccc(C(F)(F)F)c3)c(-c3ccc(F)cc3)[nH]2)cc1 (optimized conformer: 84.54676735977169 kcal/mol)

>  <smiles>  (29) 
CSc1ccc(-c2nc(-c3ccc(F)cc3)c(SCC(=O)Nc3cccc(C(F)(F)F)c3)[nH]2)cc1

>  <score_type>  (29) 
oracle

>  <origin>  (29) 
autodockgpu

>  <m_score__min__energy>  (29) 
-8.5299999999999994

>  <m_primary>  (29) 
energy

>  <meeko>  (29) 
{"free_energy": -6.61, "intermolecular_energy": -8.99, "internal_energy": -2.73, "cluster_size": 1, "cluster_id": 7, "rank_in_cluster": 1}

>  <energy>  (29) 
-8.07

>  <cluster_rmsd>  (29) 
0.63

>  <rmsd>  (29) 
269.78

>  <cluster>  (29) 
2

$$$$
HBUNGMSMUROVMB-PUXXYCQMNA-N
     RDKit          3D

 54 57  0  0  0  0  0  0  0  0999 V2000
  140.5030   84.0700  220.0980 C   0  0  0  0  0  0  0  0  0  0  0  0
  141.4600   83.8240  218.5680 S   0  0  0  0  0  0  0  0  0  0  0  0
  141.5890   82.0470  218.7870 C   0  0  0  0  0  0  0  0  0  0  0  0
  142.4540   81.3030  217.9840 C   0  0  0  0  0  0  0  0  0  0  0  0
  142.5710   79.9210  218.1650 C   0  0  0  0  0  0  0  0  0  0  0  0
  141.8230   79.2650  219.1600 C   0  0  0  0  0  0  0  0  0  0  0  0
  141.9390   77.8000  219.3770 C   0  0  0  0  0  0  0  0  0  0  0  0
  143.1030   77.1160  219.3900 N   0  0  0  0  0  0  0  0  0  0  0  0
  142.7690   75.8330  219.6130 C   0  0  0  0  0  0  0  0  0  0  0  0
  143.7560   74.7330  219.7270 C   0  0  0  0  0  0  0  0  0  0  0  0
  143.5480   73.5300  219.0280 C   0  0  0  0  0  0  0  0  0  0  0  0
  144.4850   72.4950  219.1040 C   0  0  0  0  0  0  0  0  0  0  0  0
  145.6360   72.6450  219.8780 C   0  0  0  0  0  0  0  0  0  0  0  0
  146.5380   71.6360  219.9570 F   0  0  0  0  0  0  0  0  0  0  0  0
  145.8630   73.8410  220.5630 C   0  0  0  0  0  0  0  0  0  0  0  0
  144.9360   74.8850  220.4800 C   0  0  0  0  0  0  0  0  0  0  0  0
  141.3890   75.7690  219.7230 C   0  0  0  0  0  0  0  0  0  0  0  0
  140.3760   74.3010  219.9320 S   0  0  0  0  0  0  0  0  0  0  0  0
  140.0900   74.5450  221.7170 C   0  0  0  0  0  0  0  0  0  0  0  0
  139.9270   75.9960  222.0480 C   0  0  0  0  0  0  0  0  0  0  0  0
  138.7900   76.5260  221.9450 O   0  0  0  0  0  0  0  0  0  0  0  0
  141.0590   76.7630  222.4960 N   0  0  0  0  0  0  0  0  0  0  0  0
  141.0080   78.1540  222.8570 C   0  0  0  0  0  0  0  0  0  0  0  0
  142.2030   78.8860  222.9110 C   0  0  0  0  0  0  0  0  0  0  0  0
  142.1870   80.2450  223.2250 C   0  0  0  0  0  0  0  0  0  0  0  0
  140.9770   80.8890  223.4860 C   0  0  0  0  0  0  0  0  0  0  0  0
  139.7690   80.1790  223.4290 C   0  0  0  0  0  0  0  0  0  0  0  0
  138.4600   80.9110  223.6150 C   0  0  0  0  0  0  0  0  0  0  0  0
  137.4160   80.0720  223.2440 F   0  0  0  0  0  0  0  0  0  0  0  0
  138.2870   81.2930  224.9350 F   0  0  0  0  0  0  0  0  0  0  0  0
  138.4240   82.0520  222.8240 F   0  0  0  0  0  0  0  0  0  0  0  0
  139.7880   78.8120  223.0940 C   0  0  0  0  0  0  0  0  0  0  0  0
  140.8670   77.0020  219.5770 N   0  0  0  0  0  0  0  0  0  0  0  0
  140.9560   80.0260  219.9630 C   0  0  0  0  0  0  0  0  0  0  0  0
  140.8420   81.4060  219.7770 C   0  0  0  0  0  0  0  0  0  0  0  0
  141.1541   83.9026  220.9687 H   0  0  0  0  0  0  0  0  0  0  0  0
  140.1121   85.0978  220.1247 H   0  0  0  0  0  0  0  0  0  0  0  0
  139.6649   83.3581  220.1247 H   0  0  0  0  0  0  0  0  0  0  0  0
  143.0465   81.8054  217.2052 H   0  0  0  0  0  0  0  0  0  0  0  0
  143.2530   79.3425  217.5245 H   0  0  0  0  0  0  0  0  0  0  0  0
  144.0700   77.4890  219.2690 H   0  0  0  0  0  0  0  0  0  0  0  0
  142.6419   73.4027  218.4174 H   0  0  0  0  0  0  0  0  0  0  0  0
  144.3141   71.5592  218.5516 H   0  0  0  0  0  0  0  0  0  0  0  0
  146.7729   73.9620  221.1691 H   0  0  0  0  0  0  0  0  0  0  0  0
  145.1301   75.8311  221.0065 H   0  0  0  0  0  0  0  0  0  0  0  0
  139.1774   74.0057  222.0108 H   0  0  0  0  0  0  0  0  0  0  0  0
  140.9628   74.1597  222.2645 H   0  0  0  0  0  0  0  0  0  0  0  0
  141.9410   76.2450  222.7000 H   0  0  0  0  0  0  0  0  0  0  0  0
  143.1601   78.3847  222.7042 H   0  0  0  0  0  0  0  0  0  0  0  0
  143.1299   80.8100  223.2670 H   0  0  0  0  0  0  0  0  0  0  0  0
  140.9706   81.9598  223.7379 H   0  0  0  0  0  0  0  0  0  0  0  0
  138.8426   78.2549  223.0171 H   0  0  0  0  0  0  0  0  0  0  0  0
  140.3618   79.5306  220.7450 H   0  0  0  0  0  0  0  0  0  0  0  0
  140.1607   81.9899  220.4133 H   0  0  0  0  0  0  0  0  0  0  0  0
  1  2  1  0
  2  3  1  0
  3  4  2  0
  4  5  1  0
  5  6  2  0
  6  7  1  0
  7  8  1  0
  8  9  1  0
  9 10  1  0
 10 11  2  0
 11 12  1  0
 12 13  2  0
 13 14  1  0
 13 15  1  0
 15 16  2  0
  9 17  2  0
 17 18  1  0
 18 19  1  0
 19 20  1  0
 20 21  2  0
 20 22  1  0
 22 23  1  0
 23 24  2  0
 24 25  1  0
 25 26  2  0
 26 27  1  0
 27 28  1  0
 28 29  1  0
 28 30  1  0
 28 31  1  0
 27 32  2  0
 17 33  1  0
  6 34  1  0
 34 35  2  0
 35  3  1  0
 33  7  2  0
 16 10  1  0
 32 23  1  0
  1 36  1  0
  1 37  1  0
  1 38  1  0
  4 39  1  0
  5 40  1  0
  8 41  1  0
 11 42  1  0
 12 43  1  0
 15 44  1  0
 16 45  1  0
 19 46  1  0
 19 47  1  0
 22 48  1  0
 24 49  1  0
 25 50  1  0
 26 51  1  0
 32 52  1  0
 34 53  1  0
 35 54  1  0
M  END
>  <UniqueID>  (30) 
6

>  <SMILES>  (30) 
CSc1ccc(-c2nc(SCC(=O)Nc3cccc(C(F)(F)F)c3)c(-c3ccc(F)cc3)[nH]2)cc1

>  <Energy>  (30) 
84.54676735977169

>  <Genealogy>  (30) 
CSc1ccc(-c2nc(SCC(=O)Nc3cccc(C(F)(F)F)c3)c(-c3ccc(F)cc3)[nH]2)cc1 (tautomer)
CSc1ccc(-c2nc(SCC(=O)Nc3cccc(C(F)(F)F)c3)c(-c3ccc(F)cc3)[nH]2)cc1 (3D coordinates assigned)
CSc1ccc(-c2nc(SCC(=O)Nc3cccc(C(F)(F)F)c3)c(-c3ccc(F)cc3)[nH]2)cc1 (optimized conformer: 84.54676735977169 kcal/mol)

>  <smiles>  (30) 
CSc1ccc(-c2nc(-c3ccc(F)cc3)c(SCC(=O)Nc3cccc(C(F)(F)F)c3)[nH]2)cc1

>  <score_type>  (30) 
oracle

>  <origin>  (30) 
autodockgpu

>  <m_score__min__energy>  (30) 
-8.5299999999999994

>  <m_primary>  (30) 
energy

>  <meeko>  (30) 
{"free_energy": -8.01, "intermolecular_energy": -10.4, "internal_energy": -2.49, "cluster_size": 14, "cluster_id": 2, "rank_in_cluster": 10}

>  <energy>  (30) 
-8.03

>  <cluster_rmsd>  (30) 
1.7

>  <rmsd>  (30) 
269.89

>  <cluster>  (30) 
2

$$$$
HBUNGMSMUROVMB-PUXXYCQMNA-N
     RDKit          3D

 54 57  0  0  0  0  0  0  0  0999 V2000
  140.6320   84.1620  219.7980 C   0  0  0  0  0  0  0  0  0  0  0  0
  141.6150   83.8600  218.2960 S   0  0  0  0  0  0  0  0  0  0  0  0
  141.7020   82.0860  218.5600 C   0  0  0  0  0  0  0  0  0  0  0  0
  142.4910   81.2910  217.7270 C   0  0  0  0  0  0  0  0  0  0  0  0
  142.5760   79.9130  217.9420 C   0  0  0  0  0  0  0  0  0  0  0  0
  141.8740   79.3090  219.0010 C   0  0  0  0  0  0  0  0  0  0  0  0
  141.9580   77.8480  219.2550 C   0  0  0  0  0  0  0  0  0  0  0  0
  143.1070   77.1390  219.2830 N   0  0  0  0  0  0  0  0  0  0  0  0
  142.7440   75.8700  219.5390 C   0  0  0  0  0  0  0  0  0  0  0  0
  143.7080   74.7520  219.6800 C   0  0  0  0  0  0  0  0  0  0  0  0
  143.5010   73.5560  218.9680 C   0  0  0  0  0  0  0  0  0  0  0  0
  144.4160   72.5040  219.0700 C   0  0  0  0  0  0  0  0  0  0  0  0
  145.5440   72.6290  219.8820 C   0  0  0  0  0  0  0  0  0  0  0  0
  146.4250   71.6040  219.9840 F   0  0  0  0  0  0  0  0  0  0  0  0
  145.7700   73.8180  220.5790 C   0  0  0  0  0  0  0  0  0  0  0  0
  144.8650   74.8790  220.4720 C   0  0  0  0  0  0  0  0  0  0  0  0
  141.3640   75.8390  219.6510 C   0  0  0  0  0  0  0  0  0  0  0  0
  140.3190   74.4000  219.8980 S   0  0  0  0  0  0  0  0  0  0  0  0
  140.1950   74.5870  221.7080 C   0  0  0  0  0  0  0  0  0  0  0  0
  139.9870   76.0200  222.0930 C   0  0  0  0  0  0  0  0  0  0  0  0
  138.8160   76.4740  222.1620 O   0  0  0  0  0  0  0  0  0  0  0  0
  141.1200   76.8540  222.3970 N   0  0  0  0  0  0  0  0  0  0  0  0
  141.0310   78.2330  222.7950 C   0  0  0  0  0  0  0  0  0  0  0  0
  142.2060   78.9960  222.8680 C   0  0  0  0  0  0  0  0  0  0  0  0
  142.1530   80.3450  223.2180 C   0  0  0  0  0  0  0  0  0  0  0  0
  140.9250   80.9490  223.4950 C   0  0  0  0  0  0  0  0  0  0  0  0
  139.7370   80.2070  223.4200 C   0  0  0  0  0  0  0  0  0  0  0  0
  138.4090   80.8980  223.6260 C   0  0  0  0  0  0  0  0  0  0  0  0
  137.3860   80.0250  223.2770 F   0  0  0  0  0  0  0  0  0  0  0  0
  138.2460   81.2800  224.9480 F   0  0  0  0  0  0  0  0  0  0  0  0
  138.3230   82.0330  222.8310 F   0  0  0  0  0  0  0  0  0  0  0  0
  139.7940   78.8510  223.0500 C   0  0  0  0  0  0  0  0  0  0  0  0
  140.8690   77.0790  219.4760 N   0  0  0  0  0  0  0  0  0  0  0  0
  141.0840   80.1210  219.8340 C   0  0  0  0  0  0  0  0  0  0  0  0
  141.0010   81.4980  219.6140 C   0  0  0  0  0  0  0  0  0  0  0  0
  141.2520   83.9715  220.6864 H   0  0  0  0  0  0  0  0  0  0  0  0
  140.2888   85.2070  219.8076 H   0  0  0  0  0  0  0  0  0  0  0  0
  139.7612   83.4900  219.8076 H   0  0  0  0  0  0  0  0  0  0  0  0
  143.0482   81.7513  216.8978 H   0  0  0  0  0  0  0  0  0  0  0  0
  143.1974   79.2949  217.2773 H   0  0  0  0  0  0  0  0  0  0  0  0
  144.0810   77.4880  219.1520 H   0  0  0  0  0  0  0  0  0  0  0  0
  142.6136   73.4482  218.3271 H   0  0  0  0  0  0  0  0  0  0  0  0
  144.2461   71.5739  218.5079 H   0  0  0  0  0  0  0  0  0  0  0  0
  146.6624   73.9203  221.2140 H   0  0  0  0  0  0  0  0  0  0  0  0
  145.0585   75.8187  221.0101 H   0  0  0  0  0  0  0  0  0  0  0  0
  139.3456   73.9908  222.0727 H   0  0  0  0  0  0  0  0  0  0  0  0
  141.1360   74.2389  222.1588 H   0  0  0  0  0  0  0  0  0  0  0  0
  142.0520   76.3930  222.4650 H   0  0  0  0  0  0  0  0  0  0  0  0
  143.1762   78.5269  222.6476 H   0  0  0  0  0  0  0  0  0  0  0  0
  143.0802   80.9341  223.2759 H   0  0  0  0  0  0  0  0  0  0  0  0
  140.8890   82.0125  223.7736 H   0  0  0  0  0  0  0  0  0  0  0  0
  138.8643   78.2700  222.9595 H   0  0  0  0  0  0  0  0  0  0  0  0
  140.5262   79.6677  220.6666 H   0  0  0  0  0  0  0  0  0  0  0  0
  140.3805   82.1216  220.2743 H   0  0  0  0  0  0  0  0  0  0  0  0
  1  2  1  0
  2  3  1  0
  3  4  2  0
  4  5  1  0
  5  6  2  0
  6  7  1  0
  7  8  1  0
  8  9  1  0
  9 10  1  0
 10 11  2  0
 11 12  1  0
 12 13  2  0
 13 14  1  0
 13 15  1  0
 15 16  2  0
  9 17  2  0
 17 18  1  0
 18 19  1  0
 19 20  1  0
 20 21  2  0
 20 22  1  0
 22 23  1  0
 23 24  2  0
 24 25  1  0
 25 26  2  0
 26 27  1  0
 27 28  1  0
 28 29  1  0
 28 30  1  0
 28 31  1  0
 27 32  2  0
 17 33  1  0
  6 34  1  0
 34 35  2  0
 35  3  1  0
 33  7  2  0
 16 10  1  0
 32 23  1  0
  1 36  1  0
  1 37  1  0
  1 38  1  0
  4 39  1  0
  5 40  1  0
  8 41  1  0
 11 42  1  0
 12 43  1  0
 15 44  1  0
 16 45  1  0
 19 46  1  0
 19 47  1  0
 22 48  1  0
 24 49  1  0
 25 50  1  0
 26 51  1  0
 32 52  1  0
 34 53  1  0
 35 54  1  0
M  END
>  <UniqueID>  (31) 
6

>  <SMILES>  (31) 
CSc1ccc(-c2nc(SCC(=O)Nc3cccc(C(F)(F)F)c3)c(-c3ccc(F)cc3)[nH]2)cc1

>  <Energy>  (31) 
84.54676735977169

>  <Genealogy>  (31) 
CSc1ccc(-c2nc(SCC(=O)Nc3cccc(C(F)(F)F)c3)c(-c3ccc(F)cc3)[nH]2)cc1 (tautomer)
CSc1ccc(-c2nc(SCC(=O)Nc3cccc(C(F)(F)F)c3)c(-c3ccc(F)cc3)[nH]2)cc1 (3D coordinates assigned)
CSc1ccc(-c2nc(SCC(=O)Nc3cccc(C(F)(F)F)c3)c(-c3ccc(F)cc3)[nH]2)cc1 (optimized conformer: 84.54676735977169 kcal/mol)

>  <smiles>  (31) 
CSc1ccc(-c2nc(-c3ccc(F)cc3)c(SCC(=O)Nc3cccc(C(F)(F)F)c3)[nH]2)cc1

>  <score_type>  (31) 
oracle

>  <origin>  (31) 
autodockgpu

>  <m_score__min__energy>  (31) 
-8.5299999999999994

>  <m_primary>  (31) 
energy

>  <meeko>  (31) 
{"free_energy": -8.07, "intermolecular_energy": -10.46, "internal_energy": -2.44, "cluster_size": 14, "cluster_id": 2, "rank_in_cluster": 8}

>  <energy>  (31) 
-8.01

>  <cluster_rmsd>  (31) 
0.71

>  <rmsd>  (31) 
269.82

>  <cluster>  (31) 
2

$$$$
HBUNGMSMUROVMB-PUXXYCQMNA-N
     RDKit          3D

 54 57  0  0  0  0  0  0  0  0999 V2000
  143.1820   83.8600  217.1050 C   0  0  0  0  0  0  0  0  0  0  0  0
  141.7080   83.8480  218.1740 S   0  0  0  0  0  0  0  0  0  0  0  0
  141.8100   82.0860  218.5060 C   0  0  0  0  0  0  0  0  0  0  0  0
  141.1370   81.5390  219.5990 C   0  0  0  0  0  0  0  0  0  0  0  0
  141.1990   80.1650  219.8490 C   0  0  0  0  0  0  0  0  0  0  0  0
  141.9340   79.3160  219.0010 C   0  0  0  0  0  0  0  0  0  0  0  0
  142.0050   77.8520  219.2410 C   0  0  0  0  0  0  0  0  0  0  0  0
  143.1490   77.1350  219.2780 N   0  0  0  0  0  0  0  0  0  0  0  0
  142.7740   75.8660  219.5160 C   0  0  0  0  0  0  0  0  0  0  0  0
  143.7280   74.7400  219.6590 C   0  0  0  0  0  0  0  0  0  0  0  0
  143.5370   73.5620  218.9140 C   0  0  0  0  0  0  0  0  0  0  0  0
  144.4440   72.5030  219.0180 C   0  0  0  0  0  0  0  0  0  0  0  0
  145.5480   72.6040  219.8660 C   0  0  0  0  0  0  0  0  0  0  0  0
  146.4210   71.5710  219.9700 F   0  0  0  0  0  0  0  0  0  0  0  0
  145.7580   73.7750  220.5980 C   0  0  0  0  0  0  0  0  0  0  0  0
  144.8610   74.8420  220.4880 C   0  0  0  0  0  0  0  0  0  0  0  0
  141.3920   75.8430  219.6080 C   0  0  0  0  0  0  0  0  0  0  0  0
  140.3340   74.4080  219.8250 S   0  0  0  0  0  0  0  0  0  0  0  0
  140.1420   74.6100  221.6280 C   0  0  0  0  0  0  0  0  0  0  0  0
  139.9480   76.0480  221.9960 C   0  0  0  0  0  0  0  0  0  0  0  0
  138.7880   76.5370  221.9730 O   0  0  0  0  0  0  0  0  0  0  0  0
  141.0770   76.8490  222.3900 N   0  0  0  0  0  0  0  0  0  0  0  0
  140.9980   78.2300  222.7810 C   0  0  0  0  0  0  0  0  0  0  0  0
  142.1750   78.9930  222.8210 C   0  0  0  0  0  0  0  0  0  0  0  0
  142.1310   80.3440  223.1640 C   0  0  0  0  0  0  0  0  0  0  0  0
  140.9110   80.9510  223.4650 C   0  0  0  0  0  0  0  0  0  0  0  0
  139.7210   80.2100  223.4220 C   0  0  0  0  0  0  0  0  0  0  0  0
  138.3990   80.9030  223.6540 C   0  0  0  0  0  0  0  0  0  0  0  0
  138.3390   82.0420  222.8590 F   0  0  0  0  0  0  0  0  0  0  0  0
  137.3380   80.0720  223.3340 F   0  0  0  0  0  0  0  0  0  0  0  0
  138.2720   81.2770  224.9860 F   0  0  0  0  0  0  0  0  0  0  0  0
  139.7680   78.8510  223.0600 C   0  0  0  0  0  0  0  0  0  0  0  0
  140.9080   77.0880  219.4380 N   0  0  0  0  0  0  0  0  0  0  0  0
  142.6060   79.8800  217.9020 C   0  0  0  0  0  0  0  0  0  0  0  0
  142.5430   81.2540  217.6580 C   0  0  0  0  0  0  0  0  0  0  0  0
  144.0877   83.8674  217.7293 H   0  0  0  0  0  0  0  0  0  0  0  0
  143.1817   82.9618  216.4700 H   0  0  0  0  0  0  0  0  0  0  0  0
  143.1671   84.7581  216.4700 H   0  0  0  0  0  0  0  0  0  0  0  0
  140.5553   82.1916  220.2667 H   0  0  0  0  0  0  0  0  0  0  0  0
  140.6688   79.7440  220.7159 H   0  0  0  0  0  0  0  0  0  0  0  0
  144.1270   77.4780  219.1650 H   0  0  0  0  0  0  0  0  0  0  0  0
  142.6682   73.4735  218.2451 H   0  0  0  0  0  0  0  0  0  0  0  0
  144.2869   71.5871  218.4295 H   0  0  0  0  0  0  0  0  0  0  0  0
  146.6308   73.8579  221.2623 H   0  0  0  0  0  0  0  0  0  0  0  0
  145.0421   75.7680  221.0535 H   0  0  0  0  0  0  0  0  0  0  0  0
  139.2669   74.0333  221.9621 H   0  0  0  0  0  0  0  0  0  0  0  0
  141.0574   74.2465  222.1178 H   0  0  0  0  0  0  0  0  0  0  0  0
  141.9870   76.3590  222.5310 H   0  0  0  0  0  0  0  0  0  0  0  0
  143.1394   78.5220  222.5800 H   0  0  0  0  0  0  0  0  0  0  0  0
  143.0598   80.9324  223.1974 H   0  0  0  0  0  0  0  0  0  0  0  0
  140.8825   82.0163  223.7374 H   0  0  0  0  0  0  0  0  0  0  0  0
  138.8359   78.2705  222.9949 H   0  0  0  0  0  0  0  0  0  0  0  0
  143.1868   79.2331  217.2280 H   0  0  0  0  0  0  0  0  0  0  0  0
  143.0730   81.6820  216.7943 H   0  0  0  0  0  0  0  0  0  0  0  0
  1  2  1  0
  2  3  1  0
  3  4  2  0
  4  5  1  0
  5  6  2  0
  6  7  1  0
  7  8  1  0
  8  9  1  0
  9 10  1  0
 10 11  2  0
 11 12  1  0
 12 13  2  0
 13 14  1  0
 13 15  1  0
 15 16  2  0
  9 17  2  0
 17 18  1  0
 18 19  1  0
 19 20  1  0
 20 21  2  0
 20 22  1  0
 22 23  1  0
 23 24  2  0
 24 25  1  0
 25 26  2  0
 26 27  1  0
 27 28  1  0
 28 29  1  0
 28 30  1  0
 28 31  1  0
 27 32  2  0
 17 33  1  0
  6 34  1  0
 34 35  2  0
 35  3  1  0
 33  7  2  0
 16 10  1  0
 32 23  1  0
  1 36  1  0
  1 37  1  0
  1 38  1  0
  4 39  1  0
  5 40  1  0
  8 41  1  0
 11 42  1  0
 12 43  1  0
 15 44  1  0
 16 45  1  0
 19 46  1  0
 19 47  1  0
 22 48  1  0
 24 49  1  0
 25 50  1  0
 26 51  1  0
 32 52  1  0
 34 53  1  0
 35 54  1  0
M  END
>  <UniqueID>  (32) 
6

>  <SMILES>  (32) 
CSc1ccc(-c2nc(SCC(=O)Nc3cccc(C(F)(F)F)c3)c(-c3ccc(F)cc3)[nH]2)cc1

>  <Energy>  (32) 
84.54676735977169

>  <Genealogy>  (32) 
CSc1ccc(-c2nc(SCC(=O)Nc3cccc(C(F)(F)F)c3)c(-c3ccc(F)cc3)[nH]2)cc1 (tautomer)
CSc1ccc(-c2nc(SCC(=O)Nc3cccc(C(F)(F)F)c3)c(-c3ccc(F)cc3)[nH]2)cc1 (3D coordinates assigned)
CSc1ccc(-c2nc(SCC(=O)Nc3cccc(C(F)(F)F)c3)c(-c3ccc(F)cc3)[nH]2)cc1 (optimized conformer: 84.54676735977169 kcal/mol)

>  <smiles>  (32) 
CSc1ccc(-c2nc(-c3ccc(F)cc3)c(SCC(=O)Nc3cccc(C(F)(F)F)c3)[nH]2)cc1

>  <score_type>  (32) 
oracle

>  <origin>  (32) 
autodockgpu

>  <m_score__min__energy>  (32) 
-8.5299999999999994

>  <m_primary>  (32) 
energy

>  <meeko>  (32) 
{"free_energy": -8.25, "intermolecular_energy": -10.64, "internal_energy": -2.34, "cluster_size": 14, "cluster_id": 2, "rank_in_cluster": 2}

>  <energy>  (32) 
-8.01

>  <cluster_rmsd>  (32) 
0.69

>  <rmsd>  (32) 
269.81

>  <cluster>  (32) 
2

$$$$
HBUNGMSMUROVMB-PUXXYCQMNA-N
     RDKit          3D

 54 57  0  0  0  0  0  0  0  0999 V2000
  136.5400   80.7640  224.4840 C   0  0  0  0  0  0  0  0  0  0  0  0
  138.2950   81.2450  224.5480 S   0  0  0  0  0  0  0  0  0  0  0  0
  138.8610   79.7610  223.7100 C   0  0  0  0  0  0  0  0  0  0  0  0
  140.2210   79.4500  223.6790 C   0  0  0  0  0  0  0  0  0  0  0  0
  140.6630   78.2860  223.0450 C   0  0  0  0  0  0  0  0  0  0  0  0
  139.7450   77.4120  222.4340 C   0  0  0  0  0  0  0  0  0  0  0  0
  140.1910   76.1640  221.7630 C   0  0  0  0  0  0  0  0  0  0  0  0
  141.4380   75.9500  221.2910 N   0  0  0  0  0  0  0  0  0  0  0  0
  141.4200   74.7130  220.7640 C   0  0  0  0  0  0  0  0  0  0  0  0
  142.6040   74.0630  220.1510 C   0  0  0  0  0  0  0  0  0  0  0  0
  143.8370   74.0720  220.8290 C   0  0  0  0  0  0  0  0  0  0  0  0
  144.9540   73.4390  220.2760 C   0  0  0  0  0  0  0  0  0  0  0  0
  144.8570   72.7930  219.0430 C   0  0  0  0  0  0  0  0  0  0  0  0
  145.9440   72.1880  218.5050 F   0  0  0  0  0  0  0  0  0  0  0  0
  143.6330   72.7620  218.3680 C   0  0  0  0  0  0  0  0  0  0  0  0
  142.5090   73.3820  218.9230 C   0  0  0  0  0  0  0  0  0  0  0  0
  140.1420   74.2050  220.9230 C   0  0  0  0  0  0  0  0  0  0  0  0
  139.5090   72.6320  220.3300 S   0  0  0  0  0  0  0  0  0  0  0  0
  140.7980   71.6180  221.1300 C   0  0  0  0  0  0  0  0  0  0  0  0
  140.5940   71.5500  222.6120 C   0  0  0  0  0  0  0  0  0  0  0  0
  140.6730   72.6060  223.2910 O   0  0  0  0  0  0  0  0  0  0  0  0
  140.2910   70.2910  223.2390 N   0  0  0  0  0  0  0  0  0  0  0  0
  140.0580   70.1190  224.6480 C   0  0  0  0  0  0  0  0  0  0  0  0
  139.4280   68.9480  225.0940 C   0  0  0  0  0  0  0  0  0  0  0  0
  139.2160   68.7330  226.4560 C   0  0  0  0  0  0  0  0  0  0  0  0
  139.6350   69.6840  227.3880 C   0  0  0  0  0  0  0  0  0  0  0  0
  140.2750   70.8580  226.9650 C   0  0  0  0  0  0  0  0  0  0  0  0
  140.8110   71.8290  227.9910 C   0  0  0  0  0  0  0  0  0  0  0  0
  141.3440   72.9320  227.3340 F   0  0  0  0  0  0  0  0  0  0  0  0
  139.8080   72.2530  228.8470 F   0  0  0  0  0  0  0  0  0  0  0  0
  141.8090   71.2330  228.7510 F   0  0  0  0  0  0  0  0  0  0  0  0
  140.5020   71.0620  225.5910 C   0  0  0  0  0  0  0  0  0  0  0  0
  139.3700   75.1120  221.5510 N   0  0  0  0  0  0  0  0  0  0  0  0
  138.3780   77.7370  222.4730 C   0  0  0  0  0  0  0  0  0  0  0  0
  137.9410   78.9020  223.1070 C   0  0  0  0  0  0  0  0  0  0  0  0
  136.1514   80.6575  225.5076 H   0  0  0  0  0  0  0  0  0  0  0  0
  135.9668   81.5382  223.9529 H   0  0  0  0  0  0  0  0  0  0  0  0
  136.4416   79.8058  223.9529 H   0  0  0  0  0  0  0  0  0  0  0  0
  140.9480   80.1240  224.1556 H   0  0  0  0  0  0  0  0  0  0  0  0
  141.7374   78.0510  223.0233 H   0  0  0  0  0  0  0  0  0  0  0  0
  142.2600   76.5910  221.3320 H   0  0  0  0  0  0  0  0  0  0  0  0
  143.9225   74.5805  221.8006 H   0  0  0  0  0  0  0  0  0  0  0  0
  145.9129   73.4502  220.8148 H   0  0  0  0  0  0  0  0  0  0  0  0
  143.5539   72.2488  217.3983 H   0  0  0  0  0  0  0  0  0  0  0  0
  141.5443   73.3371  218.3963 H   0  0  0  0  0  0  0  0  0  0  0  0
  140.7612   70.5995  220.7160 H   0  0  0  0  0  0  0  0  0  0  0  0
  141.7761   72.0820  220.9348 H   0  0  0  0  0  0  0  0  0  0  0  0
  140.0960   69.4780  222.6160 H   0  0  0  0  0  0  0  0  0  0  0  0
  139.0986   68.1935  224.3645 H   0  0  0  0  0  0  0  0  0  0  0  0
  138.7181   67.8129  226.7959 H   0  0  0  0  0  0  0  0  0  0  0  0
  139.4622   69.5115  228.4606 H   0  0  0  0  0  0  0  0  0  0  0  0
  141.0305   71.9655  225.2529 H   0  0  0  0  0  0  0  0  0  0  0  0
  137.6453   77.0671  221.9995 H   0  0  0  0  0  0  0  0  0  0  0  0
  136.8681   79.1434  223.1312 H   0  0  0  0  0  0  0  0  0  0  0  0
  1  2  1  0
  2  3  1  0
  3  4  2  0
  4  5  1  0
  5  6  2  0
  6  7  1  0
  7  8  1  0
  8  9  1  0
  9 10  1  0
 10 11  2  0
 11 12  1  0
 12 13  2  0
 13 14  1  0
 13 15  1  0
 15 16  2  0
  9 17  2  0
 17 18  1  0
 18 19  1  0
 19 20  1  0
 20 21  2  0
 20 22  1  0
 22 23  1  0
 23 24  2  0
 24 25  1  0
 25 26  2  0
 26 27  1  0
 27 28  1  0
 28 29  1  0
 28 30  1  0
 28 31  1  0
 27 32  2  0
 17 33  1  0
  6 34  1  0
 34 35  2  0
 35  3  1  0
 33  7  2  0
 16 10  1  0
 32 23  1  0
  1 36  1  0
  1 37  1  0
  1 38  1  0
  4 39  1  0
  5 40  1  0
  8 41  1  0
 11 42  1  0
 12 43  1  0
 15 44  1  0
 16 45  1  0
 19 46  1  0
 19 47  1  0
 22 48  1  0
 24 49  1  0
 25 50  1  0
 26 51  1  0
 32 52  1  0
 34 53  1  0
 35 54  1  0
M  END
>  <UniqueID>  (33) 
6

>  <SMILES>  (33) 
CSc1ccc(-c2nc(SCC(=O)Nc3cccc(C(F)(F)F)c3)c(-c3ccc(F)cc3)[nH]2)cc1

>  <Energy>  (33) 
84.54676735977169

>  <Genealogy>  (33) 
CSc1ccc(-c2nc(SCC(=O)Nc3cccc(C(F)(F)F)c3)c(-c3ccc(F)cc3)[nH]2)cc1 (tautomer)
CSc1ccc(-c2nc(SCC(=O)Nc3cccc(C(F)(F)F)c3)c(-c3ccc(F)cc3)[nH]2)cc1 (3D coordinates assigned)
CSc1ccc(-c2nc(SCC(=O)Nc3cccc(C(F)(F)F)c3)c(-c3ccc(F)cc3)[nH]2)cc1 (optimized conformer: 84.54676735977169 kcal/mol)

>  <smiles>  (33) 
CSc1ccc(-c2nc(-c3ccc(F)cc3)c(SCC(=O)Nc3cccc(C(F)(F)F)c3)[nH]2)cc1

>  <score_type>  (33) 
oracle

>  <origin>  (33) 
autodockgpu

>  <m_score__min__energy>  (33) 
-8.5299999999999994

>  <m_primary>  (33) 
energy

>  <meeko>  (33) 
{"free_energy": -8.53, "intermolecular_energy": -10.92, "internal_energy": -1.34, "cluster_size": 1, "cluster_id": 1, "rank_in_cluster": 1}

>  <energy>  (33) 
-7.9

>  <cluster_rmsd>  (33) 
1.65

>  <rmsd>  (33) 
269.76

>  <cluster>  (33) 
2

$$$$
HBUNGMSMUROVMB-PUXXYCQMNA-N
     RDKit          3D

 54 57  0  0  0  0  0  0  0  0999 V2000
  143.1520   83.9140  217.1100 C   0  0  0  0  0  0  0  0  0  0  0  0
  141.7080   83.8990  218.2200 S   0  0  0  0  0  0  0  0  0  0  0  0
  141.7760   82.1240  218.4870 C   0  0  0  0  0  0  0  0  0  0  0  0
  142.5430   81.3180  217.6440 C   0  0  0  0  0  0  0  0  0  0  0  0
  142.6130   79.9390  217.8610 C   0  0  0  0  0  0  0  0  0  0  0  0
  141.9160   79.3460  218.9300 C   0  0  0  0  0  0  0  0  0  0  0  0
  141.9840   77.8850  219.1850 C   0  0  0  0  0  0  0  0  0  0  0  0
  143.1270   77.1660  219.2270 N   0  0  0  0  0  0  0  0  0  0  0  0
  142.7500   75.9000  219.4790 C   0  0  0  0  0  0  0  0  0  0  0  0
  143.7020   74.7730  219.6310 C   0  0  0  0  0  0  0  0  0  0  0  0
  143.5300   73.6040  218.8670 C   0  0  0  0  0  0  0  0  0  0  0  0
  144.4360   72.5450  218.9790 C   0  0  0  0  0  0  0  0  0  0  0  0
  145.5190   72.6360  219.8540 C   0  0  0  0  0  0  0  0  0  0  0  0
  146.3900   71.6040  219.9660 F   0  0  0  0  0  0  0  0  0  0  0  0
  145.7100   73.7990  220.6050 C   0  0  0  0  0  0  0  0  0  0  0  0
  144.8150   74.8670  220.4870 C   0  0  0  0  0  0  0  0  0  0  0  0
  141.3680   75.8820  219.5760 C   0  0  0  0  0  0  0  0  0  0  0  0
  140.3080   74.4510  219.8110 S   0  0  0  0  0  0  0  0  0  0  0  0
  140.1930   74.6210  221.6240 C   0  0  0  0  0  0  0  0  0  0  0  0
  139.9690   76.0470  222.0230 C   0  0  0  0  0  0  0  0  0  0  0  0
  138.7930   76.4880  222.0940 O   0  0  0  0  0  0  0  0  0  0  0  0
  141.0920   76.8900  222.3390 N   0  0  0  0  0  0  0  0  0  0  0  0
  140.9870   78.2640  222.7510 C   0  0  0  0  0  0  0  0  0  0  0  0
  142.1500   79.0470  222.8030 C   0  0  0  0  0  0  0  0  0  0  0  0
  142.0810   80.3920  223.1670 C   0  0  0  0  0  0  0  0  0  0  0  0
  140.8490   80.9710  223.4770 C   0  0  0  0  0  0  0  0  0  0  0  0
  139.6730   80.2090  223.4220 C   0  0  0  0  0  0  0  0  0  0  0  0
  138.3380   80.8740  223.6640 C   0  0  0  0  0  0  0  0  0  0  0  0
  138.2520   81.2440  225.0000 F   0  0  0  0  0  0  0  0  0  0  0  0
  138.1930   82.0010  222.8720 F   0  0  0  0  0  0  0  0  0  0  0  0
  137.3000   80.0000  223.3710 F   0  0  0  0  0  0  0  0  0  0  0  0
  139.7460   78.8570  223.0380 C   0  0  0  0  0  0  0  0  0  0  0  0
  140.8860   77.1250  219.3940 N   0  0  0  0  0  0  0  0  0  0  0  0
  141.1480   80.1700  219.7710 C   0  0  0  0  0  0  0  0  0  0  0  0
  141.0800   81.5480  219.5500 C   0  0  0  0  0  0  0  0  0  0  0  0
  144.0747   83.9236  217.7088 H   0  0  0  0  0  0  0  0  0  0  0  0
  143.1360   83.0156  216.4754 H   0  0  0  0  0  0  0  0  0  0  0  0
  143.1174   84.8118  216.4754 H   0  0  0  0  0  0  0  0  0  0  0  0
  143.0942   81.7697  216.8060 H   0  0  0  0  0  0  0  0  0  0  0  0
  143.2183   79.3117  217.1902 H   0  0  0  0  0  0  0  0  0  0  0  0
  144.1050   77.5050  219.1060 H   0  0  0  0  0  0  0  0  0  0  0  0
  142.6771   73.5227  218.1771 H   0  0  0  0  0  0  0  0  0  0  0  0
  144.2945   71.6366  218.3750 H   0  0  0  0  0  0  0  0  0  0  0  0
  146.5667   73.8745  221.2908 H   0  0  0  0  0  0  0  0  0  0  0  0
  144.9821   75.7866  221.0671 H   0  0  0  0  0  0  0  0  0  0  0  0
  139.3537   74.0107  221.9887 H   0  0  0  0  0  0  0  0  0  0  0  0
  141.1415   74.2814  222.0657 H   0  0  0  0  0  0  0  0  0  0  0  0
  142.0290   76.4380  222.4030 H   0  0  0  0  0  0  0  0  0  0  0  0
  143.1228   78.5974  222.5551 H   0  0  0  0  0  0  0  0  0  0  0  0
  142.9986   80.9972  223.2098 H   0  0  0  0  0  0  0  0  0  0  0  0
  140.8005   82.0312  223.7661 H   0  0  0  0  0  0  0  0  0  0  0  0
  138.8250   78.2604  222.9620 H   0  0  0  0  0  0  0  0  0  0  0  0
  140.5950   79.7255  220.6116 H   0  0  0  0  0  0  0  0  0  0  0  0
  140.4756   82.1808  220.2165 H   0  0  0  0  0  0  0  0  0  0  0  0
  1  2  1  0
  2  3  1  0
  3  4  2  0
  4  5  1  0
  5  6  2  0
  6  7  1  0
  7  8  1  0
  8  9  1  0
  9 10  1  0
 10 11  2  0
 11 12  1  0
 12 13  2  0
 13 14  1  0
 13 15  1  0
 15 16  2  0
  9 17  2  0
 17 18  1  0
 18 19  1  0
 19 20  1  0
 20 21  2  0
 20 22  1  0
 22 23  1  0
 23 24  2  0
 24 25  1  0
 25 26  2  0
 26 27  1  0
 27 28  1  0
 28 29  1  0
 28 30  1  0
 28 31  1  0
 27 32  2  0
 17 33  1  0
  6 34  1  0
 34 35  2  0
 35  3  1  0
 33  7  2  0
 16 10  1  0
 32 23  1  0
  1 36  1  0
  1 37  1  0
  1 38  1  0
  4 39  1  0
  5 40  1  0
  8 41  1  0
 11 42  1  0
 12 43  1  0
 15 44  1  0
 16 45  1  0
 19 46  1  0
 19 47  1  0
 22 48  1  0
 24 49  1  0
 25 50  1  0
 26 51  1  0
 32 52  1  0
 34 53  1  0
 35 54  1  0
M  END
>  <UniqueID>  (34) 
6

>  <SMILES>  (34) 
CSc1ccc(-c2nc(SCC(=O)Nc3cccc(C(F)(F)F)c3)c(-c3ccc(F)cc3)[nH]2)cc1

>  <Energy>  (34) 
84.54676735977169

>  <Genealogy>  (34) 
CSc1ccc(-c2nc(SCC(=O)Nc3cccc(C(F)(F)F)c3)c(-c3ccc(F)cc3)[nH]2)cc1 (tautomer)
CSc1ccc(-c2nc(SCC(=O)Nc3cccc(C(F)(F)F)c3)c(-c3ccc(F)cc3)[nH]2)cc1 (3D coordinates assigned)
CSc1ccc(-c2nc(SCC(=O)Nc3cccc(C(F)(F)F)c3)c(-c3ccc(F)cc3)[nH]2)cc1 (optimized conformer: 84.54676735977169 kcal/mol)

>  <smiles>  (34) 
CSc1ccc(-c2nc(-c3ccc(F)cc3)c(SCC(=O)Nc3cccc(C(F)(F)F)c3)[nH]2)cc1

>  <score_type>  (34) 
oracle

>  <origin>  (34) 
autodockgpu

>  <m_score__min__energy>  (34) 
-8.5299999999999994

>  <m_primary>  (34) 
energy

>  <meeko>  (34) 
{"free_energy": -8.2, "intermolecular_energy": -10.59, "internal_energy": -2.35, "cluster_size": 14, "cluster_id": 2, "rank_in_cluster": 3}

>  <energy>  (34) 
-6.8

>  <cluster_rmsd>  (34) 
1.41

>  <rmsd>  (34) 
269.42

>  <cluster>  (34) 
2

$$$$
HBUNGMSMUROVMB-PUXXYCQMNA-N
     RDKit          3D

 54 57  0  0  0  0  0  0  0  0999 V2000
  143.3550   80.2160  223.1110 C   0  0  0  0  0  0  0  0  0  0  0  0
  141.8240   81.1990  223.0180 S   0  0  0  0  0  0  0  0  0  0  0  0
  140.7610   79.7590  222.8830 C   0  0  0  0  0  0  0  0  0  0  0  0
  141.3010   78.5180  222.5410 C   0  0  0  0  0  0  0  0  0  0  0  0
  140.4790   77.3910  222.4540 C   0  0  0  0  0  0  0  0  0  0  0  0
  139.0990   77.4910  222.7130 C   0  0  0  0  0  0  0  0  0  0  0  0
  138.2080   76.3050  222.6370 C   0  0  0  0  0  0  0  0  0  0  0  0
  137.0450   76.1740  223.3110 N   0  0  0  0  0  0  0  0  0  0  0  0
  136.5590   74.9690  222.9660 C   0  0  0  0  0  0  0  0  0  0  0  0
  135.2730   74.4270  223.4660 C   0  0  0  0  0  0  0  0  0  0  0  0
  135.0660   74.2790  224.8500 C   0  0  0  0  0  0  0  0  0  0  0  0
  133.8480   73.7960  225.3370 C   0  0  0  0  0  0  0  0  0  0  0  0
  132.8240   73.4530  224.4530 C   0  0  0  0  0  0  0  0  0  0  0  0
  131.6470   72.9770  224.9280 F   0  0  0  0  0  0  0  0  0  0  0  0
  133.0110   73.6110  223.0770 C   0  0  0  0  0  0  0  0  0  0  0  0
  134.2230   74.1070  222.5850 C   0  0  0  0  0  0  0  0  0  0  0  0
  137.4570   74.3870  222.0860 C   0  0  0  0  0  0  0  0  0  0  0  0
  137.3740   72.7430  221.3680 S   0  0  0  0  0  0  0  0  0  0  0  0
  139.1810   72.4980  221.2950 C   0  0  0  0  0  0  0  0  0  0  0  0
  139.7220   72.0490  222.6170 C   0  0  0  0  0  0  0  0  0  0  0  0
  140.7110   72.6480  223.1120 O   0  0  0  0  0  0  0  0  0  0  0  0
  139.0970   70.9560  223.3160 N   0  0  0  0  0  0  0  0  0  0  0  0
  139.5240   70.4600  224.5960 C   0  0  0  0  0  0  0  0  0  0  0  0
  139.5460   69.0740  224.8150 C   0  0  0  0  0  0  0  0  0  0  0  0
  139.9850   68.5560  226.0330 C   0  0  0  0  0  0  0  0  0  0  0  0
  140.4120   69.4170  227.0460 C   0  0  0  0  0  0  0  0  0  0  0  0
  140.4070   70.8050  226.8470 C   0  0  0  0  0  0  0  0  0  0  0  0
  140.9640   71.7170  227.9140 C   0  0  0  0  0  0  0  0  0  0  0  0
  141.6860   72.7370  227.3070 F   0  0  0  0  0  0  0  0  0  0  0  0
  139.9480   72.2720  228.6750 F   0  0  0  0  0  0  0  0  0  0  0  0
  141.8080   71.0130  228.7630 F   0  0  0  0  0  0  0  0  0  0  0  0
  139.9790   71.3220  225.6100 C   0  0  0  0  0  0  0  0  0  0  0  0
  138.4900   75.2240  221.8760 N   0  0  0  0  0  0  0  0  0  0  0  0
  138.5680   78.7460  223.0570 C   0  0  0  0  0  0  0  0  0  0  0  0
  139.3940   79.8700  223.1410 C   0  0  0  0  0  0  0  0  0  0  0  0
  143.6186   80.0468  224.1654 H   0  0  0  0  0  0  0  0  0  0  0  0
  143.2002   79.2481  222.6118 H   0  0  0  0  0  0  0  0  0  0  0  0
  144.1707   80.7596  222.6118 H   0  0  0  0  0  0  0  0  0  0  0  0
  142.3784   78.4267  222.3391 H   0  0  0  0  0  0  0  0  0  0  0  0
  140.9139   76.4182  222.1810 H   0  0  0  0  0  0  0  0  0  0  0  0
  136.5950   76.8590  223.9560 H   0  0  0  0  0  0  0  0  0  0  0  0
  135.8684   74.5453  225.5537 H   0  0  0  0  0  0  0  0  0  0  0  0
  133.6961   73.6859  226.4209 H   0  0  0  0  0  0  0  0  0  0  0  0
  132.2033   73.3447  222.3793 H   0  0  0  0  0  0  0  0  0  0  0  0
  134.3563   74.2479  221.5022 H   0  0  0  0  0  0  0  0  0  0  0  0
  139.4089   71.7347  220.5364 H   0  0  0  0  0  0  0  0  0  0  0  0
  139.6517   73.4575  221.0346 H   0  0  0  0  0  0  0  0  0  0  0  0
  138.1990   70.5910  222.9330 H   0  0  0  0  0  0  0  0  0  0  0  0
  139.2143   68.3907  224.0194 H   0  0  0  0  0  0  0  0  0  0  0  0
  139.9949   67.4682  226.1959 H   0  0  0  0  0  0  0  0  0  0  0  0
  140.7545   69.0038  228.0062 H   0  0  0  0  0  0  0  0  0  0  0  0
  140.0005   72.4078  225.4350 H   0  0  0  0  0  0  0  0  0  0  0  0
  137.4918   78.8444  223.2621 H   0  0  0  0  0  0  0  0  0  0  0  0
  138.9650   80.8461  223.4116 H   0  0  0  0  0  0  0  0  0  0  0  0
  1  2  1  0
  2  3  1  0
  3  4  2  0
  4  5  1  0
  5  6  2  0
  6  7  1  0
  7  8  1  0
  8  9  1  0
  9 10  1  0
 10 11  2  0
 11 12  1  0
 12 13  2  0
 13 14  1  0
 13 15  1  0
 15 16  2  0
  9 17  2  0
 17 18  1  0
 18 19  1  0
 19 20  1  0
 20 21  2  0
 20 22  1  0
 22 23  1  0
 23 24  2  0
 24 25  1  0
 25 26  2  0
 26 27  1  0
 27 28  1  0
 28 29  1  0
 28 30  1  0
 28 31  1  0
 27 32  2  0
 17 33  1  0
  6 34  1  0
 34 35  2  0
 35  3  1  0
 33  7  2  0
 16 10  1  0
 32 23  1  0
  1 36  1  0
  1 37  1  0
  1 38  1  0
  4 39  1  0
  5 40  1  0
  8 41  1  0
 11 42  1  0
 12 43  1  0
 15 44  1  0
 16 45  1  0
 19 46  1  0
 19 47  1  0
 22 48  1  0
 24 49  1  0
 25 50  1  0
 26 51  1  0
 32 52  1  0
 34 53  1  0
 35 54  1  0
M  END
>  <UniqueID>  (35) 
6

>  <SMILES>  (35) 
CSc1ccc(-c2nc(SCC(=O)Nc3cccc(C(F)(F)F)c3)c(-c3ccc(F)cc3)[nH]2)cc1

>  <Energy>  (35) 
84.54676735977169

>  <Genealogy>  (35) 
CSc1ccc(-c2nc(SCC(=O)Nc3cccc(C(F)(F)F)c3)c(-c3ccc(F)cc3)[nH]2)cc1 (tautomer)
CSc1ccc(-c2nc(SCC(=O)Nc3cccc(C(F)(F)F)c3)c(-c3ccc(F)cc3)[nH]2)cc1 (3D coordinates assigned)
CSc1ccc(-c2nc(SCC(=O)Nc3cccc(C(F)(F)F)c3)c(-c3ccc(F)cc3)[nH]2)cc1 (optimized conformer: 84.54676735977169 kcal/mol)

>  <smiles>  (35) 
CSc1ccc(-c2nc(-c3ccc(F)cc3)c(SCC(=O)Nc3cccc(C(F)(F)F)c3)[nH]2)cc1

>  <score_type>  (35) 
oracle

>  <origin>  (35) 
autodockgpu

>  <m_score__min__energy>  (35) 
-8.5299999999999994

>  <m_primary>  (35) 
energy

>  <meeko>  (35) 
{"free_energy": -7.8, "intermolecular_energy": -10.19, "internal_energy": -1.53, "cluster_size": 1, "cluster_id": 4, "rank_in_cluster": 1}

>  <energy>  (35) 
-6.64

>  <cluster_rmsd>  (35) 
1.83

>  <rmsd>  (35) 
269.37

>  <cluster>  (35) 
2

$$$$
HBUNGMSMUROVMB-PUXXYCQMNA-N
     RDKit          3D

 54 57  0  0  0  0  0  0  0  0999 V2000
  143.6310   82.9350  216.7250 C   0  0  0  0  0  0  0  0  0  0  0  0
  141.8520   82.5560  216.6400 S   0  0  0  0  0  0  0  0  0  0  0  0
  142.0360   80.9320  217.3840 C   0  0  0  0  0  0  0  0  0  0  0  0
  142.2070   79.8070  216.5770 C   0  0  0  0  0  0  0  0  0  0  0  0
  142.3700   78.5440  217.1530 C   0  0  0  0  0  0  0  0  0  0  0  0
  142.3680   78.3910  218.5520 C   0  0  0  0  0  0  0  0  0  0  0  0
  142.5500   77.0600  219.1860 C   0  0  0  0  0  0  0  0  0  0  0  0
  143.5550   76.2050  218.9000 N   0  0  0  0  0  0  0  0  0  0  0  0
  143.3520   75.1310  219.6840 C   0  0  0  0  0  0  0  0  0  0  0  0
  144.2470   73.9480  219.7070 C   0  0  0  0  0  0  0  0  0  0  0  0
  144.0710   72.9200  218.7630 C   0  0  0  0  0  0  0  0  0  0  0  0
  144.9250   71.8120  218.7550 C   0  0  0  0  0  0  0  0  0  0  0  0
  145.9590   71.7150  219.6870 C   0  0  0  0  0  0  0  0  0  0  0  0
  146.7790   70.6360  219.6820 F   0  0  0  0  0  0  0  0  0  0  0  0
  146.1540   72.7390  220.6180 C   0  0  0  0  0  0  0  0  0  0  0  0
  145.3120   73.8550  220.6220 C   0  0  0  0  0  0  0  0  0  0  0  0
  142.2070   75.3620  220.4280 C   0  0  0  0  0  0  0  0  0  0  0  0
  141.4040   74.2370  221.5760 S   0  0  0  0  0  0  0  0  0  0  0  0
  139.7210   74.8840  221.2980 C   0  0  0  0  0  0  0  0  0  0  0  0
  139.5780   76.2740  221.8350 C   0  0  0  0  0  0  0  0  0  0  0  0
  138.4370   76.8030  221.8740 O   0  0  0  0  0  0  0  0  0  0  0  0
  140.7360   76.9820  222.3160 N   0  0  0  0  0  0  0  0  0  0  0  0
  140.7060   78.3090  222.8680 C   0  0  0  0  0  0  0  0  0  0  0  0
  141.9100   79.0160  223.0020 C   0  0  0  0  0  0  0  0  0  0  0  0
  141.9150   80.3180  223.5020 C   0  0  0  0  0  0  0  0  0  0  0  0
  140.7160   80.9300  223.8710 C   0  0  0  0  0  0  0  0  0  0  0  0
  139.4990   80.2460  223.7380 C   0  0  0  0  0  0  0  0  0  0  0  0
  138.2030   80.9560  224.0480 C   0  0  0  0  0  0  0  0  0  0  0  0
  137.1450   80.0790  223.8400 F   0  0  0  0  0  0  0  0  0  0  0  0
  138.1760   81.3940  225.3610 F   0  0  0  0  0  0  0  0  0  0  0  0
  138.0420   82.0580  223.2180 F   0  0  0  0  0  0  0  0  0  0  0  0
  139.4980   78.9390  223.2160 C   0  0  0  0  0  0  0  0  0  0  0  0
  141.7040   76.5710  220.1200 N   0  0  0  0  0  0  0  0  0  0  0  0
  142.1970   79.5320  219.3540 C   0  0  0  0  0  0  0  0  0  0  0  0
  142.0330   80.7920  218.7730 C   0  0  0  0  0  0  0  0  0  0  0  0
  143.9419   83.0012  217.7781 H   0  0  0  0  0  0  0  0  0  0  0  0
  144.2000   82.1379  216.2241 H   0  0  0  0  0  0  0  0  0  0  0  0
  143.8258   83.8948  216.2241 H   0  0  0  0  0  0  0  0  0  0  0  0
  142.2136   79.9144  215.4823 H   0  0  0  0  0  0  0  0  0  0  0  0
  142.5009   77.6627  216.5078 H   0  0  0  0  0  0  0  0  0  0  0  0
  144.3410   76.3380  218.2280 H   0  0  0  0  0  0  0  0  0  0  0  0
  143.2568   72.9878  218.0265 H   0  0  0  0  0  0  0  0  0  0  0  0
  144.7809   71.0144  218.0114 H   0  0  0  0  0  0  0  0  0  0  0  0
  146.9722   72.6666  221.3496 H   0  0  0  0  0  0  0  0  0  0  0  0
  145.4832   74.6659  221.3453 H   0  0  0  0  0  0  0  0  0  0  0  0
  139.5148   74.8941  220.2176 H   0  0  0  0  0  0  0  0  0  0  0  0
  139.0071   74.2330  221.8239 H   0  0  0  0  0  0  0  0  0  0  0  0
  141.6280   76.4480  222.3940 H   0  0  0  0  0  0  0  0  0  0  0  0
  142.8578   78.5398  222.7104 H   0  0  0  0  0  0  0  0  0  0  0  0
  142.8648   80.8631  223.6056 H   0  0  0  0  0  0  0  0  0  0  0  0
  140.7258   81.9555  224.2687 H   0  0  0  0  0  0  0  0  0  0  0  0
  138.5453   78.4064  223.0793 H   0  0  0  0  0  0  0  0  0  0  0  0
  142.1922   79.4323  220.4495 H   0  0  0  0  0  0  0  0  0  0  0  0
  141.9010   81.6772  219.4125 H   0  0  0  0  0  0  0  0  0  0  0  0
  1  2  1  0
  2  3  1  0
  3  4  2  0
  4  5  1  0
  5  6  2  0
  6  7  1  0
  7  8  1  0
  8  9  1  0
  9 10  1  0
 10 11  2  0
 11 12  1  0
 12 13  2  0
 13 14  1  0
 13 15  1  0
 15 16  2  0
  9 17  2  0
 17 18  1  0
 18 19  1  0
 19 20  1  0
 20 21  2  0
 20 22  1  0
 22 23  1  0
 23 24  2  0
 24 25  1  0
 25 26  2  0
 26 27  1  0
 27 28  1  0
 28 29  1  0
 28 30  1  0
 28 31  1  0
 27 32  2  0
 17 33  1  0
  6 34  1  0
 34 35  2  0
 35  3  1  0
 33  7  2  0
 16 10  1  0
 32 23  1  0
  1 36  1  0
  1 37  1  0
  1 38  1  0
  4 39  1  0
  5 40  1  0
  8 41  1  0
 11 42  1  0
 12 43  1  0
 15 44  1  0
 16 45  1  0
 19 46  1  0
 19 47  1  0
 22 48  1  0
 24 49  1  0
 25 50  1  0
 26 51  1  0
 32 52  1  0
 34 53  1  0
 35 54  1  0
M  END
>  <UniqueID>  (36) 
6

>  <SMILES>  (36) 
CSc1ccc(-c2nc(SCC(=O)Nc3cccc(C(F)(F)F)c3)c(-c3ccc(F)cc3)[nH]2)cc1

>  <Energy>  (36) 
84.54676735977169

>  <Genealogy>  (36) 
CSc1ccc(-c2nc(SCC(=O)Nc3cccc(C(F)(F)F)c3)c(-c3ccc(F)cc3)[nH]2)cc1 (tautomer)
CSc1ccc(-c2nc(SCC(=O)Nc3cccc(C(F)(F)F)c3)c(-c3ccc(F)cc3)[nH]2)cc1 (3D coordinates assigned)
CSc1ccc(-c2nc(SCC(=O)Nc3cccc(C(F)(F)F)c3)c(-c3ccc(F)cc3)[nH]2)cc1 (optimized conformer: 84.54676735977169 kcal/mol)

>  <smiles>  (36) 
CSc1ccc(-c2nc(-c3ccc(F)cc3)c(SCC(=O)Nc3cccc(C(F)(F)F)c3)[nH]2)cc1

>  <score_type>  (36) 
oracle

>  <origin>  (36) 
autodockgpu

>  <m_score__min__energy>  (36) 
-8.5299999999999994

>  <m_primary>  (36) 
energy

>  <meeko>  (36) 
{"free_energy": -8.14, "intermolecular_energy": -10.52, "internal_energy": -1.82, "cluster_size": 14, "cluster_id": 2, "rank_in_cluster": 7}

>  <energy>  (36) 
-7.83

>  <cluster_rmsd>  (36) 
0.0

>  <rmsd>  (36) 
269.88

>  <cluster>  (36) 
3

$$$$
HBUNGMSMUROVMB-PUXXYCQMNA-N
     RDKit          3D

 54 57  0  0  0  0  0  0  0  0999 V2000
  143.0960   83.9150  217.0380 C   0  0  0  0  0  0  0  0  0  0  0  0
  141.6920   83.8990  218.1970 S   0  0  0  0  0  0  0  0  0  0  0  0
  141.7710   82.1250  218.4620 C   0  0  0  0  0  0  0  0  0  0  0  0
  142.5280   81.3220  217.6080 C   0  0  0  0  0  0  0  0  0  0  0  0
  142.6070   79.9430  217.8230 C   0  0  0  0  0  0  0  0  0  0  0  0
  141.9300   79.3470  218.9030 C   0  0  0  0  0  0  0  0  0  0  0  0
  142.0080   77.8860  219.1570 C   0  0  0  0  0  0  0  0  0  0  0  0
  143.1530   77.1690  219.1680 N   0  0  0  0  0  0  0  0  0  0  0  0
  142.7860   75.9030  219.4310 C   0  0  0  0  0  0  0  0  0  0  0  0
  143.7440   74.7780  219.5570 C   0  0  0  0  0  0  0  0  0  0  0  0
  144.8070   74.8640  220.4760 C   0  0  0  0  0  0  0  0  0  0  0  0
  145.7020   73.8000  220.6250 C   0  0  0  0  0  0  0  0  0  0  0  0
  145.5510   72.6420  219.8610 C   0  0  0  0  0  0  0  0  0  0  0  0
  146.4250   71.6160  220.0030 F   0  0  0  0  0  0  0  0  0  0  0  0
  144.4890   72.5380  218.9590 C   0  0  0  0  0  0  0  0  0  0  0  0
  143.5830   73.5940  218.8140 C   0  0  0  0  0  0  0  0  0  0  0  0
  141.4080   75.8820  219.5660 C   0  0  0  0  0  0  0  0  0  0  0  0
  140.3570   74.4490  219.8310 S   0  0  0  0  0  0  0  0  0  0  0  0
  140.3090   74.6070  221.6480 C   0  0  0  0  0  0  0  0  0  0  0  0
  140.0770   76.0270  222.0630 C   0  0  0  0  0  0  0  0  0  0  0  0
  138.8980   76.4360  222.2200 O   0  0  0  0  0  0  0  0  0  0  0  0
  141.1970   76.9000  222.2970 N   0  0  0  0  0  0  0  0  0  0  0  0
  141.0860   78.2710  222.7170 C   0  0  0  0  0  0  0  0  0  0  0  0
  142.2490   79.0500  222.8060 C   0  0  0  0  0  0  0  0  0  0  0  0
  142.1750   80.3930  223.1780 C   0  0  0  0  0  0  0  0  0  0  0  0
  140.9380   80.9730  223.4600 C   0  0  0  0  0  0  0  0  0  0  0  0
  139.7610   80.2160  223.3690 C   0  0  0  0  0  0  0  0  0  0  0  0
  138.4220   80.8830  223.5820 C   0  0  0  0  0  0  0  0  0  0  0  0
  138.2820   81.1980  224.9280 F   0  0  0  0  0  0  0  0  0  0  0  0
  138.3200   82.0430  222.8320 F   0  0  0  0  0  0  0  0  0  0  0  0
  137.3900   80.0320  223.2090 F   0  0  0  0  0  0  0  0  0  0  0  0
  139.8390   78.8660  222.9770 C   0  0  0  0  0  0  0  0  0  0  0  0
  140.9180   77.1240  219.3970 N   0  0  0  0  0  0  0  0  0  0  0  0
  141.1710   80.1670  219.7570 C   0  0  0  0  0  0  0  0  0  0  0  0
  141.0940   81.5450  219.5370 C   0  0  0  0  0  0  0  0  0  0  0  0
  144.0389   83.9257  217.6044 H   0  0  0  0  0  0  0  0  0  0  0  0
  143.0589   83.0164  216.4047 H   0  0  0  0  0  0  0  0  0  0  0  0
  143.0384   84.8125  216.4047 H   0  0  0  0  0  0  0  0  0  0  0  0
  143.0648   81.7760  216.7620 H   0  0  0  0  0  0  0  0  0  0  0  0
  143.2036   79.3183  217.1419 H   0  0  0  0  0  0  0  0  0  0  0  0
  144.1270   77.5110  219.0210 H   0  0  0  0  0  0  0  0  0  0  0  0
  144.9344   75.7740  221.0807 H   0  0  0  0  0  0  0  0  0  0  0  0
  146.5282   73.8761  221.3472 H   0  0  0  0  0  0  0  0  0  0  0  0
  144.3650   71.6230  218.3611 H   0  0  0  0  0  0  0  0  0  0  0  0
  142.7393   73.4981  218.1147 H   0  0  0  0  0  0  0  0  0  0  0  0
  139.4945   73.9808  222.0411 H   0  0  0  0  0  0  0  0  0  0  0  0
  141.2789   74.2807  222.0514 H   0  0  0  0  0  0  0  0  0  0  0  0
  142.1480   76.4730  222.2920 H   0  0  0  0  0  0  0  0  0  0  0  0
  143.2267   78.5990  222.5809 H   0  0  0  0  0  0  0  0  0  0  0  0
  143.0930   80.9949  223.2489 H   0  0  0  0  0  0  0  0  0  0  0  0
  140.8855   82.0312  223.7557 H   0  0  0  0  0  0  0  0  0  0  0  0
  138.9184   78.2730  222.8735 H   0  0  0  0  0  0  0  0  0  0  0  0
  140.6331   79.7197  220.6059 H   0  0  0  0  0  0  0  0  0  0  0  0
  140.4978   82.1752  220.2132 H   0  0  0  0  0  0  0  0  0  0  0  0
  1  2  1  0
  2  3  1  0
  3  4  2  0
  4  5  1  0
  5  6  2  0
  6  7  1  0
  7  8  1  0
  8  9  1  0
  9 10  1  0
 10 11  2  0
 11 12  1  0
 12 13  2  0
 13 14  1  0
 13 15  1  0
 15 16  2  0
  9 17  2  0
 17 18  1  0
 18 19  1  0
 19 20  1  0
 20 21  2  0
 20 22  1  0
 22 23  1  0
 23 24  2  0
 24 25  1  0
 25 26  2  0
 26 27  1  0
 27 28  1  0
 28 29  1  0
 28 30  1  0
 28 31  1  0
 27 32  2  0
 17 33  1  0
  6 34  1  0
 34 35  2  0
 35  3  1  0
 33  7  2  0
 16 10  1  0
 32 23  1  0
  1 36  1  0
  1 37  1  0
  1 38  1  0
  4 39  1  0
  5 40  1  0
  8 41  1  0
 11 42  1  0
 12 43  1  0
 15 44  1  0
 16 45  1  0
 19 46  1  0
 19 47  1  0
 22 48  1  0
 24 49  1  0
 25 50  1  0
 26 51  1  0
 32 52  1  0
 34 53  1  0
 35 54  1  0
M  END
>  <UniqueID>  (37) 
6

>  <SMILES>  (37) 
CSc1ccc(-c2nc(SCC(=O)Nc3cccc(C(F)(F)F)c3)c(-c3ccc(F)cc3)[nH]2)cc1

>  <Energy>  (37) 
84.54676735977169

>  <Genealogy>  (37) 
CSc1ccc(-c2nc(SCC(=O)Nc3cccc(C(F)(F)F)c3)c(-c3ccc(F)cc3)[nH]2)cc1 (tautomer)
CSc1ccc(-c2nc(SCC(=O)Nc3cccc(C(F)(F)F)c3)c(-c3ccc(F)cc3)[nH]2)cc1 (3D coordinates assigned)
CSc1ccc(-c2nc(SCC(=O)Nc3cccc(C(F)(F)F)c3)c(-c3ccc(F)cc3)[nH]2)cc1 (optimized conformer: 84.54676735977169 kcal/mol)

>  <smiles>  (37) 
CSc1ccc(-c2nc(-c3ccc(F)cc3)c(SCC(=O)Nc3cccc(C(F)(F)F)c3)[nH]2)cc1

>  <score_type>  (37) 
oracle

>  <origin>  (37) 
autodockgpu

>  <m_score__min__energy>  (37) 
-8.5299999999999994

>  <m_primary>  (37) 
energy

>  <meeko>  (37) 
{"free_energy": -8.15, "intermolecular_energy": -10.54, "internal_energy": -2.36, "cluster_size": 14, "cluster_id": 2, "rank_in_cluster": 5}

>  <energy>  (37) 
-7.8

>  <cluster_rmsd>  (37) 
0.0

>  <rmsd>  (37) 
269.77

>  <cluster>  (37) 
4

$$$$
HBUNGMSMUROVMB-PUXXYCQMNA-N
     RDKit          3D

 54 57  0  0  0  0  0  0  0  0999 V2000
  143.2420   83.8880  217.0210 C   0  0  0  0  0  0  0  0  0  0  0  0
  141.8240   83.9090  218.1640 S   0  0  0  0  0  0  0  0  0  0  0  0
  141.8570   82.1340  218.4350 C   0  0  0  0  0  0  0  0  0  0  0  0
  142.5720   81.3070  217.5680 C   0  0  0  0  0  0  0  0  0  0  0  0
  142.6150   79.9270  217.7870 C   0  0  0  0  0  0  0  0  0  0  0  0
  141.9450   79.3550  218.8840 C   0  0  0  0  0  0  0  0  0  0  0  0
  141.9860   77.8930  219.1430 C   0  0  0  0  0  0  0  0  0  0  0  0
  143.1120   77.1480  219.1590 N   0  0  0  0  0  0  0  0  0  0  0  0
  142.7130   75.8920  219.4250 C   0  0  0  0  0  0  0  0  0  0  0  0
  143.6430   74.7440  219.5570 C   0  0  0  0  0  0  0  0  0  0  0  0
  143.4880   73.6200  218.7260 C   0  0  0  0  0  0  0  0  0  0  0  0
  144.3740   72.5420  218.8200 C   0  0  0  0  0  0  0  0  0  0  0  0
  145.4200   72.5710  219.7440 C   0  0  0  0  0  0  0  0  0  0  0  0
  146.2720   71.5210  219.8380 F   0  0  0  0  0  0  0  0  0  0  0  0
  145.5940   73.6900  220.5620 C   0  0  0  0  0  0  0  0  0  0  0  0
  144.7190   74.7760  220.4630 C   0  0  0  0  0  0  0  0  0  0  0  0
  141.3340   75.9060  219.5550 C   0  0  0  0  0  0  0  0  0  0  0  0
  140.2470   74.5010  219.8220 S   0  0  0  0  0  0  0  0  0  0  0  0
  140.3660   74.5360  221.6420 C   0  0  0  0  0  0  0  0  0  0  0  0
  140.1150   75.9120  222.1760 C   0  0  0  0  0  0  0  0  0  0  0  0
  138.9720   76.2000  222.6160 O   0  0  0  0  0  0  0  0  0  0  0  0
  141.1790   76.8810  222.1990 N   0  0  0  0  0  0  0  0  0  0  0  0
  141.0500   78.2190  222.7080 C   0  0  0  0  0  0  0  0  0  0  0  0
  142.2100   78.9790  222.9230 C   0  0  0  0  0  0  0  0  0  0  0  0
  142.1200   80.2920  223.3840 C   0  0  0  0  0  0  0  0  0  0  0  0
  140.8710   80.8640  223.6310 C   0  0  0  0  0  0  0  0  0  0  0  0
  139.6980   80.1260  223.4140 C   0  0  0  0  0  0  0  0  0  0  0  0
  138.3520   80.7900  223.5900 C   0  0  0  0  0  0  0  0  0  0  0  0
  138.3000   81.9260  222.7920 F   0  0  0  0  0  0  0  0  0  0  0  0
  137.3240   79.9350  223.2290 F   0  0  0  0  0  0  0  0  0  0  0  0
  138.1640   81.1620  224.9150 F   0  0  0  0  0  0  0  0  0  0  0  0
  139.7920   78.8070  222.9320 C   0  0  0  0  0  0  0  0  0  0  0  0
  140.8760   77.1600  219.3810 N   0  0  0  0  0  0  0  0  0  0  0  0
  141.2290   80.2000  219.7510 C   0  0  0  0  0  0  0  0  0  0  0  0
  141.1880   81.5790  219.5260 C   0  0  0  0  0  0  0  0  0  0  0  0
  144.1782   83.8741  217.5984 H   0  0  0  0  0  0  0  0  0  0  0  0
  143.1888   82.9905  216.3872 H   0  0  0  0  0  0  0  0  0  0  0  0
  143.2154   84.7866  216.3872 H   0  0  0  0  0  0  0  0  0  0  0  0
  143.1037   81.7424  216.7091 H   0  0  0  0  0  0  0  0  0  0  0  0
  143.1777   79.2826  217.0955 H   0  0  0  0  0  0  0  0  0  0  0  0
  144.0950   77.4650  219.0130 H   0  0  0  0  0  0  0  0  0  0  0  0
  142.6646   73.5886  217.9973 H   0  0  0  0  0  0  0  0  0  0  0  0
  144.2462   71.6685  218.1638 H   0  0  0  0  0  0  0  0  0  0  0  0
  146.4217   73.7168  221.2860 H   0  0  0  0  0  0  0  0  0  0  0  0
  144.8728   75.6612  221.0976 H   0  0  0  0  0  0  0  0  0  0  0  0
  139.6199   73.8462  222.0634 H   0  0  0  0  0  0  0  0  0  0  0  0
  141.3830   74.2315  221.9299 H   0  0  0  0  0  0  0  0  0  0  0  0
  142.1370   76.5470  221.9570 H   0  0  0  0  0  0  0  0  0  0  0  0
  143.1974   78.5358  222.7265 H   0  0  0  0  0  0  0  0  0  0  0  0
  143.0353   80.8782  223.5534 H   0  0  0  0  0  0  0  0  0  0  0  0
  140.8062   81.8990  223.9978 H   0  0  0  0  0  0  0  0  0  0  0  0
  138.8761   78.2325  222.7293 H   0  0  0  0  0  0  0  0  0  0  0  0
  140.6968   79.7721  220.6134 H   0  0  0  0  0  0  0  0  0  0  0  0
  140.6258   82.2293  220.2122 H   0  0  0  0  0  0  0  0  0  0  0  0
  1  2  1  0
  2  3  1  0
  3  4  2  0
  4  5  1  0
  5  6  2  0
  6  7  1  0
  7  8  1  0
  8  9  1  0
  9 10  1  0
 10 11  2  0
 11 12  1  0
 12 13  2  0
 13 14  1  0
 13 15  1  0
 15 16  2  0
  9 17  2  0
 17 18  1  0
 18 19  1  0
 19 20  1  0
 20 21  2  0
 20 22  1  0
 22 23  1  0
 23 24  2  0
 24 25  1  0
 25 26  2  0
 26 27  1  0
 27 28  1  0
 28 29  1  0
 28 30  1  0
 28 31  1  0
 27 32  2  0
 17 33  1  0
  6 34  1  0
 34 35  2  0
 35  3  1  0
 33  7  2  0
 16 10  1  0
 32 23  1  0
  1 36  1  0
  1 37  1  0
  1 38  1  0
  4 39  1  0
  5 40  1  0
  8 41  1  0
 11 42  1  0
 12 43  1  0
 15 44  1  0
 16 45  1  0
 19 46  1  0
 19 47  1  0
 22 48  1  0
 24 49  1  0
 25 50  1  0
 26 51  1  0
 32 52  1  0
 34 53  1  0
 35 54  1  0
M  END
>  <UniqueID>  (38) 
6

>  <SMILES>  (38) 
CSc1ccc(-c2nc(SCC(=O)Nc3cccc(C(F)(F)F)c3)c(-c3ccc(F)cc3)[nH]2)cc1

>  <Energy>  (38) 
84.54676735977169

>  <Genealogy>  (38) 
CSc1ccc(-c2nc(SCC(=O)Nc3cccc(C(F)(F)F)c3)c(-c3ccc(F)cc3)[nH]2)cc1 (tautomer)
CSc1ccc(-c2nc(SCC(=O)Nc3cccc(C(F)(F)F)c3)c(-c3ccc(F)cc3)[nH]2)cc1 (3D coordinates assigned)
CSc1ccc(-c2nc(SCC(=O)Nc3cccc(C(F)(F)F)c3)c(-c3ccc(F)cc3)[nH]2)cc1 (optimized conformer: 84.54676735977169 kcal/mol)

>  <smiles>  (38) 
CSc1ccc(-c2nc(-c3ccc(F)cc3)c(SCC(=O)Nc3cccc(C(F)(F)F)c3)[nH]2)cc1

>  <score_type>  (38) 
oracle

>  <origin>  (38) 
autodockgpu

>  <m_score__min__energy>  (38) 
-8.5299999999999994

>  <m_primary>  (38) 
energy

>  <meeko>  (38) 
{"free_energy": -8.14, "intermolecular_energy": -10.52, "internal_energy": -2.35, "cluster_size": 14, "cluster_id": 2, "rank_in_cluster": 6}

>  <energy>  (38) 
-7.34

>  <cluster_rmsd>  (38) 
0.0

>  <rmsd>  (38) 
269.3

>  <cluster>  (38) 
5

$$$$
HBUNGMSMUROVMB-PUXXYCQMNA-N
     RDKit          3D

 54 57  0  0  0  0  0  0  0  0999 V2000
  140.7090   83.6850  220.2400 C   0  0  0  0  0  0  0  0  0  0  0  0
  141.4180   83.4340  218.5820 S   0  0  0  0  0  0  0  0  0  0  0  0
  141.5840   81.6570  218.7860 C   0  0  0  0  0  0  0  0  0  0  0  0
  142.5800   80.9630  218.0980 C   0  0  0  0  0  0  0  0  0  0  0  0
  142.7240   79.5830  218.2690 C   0  0  0  0  0  0  0  0  0  0  0  0
  141.8720   78.8780  219.1390 C   0  0  0  0  0  0  0  0  0  0  0  0
  142.0130   77.4140  219.3440 C   0  0  0  0  0  0  0  0  0  0  0  0
  143.1920   76.7580  219.4090 N   0  0  0  0  0  0  0  0  0  0  0  0
  142.8780   75.4650  219.5990 C   0  0  0  0  0  0  0  0  0  0  0  0
  143.8860   74.3880  219.7520 C   0  0  0  0  0  0  0  0  0  0  0  0
  143.7900   73.2240  218.9670 C   0  0  0  0  0  0  0  0  0  0  0  0
  144.7490   72.2120  219.0800 C   0  0  0  0  0  0  0  0  0  0  0  0
  145.8100   72.3470  219.9760 C   0  0  0  0  0  0  0  0  0  0  0  0
  146.7340   71.3610  220.0890 F   0  0  0  0  0  0  0  0  0  0  0  0
  145.9260   73.5060  220.7480 C   0  0  0  0  0  0  0  0  0  0  0  0
  144.9770   74.5270  220.6300 C   0  0  0  0  0  0  0  0  0  0  0  0
  141.4970   75.3660  219.6360 C   0  0  0  0  0  0  0  0  0  0  0  0
  140.5110   73.8710  219.7750 S   0  0  0  0  0  0  0  0  0  0  0  0
  140.2530   74.0040  221.5760 C   0  0  0  0  0  0  0  0  0  0  0  0
  139.8440   75.3910  221.9650 C   0  0  0  0  0  0  0  0  0  0  0  0
  138.6210   75.6760  222.0300 O   0  0  0  0  0  0  0  0  0  0  0  0
  140.8470   76.3750  222.2780 N   0  0  0  0  0  0  0  0  0  0  0  0
  140.5640   77.7260  222.6810 C   0  0  0  0  0  0  0  0  0  0  0  0
  139.2570   78.0580  223.0700 C   0  0  0  0  0  0  0  0  0  0  0  0
  138.9530   79.3500  223.4990 C   0  0  0  0  0  0  0  0  0  0  0  0
  139.9520   80.3240  223.5480 C   0  0  0  0  0  0  0  0  0  0  0  0
  141.2660   80.0120  223.1720 C   0  0  0  0  0  0  0  0  0  0  0  0
  142.3550   81.0490  223.3250 C   0  0  0  0  0  0  0  0  0  0  0  0
  143.5890   80.4410  223.1270 F   0  0  0  0  0  0  0  0  0  0  0  0
  142.2010   82.0720  222.4040 F   0  0  0  0  0  0  0  0  0  0  0  0
  142.3250   81.6010  224.5990 F   0  0  0  0  0  0  0  0  0  0  0  0
  141.5720   78.7030  222.7570 C   0  0  0  0  0  0  0  0  0  0  0  0
  140.9530   76.5870  219.4790 N   0  0  0  0  0  0  0  0  0  0  0  0
  140.8730   79.5890  219.8260 C   0  0  0  0  0  0  0  0  0  0  0  0
  140.7330   80.9680  219.6510 C   0  0  0  0  0  0  0  0  0  0  0  0
  141.4565   83.4204  221.0024 H   0  0  0  0  0  0  0  0  0  0  0  0
  140.4208   84.7398  220.3597 H   0  0  0  0  0  0  0  0  0  0  0  0
  139.8213   83.0465  220.3597 H   0  0  0  0  0  0  0  0  0  0  0  0
  143.2547   81.5040  217.4182 H   0  0  0  0  0  0  0  0  0  0  0  0
  143.5096   79.0441  217.7191 H   0  0  0  0  0  0  0  0  0  0  0  0
  144.1540   77.1560  219.3430 H   0  0  0  0  0  0  0  0  0  0  0  0
  142.9553   73.1092  218.2598 H   0  0  0  0  0  0  0  0  0  0  0  0
  144.6664   71.3068  218.4605 H   0  0  0  0  0  0  0  0  0  0  0  0
  146.7656   73.6158  221.4502 H   0  0  0  0  0  0  0  0  0  0  0  0
  145.0843   75.4444  221.2274 H   0  0  0  0  0  0  0  0  0  0  0  0
  139.4641   73.2995  221.8782 H   0  0  0  0  0  0  0  0  0  0  0  0
  141.2006   73.7663  222.0815 H   0  0  0  0  0  0  0  0  0  0  0  0
  141.8350   76.0490  222.3480 H   0  0  0  0  0  0  0  0  0  0  0  0
  138.4666   77.2937  223.0364 H   0  0  0  0  0  0  0  0  0  0  0  0
  137.9251   79.6017  223.7990 H   0  0  0  0  0  0  0  0  0  0  0  0
  139.7066   81.3424  223.8837 H   0  0  0  0  0  0  0  0  0  0  0  0
  142.6068   78.4423  222.4902 H   0  0  0  0  0  0  0  0  0  0  0  0
  140.1950   79.0547  220.5078 H   0  0  0  0  0  0  0  0  0  0  0  0
  139.9489   81.5128  220.1972 H   0  0  0  0  0  0  0  0  0  0  0  0
  1  2  1  0
  2  3  1  0
  3  4  2  0
  4  5  1  0
  5  6  2  0
  6  7  1  0
  7  8  1  0
  8  9  1  0
  9 10  1  0
 10 11  2  0
 11 12  1  0
 12 13  2  0
 13 14  1  0
 13 15  1  0
 15 16  2  0
  9 17  2  0
 17 18  1  0
 18 19  1  0
 19 20  1  0
 20 21  2  0
 20 22  1  0
 22 23  1  0
 23 24  2  0
 24 25  1  0
 25 26  2  0
 26 27  1  0
 27 28  1  0
 28 29  1  0
 28 30  1  0
 28 31  1  0
 27 32  2  0
 17 33  1  0
  6 34  1  0
 34 35  2  0
 35  3  1  0
 33  7  2  0
 16 10  1  0
 32 23  1  0
  1 36  1  0
  1 37  1  0
  1 38  1  0
  4 39  1  0
  5 40  1  0
  8 41  1  0
 11 42  1  0
 12 43  1  0
 15 44  1  0
 16 45  1  0
 19 46  1  0
 19 47  1  0
 22 48  1  0
 24 49  1  0
 25 50  1  0
 26 51  1  0
 32 52  1  0
 34 53  1  0
 35 54  1  0
M  END
>  <UniqueID>  (39) 
6

>  <SMILES>  (39) 
CSc1ccc(-c2nc(SCC(=O)Nc3cccc(C(F)(F)F)c3)c(-c3ccc(F)cc3)[nH]2)cc1

>  <Energy>  (39) 
84.54676735977169

>  <Genealogy>  (39) 
CSc1ccc(-c2nc(SCC(=O)Nc3cccc(C(F)(F)F)c3)c(-c3ccc(F)cc3)[nH]2)cc1 (tautomer)
CSc1ccc(-c2nc(SCC(=O)Nc3cccc(C(F)(F)F)c3)c(-c3ccc(F)cc3)[nH]2)cc1 (3D coordinates assigned)
CSc1ccc(-c2nc(SCC(=O)Nc3cccc(C(F)(F)F)c3)c(-c3ccc(F)cc3)[nH]2)cc1 (optimized conformer: 84.54676735977169 kcal/mol)

>  <smiles>  (39) 
CSc1ccc(-c2nc(-c3ccc(F)cc3)c(SCC(=O)Nc3cccc(C(F)(F)F)c3)[nH]2)cc1

>  <score_type>  (39) 
oracle

>  <origin>  (39) 
autodockgpu

>  <m_score__min__energy>  (39) 
-8.5299999999999994

>  <m_primary>  (39) 
energy

>  <meeko>  (39) 
{"free_energy": -8.03, "intermolecular_energy": -10.42, "internal_energy": -2.42, "cluster_size": 14, "cluster_id": 2, "rank_in_cluster": 9}

>  <energy>  (39) 
-7.05

>  <cluster_rmsd>  (39) 
0.0

>  <rmsd>  (39) 
269.34

>  <cluster>  (39) 
6

$$$$
HBUNGMSMUROVMB-PUXXYCQMNA-N
     RDKit          3D

 54 57  0  0  0  0  0  0  0  0999 V2000
  140.6290   84.1330  220.1330 C   0  0  0  0  0  0  0  0  0  0  0  0
  141.4750   83.8640  218.5430 S   0  0  0  0  0  0  0  0  0  0  0  0
  141.5930   82.0860  218.7660 C   0  0  0  0  0  0  0  0  0  0  0  0
  142.4670   81.3380  217.9750 C   0  0  0  0  0  0  0  0  0  0  0  0
  142.5760   79.9560  218.1590 C   0  0  0  0  0  0  0  0  0  0  0  0
  141.8110   79.3030  219.1430 C   0  0  0  0  0  0  0  0  0  0  0  0
  141.9180   77.8380  219.3630 C   0  0  0  0  0  0  0  0  0  0  0  0
  143.0770   77.1460  219.3710 N   0  0  0  0  0  0  0  0  0  0  0  0
  142.7350   75.8660  219.5990 C   0  0  0  0  0  0  0  0  0  0  0  0
  143.7150   74.7600  219.7110 C   0  0  0  0  0  0  0  0  0  0  0  0
  143.5180   73.5730  218.9800 C   0  0  0  0  0  0  0  0  0  0  0  0
  144.4490   72.5330  219.0550 C   0  0  0  0  0  0  0  0  0  0  0  0
  145.5830   72.6600  219.8570 C   0  0  0  0  0  0  0  0  0  0  0  0
  146.4790   71.6460  219.9330 F   0  0  0  0  0  0  0  0  0  0  0  0
  145.7990   73.8400  220.5730 C   0  0  0  0  0  0  0  0  0  0  0  0
  144.8780   74.8900  220.4930 C   0  0  0  0  0  0  0  0  0  0  0  0
  141.3560   75.8120  219.7150 C   0  0  0  0  0  0  0  0  0  0  0  0
  140.3330   74.3510  219.9320 S   0  0  0  0  0  0  0  0  0  0  0  0
  140.1940   74.5080  221.7440 C   0  0  0  0  0  0  0  0  0  0  0  0
  139.9880   75.9350  222.1520 C   0  0  0  0  0  0  0  0  0  0  0  0
  138.8160   76.3690  222.2950 O   0  0  0  0  0  0  0  0  0  0  0  0
  141.1240   76.7850  222.3940 N   0  0  0  0  0  0  0  0  0  0  0  0
  141.0370   78.1590  222.8070 C   0  0  0  0  0  0  0  0  0  0  0  0
  142.2180   78.9080  222.9260 C   0  0  0  0  0  0  0  0  0  0  0  0
  142.1690   80.2530  223.2920 C   0  0  0  0  0  0  0  0  0  0  0  0
  140.9400   80.8670  223.5400 C   0  0  0  0  0  0  0  0  0  0  0  0
  139.7470   80.1400  223.4190 C   0  0  0  0  0  0  0  0  0  0  0  0
  138.4210   80.8430  223.5930 C   0  0  0  0  0  0  0  0  0  0  0  0
  138.3910   81.9630  222.7720 F   0  0  0  0  0  0  0  0  0  0  0  0
  137.3670   80.0080  223.2580 F   0  0  0  0  0  0  0  0  0  0  0  0
  138.2540   81.2460  224.9110 F   0  0  0  0  0  0  0  0  0  0  0  0
  139.8000   78.7880  223.0320 C   0  0  0  0  0  0  0  0  0  0  0  0
  140.8410   77.0480  219.5700 N   0  0  0  0  0  0  0  0  0  0  0  0
  140.9350   80.0690  219.9330 C   0  0  0  0  0  0  0  0  0  0  0  0
  140.8290   81.4490  219.7440 C   0  0  0  0  0  0  0  0  0  0  0  0
  141.3216   83.9128  220.9587 H   0  0  0  0  0  0  0  0  0  0  0  0
  140.2993   85.1803  220.2004 H   0  0  0  0  0  0  0  0  0  0  0  0
  139.7550   83.4684  220.2004 H   0  0  0  0  0  0  0  0  0  0  0  0
  143.0722   81.8376  217.2042 H   0  0  0  0  0  0  0  0  0  0  0  0
  143.2655   79.3746  217.5293 H   0  0  0  0  0  0  0  0  0  0  0  0
  144.0460   77.5120  219.2450 H   0  0  0  0  0  0  0  0  0  0  0  0
  142.6259   73.4633  218.3459 H   0  0  0  0  0  0  0  0  0  0  0  0
  144.2865   71.6102  218.4788 H   0  0  0  0  0  0  0  0  0  0  0  0
  146.6958   73.9438  221.2015 H   0  0  0  0  0  0  0  0  0  0  0  0
  145.0640   75.8232  221.0448 H   0  0  0  0  0  0  0  0  0  0  0  0
  139.3392   73.9090  222.0912 H   0  0  0  0  0  0  0  0  0  0  0  0
  141.1300   74.1488  222.1967 H   0  0  0  0  0  0  0  0  0  0  0  0
  142.0660   76.3380  222.4010 H   0  0  0  0  0  0  0  0  0  0  0  0
  143.1893   78.4308  222.7291 H   0  0  0  0  0  0  0  0  0  0  0  0
  143.1003   80.8309  223.3854 H   0  0  0  0  0  0  0  0  0  0  0  0
  140.9073   81.9270  223.8319 H   0  0  0  0  0  0  0  0  0  0  0  0
  138.8670   78.2194  222.9046 H   0  0  0  0  0  0  0  0  0  0  0  0
  140.3277   79.5768  220.7069 H   0  0  0  0  0  0  0  0  0  0  0  0
  140.1400   82.0360  220.3691 H   0  0  0  0  0  0  0  0  0  0  0  0
  1  2  1  0
  2  3  1  0
  3  4  2  0
  4  5  1  0
  5  6  2  0
  6  7  1  0
  7  8  1  0
  8  9  1  0
  9 10  1  0
 10 11  2  0
 11 12  1  0
 12 13  2  0
 13 14  1  0
 13 15  1  0
 15 16  2  0
  9 17  2  0
 17 18  1  0
 18 19  1  0
 19 20  1  0
 20 21  2  0
 20 22  1  0
 22 23  1  0
 23 24  2  0
 24 25  1  0
 25 26  2  0
 26 27  1  0
 27 28  1  0
 28 29  1  0
 28 30  1  0
 28 31  1  0
 27 32  2  0
 17 33  1  0
  6 34  1  0
 34 35  2  0
 35  3  1  0
 33  7  2  0
 16 10  1  0
 32 23  1  0
  1 36  1  0
  1 37  1  0
  1 38  1  0
  4 39  1  0
  5 40  1  0
  8 41  1  0
 11 42  1  0
 12 43  1  0
 15 44  1  0
 16 45  1  0
 19 46  1  0
 19 47  1  0
 22 48  1  0
 24 49  1  0
 25 50  1  0
 26 51  1  0
 32 52  1  0
 34 53  1  0
 35 54  1  0
M  END
>  <UniqueID>  (40) 
6

>  <SMILES>  (40) 
CSc1ccc(-c2nc(SCC(=O)Nc3cccc(C(F)(F)F)c3)c(-c3ccc(F)cc3)[nH]2)cc1

>  <Energy>  (40) 
84.54676735977169

>  <Genealogy>  (40) 
CSc1ccc(-c2nc(SCC(=O)Nc3cccc(C(F)(F)F)c3)c(-c3ccc(F)cc3)[nH]2)cc1 (tautomer)
CSc1ccc(-c2nc(SCC(=O)Nc3cccc(C(F)(F)F)c3)c(-c3ccc(F)cc3)[nH]2)cc1 (3D coordinates assigned)
CSc1ccc(-c2nc(SCC(=O)Nc3cccc(C(F)(F)F)c3)c(-c3ccc(F)cc3)[nH]2)cc1 (optimized conformer: 84.54676735977169 kcal/mol)

>  <smiles>  (40) 
CSc1ccc(-c2nc(-c3ccc(F)cc3)c(SCC(=O)Nc3cccc(C(F)(F)F)c3)[nH]2)cc1

>  <score_type>  (40) 
oracle

>  <origin>  (40) 
autodockgpu

>  <m_score__min__energy>  (40) 
-8.5299999999999994

>  <m_primary>  (40) 
energy

>  <meeko>  (40) 
{"free_energy": -8.01, "intermolecular_energy": -10.39, "internal_energy": -2.47, "cluster_size": 14, "cluster_id": 2, "rank_in_cluster": 11}

>  <energy>  (40) 
-6.61

>  <cluster_rmsd>  (40) 
0.0

>  <rmsd>  (40) 
268.87

>  <cluster>  (40) 
7

$$$$
GRPXNZZALMQICR-QCMVQFAFNA-N
     RDKit          3D

 53 56  0  0  0  0  0  0  0  0999 V2000
  137.4910   74.9910  223.2250 H   0  0  0  0  0  0  0  0  0  0  0  0
  137.8950   75.7720  222.7210 O   0  0  0  0  0  0  0  0  0  0  0  0
  139.1910   75.7030  222.2190 C   0  0  0  0  0  0  0  0  0  0  0  0
  140.1680   76.6490  222.6750 N   0  0  0  0  0  0  0  0  0  0  0  0
  139.9410   78.0540  222.8630 C   0  0  0  0  0  0  0  0  0  0  0  0
  138.6410   78.5870  222.9190 C   0  0  0  0  0  0  0  0  0  0  0  0
  137.7709   77.9211  222.8214 H   0  0  0  0  0  0  0  0  0  0  0  0
  138.4510   79.9580  223.0980 C   0  0  0  0  0  0  0  0  0  0  0  0
  137.4319   80.3669  223.1628 H   0  0  0  0  0  0  0  0  0  0  0  0
  139.5520   80.8120  223.1950 C   0  0  0  0  0  0  0  0  0  0  0  0
  139.3956   81.8887  223.3570 H   0  0  0  0  0  0  0  0  0  0  0  0
  140.8580   80.3050  223.0870 C   0  0  0  0  0  0  0  0  0  0  0  0
  142.0470   81.2210  223.2310 C   0  0  0  0  0  0  0  0  0  0  0  0
  141.8260   82.3710  222.4970 F   0  0  0  0  0  0  0  0  0  0  0  0
  143.1980   80.6040  222.7690 F   0  0  0  0  0  0  0  0  0  0  0  0
  142.2430   81.5640  224.5570 F   0  0  0  0  0  0  0  0  0  0  0  0
  141.0420   78.9170  222.9360 C   0  0  0  0  0  0  0  0  0  0  0  0
  142.0606   78.5063  222.8748 H   0  0  0  0  0  0  0  0  0  0  0  0
  139.5040   74.7810  221.3040 C   0  0  0  0  0  0  0  0  0  0  0  0
  138.7763   74.5421  220.5145 H   0  0  0  0  0  0  0  0  0  0  0  0
  141.0770   73.9230  221.3280 S   0  0  0  0  0  0  0  0  0  0  0  0
  141.8300   75.1990  220.3150 C   0  0  0  0  0  0  0  0  0  0  0  0
  143.0960   75.1930  219.7600 C   0  0  0  0  0  0  0  0  0  0  0  0
  144.0740   74.0860  219.7570 C   0  0  0  0  0  0  0  0  0  0  0  0
  145.1810   74.0950  220.6220 C   0  0  0  0  0  0  0  0  0  0  0  0
  145.3247   74.9339  221.3188 H   0  0  0  0  0  0  0  0  0  0  0  0
  146.1010   73.0420  220.6010 C   0  0  0  0  0  0  0  0  0  0  0  0
  146.9695   73.0582  221.2759 H   0  0  0  0  0  0  0  0  0  0  0  0
  145.9190   71.9690  219.7240 C   0  0  0  0  0  0  0  0  0  0  0  0
  146.8110   70.9490  219.7050 F   0  0  0  0  0  0  0  0  0  0  0  0
  144.8110   71.9450  218.8720 C   0  0  0  0  0  0  0  0  0  0  0  0
  144.6647   71.0985  218.1849 H   0  0  0  0  0  0  0  0  0  0  0  0
  143.8890   72.9950  218.8920 C   0  0  0  0  0  0  0  0  0  0  0  0
  143.0135   72.9669  218.2266 H   0  0  0  0  0  0  0  0  0  0  0  0
  143.3690   76.4220  219.2770 N   0  0  0  0  0  0  0  0  0  0  0  0
  142.2560   77.1470  219.5350 C   0  0  0  0  0  0  0  0  0  0  0  0
  142.1460   78.5920  219.2120 C   0  0  0  0  0  0  0  0  0  0  0  0
  141.2430   79.4000  219.9280 C   0  0  0  0  0  0  0  0  0  0  0  0
  140.6348   78.9581  220.7310 H   0  0  0  0  0  0  0  0  0  0  0  0
  141.1120   80.7590  219.6280 C   0  0  0  0  0  0  0  0  0  0  0  0
  140.4058   81.3815  220.1971 H   0  0  0  0  0  0  0  0  0  0  0  0
  141.8770   81.3280  218.6060 C   0  0  0  0  0  0  0  0  0  0  0  0
  141.7070   83.0730  218.2220 S   0  0  0  0  0  0  0  0  0  0  0  0
  140.7350   83.4320  219.7180 C   0  0  0  0  0  0  0  0  0  0  0  0
  141.3389   83.2089  220.6099 H   0  0  0  0  0  0  0  0  0  0  0  0
  140.4505   84.4945  219.7242 H   0  0  0  0  0  0  0  0  0  0  0  0
  139.8281   82.8095  219.7242 H   0  0  0  0  0  0  0  0  0  0  0  0
  142.7810   80.5380  217.8910 C   0  0  0  0  0  0  0  0  0  0  0  0
  143.3892   80.9872  217.0920 H   0  0  0  0  0  0  0  0  0  0  0  0
  142.9150   79.1780  218.1880 C   0  0  0  0  0  0  0  0  0  0  0  0
  143.6258   78.5618  217.6179 H   0  0  0  0  0  0  0  0  0  0  0  0
  141.3030   76.4230  220.1640 N   0  0  0  0  0  0  0  0  0  0  0  0
  140.3770   76.7390  220.5250 H   0  0  0  0  0  0  0  0  0  0  0  0
  1  2  1  0
  2  3  1  0
  3  4  1  0
  4  5  1  0
  5  6  2  0
  6  7  1  0
  6  8  1  0
  8  9  1  0
  8 10  2  0
 10 11  1  0
 10 12  1  0
 12 13  1  0
 13 14  1  0
 13 15  1  0
 13 16  1  0
 12 17  2  0
 17 18  1  0
  3 19  2  0
 19 20  1  0
 19 21  1  0
 21 22  1  0
 22 23  2  0
 23 24  1  0
 24 25  2  0
 25 26  1  0
 25 27  1  0
 27 28  1  0
 27 29  2  0
 29 30  1  0
 29 31  1  0
 31 32  1  0
 31 33  2  0
 33 34  1  0
 23 35  1  0
 35 36  2  0
 36 37  1  0
 37 38  2  0
 38 39  1  0
 38 40  1  0
 40 41  1  0
 40 42  2  0
 42 43  1  0
 43 44  1  0
 44 45  1  0
 44 46  1  0
 44 47  1  0
 42 48  1  0
 48 49  1  0
 48 50  2  0
 50 51  1  0
 36 52  1  0
 52 53  1  0
 17  5  1  0
 52 22  1  0
 33 24  1  0
 50 37  1  0
M  CHG  1   4  -1
M  END
>  <UniqueID>  (41) 
7

>  <SMILES>  (41) 
CSc1ccc(-c2nc(-c3ccc(F)cc3)c(S/C=C(\O)[N-]c3cccc(C(F)(F)F)c3)[nH]2)cc1

>  <Energy>  (41) 
86.29116847859027

>  <Genealogy>  (41) 
CSc1ccc(-c2nc(-c3ccc(F)cc3)c(SCC(=O)[N-]c3cccc(C(F)(F)F)c3)[nH]2)cc1 (protonated)
CSc1ccc(-c2nc(-c3ccc(F)cc3)c(SC=C(O)[N-]c3cccc(C(F)(F)F)c3)[nH]2)cc1 (tautomer)
CSc1ccc(-c2nc(-c3ccc(F)cc3)c(S/C=C(\O)[N-]c3cccc(C(F)(F)F)c3)[nH]2)cc1 (cis-trans isomerization)
CSc1ccc(-c2nc(-c3ccc(F)cc3)c(S/C=C(\O)[N-]c3cccc(C(F)(F)F)c3)[nH]2)cc1 (3D coordinates assigned)
CSc1ccc(-c2nc(-c3ccc(F)cc3)c(S/C=C(\O)[N-]c3cccc(C(F)(F)F)c3)[nH]2)cc1 (optimized conformer: 86.29116847859027 kcal/mol)

>  <smiles>  (41) 
CSc1ccc(-c2nc(-c3ccc(F)cc3)c(SCC(=O)Nc3cccc(C(F)(F)F)c3)[nH]2)cc1

>  <score_type>  (41) 
oracle

>  <origin>  (41) 
autodockgpu

>  <m_score__min__energy>  (41) 
-8.5099999999999998

>  <m_primary>  (41) 
energy

>  <meeko>  (41) 
{"free_energy": -6.7, "intermolecular_energy": -9.68, "internal_energy": -2.7, "cluster_size": 6, "cluster_id": 6, "rank_in_cluster": 4}

>  <energy>  (41) 
-8.51

>  <cluster_rmsd>  (41) 
0.0

>  <rmsd>  (41) 
268.5

>  <cluster>  (41) 
1

$$$$
GRPXNZZALMQICR-QCMVQFAFNA-N
     RDKit          3D

 53 56  0  0  0  0  0  0  0  0999 V2000
  138.0420   74.3240  222.8830 H   0  0  0  0  0  0  0  0  0  0  0  0
  137.9100   75.1860  222.3690 O   0  0  0  0  0  0  0  0  0  0  0  0
  138.9650   76.0760  222.1870 C   0  0  0  0  0  0  0  0  0  0  0  0
  138.6780   77.4390  221.8430 N   0  0  0  0  0  0  0  0  0  0  0  0
  139.1780   78.5950  222.5320 C   0  0  0  0  0  0  0  0  0  0  0  0
  138.3140   79.4930  223.1830 C   0  0  0  0  0  0  0  0  0  0  0  0
  137.2288   79.3136  223.1736 H   0  0  0  0  0  0  0  0  0  0  0  0
  138.8280   80.6110  223.8410 C   0  0  0  0  0  0  0  0  0  0  0  0
  138.1493   81.2991  224.3662 H   0  0  0  0  0  0  0  0  0  0  0  0
  140.2030   80.8580  223.8340 C   0  0  0  0  0  0  0  0  0  0  0  0
  140.6044   81.7290  224.3728 H   0  0  0  0  0  0  0  0  0  0  0  0
  141.0770   80.0010  223.1430 C   0  0  0  0  0  0  0  0  0  0  0  0
  142.5640   80.2470  223.1670 C   0  0  0  0  0  0  0  0  0  0  0  0
  143.2250   79.0650  222.8870 F   0  0  0  0  0  0  0  0  0  0  0  0
  142.9630   80.7030  224.4130 F   0  0  0  0  0  0  0  0  0  0  0  0
  142.9200   81.1960  222.2260 F   0  0  0  0  0  0  0  0  0  0  0  0
  140.5530   78.8600  222.5060 C   0  0  0  0  0  0  0  0  0  0  0  0
  141.2306   78.1695  221.9824 H   0  0  0  0  0  0  0  0  0  0  0  0
  140.2260   75.6500  222.3070 C   0  0  0  0  0  0  0  0  0  0  0  0
  140.8657   76.0857  223.0886 H   0  0  0  0  0  0  0  0  0  0  0  0
  140.9030   74.3890  221.2300 S   0  0  0  0  0  0  0  0  0  0  0  0
  141.7050   75.6340  220.2170 C   0  0  0  0  0  0  0  0  0  0  0  0
  142.9820   75.5910  219.6880 C   0  0  0  0  0  0  0  0  0  0  0  0
  143.9320   74.4610  219.7160 C   0  0  0  0  0  0  0  0  0  0  0  0
  143.7560   73.3440  218.8810 C   0  0  0  0  0  0  0  0  0  0  0  0
  142.9011   73.3064  218.1898 H   0  0  0  0  0  0  0  0  0  0  0  0
  144.6630   72.2800  218.9250 C   0  0  0  0  0  0  0  0  0  0  0  0
  144.5159   71.4054  218.2743 H   0  0  0  0  0  0  0  0  0  0  0  0
  145.7560   72.3270  219.7950 C   0  0  0  0  0  0  0  0  0  0  0  0
  146.6340   71.2940  219.8360 F   0  0  0  0  0  0  0  0  0  0  0  0
  145.9480   73.4410  220.6160 C   0  0  0  0  0  0  0  0  0  0  0  0
  146.8111   73.4796  221.2969 H   0  0  0  0  0  0  0  0  0  0  0  0
  145.0440   74.5070  220.5730 C   0  0  0  0  0  0  0  0  0  0  0  0
  145.2046   75.3865  221.2139 H   0  0  0  0  0  0  0  0  0  0  0  0
  143.2940   76.8070  219.1950 N   0  0  0  0  0  0  0  0  0  0  0  0
  142.1940   77.5610  219.4230 C   0  0  0  0  0  0  0  0  0  0  0  0
  142.1250   79.0050  219.0810 C   0  0  0  0  0  0  0  0  0  0  0  0
  141.1980   79.8340  219.7390 C   0  0  0  0  0  0  0  0  0  0  0  0
  140.5392   79.4099  220.5111 H   0  0  0  0  0  0  0  0  0  0  0  0
  141.1070   81.1920  219.4200 C   0  0  0  0  0  0  0  0  0  0  0  0
  140.3823   81.8315  219.9452 H   0  0  0  0  0  0  0  0  0  0  0  0
  141.9340   81.7390  218.4360 C   0  0  0  0  0  0  0  0  0  0  0  0
  141.8140   83.4820  218.0260 S   0  0  0  0  0  0  0  0  0  0  0  0
  143.3910   83.5000  217.1170 C   0  0  0  0  0  0  0  0  0  0  0  0
  144.2265   83.5095  217.8324 H   0  0  0  0  0  0  0  0  0  0  0  0
  143.4600   82.6026  216.4846 H   0  0  0  0  0  0  0  0  0  0  0  0
  143.4395   84.3988  216.4846 H   0  0  0  0  0  0  0  0  0  0  0  0
  142.8620   80.9270  217.7770 C   0  0  0  0  0  0  0  0  0  0  0  0
  143.5186   81.3582  217.0069 H   0  0  0  0  0  0  0  0  0  0  0  0
  142.9580   79.5680  218.0940 C   0  0  0  0  0  0  0  0  0  0  0  0
  143.6885   78.9348  217.5693 H   0  0  0  0  0  0  0  0  0  0  0  0
  141.2120   76.8690  220.0410 N   0  0  0  0  0  0  0  0  0  0  0  0
  140.2870   77.2110  220.3810 H   0  0  0  0  0  0  0  0  0  0  0  0
  1  2  1  0
  2  3  1  0
  3  4  1  0
  4  5  1  0
  5  6  2  0
  6  7  1  0
  6  8  1  0
  8  9  1  0
  8 10  2  0
 10 11  1  0
 10 12  1  0
 12 13  1  0
 13 14  1  0
 13 15  1  0
 13 16  1  0
 12 17  2  0
 17 18  1  0
  3 19  2  0
 19 20  1  0
 19 21  1  0
 21 22  1  0
 22 23  2  0
 23 24  1  0
 24 25  2  0
 25 26  1  0
 25 27  1  0
 27 28  1  0
 27 29  2  0
 29 30  1  0
 29 31  1  0
 31 32  1  0
 31 33  2  0
 33 34  1  0
 23 35  1  0
 35 36  2  0
 36 37  1  0
 37 38  2  0
 38 39  1  0
 38 40  1  0
 40 41  1  0
 40 42  2  0
 42 43  1  0
 43 44  1  0
 44 45  1  0
 44 46  1  0
 44 47  1  0
 42 48  1  0
 48 49  1  0
 48 50  2  0
 50 51  1  0
 36 52  1  0
 52 53  1  0
 17  5  1  0
 52 22  1  0
 33 24  1  0
 50 37  1  0
M  CHG  1   4  -1
M  END
>  <UniqueID>  (42) 
7

>  <SMILES>  (42) 
CSc1ccc(-c2nc(-c3ccc(F)cc3)c(S/C=C(\O)[N-]c3cccc(C(F)(F)F)c3)[nH]2)cc1

>  <Energy>  (42) 
86.29116847859027

>  <Genealogy>  (42) 
CSc1ccc(-c2nc(-c3ccc(F)cc3)c(SCC(=O)[N-]c3cccc(C(F)(F)F)c3)[nH]2)cc1 (protonated)
CSc1ccc(-c2nc(-c3ccc(F)cc3)c(SC=C(O)[N-]c3cccc(C(F)(F)F)c3)[nH]2)cc1 (tautomer)
CSc1ccc(-c2nc(-c3ccc(F)cc3)c(S/C=C(\O)[N-]c3cccc(C(F)(F)F)c3)[nH]2)cc1 (cis-trans isomerization)
CSc1ccc(-c2nc(-c3ccc(F)cc3)c(S/C=C(\O)[N-]c3cccc(C(F)(F)F)c3)[nH]2)cc1 (3D coordinates assigned)
CSc1ccc(-c2nc(-c3ccc(F)cc3)c(S/C=C(\O)[N-]c3cccc(C(F)(F)F)c3)[nH]2)cc1 (optimized conformer: 86.29116847859027 kcal/mol)

>  <smiles>  (42) 
CSc1ccc(-c2nc(-c3ccc(F)cc3)c(SCC(=O)Nc3cccc(C(F)(F)F)c3)[nH]2)cc1

>  <score_type>  (42) 
oracle

>  <origin>  (42) 
autodockgpu

>  <m_score__min__energy>  (42) 
-8.5099999999999998

>  <m_primary>  (42) 
energy

>  <meeko>  (42) 
{"free_energy": -6.71, "intermolecular_energy": -9.69, "internal_energy": -2.77, "cluster_size": 6, "cluster_id": 6, "rank_in_cluster": 3}

>  <energy>  (42) 
-8.44

>  <cluster_rmsd>  (42) 
0.07

>  <rmsd>  (42) 
268.49

>  <cluster>  (42) 
1

$$$$
GRPXNZZALMQICR-QCMVQFAFNA-N
     RDKit          3D

 53 56  0  0  0  0  0  0  0  0999 V2000
  138.6190   75.3670  219.8290 H   0  0  0  0  0  0  0  0  0  0  0  0
  138.5300   76.1670  220.4430 O   0  0  0  0  0  0  0  0  0  0  0  0
  139.1040   76.1610  221.7120 C   0  0  0  0  0  0  0  0  0  0  0  0
  138.5920   77.0500  222.7150 N   0  0  0  0  0  0  0  0  0  0  0  0
  139.0710   78.3790  222.9700 C   0  0  0  0  0  0  0  0  0  0  0  0
  138.1870   79.4350  223.2580 C   0  0  0  0  0  0  0  0  0  0  0  0
  137.1036   79.2484  223.2948 H   0  0  0  0  0  0  0  0  0  0  0  0
  138.6800   80.7180  223.4970 C   0  0  0  0  0  0  0  0  0  0  0  0
  137.9861   81.5356  223.7419 H   0  0  0  0  0  0  0  0  0  0  0  0
  140.0530   80.9670  223.4260 C   0  0  0  0  0  0  0  0  0  0  0  0
  140.4374   81.9757  223.6374 H   0  0  0  0  0  0  0  0  0  0  0  0
  140.9460   79.9360  223.0860 C   0  0  0  0  0  0  0  0  0  0  0  0
  142.4310   80.1950  223.0480 C   0  0  0  0  0  0  0  0  0  0  0  0
  142.8500   80.6220  224.2930 F   0  0  0  0  0  0  0  0  0  0  0  0
  142.7320   81.1700  222.1110 F   0  0  0  0  0  0  0  0  0  0  0  0
  143.1210   79.0440  222.7100 F   0  0  0  0  0  0  0  0  0  0  0  0
  140.4430   78.6380  222.8750 C   0  0  0  0  0  0  0  0  0  0  0  0
  141.1359   77.8187  222.6329 H   0  0  0  0  0  0  0  0  0  0  0  0
  140.1350   75.3520  221.9730 C   0  0  0  0  0  0  0  0  0  0  0  0
  140.6094   75.3930  222.9646 H   0  0  0  0  0  0  0  0  0  0  0  0
  140.7660   74.2020  220.7520 S   0  0  0  0  0  0  0  0  0  0  0  0
  141.6710   75.5150  219.9300 C   0  0  0  0  0  0  0  0  0  0  0  0
  143.0150   75.5340  219.6060 C   0  0  0  0  0  0  0  0  0  0  0  0
  143.9890   74.4320  219.7360 C   0  0  0  0  0  0  0  0  0  0  0  0
  145.0580   74.5130  220.6450 C   0  0  0  0  0  0  0  0  0  0  0  0
  145.1736   75.4066  221.2759 H   0  0  0  0  0  0  0  0  0  0  0  0
  145.9750   73.4630  220.7510 C   0  0  0  0  0  0  0  0  0  0  0  0
  146.8131   73.5356  221.4598 H   0  0  0  0  0  0  0  0  0  0  0  0
  145.8290   72.3210  219.9580 C   0  0  0  0  0  0  0  0  0  0  0  0
  146.7190   71.3040  220.0620 F   0  0  0  0  0  0  0  0  0  0  0  0
  144.7590   72.2260  219.0630 C   0  0  0  0  0  0  0  0  0  0  0  0
  144.6402   71.3256  218.4424 H   0  0  0  0  0  0  0  0  0  0  0  0
  143.8400   73.2740  218.9560 C   0  0  0  0  0  0  0  0  0  0  0  0
  142.9951   73.1909  218.2565 H   0  0  0  0  0  0  0  0  0  0  0  0
  143.3550   76.7800  219.2200 N   0  0  0  0  0  0  0  0  0  0  0  0
  142.2080   77.4910  219.3040 C   0  0  0  0  0  0  0  0  0  0  0  0
  142.1410   78.9470  219.0150 C   0  0  0  0  0  0  0  0  0  0  0  0
  141.2760   79.7670  219.7630 C   0  0  0  0  0  0  0  0  0  0  0  0
  140.6646   79.3268  220.5645 H   0  0  0  0  0  0  0  0  0  0  0  0
  141.1870   81.1370  219.4960 C   0  0  0  0  0  0  0  0  0  0  0  0
  140.5110   81.7693  220.0903 H   0  0  0  0  0  0  0  0  0  0  0  0
  141.9550   81.7040  218.4760 C   0  0  0  0  0  0  0  0  0  0  0  0
  141.8380   83.4620  218.1340 S   0  0  0  0  0  0  0  0  0  0  0  0
  143.3290   83.4800  217.0890 C   0  0  0  0  0  0  0  0  0  0  0  0
  144.2244   83.4908  217.7279 H   0  0  0  0  0  0  0  0  0  0  0  0
  143.3425   82.5820  216.4539 H   0  0  0  0  0  0  0  0  0  0  0  0
  143.3208   84.3781  216.4539 H   0  0  0  0  0  0  0  0  0  0  0  0
  142.8210   80.9010  217.7290 C   0  0  0  0  0  0  0  0  0  0  0  0
  143.4315   81.3481  216.9307 H   0  0  0  0  0  0  0  0  0  0  0  0
  142.9140   79.5310  217.9930 C   0  0  0  0  0  0  0  0  0  0  0  0
  143.5956   78.9052  217.3983 H   0  0  0  0  0  0  0  0  0  0  0  0
  141.1670   76.7430  219.7310 N   0  0  0  0  0  0  0  0  0  0  0  0
  140.1880   77.0420  219.9350 H   0  0  0  0  0  0  0  0  0  0  0  0
  1  2  1  0
  2  3  1  0
  3  4  1  0
  4  5  1  0
  5  6  2  0
  6  7  1  0
  6  8  1  0
  8  9  1  0
  8 10  2  0
 10 11  1  0
 10 12  1  0
 12 13  1  0
 13 14  1  0
 13 15  1  0
 13 16  1  0
 12 17  2  0
 17 18  1  0
  3 19  2  0
 19 20  1  0
 19 21  1  0
 21 22  1  0
 22 23  2  0
 23 24  1  0
 24 25  2  0
 25 26  1  0
 25 27  1  0
 27 28  1  0
 27 29  2  0
 29 30  1  0
 29 31  1  0
 31 32  1  0
 31 33  2  0
 33 34  1  0
 23 35  1  0
 35 36  2  0
 36 37  1  0
 37 38  2  0
 38 39  1  0
 38 40  1  0
 40 41  1  0
 40 42  2  0
 42 43  1  0
 43 44  1  0
 44 45  1  0
 44 46  1  0
 44 47  1  0
 42 48  1  0
 48 49  1  0
 48 50  2  0
 50 51  1  0
 36 52  1  0
 52 53  1  0
 17  5  1  0
 52 22  1  0
 33 24  1  0
 50 37  1  0
M  CHG  1   4  -1
M  END
>  <UniqueID>  (43) 
7

>  <SMILES>  (43) 
CSc1ccc(-c2nc(-c3ccc(F)cc3)c(S/C=C(\O)[N-]c3cccc(C(F)(F)F)c3)[nH]2)cc1

>  <Energy>  (43) 
86.29116847859027

>  <Genealogy>  (43) 
CSc1ccc(-c2nc(-c3ccc(F)cc3)c(SCC(=O)[N-]c3cccc(C(F)(F)F)c3)[nH]2)cc1 (protonated)
CSc1ccc(-c2nc(-c3ccc(F)cc3)c(SC=C(O)[N-]c3cccc(C(F)(F)F)c3)[nH]2)cc1 (tautomer)
CSc1ccc(-c2nc(-c3ccc(F)cc3)c(S/C=C(\O)[N-]c3cccc(C(F)(F)F)c3)[nH]2)cc1 (cis-trans isomerization)
CSc1ccc(-c2nc(-c3ccc(F)cc3)c(S/C=C(\O)[N-]c3cccc(C(F)(F)F)c3)[nH]2)cc1 (3D coordinates assigned)
CSc1ccc(-c2nc(-c3ccc(F)cc3)c(S/C=C(\O)[N-]c3cccc(C(F)(F)F)c3)[nH]2)cc1 (optimized conformer: 86.29116847859027 kcal/mol)

>  <smiles>  (43) 
CSc1ccc(-c2nc(-c3ccc(F)cc3)c(SCC(=O)Nc3cccc(C(F)(F)F)c3)[nH]2)cc1

>  <score_type>  (43) 
oracle

>  <origin>  (43) 
autodockgpu

>  <m_score__min__energy>  (43) 
-8.5099999999999998

>  <m_primary>  (43) 
energy

>  <meeko>  (43) 
{"free_energy": -6.11, "intermolecular_energy": -9.09, "internal_energy": -2.92, "cluster_size": 6, "cluster_id": 6, "rank_in_cluster": 6}

>  <energy>  (43) 
-7.3

>  <cluster_rmsd>  (43) 
1.67

>  <rmsd>  (43) 
268.54

>  <cluster>  (43) 
1

$$$$
GRPXNZZALMQICR-QCMVQFAFNA-N
     RDKit          3D

 53 56  0  0  0  0  0  0  0  0999 V2000
  145.9300   74.3590  217.8480 H   0  0  0  0  0  0  0  0  0  0  0  0
  146.0390   73.3520  217.8870 O   0  0  0  0  0  0  0  0  0  0  0  0
  145.4150   72.6050  218.8820 C   0  0  0  0  0  0  0  0  0  0  0  0
  146.0520   71.4130  219.3630 N   0  0  0  0  0  0  0  0  0  0  0  0
  145.4770   70.0970  219.3450 C   0  0  0  0  0  0  0  0  0  0  0  0
  146.2820   68.9440  219.3400 C   0  0  0  0  0  0  0  0  0  0  0  0
  147.3777   69.0402  219.3542 H   0  0  0  0  0  0  0  0  0  0  0  0
  145.6950   67.6780  219.3170 C   0  0  0  0  0  0  0  0  0  0  0  0
  146.3286   66.7789  219.3343 H   0  0  0  0  0  0  0  0  0  0  0  0
  144.3040   67.5500  219.2720 C   0  0  0  0  0  0  0  0  0  0  0  0
  143.8468   66.5495  219.2758 H   0  0  0  0  0  0  0  0  0  0  0  0
  143.4860   68.6910  219.2220 C   0  0  0  0  0  0  0  0  0  0  0  0
  141.9850   68.5530  219.2130 C   0  0  0  0  0  0  0  0  0  0  0  0
  141.6150   67.5460  220.0840 F   0  0  0  0  0  0  0  0  0  0  0  0
  141.5310   68.2410  217.9420 F   0  0  0  0  0  0  0  0  0  0  0  0
  141.3810   69.7350  219.6080 F   0  0  0  0  0  0  0  0  0  0  0  0
  144.0850   69.9650  219.2750 C   0  0  0  0  0  0  0  0  0  0  0  0
  143.4527   70.8650  219.2612 H   0  0  0  0  0  0  0  0  0  0  0  0
  144.2260   72.9870  219.3580 C   0  0  0  0  0  0  0  0  0  0  0  0
  143.4137   72.2483  219.4251 H   0  0  0  0  0  0  0  0  0  0  0  0
  143.9200   74.6710  219.8900 S   0  0  0  0  0  0  0  0  0  0  0  0
  142.4370   74.1630  220.7620 C   0  0  0  0  0  0  0  0  0  0  0  0
  141.4620   74.9780  221.3060 C   0  0  0  0  0  0  0  0  0  0  0  0
  141.3400   76.4450  221.1830 C   0  0  0  0  0  0  0  0  0  0  0  0
  140.9420   77.2340  222.2750 C   0  0  0  0  0  0  0  0  0  0  0  0
  140.7206   76.7588  223.2421 H   0  0  0  0  0  0  0  0  0  0  0  0
  140.8260   78.6210  222.1380 C   0  0  0  0  0  0  0  0  0  0  0  0
  140.5066   79.2323  222.9949 H   0  0  0  0  0  0  0  0  0  0  0  0
  141.1150   79.2320  220.9150 C   0  0  0  0  0  0  0  0  0  0  0  0
  141.0020   80.5770  220.7840 F   0  0  0  0  0  0  0  0  0  0  0  0
  141.5280   78.4560  219.8280 C   0  0  0  0  0  0  0  0  0  0  0  0
  141.7596   78.9369  218.8662 H   0  0  0  0  0  0  0  0  0  0  0  0
  141.6470   77.0690  219.9620 C   0  0  0  0  0  0  0  0  0  0  0  0
  141.9827   76.4635  219.1072 H   0  0  0  0  0  0  0  0  0  0  0  0
  140.6460   74.2320  222.0780 N   0  0  0  0  0  0  0  0  0  0  0  0
  141.1330   72.9750  221.9760 C   0  0  0  0  0  0  0  0  0  0  0  0
  140.5570   71.8260  222.7210 C   0  0  0  0  0  0  0  0  0  0  0  0
  140.6640   71.7800  224.1240 C   0  0  0  0  0  0  0  0  0  0  0  0
  141.1627   72.6010  224.6600 H   0  0  0  0  0  0  0  0  0  0  0  0
  140.1420   70.7000  224.8420 C   0  0  0  0  0  0  0  0  0  0  0  0
  140.2276   70.6771  225.9384 H   0  0  0  0  0  0  0  0  0  0  0  0
  139.5120   69.6500  224.1700 C   0  0  0  0  0  0  0  0  0  0  0  0
  138.8430   68.2640  225.0930 S   0  0  0  0  0  0  0  0  0  0  0  0
  140.1760   68.2910  226.3320 C   0  0  0  0  0  0  0  0  0  0  0  0
  139.7387   68.2821  227.3413 H   0  0  0  0  0  0  0  0  0  0  0  0
  140.8156   67.4056  226.2018 H   0  0  0  0  0  0  0  0  0  0  0  0
  140.7793   69.2015  226.2018 H   0  0  0  0  0  0  0  0  0  0  0  0
  139.3940   69.6860  222.7770 C   0  0  0  0  0  0  0  0  0  0  0  0
  138.8905   68.8635  222.2479 H   0  0  0  0  0  0  0  0  0  0  0  0
  139.9140   70.7640  222.0550 C   0  0  0  0  0  0  0  0  0  0  0  0
  139.8205   70.7833  220.9591 H   0  0  0  0  0  0  0  0  0  0  0  0
  142.2220   72.9060  221.1780 N   0  0  0  0  0  0  0  0  0  0  0  0
  142.8250   72.0810  220.9660 H   0  0  0  0  0  0  0  0  0  0  0  0
  1  2  1  0
  2  3  1  0
  3  4  1  0
  4  5  1  0
  5  6  2  0
  6  7  1  0
  6  8  1  0
  8  9  1  0
  8 10  2  0
 10 11  1  0
 10 12  1  0
 12 13  1  0
 13 14  1  0
 13 15  1  0
 13 16  1  0
 12 17  2  0
 17 18  1  0
  3 19  2  0
 19 20  1  0
 19 21  1  0
 21 22  1  0
 22 23  2  0
 23 24  1  0
 24 25  2  0
 25 26  1  0
 25 27  1  0
 27 28  1  0
 27 29  2  0
 29 30  1  0
 29 31  1  0
 31 32  1  0
 31 33  2  0
 33 34  1  0
 23 35  1  0
 35 36  2  0
 36 37  1  0
 37 38  2  0
 38 39  1  0
 38 40  1  0
 40 41  1  0
 40 42  2  0
 42 43  1  0
 43 44  1  0
 44 45  1  0
 44 46  1  0
 44 47  1  0
 42 48  1  0
 48 49  1  0
 48 50  2  0
 50 51  1  0
 36 52  1  0
 52 53  1  0
 17  5  1  0
 52 22  1  0
 33 24  1  0
 50 37  1  0
M  CHG  1   4  -1
M  END
>  <UniqueID>  (44) 
7

>  <SMILES>  (44) 
CSc1ccc(-c2nc(-c3ccc(F)cc3)c(S/C=C(\O)[N-]c3cccc(C(F)(F)F)c3)[nH]2)cc1

>  <Energy>  (44) 
86.29116847859027

>  <Genealogy>  (44) 
CSc1ccc(-c2nc(-c3ccc(F)cc3)c(SCC(=O)[N-]c3cccc(C(F)(F)F)c3)[nH]2)cc1 (protonated)
CSc1ccc(-c2nc(-c3ccc(F)cc3)c(SC=C(O)[N-]c3cccc(C(F)(F)F)c3)[nH]2)cc1 (tautomer)
CSc1ccc(-c2nc(-c3ccc(F)cc3)c(S/C=C(\O)[N-]c3cccc(C(F)(F)F)c3)[nH]2)cc1 (cis-trans isomerization)
CSc1ccc(-c2nc(-c3ccc(F)cc3)c(S/C=C(\O)[N-]c3cccc(C(F)(F)F)c3)[nH]2)cc1 (3D coordinates assigned)
CSc1ccc(-c2nc(-c3ccc(F)cc3)c(S/C=C(\O)[N-]c3cccc(C(F)(F)F)c3)[nH]2)cc1 (optimized conformer: 86.29116847859027 kcal/mol)

>  <smiles>  (44) 
CSc1ccc(-c2nc(-c3ccc(F)cc3)c(SCC(=O)Nc3cccc(C(F)(F)F)c3)[nH]2)cc1

>  <score_type>  (44) 
oracle

>  <origin>  (44) 
autodockgpu

>  <m_score__min__energy>  (44) 
-8.5099999999999998

>  <m_primary>  (44) 
energy

>  <meeko>  (44) 
{"free_energy": -8.44, "intermolecular_energy": -11.42, "internal_energy": -1.44, "cluster_size": 5, "cluster_id": 1, "rank_in_cluster": 2}

>  <energy>  (44) 
-7.12

>  <cluster_rmsd>  (44) 
0.82

>  <rmsd>  (44) 
268.4

>  <cluster>  (44) 
1

$$$$
GRPXNZZALMQICR-QCMVQFAFNA-N
     RDKit          3D

 53 56  0  0  0  0  0  0  0  0999 V2000
  137.7400   72.7160  223.4540 H   0  0  0  0  0  0  0  0  0  0  0  0
  138.1710   72.5020  222.5630 O   0  0  0  0  0  0  0  0  0  0  0  0
  139.5070   72.8140  222.3230 C   0  0  0  0  0  0  0  0  0  0  0  0
  140.5270   72.1410  223.0740 N   0  0  0  0  0  0  0  0  0  0  0  0
  140.3050   71.3290  224.2380 C   0  0  0  0  0  0  0  0  0  0  0  0
  139.6630   70.0810  224.1510 C   0  0  0  0  0  0  0  0  0  0  0  0
  139.3230   69.7060  223.1744 H   0  0  0  0  0  0  0  0  0  0  0  0
  139.4560   69.3170  225.3000 C   0  0  0  0  0  0  0  0  0  0  0  0
  138.9711   68.3326  225.2241 H   0  0  0  0  0  0  0  0  0  0  0  0
  139.8630   69.7990  226.5470 C   0  0  0  0  0  0  0  0  0  0  0  0
  139.7177   69.1819  227.4459 H   0  0  0  0  0  0  0  0  0  0  0  0
  140.4570   71.0680  226.6590 C   0  0  0  0  0  0  0  0  0  0  0  0
  140.9300   71.5720  227.9990 C   0  0  0  0  0  0  0  0  0  0  0  0
  141.8240   72.6080  227.8050 F   0  0  0  0  0  0  0  0  0  0  0  0
  141.5570   70.5610  228.7070 F   0  0  0  0  0  0  0  0  0  0  0  0
  139.8650   72.0320  228.7540 F   0  0  0  0  0  0  0  0  0  0  0  0
  140.6880   71.8210  225.4920 C   0  0  0  0  0  0  0  0  0  0  0  0
  141.1739   72.8051  225.5659 H   0  0  0  0  0  0  0  0  0  0  0  0
  139.8220   73.7490  221.4220 C   0  0  0  0  0  0  0  0  0  0  0  0
  139.5474   73.5914  220.3686 H   0  0  0  0  0  0  0  0  0  0  0  0
  140.6800   75.2530  221.8840 S   0  0  0  0  0  0  0  0  0  0  0  0
  139.1310   76.0430  222.3300 C   0  0  0  0  0  0  0  0  0  0  0  0
  138.9120   77.3870  222.5670 C   0  0  0  0  0  0  0  0  0  0  0  0
  139.8610   78.5030  222.3790 C   0  0  0  0  0  0  0  0  0  0  0  0
  139.5570   79.5770  221.5270 C   0  0  0  0  0  0  0  0  0  0  0  0
  138.5964   79.5959  220.9915 H   0  0  0  0  0  0  0  0  0  0  0  0
  140.4700   80.6230  221.3560 C   0  0  0  0  0  0  0  0  0  0  0  0
  140.2293   81.4575  220.6810 H   0  0  0  0  0  0  0  0  0  0  0  0
  141.6880   80.6090  222.0420 C   0  0  0  0  0  0  0  0  0  0  0  0
  142.5720   81.6240  221.8750 F   0  0  0  0  0  0  0  0  0  0  0  0
  141.9910   79.5520  222.9040 C   0  0  0  0  0  0  0  0  0  0  0  0
  142.9479   79.5425  223.4464 H   0  0  0  0  0  0  0  0  0  0  0  0
  141.0790   78.5060  223.0780 C   0  0  0  0  0  0  0  0  0  0  0  0
  141.3170   77.6814  223.7660 H   0  0  0  0  0  0  0  0  0  0  0  0
  137.6850   77.5430  223.1030 N   0  0  0  0  0  0  0  0  0  0  0  0
  137.1770   76.2910  223.1690 C   0  0  0  0  0  0  0  0  0  0  0  0
  135.8450   75.9930  223.7550 C   0  0  0  0  0  0  0  0  0  0  0  0
  135.7560   75.2100  224.9210 C   0  0  0  0  0  0  0  0  0  0  0  0
  136.6737   74.8348  225.3975 H   0  0  0  0  0  0  0  0  0  0  0  0
  134.5100   74.9050  225.4790 C   0  0  0  0  0  0  0  0  0  0  0  0
  134.4521   74.2964  226.3934 H   0  0  0  0  0  0  0  0  0  0  0  0
  133.3390   75.3720  224.8770 C   0  0  0  0  0  0  0  0  0  0  0  0
  131.7420   74.9790  225.5940 S   0  0  0  0  0  0  0  0  0  0  0  0
  132.4400   74.5640  227.2230 C   0  0  0  0  0  0  0  0  0  0  0  0
  131.7828   74.9547  228.0138 H   0  0  0  0  0  0  0  0  0  0  0  0
  132.5205   73.4712  227.3198 H   0  0  0  0  0  0  0  0  0  0  0  0
  133.4385   75.0152  227.3198 H   0  0  0  0  0  0  0  0  0  0  0  0
  133.4150   76.1540  223.7210 C   0  0  0  0  0  0  0  0  0  0  0  0
  132.4936   76.5284  223.2510 H   0  0  0  0  0  0  0  0  0  0  0  0
  134.6580   76.4620  223.1600 C   0  0  0  0  0  0  0  0  0  0  0  0
  134.7091   77.0747  222.2479 H   0  0  0  0  0  0  0  0  0  0  0  0
  138.0380   75.3600  222.7000 N   0  0  0  0  0  0  0  0  0  0  0  0
  137.9300   74.3220  222.6810 H   0  0  0  0  0  0  0  0  0  0  0  0
  1  2  1  0
  2  3  1  0
  3  4  1  0
  4  5  1  0
  5  6  2  0
  6  7  1  0
  6  8  1  0
  8  9  1  0
  8 10  2  0
 10 11  1  0
 10 12  1  0
 12 13  1  0
 13 14  1  0
 13 15  1  0
 13 16  1  0
 12 17  2  0
 17 18  1  0
  3 19  2  0
 19 20  1  0
 19 21  1  0
 21 22  1  0
 22 23  2  0
 23 24  1  0
 24 25  2  0
 25 26  1  0
 25 27  1  0
 27 28  1  0
 27 29  2  0
 29 30  1  0
 29 31  1  0
 31 32  1  0
 31 33  2  0
 33 34  1  0
 23 35  1  0
 35 36  2  0
 36 37  1  0
 37 38  2  0
 38 39  1  0
 38 40  1  0
 40 41  1  0
 40 42  2  0
 42 43  1  0
 43 44  1  0
 44 45  1  0
 44 46  1  0
 44 47  1  0
 42 48  1  0
 48 49  1  0
 48 50  2  0
 50 51  1  0
 36 52  1  0
 52 53  1  0
 17  5  1  0
 52 22  1  0
 33 24  1  0
 50 37  1  0
M  CHG  1   4  -1
M  END
>  <UniqueID>  (45) 
7

>  <SMILES>  (45) 
CSc1ccc(-c2nc(-c3ccc(F)cc3)c(S/C=C(\O)[N-]c3cccc(C(F)(F)F)c3)[nH]2)cc1

>  <Energy>  (45) 
86.29116847859027

>  <Genealogy>  (45) 
CSc1ccc(-c2nc(-c3ccc(F)cc3)c(SCC(=O)[N-]c3cccc(C(F)(F)F)c3)[nH]2)cc1 (protonated)
CSc1ccc(-c2nc(-c3ccc(F)cc3)c(SC=C(O)[N-]c3cccc(C(F)(F)F)c3)[nH]2)cc1 (tautomer)
CSc1ccc(-c2nc(-c3ccc(F)cc3)c(S/C=C(\O)[N-]c3cccc(C(F)(F)F)c3)[nH]2)cc1 (cis-trans isomerization)
CSc1ccc(-c2nc(-c3ccc(F)cc3)c(S/C=C(\O)[N-]c3cccc(C(F)(F)F)c3)[nH]2)cc1 (3D coordinates assigned)
CSc1ccc(-c2nc(-c3ccc(F)cc3)c(S/C=C(\O)[N-]c3cccc(C(F)(F)F)c3)[nH]2)cc1 (optimized conformer: 86.29116847859027 kcal/mol)

>  <smiles>  (45) 
CSc1ccc(-c2nc(-c3ccc(F)cc3)c(SCC(=O)Nc3cccc(C(F)(F)F)c3)[nH]2)cc1

>  <score_type>  (45) 
oracle

>  <origin>  (45) 
autodockgpu

>  <m_score__min__energy>  (45) 
-8.5099999999999998

>  <m_primary>  (45) 
energy

>  <meeko>  (45) 
{"free_energy": -7.71, "intermolecular_energy": -10.69, "internal_energy": -1.79, "cluster_size": 2, "cluster_id": 4, "rank_in_cluster": 1}

>  <energy>  (45) 
-7.12

>  <cluster_rmsd>  (45) 
1.76

>  <rmsd>  (45) 
268.41

>  <cluster>  (45) 
1

$$$$
GRPXNZZALMQICR-QCMVQFAFNA-N
     RDKit          3D

 53 56  0  0  0  0  0  0  0  0999 V2000
  146.5870   73.9800  218.7110 H   0  0  0  0  0  0  0  0  0  0  0  0
  146.2470   73.0410  218.8800 O   0  0  0  0  0  0  0  0  0  0  0  0
  144.9220   72.8170  219.2460 C   0  0  0  0  0  0  0  0  0  0  0  0
  144.6110   71.7080  220.1010 N   0  0  0  0  0  0  0  0  0  0  0  0
  144.0610   70.4540  219.6690 C   0  0  0  0  0  0  0  0  0  0  0  0
  142.6710   70.2390  219.6220 C   0  0  0  0  0  0  0  0  0  0  0  0
  141.9814   71.0441  219.9158 H   0  0  0  0  0  0  0  0  0  0  0  0
  142.1650   69.0080  219.2040 C   0  0  0  0  0  0  0  0  0  0  0  0
  141.0775   68.8521  219.1483 H   0  0  0  0  0  0  0  0  0  0  0  0
  143.0360   67.9730  218.8560 C   0  0  0  0  0  0  0  0  0  0  0  0
  142.6308   67.0118  218.5070 H   0  0  0  0  0  0  0  0  0  0  0  0
  144.4270   68.1520  218.9490 C   0  0  0  0  0  0  0  0  0  0  0  0
  145.3670   67.0480  218.5370 C   0  0  0  0  0  0  0  0  0  0  0  0
  145.1100   65.9230  219.2980 F   0  0  0  0  0  0  0  0  0  0  0  0
  146.6840   67.4310  218.7270 F   0  0  0  0  0  0  0  0  0  0  0  0
  145.1980   66.7340  217.1990 F   0  0  0  0  0  0  0  0  0  0  0  0
  144.9300   69.4060  219.3440 C   0  0  0  0  0  0  0  0  0  0  0  0
  146.0173   69.5639  219.3978 H   0  0  0  0  0  0  0  0  0  0  0  0
  143.9570   73.6150  218.7790 C   0  0  0  0  0  0  0  0  0  0  0  0
  143.3169   73.2575  217.9590 H   0  0  0  0  0  0  0  0  0  0  0  0
  143.6780   75.2520  219.4530 S   0  0  0  0  0  0  0  0  0  0  0  0
  142.2990   74.6530  220.4320 C   0  0  0  0  0  0  0  0  0  0  0  0
  141.4400   75.3990  221.2170 C   0  0  0  0  0  0  0  0  0  0  0  0
  141.3680   76.8700  221.3290 C   0  0  0  0  0  0  0  0  0  0  0  0
  141.0600   77.4890  222.5530 C   0  0  0  0  0  0  0  0  0  0  0  0
  140.8725   76.8744  223.4458 H   0  0  0  0  0  0  0  0  0  0  0  0
  140.9910   78.8830  222.6400 C   0  0  0  0  0  0  0  0  0  0  0  0
  140.7426   79.3614  223.5989 H   0  0  0  0  0  0  0  0  0  0  0  0
  141.2370   79.6700  221.5110 C   0  0  0  0  0  0  0  0  0  0  0  0
  141.1690   81.0210  221.5980 F   0  0  0  0  0  0  0  0  0  0  0  0
  141.5610   79.0620  220.2950 C   0  0  0  0  0  0  0  0  0  0  0  0
  141.7604   79.6806  219.4075 H   0  0  0  0  0  0  0  0  0  0  0  0
  141.6320   77.6690  220.2050 C   0  0  0  0  0  0  0  0  0  0  0  0
  141.8963   77.1958  219.2478 H   0  0  0  0  0  0  0  0  0  0  0  0
  140.6980   74.5640  221.9710 N   0  0  0  0  0  0  0  0  0  0  0  0
  141.1120   73.3250  221.6190 C   0  0  0  0  0  0  0  0  0  0  0  0
  140.5860   72.0910  222.2560 C   0  0  0  0  0  0  0  0  0  0  0  0
  140.0310   71.0750  221.4550 C   0  0  0  0  0  0  0  0  0  0  0  0
  140.0022   71.1971  220.3622 H   0  0  0  0  0  0  0  0  0  0  0  0
  139.5160   69.9120  222.0360 C   0  0  0  0  0  0  0  0  0  0  0  0
  139.0897   69.1226  221.3995 H   0  0  0  0  0  0  0  0  0  0  0  0
  139.5420   69.7510  223.4240 C   0  0  0  0  0  0  0  0  0  0  0  0
  138.8790   68.2590  224.1690 S   0  0  0  0  0  0  0  0  0  0  0  0
  138.8220   67.3530  222.5910 C   0  0  0  0  0  0  0  0  0  0  0  0
  138.7541   66.2733  222.7903 H   0  0  0  0  0  0  0  0  0  0  0  0
  137.9424   67.6755  222.0146 H   0  0  0  0  0  0  0  0  0  0  0  0
  139.7351   67.5627  222.0146 H   0  0  0  0  0  0  0  0  0  0  0  0
  140.0940   70.7500  224.2300 C   0  0  0  0  0  0  0  0  0  0  0  0
  140.1222   70.6201  225.3219 H   0  0  0  0  0  0  0  0  0  0  0  0
  140.6110   71.9150  223.6530 C   0  0  0  0  0  0  0  0  0  0  0  0
  141.0398   72.6987  224.2948 H   0  0  0  0  0  0  0  0  0  0  0  0
  142.0840   73.3530  220.6810 N   0  0  0  0  0  0  0  0  0  0  0  0
  142.6170   72.5560  220.2700 H   0  0  0  0  0  0  0  0  0  0  0  0
  1  2  1  0
  2  3  1  0
  3  4  1  0
  4  5  1  0
  5  6  2  0
  6  7  1  0
  6  8  1  0
  8  9  1  0
  8 10  2  0
 10 11  1  0
 10 12  1  0
 12 13  1  0
 13 14  1  0
 13 15  1  0
 13 16  1  0
 12 17  2  0
 17 18  1  0
  3 19  2  0
 19 20  1  0
 19 21  1  0
 21 22  1  0
 22 23  2  0
 23 24  1  0
 24 25  2  0
 25 26  1  0
 25 27  1  0
 27 28  1  0
 27 29  2  0
 29 30  1  0
 29 31  1  0
 31 32  1  0
 31 33  2  0
 33 34  1  0
 23 35  1  0
 35 36  2  0
 36 37  1  0
 37 38  2  0
 38 39  1  0
 38 40  1  0
 40 41  1  0
 40 42  2  0
 42 43  1  0
 43 44  1  0
 44 45  1  0
 44 46  1  0
 44 47  1  0
 42 48  1  0
 48 49  1  0
 48 50  2  0
 50 51  1  0
 36 52  1  0
 52 53  1  0
 17  5  1  0
 52 22  1  0
 33 24  1  0
 50 37  1  0
M  CHG  1   4  -1
M  END
>  <UniqueID>  (46) 
7

>  <SMILES>  (46) 
CSc1ccc(-c2nc(-c3ccc(F)cc3)c(S/C=C(\O)[N-]c3cccc(C(F)(F)F)c3)[nH]2)cc1

>  <Energy>  (46) 
86.29116847859027

>  <Genealogy>  (46) 
CSc1ccc(-c2nc(-c3ccc(F)cc3)c(SCC(=O)[N-]c3cccc(C(F)(F)F)c3)[nH]2)cc1 (protonated)
CSc1ccc(-c2nc(-c3ccc(F)cc3)c(SC=C(O)[N-]c3cccc(C(F)(F)F)c3)[nH]2)cc1 (tautomer)
CSc1ccc(-c2nc(-c3ccc(F)cc3)c(S/C=C(\O)[N-]c3cccc(C(F)(F)F)c3)[nH]2)cc1 (cis-trans isomerization)
CSc1ccc(-c2nc(-c3ccc(F)cc3)c(S/C=C(\O)[N-]c3cccc(C(F)(F)F)c3)[nH]2)cc1 (3D coordinates assigned)
CSc1ccc(-c2nc(-c3ccc(F)cc3)c(S/C=C(\O)[N-]c3cccc(C(F)(F)F)c3)[nH]2)cc1 (optimized conformer: 86.29116847859027 kcal/mol)

>  <smiles>  (46) 
CSc1ccc(-c2nc(-c3ccc(F)cc3)c(SCC(=O)Nc3cccc(C(F)(F)F)c3)[nH]2)cc1

>  <score_type>  (46) 
oracle

>  <origin>  (46) 
autodockgpu

>  <m_score__min__energy>  (46) 
-8.5099999999999998

>  <m_primary>  (46) 
energy

>  <meeko>  (46) 
{"free_energy": -7.12, "intermolecular_energy": -10.1, "internal_energy": -2.37, "cluster_size": 5, "cluster_id": 1, "rank_in_cluster": 5}

>  <energy>  (46) 
-8.28

>  <cluster_rmsd>  (46) 
0.0

>  <rmsd>  (46) 
269.71

>  <cluster>  (46) 
2

$$$$
GRPXNZZALMQICR-QCMVQFAFNA-N
     RDKit          3D

 53 56  0  0  0  0  0  0  0  0999 V2000
  138.5580   74.4850  223.0330 H   0  0  0  0  0  0  0  0  0  0  0  0
  139.2870   74.3320  222.3460 O   0  0  0  0  0  0  0  0  0  0  0  0
  139.7250   73.0460  222.0470 C   0  0  0  0  0  0  0  0  0  0  0  0
  140.6660   72.4070  222.9220 N   0  0  0  0  0  0  0  0  0  0  0  0
  140.3300   71.5210  224.0010 C   0  0  0  0  0  0  0  0  0  0  0  0
  139.5770   70.3530  223.7840 C   0  0  0  0  0  0  0  0  0  0  0  0
  139.2362   70.1008  222.7690 H   0  0  0  0  0  0  0  0  0  0  0  0
  139.2610   69.5130  224.8530 C   0  0  0  0  0  0  0  0  0  0  0  0
  138.6905   68.5894  224.6753 H   0  0  0  0  0  0  0  0  0  0  0  0
  139.6680   69.8430  226.1490 C   0  0  0  0  0  0  0  0  0  0  0  0
  139.4349   69.1662  226.9843 H   0  0  0  0  0  0  0  0  0  0  0  0
  140.3730   71.0340  226.3910 C   0  0  0  0  0  0  0  0  0  0  0  0
  140.8460   71.3700  227.7830 C   0  0  0  0  0  0  0  0  0  0  0  0
  139.7730   71.8130  228.5330 F   0  0  0  0  0  0  0  0  0  0  0  0
  141.8110   72.3630  227.7440 F   0  0  0  0  0  0  0  0  0  0  0  0
  141.3960   70.2580  228.3960 F   0  0  0  0  0  0  0  0  0  0  0  0
  140.7140   71.8610  225.3030 C   0  0  0  0  0  0  0  0  0  0  0  0
  141.2877   72.7830  225.4785 H   0  0  0  0  0  0  0  0  0  0  0  0
  139.2900   72.4330  220.9420 C   0  0  0  0  0  0  0  0  0  0  0  0
  138.2567   72.0571  220.9099 H   0  0  0  0  0  0  0  0  0  0  0  0
  140.3450   72.2070  219.5110 S   0  0  0  0  0  0  0  0  0  0  0  0
  141.2260   73.7260  219.8750 C   0  0  0  0  0  0  0  0  0  0  0  0
  142.5900   73.8890  220.0310 C   0  0  0  0  0  0  0  0  0  0  0  0
  143.6500   72.8870  219.8030 C   0  0  0  0  0  0  0  0  0  0  0  0
  143.3380   71.5890  219.3630 C   0  0  0  0  0  0  0  0  0  0  0  0
  142.2899   71.3105  219.1791 H   0  0  0  0  0  0  0  0  0  0  0  0
  144.3540   70.6500  219.1580 C   0  0  0  0  0  0  0  0  0  0  0  0
  144.1026   69.6338  218.8201 H   0  0  0  0  0  0  0  0  0  0  0  0
  145.6890   71.0010  219.3820 C   0  0  0  0  0  0  0  0  0  0  0  0
  146.6720   70.0890  219.1830 F   0  0  0  0  0  0  0  0  0  0  0  0
  146.0080   72.2950  219.8040 C   0  0  0  0  0  0  0  0  0  0  0  0
  147.0583   72.5731  219.9758 H   0  0  0  0  0  0  0  0  0  0  0  0
  144.9950   73.2360  220.0080 C   0  0  0  0  0  0  0  0  0  0  0  0
  145.2524   74.2555  220.3309 H   0  0  0  0  0  0  0  0  0  0  0  0
  142.8310   75.1190  220.5290 N   0  0  0  0  0  0  0  0  0  0  0  0
  141.6080   75.6840  220.6520 C   0  0  0  0  0  0  0  0  0  0  0  0
  141.4040   77.0400  221.2220 C   0  0  0  0  0  0  0  0  0  0  0  0
  141.7980   78.1730  220.4860 C   0  0  0  0  0  0  0  0  0  0  0  0
  142.2436   78.0470  219.4882 H   0  0  0  0  0  0  0  0  0  0  0  0
  141.6280   79.4580  221.0120 C   0  0  0  0  0  0  0  0  0  0  0  0
  141.9351   80.3363  220.4253 H   0  0  0  0  0  0  0  0  0  0  0  0
  141.0690   79.6280  222.2810 C   0  0  0  0  0  0  0  0  0  0  0  0
  140.8540   81.2770  222.9550 S   0  0  0  0  0  0  0  0  0  0  0  0
  142.4350   81.2460  223.8560 C   0  0  0  0  0  0  0  0  0  0  0  0
  142.2402   81.2498  224.9386 H   0  0  0  0  0  0  0  0  0  0  0  0
  142.9926   80.3368  223.5870 H   0  0  0  0  0  0  0  0  0  0  0  0
  143.0278   82.1327  223.5870 H   0  0  0  0  0  0  0  0  0  0  0  0
  140.6690   78.5110  223.0200 C   0  0  0  0  0  0  0  0  0  0  0  0
  140.2212   78.6445  224.0158 H   0  0  0  0  0  0  0  0  0  0  0  0
  140.8360   77.2240  222.4980 C   0  0  0  0  0  0  0  0  0  0  0  0
  140.5218   76.3501  223.0876 H   0  0  0  0  0  0  0  0  0  0  0  0
  140.6150   74.8570  220.2580 N   0  0  0  0  0  0  0  0  0  0  0  0
  139.5830   75.0120  220.2940 H   0  0  0  0  0  0  0  0  0  0  0  0
  1  2  1  0
  2  3  1  0
  3  4  1  0
  4  5  1  0
  5  6  2  0
  6  7  1  0
  6  8  1  0
  8  9  1  0
  8 10  2  0
 10 11  1  0
 10 12  1  0
 12 13  1  0
 13 14  1  0
 13 15  1  0
 13 16  1  0
 12 17  2  0
 17 18  1  0
  3 19  2  0
 19 20  1  0
 19 21  1  0
 21 22  1  0
 22 23  2  0
 23 24  1  0
 24 25  2  0
 25 26  1  0
 25 27  1  0
 27 28  1  0
 27 29  2  0
 29 30  1  0
 29 31  1  0
 31 32  1  0
 31 33  2  0
 33 34  1  0
 23 35  1  0
 35 36  2  0
 36 37  1  0
 37 38  2  0
 38 39  1  0
 38 40  1  0
 40 41  1  0
 40 42  2  0
 42 43  1  0
 43 44  1  0
 44 45  1  0
 44 46  1  0
 44 47  1  0
 42 48  1  0
 48 49  1  0
 48 50  2  0
 50 51  1  0
 36 52  1  0
 52 53  1  0
 17  5  1  0
 52 22  1  0
 33 24  1  0
 50 37  1  0
M  CHG  1   4  -1
M  END
>  <UniqueID>  (47) 
7

>  <SMILES>  (47) 
CSc1ccc(-c2nc(-c3ccc(F)cc3)c(S/C=C(\O)[N-]c3cccc(C(F)(F)F)c3)[nH]2)cc1

>  <Energy>  (47) 
86.29116847859027

>  <Genealogy>  (47) 
CSc1ccc(-c2nc(-c3ccc(F)cc3)c(SCC(=O)[N-]c3cccc(C(F)(F)F)c3)[nH]2)cc1 (protonated)
CSc1ccc(-c2nc(-c3ccc(F)cc3)c(SC=C(O)[N-]c3cccc(C(F)(F)F)c3)[nH]2)cc1 (tautomer)
CSc1ccc(-c2nc(-c3ccc(F)cc3)c(S/C=C(\O)[N-]c3cccc(C(F)(F)F)c3)[nH]2)cc1 (cis-trans isomerization)
CSc1ccc(-c2nc(-c3ccc(F)cc3)c(S/C=C(\O)[N-]c3cccc(C(F)(F)F)c3)[nH]2)cc1 (3D coordinates assigned)
CSc1ccc(-c2nc(-c3ccc(F)cc3)c(S/C=C(\O)[N-]c3cccc(C(F)(F)F)c3)[nH]2)cc1 (optimized conformer: 86.29116847859027 kcal/mol)

>  <smiles>  (47) 
CSc1ccc(-c2nc(-c3ccc(F)cc3)c(SCC(=O)Nc3cccc(C(F)(F)F)c3)[nH]2)cc1

>  <score_type>  (47) 
oracle

>  <origin>  (47) 
autodockgpu

>  <m_score__min__energy>  (47) 
-8.5099999999999998

>  <m_primary>  (47) 
energy

>  <meeko>  (47) 
{"free_energy": -8.28, "intermolecular_energy": -11.27, "internal_energy": -1.61, "cluster_size": 3, "cluster_id": 2, "rank_in_cluster": 1}

>  <energy>  (47) 
-7.62

>  <cluster_rmsd>  (47) 
0.41

>  <rmsd>  (47) 
269.7

>  <cluster>  (47) 
2

$$$$
GRPXNZZALMQICR-QCMVQFAFNA-N
     RDKit          3D

 53 56  0  0  0  0  0  0  0  0999 V2000
  137.8790   75.1310  223.2380 H   0  0  0  0  0  0  0  0  0  0  0  0
  137.6790   76.1230  223.2040 O   0  0  0  0  0  0  0  0  0  0  0  0
  138.4730   76.9850  222.4520 C   0  0  0  0  0  0  0  0  0  0  0  0
  138.9570   78.1930  223.0540 N   0  0  0  0  0  0  0  0  0  0  0  0
  140.1840   78.8590  222.7150 C   0  0  0  0  0  0  0  0  0  0  0  0
  141.2940   78.8380  223.5790 C   0  0  0  0  0  0  0  0  0  0  0  0
  141.2335   78.2993  224.5361 H   0  0  0  0  0  0  0  0  0  0  0  0
  142.4710   79.4980  223.2260 C   0  0  0  0  0  0  0  0  0  0  0  0
  143.3430   79.4607  223.8955 H   0  0  0  0  0  0  0  0  0  0  0  0
  142.5450   80.2070  222.0230 C   0  0  0  0  0  0  0  0  0  0  0  0
  143.4828   80.7072  221.7397 H   0  0  0  0  0  0  0  0  0  0  0  0
  141.4280   80.2840  221.1740 C   0  0  0  0  0  0  0  0  0  0  0  0
  141.5190   81.0160  219.8590 C   0  0  0  0  0  0  0  0  0  0  0  0
  140.3290   80.8690  219.1730 F   0  0  0  0  0  0  0  0  0  0  0  0
  142.5510   80.5070  219.0880 F   0  0  0  0  0  0  0  0  0  0  0  0
  141.7580   82.3640  220.0630 F   0  0  0  0  0  0  0  0  0  0  0  0
  140.2530   79.5910  221.5240 C   0  0  0  0  0  0  0  0  0  0  0  0
  139.3808   79.6253  220.8547 H   0  0  0  0  0  0  0  0  0  0  0  0
  138.7530   76.6930  221.1780 C   0  0  0  0  0  0  0  0  0  0  0  0
  139.3510   77.4013  220.5858 H   0  0  0  0  0  0  0  0  0  0  0  0
  138.1810   75.1800  220.4090 S   0  0  0  0  0  0  0  0  0  0  0  0
  139.2840   74.2010  221.4300 C   0  0  0  0  0  0  0  0  0  0  0  0
  140.6480   74.0390  221.2770 C   0  0  0  0  0  0  0  0  0  0  0  0
  141.5380   74.7360  220.3260 C   0  0  0  0  0  0  0  0  0  0  0  0
  142.1010   74.0590  219.2310 C   0  0  0  0  0  0  0  0  0  0  0  0
  141.8755   72.9944  219.0706 H   0  0  0  0  0  0  0  0  0  0  0  0
  142.9470   74.7330  218.3440 C   0  0  0  0  0  0  0  0  0  0  0  0
  143.3912   74.1955  217.4933 H   0  0  0  0  0  0  0  0  0  0  0  0
  143.2290   76.0890  218.5370 C   0  0  0  0  0  0  0  0  0  0  0  0
  144.0480   76.7400  217.6750 F   0  0  0  0  0  0  0  0  0  0  0  0
  142.6590   76.7730  219.6140 C   0  0  0  0  0  0  0  0  0  0  0  0
  142.8773   77.8406  219.7639 H   0  0  0  0  0  0  0  0  0  0  0  0
  141.8120   76.1030  220.5010 C   0  0  0  0  0  0  0  0  0  0  0  0
  141.3573   76.6488  221.3408 H   0  0  0  0  0  0  0  0  0  0  0  0
  141.0670   73.0480  222.0890 N   0  0  0  0  0  0  0  0  0  0  0  0
  139.9500   72.6360  222.7310 C   0  0  0  0  0  0  0  0  0  0  0  0
  139.9470   71.5060  223.6950 C   0  0  0  0  0  0  0  0  0  0  0  0
  140.7240   71.5870  224.8660 C   0  0  0  0  0  0  0  0  0  0  0  0
  141.3178   72.4912  225.0653 H   0  0  0  0  0  0  0  0  0  0  0  0
  140.7470   70.5270  225.7780 C   0  0  0  0  0  0  0  0  0  0  0  0
  141.3532   70.6031  226.6927 H   0  0  0  0  0  0  0  0  0  0  0  0
  140.0020   69.3720  225.5300 C   0  0  0  0  0  0  0  0  0  0  0  0
  140.0340   68.0130  226.7020 S   0  0  0  0  0  0  0  0  0  0  0  0
  140.6090   69.0550  228.0790 C   0  0  0  0  0  0  0  0  0  0  0  0
  140.3457   68.5779  229.0346 H   0  0  0  0  0  0  0  0  0  0  0  0
  141.7007   69.1745  228.0173 H   0  0  0  0  0  0  0  0  0  0  0  0
  140.1280   70.0424  228.0173 H   0  0  0  0  0  0  0  0  0  0  0  0
  139.2230   69.2810  224.3730 C   0  0  0  0  0  0  0  0  0  0  0  0
  138.6293   68.3750  224.1817 H   0  0  0  0  0  0  0  0  0  0  0  0
  139.1960   70.3380  223.4580 C   0  0  0  0  0  0  0  0  0  0  0  0
  138.5844   70.2569  222.5473 H   0  0  0  0  0  0  0  0  0  0  0  0
  138.8510   73.3240  222.3490 N   0  0  0  0  0  0  0  0  0  0  0  0
  137.8590   73.1820  222.6380 H   0  0  0  0  0  0  0  0  0  0  0  0
  1  2  1  0
  2  3  1  0
  3  4  1  0
  4  5  1  0
  5  6  2  0
  6  7  1  0
  6  8  1  0
  8  9  1  0
  8 10  2  0
 10 11  1  0
 10 12  1  0
 12 13  1  0
 13 14  1  0
 13 15  1  0
 13 16  1  0
 12 17  2  0
 17 18  1  0
  3 19  2  0
 19 20  1  0
 19 21  1  0
 21 22  1  0
 22 23  2  0
 23 24  1  0
 24 25  2  0
 25 26  1  0
 25 27  1  0
 27 28  1  0
 27 29  2  0
 29 30  1  0
 29 31  1  0
 31 32  1  0
 31 33  2  0
 33 34  1  0
 23 35  1  0
 35 36  2  0
 36 37  1  0
 37 38  2  0
 38 39  1  0
 38 40  1  0
 40 41  1  0
 40 42  2  0
 42 43  1  0
 43 44  1  0
 44 45  1  0
 44 46  1  0
 44 47  1  0
 42 48  1  0
 48 49  1  0
 48 50  2  0
 50 51  1  0
 36 52  1  0
 52 53  1  0
 17  5  1  0
 52 22  1  0
 33 24  1  0
 50 37  1  0
M  CHG  1   4  -1
M  END
>  <UniqueID>  (48) 
7

>  <SMILES>  (48) 
CSc1ccc(-c2nc(-c3ccc(F)cc3)c(S/C=C(\O)[N-]c3cccc(C(F)(F)F)c3)[nH]2)cc1

>  <Energy>  (48) 
86.29116847859027

>  <Genealogy>  (48) 
CSc1ccc(-c2nc(-c3ccc(F)cc3)c(SCC(=O)[N-]c3cccc(C(F)(F)F)c3)[nH]2)cc1 (protonated)
CSc1ccc(-c2nc(-c3ccc(F)cc3)c(SC=C(O)[N-]c3cccc(C(F)(F)F)c3)[nH]2)cc1 (tautomer)
CSc1ccc(-c2nc(-c3ccc(F)cc3)c(S/C=C(\O)[N-]c3cccc(C(F)(F)F)c3)[nH]2)cc1 (cis-trans isomerization)
CSc1ccc(-c2nc(-c3ccc(F)cc3)c(S/C=C(\O)[N-]c3cccc(C(F)(F)F)c3)[nH]2)cc1 (3D coordinates assigned)
CSc1ccc(-c2nc(-c3ccc(F)cc3)c(S/C=C(\O)[N-]c3cccc(C(F)(F)F)c3)[nH]2)cc1 (optimized conformer: 86.29116847859027 kcal/mol)

>  <smiles>  (48) 
CSc1ccc(-c2nc(-c3ccc(F)cc3)c(SCC(=O)Nc3cccc(C(F)(F)F)c3)[nH]2)cc1

>  <score_type>  (48) 
oracle

>  <origin>  (48) 
autodockgpu

>  <m_score__min__energy>  (48) 
-8.5099999999999998

>  <m_primary>  (48) 
energy

>  <meeko>  (48) 
{"free_energy": -7.42, "intermolecular_energy": -10.4, "internal_energy": -1.96, "cluster_size": 3, "cluster_id": 5, "rank_in_cluster": 1}

>  <energy>  (48) 
-7.6

>  <cluster_rmsd>  (48) 
1.93

>  <rmsd>  (48) 
269.43

>  <cluster>  (48) 
2

$$$$
GRPXNZZALMQICR-QCMVQFAFNA-N
     RDKit          3D

 53 56  0  0  0  0  0  0  0  0999 V2000
  137.5660   75.4740  223.7010 H   0  0  0  0  0  0  0  0  0  0  0  0
  137.8830   76.3820  223.3800 O   0  0  0  0  0  0  0  0  0  0  0  0
  138.8100   76.4890  222.3470 C   0  0  0  0  0  0  0  0  0  0  0  0
  140.1850   76.7440  222.6670 N   0  0  0  0  0  0  0  0  0  0  0  0
  140.9000   77.9510  222.3630 C   0  0  0  0  0  0  0  0  0  0  0  0
  141.5330   78.7030  223.3690 C   0  0  0  0  0  0  0  0  0  0  0  0
  141.4895   78.3653  224.4150 H   0  0  0  0  0  0  0  0  0  0  0  0
  142.2160   79.8760  223.0450 C   0  0  0  0  0  0  0  0  0  0  0  0
  142.7262   80.4497  223.8328 H   0  0  0  0  0  0  0  0  0  0  0  0
  142.2530   80.3230  221.7220 C   0  0  0  0  0  0  0  0  0  0  0  0
  142.8119   81.2361  221.4692 H   0  0  0  0  0  0  0  0  0  0  0  0
  141.5810   79.6140  220.7120 C   0  0  0  0  0  0  0  0  0  0  0  0
  141.6530   80.0760  219.2790 C   0  0  0  0  0  0  0  0  0  0  0  0
  141.2870   79.0350  218.4460 F   0  0  0  0  0  0  0  0  0  0  0  0
  142.9390   80.4780  218.9600 F   0  0  0  0  0  0  0  0  0  0  0  0
  140.8010   81.1450  219.0650 F   0  0  0  0  0  0  0  0  0  0  0  0
  140.9180   78.4170  221.0430 C   0  0  0  0  0  0  0  0  0  0  0  0
  140.4086   77.8416  220.2559 H   0  0  0  0  0  0  0  0  0  0  0  0
  138.4100   76.3810  221.0770 C   0  0  0  0  0  0  0  0  0  0  0  0
  138.3535   77.2865  220.4550 H   0  0  0  0  0  0  0  0  0  0  0  0
  137.9630   74.8010  220.3590 S   0  0  0  0  0  0  0  0  0  0  0  0
  139.1170   73.9450  221.4340 C   0  0  0  0  0  0  0  0  0  0  0  0
  140.4940   73.9020  221.3220 C   0  0  0  0  0  0  0  0  0  0  0  0
  141.3470   74.6540  220.3800 C   0  0  0  0  0  0  0  0  0  0  0  0
  142.7090   74.8700  220.6500 C   0  0  0  0  0  0  0  0  0  0  0  0
  143.1543   74.4714  221.5735 H   0  0  0  0  0  0  0  0  0  0  0  0
  143.5010   75.5900  219.7490 C   0  0  0  0  0  0  0  0  0  0  0  0
  144.5647   75.7629  219.9696 H   0  0  0  0  0  0  0  0  0  0  0  0
  142.9430   76.0900  218.5690 C   0  0  0  0  0  0  0  0  0  0  0  0
  143.7120   76.7870  217.6970 F   0  0  0  0  0  0  0  0  0  0  0  0
  141.5930   75.8640  218.2850 C   0  0  0  0  0  0  0  0  0  0  0  0
  141.1545   76.2531  217.3542 H   0  0  0  0  0  0  0  0  0  0  0  0
  140.8000   75.1440  219.1830 C   0  0  0  0  0  0  0  0  0  0  0  0
  139.7407   74.9600  218.9506 H   0  0  0  0  0  0  0  0  0  0  0  0
  140.9740   72.9690  222.1690 N   0  0  0  0  0  0  0  0  0  0  0  0
  139.8780   72.4730  222.7890 C   0  0  0  0  0  0  0  0  0  0  0  0
  139.9460   71.3690  223.7800 C   0  0  0  0  0  0  0  0  0  0  0  0
  139.2390   70.1750  223.5430 C   0  0  0  0  0  0  0  0  0  0  0  0
  138.6508   70.0636  222.6202 H   0  0  0  0  0  0  0  0  0  0  0  0
  139.2780   69.1300  224.4700 C   0  0  0  0  0  0  0  0  0  0  0  0
  138.7262   68.1994  224.2710 H   0  0  0  0  0  0  0  0  0  0  0  0
  140.0160   69.2640  225.6490 C   0  0  0  0  0  0  0  0  0  0  0  0
  140.0630   67.9220  226.8390 S   0  0  0  0  0  0  0  0  0  0  0  0
  140.3520   69.0280  228.2560 C   0  0  0  0  0  0  0  0  0  0  0  0
  140.2061   68.4698  229.1925 H   0  0  0  0  0  0  0  0  0  0  0  0
  141.3812   69.4142  228.2158 H   0  0  0  0  0  0  0  0  0  0  0  0
  139.6433   69.8683  228.2158 H   0  0  0  0  0  0  0  0  0  0  0  0
  140.7260   70.4430  225.8940 C   0  0  0  0  0  0  0  0  0  0  0  0
  141.3137   70.5467  226.8180 H   0  0  0  0  0  0  0  0  0  0  0  0
  140.6920   71.4910  224.9690 C   0  0  0  0  0  0  0  0  0  0  0  0
  141.2512   72.4165  225.1708 H   0  0  0  0  0  0  0  0  0  0  0  0
  138.7360   73.0540  222.3610 N   0  0  0  0  0  0  0  0  0  0  0  0
  137.7510   72.8320  222.6260 H   0  0  0  0  0  0  0  0  0  0  0  0
  1  2  1  0
  2  3  1  0
  3  4  1  0
  4  5  1  0
  5  6  2  0
  6  7  1  0
  6  8  1  0
  8  9  1  0
  8 10  2  0
 10 11  1  0
 10 12  1  0
 12 13  1  0
 13 14  1  0
 13 15  1  0
 13 16  1  0
 12 17  2  0
 17 18  1  0
  3 19  2  0
 19 20  1  0
 19 21  1  0
 21 22  1  0
 22 23  2  0
 23 24  1  0
 24 25  2  0
 25 26  1  0
 25 27  1  0
 27 28  1  0
 27 29  2  0
 29 30  1  0
 29 31  1  0
 31 32  1  0
 31 33  2  0
 33 34  1  0
 23 35  1  0
 35 36  2  0
 36 37  1  0
 37 38  2  0
 38 39  1  0
 38 40  1  0
 40 41  1  0
 40 42  2  0
 42 43  1  0
 43 44  1  0
 44 45  1  0
 44 46  1  0
 44 47  1  0
 42 48  1  0
 48 49  1  0
 48 50  2  0
 50 51  1  0
 36 52  1  0
 52 53  1  0
 17  5  1  0
 52 22  1  0
 33 24  1  0
 50 37  1  0
M  CHG  1   4  -1
M  END
>  <UniqueID>  (49) 
7

>  <SMILES>  (49) 
CSc1ccc(-c2nc(-c3ccc(F)cc3)c(S/C=C(\O)[N-]c3cccc(C(F)(F)F)c3)[nH]2)cc1

>  <Energy>  (49) 
86.29116847859027

>  <Genealogy>  (49) 
CSc1ccc(-c2nc(-c3ccc(F)cc3)c(SCC(=O)[N-]c3cccc(C(F)(F)F)c3)[nH]2)cc1 (protonated)
CSc1ccc(-c2nc(-c3ccc(F)cc3)c(SC=C(O)[N-]c3cccc(C(F)(F)F)c3)[nH]2)cc1 (tautomer)
CSc1ccc(-c2nc(-c3ccc(F)cc3)c(S/C=C(\O)[N-]c3cccc(C(F)(F)F)c3)[nH]2)cc1 (cis-trans isomerization)
CSc1ccc(-c2nc(-c3ccc(F)cc3)c(S/C=C(\O)[N-]c3cccc(C(F)(F)F)c3)[nH]2)cc1 (3D coordinates assigned)
CSc1ccc(-c2nc(-c3ccc(F)cc3)c(S/C=C(\O)[N-]c3cccc(C(F)(F)F)c3)[nH]2)cc1 (optimized conformer: 86.29116847859027 kcal/mol)

>  <smiles>  (49) 
CSc1ccc(-c2nc(-c3ccc(F)cc3)c(SCC(=O)Nc3cccc(C(F)(F)F)c3)[nH]2)cc1

>  <score_type>  (49) 
oracle

>  <origin>  (49) 
autodockgpu

>  <m_score__min__energy>  (49) 
-8.5099999999999998

>  <m_primary>  (49) 
energy

>  <meeko>  (49) 
{"free_energy": -7.1, "intermolecular_energy": -10.08, "internal_energy": -2.14, "cluster_size": 3, "cluster_id": 5, "rank_in_cluster": 3}

>  <energy>  (49) 
-7.76

>  <cluster_rmsd>  (49) 
0.0

>  <rmsd>  (49) 
268.58

>  <cluster>  (49) 
3

$$$$
GRPXNZZALMQICR-QCMVQFAFNA-N
     RDKit          3D

 53 56  0  0  0  0  0  0  0  0999 V2000
  137.1030   73.3590  223.5760 H   0  0  0  0  0  0  0  0  0  0  0  0
  137.1820   72.8080  222.7290 O   0  0  0  0  0  0  0  0  0  0  0  0
  137.8640   71.5950  222.7290 C   0  0  0  0  0  0  0  0  0  0  0  0
  137.8450   70.7820  223.9110 N   0  0  0  0  0  0  0  0  0  0  0  0
  138.9610   70.5610  224.7870 C   0  0  0  0  0  0  0  0  0  0  0  0
  139.9860   71.5140  224.9250 C   0  0  0  0  0  0  0  0  0  0  0  0
  139.9399   72.4548  224.3569 H   0  0  0  0  0  0  0  0  0  0  0  0
  141.0610   71.2700  225.7800 C   0  0  0  0  0  0  0  0  0  0  0  0
  141.8499   72.0272  225.8995 H   0  0  0  0  0  0  0  0  0  0  0  0
  141.1380   70.0660  226.4850 C   0  0  0  0  0  0  0  0  0  0  0  0
  141.9765   69.8887  227.1746 H   0  0  0  0  0  0  0  0  0  0  0  0
  140.1500   69.0800  226.3180 C   0  0  0  0  0  0  0  0  0  0  0  0
  140.2130   67.7970  227.1080 C   0  0  0  0  0  0  0  0  0  0  0  0
  140.2870   68.0950  228.4550 F   0  0  0  0  0  0  0  0  0  0  0  0
  141.3260   67.0560  226.7480 F   0  0  0  0  0  0  0  0  0  0  0  0
  139.0870   67.0240  226.8790 F   0  0  0  0  0  0  0  0  0  0  0  0
  139.0540   69.3450  225.4760 C   0  0  0  0  0  0  0  0  0  0  0  0
  138.2628   68.5900  225.3578 H   0  0  0  0  0  0  0  0  0  0  0  0
  138.5480   71.2140  221.6450 C   0  0  0  0  0  0  0  0  0  0  0  0
  138.0125   71.0824  220.6932 H   0  0  0  0  0  0  0  0  0  0  0  0
  140.3130   70.9120  221.7010 S   0  0  0  0  0  0  0  0  0  0  0  0
  140.6550   72.6570  221.4600 C   0  0  0  0  0  0  0  0  0  0  0  0
  141.8220   73.2260  220.9840 C   0  0  0  0  0  0  0  0  0  0  0  0
  143.0060   72.5330  220.4370 C   0  0  0  0  0  0  0  0  0  0  0  0
  142.8820   71.3010  219.7720 C   0  0  0  0  0  0  0  0  0  0  0  0
  141.8898   70.8423  219.6491 H   0  0  0  0  0  0  0  0  0  0  0  0
  144.0150   70.6560  219.2660 C   0  0  0  0  0  0  0  0  0  0  0  0
  143.9125   69.6885  218.7528 H   0  0  0  0  0  0  0  0  0  0  0  0
  145.2770   71.2380  219.4110 C   0  0  0  0  0  0  0  0  0  0  0  0
  146.3740   70.6110  218.9200 F   0  0  0  0  0  0  0  0  0  0  0  0
  145.4070   72.4710  220.0560 C   0  0  0  0  0  0  0  0  0  0  0  0
  146.3997   72.9320  220.1657 H   0  0  0  0  0  0  0  0  0  0  0  0
  144.2760   73.1190  220.5620 C   0  0  0  0  0  0  0  0  0  0  0  0
  144.3817   74.0936  221.0609 H   0  0  0  0  0  0  0  0  0  0  0  0
  141.7690   74.5600  221.1760 N   0  0  0  0  0  0  0  0  0  0  0  0
  140.5650   74.7760  221.7530 C   0  0  0  0  0  0  0  0  0  0  0  0
  140.1130   76.1220  222.1890 C   0  0  0  0  0  0  0  0  0  0  0  0
  141.0620   77.1380  222.4110 C   0  0  0  0  0  0  0  0  0  0  0  0
  142.1301   76.9318  222.2480 H   0  0  0  0  0  0  0  0  0  0  0  0
  140.6580   78.4070  222.8370 C   0  0  0  0  0  0  0  0  0  0  0  0
  141.4075   79.1950  223.0024 H   0  0  0  0  0  0  0  0  0  0  0  0
  139.3040   78.6760  223.0530 C   0  0  0  0  0  0  0  0  0  0  0  0
  138.7870   80.3050  223.6020 S   0  0  0  0  0  0  0  0  0  0  0  0
  140.4660   81.0020  223.5040 C   0  0  0  0  0  0  0  0  0  0  0  0
  140.8557   81.1638  224.5198 H   0  0  0  0  0  0  0  0  0  0  0  0
  141.1227   80.3022  222.9665 H   0  0  0  0  0  0  0  0  0  0  0  0
  140.4340   81.9612  222.9665 H   0  0  0  0  0  0  0  0  0  0  0  0
  138.3520   77.6770  222.8320 C   0  0  0  0  0  0  0  0  0  0  0  0
  137.2853   77.8907  222.9946 H   0  0  0  0  0  0  0  0  0  0  0  0
  138.7510   76.4070  222.4050 C   0  0  0  0  0  0  0  0  0  0  0  0
  137.9959   75.6250  222.2366 H   0  0  0  0  0  0  0  0  0  0  0  0
  139.8660   73.6330  221.9330 N   0  0  0  0  0  0  0  0  0  0  0  0
  138.9420   73.5000  222.3980 H   0  0  0  0  0  0  0  0  0  0  0  0
  1  2  1  0
  2  3  1  0
  3  4  1  0
  4  5  1  0
  5  6  2  0
  6  7  1  0
  6  8  1  0
  8  9  1  0
  8 10  2  0
 10 11  1  0
 10 12  1  0
 12 13  1  0
 13 14  1  0
 13 15  1  0
 13 16  1  0
 12 17  2  0
 17 18  1  0
  3 19  2  0
 19 20  1  0
 19 21  1  0
 21 22  1  0
 22 23  2  0
 23 24  1  0
 24 25  2  0
 25 26  1  0
 25 27  1  0
 27 28  1  0
 27 29  2  0
 29 30  1  0
 29 31  1  0
 31 32  1  0
 31 33  2  0
 33 34  1  0
 23 35  1  0
 35 36  2  0
 36 37  1  0
 37 38  2  0
 38 39  1  0
 38 40  1  0
 40 41  1  0
 40 42  2  0
 42 43  1  0
 43 44  1  0
 44 45  1  0
 44 46  1  0
 44 47  1  0
 42 48  1  0
 48 49  1  0
 48 50  2  0
 50 51  1  0
 36 52  1  0
 52 53  1  0
 17  5  1  0
 52 22  1  0
 33 24  1  0
 50 37  1  0
M  CHG  1   4  -1
M  END
>  <UniqueID>  (50) 
7

>  <SMILES>  (50) 
CSc1ccc(-c2nc(-c3ccc(F)cc3)c(S/C=C(\O)[N-]c3cccc(C(F)(F)F)c3)[nH]2)cc1

>  <Energy>  (50) 
86.29116847859027

>  <Genealogy>  (50) 
CSc1ccc(-c2nc(-c3ccc(F)cc3)c(SCC(=O)[N-]c3cccc(C(F)(F)F)c3)[nH]2)cc1 (protonated)
CSc1ccc(-c2nc(-c3ccc(F)cc3)c(SC=C(O)[N-]c3cccc(C(F)(F)F)c3)[nH]2)cc1 (tautomer)
CSc1ccc(-c2nc(-c3ccc(F)cc3)c(S/C=C(\O)[N-]c3cccc(C(F)(F)F)c3)[nH]2)cc1 (cis-trans isomerization)
CSc1ccc(-c2nc(-c3ccc(F)cc3)c(S/C=C(\O)[N-]c3cccc(C(F)(F)F)c3)[nH]2)cc1 (3D coordinates assigned)
CSc1ccc(-c2nc(-c3ccc(F)cc3)c(S/C=C(\O)[N-]c3cccc(C(F)(F)F)c3)[nH]2)cc1 (optimized conformer: 86.29116847859027 kcal/mol)

>  <smiles>  (50) 
CSc1ccc(-c2nc(-c3ccc(F)cc3)c(SCC(=O)Nc3cccc(C(F)(F)F)c3)[nH]2)cc1

>  <score_type>  (50) 
oracle

>  <origin>  (50) 
autodockgpu

>  <m_score__min__energy>  (50) 
-8.5099999999999998

>  <m_primary>  (50) 
energy

>  <meeko>  (50) 
{"free_energy": -7.6, "intermolecular_energy": -10.59, "internal_energy": -2.11, "cluster_size": 3, "cluster_id": 2, "rank_in_cluster": 3}

>  <energy>  (50) 
-7.71

>  <cluster_rmsd>  (50) 
0.0

>  <rmsd>  (50) 
269.86

>  <cluster>  (50) 
4

$$$$
GRPXNZZALMQICR-QCMVQFAFNA-N
     RDKit          3D

 53 56  0  0  0  0  0  0  0  0999 V2000
  137.5130   74.9630  223.1700 H   0  0  0  0  0  0  0  0  0  0  0  0
  137.9540   75.7640  222.7340 O   0  0  0  0  0  0  0  0  0  0  0  0
  139.2490   75.6780  222.2290 C   0  0  0  0  0  0  0  0  0  0  0  0
  140.2400   76.6090  222.6850 N   0  0  0  0  0  0  0  0  0  0  0  0
  140.0320   78.0160  222.8830 C   0  0  0  0  0  0  0  0  0  0  0  0
  138.7390   78.5680  222.9260 C   0  0  0  0  0  0  0  0  0  0  0  0
  137.8605   77.9159  222.8118 H   0  0  0  0  0  0  0  0  0  0  0  0
  138.5670   79.9400  223.1130 C   0  0  0  0  0  0  0  0  0  0  0  0
  137.5533   80.3638  223.1661 H   0  0  0  0  0  0  0  0  0  0  0  0
  139.6800   80.7770  223.2330 C   0  0  0  0  0  0  0  0  0  0  0  0
  139.5378   81.8543  223.4037 H   0  0  0  0  0  0  0  0  0  0  0  0
  140.9790   80.2510  223.1370 C   0  0  0  0  0  0  0  0  0  0  0  0
  142.1790   81.1480  223.3050 C   0  0  0  0  0  0  0  0  0  0  0  0
  142.1340   82.1500  222.3540 F   0  0  0  0  0  0  0  0  0  0  0  0
  143.3520   80.4280  223.1470 F   0  0  0  0  0  0  0  0  0  0  0  0
  142.1910   81.7210  224.5640 F   0  0  0  0  0  0  0  0  0  0  0  0
  141.1440   78.8610  222.9770 C   0  0  0  0  0  0  0  0  0  0  0  0
  142.1570   78.4354  222.9254 H   0  0  0  0  0  0  0  0  0  0  0  0
  139.5470   74.7530  221.3120 C   0  0  0  0  0  0  0  0  0  0  0  0
  138.8168   74.5301  220.5201 H   0  0  0  0  0  0  0  0  0  0  0  0
  141.1030   73.8660  221.3370 S   0  0  0  0  0  0  0  0  0  0  0  0
  141.8670   75.1030  220.2860 C   0  0  0  0  0  0  0  0  0  0  0  0
  143.1260   75.0600  219.7160 C   0  0  0  0  0  0  0  0  0  0  0  0
  144.0820   73.9340  219.7260 C   0  0  0  0  0  0  0  0  0  0  0  0
  145.1770   73.9210  220.6070 C   0  0  0  0  0  0  0  0  0  0  0  0
  145.3270   74.7565  221.3066 H   0  0  0  0  0  0  0  0  0  0  0  0
  146.0770   72.8500  220.5980 C   0  0  0  0  0  0  0  0  0  0  0  0
  146.9365   72.8487  221.2845 H   0  0  0  0  0  0  0  0  0  0  0  0
  145.8850   71.7810  219.7170 C   0  0  0  0  0  0  0  0  0  0  0  0
  146.7580   70.7430  219.7110 F   0  0  0  0  0  0  0  0  0  0  0  0
  144.7890   71.7790  218.8500 C   0  0  0  0  0  0  0  0  0  0  0  0
  144.6354   70.9358  218.1605 H   0  0  0  0  0  0  0  0  0  0  0  0
  143.8880   72.8470  218.8580 C   0  0  0  0  0  0  0  0  0  0  0  0
  143.0215   72.8364  218.1804 H   0  0  0  0  0  0  0  0  0  0  0  0
  143.4170   76.2720  219.2020 N   0  0  0  0  0  0  0  0  0  0  0  0
  142.3220   77.0250  219.4570 C   0  0  0  0  0  0  0  0  0  0  0  0
  142.2360   78.4640  219.1020 C   0  0  0  0  0  0  0  0  0  0  0  0
  142.6230   78.8900  217.8180 C   0  0  0  0  0  0  0  0  0  0  0  0
  142.9749   78.1524  217.0817 H   0  0  0  0  0  0  0  0  0  0  0  0
  142.5640   80.2430  217.4700 C   0  0  0  0  0  0  0  0  0  0  0  0
  142.8647   80.5640  216.4618 H   0  0  0  0  0  0  0  0  0  0  0  0
  142.1240   81.1880  218.4000 C   0  0  0  0  0  0  0  0  0  0  0  0
  142.0510   82.9240  217.9520 S   0  0  0  0  0  0  0  0  0  0  0  0
  143.6230   82.8780  217.0350 C   0  0  0  0  0  0  0  0  0  0  0  0
  144.4618   82.8535  217.7462 H   0  0  0  0  0  0  0  0  0  0  0  0
  143.6523   81.9786  216.4024 H   0  0  0  0  0  0  0  0  0  0  0  0
  143.7048   83.7741  216.4024 H   0  0  0  0  0  0  0  0  0  0  0  0
  141.7330   80.7770  219.6770 C   0  0  0  0  0  0  0  0  0  0  0  0
  141.3798   81.5198  220.4074 H   0  0  0  0  0  0  0  0  0  0  0  0
  141.7890   79.4250  220.0300 C   0  0  0  0  0  0  0  0  0  0  0  0
  141.4822   79.1101  221.0383 H   0  0  0  0  0  0  0  0  0  0  0  0
  141.3630   76.3350  220.1140 N   0  0  0  0  0  0  0  0  0  0  0  0
  140.4480   76.6770  220.4790 H   0  0  0  0  0  0  0  0  0  0  0  0
  1  2  1  0
  2  3  1  0
  3  4  1  0
  4  5  1  0
  5  6  2  0
  6  7  1  0
  6  8  1  0
  8  9  1  0
  8 10  2  0
 10 11  1  0
 10 12  1  0
 12 13  1  0
 13 14  1  0
 13 15  1  0
 13 16  1  0
 12 17  2  0
 17 18  1  0
  3 19  2  0
 19 20  1  0
 19 21  1  0
 21 22  1  0
 22 23  2  0
 23 24  1  0
 24 25  2  0
 25 26  1  0
 25 27  1  0
 27 28  1  0
 27 29  2  0
 29 30  1  0
 29 31  1  0
 31 32  1  0
 31 33  2  0
 33 34  1  0
 23 35  1  0
 35 36  2  0
 36 37  1  0
 37 38  2  0
 38 39  1  0
 38 40  1  0
 40 41  1  0
 40 42  2  0
 42 43  1  0
 43 44  1  0
 44 45  1  0
 44 46  1  0
 44 47  1  0
 42 48  1  0
 48 49  1  0
 48 50  2  0
 50 51  1  0
 36 52  1  0
 52 53  1  0
 17  5  1  0
 52 22  1  0
 33 24  1  0
 50 37  1  0
M  CHG  1   4  -1
M  END
>  <UniqueID>  (51) 
7

>  <SMILES>  (51) 
CSc1ccc(-c2nc(-c3ccc(F)cc3)c(S/C=C(\O)[N-]c3cccc(C(F)(F)F)c3)[nH]2)cc1

>  <Energy>  (51) 
86.29116847859027

>  <Genealogy>  (51) 
CSc1ccc(-c2nc(-c3ccc(F)cc3)c(SCC(=O)[N-]c3cccc(C(F)(F)F)c3)[nH]2)cc1 (protonated)
CSc1ccc(-c2nc(-c3ccc(F)cc3)c(SC=C(O)[N-]c3cccc(C(F)(F)F)c3)[nH]2)cc1 (tautomer)
CSc1ccc(-c2nc(-c3ccc(F)cc3)c(S/C=C(\O)[N-]c3cccc(C(F)(F)F)c3)[nH]2)cc1 (cis-trans isomerization)
CSc1ccc(-c2nc(-c3ccc(F)cc3)c(S/C=C(\O)[N-]c3cccc(C(F)(F)F)c3)[nH]2)cc1 (3D coordinates assigned)
CSc1ccc(-c2nc(-c3ccc(F)cc3)c(S/C=C(\O)[N-]c3cccc(C(F)(F)F)c3)[nH]2)cc1 (optimized conformer: 86.29116847859027 kcal/mol)

>  <smiles>  (51) 
CSc1ccc(-c2nc(-c3ccc(F)cc3)c(SCC(=O)Nc3cccc(C(F)(F)F)c3)[nH]2)cc1

>  <score_type>  (51) 
oracle

>  <origin>  (51) 
autodockgpu

>  <m_score__min__energy>  (51) 
-8.5099999999999998

>  <m_primary>  (51) 
energy

>  <meeko>  (51) 
{"free_energy": -7.06, "intermolecular_energy": -10.04, "internal_energy": -2.46, "cluster_size": 6, "cluster_id": 6, "rank_in_cluster": 1}

>  <energy>  (51) 
-7.05

>  <cluster_rmsd>  (51) 
1.64

>  <rmsd>  (51) 
269.21

>  <cluster>  (51) 
4

$$$$
GRPXNZZALMQICR-QCMVQFAFNA-N
     RDKit          3D

 53 56  0  0  0  0  0  0  0  0999 V2000
  138.5330   74.1410  222.7220 H   0  0  0  0  0  0  0  0  0  0  0  0
  139.0460   73.8030  221.9170 O   0  0  0  0  0  0  0  0  0  0  0  0
  139.8590   72.6770  222.0100 C   0  0  0  0  0  0  0  0  0  0  0  0
  140.6650   72.4930  223.1820 N   0  0  0  0  0  0  0  0  0  0  0  0
  140.4280   71.5190  224.2110 C   0  0  0  0  0  0  0  0  0  0  0  0
  139.8330   70.2780  223.9240 C   0  0  0  0  0  0  0  0  0  0  0  0
  139.5422   70.0353  222.8913 H   0  0  0  0  0  0  0  0  0  0  0  0
  139.6100   69.3530  224.9450 C   0  0  0  0  0  0  0  0  0  0  0  0
  139.1641   68.3748  224.7118 H   0  0  0  0  0  0  0  0  0  0  0  0
  139.9520   69.6670  226.2630 C   0  0  0  0  0  0  0  0  0  0  0  0
  139.7930   68.9261  227.0604 H   0  0  0  0  0  0  0  0  0  0  0  0
  140.4980   70.9240  226.5760 C   0  0  0  0  0  0  0  0  0  0  0  0
  140.9030   71.2470  227.9920 C   0  0  0  0  0  0  0  0  0  0  0  0
  139.7890   71.6510  228.7030 F   0  0  0  0  0  0  0  0  0  0  0  0
  141.8440   72.2640  228.0100 F   0  0  0  0  0  0  0  0  0  0  0  0
  141.4550   70.1380  228.6100 F   0  0  0  0  0  0  0  0  0  0  0  0
  140.7470   71.8400  225.5360 C   0  0  0  0  0  0  0  0  0  0  0  0
  141.1964   72.8171  225.7667 H   0  0  0  0  0  0  0  0  0  0  0  0
  139.8990   71.7980  221.0040 C   0  0  0  0  0  0  0  0  0  0  0  0
  139.8408   70.7230  221.2298 H   0  0  0  0  0  0  0  0  0  0  0  0
  140.0450   72.3240  219.2970 S   0  0  0  0  0  0  0  0  0  0  0  0
  141.0410   73.7360  219.7790 C   0  0  0  0  0  0  0  0  0  0  0  0
  142.4040   73.7630  220.0090 C   0  0  0  0  0  0  0  0  0  0  0  0
  143.3790   72.6770  219.7830 C   0  0  0  0  0  0  0  0  0  0  0  0
  142.9820   71.3290  219.8170 C   0  0  0  0  0  0  0  0  0  0  0  0
  141.9297   71.0723  220.0087 H   0  0  0  0  0  0  0  0  0  0  0  0
  143.9200   70.3130  219.6080 C   0  0  0  0  0  0  0  0  0  0  0  0
  143.6052   69.2596  219.6443 H   0  0  0  0  0  0  0  0  0  0  0  0
  145.2570   70.6330  219.3530 C   0  0  0  0  0  0  0  0  0  0  0  0
  146.1640   69.6460  219.1500 F   0  0  0  0  0  0  0  0  0  0  0  0
  145.6550   71.9720  219.3000 C   0  0  0  0  0  0  0  0  0  0  0  0
  146.7056   72.2249  219.0943 H   0  0  0  0  0  0  0  0  0  0  0  0
  144.7200   72.9900  219.5080 C   0  0  0  0  0  0  0  0  0  0  0  0
  145.0364   74.0422  219.4560 H   0  0  0  0  0  0  0  0  0  0  0  0
  142.7290   74.9410  220.5790 N   0  0  0  0  0  0  0  0  0  0  0  0
  141.5590   75.6120  220.6710 C   0  0  0  0  0  0  0  0  0  0  0  0
  141.4490   76.9550  221.2980 C   0  0  0  0  0  0  0  0  0  0  0  0
  140.9680   77.0720  222.6150 C   0  0  0  0  0  0  0  0  0  0  0  0
  140.6879   76.1680  223.1756 H   0  0  0  0  0  0  0  0  0  0  0  0
  140.8430   78.3270  223.2170 C   0  0  0  0  0  0  0  0  0  0  0  0
  140.4713   78.4057  224.2493 H   0  0  0  0  0  0  0  0  0  0  0  0
  141.1890   79.4820  222.5110 C   0  0  0  0  0  0  0  0  0  0  0  0
  141.0260   81.0930  223.2840 S   0  0  0  0  0  0  0  0  0  0  0  0
  142.6970   81.0490  224.0060 C   0  0  0  0  0  0  0  0  0  0  0  0
  142.6224   81.0510  225.1035 H   0  0  0  0  0  0  0  0  0  0  0  0
  143.2154   80.1369  223.6753 H   0  0  0  0  0  0  0  0  0  0  0  0
  143.2627   81.9326  223.6753 H   0  0  0  0  0  0  0  0  0  0  0  0
  141.6720   79.3790  221.2030 C   0  0  0  0  0  0  0  0  0  0  0  0
  141.9522   80.2870  220.6488 H   0  0  0  0  0  0  0  0  0  0  0  0
  141.8000   78.1250  220.5970 C   0  0  0  0  0  0  0  0  0  0  0  0
  142.1772   78.0521  219.5663 H   0  0  0  0  0  0  0  0  0  0  0  0
  140.5160   74.9010  220.1880 N   0  0  0  0  0  0  0  0  0  0  0  0
  139.5030   75.1500  220.1820 H   0  0  0  0  0  0  0  0  0  0  0  0
  1  2  1  0
  2  3  1  0
  3  4  1  0
  4  5  1  0
  5  6  2  0
  6  7  1  0
  6  8  1  0
  8  9  1  0
  8 10  2  0
 10 11  1  0
 10 12  1  0
 12 13  1  0
 13 14  1  0
 13 15  1  0
 13 16  1  0
 12 17  2  0
 17 18  1  0
  3 19  2  0
 19 20  1  0
 19 21  1  0
 21 22  1  0
 22 23  2  0
 23 24  1  0
 24 25  2  0
 25 26  1  0
 25 27  1  0
 27 28  1  0
 27 29  2  0
 29 30  1  0
 29 31  1  0
 31 32  1  0
 31 33  2  0
 33 34  1  0
 23 35  1  0
 35 36  2  0
 36 37  1  0
 37 38  2  0
 38 39  1  0
 38 40  1  0
 40 41  1  0
 40 42  2  0
 42 43  1  0
 43 44  1  0
 44 45  1  0
 44 46  1  0
 44 47  1  0
 42 48  1  0
 48 49  1  0
 48 50  2  0
 50 51  1  0
 36 52  1  0
 52 53  1  0
 17  5  1  0
 52 22  1  0
 33 24  1  0
 50 37  1  0
M  CHG  1   4  -1
M  END
>  <UniqueID>  (52) 
7

>  <SMILES>  (52) 
CSc1ccc(-c2nc(-c3ccc(F)cc3)c(S/C=C(\O)[N-]c3cccc(C(F)(F)F)c3)[nH]2)cc1

>  <Energy>  (52) 
86.29116847859027

>  <Genealogy>  (52) 
CSc1ccc(-c2nc(-c3ccc(F)cc3)c(SCC(=O)[N-]c3cccc(C(F)(F)F)c3)[nH]2)cc1 (protonated)
CSc1ccc(-c2nc(-c3ccc(F)cc3)c(SC=C(O)[N-]c3cccc(C(F)(F)F)c3)[nH]2)cc1 (tautomer)
CSc1ccc(-c2nc(-c3ccc(F)cc3)c(S/C=C(\O)[N-]c3cccc(C(F)(F)F)c3)[nH]2)cc1 (cis-trans isomerization)
CSc1ccc(-c2nc(-c3ccc(F)cc3)c(S/C=C(\O)[N-]c3cccc(C(F)(F)F)c3)[nH]2)cc1 (3D coordinates assigned)
CSc1ccc(-c2nc(-c3ccc(F)cc3)c(S/C=C(\O)[N-]c3cccc(C(F)(F)F)c3)[nH]2)cc1 (optimized conformer: 86.29116847859027 kcal/mol)

>  <smiles>  (52) 
CSc1ccc(-c2nc(-c3ccc(F)cc3)c(SCC(=O)Nc3cccc(C(F)(F)F)c3)[nH]2)cc1

>  <score_type>  (52) 
oracle

>  <origin>  (52) 
autodockgpu

>  <m_score__min__energy>  (52) 
-8.5099999999999998

>  <m_primary>  (52) 
energy

>  <meeko>  (52) 
{"free_energy": -7.62, "intermolecular_energy": -10.6, "internal_energy": -1.76, "cluster_size": 3, "cluster_id": 2, "rank_in_cluster": 2}

>  <energy>  (52) 
-7.42

>  <cluster_rmsd>  (52) 
0.0

>  <rmsd>  (52) 
269.32

>  <cluster>  (52) 
5

$$$$
GRPXNZZALMQICR-QCMVQFAFNA-N
     RDKit          3D

 53 56  0  0  0  0  0  0  0  0999 V2000
  138.6780   75.0580  223.4600 H   0  0  0  0  0  0  0  0  0  0  0  0
  138.4980   75.9590  223.0320 O   0  0  0  0  0  0  0  0  0  0  0  0
  138.8690   76.2100  221.7140 C   0  0  0  0  0  0  0  0  0  0  0  0
  138.6250   77.5080  221.1550 N   0  0  0  0  0  0  0  0  0  0  0  0
  139.1660   78.7430  221.6500 C   0  0  0  0  0  0  0  0  0  0  0  0
  138.5520   79.9770  221.3720 C   0  0  0  0  0  0  0  0  0  0  0  0
  137.6341   80.0088  220.7667 H   0  0  0  0  0  0  0  0  0  0  0  0
  139.1040   81.1620  221.8620 C   0  0  0  0  0  0  0  0  0  0  0  0
  138.6087   82.1230  221.6594 H   0  0  0  0  0  0  0  0  0  0  0  0
  140.2840   81.1300  222.6090 C   0  0  0  0  0  0  0  0  0  0  0  0
  140.7017   82.0648  223.0112 H   0  0  0  0  0  0  0  0  0  0  0  0
  140.9410   79.9110  222.8500 C   0  0  0  0  0  0  0  0  0  0  0  0
  142.1930   79.8720  223.6880 C   0  0  0  0  0  0  0  0  0  0  0  0
  142.3280   81.0720  224.3600 F   0  0  0  0  0  0  0  0  0  0  0  0
  143.3080   79.6720  222.8920 F   0  0  0  0  0  0  0  0  0  0  0  0
  142.1330   78.8430  224.6120 F   0  0  0  0  0  0  0  0  0  0  0  0
  140.3620   78.7170  222.3770 C   0  0  0  0  0  0  0  0  0  0  0  0
  140.8545   77.7548  222.5809 H   0  0  0  0  0  0  0  0  0  0  0  0
  139.4210   75.2390  220.9800 C   0  0  0  0  0  0  0  0  0  0  0  0
  138.8635   74.8339  220.1226 H   0  0  0  0  0  0  0  0  0  0  0  0
  141.0440   74.5790  221.3540 S   0  0  0  0  0  0  0  0  0  0  0  0
  141.8170   75.7450  220.2320 C   0  0  0  0  0  0  0  0  0  0  0  0
  143.0660   75.6450  219.6470 C   0  0  0  0  0  0  0  0  0  0  0  0
  143.9970   74.5000  219.6980 C   0  0  0  0  0  0  0  0  0  0  0  0
  143.8840   73.4320  218.7920 C   0  0  0  0  0  0  0  0  0  0  0  0
  143.0942   73.4447  218.0265 H   0  0  0  0  0  0  0  0  0  0  0  0
  144.7710   72.3530  218.8590 C   0  0  0  0  0  0  0  0  0  0  0  0
  144.6725   71.5167  218.1512 H   0  0  0  0  0  0  0  0  0  0  0  0
  145.7820   72.3350  219.8230 C   0  0  0  0  0  0  0  0  0  0  0  0
  146.6410   71.2880  219.8860 F   0  0  0  0  0  0  0  0  0  0  0  0
  145.9120   73.4010  220.7170 C   0  0  0  0  0  0  0  0  0  0  0  0
  146.7110   73.3896  221.4729 H   0  0  0  0  0  0  0  0  0  0  0  0
  145.0280   74.4820  220.6520 C   0  0  0  0  0  0  0  0  0  0  0  0
  145.1404   75.3232  221.3518 H   0  0  0  0  0  0  0  0  0  0  0  0
  143.3750   76.8230  219.0680 N   0  0  0  0  0  0  0  0  0  0  0  0
  142.3010   77.6110  219.3010 C   0  0  0  0  0  0  0  0  0  0  0  0
  142.2400   79.0330  218.8760 C   0  0  0  0  0  0  0  0  0  0  0  0
  142.5740   79.3810  217.5540 C   0  0  0  0  0  0  0  0  0  0  0  0
  142.8662   78.5958  216.8412 H   0  0  0  0  0  0  0  0  0  0  0  0
  142.5380   80.7150  217.1380 C   0  0  0  0  0  0  0  0  0  0  0  0
  142.7958   80.9739  216.1005 H   0  0  0  0  0  0  0  0  0  0  0  0
  142.1750   81.7200  218.0380 C   0  0  0  0  0  0  0  0  0  0  0  0
  142.1310   83.4330  217.5040 S   0  0  0  0  0  0  0  0  0  0  0  0
  143.9040   83.4750  217.0920 C   0  0  0  0  0  0  0  0  0  0  0  0
  144.4957   83.4890  218.0192 H   0  0  0  0  0  0  0  0  0  0  0  0
  144.1650   82.5828  216.5039 H   0  0  0  0  0  0  0  0  0  0  0  0
  144.1225   84.3786  216.5039 H   0  0  0  0  0  0  0  0  0  0  0  0
  141.8370   81.3880  219.3530 C   0  0  0  0  0  0  0  0  0  0  0  0
  141.5440   82.1783  220.0598 H   0  0  0  0  0  0  0  0  0  0  0  0
  141.8700   80.0550  219.7730 C   0  0  0  0  0  0  0  0  0  0  0  0
  141.6054   79.8022  220.8104 H   0  0  0  0  0  0  0  0  0  0  0  0
  141.3370   76.9770  220.0050 N   0  0  0  0  0  0  0  0  0  0  0  0
  140.4360   77.3570  220.3670 H   0  0  0  0  0  0  0  0  0  0  0  0
  1  2  1  0
  2  3  1  0
  3  4  1  0
  4  5  1  0
  5  6  2  0
  6  7  1  0
  6  8  1  0
  8  9  1  0
  8 10  2  0
 10 11  1  0
 10 12  1  0
 12 13  1  0
 13 14  1  0
 13 15  1  0
 13 16  1  0
 12 17  2  0
 17 18  1  0
  3 19  2  0
 19 20  1  0
 19 21  1  0
 21 22  1  0
 22 23  2  0
 23 24  1  0
 24 25  2  0
 25 26  1  0
 25 27  1  0
 27 28  1  0
 27 29  2  0
 29 30  1  0
 29 31  1  0
 31 32  1  0
 31 33  2  0
 33 34  1  0
 23 35  1  0
 35 36  2  0
 36 37  1  0
 37 38  2  0
 38 39  1  0
 38 40  1  0
 40 41  1  0
 40 42  2  0
 42 43  1  0
 43 44  1  0
 44 45  1  0
 44 46  1  0
 44 47  1  0
 42 48  1  0
 48 49  1  0
 48 50  2  0
 50 51  1  0
 36 52  1  0
 52 53  1  0
 17  5  1  0
 52 22  1  0
 33 24  1  0
 50 37  1  0
M  CHG  1   4  -1
M  END
>  <UniqueID>  (53) 
7

>  <SMILES>  (53) 
CSc1ccc(-c2nc(-c3ccc(F)cc3)c(S/C=C(\O)[N-]c3cccc(C(F)(F)F)c3)[nH]2)cc1

>  <Energy>  (53) 
86.29116847859027

>  <Genealogy>  (53) 
CSc1ccc(-c2nc(-c3ccc(F)cc3)c(SCC(=O)[N-]c3cccc(C(F)(F)F)c3)[nH]2)cc1 (protonated)
CSc1ccc(-c2nc(-c3ccc(F)cc3)c(SC=C(O)[N-]c3cccc(C(F)(F)F)c3)[nH]2)cc1 (tautomer)
CSc1ccc(-c2nc(-c3ccc(F)cc3)c(S/C=C(\O)[N-]c3cccc(C(F)(F)F)c3)[nH]2)cc1 (cis-trans isomerization)
CSc1ccc(-c2nc(-c3ccc(F)cc3)c(S/C=C(\O)[N-]c3cccc(C(F)(F)F)c3)[nH]2)cc1 (3D coordinates assigned)
CSc1ccc(-c2nc(-c3ccc(F)cc3)c(S/C=C(\O)[N-]c3cccc(C(F)(F)F)c3)[nH]2)cc1 (optimized conformer: 86.29116847859027 kcal/mol)

>  <smiles>  (53) 
CSc1ccc(-c2nc(-c3ccc(F)cc3)c(SCC(=O)Nc3cccc(C(F)(F)F)c3)[nH]2)cc1

>  <score_type>  (53) 
oracle

>  <origin>  (53) 
autodockgpu

>  <m_score__min__energy>  (53) 
-8.5099999999999998

>  <m_primary>  (53) 
energy

>  <meeko>  (53) 
{"free_energy": -6.37, "intermolecular_energy": -9.36, "internal_energy": -2.92, "cluster_size": 6, "cluster_id": 6, "rank_in_cluster": 5}

>  <energy>  (53) 
-7.39

>  <cluster_rmsd>  (53) 
0.71

>  <rmsd>  (53) 
269.35

>  <cluster>  (53) 
5

$$$$
GRPXNZZALMQICR-QCMVQFAFNA-N
     RDKit          3D

 53 56  0  0  0  0  0  0  0  0999 V2000
  137.7490   75.5580  223.6430 H   0  0  0  0  0  0  0  0  0  0  0  0
  138.0830   76.4590  223.3230 O   0  0  0  0  0  0  0  0  0  0  0  0
  139.0490   76.5480  222.3240 C   0  0  0  0  0  0  0  0  0  0  0  0
  140.4140   76.7950  222.6930 N   0  0  0  0  0  0  0  0  0  0  0  0
  141.1080   78.0410  222.5270 C   0  0  0  0  0  0  0  0  0  0  0  0
  141.8230   78.6300  223.5850 C   0  0  0  0  0  0  0  0  0  0  0  0
  141.8613   78.1318  224.5650 H   0  0  0  0  0  0  0  0  0  0  0  0
  142.4840   79.8440  223.3960 C   0  0  0  0  0  0  0  0  0  0  0  0
  143.0608   80.2889  224.2202 H   0  0  0  0  0  0  0  0  0  0  0  0
  142.4150   80.4960  222.1620 C   0  0  0  0  0  0  0  0  0  0  0  0
  142.9547   81.4429  222.0130 H   0  0  0  0  0  0  0  0  0  0  0  0
  141.6600   79.9490  221.1100 C   0  0  0  0  0  0  0  0  0  0  0  0
  141.6180   80.6320  219.7660 C   0  0  0  0  0  0  0  0  0  0  0  0
  141.8010   81.9910  219.9410 F   0  0  0  0  0  0  0  0  0  0  0  0
  140.3980   80.4170  219.1470 F   0  0  0  0  0  0  0  0  0  0  0  0
  142.6150   80.1460  218.9380 F   0  0  0  0  0  0  0  0  0  0  0  0
  141.0200   78.7090  221.2990 C   0  0  0  0  0  0  0  0  0  0  0  0
  140.4457   78.2609  220.4747 H   0  0  0  0  0  0  0  0  0  0  0  0
  138.6960   76.4290  221.0410 C   0  0  0  0  0  0  0  0  0  0  0  0
  138.7399   77.3142  220.3895 H   0  0  0  0  0  0  0  0  0  0  0  0
  138.1530   74.8660  220.3530 S   0  0  0  0  0  0  0  0  0  0  0  0
  139.2750   73.9630  221.4220 C   0  0  0  0  0  0  0  0  0  0  0  0
  140.6480   73.8600  221.3030 C   0  0  0  0  0  0  0  0  0  0  0  0
  141.5270   74.5720  220.3540 C   0  0  0  0  0  0  0  0  0  0  0  0
  142.8900   74.7680  220.6370 C   0  0  0  0  0  0  0  0  0  0  0  0
  143.3157   74.3828  221.5753 H   0  0  0  0  0  0  0  0  0  0  0  0
  143.7070   75.4510  219.7300 C   0  0  0  0  0  0  0  0  0  0  0  0
  144.7711   75.6085  219.9601 H   0  0  0  0  0  0  0  0  0  0  0  0
  143.1730   75.9340  218.5310 C   0  0  0  0  0  0  0  0  0  0  0  0
  143.9670   76.5950  217.6530 F   0  0  0  0  0  0  0  0  0  0  0  0
  141.8230   75.7280  218.2360 C   0  0  0  0  0  0  0  0  0  0  0  0
  141.4039   76.1038  217.2910 H   0  0  0  0  0  0  0  0  0  0  0  0
  141.0040   75.0450  219.1400 C   0  0  0  0  0  0  0  0  0  0  0  0
  139.9440   74.8773  218.8988 H   0  0  0  0  0  0  0  0  0  0  0  0
  141.0910   72.9080  222.1500 N   0  0  0  0  0  0  0  0  0  0  0  0
  139.9790   72.4620  222.7770 C   0  0  0  0  0  0  0  0  0  0  0  0
  140.0050   71.3570  223.7690 C   0  0  0  0  0  0  0  0  0  0  0  0
  140.7620   71.4960  224.9480 C   0  0  0  0  0  0  0  0  0  0  0  0
  141.3188   72.4267  225.1320 H   0  0  0  0  0  0  0  0  0  0  0  0
  140.8120   70.4610  225.8870 C   0  0  0  0  0  0  0  0  0  0  0  0
  141.4033   70.5821  226.8066 H   0  0  0  0  0  0  0  0  0  0  0  0
  140.1120   69.2730  225.6590 C   0  0  0  0  0  0  0  0  0  0  0  0
  140.1780   67.9460  226.8650 S   0  0  0  0  0  0  0  0  0  0  0  0
  140.7810   69.0270  228.2000 C   0  0  0  0  0  0  0  0  0  0  0  0
  140.5320   68.5806  229.1740 H   0  0  0  0  0  0  0  0  0  0  0  0
  141.8721   69.1393  228.1163 H   0  0  0  0  0  0  0  0  0  0  0  0
  140.3033   70.0143  228.1163 H   0  0  0  0  0  0  0  0  0  0  0  0
  139.3530   69.1250  224.4950 C   0  0  0  0  0  0  0  0  0  0  0  0
  138.7953   68.1933  224.3192 H   0  0  0  0  0  0  0  0  0  0  0  0
  139.3000   70.1570  223.5530 C   0  0  0  0  0  0  0  0  0  0  0  0
  138.7038   70.0308  222.6372 H   0  0  0  0  0  0  0  0  0  0  0  0
  138.8600   73.0910  222.3540 N   0  0  0  0  0  0  0  0  0  0  0  0
  137.8690   72.9110  222.6250 H   0  0  0  0  0  0  0  0  0  0  0  0
  1  2  1  0
  2  3  1  0
  3  4  1  0
  4  5  1  0
  5  6  2  0
  6  7  1  0
  6  8  1  0
  8  9  1  0
  8 10  2  0
 10 11  1  0
 10 12  1  0
 12 13  1  0
 13 14  1  0
 13 15  1  0
 13 16  1  0
 12 17  2  0
 17 18  1  0
  3 19  2  0
 19 20  1  0
 19 21  1  0
 21 22  1  0
 22 23  2  0
 23 24  1  0
 24 25  2  0
 25 26  1  0
 25 27  1  0
 27 28  1  0
 27 29  2  0
 29 30  1  0
 29 31  1  0
 31 32  1  0
 31 33  2  0
 33 34  1  0
 23 35  1  0
 35 36  2  0
 36 37  1  0
 37 38  2  0
 38 39  1  0
 38 40  1  0
 40 41  1  0
 40 42  2  0
 42 43  1  0
 43 44  1  0
 44 45  1  0
 44 46  1  0
 44 47  1  0
 42 48  1  0
 48 49  1  0
 48 50  2  0
 50 51  1  0
 36 52  1  0
 52 53  1  0
 17  5  1  0
 52 22  1  0
 33 24  1  0
 50 37  1  0
M  CHG  1   4  -1
M  END
>  <UniqueID>  (54) 
7

>  <SMILES>  (54) 
CSc1ccc(-c2nc(-c3ccc(F)cc3)c(S/C=C(\O)[N-]c3cccc(C(F)(F)F)c3)[nH]2)cc1

>  <Energy>  (54) 
86.29116847859027

>  <Genealogy>  (54) 
CSc1ccc(-c2nc(-c3ccc(F)cc3)c(SCC(=O)[N-]c3cccc(C(F)(F)F)c3)[nH]2)cc1 (protonated)
CSc1ccc(-c2nc(-c3ccc(F)cc3)c(SC=C(O)[N-]c3cccc(C(F)(F)F)c3)[nH]2)cc1 (tautomer)
CSc1ccc(-c2nc(-c3ccc(F)cc3)c(S/C=C(\O)[N-]c3cccc(C(F)(F)F)c3)[nH]2)cc1 (cis-trans isomerization)
CSc1ccc(-c2nc(-c3ccc(F)cc3)c(S/C=C(\O)[N-]c3cccc(C(F)(F)F)c3)[nH]2)cc1 (3D coordinates assigned)
CSc1ccc(-c2nc(-c3ccc(F)cc3)c(S/C=C(\O)[N-]c3cccc(C(F)(F)F)c3)[nH]2)cc1 (optimized conformer: 86.29116847859027 kcal/mol)

>  <smiles>  (54) 
CSc1ccc(-c2nc(-c3ccc(F)cc3)c(SCC(=O)Nc3cccc(C(F)(F)F)c3)[nH]2)cc1

>  <score_type>  (54) 
oracle

>  <origin>  (54) 
autodockgpu

>  <m_score__min__energy>  (54) 
-8.5099999999999998

>  <m_primary>  (54) 
energy

>  <meeko>  (54) 
{"free_energy": -7.39, "intermolecular_energy": -10.37, "internal_energy": -1.91, "cluster_size": 3, "cluster_id": 5, "rank_in_cluster": 2}

>  <energy>  (54) 
-7.1

>  <cluster_rmsd>  (54) 
0.82

>  <rmsd>  (54) 
269.18

>  <cluster>  (54) 
5

$$$$
GRPXNZZALMQICR-QCMVQFAFNA-N
     RDKit          3D

 53 56  0  0  0  0  0  0  0  0999 V2000
  145.1060   74.7400  218.3220 H   0  0  0  0  0  0  0  0  0  0  0  0
  144.4510   74.1440  218.8140 O   0  0  0  0  0  0  0  0  0  0  0  0
  144.8410   72.8940  219.2870 C   0  0  0  0  0  0  0  0  0  0  0  0
  145.9260   72.2100  218.6420 N   0  0  0  0  0  0  0  0  0  0  0  0
  145.8630   70.8870  218.0870 C   0  0  0  0  0  0  0  0  0  0  0  0
  145.7990   70.6760  216.6980 C   0  0  0  0  0  0  0  0  0  0  0  0
  145.8002   71.5358  216.0119 H   0  0  0  0  0  0  0  0  0  0  0  0
  145.7340   69.3790  216.1880 C   0  0  0  0  0  0  0  0  0  0  0  0
  145.7055   69.2182  215.1002 H   0  0  0  0  0  0  0  0  0  0  0  0
  145.7050   68.2840  217.0550 C   0  0  0  0  0  0  0  0  0  0  0  0
  145.6757   67.2633  216.6460 H   0  0  0  0  0  0  0  0  0  0  0  0
  145.7130   68.4790  218.4470 C   0  0  0  0  0  0  0  0  0  0  0  0
  145.7210   67.2960  219.3820 C   0  0  0  0  0  0  0  0  0  0  0  0
  145.9880   67.7330  220.6660 F   0  0  0  0  0  0  0  0  0  0  0  0
  146.6900   66.3820  219.0050 F   0  0  0  0  0  0  0  0  0  0  0  0
  144.4940   66.6540  219.3710 F   0  0  0  0  0  0  0  0  0  0  0  0
  145.8080   69.7890  218.9540 C   0  0  0  0  0  0  0  0  0  0  0  0
  145.8393   69.9514  220.0415 H   0  0  0  0  0  0  0  0  0  0  0  0
  144.1900   72.3340  220.3110 C   0  0  0  0  0  0  0  0  0  0  0  0
  144.6853   72.2735  221.2913 H   0  0  0  0  0  0  0  0  0  0  0  0
  142.5320   71.6790  220.1300 S   0  0  0  0  0  0  0  0  0  0  0  0
  141.8510   73.0410  221.0790 C   0  0  0  0  0  0  0  0  0  0  0  0
  140.7990   72.9980  221.9750 C   0  0  0  0  0  0  0  0  0  0  0  0
  140.0790   71.8040  222.4630 C   0  0  0  0  0  0  0  0  0  0  0  0
  139.3930   70.9590  221.5740 C   0  0  0  0  0  0  0  0  0  0  0  0
  139.3930   71.1812  220.4967 H   0  0  0  0  0  0  0  0  0  0  0  0
  138.7100   69.8360  222.0540 C   0  0  0  0  0  0  0  0  0  0  0  0
  138.1684   69.1821  221.3547 H   0  0  0  0  0  0  0  0  0  0  0  0
  138.7150   69.5440  223.4210 C   0  0  0  0  0  0  0  0  0  0  0  0
  138.0530   68.4550  223.8840 F   0  0  0  0  0  0  0  0  0  0  0  0
  139.4090   70.3710  224.3090 C   0  0  0  0  0  0  0  0  0  0  0  0
  139.4169   70.1387  225.3842 H   0  0  0  0  0  0  0  0  0  0  0  0
  140.0930   71.4930  223.8320 C   0  0  0  0  0  0  0  0  0  0  0  0
  140.6453   72.1358  224.5332 H   0  0  0  0  0  0  0  0  0  0  0  0
  140.4410   74.2580  222.2930 N   0  0  0  0  0  0  0  0  0  0  0  0
  141.2920   75.0430  221.5940 C   0  0  0  0  0  0  0  0  0  0  0  0
  141.2150   76.5260  221.6100 C   0  0  0  0  0  0  0  0  0  0  0  0
  141.6780   77.2610  220.5020 C   0  0  0  0  0  0  0  0  0  0  0  0
  142.0824   76.7316  219.6267 H   0  0  0  0  0  0  0  0  0  0  0  0
  141.6280   78.6580  220.5050 C   0  0  0  0  0  0  0  0  0  0  0  0
  141.9875   79.2216  219.6314 H   0  0  0  0  0  0  0  0  0  0  0  0
  141.1230   79.3400  221.6140 C   0  0  0  0  0  0  0  0  0  0  0  0
  141.0610   81.1340  221.6160 S   0  0  0  0  0  0  0  0  0  0  0  0
  141.8470   81.2790  223.2520 C   0  0  0  0  0  0  0  0  0  0  0  0
  141.0889   81.1392  224.0367 H   0  0  0  0  0  0  0  0  0  0  0  0
  142.6264   80.5095  223.3538 H   0  0  0  0  0  0  0  0  0  0  0  0
  142.3005   82.2760  223.3538 H   0  0  0  0  0  0  0  0  0  0  0  0
  140.6560   78.6220  222.7190 C   0  0  0  0  0  0  0  0  0  0  0  0
  140.2510   79.1583  223.5898 H   0  0  0  0  0  0  0  0  0  0  0  0
  140.7020   77.2250  222.7210 C   0  0  0  0  0  0  0  0  0  0  0  0
  140.3354   76.6675  223.5955 H   0  0  0  0  0  0  0  0  0  0  0  0
  142.1630   74.3260  220.8490 N   0  0  0  0  0  0  0  0  0  0  0  0
  142.8860   74.6690  220.1800 H   0  0  0  0  0  0  0  0  0  0  0  0
  1  2  1  0
  2  3  1  0
  3  4  1  0
  4  5  1  0
  5  6  2  0
  6  7  1  0
  6  8  1  0
  8  9  1  0
  8 10  2  0
 10 11  1  0
 10 12  1  0
 12 13  1  0
 13 14  1  0
 13 15  1  0
 13 16  1  0
 12 17  2  0
 17 18  1  0
  3 19  2  0
 19 20  1  0
 19 21  1  0
 21 22  1  0
 22 23  2  0
 23 24  1  0
 24 25  2  0
 25 26  1  0
 25 27  1  0
 27 28  1  0
 27 29  2  0
 29 30  1  0
 29 31  1  0
 31 32  1  0
 31 33  2  0
 33 34  1  0
 23 35  1  0
 35 36  2  0
 36 37  1  0
 37 38  2  0
 38 39  1  0
 38 40  1  0
 40 41  1  0
 40 42  2  0
 42 43  1  0
 43 44  1  0
 44 45  1  0
 44 46  1  0
 44 47  1  0
 42 48  1  0
 48 49  1  0
 48 50  2  0
 50 51  1  0
 36 52  1  0
 52 53  1  0
 17  5  1  0
 52 22  1  0
 33 24  1  0
 50 37  1  0
M  CHG  1   4  -1
M  END
>  <UniqueID>  (55) 
7

>  <SMILES>  (55) 
CSc1ccc(-c2nc(-c3ccc(F)cc3)c(S/C=C(\O)[N-]c3cccc(C(F)(F)F)c3)[nH]2)cc1

>  <Energy>  (55) 
86.29116847859027

>  <Genealogy>  (55) 
CSc1ccc(-c2nc(-c3ccc(F)cc3)c(SCC(=O)[N-]c3cccc(C(F)(F)F)c3)[nH]2)cc1 (protonated)
CSc1ccc(-c2nc(-c3ccc(F)cc3)c(SC=C(O)[N-]c3cccc(C(F)(F)F)c3)[nH]2)cc1 (tautomer)
CSc1ccc(-c2nc(-c3ccc(F)cc3)c(S/C=C(\O)[N-]c3cccc(C(F)(F)F)c3)[nH]2)cc1 (cis-trans isomerization)
CSc1ccc(-c2nc(-c3ccc(F)cc3)c(S/C=C(\O)[N-]c3cccc(C(F)(F)F)c3)[nH]2)cc1 (3D coordinates assigned)
CSc1ccc(-c2nc(-c3ccc(F)cc3)c(S/C=C(\O)[N-]c3cccc(C(F)(F)F)c3)[nH]2)cc1 (optimized conformer: 86.29116847859027 kcal/mol)

>  <smiles>  (55) 
CSc1ccc(-c2nc(-c3ccc(F)cc3)c(SCC(=O)Nc3cccc(C(F)(F)F)c3)[nH]2)cc1

>  <score_type>  (55) 
oracle

>  <origin>  (55) 
autodockgpu

>  <m_score__min__energy>  (55) 
-8.5099999999999998

>  <m_primary>  (55) 
energy

>  <meeko>  (55) 
{"free_energy": -7.76, "intermolecular_energy": -10.74, "internal_energy": -1.84, "cluster_size": 1, "cluster_id": 3, "rank_in_cluster": 1}

>  <energy>  (55) 
-7.06

>  <cluster_rmsd>  (55) 
0.0

>  <rmsd>  (55) 
269.61

>  <cluster>  (55) 
6

$$$$
GRPXNZZALMQICR-QCMVQFAFNA-N
     RDKit          3D

 53 56  0  0  0  0  0  0  0  0999 V2000
  139.2620   74.6950  223.0200 H   0  0  0  0  0  0  0  0  0  0  0  0
  139.9500   74.3740  222.3490 O   0  0  0  0  0  0  0  0  0  0  0  0
  139.6240   73.4050  221.4030 C   0  0  0  0  0  0  0  0  0  0  0  0
  139.8830   72.0260  221.6990 N   0  0  0  0  0  0  0  0  0  0  0  0
  139.5130   71.3510  222.9120 C   0  0  0  0  0  0  0  0  0  0  0  0
  138.3400   70.5790  222.9940 C   0  0  0  0  0  0  0  0  0  0  0  0
  137.6860   70.4795  222.1151 H   0  0  0  0  0  0  0  0  0  0  0  0
  138.0040   69.9390  224.1880 C   0  0  0  0  0  0  0  0  0  0  0  0
  137.0972   69.3187  224.2415 H   0  0  0  0  0  0  0  0  0  0  0  0
  138.8160   70.0840  225.3150 C   0  0  0  0  0  0  0  0  0  0  0  0
  138.5563   69.5603  226.2468 H   0  0  0  0  0  0  0  0  0  0  0  0
  139.9630   70.8950  225.2660 C   0  0  0  0  0  0  0  0  0  0  0  0
  140.8610   71.0190  226.4710 C   0  0  0  0  0  0  0  0  0  0  0  0
  141.7930   70.0000  226.4510 F   0  0  0  0  0  0  0  0  0  0  0  0
  140.1230   70.9340  227.6400 F   0  0  0  0  0  0  0  0  0  0  0  0
  141.5220   72.2350  226.4660 F   0  0  0  0  0  0  0  0  0  0  0  0
  140.3110   71.5140  224.0500 C   0  0  0  0  0  0  0  0  0  0  0  0
  141.2193   72.1319  223.9940 H   0  0  0  0  0  0  0  0  0  0  0  0
  139.1030   73.7690  220.2280 C   0  0  0  0  0  0  0  0  0  0  0  0
  138.8310   72.9910  219.4995 H   0  0  0  0  0  0  0  0  0  0  0  0
  138.8350   75.4900  219.8060 S   0  0  0  0  0  0  0  0  0  0  0  0
  137.9910   75.7780  221.3630 C   0  0  0  0  0  0  0  0  0  0  0  0
  138.3630   76.6470  222.3710 C   0  0  0  0  0  0  0  0  0  0  0  0
  139.4590   77.6370  222.3510 C   0  0  0  0  0  0  0  0  0  0  0  0
  139.3470   78.8560  223.0400 C   0  0  0  0  0  0  0  0  0  0  0  0
  138.4332   79.0813  223.6094 H   0  0  0  0  0  0  0  0  0  0  0  0
  140.3930   79.7850  223.0050 C   0  0  0  0  0  0  0  0  0  0  0  0
  140.2967   80.7413  223.5400 H   0  0  0  0  0  0  0  0  0  0  0  0
  141.5600   79.4990  222.2910 C   0  0  0  0  0  0  0  0  0  0  0  0
  142.5730   80.4010  222.2590 F   0  0  0  0  0  0  0  0  0  0  0  0
  141.6860   78.2810  221.6170 C   0  0  0  0  0  0  0  0  0  0  0  0
  142.6063   78.0542  221.0588 H   0  0  0  0  0  0  0  0  0  0  0  0
  140.6430   77.3510  221.6520 C   0  0  0  0  0  0  0  0  0  0  0  0
  140.7503   76.3893  221.1289 H   0  0  0  0  0  0  0  0  0  0  0  0
  137.6120   76.3990  223.4630 N   0  0  0  0  0  0  0  0  0  0  0  0
  136.7890   75.3920  223.0920 C   0  0  0  0  0  0  0  0  0  0  0  0
  135.8170   74.7630  224.0220 C   0  0  0  0  0  0  0  0  0  0  0  0
  135.5640   73.3820  223.9380 C   0  0  0  0  0  0  0  0  0  0  0  0
  136.0973   72.7747  223.1918 H   0  0  0  0  0  0  0  0  0  0  0  0
  134.6410   72.7740  224.7940 C   0  0  0  0  0  0  0  0  0  0  0  0
  134.4549   71.6923  224.7215 H   0  0  0  0  0  0  0  0  0  0  0  0
  133.9540   73.5380  225.7420 C   0  0  0  0  0  0  0  0  0  0  0  0
  132.7690   72.7560  226.8390 S   0  0  0  0  0  0  0  0  0  0  0  0
  133.9090   71.4190  227.3150 C   0  0  0  0  0  0  0  0  0  0  0  0
  133.9627   71.3561  228.4119 H   0  0  0  0  0  0  0  0  0  0  0  0
  133.5432   70.4638  226.9104 H   0  0  0  0  0  0  0  0  0  0  0  0
  134.9100   71.6293  226.9104 H   0  0  0  0  0  0  0  0  0  0  0  0
  134.2000   74.9100  225.8390 C   0  0  0  0  0  0  0  0  0  0  0  0
  133.6657   75.5106  226.5899 H   0  0  0  0  0  0  0  0  0  0  0  0
  135.1230   75.5230  224.9850 C   0  0  0  0  0  0  0  0  0  0  0  0
  135.3082   76.6043  225.0655 H   0  0  0  0  0  0  0  0  0  0  0  0
  136.9980   74.9980  221.8160 N   0  0  0  0  0  0  0  0  0  0  0  0
  136.5470   74.2170  221.2920 H   0  0  0  0  0  0  0  0  0  0  0  0
  1  2  1  0
  2  3  1  0
  3  4  1  0
  4  5  1  0
  5  6  2  0
  6  7  1  0
  6  8  1  0
  8  9  1  0
  8 10  2  0
 10 11  1  0
 10 12  1  0
 12 13  1  0
 13 14  1  0
 13 15  1  0
 13 16  1  0
 12 17  2  0
 17 18  1  0
  3 19  2  0
 19 20  1  0
 19 21  1  0
 21 22  1  0
 22 23  2  0
 23 24  1  0
 24 25  2  0
 25 26  1  0
 25 27  1  0
 27 28  1  0
 27 29  2  0
 29 30  1  0
 29 31  1  0
 31 32  1  0
 31 33  2  0
 33 34  1  0
 23 35  1  0
 35 36  2  0
 36 37  1  0
 37 38  2  0
 38 39  1  0
 38 40  1  0
 40 41  1  0
 40 42  2  0
 42 43  1  0
 43 44  1  0
 44 45  1  0
 44 46  1  0
 44 47  1  0
 42 48  1  0
 48 49  1  0
 48 50  2  0
 50 51  1  0
 36 52  1  0
 52 53  1  0
 17  5  1  0
 52 22  1  0
 33 24  1  0
 50 37  1  0
M  CHG  1   4  -1
M  END
>  <UniqueID>  (56) 
7

>  <SMILES>  (56) 
CSc1ccc(-c2nc(-c3ccc(F)cc3)c(S/C=C(\O)[N-]c3cccc(C(F)(F)F)c3)[nH]2)cc1

>  <Energy>  (56) 
86.29116847859027

>  <Genealogy>  (56) 
CSc1ccc(-c2nc(-c3ccc(F)cc3)c(SCC(=O)[N-]c3cccc(C(F)(F)F)c3)[nH]2)cc1 (protonated)
CSc1ccc(-c2nc(-c3ccc(F)cc3)c(SC=C(O)[N-]c3cccc(C(F)(F)F)c3)[nH]2)cc1 (tautomer)
CSc1ccc(-c2nc(-c3ccc(F)cc3)c(S/C=C(\O)[N-]c3cccc(C(F)(F)F)c3)[nH]2)cc1 (cis-trans isomerization)
CSc1ccc(-c2nc(-c3ccc(F)cc3)c(S/C=C(\O)[N-]c3cccc(C(F)(F)F)c3)[nH]2)cc1 (3D coordinates assigned)
CSc1ccc(-c2nc(-c3ccc(F)cc3)c(S/C=C(\O)[N-]c3cccc(C(F)(F)F)c3)[nH]2)cc1 (optimized conformer: 86.29116847859027 kcal/mol)

>  <smiles>  (56) 
CSc1ccc(-c2nc(-c3ccc(F)cc3)c(SCC(=O)Nc3cccc(C(F)(F)F)c3)[nH]2)cc1

>  <score_type>  (56) 
oracle

>  <origin>  (56) 
autodockgpu

>  <m_score__min__energy>  (56) 
-8.5099999999999998

>  <m_primary>  (56) 
energy

>  <meeko>  (56) 
{"free_energy": -7.05, "intermolecular_energy": -10.03, "internal_energy": -1.81, "cluster_size": 2, "cluster_id": 4, "rank_in_cluster": 2}

>  <energy>  (56) 
-6.74

>  <cluster_rmsd>  (56) 
0.74

>  <rmsd>  (56) 
269.59

>  <cluster>  (56) 
6

$$$$
GRPXNZZALMQICR-QCMVQFAFNA-N
     RDKit          3D

 53 56  0  0  0  0  0  0  0  0999 V2000
  146.5540   73.9260  218.3880 H   0  0  0  0  0  0  0  0  0  0  0  0
  146.1730   73.0170  218.6200 O   0  0  0  0  0  0  0  0  0  0  0  0
  144.9170   72.8990  219.2090 C   0  0  0  0  0  0  0  0  0  0  0  0
  144.6660   71.8080  220.1070 N   0  0  0  0  0  0  0  0  0  0  0  0
  144.4210   70.4480  219.7160 C   0  0  0  0  0  0  0  0  0  0  0  0
  145.4710   69.5920  219.3400 C   0  0  0  0  0  0  0  0  0  0  0  0
  146.5075   69.9603  219.3453 H   0  0  0  0  0  0  0  0  0  0  0  0
  145.2020   68.2760  218.9600 C   0  0  0  0  0  0  0  0  0  0  0  0
  146.0288   67.6036  218.6875 H   0  0  0  0  0  0  0  0  0  0  0  0
  143.8850   67.8110  218.9250 C   0  0  0  0  0  0  0  0  0  0  0  0
  143.6813   66.7667  218.6460 H   0  0  0  0  0  0  0  0  0  0  0  0
  142.8190   68.6690  219.2440 C   0  0  0  0  0  0  0  0  0  0  0  0
  141.4010   68.1570  219.2440 C   0  0  0  0  0  0  0  0  0  0  0  0
  141.2650   67.1970  218.2590 F   0  0  0  0  0  0  0  0  0  0  0  0
  140.5090   69.1870  218.9970 F   0  0  0  0  0  0  0  0  0  0  0  0
  141.0830   67.5940  220.4680 F   0  0  0  0  0  0  0  0  0  0  0  0
  143.1010   69.9860  219.6550 C   0  0  0  0  0  0  0  0  0  0  0  0
  142.2755   70.6587  219.9309 H   0  0  0  0  0  0  0  0  0  0  0  0
  143.9560   73.7800  218.9150 C   0  0  0  0  0  0  0  0  0  0  0  0
  143.2663   73.5630  218.0860 H   0  0  0  0  0  0  0  0  0  0  0  0
  143.7610   75.3050  219.8350 S   0  0  0  0  0  0  0  0  0  0  0  0
  142.3090   74.6600  220.6670 C   0  0  0  0  0  0  0  0  0  0  0  0
  141.3540   75.3750  221.3660 C   0  0  0  0  0  0  0  0  0  0  0  0
  141.2300   76.8420  221.4800 C   0  0  0  0  0  0  0  0  0  0  0  0
  141.4920   77.6780  220.3810 C   0  0  0  0  0  0  0  0  0  0  0  0
  141.7902   77.2391  219.4174 H   0  0  0  0  0  0  0  0  0  0  0  0
  141.3750   79.0660  220.5080 C   0  0  0  0  0  0  0  0  0  0  0  0
  141.5888   79.7159  219.6466 H   0  0  0  0  0  0  0  0  0  0  0  0
  140.9870   79.6290  221.7270 C   0  0  0  0  0  0  0  0  0  0  0  0
  140.8740   80.9750  221.8480 F   0  0  0  0  0  0  0  0  0  0  0  0
  140.7080   78.8030  222.8190 C   0  0  0  0  0  0  0  0  0  0  0  0
  140.3983   79.2453  223.7774 H   0  0  0  0  0  0  0  0  0  0  0  0
  140.8220   77.4150  222.6950 C   0  0  0  0  0  0  0  0  0  0  0  0
  140.5907   76.7683  223.5543 H   0  0  0  0  0  0  0  0  0  0  0  0
  140.5650   74.5120  222.0380 N   0  0  0  0  0  0  0  0  0  0  0  0
  141.0470   73.2890  221.7230 C   0  0  0  0  0  0  0  0  0  0  0  0
  140.4960   72.0350  222.2960 C   0  0  0  0  0  0  0  0  0  0  0  0
  140.4440   71.8700  223.6930 C   0  0  0  0  0  0  0  0  0  0  0  0
  140.8010   72.6765  224.3504 H   0  0  0  0  0  0  0  0  0  0  0  0
  139.9430   70.6910  224.2530 C   0  0  0  0  0  0  0  0  0  0  0  0
  139.9029   70.5762  225.3463 H   0  0  0  0  0  0  0  0  0  0  0  0
  139.4930   69.6580  223.4260 C   0  0  0  0  0  0  0  0  0  0  0  0
  138.8520   68.1450  224.1460 S   0  0  0  0  0  0  0  0  0  0  0  0
  139.7050   68.3960  225.7340 C   0  0  0  0  0  0  0  0  0  0  0  0
  139.0088   68.1911  226.5606 H   0  0  0  0  0  0  0  0  0  0  0  0
  140.5644   67.7127  225.8006 H   0  0  0  0  0  0  0  0  0  0  0  0
  140.0574   69.4359  225.8006 H   0  0  0  0  0  0  0  0  0  0  0  0
  139.5350   69.8110  222.0370 C   0  0  0  0  0  0  0  0  0  0  0  0
  139.1741   69.0016  221.3854 H   0  0  0  0  0  0  0  0  0  0  0  0
  140.0340   70.9890  221.4730 C   0  0  0  0  0  0  0  0  0  0  0  0
  140.0661   71.0999  220.3791 H   0  0  0  0  0  0  0  0  0  0  0  0
  142.1070   73.3520  220.8870 N   0  0  0  0  0  0  0  0  0  0  0  0
  142.7020   72.5730  220.5270 H   0  0  0  0  0  0  0  0  0  0  0  0
  1  2  1  0
  2  3  1  0
  3  4  1  0
  4  5  1  0
  5  6  2  0
  6  7  1  0
  6  8  1  0
  8  9  1  0
  8 10  2  0
 10 11  1  0
 10 12  1  0
 12 13  1  0
 13 14  1  0
 13 15  1  0
 13 16  1  0
 12 17  2  0
 17 18  1  0
  3 19  2  0
 19 20  1  0
 19 21  1  0
 21 22  1  0
 22 23  2  0
 23 24  1  0
 24 25  2  0
 25 26  1  0
 25 27  1  0
 27 28  1  0
 27 29  2  0
 29 30  1  0
 29 31  1  0
 31 32  1  0
 31 33  2  0
 33 34  1  0
 23 35  1  0
 35 36  2  0
 36 37  1  0
 37 38  2  0
 38 39  1  0
 38 40  1  0
 40 41  1  0
 40 42  2  0
 42 43  1  0
 43 44  1  0
 44 45  1  0
 44 46  1  0
 44 47  1  0
 42 48  1  0
 48 49  1  0
 48 50  2  0
 50 51  1  0
 36 52  1  0
 52 53  1  0
 17  5  1  0
 52 22  1  0
 33 24  1  0
 50 37  1  0
M  CHG  1   4  -1
M  END
>  <UniqueID>  (57) 
7

>  <SMILES>  (57) 
CSc1ccc(-c2nc(-c3ccc(F)cc3)c(S/C=C(\O)[N-]c3cccc(C(F)(F)F)c3)[nH]2)cc1

>  <Energy>  (57) 
86.29116847859027

>  <Genealogy>  (57) 
CSc1ccc(-c2nc(-c3ccc(F)cc3)c(SCC(=O)[N-]c3cccc(C(F)(F)F)c3)[nH]2)cc1 (protonated)
CSc1ccc(-c2nc(-c3ccc(F)cc3)c(SC=C(O)[N-]c3cccc(C(F)(F)F)c3)[nH]2)cc1 (tautomer)
CSc1ccc(-c2nc(-c3ccc(F)cc3)c(S/C=C(\O)[N-]c3cccc(C(F)(F)F)c3)[nH]2)cc1 (cis-trans isomerization)
CSc1ccc(-c2nc(-c3ccc(F)cc3)c(S/C=C(\O)[N-]c3cccc(C(F)(F)F)c3)[nH]2)cc1 (3D coordinates assigned)
CSc1ccc(-c2nc(-c3ccc(F)cc3)c(S/C=C(\O)[N-]c3cccc(C(F)(F)F)c3)[nH]2)cc1 (optimized conformer: 86.29116847859027 kcal/mol)

>  <smiles>  (57) 
CSc1ccc(-c2nc(-c3ccc(F)cc3)c(SCC(=O)Nc3cccc(C(F)(F)F)c3)[nH]2)cc1

>  <score_type>  (57) 
oracle

>  <origin>  (57) 
autodockgpu

>  <m_score__min__energy>  (57) 
-8.5099999999999998

>  <m_primary>  (57) 
energy

>  <meeko>  (57) 
{"free_energy": -7.12, "intermolecular_energy": -10.1, "internal_energy": -2.47, "cluster_size": 5, "cluster_id": 1, "rank_in_cluster": 4}

>  <energy>  (57) 
-6.71

>  <cluster_rmsd>  (57) 
0.8

>  <rmsd>  (57) 
269.63

>  <cluster>  (57) 
6

$$$$
GRPXNZZALMQICR-QCMVQFAFNA-N
     RDKit          3D

 53 56  0  0  0  0  0  0  0  0999 V2000
  146.3990   73.8420  218.4330 H   0  0  0  0  0  0  0  0  0  0  0  0
  145.9580   72.9570  218.6530 O   0  0  0  0  0  0  0  0  0  0  0  0
  144.6710   72.9130  219.1820 C   0  0  0  0  0  0  0  0  0  0  0  0
  144.3260   71.8600  220.0930 N   0  0  0  0  0  0  0  0  0  0  0  0
  143.9130   70.5370  219.7170 C   0  0  0  0  0  0  0  0  0  0  0  0
  142.5530   70.1870  219.6390 C   0  0  0  0  0  0  0  0  0  0  0  0
  141.7802   70.9365  219.8649 H   0  0  0  0  0  0  0  0  0  0  0  0
  142.1810   68.8920  219.2760 C   0  0  0  0  0  0  0  0  0  0  0  0
  141.1159   68.6291  219.1958 H   0  0  0  0  0  0  0  0  0  0  0  0
  143.1590   67.9280  219.0140 C   0  0  0  0  0  0  0  0  0  0  0  0
  142.8598   66.9146  218.7082 H   0  0  0  0  0  0  0  0  0  0  0  0
  144.5220   68.2460  219.1390 C   0  0  0  0  0  0  0  0  0  0  0  0
  145.5770   67.2180  218.8190 C   0  0  0  0  0  0  0  0  0  0  0  0
  145.9790   67.3720  217.5050 F   0  0  0  0  0  0  0  0  0  0  0  0
  145.0790   65.9370  218.9910 F   0  0  0  0  0  0  0  0  0  0  0  0
  146.6760   67.3680  219.6460 F   0  0  0  0  0  0  0  0  0  0  0  0
  144.8890   69.5630  219.4780 C   0  0  0  0  0  0  0  0  0  0  0  0
  145.9536   69.8286  219.5557 H   0  0  0  0  0  0  0  0  0  0  0  0
  143.7690   73.8300  218.8190 C   0  0  0  0  0  0  0  0  0  0  0  0
  143.1232   73.6310  217.9510 H   0  0  0  0  0  0  0  0  0  0  0  0
  143.5830   75.3750  219.7080 S   0  0  0  0  0  0  0  0  0  0  0  0
  142.1810   74.7240  220.6190 C   0  0  0  0  0  0  0  0  0  0  0  0
  141.2570   75.4360  221.3600 C   0  0  0  0  0  0  0  0  0  0  0  0
  141.1250   76.9030  221.4670 C   0  0  0  0  0  0  0  0  0  0  0  0
  140.9970   77.5290  222.7190 C   0  0  0  0  0  0  0  0  0  0  0  0
  140.9990   76.9232  223.6371 H   0  0  0  0  0  0  0  0  0  0  0  0
  140.8670   78.9200  222.8020 C   0  0  0  0  0  0  0  0  0  0  0  0
  140.7608   79.4040  223.7841 H   0  0  0  0  0  0  0  0  0  0  0  0
  140.8720   79.6950  221.6390 C   0  0  0  0  0  0  0  0  0  0  0  0
  140.7450   81.0420  221.7210 F   0  0  0  0  0  0  0  0  0  0  0  0
  141.0150   79.0810  220.3920 C   0  0  0  0  0  0  0  0  0  0  0  0
  141.0237   79.6914  219.4769 H   0  0  0  0  0  0  0  0  0  0  0  0
  141.1470   77.6920  220.3060 C   0  0  0  0  0  0  0  0  0  0  0  0
  141.2689   77.2143  219.3227 H   0  0  0  0  0  0  0  0  0  0  0  0
  140.5110   74.5720  222.0790 N   0  0  0  0  0  0  0  0  0  0  0  0
  140.9880   73.3510  221.7490 C   0  0  0  0  0  0  0  0  0  0  0  0
  140.4790   72.0970  222.3600 C   0  0  0  0  0  0  0  0  0  0  0  0
  139.8930   71.1110  221.5440 C   0  0  0  0  0  0  0  0  0  0  0  0
  139.8277   71.2704  220.4576 H   0  0  0  0  0  0  0  0  0  0  0  0
  139.3930   69.9300  222.1030 C   0  0  0  0  0  0  0  0  0  0  0  0
  138.9424   69.1638  221.4551 H   0  0  0  0  0  0  0  0  0  0  0  0
  139.4650   69.7220  223.4830 C   0  0  0  0  0  0  0  0  0  0  0  0
  138.8210   68.2070  224.1980 S   0  0  0  0  0  0  0  0  0  0  0  0
  139.7340   68.4140  225.7590 C   0  0  0  0  0  0  0  0  0  0  0  0
  139.0505   68.2590  226.6068 H   0  0  0  0  0  0  0  0  0  0  0  0
  140.5502   67.6781  225.8068 H   0  0  0  0  0  0  0  0  0  0  0  0
  140.1530   69.4299  225.8068 H   0  0  0  0  0  0  0  0  0  0  0  0
  140.0480   70.6910  224.3030 C   0  0  0  0  0  0  0  0  0  0  0  0
  140.1125   70.5238  225.3883 H   0  0  0  0  0  0  0  0  0  0  0  0
  140.5500   71.8730  223.7490 C   0  0  0  0  0  0  0  0  0  0  0  0
  141.0034   72.6330  224.4024 H   0  0  0  0  0  0  0  0  0  0  0  0
  142.0040   73.4160  220.8590 N   0  0  0  0  0  0  0  0  0  0  0  0
  142.5860   72.6390  220.4760 H   0  0  0  0  0  0  0  0  0  0  0  0
  1  2  1  0
  2  3  1  0
  3  4  1  0
  4  5  1  0
  5  6  2  0
  6  7  1  0
  6  8  1  0
  8  9  1  0
  8 10  2  0
 10 11  1  0
 10 12  1  0
 12 13  1  0
 13 14  1  0
 13 15  1  0
 13 16  1  0
 12 17  2  0
 17 18  1  0
  3 19  2  0
 19 20  1  0
 19 21  1  0
 21 22  1  0
 22 23  2  0
 23 24  1  0
 24 25  2  0
 25 26  1  0
 25 27  1  0
 27 28  1  0
 27 29  2  0
 29 30  1  0
 29 31  1  0
 31 32  1  0
 31 33  2  0
 33 34  1  0
 23 35  1  0
 35 36  2  0
 36 37  1  0
 37 38  2  0
 38 39  1  0
 38 40  1  0
 40 41  1  0
 40 42  2  0
 42 43  1  0
 43 44  1  0
 44 45  1  0
 44 46  1  0
 44 47  1  0
 42 48  1  0
 48 49  1  0
 48 50  2  0
 50 51  1  0
 36 52  1  0
 52 53  1  0
 17  5  1  0
 52 22  1  0
 33 24  1  0
 50 37  1  0
M  CHG  1   4  -1
M  END
>  <UniqueID>  (58) 
7

>  <SMILES>  (58) 
CSc1ccc(-c2nc(-c3ccc(F)cc3)c(S/C=C(\O)[N-]c3cccc(C(F)(F)F)c3)[nH]2)cc1

>  <Energy>  (58) 
86.29116847859027

>  <Genealogy>  (58) 
CSc1ccc(-c2nc(-c3ccc(F)cc3)c(SCC(=O)[N-]c3cccc(C(F)(F)F)c3)[nH]2)cc1 (protonated)
CSc1ccc(-c2nc(-c3ccc(F)cc3)c(SC=C(O)[N-]c3cccc(C(F)(F)F)c3)[nH]2)cc1 (tautomer)
CSc1ccc(-c2nc(-c3ccc(F)cc3)c(S/C=C(\O)[N-]c3cccc(C(F)(F)F)c3)[nH]2)cc1 (cis-trans isomerization)
CSc1ccc(-c2nc(-c3ccc(F)cc3)c(S/C=C(\O)[N-]c3cccc(C(F)(F)F)c3)[nH]2)cc1 (3D coordinates assigned)
CSc1ccc(-c2nc(-c3ccc(F)cc3)c(S/C=C(\O)[N-]c3cccc(C(F)(F)F)c3)[nH]2)cc1 (optimized conformer: 86.29116847859027 kcal/mol)

>  <smiles>  (58) 
CSc1ccc(-c2nc(-c3ccc(F)cc3)c(SCC(=O)Nc3cccc(C(F)(F)F)c3)[nH]2)cc1

>  <score_type>  (58) 
oracle

>  <origin>  (58) 
autodockgpu

>  <m_score__min__energy>  (58) 
-8.5099999999999998

>  <m_primary>  (58) 
energy

>  <meeko>  (58) 
{"free_energy": -7.3, "intermolecular_energy": -10.29, "internal_energy": -2.37, "cluster_size": 5, "cluster_id": 1, "rank_in_cluster": 3}

>  <energy>  (58) 
-6.7

>  <cluster_rmsd>  (58) 
0.71

>  <rmsd>  (58) 
269.64

>  <cluster>  (58) 
6

$$$$
GRPXNZZALMQICR-QCMVQFAFNA-N
     RDKit          3D

 53 56  0  0  0  0  0  0  0  0999 V2000
  145.8520   74.3350  217.8950 H   0  0  0  0  0  0  0  0  0  0  0  0
  146.0490   73.3420  217.9390 O   0  0  0  0  0  0  0  0  0  0  0  0
  145.4770   72.5440  218.9260 C   0  0  0  0  0  0  0  0  0  0  0  0
  146.1350   71.3290  219.3100 N   0  0  0  0  0  0  0  0  0  0  0  0
  145.5360   70.0240  219.3190 C   0  0  0  0  0  0  0  0  0  0  0  0
  146.3190   68.8560  219.3240 C   0  0  0  0  0  0  0  0  0  0  0  0
  147.4164   68.9316  219.3264 H   0  0  0  0  0  0  0  0  0  0  0  0
  145.7080   67.6010  219.3260 C   0  0  0  0  0  0  0  0  0  0  0  0
  146.3246   66.6904  219.3505 H   0  0  0  0  0  0  0  0  0  0  0  0
  144.3150   67.4990  219.2970 C   0  0  0  0  0  0  0  0  0  0  0  0
  143.8390   66.5077  219.3221 H   0  0  0  0  0  0  0  0  0  0  0  0
  143.5180   68.6550  219.2360 C   0  0  0  0  0  0  0  0  0  0  0  0
  142.0140   68.5450  219.2440 C   0  0  0  0  0  0  0  0  0  0  0  0
  141.4740   69.7280  219.7130 F   0  0  0  0  0  0  0  0  0  0  0  0
  141.6040   67.5050  220.0620 F   0  0  0  0  0  0  0  0  0  0  0  0
  141.5340   68.3050  217.9680 F   0  0  0  0  0  0  0  0  0  0  0  0
  144.1410   69.9170  219.2630 C   0  0  0  0  0  0  0  0  0  0  0  0
  143.5256   70.8285  219.2399 H   0  0  0  0  0  0  0  0  0  0  0  0
  144.3160   72.9010  219.4830 C   0  0  0  0  0  0  0  0  0  0  0  0
  143.5674   72.1258  219.7037 H   0  0  0  0  0  0  0  0  0  0  0  0
  143.9460   74.6090  219.8800 S   0  0  0  0  0  0  0  0  0  0  0  0
  142.4570   74.1200  220.7550 C   0  0  0  0  0  0  0  0  0  0  0  0
  141.4860   74.9480  221.2870 C   0  0  0  0  0  0  0  0  0  0  0  0
  141.3740   76.4130  221.1470 C   0  0  0  0  0  0  0  0  0  0  0  0
  140.9680   77.2160  222.2270 C   0  0  0  0  0  0  0  0  0  0  0  0
  140.7335   76.7523  223.1965 H   0  0  0  0  0  0  0  0  0  0  0  0
  140.8610   78.6020  222.0740 C   0  0  0  0  0  0  0  0  0  0  0  0
  140.5355   79.2243  222.9206 H   0  0  0  0  0  0  0  0  0  0  0  0
  141.1670   79.1980  220.8470 C   0  0  0  0  0  0  0  0  0  0  0  0
  141.0630   80.5420  220.7020 F   0  0  0  0  0  0  0  0  0  0  0  0
  141.5870   78.4090  219.7740 C   0  0  0  0  0  0  0  0  0  0  0  0
  141.8317   78.8787  218.8099 H   0  0  0  0  0  0  0  0  0  0  0  0
  141.6970   77.0230  219.9230 C   0  0  0  0  0  0  0  0  0  0  0  0
  142.0381   76.4071  219.0778 H   0  0  0  0  0  0  0  0  0  0  0  0
  140.6640   74.2150  222.0650 N   0  0  0  0  0  0  0  0  0  0  0  0
  141.1440   72.9530  221.9790 C   0  0  0  0  0  0  0  0  0  0  0  0
  140.5580   71.8170  222.7350 C   0  0  0  0  0  0  0  0  0  0  0  0
  140.6680   71.7820  224.1380 C   0  0  0  0  0  0  0  0  0  0  0  0
  141.1754   72.6029  224.6659 H   0  0  0  0  0  0  0  0  0  0  0  0
  140.1380   70.7130  224.8660 C   0  0  0  0  0  0  0  0  0  0  0  0
  140.2266   70.6984  225.9623 H   0  0  0  0  0  0  0  0  0  0  0  0
  139.4960   69.6630  224.2050 C   0  0  0  0  0  0  0  0  0  0  0  0
  138.8170   68.2920  225.1410 S   0  0  0  0  0  0  0  0  0  0  0  0
  140.1910   68.2700  226.3350 C   0  0  0  0  0  0  0  0  0  0  0  0
  139.7876   68.2765  227.3584 H   0  0  0  0  0  0  0  0  0  0  0  0
  140.7934   67.3621  226.1841 H   0  0  0  0  0  0  0  0  0  0  0  0
  140.8222   69.1581  226.1841 H   0  0  0  0  0  0  0  0  0  0  0  0
  139.3760   69.6880  222.8120 C   0  0  0  0  0  0  0  0  0  0  0  0
  138.8638   68.8656  222.2911 H   0  0  0  0  0  0  0  0  0  0  0  0
  139.9050   70.7550  222.0790 C   0  0  0  0  0  0  0  0  0  0  0  0
  139.8106   70.7651  220.9831 H   0  0  0  0  0  0  0  0  0  0  0  0
  142.2340   72.8690  221.1840 N   0  0  0  0  0  0  0  0  0  0  0  0
  142.8320   72.0380  220.9830 H   0  0  0  0  0  0  0  0  0  0  0  0
  1  2  1  0
  2  3  1  0
  3  4  1  0
  4  5  1  0
  5  6  2  0
  6  7  1  0
  6  8  1  0
  8  9  1  0
  8 10  2  0
 10 11  1  0
 10 12  1  0
 12 13  1  0
 13 14  1  0
 13 15  1  0
 13 16  1  0
 12 17  2  0
 17 18  1  0
  3 19  2  0
 19 20  1  0
 19 21  1  0
 21 22  1  0
 22 23  2  0
 23 24  1  0
 24 25  2  0
 25 26  1  0
 25 27  1  0
 27 28  1  0
 27 29  2  0
 29 30  1  0
 29 31  1  0
 31 32  1  0
 31 33  2  0
 33 34  1  0
 23 35  1  0
 35 36  2  0
 36 37  1  0
 37 38  2  0
 38 39  1  0
 38 40  1  0
 40 41  1  0
 40 42  2  0
 42 43  1  0
 43 44  1  0
 44 45  1  0
 44 46  1  0
 44 47  1  0
 42 48  1  0
 48 49  1  0
 48 50  2  0
 50 51  1  0
 36 52  1  0
 52 53  1  0
 17  5  1  0
 52 22  1  0
 33 24  1  0
 50 37  1  0
M  CHG  1   4  -1
M  END
>  <UniqueID>  (59) 
7

>  <SMILES>  (59) 
CSc1ccc(-c2nc(-c3ccc(F)cc3)c(S/C=C(\O)[N-]c3cccc(C(F)(F)F)c3)[nH]2)cc1

>  <Energy>  (59) 
86.29116847859027

>  <Genealogy>  (59) 
CSc1ccc(-c2nc(-c3ccc(F)cc3)c(SCC(=O)[N-]c3cccc(C(F)(F)F)c3)[nH]2)cc1 (protonated)
CSc1ccc(-c2nc(-c3ccc(F)cc3)c(SC=C(O)[N-]c3cccc(C(F)(F)F)c3)[nH]2)cc1 (tautomer)
CSc1ccc(-c2nc(-c3ccc(F)cc3)c(S/C=C(\O)[N-]c3cccc(C(F)(F)F)c3)[nH]2)cc1 (cis-trans isomerization)
CSc1ccc(-c2nc(-c3ccc(F)cc3)c(S/C=C(\O)[N-]c3cccc(C(F)(F)F)c3)[nH]2)cc1 (3D coordinates assigned)
CSc1ccc(-c2nc(-c3ccc(F)cc3)c(S/C=C(\O)[N-]c3cccc(C(F)(F)F)c3)[nH]2)cc1 (optimized conformer: 86.29116847859027 kcal/mol)

>  <smiles>  (59) 
CSc1ccc(-c2nc(-c3ccc(F)cc3)c(SCC(=O)Nc3cccc(C(F)(F)F)c3)[nH]2)cc1

>  <score_type>  (59) 
oracle

>  <origin>  (59) 
autodockgpu

>  <m_score__min__energy>  (59) 
-8.5099999999999998

>  <m_primary>  (59) 
energy

>  <meeko>  (59) 
{"free_energy": -8.51, "intermolecular_energy": -11.49, "internal_energy": -1.41, "cluster_size": 5, "cluster_id": 1, "rank_in_cluster": 1}

>  <energy>  (59) 
-6.37

>  <cluster_rmsd>  (59) 
0.98

>  <rmsd>  (59) 
269.51

>  <cluster>  (59) 
6

$$$$
GRPXNZZALMQICR-QCMVQFAFNA-N
     RDKit          3D

 53 56  0  0  0  0  0  0  0  0999 V2000
  138.2520   74.8960  223.4210 H   0  0  0  0  0  0  0  0  0  0  0  0
  138.0080   75.7040  222.8600 O   0  0  0  0  0  0  0  0  0  0  0  0
  138.7750   76.0630  221.7550 C   0  0  0  0  0  0  0  0  0  0  0  0
  138.8130   77.4380  221.3480 N   0  0  0  0  0  0  0  0  0  0  0  0
  139.0960   78.5530  222.2070 C   0  0  0  0  0  0  0  0  0  0  0  0
  138.0680   79.2570  222.8600 C   0  0  0  0  0  0  0  0  0  0  0  0
  137.0203   78.9527  222.7197 H   0  0  0  0  0  0  0  0  0  0  0  0
  138.3730   80.3400  223.6850 C   0  0  0  0  0  0  0  0  0  0  0  0
  137.5671   80.8738  224.2100 H   0  0  0  0  0  0  0  0  0  0  0  0
  139.6990   80.7480  223.8460 C   0  0  0  0  0  0  0  0  0  0  0  0
  139.9347   81.5889  224.5148 H   0  0  0  0  0  0  0  0  0  0  0  0
  140.7340   80.0910  223.1590 C   0  0  0  0  0  0  0  0  0  0  0  0
  142.1690   80.5060  223.3630 C   0  0  0  0  0  0  0  0  0  0  0  0
  142.5760   81.2780  222.2920 F   0  0  0  0  0  0  0  0  0  0  0  0
  142.9910   79.3950  223.4570 F   0  0  0  0  0  0  0  0  0  0  0  0
  142.3050   81.2430  224.5270 F   0  0  0  0  0  0  0  0  0  0  0  0
  140.4220   78.9810  222.3510 C   0  0  0  0  0  0  0  0  0  0  0  0
  141.2273   78.4447  221.8277 H   0  0  0  0  0  0  0  0  0  0  0  0
  139.4430   75.1270  221.0740 C   0  0  0  0  0  0  0  0  0  0  0  0
  138.9695   74.6644  220.1955 H   0  0  0  0  0  0  0  0  0  0  0  0
  141.0890   74.6050  221.5530 S   0  0  0  0  0  0  0  0  0  0  0  0
  141.8310   75.7410  220.3780 C   0  0  0  0  0  0  0  0  0  0  0  0
  143.0650   75.6290  219.7660 C   0  0  0  0  0  0  0  0  0  0  0  0
  144.0030   74.4890  219.8290 C   0  0  0  0  0  0  0  0  0  0  0  0
  143.8700   73.3930  218.9600 C   0  0  0  0  0  0  0  0  0  0  0  0
  143.0599   73.3791  218.2160 H   0  0  0  0  0  0  0  0  0  0  0  0
  144.7630   72.3200  219.0370 C   0  0  0  0  0  0  0  0  0  0  0  0
  144.6492   71.4615  218.3588 H   0  0  0  0  0  0  0  0  0  0  0  0
  145.8000   72.3360  219.9740 C   0  0  0  0  0  0  0  0  0  0  0  0
  146.6650   71.2950  220.0470 F   0  0  0  0  0  0  0  0  0  0  0  0
  145.9490   73.4300  220.8300 C   0  0  0  0  0  0  0  0  0  0  0  0
  146.7683   73.4457  221.5639 H   0  0  0  0  0  0  0  0  0  0  0  0
  145.0580   74.5050  220.7550 C   0  0  0  0  0  0  0  0  0  0  0  0
  145.1844   75.3680  221.4253 H   0  0  0  0  0  0  0  0  0  0  0  0
  143.3540   76.7900  219.1460 N   0  0  0  0  0  0  0  0  0  0  0  0
  142.2830   77.5810  219.3820 C   0  0  0  0  0  0  0  0  0  0  0  0
  142.2060   78.9900  218.9170 C   0  0  0  0  0  0  0  0  0  0  0  0
  141.7840   79.9960  219.8070 C   0  0  0  0  0  0  0  0  0  0  0  0
  141.5261   79.7340  220.8438 H   0  0  0  0  0  0  0  0  0  0  0  0
  141.6900   81.3250  219.3840 C   0  0  0  0  0  0  0  0  0  0  0  0
  141.3649   82.1036  220.0897 H   0  0  0  0  0  0  0  0  0  0  0  0
  142.0080   81.6670  218.0670 C   0  0  0  0  0  0  0  0  0  0  0  0
  141.8850   83.3730  217.5260 S   0  0  0  0  0  0  0  0  0  0  0  0
  143.6410   83.4790  217.0600 C   0  0  0  0  0  0  0  0  0  0  0  0
  144.2599   83.5164  217.9686 H   0  0  0  0  0  0  0  0  0  0  0  0
  143.9164   82.5958  216.4649 H   0  0  0  0  0  0  0  0  0  0  0  0
  143.8082   84.3889  216.4649 H   0  0  0  0  0  0  0  0  0  0  0  0
  142.4320   80.6780  217.1750 C   0  0  0  0  0  0  0  0  0  0  0  0
  142.6904   80.9476  216.1403 H   0  0  0  0  0  0  0  0  0  0  0  0
  142.5290   79.3470  217.5930 C   0  0  0  0  0  0  0  0  0  0  0  0
  142.8596   78.5740  216.8836 H   0  0  0  0  0  0  0  0  0  0  0  0
  141.3400   76.9640  220.1280 N   0  0  0  0  0  0  0  0  0  0  0  0
  140.4450   77.3510  220.5000 H   0  0  0  0  0  0  0  0  0  0  0  0
  1  2  1  0
  2  3  1  0
  3  4  1  0
  4  5  1  0
  5  6  2  0
  6  7  1  0
  6  8  1  0
  8  9  1  0
  8 10  2  0
 10 11  1  0
 10 12  1  0
 12 13  1  0
 13 14  1  0
 13 15  1  0
 13 16  1  0
 12 17  2  0
 17 18  1  0
  3 19  2  0
 19 20  1  0
 19 21  1  0
 21 22  1  0
 22 23  2  0
 23 24  1  0
 24 25  2  0
 25 26  1  0
 25 27  1  0
 27 28  1  0
 27 29  2  0
 29 30  1  0
 29 31  1  0
 31 32  1  0
 31 33  2  0
 33 34  1  0
 23 35  1  0
 35 36  2  0
 36 37  1  0
 37 38  2  0
 38 39  1  0
 38 40  1  0
 40 41  1  0
 40 42  2  0
 42 43  1  0
 43 44  1  0
 44 45  1  0
 44 46  1  0
 44 47  1  0
 42 48  1  0
 48 49  1  0
 48 50  2  0
 50 51  1  0
 36 52  1  0
 52 53  1  0
 17  5  1  0
 52 22  1  0
 33 24  1  0
 50 37  1  0
M  CHG  1   4  -1
M  END
>  <UniqueID>  (60) 
7

>  <SMILES>  (60) 
CSc1ccc(-c2nc(-c3ccc(F)cc3)c(S/C=C(\O)[N-]c3cccc(C(F)(F)F)c3)[nH]2)cc1

>  <Energy>  (60) 
86.29116847859027

>  <Genealogy>  (60) 
CSc1ccc(-c2nc(-c3ccc(F)cc3)c(SCC(=O)[N-]c3cccc(C(F)(F)F)c3)[nH]2)cc1 (protonated)
CSc1ccc(-c2nc(-c3ccc(F)cc3)c(SC=C(O)[N-]c3cccc(C(F)(F)F)c3)[nH]2)cc1 (tautomer)
CSc1ccc(-c2nc(-c3ccc(F)cc3)c(S/C=C(\O)[N-]c3cccc(C(F)(F)F)c3)[nH]2)cc1 (cis-trans isomerization)
CSc1ccc(-c2nc(-c3ccc(F)cc3)c(S/C=C(\O)[N-]c3cccc(C(F)(F)F)c3)[nH]2)cc1 (3D coordinates assigned)
CSc1ccc(-c2nc(-c3ccc(F)cc3)c(S/C=C(\O)[N-]c3cccc(C(F)(F)F)c3)[nH]2)cc1 (optimized conformer: 86.29116847859027 kcal/mol)

>  <smiles>  (60) 
CSc1ccc(-c2nc(-c3ccc(F)cc3)c(SCC(=O)Nc3cccc(C(F)(F)F)c3)[nH]2)cc1

>  <score_type>  (60) 
oracle

>  <origin>  (60) 
autodockgpu

>  <m_score__min__energy>  (60) 
-8.5099999999999998

>  <m_primary>  (60) 
energy

>  <meeko>  (60) 
{"free_energy": -6.74, "intermolecular_energy": -9.72, "internal_energy": -2.65, "cluster_size": 6, "cluster_id": 6, "rank_in_cluster": 2}

>  <energy>  (60) 
-6.11

>  <cluster_rmsd>  (60) 
0.93

>  <rmsd>  (60) 
269.49

>  <cluster>  (60) 
6

$$$$
YIYSDEKHFQTGLA-MGNXZEIYNA-N
     RDKit          3D

 54 57  0  0  0  0  0  0  0  0999 V2000
  145.9910   74.2070  217.7350 H   0  0  0  0  0  0  0  0  0  0  0  0
  145.9930   73.3410  218.2600 O   0  0  0  0  0  0  0  0  0  0  0  0
  145.3200   73.1710  219.4860 C   0  0  0  0  0  0  0  0  0  0  0  0
  144.6950   74.2120  220.0820 C   0  0  0  0  0  0  0  0  0  0  0  0
  145.1031   74.5596  221.0425 H   0  0  0  0  0  0  0  0  0  0  0  0
  143.2420   75.0850  219.4350 S   0  0  0  0  0  0  0  0  0  0  0  0
  142.0370   74.7220  220.7200 C   0  0  0  0  0  0  0  0  0  0  0  0
  141.2590   75.5770  221.4940 C   0  0  0  0  0  0  0  0  0  0  0  0
  141.2580   77.0570  221.5140 C   0  0  0  0  0  0  0  0  0  0  0  0
  141.0020   77.7180  222.7250 C   0  0  0  0  0  0  0  0  0  0  0  0
  140.8227   77.1327  223.6389 H   0  0  0  0  0  0  0  0  0  0  0  0
  140.9730   79.1160  222.7790 C   0  0  0  0  0  0  0  0  0  0  0  0
  140.7685   79.6250  223.7325 H   0  0  0  0  0  0  0  0  0  0  0  0
  141.2040   79.8670  221.6210 C   0  0  0  0  0  0  0  0  0  0  0  0
  141.1590   81.2170  221.6680 F   0  0  0  0  0  0  0  0  0  0  0  0
  141.4430   79.2190  220.4080 C   0  0  0  0  0  0  0  0  0  0  0  0
  141.6202   79.8093  219.4969 H   0  0  0  0  0  0  0  0  0  0  0  0
  141.4580   77.8210  220.3470 C   0  0  0  0  0  0  0  0  0  0  0  0
  141.6266   77.3165  219.3842 H   0  0  0  0  0  0  0  0  0  0  0  0
  140.4430   74.8350  222.2760 N   0  0  0  0  0  0  0  0  0  0  0  0
  140.7440   73.5530  221.9810 C   0  0  0  0  0  0  0  0  0  0  0  0
  140.0490   72.3840  222.5690 C   0  0  0  0  0  0  0  0  0  0  0  0
  138.7680   72.0110  222.1240 C   0  0  0  0  0  0  0  0  0  0  0  0
  138.2942   72.5620  221.2983 H   0  0  0  0  0  0  0  0  0  0  0  0
  138.0920   70.9420  222.7260 C   0  0  0  0  0  0  0  0  0  0  0  0
  137.0861   70.6642  222.3782 H   0  0  0  0  0  0  0  0  0  0  0  0
  138.6910   70.2270  223.7670 C   0  0  0  0  0  0  0  0  0  0  0  0
  137.7820   68.9040  224.5860 S   0  0  0  0  0  0  0  0  0  0  0  0
  139.1840   68.4500  225.6510 C   0  0  0  0  0  0  0  0  0  0  0  0
  138.8888   68.5456  226.7063 H   0  0  0  0  0  0  0  0  0  0  0  0
  139.4790   67.4104  225.4455 H   0  0  0  0  0  0  0  0  0  0  0  0
  140.0324   69.1193  225.4455 H   0  0  0  0  0  0  0  0  0  0  0  0
  139.9800   70.5690  224.1970 C   0  0  0  0  0  0  0  0  0  0  0  0
  140.4599   69.9980  225.0055 H   0  0  0  0  0  0  0  0  0  0  0  0
  140.6570   71.6380  223.5970 C   0  0  0  0  0  0  0  0  0  0  0  0
  141.6723   71.8972  223.9316 H   0  0  0  0  0  0  0  0  0  0  0  0
  141.6940   73.4600  221.0180 N   0  0  0  0  0  0  0  0  0  0  0  0
  142.0840   72.5980  220.5780 H   0  0  0  0  0  0  0  0  0  0  0  0
  145.4450   71.9190  220.1710 N   0  0  0  0  0  0  0  0  0  0  0  0
  146.1300   71.8540  220.9660 H   0  0  0  0  0  0  0  0  0  0  0  0
  144.7640   70.7350  219.7000 C   0  0  0  0  0  0  0  0  0  0  0  0
  143.3600   70.6980  219.6840 C   0  0  0  0  0  0  0  0  0  0  0  0
  142.7851   71.5933  219.9630 H   0  0  0  0  0  0  0  0  0  0  0  0
  142.6890   69.5250  219.3140 C   0  0  0  0  0  0  0  0  0  0  0  0
  141.5895   69.4960  219.3283 H   0  0  0  0  0  0  0  0  0  0  0  0
  143.4110   68.3890  218.9260 C   0  0  0  0  0  0  0  0  0  0  0  0
  142.8758   67.4714  218.6403 H   0  0  0  0  0  0  0  0  0  0  0  0
  144.8160   68.4160  218.9000 C   0  0  0  0  0  0  0  0  0  0  0  0
  145.6030   67.1980  218.4600 C   0  0  0  0  0  0  0  0  0  0  0  0
  146.6990   67.0110  219.2860 F   0  0  0  0  0  0  0  0  0  0  0  0
  146.0620   67.3400  217.1590 F   0  0  0  0  0  0  0  0  0  0  0  0
  144.7910   66.0820  218.5260 F   0  0  0  0  0  0  0  0  0  0  0  0
  145.4880   69.5760  219.3240 C   0  0  0  0  0  0  0  0  0  0  0  0
  146.5872   69.5841  219.3643 H   0  0  0  0  0  0  0  0  0  0  0  0
  1  2  1  0
  2  3  1  0
  3  4  2  0
  4  5  1  0
  4  6  1  0
  6  7  1  0
  7  8  2  0
  8  9  1  0
  9 10  2  0
 10 11  1  0
 10 12  1  0
 12 13  1  0
 12 14  2  0
 14 15  1  0
 14 16  1  0
 16 17  1  0
 16 18  2  0
 18 19  1  0
  8 20  1  0
 20 21  2  0
 21 22  1  0
 22 23  2  0
 23 24  1  0
 23 25  1  0
 25 26  1  0
 25 27  2  0
 27 28  1  0
 28 29  1  0
 29 30  1  0
 29 31  1  0
 29 32  1  0
 27 33  1  0
 33 34  1  0
 33 35  2  0
 35 36  1  0
 21 37  1  0
 37 38  1  0
  3 39  1  0
 39 40  1  0
 39 41  1  0
 41 42  2  0
 42 43  1  0
 42 44  1  0
 44 45  1  0
 44 46  2  0
 46 47  1  0
 46 48  1  0
 48 49  1  0
 49 50  1  0
 49 51  1  0
 49 52  1  0
 48 53  2  0
 53 54  1  0
 37  7  1  0
 53 41  1  0
 18  9  1  0
 35 22  1  0
M  END
>  <UniqueID>  (61) 
8

>  <SMILES>  (61) 
CSc1ccc(-c2nc(-c3ccc(F)cc3)c(S/C=C(/O)Nc3cccc(C(F)(F)F)c3)[nH]2)cc1

>  <Energy>  (61) 
102.14858962184822

>  <Genealogy>  (61) 
CSc1ccc(-c2nc(-c3ccc(F)cc3)c(SC=C(O)Nc3cccc(C(F)(F)F)c3)[nH]2)cc1 (tautomer)
CSc1ccc(-c2nc(-c3ccc(F)cc3)c(S/C=C(/O)Nc3cccc(C(F)(F)F)c3)[nH]2)cc1 (cis-trans isomerization)
CSc1ccc(-c2nc(-c3ccc(F)cc3)c(S/C=C(/O)Nc3cccc(C(F)(F)F)c3)[nH]2)cc1 (3D coordinates assigned)
CSc1ccc(-c2nc(-c3ccc(F)cc3)c(S/C=C(/O)Nc3cccc(C(F)(F)F)c3)[nH]2)cc1 (optimized conformer: 102.14858962184822 kcal/mol)

>  <smiles>  (61) 
CSc1ccc(-c2nc(-c3ccc(F)cc3)c(SCC(=O)Nc3cccc(C(F)(F)F)c3)[nH]2)cc1

>  <score_type>  (61) 
oracle

>  <origin>  (61) 
autodockgpu

>  <m_score__min__energy>  (61) 
-8.8300000000000001

>  <m_primary>  (61) 
energy

>  <meeko>  (61) 
{"free_energy": -8.09, "intermolecular_energy": -11.07, "internal_energy": -1.38, "cluster_size": 1, "cluster_id": 2, "rank_in_cluster": 1}

>  <energy>  (61) 
-8.83

>  <cluster_rmsd>  (61) 
0.0

>  <rmsd>  (61) 
272.09

>  <cluster>  (61) 
1

$$$$
YIYSDEKHFQTGLA-MGNXZEIYNA-N
     RDKit          3D

 54 57  0  0  0  0  0  0  0  0999 V2000
  142.1060   76.3730  222.1940 H   0  0  0  0  0  0  0  0  0  0  0  0
  141.1830   76.0290  222.4290 O   0  0  0  0  0  0  0  0  0  0  0  0
  139.9950   76.7340  222.1550 C   0  0  0  0  0  0  0  0  0  0  0  0
  139.2300   76.4100  221.0880 C   0  0  0  0  0  0  0  0  0  0  0  0
  139.2344   77.1069  220.2369 H   0  0  0  0  0  0  0  0  0  0  0  0
  138.1970   74.9260  220.9380 S   0  0  0  0  0  0  0  0  0  0  0  0
  139.3110   73.6790  221.6000 C   0  0  0  0  0  0  0  0  0  0  0  0
  140.6440   73.4110  221.3030 C   0  0  0  0  0  0  0  0  0  0  0  0
  141.5090   74.0550  220.2910 C   0  0  0  0  0  0  0  0  0  0  0  0
  142.8500   74.3190  220.6140 C   0  0  0  0  0  0  0  0  0  0  0  0
  143.2406   74.0316  221.6014 H   0  0  0  0  0  0  0  0  0  0  0  0
  143.6930   74.9450  219.6890 C   0  0  0  0  0  0  0  0  0  0  0  0
  144.7413   75.1496  219.9519 H   0  0  0  0  0  0  0  0  0  0  0  0
  143.2040   75.3110  218.4300 C   0  0  0  0  0  0  0  0  0  0  0  0
  144.0130   75.9330  217.5430 F   0  0  0  0  0  0  0  0  0  0  0  0
  141.8680   75.0700  218.1060 C   0  0  0  0  0  0  0  0  0  0  0  0
  141.4820   75.3630  217.1185 H   0  0  0  0  0  0  0  0  0  0  0  0
  141.0180   74.4570  219.0330 C   0  0  0  0  0  0  0  0  0  0  0  0
  139.9613   74.2881  218.7785 H   0  0  0  0  0  0  0  0  0  0  0  0
  141.0810   72.4230  222.1160 N   0  0  0  0  0  0  0  0  0  0  0  0
  140.0160   72.0970  222.8770 C   0  0  0  0  0  0  0  0  0  0  0  0
  140.0500   71.0840  223.9580 C   0  0  0  0  0  0  0  0  0  0  0  0
  140.8390   71.2850  225.1060 C   0  0  0  0  0  0  0  0  0  0  0  0
  141.3996   72.2236  225.2272 H   0  0  0  0  0  0  0  0  0  0  0  0
  140.9140   70.2960  226.0950 C   0  0  0  0  0  0  0  0  0  0  0  0
  141.5421   70.4569  226.9836 H   0  0  0  0  0  0  0  0  0  0  0  0
  140.1940   69.1050  225.9580 C   0  0  0  0  0  0  0  0  0  0  0  0
  140.3590   67.8100  227.1990 S   0  0  0  0  0  0  0  0  0  0  0  0
  141.0650   68.9360  228.4390 C   0  0  0  0  0  0  0  0  0  0  0  0
  140.8316   68.5637  229.4474 H   0  0  0  0  0  0  0  0  0  0  0  0
  142.1563   68.9857  228.3100 H   0  0  0  0  0  0  0  0  0  0  0  0
  140.6344   69.9400  228.3100 H   0  0  0  0  0  0  0  0  0  0  0  0
  139.3800   68.9080  224.8350 C   0  0  0  0  0  0  0  0  0  0  0  0
  138.8006   67.9787  224.7319 H   0  0  0  0  0  0  0  0  0  0  0  0
  139.3040   69.8950  223.8430 C   0  0  0  0  0  0  0  0  0  0  0  0
  138.6564   69.7398  222.9675 H   0  0  0  0  0  0  0  0  0  0  0  0
  138.9340   72.8660  222.5980 N   0  0  0  0  0  0  0  0  0  0  0  0
  137.9970   72.8510  223.0570 H   0  0  0  0  0  0  0  0  0  0  0  0
  139.6940   77.9030  222.9280 N   0  0  0  0  0  0  0  0  0  0  0  0
  138.7700   77.9430  223.4270 H   0  0  0  0  0  0  0  0  0  0  0  0
  140.5620   79.0570  222.9100 C   0  0  0  0  0  0  0  0  0  0  0  0
  141.6560   79.1220  223.7900 C   0  0  0  0  0  0  0  0  0  0  0  0
  141.8893   78.2647  224.4386 H   0  0  0  0  0  0  0  0  0  0  0  0
  142.4500   80.2740  223.8440 C   0  0  0  0  0  0  0  0  0  0  0  0
  143.2892   80.3268  224.5532 H   0  0  0  0  0  0  0  0  0  0  0  0
  142.1820   81.3600  223.0000 C   0  0  0  0  0  0  0  0  0  0  0  0
  142.8098   82.2618  223.0518 H   0  0  0  0  0  0  0  0  0  0  0  0
  141.1150   81.3020  222.0880 C   0  0  0  0  0  0  0  0  0  0  0  0
  140.8320   82.4640  221.1570 C   0  0  0  0  0  0  0  0  0  0  0  0
  141.3140   82.1900  219.8880 F   0  0  0  0  0  0  0  0  0  0  0  0
  141.4380   83.6270  221.6080 F   0  0  0  0  0  0  0  0  0  0  0  0
  139.4680   82.6700  221.0870 F   0  0  0  0  0  0  0  0  0  0  0  0
  140.2850   80.1670  222.0730 C   0  0  0  0  0  0  0  0  0  0  0  0
  139.4117   80.1402  221.4048 H   0  0  0  0  0  0  0  0  0  0  0  0
  1  2  1  0
  2  3  1  0
  3  4  2  0
  4  5  1  0
  4  6  1  0
  6  7  1  0
  7  8  2  0
  8  9  1  0
  9 10  2  0
 10 11  1  0
 10 12  1  0
 12 13  1  0
 12 14  2  0
 14 15  1  0
 14 16  1  0
 16 17  1  0
 16 18  2  0
 18 19  1  0
  8 20  1  0
 20 21  2  0
 21 22  1  0
 22 23  2  0
 23 24  1  0
 23 25  1  0
 25 26  1  0
 25 27  2  0
 27 28  1  0
 28 29  1  0
 29 30  1  0
 29 31  1  0
 29 32  1  0
 27 33  1  0
 33 34  1  0
 33 35  2  0
 35 36  1  0
 21 37  1  0
 37 38  1  0
  3 39  1  0
 39 40  1  0
 39 41  1  0
 41 42  2  0
 42 43  1  0
 42 44  1  0
 44 45  1  0
 44 46  2  0
 46 47  1  0
 46 48  1  0
 48 49  1  0
 49 50  1  0
 49 51  1  0
 49 52  1  0
 48 53  2  0
 53 54  1  0
 37  7  1  0
 53 41  1  0
 18  9  1  0
 35 22  1  0
M  END
>  <UniqueID>  (62) 
8

>  <SMILES>  (62) 
CSc1ccc(-c2nc(-c3ccc(F)cc3)c(S/C=C(/O)Nc3cccc(C(F)(F)F)c3)[nH]2)cc1

>  <Energy>  (62) 
102.14858962184822

>  <Genealogy>  (62) 
CSc1ccc(-c2nc(-c3ccc(F)cc3)c(SC=C(O)Nc3cccc(C(F)(F)F)c3)[nH]2)cc1 (tautomer)
CSc1ccc(-c2nc(-c3ccc(F)cc3)c(S/C=C(/O)Nc3cccc(C(F)(F)F)c3)[nH]2)cc1 (cis-trans isomerization)
CSc1ccc(-c2nc(-c3ccc(F)cc3)c(S/C=C(/O)Nc3cccc(C(F)(F)F)c3)[nH]2)cc1 (3D coordinates assigned)
CSc1ccc(-c2nc(-c3ccc(F)cc3)c(S/C=C(/O)Nc3cccc(C(F)(F)F)c3)[nH]2)cc1 (optimized conformer: 102.14858962184822 kcal/mol)

>  <smiles>  (62) 
CSc1ccc(-c2nc(-c3ccc(F)cc3)c(SCC(=O)Nc3cccc(C(F)(F)F)c3)[nH]2)cc1

>  <score_type>  (62) 
oracle

>  <origin>  (62) 
autodockgpu

>  <m_score__min__energy>  (62) 
-8.8300000000000001

>  <m_primary>  (62) 
energy

>  <meeko>  (62) 
{"free_energy": -8.13, "intermolecular_energy": -11.11, "internal_energy": -1.31, "cluster_size": 4, "cluster_id": 1, "rank_in_cluster": 4}

>  <energy>  (62) 
-8.73

>  <cluster_rmsd>  (62) 
0.14

>  <rmsd>  (62) 
272.09

>  <cluster>  (62) 
1

$$$$
YIYSDEKHFQTGLA-MGNXZEIYNA-N
     RDKit          3D

 54 57  0  0  0  0  0  0  0  0999 V2000
  135.7190   76.9430  223.3180 H   0  0  0  0  0  0  0  0  0  0  0  0
  136.6870   77.1590  223.1160 O   0  0  0  0  0  0  0  0  0  0  0  0
  137.5410   76.3070  222.3890 C   0  0  0  0  0  0  0  0  0  0  0  0
  137.0390   75.4030  221.5180 C   0  0  0  0  0  0  0  0  0  0  0  0
  135.9602   75.1960  221.5758 H   0  0  0  0  0  0  0  0  0  0  0  0
  137.9880   74.5020  220.2630 S   0  0  0  0  0  0  0  0  0  0  0  0
  139.1970   73.6650  221.2980 C   0  0  0  0  0  0  0  0  0  0  0  0
  140.5870   73.7230  221.2870 C   0  0  0  0  0  0  0  0  0  0  0  0
  141.4720   74.4580  220.3560 C   0  0  0  0  0  0  0  0  0  0  0  0
  141.0310   74.6900  219.0440 C   0  0  0  0  0  0  0  0  0  0  0  0
  140.0362   74.3390  218.7323 H   0  0  0  0  0  0  0  0  0  0  0  0
  141.8480   75.3650  218.1290 C   0  0  0  0  0  0  0  0  0  0  0  0
  141.4949   75.5407  217.1021 H   0  0  0  0  0  0  0  0  0  0  0  0
  143.1130   75.8160  218.5200 C   0  0  0  0  0  0  0  0  0  0  0  0
  143.9110   76.4520  217.6320 F   0  0  0  0  0  0  0  0  0  0  0  0
  143.5680   75.5740  219.8180 C   0  0  0  0  0  0  0  0  0  0  0  0
  144.5652   75.9235  220.1236 H   0  0  0  0  0  0  0  0  0  0  0  0
  142.7600   74.8890  220.7300 C   0  0  0  0  0  0  0  0  0  0  0  0
  143.1318   74.6854  221.7450 H   0  0  0  0  0  0  0  0  0  0  0  0
  141.0620   72.9740  222.3080 N   0  0  0  0  0  0  0  0  0  0  0  0
  139.9670   72.4660  222.9100 C   0  0  0  0  0  0  0  0  0  0  0  0
  140.0080   71.6180  224.1250 C   0  0  0  0  0  0  0  0  0  0  0  0
  140.9250   71.8870  225.1580 C   0  0  0  0  0  0  0  0  0  0  0  0
  141.5866   72.7629  225.0876 H   0  0  0  0  0  0  0  0  0  0  0  0
  141.0000   71.0460  226.2750 C   0  0  0  0  0  0  0  0  0  0  0  0
  141.7275   71.2579  227.0724 H   0  0  0  0  0  0  0  0  0  0  0  0
  140.1540   69.9380  226.3810 C   0  0  0  0  0  0  0  0  0  0  0  0
  140.3130   68.8200  227.7840 S   0  0  0  0  0  0  0  0  0  0  0  0
  139.6770   67.3900  226.8580 C   0  0  0  0  0  0  0  0  0  0  0  0
  139.3342   66.6191  227.5639 H   0  0  0  0  0  0  0  0  0  0  0  0
  138.8354   67.7079  226.2250 H   0  0  0  0  0  0  0  0  0  0  0  0
  140.4767   66.9779  226.2250 H   0  0  0  0  0  0  0  0  0  0  0  0
  139.2150   69.6780  225.3740 C   0  0  0  0  0  0  0  0  0  0  0  0
  138.5377   68.8157  225.4618 H   0  0  0  0  0  0  0  0  0  0  0  0
  139.1400   70.5180  224.2550 C   0  0  0  0  0  0  0  0  0  0  0  0
  138.3956   70.3157  223.4708 H   0  0  0  0  0  0  0  0  0  0  0  0
  138.8190   72.8930  222.3270 N   0  0  0  0  0  0  0  0  0  0  0  0
  137.8360   72.6850  222.6100 H   0  0  0  0  0  0  0  0  0  0  0  0
  138.9400   76.3020  222.7060 N   0  0  0  0  0  0  0  0  0  0  0  0
  139.2750   75.6500  223.4590 H   0  0  0  0  0  0  0  0  0  0  0  0
  139.8450   77.2610  222.1180 C   0  0  0  0  0  0  0  0  0  0  0  0
  140.0110   77.3010  220.7230 C   0  0  0  0  0  0  0  0  0  0  0  0
  139.3999   76.6508  220.0797 H   0  0  0  0  0  0  0  0  0  0  0  0
  140.9510   78.1650  220.1490 C   0  0  0  0  0  0  0  0  0  0  0  0
  141.0930   78.1719  219.0582 H   0  0  0  0  0  0  0  0  0  0  0  0
  141.7120   79.0210  220.9560 C   0  0  0  0  0  0  0  0  0  0  0  0
  142.4500   79.6947  220.4960 H   0  0  0  0  0  0  0  0  0  0  0  0
  141.5370   79.0230  222.3500 C   0  0  0  0  0  0  0  0  0  0  0  0
  142.3400   79.9620  223.2270 C   0  0  0  0  0  0  0  0  0  0  0  0
  142.2500   79.5750  224.5540 F   0  0  0  0  0  0  0  0  0  0  0  0
  141.8770   81.2650  223.1250 F   0  0  0  0  0  0  0  0  0  0  0  0
  143.6650   79.9290  222.8360 F   0  0  0  0  0  0  0  0  0  0  0  0
  140.6310   78.1160  222.9300 C   0  0  0  0  0  0  0  0  0  0  0  0
  140.5319   78.0702  224.0246 H   0  0  0  0  0  0  0  0  0  0  0  0
  1  2  1  0
  2  3  1  0
  3  4  2  0
  4  5  1  0
  4  6  1  0
  6  7  1  0
  7  8  2  0
  8  9  1  0
  9 10  2  0
 10 11  1  0
 10 12  1  0
 12 13  1  0
 12 14  2  0
 14 15  1  0
 14 16  1  0
 16 17  1  0
 16 18  2  0
 18 19  1  0
  8 20  1  0
 20 21  2  0
 21 22  1  0
 22 23  2  0
 23 24  1  0
 23 25  1  0
 25 26  1  0
 25 27  2  0
 27 28  1  0
 28 29  1  0
 29 30  1  0
 29 31  1  0
 29 32  1  0
 27 33  1  0
 33 34  1  0
 33 35  2  0
 35 36  1  0
 21 37  1  0
 37 38  1  0
  3 39  1  0
 39 40  1  0
 39 41  1  0
 41 42  2  0
 42 43  1  0
 42 44  1  0
 44 45  1  0
 44 46  2  0
 46 47  1  0
 46 48  1  0
 48 49  1  0
 49 50  1  0
 49 51  1  0
 49 52  1  0
 48 53  2  0
 53 54  1  0
 37  7  1  0
 53 41  1  0
 18  9  1  0
 35 22  1  0
M  END
>  <UniqueID>  (63) 
8

>  <SMILES>  (63) 
CSc1ccc(-c2nc(-c3ccc(F)cc3)c(S/C=C(/O)Nc3cccc(C(F)(F)F)c3)[nH]2)cc1

>  <Energy>  (63) 
102.14858962184822

>  <Genealogy>  (63) 
CSc1ccc(-c2nc(-c3ccc(F)cc3)c(SC=C(O)Nc3cccc(C(F)(F)F)c3)[nH]2)cc1 (tautomer)
CSc1ccc(-c2nc(-c3ccc(F)cc3)c(S/C=C(/O)Nc3cccc(C(F)(F)F)c3)[nH]2)cc1 (cis-trans isomerization)
CSc1ccc(-c2nc(-c3ccc(F)cc3)c(S/C=C(/O)Nc3cccc(C(F)(F)F)c3)[nH]2)cc1 (3D coordinates assigned)
CSc1ccc(-c2nc(-c3ccc(F)cc3)c(S/C=C(/O)Nc3cccc(C(F)(F)F)c3)[nH]2)cc1 (optimized conformer: 102.14858962184822 kcal/mol)

>  <smiles>  (63) 
CSc1ccc(-c2nc(-c3ccc(F)cc3)c(SCC(=O)Nc3cccc(C(F)(F)F)c3)[nH]2)cc1

>  <score_type>  (63) 
oracle

>  <origin>  (63) 
autodockgpu

>  <m_score__min__energy>  (63) 
-8.8300000000000001

>  <m_primary>  (63) 
energy

>  <meeko>  (63) 
{"free_energy": -7.13, "intermolecular_energy": -10.11, "internal_energy": -2.21, "cluster_size": 2, "cluster_id": 4, "rank_in_cluster": 2}

>  <energy>  (63) 
-8.73

>  <cluster_rmsd>  (63) 
0.19

>  <rmsd>  (63) 
272.07

>  <cluster>  (63) 
1

$$$$
YIYSDEKHFQTGLA-MGNXZEIYNA-N
     RDKit          3D

 54 57  0  0  0  0  0  0  0  0999 V2000
  139.0620   73.5550  223.0620 H   0  0  0  0  0  0  0  0  0  0  0  0
  139.9330   73.7940  222.6040 O   0  0  0  0  0  0  0  0  0  0  0  0
  140.0800   74.8860  221.7270 C   0  0  0  0  0  0  0  0  0  0  0  0
  139.4280   74.9140  220.5430 C   0  0  0  0  0  0  0  0  0  0  0  0
  138.3352   75.0360  220.5748 H   0  0  0  0  0  0  0  0  0  0  0  0
  140.1970   74.7680  218.9060 S   0  0  0  0  0  0  0  0  0  0  0  0
  141.3410   76.1540  218.9520 C   0  0  0  0  0  0  0  0  0  0  0  0
  142.7290   76.1750  219.0470 C   0  0  0  0  0  0  0  0  0  0  0  0
  143.6590   75.0340  219.2040 C   0  0  0  0  0  0  0  0  0  0  0  0
  144.2640   74.8190  220.4520 C   0  0  0  0  0  0  0  0  0  0  0  0
  144.0297   75.4865  221.2943 H   0  0  0  0  0  0  0  0  0  0  0  0
  145.1630   73.7620  220.6330 C   0  0  0  0  0  0  0  0  0  0  0  0
  145.6333   73.6023  221.6145 H   0  0  0  0  0  0  0  0  0  0  0  0
  145.4640   72.9080  219.5660 C   0  0  0  0  0  0  0  0  0  0  0  0
  146.3470   71.8980  219.7350 F   0  0  0  0  0  0  0  0  0  0  0  0
  144.8820   73.1240  218.3160 C   0  0  0  0  0  0  0  0  0  0  0  0
  145.1233   72.4560  217.4760 H   0  0  0  0  0  0  0  0  0  0  0  0
  143.9930   74.1870  218.1280 C   0  0  0  0  0  0  0  0  0  0  0  0
  143.5522   74.3630  217.1356 H   0  0  0  0  0  0  0  0  0  0  0  0
  143.1530   77.4560  218.9680 N   0  0  0  0  0  0  0  0  0  0  0  0
  142.0270   78.1900  218.8420 C   0  0  0  0  0  0  0  0  0  0  0  0
  142.0140   79.6620  218.6670 C   0  0  0  0  0  0  0  0  0  0  0  0
  141.0480   80.4530  219.3150 C   0  0  0  0  0  0  0  0  0  0  0  0
  140.3242   79.9832  219.9972 H   0  0  0  0  0  0  0  0  0  0  0  0
  141.0030   81.8360  219.0960 C   0  0  0  0  0  0  0  0  0  0  0  0
  140.2359   82.4452  219.5965 H   0  0  0  0  0  0  0  0  0  0  0  0
  141.9290   82.4450  218.2440 C   0  0  0  0  0  0  0  0  0  0  0  0
  141.8130   84.2120  217.9110 S   0  0  0  0  0  0  0  0  0  0  0  0
  143.3990   84.2600  217.0230 C   0  0  0  0  0  0  0  0  0  0  0  0
  144.2251   84.2850  217.7489 H   0  0  0  0  0  0  0  0  0  0  0  0
  143.4929   83.3643  216.3914 H   0  0  0  0  0  0  0  0  0  0  0  0
  143.4385   85.1598  216.3914 H   0  0  0  0  0  0  0  0  0  0  0  0
  142.9150   81.6720  217.6190 C   0  0  0  0  0  0  0  0  0  0  0  0
  143.6534   82.1510  216.9593 H   0  0  0  0  0  0  0  0  0  0  0  0
  142.9610   80.2880  217.8340 C   0  0  0  0  0  0  0  0  0  0  0  0
  143.7430   79.6860  217.3482 H   0  0  0  0  0  0  0  0  0  0  0  0
  140.9140   77.4160  218.8050 N   0  0  0  0  0  0  0  0  0  0  0  0
  139.9230   77.7180  218.6790 H   0  0  0  0  0  0  0  0  0  0  0  0
  141.0560   75.8890  222.0350 N   0  0  0  0  0  0  0  0  0  0  0  0
  142.0650   75.6000  222.0900 H   0  0  0  0  0  0  0  0  0  0  0  0
  140.6630   77.2280  222.4060 C   0  0  0  0  0  0  0  0  0  0  0  0
  139.3030   77.5320  222.5860 C   0  0  0  0  0  0  0  0  0  0  0  0
  138.5492   76.7341  222.5138 H   0  0  0  0  0  0  0  0  0  0  0  0
  138.9030   78.8470  222.8570 C   0  0  0  0  0  0  0  0  0  0  0  0
  137.8344   79.0813  222.9714 H   0  0  0  0  0  0  0  0  0  0  0  0
  139.8570   79.8650  222.9830 C   0  0  0  0  0  0  0  0  0  0  0  0
  139.5334   80.8952  223.1926 H   0  0  0  0  0  0  0  0  0  0  0  0
  141.2250   79.5770  222.8430 C   0  0  0  0  0  0  0  0  0  0  0  0
  142.2640   80.6690  222.9990 C   0  0  0  0  0  0  0  0  0  0  0  0
  142.1950   81.5540  221.9370 F   0  0  0  0  0  0  0  0  0  0  0  0
  143.5450   80.1410  223.0400 F   0  0  0  0  0  0  0  0  0  0  0  0
  142.0290   81.3550  224.1750 F   0  0  0  0  0  0  0  0  0  0  0  0
  141.6210   78.2670  222.5160 C   0  0  0  0  0  0  0  0  0  0  0  0
  142.6849   78.0469  222.3440 H   0  0  0  0  0  0  0  0  0  0  0  0
  1  2  1  0
  2  3  1  0
  3  4  2  0
  4  5  1  0
  4  6  1  0
  6  7  1  0
  7  8  2  0
  8  9  1  0
  9 10  2  0
 10 11  1  0
 10 12  1  0
 12 13  1  0
 12 14  2  0
 14 15  1  0
 14 16  1  0
 16 17  1  0
 16 18  2  0
 18 19  1  0
  8 20  1  0
 20 21  2  0
 21 22  1  0
 22 23  2  0
 23 24  1  0
 23 25  1  0
 25 26  1  0
 25 27  2  0
 27 28  1  0
 28 29  1  0
 29 30  1  0
 29 31  1  0
 29 32  1  0
 27 33  1  0
 33 34  1  0
 33 35  2  0
 35 36  1  0
 21 37  1  0
 37 38  1  0
  3 39  1  0
 39 40  1  0
 39 41  1  0
 41 42  2  0
 42 43  1  0
 42 44  1  0
 44 45  1  0
 44 46  2  0
 46 47  1  0
 46 48  1  0
 48 49  1  0
 49 50  1  0
 49 51  1  0
 49 52  1  0
 48 53  2  0
 53 54  1  0
 37  7  1  0
 53 41  1  0
 18  9  1  0
 35 22  1  0
M  END
>  <UniqueID>  (64) 
8

>  <SMILES>  (64) 
CSc1ccc(-c2nc(-c3ccc(F)cc3)c(S/C=C(/O)Nc3cccc(C(F)(F)F)c3)[nH]2)cc1

>  <Energy>  (64) 
102.14858962184822

>  <Genealogy>  (64) 
CSc1ccc(-c2nc(-c3ccc(F)cc3)c(SC=C(O)Nc3cccc(C(F)(F)F)c3)[nH]2)cc1 (tautomer)
CSc1ccc(-c2nc(-c3ccc(F)cc3)c(S/C=C(/O)Nc3cccc(C(F)(F)F)c3)[nH]2)cc1 (cis-trans isomerization)
CSc1ccc(-c2nc(-c3ccc(F)cc3)c(S/C=C(/O)Nc3cccc(C(F)(F)F)c3)[nH]2)cc1 (3D coordinates assigned)
CSc1ccc(-c2nc(-c3ccc(F)cc3)c(S/C=C(/O)Nc3cccc(C(F)(F)F)c3)[nH]2)cc1 (optimized conformer: 102.14858962184822 kcal/mol)

>  <smiles>  (64) 
CSc1ccc(-c2nc(-c3ccc(F)cc3)c(SCC(=O)Nc3cccc(C(F)(F)F)c3)[nH]2)cc1

>  <score_type>  (64) 
oracle

>  <origin>  (64) 
autodockgpu

>  <m_score__min__energy>  (64) 
-8.8300000000000001

>  <m_primary>  (64) 
energy

>  <meeko>  (64) 
{"free_energy": -7.56, "intermolecular_energy": -10.54, "internal_energy": -2.5, "cluster_size": 2, "cluster_id": 5, "rank_in_cluster": 1}

>  <energy>  (64) 
-8.13

>  <cluster_rmsd>  (64) 
1.83

>  <rmsd>  (64) 
272.04

>  <cluster>  (64) 
1

$$$$
YIYSDEKHFQTGLA-MGNXZEIYNA-N
     RDKit          3D

 54 57  0  0  0  0  0  0  0  0999 V2000
  137.0900   78.9530  222.6350 H   0  0  0  0  0  0  0  0  0  0  0  0
  137.9790   78.6130  222.9800 O   0  0  0  0  0  0  0  0  0  0  0  0
  138.4930   77.3350  222.6850 C   0  0  0  0  0  0  0  0  0  0  0  0
  137.6660   76.2790  222.5140 C   0  0  0  0  0  0  0  0  0  0  0  0
  136.8659   76.1424  223.2565 H   0  0  0  0  0  0  0  0  0  0  0  0
  137.7610   75.0680  221.1670 S   0  0  0  0  0  0  0  0  0  0  0  0
  139.0350   73.9680  221.7990 C   0  0  0  0  0  0  0  0  0  0  0  0
  140.4120   73.9740  221.5990 C   0  0  0  0  0  0  0  0  0  0  0  0
  141.2140   74.8730  220.7390 C   0  0  0  0  0  0  0  0  0  0  0  0
  140.5500   75.8220  219.9460 C   0  0  0  0  0  0  0  0  0  0  0  0
  139.4531   75.8950  219.9850 H   0  0  0  0  0  0  0  0  0  0  0  0
  141.2740   76.6760  219.1060 C   0  0  0  0  0  0  0  0  0  0  0  0
  140.7453   77.4156  218.4868 H   0  0  0  0  0  0  0  0  0  0  0  0
  142.6700   76.5900  219.0530 C   0  0  0  0  0  0  0  0  0  0  0  0
  143.3680   77.4020  218.2280 F   0  0  0  0  0  0  0  0  0  0  0  0
  143.3370   75.6380  219.8250 C   0  0  0  0  0  0  0  0  0  0  0  0
  144.4338   75.5674  219.7800 H   0  0  0  0  0  0  0  0  0  0  0  0
  142.6170   74.7730  220.6560 C   0  0  0  0  0  0  0  0  0  0  0  0
  143.1481   74.0121  221.2467 H   0  0  0  0  0  0  0  0  0  0  0  0
  140.9650   72.9910  222.3440 N   0  0  0  0  0  0  0  0  0  0  0  0
  139.9260   72.3980  222.9690 C   0  0  0  0  0  0  0  0  0  0  0  0
  140.0690   71.2890  223.9420 C   0  0  0  0  0  0  0  0  0  0  0  0
  139.4660   70.0400  223.7000 C   0  0  0  0  0  0  0  0  0  0  0  0
  138.9232   69.8674  222.7590 H   0  0  0  0  0  0  0  0  0  0  0  0
  139.5540   69.0160  224.6520 C   0  0  0  0  0  0  0  0  0  0  0  0
  139.0705   68.0468  224.4602 H   0  0  0  0  0  0  0  0  0  0  0  0
  140.2540   69.2210  225.8450 C   0  0  0  0  0  0  0  0  0  0  0  0
  140.2940   67.9240  227.0940 S   0  0  0  0  0  0  0  0  0  0  0  0
  141.0060   69.0150  228.3620 C   0  0  0  0  0  0  0  0  0  0  0  0
  140.7543   68.6293  229.3609 H   0  0  0  0  0  0  0  0  0  0  0  0
  142.0994   69.0471  228.2462 H   0  0  0  0  0  0  0  0  0  0  0  0
  140.5951   70.0288  228.2462 H   0  0  0  0  0  0  0  0  0  0  0  0
  140.8850   70.4490  226.0820 C   0  0  0  0  0  0  0  0  0  0  0  0
  141.4490   70.6076  227.0130 H   0  0  0  0  0  0  0  0  0  0  0  0
  140.7970   71.4750  225.1320 C   0  0  0  0  0  0  0  0  0  0  0  0
  141.3015   72.4346  225.3179 H   0  0  0  0  0  0  0  0  0  0  0  0
  138.7440   72.9920  222.6710 N   0  0  0  0  0  0  0  0  0  0  0  0
  137.7950   72.7610  223.0400 H   0  0  0  0  0  0  0  0  0  0  0  0
  139.9120   77.1380  222.7290 N   0  0  0  0  0  0  0  0  0  0  0  0
  140.2730   76.1910  223.0080 H   0  0  0  0  0  0  0  0  0  0  0  0
  140.8280   78.2380  222.5400 C   0  0  0  0  0  0  0  0  0  0  0  0
  141.7390   78.5720  223.5570 C   0  0  0  0  0  0  0  0  0  0  0  0
  141.7999   77.9512  224.4631 H   0  0  0  0  0  0  0  0  0  0  0  0
  142.5690   79.6910  223.4220 C   0  0  0  0  0  0  0  0  0  0  0  0
  143.2604   79.9604  224.2341 H   0  0  0  0  0  0  0  0  0  0  0  0
  142.5240   80.4700  222.2580 C   0  0  0  0  0  0  0  0  0  0  0  0
  143.1789   81.3486  222.1616 H   0  0  0  0  0  0  0  0  0  0  0  0
  141.6460   80.1340  221.2130 C   0  0  0  0  0  0  0  0  0  0  0  0
  141.6070   80.9590  219.9430 C   0  0  0  0  0  0  0  0  0  0  0  0
  142.5870   80.5320  219.0620 F   0  0  0  0  0  0  0  0  0  0  0  0
  141.8220   82.3020  220.2100 F   0  0  0  0  0  0  0  0  0  0  0  0
  140.3690   80.8160  219.3460 F   0  0  0  0  0  0  0  0  0  0  0  0
  140.7740   79.0420  221.3740 C   0  0  0  0  0  0  0  0  0  0  0  0
  140.0422   78.8095  220.5863 H   0  0  0  0  0  0  0  0  0  0  0  0
  1  2  1  0
  2  3  1  0
  3  4  2  0
  4  5  1  0
  4  6  1  0
  6  7  1  0
  7  8  2  0
  8  9  1  0
  9 10  2  0
 10 11  1  0
 10 12  1  0
 12 13  1  0
 12 14  2  0
 14 15  1  0
 14 16  1  0
 16 17  1  0
 16 18  2  0
 18 19  1  0
  8 20  1  0
 20 21  2  0
 21 22  1  0
 22 23  2  0
 23 24  1  0
 23 25  1  0
 25 26  1  0
 25 27  2  0
 27 28  1  0
 28 29  1  0
 29 30  1  0
 29 31  1  0
 29 32  1  0
 27 33  1  0
 33 34  1  0
 33 35  2  0
 35 36  1  0
 21 37  1  0
 37 38  1  0
  3 39  1  0
 39 40  1  0
 39 41  1  0
 41 42  2  0
 42 43  1  0
 42 44  1  0
 44 45  1  0
 44 46  2  0
 46 47  1  0
 46 48  1  0
 48 49  1  0
 49 50  1  0
 49 51  1  0
 49 52  1  0
 48 53  2  0
 53 54  1  0
 37  7  1  0
 53 41  1  0
 18  9  1  0
 35 22  1  0
M  END
>  <UniqueID>  (65) 
8

>  <SMILES>  (65) 
CSc1ccc(-c2nc(-c3ccc(F)cc3)c(S/C=C(/O)Nc3cccc(C(F)(F)F)c3)[nH]2)cc1

>  <Energy>  (65) 
102.14858962184822

>  <Genealogy>  (65) 
CSc1ccc(-c2nc(-c3ccc(F)cc3)c(SC=C(O)Nc3cccc(C(F)(F)F)c3)[nH]2)cc1 (tautomer)
CSc1ccc(-c2nc(-c3ccc(F)cc3)c(S/C=C(/O)Nc3cccc(C(F)(F)F)c3)[nH]2)cc1 (cis-trans isomerization)
CSc1ccc(-c2nc(-c3ccc(F)cc3)c(S/C=C(/O)Nc3cccc(C(F)(F)F)c3)[nH]2)cc1 (3D coordinates assigned)
CSc1ccc(-c2nc(-c3ccc(F)cc3)c(S/C=C(/O)Nc3cccc(C(F)(F)F)c3)[nH]2)cc1 (optimized conformer: 102.14858962184822 kcal/mol)

>  <smiles>  (65) 
CSc1ccc(-c2nc(-c3ccc(F)cc3)c(SCC(=O)Nc3cccc(C(F)(F)F)c3)[nH]2)cc1

>  <score_type>  (65) 
oracle

>  <origin>  (65) 
autodockgpu

>  <m_score__min__energy>  (65) 
-8.8300000000000001

>  <m_primary>  (65) 
energy

>  <meeko>  (65) 
{"free_energy": -7.63, "intermolecular_energy": -10.61, "internal_energy": -2.1, "cluster_size": 5, "cluster_id": 3, "rank_in_cluster": 2}

>  <energy>  (65) 
-8.09

>  <cluster_rmsd>  (65) 
0.0

>  <rmsd>  (65) 
270.96

>  <cluster>  (65) 
2

$$$$
YIYSDEKHFQTGLA-MGNXZEIYNA-N
     RDKit          3D

 54 57  0  0  0  0  0  0  0  0999 V2000
  138.8170   74.5360  222.8020 H   0  0  0  0  0  0  0  0  0  0  0  0
  139.7140   74.4650  222.3370 O   0  0  0  0  0  0  0  0  0  0  0  0
  140.1780   75.3990  221.3910 C   0  0  0  0  0  0  0  0  0  0  0  0
  139.6110   75.4840  220.1670 C   0  0  0  0  0  0  0  0  0  0  0  0
  140.2002   75.1160  219.3141 H   0  0  0  0  0  0  0  0  0  0  0  0
  137.9630   76.1520  219.8080 S   0  0  0  0  0  0  0  0  0  0  0  0
  137.2720   76.2400  221.4660 C   0  0  0  0  0  0  0  0  0  0  0  0
  137.2010   77.3060  222.3570 C   0  0  0  0  0  0  0  0  0  0  0  0
  137.7450   78.6730  222.2040 C   0  0  0  0  0  0  0  0  0  0  0  0
  138.0910   79.3980  223.3550 C   0  0  0  0  0  0  0  0  0  0  0  0
  137.9693   78.9386  224.3471 H   0  0  0  0  0  0  0  0  0  0  0  0
  138.5900   80.7020  223.2490 C   0  0  0  0  0  0  0  0  0  0  0  0
  138.8557   81.2639  224.1566 H   0  0  0  0  0  0  0  0  0  0  0  0
  138.7510   81.2910  221.9910 C   0  0  0  0  0  0  0  0  0  0  0  0
  139.2160   82.5570  221.8890 F   0  0  0  0  0  0  0  0  0  0  0  0
  138.3940   80.5840  220.8410 C   0  0  0  0  0  0  0  0  0  0  0  0
  138.5160   81.0490  219.8516 H   0  0  0  0  0  0  0  0  0  0  0  0
  137.8820   79.2870  220.9430 C   0  0  0  0  0  0  0  0  0  0  0  0
  137.5846   78.7431  220.0343 H   0  0  0  0  0  0  0  0  0  0  0  0
  136.5210   76.9090  223.4570 N   0  0  0  0  0  0  0  0  0  0  0  0
  136.2040   75.6180  223.2270 C   0  0  0  0  0  0  0  0  0  0  0  0
  135.4010   74.7850  224.1530 C   0  0  0  0  0  0  0  0  0  0  0  0
  134.6570   75.3780  225.1900 C   0  0  0  0  0  0  0  0  0  0  0  0
  134.6306   76.4734  225.2871 H   0  0  0  0  0  0  0  0  0  0  0  0
  133.9500   74.5810  226.0990 C   0  0  0  0  0  0  0  0  0  0  0  0
  133.3798   75.0525  226.9130 H   0  0  0  0  0  0  0  0  0  0  0  0
  133.9660   73.1880  225.9760 C   0  0  0  0  0  0  0  0  0  0  0  0
  133.1160   72.1710  227.1960 S   0  0  0  0  0  0  0  0  0  0  0  0
  131.7350   73.3410  227.3710 C   0  0  0  0  0  0  0  0  0  0  0  0
  131.5327   73.5124  228.4386 H   0  0  0  0  0  0  0  0  0  0  0  0
  131.9990   74.2945  226.8902 H   0  0  0  0  0  0  0  0  0  0  0  0
  130.8379   72.9239  226.8902 H   0  0  0  0  0  0  0  0  0  0  0  0
  134.6760   72.5890  224.9290 C   0  0  0  0  0  0  0  0  0  0  0  0
  134.6767   71.4944  224.8204 H   0  0  0  0  0  0  0  0  0  0  0  0
  135.3860   73.3840  224.0190 C   0  0  0  0  0  0  0  0  0  0  0  0
  135.9361   72.9091  223.1932 H   0  0  0  0  0  0  0  0  0  0  0  0
  136.6290   75.1960  222.0100 N   0  0  0  0  0  0  0  0  0  0  0  0
  136.4890   74.2620  221.5660 H   0  0  0  0  0  0  0  0  0  0  0  0
  141.3650   76.1470  221.6870 N   0  0  0  0  0  0  0  0  0  0  0  0
  142.1220   75.6760  222.2440 H   0  0  0  0  0  0  0  0  0  0  0  0
  141.4680   77.5500  221.3620 C   0  0  0  0  0  0  0  0  0  0  0  0
  141.4020   77.9630  220.0210 C   0  0  0  0  0  0  0  0  0  0  0  0
  141.2026   77.2252  219.2299 H   0  0  0  0  0  0  0  0  0  0  0  0
  141.5890   79.3100  219.6870 C   0  0  0  0  0  0  0  0  0  0  0  0
  141.5607   79.6210  218.6323 H   0  0  0  0  0  0  0  0  0  0  0  0
  141.8120   80.2640  220.6890 C   0  0  0  0  0  0  0  0  0  0  0  0
  141.9610   81.3194  220.4170 H   0  0  0  0  0  0  0  0  0  0  0  0
  141.8460   79.8780  222.0400 C   0  0  0  0  0  0  0  0  0  0  0  0
  142.0640   80.9070  223.1310 C   0  0  0  0  0  0  0  0  0  0  0  0
  141.2430   80.6410  224.2140 F   0  0  0  0  0  0  0  0  0  0  0  0
  141.7800   82.1860  222.6780 F   0  0  0  0  0  0  0  0  0  0  0  0
  143.3820   80.8630  223.5420 F   0  0  0  0  0  0  0  0  0  0  0  0
  141.7120   78.5170  222.3690 C   0  0  0  0  0  0  0  0  0  0  0  0
  141.7975   78.1999  223.4188 H   0  0  0  0  0  0  0  0  0  0  0  0
  1  2  1  0
  2  3  1  0
  3  4  2  0
  4  5  1  0
  4  6  1  0
  6  7  1  0
  7  8  2  0
  8  9  1  0
  9 10  2  0
 10 11  1  0
 10 12  1  0
 12 13  1  0
 12 14  2  0
 14 15  1  0
 14 16  1  0
 16 17  1  0
 16 18  2  0
 18 19  1  0
  8 20  1  0
 20 21  2  0
 21 22  1  0
 22 23  2  0
 23 24  1  0
 23 25  1  0
 25 26  1  0
 25 27  2  0
 27 28  1  0
 28 29  1  0
 29 30  1  0
 29 31  1  0
 29 32  1  0
 27 33  1  0
 33 34  1  0
 33 35  2  0
 35 36  1  0
 21 37  1  0
 37 38  1  0
  3 39  1  0
 39 40  1  0
 39 41  1  0
 41 42  2  0
 42 43  1  0
 42 44  1  0
 44 45  1  0
 44 46  2  0
 46 47  1  0
 46 48  1  0
 48 49  1  0
 49 50  1  0
 49 51  1  0
 49 52  1  0
 48 53  2  0
 53 54  1  0
 37  7  1  0
 53 41  1  0
 18  9  1  0
 35 22  1  0
M  END
>  <UniqueID>  (66) 
8

>  <SMILES>  (66) 
CSc1ccc(-c2nc(-c3ccc(F)cc3)c(S/C=C(/O)Nc3cccc(C(F)(F)F)c3)[nH]2)cc1

>  <Energy>  (66) 
102.14858962184822

>  <Genealogy>  (66) 
CSc1ccc(-c2nc(-c3ccc(F)cc3)c(SC=C(O)Nc3cccc(C(F)(F)F)c3)[nH]2)cc1 (tautomer)
CSc1ccc(-c2nc(-c3ccc(F)cc3)c(S/C=C(/O)Nc3cccc(C(F)(F)F)c3)[nH]2)cc1 (cis-trans isomerization)
CSc1ccc(-c2nc(-c3ccc(F)cc3)c(S/C=C(/O)Nc3cccc(C(F)(F)F)c3)[nH]2)cc1 (3D coordinates assigned)
CSc1ccc(-c2nc(-c3ccc(F)cc3)c(S/C=C(/O)Nc3cccc(C(F)(F)F)c3)[nH]2)cc1 (optimized conformer: 102.14858962184822 kcal/mol)

>  <smiles>  (66) 
CSc1ccc(-c2nc(-c3ccc(F)cc3)c(SCC(=O)Nc3cccc(C(F)(F)F)c3)[nH]2)cc1

>  <score_type>  (66) 
oracle

>  <origin>  (66) 
autodockgpu

>  <m_score__min__energy>  (66) 
-8.8300000000000001

>  <m_primary>  (66) 
energy

>  <meeko>  (66) 
{"free_energy": -6.68, "intermolecular_energy": -9.66, "internal_energy": -2.49, "cluster_size": 1, "cluster_id": 7, "rank_in_cluster": 1}

>  <energy>  (66) 
-7.99

>  <cluster_rmsd>  (66) 
0.0

>  <rmsd>  (66) 
271.88

>  <cluster>  (66) 
3

$$$$
YIYSDEKHFQTGLA-MGNXZEIYNA-N
     RDKit          3D

 54 57  0  0  0  0  0  0  0  0999 V2000
  143.7080   78.5600  216.8390 H   0  0  0  0  0  0  0  0  0  0  0  0
  143.2890   77.7850  217.3370 O   0  0  0  0  0  0  0  0  0  0  0  0
  142.5890   77.9250  218.5520 C   0  0  0  0  0  0  0  0  0  0  0  0
  141.6400   78.8770  218.6980 C   0  0  0  0  0  0  0  0  0  0  0  0
  141.9215   79.9092  218.4424 H   0  0  0  0  0  0  0  0  0  0  0  0
  139.9440   78.6020  219.2780 S   0  0  0  0  0  0  0  0  0  0  0  0
  140.2290   77.3810  220.5670 C   0  0  0  0  0  0  0  0  0  0  0  0
  140.6990   77.5350  221.8680 C   0  0  0  0  0  0  0  0  0  0  0  0
  141.1630   78.7690  222.5380 C   0  0  0  0  0  0  0  0  0  0  0  0
  142.5370   79.0590  222.5500 C   0  0  0  0  0  0  0  0  0  0  0  0
  143.2428   78.3783  222.0516 H   0  0  0  0  0  0  0  0  0  0  0  0
  143.0150   80.2070  223.1910 C   0  0  0  0  0  0  0  0  0  0  0  0
  144.0932   80.4251  223.1957 H   0  0  0  0  0  0  0  0  0  0  0  0
  142.1230   81.0780  223.8260 C   0  0  0  0  0  0  0  0  0  0  0  0
  142.5870   82.1780  224.4620 F   0  0  0  0  0  0  0  0  0  0  0  0
  140.7580   80.7900  223.8360 C   0  0  0  0  0  0  0  0  0  0  0  0
  140.0576   81.4720  224.3403 H   0  0  0  0  0  0  0  0  0  0  0  0
  140.2770   79.6370  223.2070 C   0  0  0  0  0  0  0  0  0  0  0  0
  139.2017   79.4066  223.2347 H   0  0  0  0  0  0  0  0  0  0  0  0
  140.6710   76.3330  222.4860 N   0  0  0  0  0  0  0  0  0  0  0  0
  140.2040   75.4720  221.5590 C   0  0  0  0  0  0  0  0  0  0  0  0
  139.9550   74.0330  221.8160 C   0  0  0  0  0  0  0  0  0  0  0  0
  141.0270   73.1290  221.9330 C   0  0  0  0  0  0  0  0  0  0  0  0
  142.0620   73.4979  221.8812 H   0  0  0  0  0  0  0  0  0  0  0  0
  140.7830   71.7620  222.1150 C   0  0  0  0  0  0  0  0  0  0  0  0
  141.6268   71.0607  222.1938 H   0  0  0  0  0  0  0  0  0  0  0  0
  139.4710   71.2850  222.1970 C   0  0  0  0  0  0  0  0  0  0  0  0
  139.1690   69.5160  222.3530 S   0  0  0  0  0  0  0  0  0  0  0  0
  139.1920   69.5610  224.1700 C   0  0  0  0  0  0  0  0  0  0  0  0
  138.7249   68.6469  224.5654 H   0  0  0  0  0  0  0  0  0  0  0  0
  140.2323   69.6229  224.5221 H   0  0  0  0  0  0  0  0  0  0  0  0
  138.6327   70.4403  224.5221 H   0  0  0  0  0  0  0  0  0  0  0  0
  138.3970   72.1800  222.1140 C   0  0  0  0  0  0  0  0  0  0  0  0
  137.3645   71.8091  222.1932 H   0  0  0  0  0  0  0  0  0  0  0  0
  138.6380   73.5480  221.9300 C   0  0  0  0  0  0  0  0  0  0  0  0
  137.7917   74.2485  221.8742 H   0  0  0  0  0  0  0  0  0  0  0  0
  139.9040   76.0920  220.3910 N   0  0  0  0  0  0  0  0  0  0  0  0
  139.4960   75.6740  219.5250 H   0  0  0  0  0  0  0  0  0  0  0  0
  143.0100   77.1490  219.6820 N   0  0  0  0  0  0  0  0  0  0  0  0
  143.2180   77.6540  220.5800 H   0  0  0  0  0  0  0  0  0  0  0  0
  143.2850   75.7370  219.5600 C   0  0  0  0  0  0  0  0  0  0  0  0
  142.3550   74.8960  218.9270 C   0  0  0  0  0  0  0  0  0  0  0  0
  141.4546   75.3258  218.4638 H   0  0  0  0  0  0  0  0  0  0  0  0
  142.5690   73.5120  218.8830 C   0  0  0  0  0  0  0  0  0  0  0  0
  141.8230   72.8577  218.4082 H   0  0  0  0  0  0  0  0  0  0  0  0
  143.7290   72.9570  219.4410 C   0  0  0  0  0  0  0  0  0  0  0  0
  143.8881   71.8692  219.4041 H   0  0  0  0  0  0  0  0  0  0  0  0
  144.6890   73.7840  220.0470 C   0  0  0  0  0  0  0  0  0  0  0  0
  145.9560   73.1930  220.6330 C   0  0  0  0  0  0  0  0  0  0  0  0
  145.8200   73.0270  222.0010 F   0  0  0  0  0  0  0  0  0  0  0  0
  147.0470   74.0180  220.4040 F   0  0  0  0  0  0  0  0  0  0  0  0
  146.1980   71.9640  220.0500 F   0  0  0  0  0  0  0  0  0  0  0  0
  144.4470   75.1660  220.1390 C   0  0  0  0  0  0  0  0  0  0  0  0
  145.1661   75.8108  220.6654 H   0  0  0  0  0  0  0  0  0  0  0  0
  1  2  1  0
  2  3  1  0
  3  4  2  0
  4  5  1  0
  4  6  1  0
  6  7  1  0
  7  8  2  0
  8  9  1  0
  9 10  2  0
 10 11  1  0
 10 12  1  0
 12 13  1  0
 12 14  2  0
 14 15  1  0
 14 16  1  0
 16 17  1  0
 16 18  2  0
 18 19  1  0
  8 20  1  0
 20 21  2  0
 21 22  1  0
 22 23  2  0
 23 24  1  0
 23 25  1  0
 25 26  1  0
 25 27  2  0
 27 28  1  0
 28 29  1  0
 29 30  1  0
 29 31  1  0
 29 32  1  0
 27 33  1  0
 33 34  1  0
 33 35  2  0
 35 36  1  0
 21 37  1  0
 37 38  1  0
  3 39  1  0
 39 40  1  0
 39 41  1  0
 41 42  2  0
 42 43  1  0
 42 44  1  0
 44 45  1  0
 44 46  2  0
 46 47  1  0
 46 48  1  0
 48 49  1  0
 49 50  1  0
 49 51  1  0
 49 52  1  0
 48 53  2  0
 53 54  1  0
 37  7  1  0
 53 41  1  0
 18  9  1  0
 35 22  1  0
M  END
>  <UniqueID>  (67) 
8

>  <SMILES>  (67) 
CSc1ccc(-c2nc(-c3ccc(F)cc3)c(S/C=C(/O)Nc3cccc(C(F)(F)F)c3)[nH]2)cc1

>  <Energy>  (67) 
102.14858962184822

>  <Genealogy>  (67) 
CSc1ccc(-c2nc(-c3ccc(F)cc3)c(SC=C(O)Nc3cccc(C(F)(F)F)c3)[nH]2)cc1 (tautomer)
CSc1ccc(-c2nc(-c3ccc(F)cc3)c(S/C=C(/O)Nc3cccc(C(F)(F)F)c3)[nH]2)cc1 (cis-trans isomerization)
CSc1ccc(-c2nc(-c3ccc(F)cc3)c(S/C=C(/O)Nc3cccc(C(F)(F)F)c3)[nH]2)cc1 (3D coordinates assigned)
CSc1ccc(-c2nc(-c3ccc(F)cc3)c(S/C=C(/O)Nc3cccc(C(F)(F)F)c3)[nH]2)cc1 (optimized conformer: 102.14858962184822 kcal/mol)

>  <smiles>  (67) 
CSc1ccc(-c2nc(-c3ccc(F)cc3)c(SCC(=O)Nc3cccc(C(F)(F)F)c3)[nH]2)cc1

>  <score_type>  (67) 
oracle

>  <origin>  (67) 
autodockgpu

>  <m_score__min__energy>  (67) 
-8.8300000000000001

>  <m_primary>  (67) 
energy

>  <meeko>  (67) 
{"free_energy": -7.53, "intermolecular_energy": -10.51, "internal_energy": -2.38, "cluster_size": 4, "cluster_id": 6, "rank_in_cluster": 1}

>  <energy>  (67) 
-7.63

>  <cluster_rmsd>  (67) 
1.43

>  <rmsd>  (67) 
271.89

>  <cluster>  (67) 
3

$$$$
YIYSDEKHFQTGLA-MGNXZEIYNA-N
     RDKit          3D

 54 57  0  0  0  0  0  0  0  0999 V2000
  138.7980   74.6990  223.0650 H   0  0  0  0  0  0  0  0  0  0  0  0
  139.1460   75.6490  223.0500 O   0  0  0  0  0  0  0  0  0  0  0  0
  139.9200   76.1800  222.0000 C   0  0  0  0  0  0  0  0  0  0  0  0
  139.6440   75.8720  220.7130 C   0  0  0  0  0  0  0  0  0  0  0  0
  139.7633   76.6728  219.9684 H   0  0  0  0  0  0  0  0  0  0  0  0
  139.0940   74.2530  220.1070 S   0  0  0  0  0  0  0  0  0  0  0  0
  139.9570   73.1620  221.2460 C   0  0  0  0  0  0  0  0  0  0  0  0
  141.2590   72.6730  221.2140 C   0  0  0  0  0  0  0  0  0  0  0  0
  142.2930   72.8730  220.1740 C   0  0  0  0  0  0  0  0  0  0  0  0
  143.4180   73.6550  220.4790 C   0  0  0  0  0  0  0  0  0  0  0  0
  143.5231   74.0925  221.4828 H   0  0  0  0  0  0  0  0  0  0  0  0
  144.4070   73.8820  219.5150 C   0  0  0  0  0  0  0  0  0  0  0  0
  145.2844   74.4975  219.7625 H   0  0  0  0  0  0  0  0  0  0  0  0
  144.2810   73.3270  218.2370 C   0  0  0  0  0  0  0  0  0  0  0  0
  145.2260   73.5620  217.2990 F   0  0  0  0  0  0  0  0  0  0  0  0
  143.1570   72.5630  217.9180 C   0  0  0  0  0  0  0  0  0  0  0  0
  143.0549   72.1312  216.9114 H   0  0  0  0  0  0  0  0  0  0  0  0
  142.1600   72.3450  218.8750 C   0  0  0  0  0  0  0  0  0  0  0  0
  141.2676   71.7582  218.6116 H   0  0  0  0  0  0  0  0  0  0  0  0
  141.4790   71.9460  222.3320 N   0  0  0  0  0  0  0  0  0  0  0  0
  140.3160   71.9890  223.0140 C   0  0  0  0  0  0  0  0  0  0  0  0
  140.1110   71.3660  224.3430 C   0  0  0  0  0  0  0  0  0  0  0  0
  140.8370   71.8090  225.4640 C   0  0  0  0  0  0  0  0  0  0  0  0
  141.5294   72.6581  225.3665 H   0  0  0  0  0  0  0  0  0  0  0  0
  140.6830   71.1750  226.7030 C   0  0  0  0  0  0  0  0  0  0  0  0
  141.2627   71.5214  227.5713 H   0  0  0  0  0  0  0  0  0  0  0  0
  139.7950   70.1030  226.8410 C   0  0  0  0  0  0  0  0  0  0  0  0
  139.6630   69.2470  228.4200 S   0  0  0  0  0  0  0  0  0  0  0  0
  141.0590   68.1380  228.0600 C   0  0  0  0  0  0  0  0  0  0  0  0
  141.5011   67.7868  229.0040 H   0  0  0  0  0  0  0  0  0  0  0  0
  140.7014   67.2750  227.4791 H   0  0  0  0  0  0  0  0  0  0  0  0
  141.8187   68.6815  227.4791 H   0  0  0  0  0  0  0  0  0  0  0  0
  139.0430   69.6750  225.7400 C   0  0  0  0  0  0  0  0  0  0  0  0
  138.3314   68.8434  225.8497 H   0  0  0  0  0  0  0  0  0  0  0  0
  139.1970   70.3060  224.4990 C   0  0  0  0  0  0  0  0  0  0  0  0
  138.5989   69.9707  223.6388 H   0  0  0  0  0  0  0  0  0  0  0  0
  139.3830   72.7450  222.3840 N   0  0  0  0  0  0  0  0  0  0  0  0
  138.4160   72.9760  222.7030 H   0  0  0  0  0  0  0  0  0  0  0  0
  141.1030   76.9220  222.3250 N   0  0  0  0  0  0  0  0  0  0  0  0
  142.0210   76.4120  222.3340 H   0  0  0  0  0  0  0  0  0  0  0  0
  141.0280   78.2940  222.7700 C   0  0  0  0  0  0  0  0  0  0  0  0
  142.2100   79.0140  223.0140 C   0  0  0  0  0  0  0  0  0  0  0  0
  143.1859   78.5547  222.7981 H   0  0  0  0  0  0  0  0  0  0  0  0
  142.1500   80.3140  223.5310 C   0  0  0  0  0  0  0  0  0  0  0  0
  143.0801   80.8618  223.7428 H   0  0  0  0  0  0  0  0  0  0  0  0
  140.9120   80.9210  223.7800 C   0  0  0  0  0  0  0  0  0  0  0  0
  140.8753   81.9412  224.1897 H   0  0  0  0  0  0  0  0  0  0  0  0
  139.7170   80.2330  223.5090 C   0  0  0  0  0  0  0  0  0  0  0  0
  138.3750   80.8910  223.7540 C   0  0  0  0  0  0  0  0  0  0  0  0
  137.3470   80.0090  223.4620 F   0  0  0  0  0  0  0  0  0  0  0  0
  138.2160   82.0170  222.9610 F   0  0  0  0  0  0  0  0  0  0  0  0
  138.2860   81.2650  225.0810 F   0  0  0  0  0  0  0  0  0  0  0  0
  139.7800   78.9070  223.0410 C   0  0  0  0  0  0  0  0  0  0  0  0
  138.8501   78.3407  222.8840 H   0  0  0  0  0  0  0  0  0  0  0  0
  1  2  1  0
  2  3  1  0
  3  4  2  0
  4  5  1  0
  4  6  1  0
  6  7  1  0
  7  8  2  0
  8  9  1  0
  9 10  2  0
 10 11  1  0
 10 12  1  0
 12 13  1  0
 12 14  2  0
 14 15  1  0
 14 16  1  0
 16 17  1  0
 16 18  2  0
 18 19  1  0
  8 20  1  0
 20 21  2  0
 21 22  1  0
 22 23  2  0
 23 24  1  0
 23 25  1  0
 25 26  1  0
 25 27  2  0
 27 28  1  0
 28 29  1  0
 29 30  1  0
 29 31  1  0
 29 32  1  0
 27 33  1  0
 33 34  1  0
 33 35  2  0
 35 36  1  0
 21 37  1  0
 37 38  1  0
  3 39  1  0
 39 40  1  0
 39 41  1  0
 41 42  2  0
 42 43  1  0
 42 44  1  0
 44 45  1  0
 44 46  2  0
 46 47  1  0
 46 48  1  0
 48 49  1  0
 49 50  1  0
 49 51  1  0
 49 52  1  0
 48 53  2  0
 53 54  1  0
 37  7  1  0
 53 41  1  0
 18  9  1  0
 35 22  1  0
M  END
>  <UniqueID>  (68) 
8

>  <SMILES>  (68) 
CSc1ccc(-c2nc(-c3ccc(F)cc3)c(S/C=C(/O)Nc3cccc(C(F)(F)F)c3)[nH]2)cc1

>  <Energy>  (68) 
102.14858962184822

>  <Genealogy>  (68) 
CSc1ccc(-c2nc(-c3ccc(F)cc3)c(SC=C(O)Nc3cccc(C(F)(F)F)c3)[nH]2)cc1 (tautomer)
CSc1ccc(-c2nc(-c3ccc(F)cc3)c(S/C=C(/O)Nc3cccc(C(F)(F)F)c3)[nH]2)cc1 (cis-trans isomerization)
CSc1ccc(-c2nc(-c3ccc(F)cc3)c(S/C=C(/O)Nc3cccc(C(F)(F)F)c3)[nH]2)cc1 (3D coordinates assigned)
CSc1ccc(-c2nc(-c3ccc(F)cc3)c(S/C=C(/O)Nc3cccc(C(F)(F)F)c3)[nH]2)cc1 (optimized conformer: 102.14858962184822 kcal/mol)

>  <smiles>  (68) 
CSc1ccc(-c2nc(-c3ccc(F)cc3)c(SCC(=O)Nc3cccc(C(F)(F)F)c3)[nH]2)cc1

>  <score_type>  (68) 
oracle

>  <origin>  (68) 
autodockgpu

>  <m_score__min__energy>  (68) 
-8.8300000000000001

>  <m_primary>  (68) 
energy

>  <meeko>  (68) 
{"free_energy": -8.83, "intermolecular_energy": -11.81, "internal_energy": -1.48, "cluster_size": 4, "cluster_id": 1, "rank_in_cluster": 1}

>  <energy>  (68) 
-7.61

>  <cluster_rmsd>  (68) 
1.46

>  <rmsd>  (68) 
271.9

>  <cluster>  (68) 
3

$$$$
YIYSDEKHFQTGLA-MGNXZEIYNA-N
     RDKit          3D

 54 57  0  0  0  0  0  0  0  0999 V2000
  136.9710   78.6010  223.1140 H   0  0  0  0  0  0  0  0  0  0  0  0
  137.9600   78.3860  223.0750 O   0  0  0  0  0  0  0  0  0  0  0  0
  138.4710   77.1310  222.6900 C   0  0  0  0  0  0  0  0  0  0  0  0
  137.6400   76.0920  222.4460 C   0  0  0  0  0  0  0  0  0  0  0  0
  136.7783   75.9695  223.1186 H   0  0  0  0  0  0  0  0  0  0  0  0
  137.8230   74.8830  221.1060 S   0  0  0  0  0  0  0  0  0  0  0  0
  139.0890   73.8100  221.7980 C   0  0  0  0  0  0  0  0  0  0  0  0
  140.4690   73.8110  221.6170 C   0  0  0  0  0  0  0  0  0  0  0  0
  141.2820   74.6770  220.7350 C   0  0  0  0  0  0  0  0  0  0  0  0
  142.6770   74.5220  220.7310 C   0  0  0  0  0  0  0  0  0  0  0  0
  143.1428   73.7545  221.3666 H   0  0  0  0  0  0  0  0  0  0  0  0
  143.4800   75.3370  219.9240 C   0  0  0  0  0  0  0  0  0  0  0  0
  144.5726   75.2097  219.9293 H   0  0  0  0  0  0  0  0  0  0  0  0
  142.8940   76.3130  219.1110 C   0  0  0  0  0  0  0  0  0  0  0  0
  143.6700   77.1130  218.3450 F   0  0  0  0  0  0  0  0  0  0  0  0
  141.5090   76.4870  219.1210 C   0  0  0  0  0  0  0  0  0  0  0  0
  141.0488   77.2578  218.4854 H   0  0  0  0  0  0  0  0  0  0  0  0
  140.7050   75.6850  219.9360 C   0  0  0  0  0  0  0  0  0  0  0  0
  139.6163   75.8412  219.9540 H   0  0  0  0  0  0  0  0  0  0  0  0
  141.0130   72.8580  222.4070 N   0  0  0  0  0  0  0  0  0  0  0  0
  139.9660   72.2880  223.0400 C   0  0  0  0  0  0  0  0  0  0  0  0
  140.0960   71.2170  224.0560 C   0  0  0  0  0  0  0  0  0  0  0  0
  140.9530   71.3770  225.1610 C   0  0  0  0  0  0  0  0  0  0  0  0
  141.4960   72.3235  225.2998 H   0  0  0  0  0  0  0  0  0  0  0  0
  141.1180   70.3370  226.0850 C   0  0  0  0  0  0  0  0  0  0  0  0
  141.7979   70.4666  226.9399 H   0  0  0  0  0  0  0  0  0  0  0  0
  140.4220   69.1350  225.9250 C   0  0  0  0  0  0  0  0  0  0  0  0
  140.7010   67.7770  227.0750 S   0  0  0  0  0  0  0  0  0  0  0  0
  140.3560   68.8010  228.5380 C   0  0  0  0  0  0  0  0  0  0  0  0
  140.5528   68.2169  229.4491 H   0  0  0  0  0  0  0  0  0  0  0  0
  141.0044   69.6895  228.5249 H   0  0  0  0  0  0  0  0  0  0  0  0
  139.3021   69.1160  228.5249 H   0  0  0  0  0  0  0  0  0  0  0  0
  139.5430   68.9770  224.8460 C   0  0  0  0  0  0  0  0  0  0  0  0
  138.9830   68.0379  224.7257 H   0  0  0  0  0  0  0  0  0  0  0  0
  139.3770   70.0150  223.9200 C   0  0  0  0  0  0  0  0  0  0  0  0
  138.6787   69.8894  223.0794 H   0  0  0  0  0  0  0  0  0  0  0  0
  138.7880   72.8680  222.7030 N   0  0  0  0  0  0  0  0  0  0  0  0
  137.8340   72.6500  223.0660 H   0  0  0  0  0  0  0  0  0  0  0  0
  139.8890   76.9280  222.7190 N   0  0  0  0  0  0  0  0  0  0  0  0
  140.2480   75.9750  222.9790 H   0  0  0  0  0  0  0  0  0  0  0  0
  140.8080   78.0280  222.5420 C   0  0  0  0  0  0  0  0  0  0  0  0
  141.7180   78.3490  223.5630 C   0  0  0  0  0  0  0  0  0  0  0  0
  141.7760   77.7195  224.4632 H   0  0  0  0  0  0  0  0  0  0  0  0
  142.5520   79.4680  223.4390 C   0  0  0  0  0  0  0  0  0  0  0  0
  143.2450   79.7267  224.2531 H   0  0  0  0  0  0  0  0  0  0  0  0
  142.5080   80.2590  222.2840 C   0  0  0  0  0  0  0  0  0  0  0  0
  143.1633   81.1383  222.1976 H   0  0  0  0  0  0  0  0  0  0  0  0
  141.6310   79.9350  221.2350 C   0  0  0  0  0  0  0  0  0  0  0  0
  141.5950   80.7730  219.9730 C   0  0  0  0  0  0  0  0  0  0  0  0
  142.5860   80.3650  219.0960 F   0  0  0  0  0  0  0  0  0  0  0  0
  141.7940   82.1160  220.2560 F   0  0  0  0  0  0  0  0  0  0  0  0
  140.3630   80.6250  219.3630 F   0  0  0  0  0  0  0  0  0  0  0  0
  140.7560   78.8430  221.3840 C   0  0  0  0  0  0  0  0  0  0  0  0
  140.0243   78.6198  220.5936 H   0  0  0  0  0  0  0  0  0  0  0  0
  1  2  1  0
  2  3  1  0
  3  4  2  0
  4  5  1  0
  4  6  1  0
  6  7  1  0
  7  8  2  0
  8  9  1  0
  9 10  2  0
 10 11  1  0
 10 12  1  0
 12 13  1  0
 12 14  2  0
 14 15  1  0
 14 16  1  0
 16 17  1  0
 16 18  2  0
 18 19  1  0
  8 20  1  0
 20 21  2  0
 21 22  1  0
 22 23  2  0
 23 24  1  0
 23 25  1  0
 25 26  1  0
 25 27  2  0
 27 28  1  0
 28 29  1  0
 29 30  1  0
 29 31  1  0
 29 32  1  0
 27 33  1  0
 33 34  1  0
 33 35  2  0
 35 36  1  0
 21 37  1  0
 37 38  1  0
  3 39  1  0
 39 40  1  0
 39 41  1  0
 41 42  2  0
 42 43  1  0
 42 44  1  0
 44 45  1  0
 44 46  2  0
 46 47  1  0
 46 48  1  0
 48 49  1  0
 49 50  1  0
 49 51  1  0
 49 52  1  0
 48 53  2  0
 53 54  1  0
 37  7  1  0
 53 41  1  0
 18  9  1  0
 35 22  1  0
M  END
>  <UniqueID>  (69) 
8

>  <SMILES>  (69) 
CSc1ccc(-c2nc(-c3ccc(F)cc3)c(S/C=C(/O)Nc3cccc(C(F)(F)F)c3)[nH]2)cc1

>  <Energy>  (69) 
102.14858962184822

>  <Genealogy>  (69) 
CSc1ccc(-c2nc(-c3ccc(F)cc3)c(SC=C(O)Nc3cccc(C(F)(F)F)c3)[nH]2)cc1 (tautomer)
CSc1ccc(-c2nc(-c3ccc(F)cc3)c(S/C=C(/O)Nc3cccc(C(F)(F)F)c3)[nH]2)cc1 (cis-trans isomerization)
CSc1ccc(-c2nc(-c3ccc(F)cc3)c(S/C=C(/O)Nc3cccc(C(F)(F)F)c3)[nH]2)cc1 (3D coordinates assigned)
CSc1ccc(-c2nc(-c3ccc(F)cc3)c(S/C=C(/O)Nc3cccc(C(F)(F)F)c3)[nH]2)cc1 (optimized conformer: 102.14858962184822 kcal/mol)

>  <smiles>  (69) 
CSc1ccc(-c2nc(-c3ccc(F)cc3)c(SCC(=O)Nc3cccc(C(F)(F)F)c3)[nH]2)cc1

>  <score_type>  (69) 
oracle

>  <origin>  (69) 
autodockgpu

>  <m_score__min__energy>  (69) 
-8.8300000000000001

>  <m_primary>  (69) 
energy

>  <meeko>  (69) 
{"free_energy": -7.61, "intermolecular_energy": -10.59, "internal_energy": -2.13, "cluster_size": 5, "cluster_id": 3, "rank_in_cluster": 3}

>  <energy>  (69) 
-7.59

>  <cluster_rmsd>  (69) 
1.45

>  <rmsd>  (69) 
271.9

>  <cluster>  (69) 
3

$$$$
YIYSDEKHFQTGLA-MGNXZEIYNA-N
     RDKit          3D

 54 57  0  0  0  0  0  0  0  0999 V2000
  138.8650   74.9540  223.2600 H   0  0  0  0  0  0  0  0  0  0  0  0
  138.6310   75.9260  223.1000 O   0  0  0  0  0  0  0  0  0  0  0  0
  137.5500   76.3470  222.3020 C   0  0  0  0  0  0  0  0  0  0  0  0
  136.8540   75.4590  221.5560 C   0  0  0  0  0  0  0  0  0  0  0  0
  135.7600   75.4557  221.6706 H   0  0  0  0  0  0  0  0  0  0  0  0
  137.5670   74.2730  220.3830 S   0  0  0  0  0  0  0  0  0  0  0  0
  138.8320   73.5110  221.4100 C   0  0  0  0  0  0  0  0  0  0  0  0
  140.1780   73.8260  221.5650 C   0  0  0  0  0  0  0  0  0  0  0  0
  140.9690   74.8610  220.8620 C   0  0  0  0  0  0  0  0  0  0  0  0
  142.2770   74.5550  220.4560 C   0  0  0  0  0  0  0  0  0  0  0  0
  142.6886   73.5535  220.6499 H   0  0  0  0  0  0  0  0  0  0  0  0
  143.0620   75.5150  219.8060 C   0  0  0  0  0  0  0  0  0  0  0  0
  144.0870   75.2667  219.4934 H   0  0  0  0  0  0  0  0  0  0  0  0
  142.5440   76.7890  219.5540 C   0  0  0  0  0  0  0  0  0  0  0  0
  143.3080   77.7230  218.9430 F   0  0  0  0  0  0  0  0  0  0  0  0
  141.2500   77.1090  219.9700 C   0  0  0  0  0  0  0  0  0  0  0  0
  140.8448   78.1132  219.7767 H   0  0  0  0  0  0  0  0  0  0  0  0
  140.4680   76.1580  220.6310 C   0  0  0  0  0  0  0  0  0  0  0  0
  139.4565   76.4229  220.9727 H   0  0  0  0  0  0  0  0  0  0  0  0
  140.7100   73.0160  222.5080 N   0  0  0  0  0  0  0  0  0  0  0  0
  139.6940   72.2180  222.8980 C   0  0  0  0  0  0  0  0  0  0  0  0
  139.8060   71.1980  223.9670 C   0  0  0  0  0  0  0  0  0  0  0  0
  140.7010   71.3760  225.0390 C   0  0  0  0  0  0  0  0  0  0  0  0
  141.2894   72.3025  225.1125 H   0  0  0  0  0  0  0  0  0  0  0  0
  140.8460   70.3800  226.0120 C   0  0  0  0  0  0  0  0  0  0  0  0
  141.5556   70.5231  226.8403 H   0  0  0  0  0  0  0  0  0  0  0  0
  140.0930   69.2040  225.9360 C   0  0  0  0  0  0  0  0  0  0  0  0
  140.3450   67.8980  227.1510 S   0  0  0  0  0  0  0  0  0  0  0  0
  141.0190   69.0370  228.3980 C   0  0  0  0  0  0  0  0  0  0  0  0
  140.7927   68.6546  229.4043 H   0  0  0  0  0  0  0  0  0  0  0  0
  142.1090   69.1153  228.2720 H   0  0  0  0  0  0  0  0  0  0  0  0
  140.5630   70.0301  228.2720 H   0  0  0  0  0  0  0  0  0  0  0  0
  139.1760   69.0300  224.8920 C   0  0  0  0  0  0  0  0  0  0  0  0
  138.5704   68.1133  224.8388 H   0  0  0  0  0  0  0  0  0  0  0  0
  139.0300   70.0240  223.9150 C   0  0  0  0  0  0  0  0  0  0  0  0
  138.3033   69.8861  223.1008 H   0  0  0  0  0  0  0  0  0  0  0  0
  138.5350   72.5180  222.2610 N   0  0  0  0  0  0  0  0  0  0  0  0
  137.5940   72.0860  222.3950 H   0  0  0  0  0  0  0  0  0  0  0  0
  137.3010   77.7520  222.1660 N   0  0  0  0  0  0  0  0  0  0  0  0
  136.5290   78.0590  221.5220 H   0  0  0  0  0  0  0  0  0  0  0  0
  138.1720   78.7290  222.7750 C   0  0  0  0  0  0  0  0  0  0  0  0
  137.6290   79.9020  223.3270 C   0  0  0  0  0  0  0  0  0  0  0  0
  136.5380   80.0391  223.3570 H   0  0  0  0  0  0  0  0  0  0  0  0
  138.4710   80.8970  223.8390 C   0  0  0  0  0  0  0  0  0  0  0  0
  138.0390   81.8233  224.2457 H   0  0  0  0  0  0  0  0  0  0  0  0
  139.8610   80.7190  223.8360 C   0  0  0  0  0  0  0  0  0  0  0  0
  140.5145   81.5072  224.2381 H   0  0  0  0  0  0  0  0  0  0  0  0
  140.4240   79.5390  223.3220 C   0  0  0  0  0  0  0  0  0  0  0  0
  141.9240   79.3310  223.3350 C   0  0  0  0  0  0  0  0  0  0  0  0
  142.5480   80.3690  224.0060 F   0  0  0  0  0  0  0  0  0  0  0  0
  142.4350   79.2800  222.0470 F   0  0  0  0  0  0  0  0  0  0  0  0
  142.2130   78.1410  223.9750 F   0  0  0  0  0  0  0  0  0  0  0  0
  139.5800   78.5650  222.7580 C   0  0  0  0  0  0  0  0  0  0  0  0
  140.0174   77.6663  222.2987 H   0  0  0  0  0  0  0  0  0  0  0  0
  1  2  1  0
  2  3  1  0
  3  4  2  0
  4  5  1  0
  4  6  1  0
  6  7  1  0
  7  8  2  0
  8  9  1  0
  9 10  2  0
 10 11  1  0
 10 12  1  0
 12 13  1  0
 12 14  2  0
 14 15  1  0
 14 16  1  0
 16 17  1  0
 16 18  2  0
 18 19  1  0
  8 20  1  0
 20 21  2  0
 21 22  1  0
 22 23  2  0
 23 24  1  0
 23 25  1  0
 25 26  1  0
 25 27  2  0
 27 28  1  0
 28 29  1  0
 29 30  1  0
 29 31  1  0
 29 32  1  0
 27 33  1  0
 33 34  1  0
 33 35  2  0
 35 36  1  0
 21 37  1  0
 37 38  1  0
  3 39  1  0
 39 40  1  0
 39 41  1  0
 41 42  2  0
 42 43  1  0
 42 44  1  0
 44 45  1  0
 44 46  2  0
 46 47  1  0
 46 48  1  0
 48 49  1  0
 49 50  1  0
 49 51  1  0
 49 52  1  0
 48 53  2  0
 53 54  1  0
 37  7  1  0
 53 41  1  0
 18  9  1  0
 35 22  1  0
M  END
>  <UniqueID>  (70) 
8

>  <SMILES>  (70) 
CSc1ccc(-c2nc(-c3ccc(F)cc3)c(S/C=C(/O)Nc3cccc(C(F)(F)F)c3)[nH]2)cc1

>  <Energy>  (70) 
102.14858962184822

>  <Genealogy>  (70) 
CSc1ccc(-c2nc(-c3ccc(F)cc3)c(SC=C(O)Nc3cccc(C(F)(F)F)c3)[nH]2)cc1 (tautomer)
CSc1ccc(-c2nc(-c3ccc(F)cc3)c(S/C=C(/O)Nc3cccc(C(F)(F)F)c3)[nH]2)cc1 (cis-trans isomerization)
CSc1ccc(-c2nc(-c3ccc(F)cc3)c(S/C=C(/O)Nc3cccc(C(F)(F)F)c3)[nH]2)cc1 (3D coordinates assigned)
CSc1ccc(-c2nc(-c3ccc(F)cc3)c(S/C=C(/O)Nc3cccc(C(F)(F)F)c3)[nH]2)cc1 (optimized conformer: 102.14858962184822 kcal/mol)

>  <smiles>  (70) 
CSc1ccc(-c2nc(-c3ccc(F)cc3)c(SCC(=O)Nc3cccc(C(F)(F)F)c3)[nH]2)cc1

>  <score_type>  (70) 
oracle

>  <origin>  (70) 
autodockgpu

>  <m_score__min__energy>  (70) 
-8.8300000000000001

>  <m_primary>  (70) 
energy

>  <meeko>  (70) 
{"free_energy": -7.72, "intermolecular_energy": -10.7, "internal_energy": -1.92, "cluster_size": 2, "cluster_id": 4, "rank_in_cluster": 1}

>  <energy>  (70) 
-6.94

>  <cluster_rmsd>  (70) 
1.63

>  <rmsd>  (70) 
271.54

>  <cluster>  (70) 
3

$$$$
YIYSDEKHFQTGLA-MGNXZEIYNA-N
     RDKit          3D

 54 57  0  0  0  0  0  0  0  0999 V2000
  144.8490   76.0100  217.2950 H   0  0  0  0  0  0  0  0  0  0  0  0
  143.8850   76.3140  217.3550 O   0  0  0  0  0  0  0  0  0  0  0  0
  143.2840   76.7730  218.5420 C   0  0  0  0  0  0  0  0  0  0  0  0
  142.3200   77.7210  218.5080 C   0  0  0  0  0  0  0  0  0  0  0  0
  142.6430   78.7591  218.3407 H   0  0  0  0  0  0  0  0  0  0  0  0
  140.5410   77.4310  218.7140 S   0  0  0  0  0  0  0  0  0  0  0  0
  140.5390   76.4390  220.2140 C   0  0  0  0  0  0  0  0  0  0  0  0
  140.8250   76.7930  221.5290 C   0  0  0  0  0  0  0  0  0  0  0  0
  141.2840   78.0980  222.0520 C   0  0  0  0  0  0  0  0  0  0  0  0
  141.4440   78.2550  223.4380 C   0  0  0  0  0  0  0  0  0  0  0  0
  141.2431   77.4074  224.1097 H   0  0  0  0  0  0  0  0  0  0  0  0
  141.8570   79.4810  223.9720 C   0  0  0  0  0  0  0  0  0  0  0  0
  141.9781   79.5942  225.0594 H   0  0  0  0  0  0  0  0  0  0  0  0
  142.1160   80.5630  223.1230 C   0  0  0  0  0  0  0  0  0  0  0  0
  142.4970   81.7530  223.6390 F   0  0  0  0  0  0  0  0  0  0  0  0
  141.9420   80.4230  221.7450 C   0  0  0  0  0  0  0  0  0  0  0  0
  142.1399   81.2752  221.0783 H   0  0  0  0  0  0  0  0  0  0  0  0
  141.5170   79.2030  221.2090 C   0  0  0  0  0  0  0  0  0  0  0  0
  141.3639   79.1056  220.1241 H   0  0  0  0  0  0  0  0  0  0  0  0
  140.6140   75.7200  222.3240 N   0  0  0  0  0  0  0  0  0  0  0  0
  140.2200   74.7360  221.4900 C   0  0  0  0  0  0  0  0  0  0  0  0
  139.8240   73.3800  221.9370 C   0  0  0  0  0  0  0  0  0  0  0  0
  138.5590   72.8560  221.6090 C   0  0  0  0  0  0  0  0  0  0  0  0
  137.8738   73.4369  220.9742 H   0  0  0  0  0  0  0  0  0  0  0  0
  138.1690   71.5990  222.0870 C   0  0  0  0  0  0  0  0  0  0  0  0
  137.1746   71.2021  221.8349 H   0  0  0  0  0  0  0  0  0  0  0  0
  139.0370   70.8460  222.8830 C   0  0  0  0  0  0  0  0  0  0  0  0
  138.4940   69.2650  223.5550 S   0  0  0  0  0  0  0  0  0  0  0  0
  139.3710   69.5090  225.1290 C   0  0  0  0  0  0  0  0  0  0  0  0
  138.6829   69.3176  225.9656 H   0  0  0  0  0  0  0  0  0  0  0  0
  140.2211   68.8132  225.1868 H   0  0  0  0  0  0  0  0  0  0  0  0
  139.7396   70.5438  225.1868 H   0  0  0  0  0  0  0  0  0  0  0  0
  140.3100   71.3440  223.1890 C   0  0  0  0  0  0  0  0  0  0  0  0
  141.0012   70.7472  223.8023 H   0  0  0  0  0  0  0  0  0  0  0  0
  140.7030   72.6020  222.7140 C   0  0  0  0  0  0  0  0  0  0  0  0
  141.7068   72.9850  222.9502 H   0  0  0  0  0  0  0  0  0  0  0  0
  140.1420   75.1580  220.2030 N   0  0  0  0  0  0  0  0  0  0  0  0
  139.8330   74.6190  219.3650 H   0  0  0  0  0  0  0  0  0  0  0  0
  143.8210   76.3380  219.7980 N   0  0  0  0  0  0  0  0  0  0  0  0
  144.1800   77.0680  220.4630 H   0  0  0  0  0  0  0  0  0  0  0  0
  144.0020   74.9350  220.0900 C   0  0  0  0  0  0  0  0  0  0  0  0
  145.1980   74.4940  220.6800 C   0  0  0  0  0  0  0  0  0  0  0  0
  145.9628   75.2250  220.9813 H   0  0  0  0  0  0  0  0  0  0  0  0
  145.4200   73.1260  220.8860 C   0  0  0  0  0  0  0  0  0  0  0  0
  146.3693   72.7863  221.3259 H   0  0  0  0  0  0  0  0  0  0  0  0
  144.4400   72.1880  220.5350 C   0  0  0  0  0  0  0  0  0  0  0  0
  144.6251   71.1159  220.6970 H   0  0  0  0  0  0  0  0  0  0  0  0
  143.2220   72.6110  219.9770 C   0  0  0  0  0  0  0  0  0  0  0  0
  142.1480   71.6050  219.6150 C   0  0  0  0  0  0  0  0  0  0  0  0
  140.9840   72.2560  219.2470 F   0  0  0  0  0  0  0  0  0  0  0  0
  141.8580   70.7740  220.6870 F   0  0  0  0  0  0  0  0  0  0  0  0
  142.5870   70.8300  218.5590 F   0  0  0  0  0  0  0  0  0  0  0  0
  143.0220   73.9800  219.7210 C   0  0  0  0  0  0  0  0  0  0  0  0
  142.0957   74.3124  219.2295 H   0  0  0  0  0  0  0  0  0  0  0  0
  1  2  1  0
  2  3  1  0
  3  4  2  0
  4  5  1  0
  4  6  1  0
  6  7  1  0
  7  8  2  0
  8  9  1  0
  9 10  2  0
 10 11  1  0
 10 12  1  0
 12 13  1  0
 12 14  2  0
 14 15  1  0
 14 16  1  0
 16 17  1  0
 16 18  2  0
 18 19  1  0
  8 20  1  0
 20 21  2  0
 21 22  1  0
 22 23  2  0
 23 24  1  0
 23 25  1  0
 25 26  1  0
 25 27  2  0
 27 28  1  0
 28 29  1  0
 29 30  1  0
 29 31  1  0
 29 32  1  0
 27 33  1  0
 33 34  1  0
 33 35  2  0
 35 36  1  0
 21 37  1  0
 37 38  1  0
  3 39  1  0
 39 40  1  0
 39 41  1  0
 41 42  2  0
 42 43  1  0
 42 44  1  0
 44 45  1  0
 44 46  2  0
 46 47  1  0
 46 48  1  0
 48 49  1  0
 49 50  1  0
 49 51  1  0
 49 52  1  0
 48 53  2  0
 53 54  1  0
 37  7  1  0
 53 41  1  0
 18  9  1  0
 35 22  1  0
M  END
>  <UniqueID>  (71) 
8

>  <SMILES>  (71) 
CSc1ccc(-c2nc(-c3ccc(F)cc3)c(S/C=C(/O)Nc3cccc(C(F)(F)F)c3)[nH]2)cc1

>  <Energy>  (71) 
102.14858962184822

>  <Genealogy>  (71) 
CSc1ccc(-c2nc(-c3ccc(F)cc3)c(SC=C(O)Nc3cccc(C(F)(F)F)c3)[nH]2)cc1 (tautomer)
CSc1ccc(-c2nc(-c3ccc(F)cc3)c(S/C=C(/O)Nc3cccc(C(F)(F)F)c3)[nH]2)cc1 (cis-trans isomerization)
CSc1ccc(-c2nc(-c3ccc(F)cc3)c(S/C=C(/O)Nc3cccc(C(F)(F)F)c3)[nH]2)cc1 (3D coordinates assigned)
CSc1ccc(-c2nc(-c3ccc(F)cc3)c(S/C=C(/O)Nc3cccc(C(F)(F)F)c3)[nH]2)cc1 (optimized conformer: 102.14858962184822 kcal/mol)

>  <smiles>  (71) 
CSc1ccc(-c2nc(-c3ccc(F)cc3)c(SCC(=O)Nc3cccc(C(F)(F)F)c3)[nH]2)cc1

>  <score_type>  (71) 
oracle

>  <origin>  (71) 
autodockgpu

>  <m_score__min__energy>  (71) 
-8.8300000000000001

>  <m_primary>  (71) 
energy

>  <meeko>  (71) 
{"free_energy": -7.47, "intermolecular_energy": -10.45, "internal_energy": -2.54, "cluster_size": 4, "cluster_id": 6, "rank_in_cluster": 2}

>  <energy>  (71) 
-7.72

>  <cluster_rmsd>  (71) 
0.0

>  <rmsd>  (71) 
271.88

>  <cluster>  (71) 
4

$$$$
YIYSDEKHFQTGLA-MGNXZEIYNA-N
     RDKit          3D

 54 57  0  0  0  0  0  0  0  0999 V2000
  139.5320   80.1100  218.4210 H   0  0  0  0  0  0  0  0  0  0  0  0
  139.9650   79.4340  219.0370 O   0  0  0  0  0  0  0  0  0  0  0  0
  141.3580   79.2660  219.1550 C   0  0  0  0  0  0  0  0  0  0  0  0
  142.0260   78.4240  218.3340 C   0  0  0  0  0  0  0  0  0  0  0  0
  141.8829   78.5596  217.2518 H   0  0  0  0  0  0  0  0  0  0  0  0
  143.1370   77.0910  218.8610 S   0  0  0  0  0  0  0  0  0  0  0  0
  142.0330   76.1340  219.9100 C   0  0  0  0  0  0  0  0  0  0  0  0
  142.2170   74.8970  220.5210 C   0  0  0  0  0  0  0  0  0  0  0  0
  143.3740   73.9820  220.4180 C   0  0  0  0  0  0  0  0  0  0  0  0
  144.6700   74.5180  220.4830 C   0  0  0  0  0  0  0  0  0  0  0  0
  144.8067   75.6003  220.6245 H   0  0  0  0  0  0  0  0  0  0  0  0
  145.7900   73.6850  220.3690 C   0  0  0  0  0  0  0  0  0  0  0  0
  146.8016   74.1142  220.4180 H   0  0  0  0  0  0  0  0  0  0  0  0
  145.6230   72.3080  220.1930 C   0  0  0  0  0  0  0  0  0  0  0  0
  146.7040   71.5050  220.0640 F   0  0  0  0  0  0  0  0  0  0  0  0
  144.3390   71.7670  220.1090 C   0  0  0  0  0  0  0  0  0  0  0  0
  144.2086   70.6844  219.9645 H   0  0  0  0  0  0  0  0  0  0  0  0
  143.2180   72.5970  220.2080 C   0  0  0  0  0  0  0  0  0  0  0  0
  142.2093   72.1668  220.1215 H   0  0  0  0  0  0  0  0  0  0  0  0
  141.1310   74.6200  221.2760 N   0  0  0  0  0  0  0  0  0  0  0  0
  140.3050   75.6730  221.1050 C   0  0  0  0  0  0  0  0  0  0  0  0
  139.0020   75.8240  221.7950 C   0  0  0  0  0  0  0  0  0  0  0  0
  138.6280   77.0580  222.3600 C   0  0  0  0  0  0  0  0  0  0  0  0
  139.2853   77.9329  222.2481 H   0  0  0  0  0  0  0  0  0  0  0  0
  137.4230   77.1770  223.0640 C   0  0  0  0  0  0  0  0  0  0  0  0
  137.1439   78.1421  223.5121 H   0  0  0  0  0  0  0  0  0  0  0  0
  136.5730   76.0750  223.2000 C   0  0  0  0  0  0  0  0  0  0  0  0
  135.0640   76.2210  224.1720 S   0  0  0  0  0  0  0  0  0  0  0  0
  135.1270   74.4920  224.7320 C   0  0  0  0  0  0  0  0  0  0  0  0
  135.1281   74.4625  225.8316 H   0  0  0  0  0  0  0  0  0  0  0  0
  134.2480   73.9511  224.3516 H   0  0  0  0  0  0  0  0  0  0  0  0
  136.0431   74.0165  224.3516 H   0  0  0  0  0  0  0  0  0  0  0  0
  136.9210   74.8510  222.6140 C   0  0  0  0  0  0  0  0  0  0  0  0
  136.2475   73.9862  222.7061 H   0  0  0  0  0  0  0  0  0  0  0  0
  138.1260   74.7280  221.9110 C   0  0  0  0  0  0  0  0  0  0  0  0
  138.3902   73.7670  221.4456 H   0  0  0  0  0  0  0  0  0  0  0  0
  140.8450   76.6190  220.2970 N   0  0  0  0  0  0  0  0  0  0  0  0
  140.4410   77.5430  220.0270 H   0  0  0  0  0  0  0  0  0  0  0  0
  142.0340   79.8780  220.2620 N   0  0  0  0  0  0  0  0  0  0  0  0
  142.9680   80.3250  220.0870 H   0  0  0  0  0  0  0  0  0  0  0  0
  141.5240   79.7600  221.6080 C   0  0  0  0  0  0  0  0  0  0  0  0
  142.2750   79.0800  222.5820 C   0  0  0  0  0  0  0  0  0  0  0  0
  143.2779   78.7017  222.3348 H   0  0  0  0  0  0  0  0  0  0  0  0
  141.7520   78.8820  223.8660 C   0  0  0  0  0  0  0  0  0  0  0  0
  142.3360   78.3275  224.6153 H   0  0  0  0  0  0  0  0  0  0  0  0
  140.4880   79.3870  224.2010 C   0  0  0  0  0  0  0  0  0  0  0  0
  140.0832   79.2232  225.2106 H   0  0  0  0  0  0  0  0  0  0  0  0
  139.7360   80.1010  223.2540 C   0  0  0  0  0  0  0  0  0  0  0  0
  138.3790   80.6700  223.6160 C   0  0  0  0  0  0  0  0  0  0  0  0
  138.2990   82.0000  223.2390 F   0  0  0  0  0  0  0  0  0  0  0  0
  138.1500   80.5920  224.9810 F   0  0  0  0  0  0  0  0  0  0  0  0
  137.3950   79.9540  222.9600 F   0  0  0  0  0  0  0  0  0  0  0  0
  140.2390   80.2520  221.9490 C   0  0  0  0  0  0  0  0  0  0  0  0
  139.6291   80.7569  221.1854 H   0  0  0  0  0  0  0  0  0  0  0  0
  1  2  1  0
  2  3  1  0
  3  4  2  0
  4  5  1  0
  4  6  1  0
  6  7  1  0
  7  8  2  0
  8  9  1  0
  9 10  2  0
 10 11  1  0
 10 12  1  0
 12 13  1  0
 12 14  2  0
 14 15  1  0
 14 16  1  0
 16 17  1  0
 16 18  2  0
 18 19  1  0
  8 20  1  0
 20 21  2  0
 21 22  1  0
 22 23  2  0
 23 24  1  0
 23 25  1  0
 25 26  1  0
 25 27  2  0
 27 28  1  0
 28 29  1  0
 29 30  1  0
 29 31  1  0
 29 32  1  0
 27 33  1  0
 33 34  1  0
 33 35  2  0
 35 36  1  0
 21 37  1  0
 37 38  1  0
  3 39  1  0
 39 40  1  0
 39 41  1  0
 41 42  2  0
 42 43  1  0
 42 44  1  0
 44 45  1  0
 44 46  2  0
 46 47  1  0
 46 48  1  0
 48 49  1  0
 49 50  1  0
 49 51  1  0
 49 52  1  0
 48 53  2  0
 53 54  1  0
 37  7  1  0
 53 41  1  0
 18  9  1  0
 35 22  1  0
M  END
>  <UniqueID>  (72) 
8

>  <SMILES>  (72) 
CSc1ccc(-c2nc(-c3ccc(F)cc3)c(S/C=C(/O)Nc3cccc(C(F)(F)F)c3)[nH]2)cc1

>  <Energy>  (72) 
102.14858962184822

>  <Genealogy>  (72) 
CSc1ccc(-c2nc(-c3ccc(F)cc3)c(SC=C(O)Nc3cccc(C(F)(F)F)c3)[nH]2)cc1 (tautomer)
CSc1ccc(-c2nc(-c3ccc(F)cc3)c(S/C=C(/O)Nc3cccc(C(F)(F)F)c3)[nH]2)cc1 (cis-trans isomerization)
CSc1ccc(-c2nc(-c3ccc(F)cc3)c(S/C=C(/O)Nc3cccc(C(F)(F)F)c3)[nH]2)cc1 (3D coordinates assigned)
CSc1ccc(-c2nc(-c3ccc(F)cc3)c(S/C=C(/O)Nc3cccc(C(F)(F)F)c3)[nH]2)cc1 (optimized conformer: 102.14858962184822 kcal/mol)

>  <smiles>  (72) 
CSc1ccc(-c2nc(-c3ccc(F)cc3)c(SCC(=O)Nc3cccc(C(F)(F)F)c3)[nH]2)cc1

>  <score_type>  (72) 
oracle

>  <origin>  (72) 
autodockgpu

>  <m_score__min__energy>  (72) 
-8.8300000000000001

>  <m_primary>  (72) 
energy

>  <meeko>  (72) 
{"free_energy": -6.34, "intermolecular_energy": -9.32, "internal_energy": -2.79, "cluster_size": 1, "cluster_id": 8, "rank_in_cluster": 1}

>  <energy>  (72) 
-7.13

>  <cluster_rmsd>  (72) 
1.29

>  <rmsd>  (72) 
271.76

>  <cluster>  (72) 
4

$$$$
YIYSDEKHFQTGLA-MGNXZEIYNA-N
     RDKit          3D

 54 57  0  0  0  0  0  0  0  0999 V2000
  138.7950   74.7750  223.0640 H   0  0  0  0  0  0  0  0  0  0  0  0
  139.3100   75.6460  223.0770 O   0  0  0  0  0  0  0  0  0  0  0  0
  139.9460   76.1940  221.9460 C   0  0  0  0  0  0  0  0  0  0  0  0
  139.5460   75.8580  220.6980 C   0  0  0  0  0  0  0  0  0  0  0  0
  139.5890   76.6430  219.9286 H   0  0  0  0  0  0  0  0  0  0  0  0
  138.9450   74.2260  220.1830 S   0  0  0  0  0  0  0  0  0  0  0  0
  139.8500   73.1650  221.3180 C   0  0  0  0  0  0  0  0  0  0  0  0
  141.1670   72.7170  221.2780 C   0  0  0  0  0  0  0  0  0  0  0  0
  142.1860   72.9470  220.2310 C   0  0  0  0  0  0  0  0  0  0  0  0
  143.2270   73.8540  220.4850 C   0  0  0  0  0  0  0  0  0  0  0  0
  143.2794   74.3661  221.4571 H   0  0  0  0  0  0  0  0  0  0  0  0
  144.1990   74.1120  219.5110 C   0  0  0  0  0  0  0  0  0  0  0  0
  145.0094   74.8262  219.7187 H   0  0  0  0  0  0  0  0  0  0  0  0
  144.1400   73.4620  218.2740 C   0  0  0  0  0  0  0  0  0  0  0  0
  145.0670   73.7240  217.3250 F   0  0  0  0  0  0  0  0  0  0  0  0
  143.0980   72.5720  218.0040 C   0  0  0  0  0  0  0  0  0  0  0  0
  143.0480   72.0661  217.0285 H   0  0  0  0  0  0  0  0  0  0  0  0
  142.1180   72.3220  218.9700 C   0  0  0  0  0  0  0  0  0  0  0  0
  141.2900   71.6340  218.7442 H   0  0  0  0  0  0  0  0  0  0  0  0
  141.4170   72.0000  222.3970 N   0  0  0  0  0  0  0  0  0  0  0  0
  140.2580   72.0090  223.0870 C   0  0  0  0  0  0  0  0  0  0  0  0
  140.0820   71.3830  224.4180 C   0  0  0  0  0  0  0  0  0  0  0  0
  140.7880   71.8630  225.5360 C   0  0  0  0  0  0  0  0  0  0  0  0
  141.4412   72.7422  225.4341 H   0  0  0  0  0  0  0  0  0  0  0  0
  140.6640   71.2280  226.7780 C   0  0  0  0  0  0  0  0  0  0  0  0
  141.2288   71.6037  227.6440 H   0  0  0  0  0  0  0  0  0  0  0  0
  139.8250   70.1180  226.9220 C   0  0  0  0  0  0  0  0  0  0  0  0
  139.7320   69.2630  228.5050 S   0  0  0  0  0  0  0  0  0  0  0  0
  141.1060   68.1420  228.1030 C   0  0  0  0  0  0  0  0  0  0  0  0
  141.5607   67.7710  229.0334 H   0  0  0  0  0  0  0  0  0  0  0  0
  140.7265   67.2925  227.5162 H   0  0  0  0  0  0  0  0  0  0  0  0
  141.8620   68.6843  227.5162 H   0  0  0  0  0  0  0  0  0  0  0  0
  139.0920   69.6520  225.8230 C   0  0  0  0  0  0  0  0  0  0  0  0
  138.4188   68.7895  225.9369 H   0  0  0  0  0  0  0  0  0  0  0  0
  139.2160   70.2840  224.5790 C   0  0  0  0  0  0  0  0  0  0  0  0
  138.6324   69.9190  223.7210 H   0  0  0  0  0  0  0  0  0  0  0  0
  139.2970   72.7340  222.4610 N   0  0  0  0  0  0  0  0  0  0  0  0
  138.3260   72.9350  222.7870 H   0  0  0  0  0  0  0  0  0  0  0  0
  141.1250   76.9860  222.1350 N   0  0  0  0  0  0  0  0  0  0  0  0
  142.0600   76.5260  221.9950 H   0  0  0  0  0  0  0  0  0  0  0  0
  141.0480   78.3350  222.6450 C   0  0  0  0  0  0  0  0  0  0  0  0
  142.2280   79.0460  222.9210 C   0  0  0  0  0  0  0  0  0  0  0  0
  143.2047   78.6000  222.6820 H   0  0  0  0  0  0  0  0  0  0  0  0
  142.1660   80.3200  223.4990 C   0  0  0  0  0  0  0  0  0  0  0  0
  143.0952   80.8597  223.7344 H   0  0  0  0  0  0  0  0  0  0  0  0
  140.9270   80.9110  223.7790 C   0  0  0  0  0  0  0  0  0  0  0  0
  140.8879   81.9106  224.2364 H   0  0  0  0  0  0  0  0  0  0  0  0
  139.7340   80.2320  223.4780 C   0  0  0  0  0  0  0  0  0  0  0  0
  138.3900   80.8740  223.7580 C   0  0  0  0  0  0  0  0  0  0  0  0
  138.2230   82.0020  222.9720 F   0  0  0  0  0  0  0  0  0  0  0  0
  138.2810   81.2540  225.0870 F   0  0  0  0  0  0  0  0  0  0  0  0
  137.3850   79.9710  223.4700 F   0  0  0  0  0  0  0  0  0  0  0  0
  139.7980   78.9310  222.9480 C   0  0  0  0  0  0  0  0  0  0  0  0
  138.8691   78.3704  222.7668 H   0  0  0  0  0  0  0  0  0  0  0  0
  1  2  1  0
  2  3  1  0
  3  4  2  0
  4  5  1  0
  4  6  1  0
  6  7  1  0
  7  8  2  0
  8  9  1  0
  9 10  2  0
 10 11  1  0
 10 12  1  0
 12 13  1  0
 12 14  2  0
 14 15  1  0
 14 16  1  0
 16 17  1  0
 16 18  2  0
 18 19  1  0
  8 20  1  0
 20 21  2  0
 21 22  1  0
 22 23  2  0
 23 24  1  0
 23 25  1  0
 25 26  1  0
 25 27  2  0
 27 28  1  0
 28 29  1  0
 29 30  1  0
 29 31  1  0
 29 32  1  0
 27 33  1  0
 33 34  1  0
 33 35  2  0
 35 36  1  0
 21 37  1  0
 37 38  1  0
  3 39  1  0
 39 40  1  0
 39 41  1  0
 41 42  2  0
 42 43  1  0
 42 44  1  0
 44 45  1  0
 44 46  2  0
 46 47  1  0
 46 48  1  0
 48 49  1  0
 49 50  1  0
 49 51  1  0
 49 52  1  0
 48 53  2  0
 53 54  1  0
 37  7  1  0
 53 41  1  0
 18  9  1  0
 35 22  1  0
M  END
>  <UniqueID>  (73) 
8

>  <SMILES>  (73) 
CSc1ccc(-c2nc(-c3ccc(F)cc3)c(S/C=C(/O)Nc3cccc(C(F)(F)F)c3)[nH]2)cc1

>  <Energy>  (73) 
102.14858962184822

>  <Genealogy>  (73) 
CSc1ccc(-c2nc(-c3ccc(F)cc3)c(SC=C(O)Nc3cccc(C(F)(F)F)c3)[nH]2)cc1 (tautomer)
CSc1ccc(-c2nc(-c3ccc(F)cc3)c(S/C=C(/O)Nc3cccc(C(F)(F)F)c3)[nH]2)cc1 (cis-trans isomerization)
CSc1ccc(-c2nc(-c3ccc(F)cc3)c(S/C=C(/O)Nc3cccc(C(F)(F)F)c3)[nH]2)cc1 (3D coordinates assigned)
CSc1ccc(-c2nc(-c3ccc(F)cc3)c(S/C=C(/O)Nc3cccc(C(F)(F)F)c3)[nH]2)cc1 (optimized conformer: 102.14858962184822 kcal/mol)

>  <smiles>  (73) 
CSc1ccc(-c2nc(-c3ccc(F)cc3)c(SCC(=O)Nc3cccc(C(F)(F)F)c3)[nH]2)cc1

>  <score_type>  (73) 
oracle

>  <origin>  (73) 
autodockgpu

>  <m_score__min__energy>  (73) 
-8.8300000000000001

>  <m_primary>  (73) 
energy

>  <meeko>  (73) 
{"free_energy": -8.73, "intermolecular_energy": -11.72, "internal_energy": -1.51, "cluster_size": 4, "cluster_id": 1, "rank_in_cluster": 2}

>  <energy>  (73) 
-7.56

>  <cluster_rmsd>  (73) 
0.0

>  <rmsd>  (73) 
271.64

>  <cluster>  (73) 
5

$$$$
YIYSDEKHFQTGLA-MGNXZEIYNA-N
     RDKit          3D

 54 57  0  0  0  0  0  0  0  0999 V2000
  139.0270   74.0610  223.0170 H   0  0  0  0  0  0  0  0  0  0  0  0
  139.9320   73.7620  222.6730 O   0  0  0  0  0  0  0  0  0  0  0  0
  140.5790   74.3500  221.5680 C   0  0  0  0  0  0  0  0  0  0  0  0
  140.6150   73.7180  220.3730 C   0  0  0  0  0  0  0  0  0  0  0  0
  140.8297   72.6392  220.3816 H   0  0  0  0  0  0  0  0  0  0  0  0
  140.3400   74.4950  218.7570 S   0  0  0  0  0  0  0  0  0  0  0  0
  141.4820   75.8810  218.8560 C   0  0  0  0  0  0  0  0  0  0  0  0
  142.8600   75.9010  219.0480 C   0  0  0  0  0  0  0  0  0  0  0  0
  143.7730   74.7630  219.2920 C   0  0  0  0  0  0  0  0  0  0  0  0
  144.5550   74.7590  220.4580 C   0  0  0  0  0  0  0  0  0  0  0  0
  144.4682   75.5875  221.1764 H   0  0  0  0  0  0  0  0  0  0  0  0
  145.4440   73.7090  220.7130 C   0  0  0  0  0  0  0  0  0  0  0  0
  146.0546   73.7159  221.6280 H   0  0  0  0  0  0  0  0  0  0  0  0
  145.5570   72.6510  219.8060 C   0  0  0  0  0  0  0  0  0  0  0  0
  146.4300   71.6450  220.0430 F   0  0  0  0  0  0  0  0  0  0  0  0
  144.7980   72.6540  218.6350 C   0  0  0  0  0  0  0  0  0  0  0  0
  144.8922   71.8245  217.9187 H   0  0  0  0  0  0  0  0  0  0  0  0
  143.9180   73.7080  218.3690 C   0  0  0  0  0  0  0  0  0  0  0  0
  143.3365   73.7135  217.4353 H   0  0  0  0  0  0  0  0  0  0  0  0
  143.2910   77.1800  218.9730 N   0  0  0  0  0  0  0  0  0  0  0  0
  142.1790   77.9130  218.7530 C   0  0  0  0  0  0  0  0  0  0  0  0
  142.1830   79.3810  218.5480 C   0  0  0  0  0  0  0  0  0  0  0  0
  141.7790   80.2510  219.5790 C   0  0  0  0  0  0  0  0  0  0  0  0
  141.5037   79.8431  220.5628 H   0  0  0  0  0  0  0  0  0  0  0  0
  141.7260   81.6330  219.3580 C   0  0  0  0  0  0  0  0  0  0  0  0
  141.3988   82.3044  220.1655 H   0  0  0  0  0  0  0  0  0  0  0  0
  142.0870   82.1630  218.1160 C   0  0  0  0  0  0  0  0  0  0  0  0
  141.9410   83.9340  217.8200 S   0  0  0  0  0  0  0  0  0  0  0  0
  143.5870   84.0530  217.0570 C   0  0  0  0  0  0  0  0  0  0  0  0
  144.3530   84.1084  217.8445 H   0  0  0  0  0  0  0  0  0  0  0  0
  143.7667   83.1655  216.4325 H   0  0  0  0  0  0  0  0  0  0  0  0
  143.6371   84.9571  216.4325 H   0  0  0  0  0  0  0  0  0  0  0  0
  142.5210   81.3100  217.0930 C   0  0  0  0  0  0  0  0  0  0  0  0
  142.8208   81.7260  216.1199 H   0  0  0  0  0  0  0  0  0  0  0  0
  142.5730   79.9260  217.3100 C   0  0  0  0  0  0  0  0  0  0  0  0
  142.9214   79.2605  216.5064 H   0  0  0  0  0  0  0  0  0  0  0  0
  141.0690   77.1400  218.6530 N   0  0  0  0  0  0  0  0  0  0  0  0
  140.0900   77.4410  218.4520 H   0  0  0  0  0  0  0  0  0  0  0  0
  141.3350   75.5500  221.7720 N   0  0  0  0  0  0  0  0  0  0  0  0
  142.3830   75.4890  221.7270 H   0  0  0  0  0  0  0  0  0  0  0  0
  140.6950   76.7810  222.1730 C   0  0  0  0  0  0  0  0  0  0  0  0
  139.3010   76.8170  222.3500 C   0  0  0  0  0  0  0  0  0  0  0  0
  138.7118   75.8933  222.2518 H   0  0  0  0  0  0  0  0  0  0  0  0
  138.6600   78.0250  222.6510 C   0  0  0  0  0  0  0  0  0  0  0  0
  137.5660   78.0504  222.7626 H   0  0  0  0  0  0  0  0  0  0  0  0
  139.4040   79.2020  222.8110 C   0  0  0  0  0  0  0  0  0  0  0  0
  138.8909   80.1465  223.0449 H   0  0  0  0  0  0  0  0  0  0  0  0
  140.8020   79.1810  222.6740 C   0  0  0  0  0  0  0  0  0  0  0  0
  141.6150   80.4450  222.8660 C   0  0  0  0  0  0  0  0  0  0  0  0
  141.7480   80.7300  224.2150 F   0  0  0  0  0  0  0  0  0  0  0  0
  141.0090   81.5300  222.2530 F   0  0  0  0  0  0  0  0  0  0  0  0
  142.8700   80.2670  222.3160 F   0  0  0  0  0  0  0  0  0  0  0  0
  141.4390   77.9780  222.3170 C   0  0  0  0  0  0  0  0  0  0  0  0
  142.5259   77.9670  222.1480 H   0  0  0  0  0  0  0  0  0  0  0  0
  1  2  1  0
  2  3  1  0
  3  4  2  0
  4  5  1  0
  4  6  1  0
  6  7  1  0
  7  8  2  0
  8  9  1  0
  9 10  2  0
 10 11  1  0
 10 12  1  0
 12 13  1  0
 12 14  2  0
 14 15  1  0
 14 16  1  0
 16 17  1  0
 16 18  2  0
 18 19  1  0
  8 20  1  0
 20 21  2  0
 21 22  1  0
 22 23  2  0
 23 24  1  0
 23 25  1  0
 25 26  1  0
 25 27  2  0
 27 28  1  0
 28 29  1  0
 29 30  1  0
 29 31  1  0
 29 32  1  0
 27 33  1  0
 33 34  1  0
 33 35  2  0
 35 36  1  0
 21 37  1  0
 37 38  1  0
  3 39  1  0
 39 40  1  0
 39 41  1  0
 41 42  2  0
 42 43  1  0
 42 44  1  0
 44 45  1  0
 44 46  2  0
 46 47  1  0
 46 48  1  0
 48 49  1  0
 49 50  1  0
 49 51  1  0
 49 52  1  0
 48 53  2  0
 53 54  1  0
 37  7  1  0
 53 41  1  0
 18  9  1  0
 35 22  1  0
M  END
>  <UniqueID>  (74) 
8

>  <SMILES>  (74) 
CSc1ccc(-c2nc(-c3ccc(F)cc3)c(S/C=C(/O)Nc3cccc(C(F)(F)F)c3)[nH]2)cc1

>  <Energy>  (74) 
102.14858962184822

>  <Genealogy>  (74) 
CSc1ccc(-c2nc(-c3ccc(F)cc3)c(SC=C(O)Nc3cccc(C(F)(F)F)c3)[nH]2)cc1 (tautomer)
CSc1ccc(-c2nc(-c3ccc(F)cc3)c(S/C=C(/O)Nc3cccc(C(F)(F)F)c3)[nH]2)cc1 (cis-trans isomerization)
CSc1ccc(-c2nc(-c3ccc(F)cc3)c(S/C=C(/O)Nc3cccc(C(F)(F)F)c3)[nH]2)cc1 (3D coordinates assigned)
CSc1ccc(-c2nc(-c3ccc(F)cc3)c(S/C=C(/O)Nc3cccc(C(F)(F)F)c3)[nH]2)cc1 (optimized conformer: 102.14858962184822 kcal/mol)

>  <smiles>  (74) 
CSc1ccc(-c2nc(-c3ccc(F)cc3)c(SCC(=O)Nc3cccc(C(F)(F)F)c3)[nH]2)cc1

>  <score_type>  (74) 
oracle

>  <origin>  (74) 
autodockgpu

>  <m_score__min__energy>  (74) 
-8.8300000000000001

>  <m_primary>  (74) 
energy

>  <meeko>  (74) 
{"free_energy": -7.5, "intermolecular_energy": -10.49, "internal_energy": -2.45, "cluster_size": 2, "cluster_id": 5, "rank_in_cluster": 2}

>  <energy>  (74) 
-7.5

>  <cluster_rmsd>  (74) 
0.63

>  <rmsd>  (74) 
271.51

>  <cluster>  (74) 
5

$$$$
YIYSDEKHFQTGLA-MGNXZEIYNA-N
     RDKit          3D

 54 57  0  0  0  0  0  0  0  0999 V2000
  144.8190   76.0480  217.1530 H   0  0  0  0  0  0  0  0  0  0  0  0
  143.8230   76.1730  217.2880 O   0  0  0  0  0  0  0  0  0  0  0  0
  143.2580   76.7310  218.4510 C   0  0  0  0  0  0  0  0  0  0  0  0
  142.3630   77.7410  218.3680 C   0  0  0  0  0  0  0  0  0  0  0  0
  142.7464   78.7280  218.0700 H   0  0  0  0  0  0  0  0  0  0  0  0
  140.5850   77.6110  218.7050 S   0  0  0  0  0  0  0  0  0  0  0  0
  140.5990   76.5460  220.1530 C   0  0  0  0  0  0  0  0  0  0  0  0
  140.9140   76.8300  221.4790 C   0  0  0  0  0  0  0  0  0  0  0  0
  141.3970   78.1030  222.0580 C   0  0  0  0  0  0  0  0  0  0  0  0
  141.4680   78.2290  223.4540 C   0  0  0  0  0  0  0  0  0  0  0  0
  141.1805   77.3818  224.0940 H   0  0  0  0  0  0  0  0  0  0  0  0
  141.9020   79.4250  224.0380 C   0  0  0  0  0  0  0  0  0  0  0  0
  141.9537   79.5148  225.1331 H   0  0  0  0  0  0  0  0  0  0  0  0
  142.2700   80.5060  223.2300 C   0  0  0  0  0  0  0  0  0  0  0  0
  142.6710   81.6680  223.7940 F   0  0  0  0  0  0  0  0  0  0  0  0
  142.1850   80.3980  221.8410 C   0  0  0  0  0  0  0  0  0  0  0  0
  142.4695   81.2501  221.2062 H   0  0  0  0  0  0  0  0  0  0  0  0
  141.7390   79.2090  221.2540 C   0  0  0  0  0  0  0  0  0  0  0  0
  141.6548   79.1369  220.1596 H   0  0  0  0  0  0  0  0  0  0  0  0
  140.7050   75.7220  222.2240 N   0  0  0  0  0  0  0  0  0  0  0  0
  140.2840   74.7850  221.3490 C   0  0  0  0  0  0  0  0  0  0  0  0
  139.8810   73.4120  221.7360 C   0  0  0  0  0  0  0  0  0  0  0  0
  138.6520   72.8770  221.3070 C   0  0  0  0  0  0  0  0  0  0  0  0
  138.0037   73.4627  220.6386 H   0  0  0  0  0  0  0  0  0  0  0  0
  138.2500   71.6020  221.7270 C   0  0  0  0  0  0  0  0  0  0  0  0
  137.2828   71.1959  221.3959 H   0  0  0  0  0  0  0  0  0  0  0  0
  139.0730   70.8440  222.5650 C   0  0  0  0  0  0  0  0  0  0  0  0
  138.5110   69.2400  223.1610 S   0  0  0  0  0  0  0  0  0  0  0  0
  137.6010   69.9560  224.5620 C   0  0  0  0  0  0  0  0  0  0  0  0
  138.0457   69.6061  225.5053 H   0  0  0  0  0  0  0  0  0  0  0  0
  137.6587   71.0535  224.5143 H   0  0  0  0  0  0  0  0  0  0  0  0
  136.5479   69.6418  224.5143 H   0  0  0  0  0  0  0  0  0  0  0  0
  140.3120   71.3540  222.9730 C   0  0  0  0  0  0  0  0  0  0  0  0
  140.9677   70.7536  223.6207 H   0  0  0  0  0  0  0  0  0  0  0  0
  140.7160   72.6290  222.5560 C   0  0  0  0  0  0  0  0  0  0  0  0
  141.6938   73.0217  222.8718 H   0  0  0  0  0  0  0  0  0  0  0  0
  140.1880   75.2710  220.0860 N   0  0  0  0  0  0  0  0  0  0  0  0
  139.8560   74.7770  219.2290 H   0  0  0  0  0  0  0  0  0  0  0  0
  143.7660   76.3220  219.7280 N   0  0  0  0  0  0  0  0  0  0  0  0
  144.0990   77.0670  220.3910 H   0  0  0  0  0  0  0  0  0  0  0  0
  143.9560   74.9270  220.0470 C   0  0  0  0  0  0  0  0  0  0  0  0
  145.1070   74.5200  220.7420 C   0  0  0  0  0  0  0  0  0  0  0  0
  145.8237   75.2725  221.1025 H   0  0  0  0  0  0  0  0  0  0  0  0
  145.3460   73.1600  220.9780 C   0  0  0  0  0  0  0  0  0  0  0  0
  146.2624   72.8481  221.5005 H   0  0  0  0  0  0  0  0  0  0  0  0
  144.4240   72.1950  220.5520 C   0  0  0  0  0  0  0  0  0  0  0  0
  144.6210   71.1292  220.7399 H   0  0  0  0  0  0  0  0  0  0  0  0
  143.2490   72.5820  219.8860 C   0  0  0  0  0  0  0  0  0  0  0  0
  142.2360   71.5460  219.4410 C   0  0  0  0  0  0  0  0  0  0  0  0
  142.7100   70.8530  218.3410 F   0  0  0  0  0  0  0  0  0  0  0  0
  141.0320   72.1380  219.0940 F   0  0  0  0  0  0  0  0  0  0  0  0
  142.0120   70.6560  220.4740 F   0  0  0  0  0  0  0  0  0  0  0  0
  143.0370   73.9440  219.6020 C   0  0  0  0  0  0  0  0  0  0  0  0
  142.1490   74.2488  219.0288 H   0  0  0  0  0  0  0  0  0  0  0  0
  1  2  1  0
  2  3  1  0
  3  4  2  0
  4  5  1  0
  4  6  1  0
  6  7  1  0
  7  8  2  0
  8  9  1  0
  9 10  2  0
 10 11  1  0
 10 12  1  0
 12 13  1  0
 12 14  2  0
 14 15  1  0
 14 16  1  0
 16 17  1  0
 16 18  2  0
 18 19  1  0
  8 20  1  0
 20 21  2  0
 21 22  1  0
 22 23  2  0
 23 24  1  0
 23 25  1  0
 25 26  1  0
 25 27  2  0
 27 28  1  0
 28 29  1  0
 29 30  1  0
 29 31  1  0
 29 32  1  0
 27 33  1  0
 33 34  1  0
 33 35  2  0
 35 36  1  0
 21 37  1  0
 37 38  1  0
  3 39  1  0
 39 40  1  0
 39 41  1  0
 41 42  2  0
 42 43  1  0
 42 44  1  0
 44 45  1  0
 44 46  2  0
 46 47  1  0
 46 48  1  0
 48 49  1  0
 49 50  1  0
 49 51  1  0
 49 52  1  0
 48 53  2  0
 53 54  1  0
 37  7  1  0
 53 41  1  0
 18  9  1  0
 35 22  1  0
M  END
>  <UniqueID>  (75) 
8

>  <SMILES>  (75) 
CSc1ccc(-c2nc(-c3ccc(F)cc3)c(S/C=C(/O)Nc3cccc(C(F)(F)F)c3)[nH]2)cc1

>  <Energy>  (75) 
102.14858962184822

>  <Genealogy>  (75) 
CSc1ccc(-c2nc(-c3ccc(F)cc3)c(SC=C(O)Nc3cccc(C(F)(F)F)c3)[nH]2)cc1 (tautomer)
CSc1ccc(-c2nc(-c3ccc(F)cc3)c(S/C=C(/O)Nc3cccc(C(F)(F)F)c3)[nH]2)cc1 (cis-trans isomerization)
CSc1ccc(-c2nc(-c3ccc(F)cc3)c(S/C=C(/O)Nc3cccc(C(F)(F)F)c3)[nH]2)cc1 (3D coordinates assigned)
CSc1ccc(-c2nc(-c3ccc(F)cc3)c(S/C=C(/O)Nc3cccc(C(F)(F)F)c3)[nH]2)cc1 (optimized conformer: 102.14858962184822 kcal/mol)

>  <smiles>  (75) 
CSc1ccc(-c2nc(-c3ccc(F)cc3)c(SCC(=O)Nc3cccc(C(F)(F)F)c3)[nH]2)cc1

>  <score_type>  (75) 
oracle

>  <origin>  (75) 
autodockgpu

>  <m_score__min__energy>  (75) 
-8.8300000000000001

>  <m_primary>  (75) 
energy

>  <meeko>  (75) 
{"free_energy": -7.22, "intermolecular_energy": -10.21, "internal_energy": -2.65, "cluster_size": 4, "cluster_id": 6, "rank_in_cluster": 4}

>  <energy>  (75) 
-7.53

>  <cluster_rmsd>  (75) 
0.0

>  <rmsd>  (75) 
271.65

>  <cluster>  (75) 
6

$$$$
YIYSDEKHFQTGLA-MGNXZEIYNA-N
     RDKit          3D

 54 57  0  0  0  0  0  0  0  0999 V2000
  138.8210   75.0500  223.1450 H   0  0  0  0  0  0  0  0  0  0  0  0
  138.5000   76.0070  223.2190 O   0  0  0  0  0  0  0  0  0  0  0  0
  137.7690   76.6650  222.2100 C   0  0  0  0  0  0  0  0  0  0  0  0
  136.9820   75.9670  221.3600 C   0  0  0  0  0  0  0  0  0  0  0  0
  135.9075   76.2026  221.3625 H   0  0  0  0  0  0  0  0  0  0  0  0
  137.5440   74.6760  220.2160 S   0  0  0  0  0  0  0  0  0  0  0  0
  138.8170   73.8840  221.2090 C   0  0  0  0  0  0  0  0  0  0  0  0
  140.1770   74.1590  221.3180 C   0  0  0  0  0  0  0  0  0  0  0  0
  140.9760   75.1630  220.5810 C   0  0  0  0  0  0  0  0  0  0  0  0
  142.3690   75.0080  220.5200 C   0  0  0  0  0  0  0  0  0  0  0  0
  142.8435   74.1415  221.0037 H   0  0  0  0  0  0  0  0  0  0  0  0
  143.1600   75.9480  219.8480 C   0  0  0  0  0  0  0  0  0  0  0  0
  144.2517   75.8194  219.8074 H   0  0  0  0  0  0  0  0  0  0  0  0
  142.5620   77.0510  219.2280 C   0  0  0  0  0  0  0  0  0  0  0  0
  143.3270   77.9690  218.5950 F   0  0  0  0  0  0  0  0  0  0  0  0
  141.1790   77.2230  219.2980 C   0  0  0  0  0  0  0  0  0  0  0  0
  140.7100   78.0928  218.8148 H   0  0  0  0  0  0  0  0  0  0  0  0
  140.3870   76.2940  219.9800 C   0  0  0  0  0  0  0  0  0  0  0  0
  139.2997   76.4464  220.0478 H   0  0  0  0  0  0  0  0  0  0  0  0
  140.7130   73.3410  222.2520 N   0  0  0  0  0  0  0  0  0  0  0  0
  139.6860   72.5780  222.6820 C   0  0  0  0  0  0  0  0  0  0  0  0
  139.8020   71.5640  223.7560 C   0  0  0  0  0  0  0  0  0  0  0  0
  140.7190   71.7360  224.8100 C   0  0  0  0  0  0  0  0  0  0  0  0
  141.3231   72.6536  224.8655 H   0  0  0  0  0  0  0  0  0  0  0  0
  140.8660   70.7450  225.7880 C   0  0  0  0  0  0  0  0  0  0  0  0
  141.5934   70.8823  226.6017 H   0  0  0  0  0  0  0  0  0  0  0  0
  140.0920   69.5810  225.7350 C   0  0  0  0  0  0  0  0  0  0  0  0
  140.3450   68.2800  226.9550 S   0  0  0  0  0  0  0  0  0  0  0  0
  140.0680   69.3960  228.3640 C   0  0  0  0  0  0  0  0  0  0  0  0
  140.2057   68.8412  229.3038 H   0  0  0  0  0  0  0  0  0  0  0  0
  140.7871   70.2273  228.3202 H   0  0  0  0  0  0  0  0  0  0  0  0
  139.0437   69.7946  228.3202 H   0  0  0  0  0  0  0  0  0  0  0  0
  139.1530   69.4140  224.7090 C   0  0  0  0  0  0  0  0  0  0  0  0
  138.5318   68.5069  224.6734 H   0  0  0  0  0  0  0  0  0  0  0  0
  139.0060   70.4040  223.7280 C   0  0  0  0  0  0  0  0  0  0  0  0
  138.2616   70.2730  222.9288 H   0  0  0  0  0  0  0  0  0  0  0  0
  138.5170   72.9090  222.0780 N   0  0  0  0  0  0  0  0  0  0  0  0
  137.5690   72.5070  222.2470 H   0  0  0  0  0  0  0  0  0  0  0  0
  137.9960   78.0640  221.9970 N   0  0  0  0  0  0  0  0  0  0  0  0
  137.1760   78.6650  221.7310 H   0  0  0  0  0  0  0  0  0  0  0  0
  139.3310   78.6150  221.9990 C   0  0  0  0  0  0  0  0  0  0  0  0
  140.3080   78.0730  222.8510 C   0  0  0  0  0  0  0  0  0  0  0  0
  140.0737   77.1877  223.4604 H   0  0  0  0  0  0  0  0  0  0  0  0
  141.5790   78.6560  222.9270 C   0  0  0  0  0  0  0  0  0  0  0  0
  142.3306   78.2411  223.6147 H   0  0  0  0  0  0  0  0  0  0  0  0
  141.8990   79.7650  222.1320 C   0  0  0  0  0  0  0  0  0  0  0  0
  142.8988   80.2184  222.2012 H   0  0  0  0  0  0  0  0  0  0  0  0
  140.9480   80.3000  221.2470 C   0  0  0  0  0  0  0  0  0  0  0  0
  141.2940   81.4850  220.3680 C   0  0  0  0  0  0  0  0  0  0  0  0
  141.8310   82.5090  221.1300 F   0  0  0  0  0  0  0  0  0  0  0  0
  140.1700   81.9740  219.7200 F   0  0  0  0  0  0  0  0  0  0  0  0
  142.2190   81.0940  219.4190 F   0  0  0  0  0  0  0  0  0  0  0  0
  139.6550   79.7480  221.2120 C   0  0  0  0  0  0  0  0  0  0  0  0
  138.8873   80.2004  220.5671 H   0  0  0  0  0  0  0  0  0  0  0  0
  1  2  1  0
  2  3  1  0
  3  4  2  0
  4  5  1  0
  4  6  1  0
  6  7  1  0
  7  8  2  0
  8  9  1  0
  9 10  2  0
 10 11  1  0
 10 12  1  0
 12 13  1  0
 12 14  2  0
 14 15  1  0
 14 16  1  0
 16 17  1  0
 16 18  2  0
 18 19  1  0
  8 20  1  0
 20 21  2  0
 21 22  1  0
 22 23  2  0
 23 24  1  0
 23 25  1  0
 25 26  1  0
 25 27  2  0
 27 28  1  0
 28 29  1  0
 29 30  1  0
 29 31  1  0
 29 32  1  0
 27 33  1  0
 33 34  1  0
 33 35  2  0
 35 36  1  0
 21 37  1  0
 37 38  1  0
  3 39  1  0
 39 40  1  0
 39 41  1  0
 41 42  2  0
 42 43  1  0
 42 44  1  0
 44 45  1  0
 44 46  2  0
 46 47  1  0
 46 48  1  0
 48 49  1  0
 49 50  1  0
 49 51  1  0
 49 52  1  0
 48 53  2  0
 53 54  1  0
 37  7  1  0
 53 41  1  0
 18  9  1  0
 35 22  1  0
M  END
>  <UniqueID>  (76) 
8

>  <SMILES>  (76) 
CSc1ccc(-c2nc(-c3ccc(F)cc3)c(S/C=C(/O)Nc3cccc(C(F)(F)F)c3)[nH]2)cc1

>  <Energy>  (76) 
102.14858962184822

>  <Genealogy>  (76) 
CSc1ccc(-c2nc(-c3ccc(F)cc3)c(SC=C(O)Nc3cccc(C(F)(F)F)c3)[nH]2)cc1 (tautomer)
CSc1ccc(-c2nc(-c3ccc(F)cc3)c(S/C=C(/O)Nc3cccc(C(F)(F)F)c3)[nH]2)cc1 (cis-trans isomerization)
CSc1ccc(-c2nc(-c3ccc(F)cc3)c(S/C=C(/O)Nc3cccc(C(F)(F)F)c3)[nH]2)cc1 (3D coordinates assigned)
CSc1ccc(-c2nc(-c3ccc(F)cc3)c(S/C=C(/O)Nc3cccc(C(F)(F)F)c3)[nH]2)cc1 (optimized conformer: 102.14858962184822 kcal/mol)

>  <smiles>  (76) 
CSc1ccc(-c2nc(-c3ccc(F)cc3)c(SCC(=O)Nc3cccc(C(F)(F)F)c3)[nH]2)cc1

>  <score_type>  (76) 
oracle

>  <origin>  (76) 
autodockgpu

>  <m_score__min__energy>  (76) 
-8.8300000000000001

>  <m_primary>  (76) 
energy

>  <meeko>  (76) 
{"free_energy": -6.94, "intermolecular_energy": -9.92, "internal_energy": -2.38, "cluster_size": 5, "cluster_id": 3, "rank_in_cluster": 5}

>  <energy>  (76) 
-7.47

>  <cluster_rmsd>  (76) 
1.86

>  <rmsd>  (76) 
271.26

>  <cluster>  (76) 
6

$$$$
YIYSDEKHFQTGLA-MGNXZEIYNA-N
     RDKit          3D

 54 57  0  0  0  0  0  0  0  0999 V2000
  138.6780   74.8930  223.0900 H   0  0  0  0  0  0  0  0  0  0  0  0
  139.1400   75.7920  223.0440 O   0  0  0  0  0  0  0  0  0  0  0  0
  139.9140   76.2160  221.9470 C   0  0  0  0  0  0  0  0  0  0  0  0
  139.6460   75.7710  220.6980 C   0  0  0  0  0  0  0  0  0  0  0  0
  139.9083   76.4351  219.8613 H   0  0  0  0  0  0  0  0  0  0  0  0
  138.8920   74.1750  220.2830 S   0  0  0  0  0  0  0  0  0  0  0  0
  139.8290   73.0760  221.3550 C   0  0  0  0  0  0  0  0  0  0  0  0
  141.1440   72.6310  221.2620 C   0  0  0  0  0  0  0  0  0  0  0  0
  142.1330   72.8980  220.1950 C   0  0  0  0  0  0  0  0  0  0  0  0
  143.2730   73.6580  220.5010 C   0  0  0  0  0  0  0  0  0  0  0  0
  143.4226   74.0293  221.5256 H   0  0  0  0  0  0  0  0  0  0  0  0
  144.2210   73.9470  219.5120 C   0  0  0  0  0  0  0  0  0  0  0  0
  145.1099   74.5452  219.7610 H   0  0  0  0  0  0  0  0  0  0  0  0
  144.0390   73.4760  218.2080 C   0  0  0  0  0  0  0  0  0  0  0  0
  144.9440   73.7700  217.2470 F   0  0  0  0  0  0  0  0  0  0  0  0
  142.9000   72.7340  217.8890 C   0  0  0  0  0  0  0  0  0  0  0  0
  142.7544   72.3677  216.8621 H   0  0  0  0  0  0  0  0  0  0  0  0
  141.9440   72.4550  218.8700 C   0  0  0  0  0  0  0  0  0  0  0  0
  141.0396   71.8869  218.6068 H   0  0  0  0  0  0  0  0  0  0  0  0
  141.4260   71.8760  222.3470 N   0  0  0  0  0  0  0  0  0  0  0  0
  140.2870   71.8610  223.0700 C   0  0  0  0  0  0  0  0  0  0  0  0
  140.1490   71.1890  224.3840 C   0  0  0  0  0  0  0  0  0  0  0  0
  139.2440   70.1240  224.5540 C   0  0  0  0  0  0  0  0  0  0  0  0
  138.6672   69.7528  223.6940 H   0  0  0  0  0  0  0  0  0  0  0  0
  139.0750   69.5350  225.8140 C   0  0  0  0  0  0  0  0  0  0  0  0
  138.3580   68.7105  225.9411 H   0  0  0  0  0  0  0  0  0  0  0  0
  139.8130   69.9900  226.9100 C   0  0  0  0  0  0  0  0  0  0  0  0
  139.5300   69.2760  228.5400 S   0  0  0  0  0  0  0  0  0  0  0  0
  140.9640   68.1640  228.4220 C   0  0  0  0  0  0  0  0  0  0  0  0
  141.3063   67.8985  229.4331 H   0  0  0  0  0  0  0  0  0  0  0  0
  140.6762   67.2506  227.8808 H   0  0  0  0  0  0  0  0  0  0  0  0
  141.7769   68.6702  227.8808 H   0  0  0  0  0  0  0  0  0  0  0  0
  140.7400   71.0270  226.7450 C   0  0  0  0  0  0  0  0  0  0  0  0
  141.3342   71.3756  227.6026 H   0  0  0  0  0  0  0  0  0  0  0  0
  140.9100   71.6200  225.4870 C   0  0  0  0  0  0  0  0  0  0  0  0
  141.6443   72.4292  225.3602 H   0  0  0  0  0  0  0  0  0  0  0  0
  139.3090   72.6050  222.4970 N   0  0  0  0  0  0  0  0  0  0  0  0
  138.3470   72.7940  222.8580 H   0  0  0  0  0  0  0  0  0  0  0  0
  141.0900   76.9980  222.1950 N   0  0  0  0  0  0  0  0  0  0  0  0
  142.0250   76.5240  222.1230 H   0  0  0  0  0  0  0  0  0  0  0  0
  140.9980   78.3570  222.6740 C   0  0  0  0  0  0  0  0  0  0  0  0
  142.1710   79.0920  222.9170 C   0  0  0  0  0  0  0  0  0  0  0  0
  143.1513   78.6554  222.6754 H   0  0  0  0  0  0  0  0  0  0  0  0
  142.0960   80.3790  223.4660 C   0  0  0  0  0  0  0  0  0  0  0  0
  143.0195   80.9382  223.6769 H   0  0  0  0  0  0  0  0  0  0  0  0
  140.8510   80.9580  223.7480 C   0  0  0  0  0  0  0  0  0  0  0  0
  140.8022   81.9677  224.1817 H   0  0  0  0  0  0  0  0  0  0  0  0
  139.6650   80.2540  223.4790 C   0  0  0  0  0  0  0  0  0  0  0  0
  138.3150   80.8820  223.7610 C   0  0  0  0  0  0  0  0  0  0  0  0
  138.2090   81.2110  225.1020 F   0  0  0  0  0  0  0  0  0  0  0  0
  137.2820   80.0120  223.4470 F   0  0  0  0  0  0  0  0  0  0  0  0
  138.1780   82.0280  223.0020 F   0  0  0  0  0  0  0  0  0  0  0  0
  139.7430   78.9410  222.9800 C   0  0  0  0  0  0  0  0  0  0  0  0
  138.8208   78.3616  222.8257 H   0  0  0  0  0  0  0  0  0  0  0  0
  1  2  1  0
  2  3  1  0
  3  4  2  0
  4  5  1  0
  4  6  1  0
  6  7  1  0
  7  8  2  0
  8  9  1  0
  9 10  2  0
 10 11  1  0
 10 12  1  0
 12 13  1  0
 12 14  2  0
 14 15  1  0
 14 16  1  0
 16 17  1  0
 16 18  2  0
 18 19  1  0
  8 20  1  0
 20 21  2  0
 21 22  1  0
 22 23  2  0
 23 24  1  0
 23 25  1  0
 25 26  1  0
 25 27  2  0
 27 28  1  0
 28 29  1  0
 29 30  1  0
 29 31  1  0
 29 32  1  0
 27 33  1  0
 33 34  1  0
 33 35  2  0
 35 36  1  0
 21 37  1  0
 37 38  1  0
  3 39  1  0
 39 40  1  0
 39 41  1  0
 41 42  2  0
 42 43  1  0
 42 44  1  0
 44 45  1  0
 44 46  2  0
 46 47  1  0
 46 48  1  0
 48 49  1  0
 49 50  1  0
 49 51  1  0
 49 52  1  0
 48 53  2  0
 53 54  1  0
 37  7  1  0
 53 41  1  0
 18  9  1  0
 35 22  1  0
M  END
>  <UniqueID>  (77) 
8

>  <SMILES>  (77) 
CSc1ccc(-c2nc(-c3ccc(F)cc3)c(S/C=C(/O)Nc3cccc(C(F)(F)F)c3)[nH]2)cc1

>  <Energy>  (77) 
102.14858962184822

>  <Genealogy>  (77) 
CSc1ccc(-c2nc(-c3ccc(F)cc3)c(SC=C(O)Nc3cccc(C(F)(F)F)c3)[nH]2)cc1 (tautomer)
CSc1ccc(-c2nc(-c3ccc(F)cc3)c(S/C=C(/O)Nc3cccc(C(F)(F)F)c3)[nH]2)cc1 (cis-trans isomerization)
CSc1ccc(-c2nc(-c3ccc(F)cc3)c(S/C=C(/O)Nc3cccc(C(F)(F)F)c3)[nH]2)cc1 (3D coordinates assigned)
CSc1ccc(-c2nc(-c3ccc(F)cc3)c(S/C=C(/O)Nc3cccc(C(F)(F)F)c3)[nH]2)cc1 (optimized conformer: 102.14858962184822 kcal/mol)

>  <smiles>  (77) 
CSc1ccc(-c2nc(-c3ccc(F)cc3)c(SCC(=O)Nc3cccc(C(F)(F)F)c3)[nH]2)cc1

>  <score_type>  (77) 
oracle

>  <origin>  (77) 
autodockgpu

>  <m_score__min__energy>  (77) 
-8.8300000000000001

>  <m_primary>  (77) 
energy

>  <meeko>  (77) 
{"free_energy": -8.73, "intermolecular_energy": -11.71, "internal_energy": -1.44, "cluster_size": 4, "cluster_id": 1, "rank_in_cluster": 3}

>  <energy>  (77) 
-7.41

>  <cluster_rmsd>  (77) 
0.62

>  <rmsd>  (77) 
271.5

>  <cluster>  (77) 
6

$$$$
YIYSDEKHFQTGLA-MGNXZEIYNA-N
     RDKit          3D

 54 57  0  0  0  0  0  0  0  0999 V2000
  143.7140   78.6390  217.0410 H   0  0  0  0  0  0  0  0  0  0  0  0
  143.1710   77.8450  217.3560 O   0  0  0  0  0  0  0  0  0  0  0  0
  142.4560   77.8210  218.5690 C   0  0  0  0  0  0  0  0  0  0  0  0
  141.3410   78.5690  218.7290 C   0  0  0  0  0  0  0  0  0  0  0  0
  141.4612   79.6620  218.6996 H   0  0  0  0  0  0  0  0  0  0  0  0
  139.6640   77.9270  218.9880 S   0  0  0  0  0  0  0  0  0  0  0  0
  139.9380   76.8380  220.3930 C   0  0  0  0  0  0  0  0  0  0  0  0
  140.4100   77.1180  221.6710 C   0  0  0  0  0  0  0  0  0  0  0  0
  140.8860   78.4090  222.2150 C   0  0  0  0  0  0  0  0  0  0  0  0
  141.7560   78.4010  223.3170 C   0  0  0  0  0  0  0  0  0  0  0  0
  142.0817   77.4430  223.7483 H   0  0  0  0  0  0  0  0  0  0  0  0
  142.2120   79.6030  223.8710 C   0  0  0  0  0  0  0  0  0  0  0  0
  142.8918   79.5866  224.7357 H   0  0  0  0  0  0  0  0  0  0  0  0
  141.8040   80.8250  223.3260 C   0  0  0  0  0  0  0  0  0  0  0  0
  142.2290   81.9870  223.8720 F   0  0  0  0  0  0  0  0  0  0  0  0
  140.9250   80.8440  222.2420 C   0  0  0  0  0  0  0  0  0  0  0  0
  140.5999   81.8051  221.8171 H   0  0  0  0  0  0  0  0  0  0  0  0
  140.4560   79.6460  221.6940 C   0  0  0  0  0  0  0  0  0  0  0  0
  139.7481   79.6692  220.8523 H   0  0  0  0  0  0  0  0  0  0  0  0
  140.3720   75.9850  222.4070 N   0  0  0  0  0  0  0  0  0  0  0  0
  139.8960   75.0390  221.5710 C   0  0  0  0  0  0  0  0  0  0  0  0
  139.6350   73.6360  221.9710 C   0  0  0  0  0  0  0  0  0  0  0  0
  140.6930   72.7860  222.3420 C   0  0  0  0  0  0  0  0  0  0  0  0
  141.7204   73.1769  222.3825 H   0  0  0  0  0  0  0  0  0  0  0  0
  140.4450   71.4450  222.6600 C   0  0  0  0  0  0  0  0  0  0  0  0
  141.2798   70.7851  222.9387 H   0  0  0  0  0  0  0  0  0  0  0  0
  139.1420   70.9410  222.6250 C   0  0  0  0  0  0  0  0  0  0  0  0
  138.8460   69.1960  222.9600 S   0  0  0  0  0  0  0  0  0  0  0  0
  139.1680   69.3710  224.7410 C   0  0  0  0  0  0  0  0  0  0  0  0
  138.3404   68.9212  225.3092 H   0  0  0  0  0  0  0  0  0  0  0  0
  140.1081   68.8597  224.9956 H   0  0  0  0  0  0  0  0  0  0  0  0
  139.2503   70.4380  224.9956 H   0  0  0  0  0  0  0  0  0  0  0  0
  138.0770   71.7860  222.2880 C   0  0  0  0  0  0  0  0  0  0  0  0
  137.0485   71.3962  222.2745 H   0  0  0  0  0  0  0  0  0  0  0  0
  138.3220   73.1280  221.9680 C   0  0  0  0  0  0  0  0  0  0  0  0
  137.4816   73.7900  221.7124 H   0  0  0  0  0  0  0  0  0  0  0  0
  139.6020   75.5410  220.3460 N   0  0  0  0  0  0  0  0  0  0  0  0
  139.1890   75.0430  219.5270 H   0  0  0  0  0  0  0  0  0  0  0  0
  143.0170   77.1170  219.6840 N   0  0  0  0  0  0  0  0  0  0  0  0
  143.3410   77.6770  220.5130 H   0  0  0  0  0  0  0  0  0  0  0  0
  143.2700   75.6960  219.6240 C   0  0  0  0  0  0  0  0  0  0  0  0
  142.3000   74.8370  219.0810 C   0  0  0  0  0  0  0  0  0  0  0  0
  141.3828   75.2548  218.6402 H   0  0  0  0  0  0  0  0  0  0  0  0
  142.4970   73.4500  219.0990 C   0  0  0  0  0  0  0  0  0  0  0  0
  141.7216   72.7821  218.6955 H   0  0  0  0  0  0  0  0  0  0  0  0
  143.6760   72.9090  219.6280 C   0  0  0  0  0  0  0  0  0  0  0  0
  143.8203   71.8186  219.6402 H   0  0  0  0  0  0  0  0  0  0  0  0
  144.6750   73.7520  220.1430 C   0  0  0  0  0  0  0  0  0  0  0  0
  145.9620   73.1750  220.6970 C   0  0  0  0  0  0  0  0  0  0  0  0
  146.2310   71.9510  220.1100 F   0  0  0  0  0  0  0  0  0  0  0  0
  145.8790   72.9880  222.0690 F   0  0  0  0  0  0  0  0  0  0  0  0
  147.0030   74.0440  220.4300 F   0  0  0  0  0  0  0  0  0  0  0  0
  144.4520   75.1410  220.1750 C   0  0  0  0  0  0  0  0  0  0  0  0
  145.2025   75.8026  220.6322 H   0  0  0  0  0  0  0  0  0  0  0  0
  1  2  1  0
  2  3  1  0
  3  4  2  0
  4  5  1  0
  4  6  1  0
  6  7  1  0
  7  8  2  0
  8  9  1  0
  9 10  2  0
 10 11  1  0
 10 12  1  0
 12 13  1  0
 12 14  2  0
 14 15  1  0
 14 16  1  0
 16 17  1  0
 16 18  2  0
 18 19  1  0
  8 20  1  0
 20 21  2  0
 21 22  1  0
 22 23  2  0
 23 24  1  0
 23 25  1  0
 25 26  1  0
 25 27  2  0
 27 28  1  0
 28 29  1  0
 29 30  1  0
 29 31  1  0
 29 32  1  0
 27 33  1  0
 33 34  1  0
 33 35  2  0
 35 36  1  0
 21 37  1  0
 37 38  1  0
  3 39  1  0
 39 40  1  0
 39 41  1  0
 41 42  2  0
 42 43  1  0
 42 44  1  0
 44 45  1  0
 44 46  2  0
 46 47  1  0
 46 48  1  0
 48 49  1  0
 49 50  1  0
 49 51  1  0
 49 52  1  0
 48 53  2  0
 53 54  1  0
 37  7  1  0
 53 41  1  0
 18  9  1  0
 35 22  1  0
M  END
>  <UniqueID>  (78) 
8

>  <SMILES>  (78) 
CSc1ccc(-c2nc(-c3ccc(F)cc3)c(S/C=C(/O)Nc3cccc(C(F)(F)F)c3)[nH]2)cc1

>  <Energy>  (78) 
102.14858962184822

>  <Genealogy>  (78) 
CSc1ccc(-c2nc(-c3ccc(F)cc3)c(SC=C(O)Nc3cccc(C(F)(F)F)c3)[nH]2)cc1 (tautomer)
CSc1ccc(-c2nc(-c3ccc(F)cc3)c(S/C=C(/O)Nc3cccc(C(F)(F)F)c3)[nH]2)cc1 (cis-trans isomerization)
CSc1ccc(-c2nc(-c3ccc(F)cc3)c(S/C=C(/O)Nc3cccc(C(F)(F)F)c3)[nH]2)cc1 (3D coordinates assigned)
CSc1ccc(-c2nc(-c3ccc(F)cc3)c(S/C=C(/O)Nc3cccc(C(F)(F)F)c3)[nH]2)cc1 (optimized conformer: 102.14858962184822 kcal/mol)

>  <smiles>  (78) 
CSc1ccc(-c2nc(-c3ccc(F)cc3)c(SCC(=O)Nc3cccc(C(F)(F)F)c3)[nH]2)cc1

>  <score_type>  (78) 
oracle

>  <origin>  (78) 
autodockgpu

>  <m_score__min__energy>  (78) 
-8.8300000000000001

>  <m_primary>  (78) 
energy

>  <meeko>  (78) 
{"free_energy": -7.41, "intermolecular_energy": -10.4, "internal_energy": -2.28, "cluster_size": 4, "cluster_id": 6, "rank_in_cluster": 3}

>  <energy>  (78) 
-7.22

>  <cluster_rmsd>  (78) 
1.84

>  <rmsd>  (78) 
271.17

>  <cluster>  (78) 
6

$$$$
YIYSDEKHFQTGLA-MGNXZEIYNA-N
     RDKit          3D

 54 57  0  0  0  0  0  0  0  0999 V2000
  139.1650   77.3400  219.1270 H   0  0  0  0  0  0  0  0  0  0  0  0
  139.9530   77.5930  219.7100 O   0  0  0  0  0  0  0  0  0  0  0  0
  140.1270   77.1340  221.0300 C   0  0  0  0  0  0  0  0  0  0  0  0
  139.1180   76.5180  221.6860 C   0  0  0  0  0  0  0  0  0  0  0  0
  138.8031   76.9540  222.6455 H   0  0  0  0  0  0  0  0  0  0  0  0
  138.2380   75.0350  221.1220 S   0  0  0  0  0  0  0  0  0  0  0  0
  139.3490   73.7470  221.7070 C   0  0  0  0  0  0  0  0  0  0  0  0
  140.6810   73.4960  221.3950 C   0  0  0  0  0  0  0  0  0  0  0  0
  141.5480   74.1990  220.4240 C   0  0  0  0  0  0  0  0  0  0  0  0
  142.8640   74.5150  220.7960 C   0  0  0  0  0  0  0  0  0  0  0  0
  143.2350   74.2248  221.7900 H   0  0  0  0  0  0  0  0  0  0  0  0
  143.7080   75.1970  219.9110 C   0  0  0  0  0  0  0  0  0  0  0  0
  144.7374   75.4419  220.2117 H   0  0  0  0  0  0  0  0  0  0  0  0
  143.2430   75.5670  218.6450 C   0  0  0  0  0  0  0  0  0  0  0  0
  144.0510   76.2430  217.7960 F   0  0  0  0  0  0  0  0  0  0  0  0
  141.9300   75.2740  218.2720 C   0  0  0  0  0  0  0  0  0  0  0  0
  141.5629   75.5709  217.2785 H   0  0  0  0  0  0  0  0  0  0  0  0
  141.0800   74.6040  219.1580 C   0  0  0  0  0  0  0  0  0  0  0  0
  140.0411   74.3922  218.8651 H   0  0  0  0  0  0  0  0  0  0  0  0
  141.1160   72.4580  222.1450 N   0  0  0  0  0  0  0  0  0  0  0  0
  140.0490   72.0890  222.8850 C   0  0  0  0  0  0  0  0  0  0  0  0
  140.0810   71.0110  223.9020 C   0  0  0  0  0  0  0  0  0  0  0  0
  139.2410   69.8880  223.7850 C   0  0  0  0  0  0  0  0  0  0  0  0
  138.5884   69.7826  222.9058 H   0  0  0  0  0  0  0  0  0  0  0  0
  139.2310   68.9040  224.7810 C   0  0  0  0  0  0  0  0  0  0  0  0
  138.5623   68.0357  224.6868 H   0  0  0  0  0  0  0  0  0  0  0  0
  140.0680   69.0210  225.8950 C   0  0  0  0  0  0  0  0  0  0  0  0
  139.9910   67.7890  227.2070 S   0  0  0  0  0  0  0  0  0  0  0  0
  140.9770   68.7930  228.3580 C   0  0  0  0  0  0  0  0  0  0  0  0
  140.7158   68.5270  229.3929 H   0  0  0  0  0  0  0  0  0  0  0  0
  142.0467   68.6004  228.1888 H   0  0  0  0  0  0  0  0  0  0  0  0
  140.7651   69.8590  228.1888 H   0  0  0  0  0  0  0  0  0  0  0  0
  140.9320   70.1180  226.0070 C   0  0  0  0  0  0  0  0  0  0  0  0
  141.6025   70.2046  226.8747 H   0  0  0  0  0  0  0  0  0  0  0  0
  140.9410   71.1050  225.0120 C   0  0  0  0  0  0  0  0  0  0  0  0
  141.6264   71.9609  225.0995 H   0  0  0  0  0  0  0  0  0  0  0  0
  138.9700   72.8760  222.6530 N   0  0  0  0  0  0  0  0  0  0  0  0
  138.0320   72.8350  223.1100 H   0  0  0  0  0  0  0  0  0  0  0  0
  141.3360   77.4720  221.7220 N   0  0  0  0  0  0  0  0  0  0  0  0
  141.9800   76.6920  222.0060 H   0  0  0  0  0  0  0  0  0  0  0  0
  141.6000   78.8250  222.1510 C   0  0  0  0  0  0  0  0  0  0  0  0
  142.1920   79.0580  223.4040 C   0  0  0  0  0  0  0  0  0  0  0  0
  142.5169   78.2086  224.0228 H   0  0  0  0  0  0  0  0  0  0  0  0
  142.3700   80.3670  223.8680 C   0  0  0  0  0  0  0  0  0  0  0  0
  142.8117   80.5398  224.8605 H   0  0  0  0  0  0  0  0  0  0  0  0
  141.9890   81.4580  223.0760 C   0  0  0  0  0  0  0  0  0  0  0  0
  142.1297   82.4825  223.4509 H   0  0  0  0  0  0  0  0  0  0  0  0
  141.4280   81.2490  221.8050 C   0  0  0  0  0  0  0  0  0  0  0  0
  141.0350   82.4240  220.9320 C   0  0  0  0  0  0  0  0  0  0  0  0
  139.6670   82.4260  220.7190 F   0  0  0  0  0  0  0  0  0  0  0  0
  141.6650   82.3660  219.6990 F   0  0  0  0  0  0  0  0  0  0  0  0
  141.3960   83.6000  221.5610 F   0  0  0  0  0  0  0  0  0  0  0  0
  141.2000   79.9330  221.3630 C   0  0  0  0  0  0  0  0  0  0  0  0
  140.7058   79.7621  220.3952 H   0  0  0  0  0  0  0  0  0  0  0  0
  1  2  1  0
  2  3  1  0
  3  4  2  0
  4  5  1  0
  4  6  1  0
  6  7  1  0
  7  8  2  0
  8  9  1  0
  9 10  2  0
 10 11  1  0
 10 12  1  0
 12 13  1  0
 12 14  2  0
 14 15  1  0
 14 16  1  0
 16 17  1  0
 16 18  2  0
 18 19  1  0
  8 20  1  0
 20 21  2  0
 21 22  1  0
 22 23  2  0
 23 24  1  0
 23 25  1  0
 25 26  1  0
 25 27  2  0
 27 28  1  0
 28 29  1  0
 29 30  1  0
 29 31  1  0
 29 32  1  0
 27 33  1  0
 33 34  1  0
 33 35  2  0
 35 36  1  0
 21 37  1  0
 37 38  1  0
  3 39  1  0
 39 40  1  0
 39 41  1  0
 41 42  2  0
 42 43  1  0
 42 44  1  0
 44 45  1  0
 44 46  2  0
 46 47  1  0
 46 48  1  0
 48 49  1  0
 49 50  1  0
 49 51  1  0
 49 52  1  0
 48 53  2  0
 53 54  1  0
 37  7  1  0
 53 41  1  0
 18  9  1  0
 35 22  1  0
M  END
>  <UniqueID>  (79) 
8

>  <SMILES>  (79) 
CSc1ccc(-c2nc(-c3ccc(F)cc3)c(S/C=C(/O)Nc3cccc(C(F)(F)F)c3)[nH]2)cc1

>  <Energy>  (79) 
102.14858962184822

>  <Genealogy>  (79) 
CSc1ccc(-c2nc(-c3ccc(F)cc3)c(SC=C(O)Nc3cccc(C(F)(F)F)c3)[nH]2)cc1 (tautomer)
CSc1ccc(-c2nc(-c3ccc(F)cc3)c(S/C=C(/O)Nc3cccc(C(F)(F)F)c3)[nH]2)cc1 (cis-trans isomerization)
CSc1ccc(-c2nc(-c3ccc(F)cc3)c(S/C=C(/O)Nc3cccc(C(F)(F)F)c3)[nH]2)cc1 (3D coordinates assigned)
CSc1ccc(-c2nc(-c3ccc(F)cc3)c(S/C=C(/O)Nc3cccc(C(F)(F)F)c3)[nH]2)cc1 (optimized conformer: 102.14858962184822 kcal/mol)

>  <smiles>  (79) 
CSc1ccc(-c2nc(-c3ccc(F)cc3)c(SCC(=O)Nc3cccc(C(F)(F)F)c3)[nH]2)cc1

>  <score_type>  (79) 
oracle

>  <origin>  (79) 
autodockgpu

>  <m_score__min__energy>  (79) 
-8.8300000000000001

>  <m_primary>  (79) 
energy

>  <meeko>  (79) 
{"free_energy": -7.99, "intermolecular_energy": -10.97, "internal_energy": -1.66, "cluster_size": 5, "cluster_id": 3, "rank_in_cluster": 1}

>  <energy>  (79) 
-6.68

>  <cluster_rmsd>  (79) 
0.0

>  <rmsd>  (79) 
271.64

>  <cluster>  (79) 
7

$$$$
YIYSDEKHFQTGLA-MGNXZEIYNA-N
     RDKit          3D

 54 57  0  0  0  0  0  0  0  0999 V2000
  136.9870   78.5990  223.0430 H   0  0  0  0  0  0  0  0  0  0  0  0
  137.9730   78.3720  223.0440 O   0  0  0  0  0  0  0  0  0  0  0  0
  138.4840   77.1130  222.6720 C   0  0  0  0  0  0  0  0  0  0  0  0
  137.6530   76.0730  222.4300 C   0  0  0  0  0  0  0  0  0  0  0  0
  136.7883   75.9552  223.0996 H   0  0  0  0  0  0  0  0  0  0  0  0
  137.8400   74.8560  221.0980 S   0  0  0  0  0  0  0  0  0  0  0  0
  139.1080   73.7910  221.7980 C   0  0  0  0  0  0  0  0  0  0  0  0
  140.4880   73.7940  221.6190 C   0  0  0  0  0  0  0  0  0  0  0  0
  141.2990   74.6570  220.7320 C   0  0  0  0  0  0  0  0  0  0  0  0
  142.6950   74.5090  220.7350 C   0  0  0  0  0  0  0  0  0  0  0  0
  143.1622   73.7496  221.3792 H   0  0  0  0  0  0  0  0  0  0  0  0
  143.4970   75.3210  219.9240 C   0  0  0  0  0  0  0  0  0  0  0  0
  144.5903   75.1999  219.9349 H   0  0  0  0  0  0  0  0  0  0  0  0
  142.9090   76.2860  219.1000 C   0  0  0  0  0  0  0  0  0  0  0  0
  143.6840   77.0840  218.3300 F   0  0  0  0  0  0  0  0  0  0  0  0
  141.5230   76.4540  219.1030 C   0  0  0  0  0  0  0  0  0  0  0  0
  141.0615   77.2175  218.4595 H   0  0  0  0  0  0  0  0  0  0  0  0
  140.7200   75.6540  219.9220 C   0  0  0  0  0  0  0  0  0  0  0  0
  139.6303   75.8039  219.9339 H   0  0  0  0  0  0  0  0  0  0  0  0
  141.0330   72.8470  222.4150 N   0  0  0  0  0  0  0  0  0  0  0  0
  139.9870   72.2780  223.0500 C   0  0  0  0  0  0  0  0  0  0  0  0
  140.1190   71.2140  224.0730 C   0  0  0  0  0  0  0  0  0  0  0  0
  140.9980   71.3690  225.1610 C   0  0  0  0  0  0  0  0  0  0  0  0
  141.5577   72.3081  225.2825 H   0  0  0  0  0  0  0  0  0  0  0  0
  141.1640   70.3340  226.0900 C   0  0  0  0  0  0  0  0  0  0  0  0
  141.8631   70.4589  226.9301 H   0  0  0  0  0  0  0  0  0  0  0  0
  140.4450   69.1430  225.9540 C   0  0  0  0  0  0  0  0  0  0  0  0
  140.7230   67.7910  227.1110 S   0  0  0  0  0  0  0  0  0  0  0  0
  140.3210   68.8060  228.5650 C   0  0  0  0  0  0  0  0  0  0  0  0
  140.5453   68.2396  229.4809 H   0  0  0  0  0  0  0  0  0  0  0  0
  140.9223   69.7269  228.5469 H   0  0  0  0  0  0  0  0  0  0  0  0
  139.2522   69.0655  228.5469 H   0  0  0  0  0  0  0  0  0  0  0  0
  139.5430   68.9900  224.8940 C   0  0  0  0  0  0  0  0  0  0  0  0
  138.9649   68.0596  224.7934 H   0  0  0  0  0  0  0  0  0  0  0  0
  139.3770   70.0230  223.9610 C   0  0  0  0  0  0  0  0  0  0  0  0
  138.6611   69.9019  223.1347 H   0  0  0  0  0  0  0  0  0  0  0  0
  138.8070   72.8540  222.7080 N   0  0  0  0  0  0  0  0  0  0  0  0
  137.8540   72.6350  223.0730 H   0  0  0  0  0  0  0  0  0  0  0  0
  139.9020   76.9060  222.7110 N   0  0  0  0  0  0  0  0  0  0  0  0
  140.2570   75.9580  222.9890 H   0  0  0  0  0  0  0  0  0  0  0  0
  140.8240   78.0010  222.5190 C   0  0  0  0  0  0  0  0  0  0  0  0
  141.7380   78.3300  223.5340 C   0  0  0  0  0  0  0  0  0  0  0  0
  141.7958   77.7106  224.4412 H   0  0  0  0  0  0  0  0  0  0  0  0
  142.5760   79.4440  223.3950 C   0  0  0  0  0  0  0  0  0  0  0  0
  143.2725   79.7087  224.2042 H   0  0  0  0  0  0  0  0  0  0  0  0
  142.5320   80.2230  222.2310 C   0  0  0  0  0  0  0  0  0  0  0  0
  143.1909   81.0983  222.1327 H   0  0  0  0  0  0  0  0  0  0  0  0
  141.6500   79.8910  221.1890 C   0  0  0  0  0  0  0  0  0  0  0  0
  141.6120   80.7150  219.9180 C   0  0  0  0  0  0  0  0  0  0  0  0
  140.3870   80.5730  219.2890 F   0  0  0  0  0  0  0  0  0  0  0  0
  142.6020   80.3170  219.0330 F   0  0  0  0  0  0  0  0  0  0  0  0
  141.8070   82.0460  220.2330 F   0  0  0  0  0  0  0  0  0  0  0  0
  140.7710   78.8040  221.3520 C   0  0  0  0  0  0  0  0  0  0  0  0
  140.0358   78.5754  220.5663 H   0  0  0  0  0  0  0  0  0  0  0  0
  1  2  1  0
  2  3  1  0
  3  4  2  0
  4  5  1  0
  4  6  1  0
  6  7  1  0
  7  8  2  0
  8  9  1  0
  9 10  2  0
 10 11  1  0
 10 12  1  0
 12 13  1  0
 12 14  2  0
 14 15  1  0
 14 16  1  0
 16 17  1  0
 16 18  2  0
 18 19  1  0
  8 20  1  0
 20 21  2  0
 21 22  1  0
 22 23  2  0
 23 24  1  0
 23 25  1  0
 25 26  1  0
 25 27  2  0
 27 28  1  0
 28 29  1  0
 29 30  1  0
 29 31  1  0
 29 32  1  0
 27 33  1  0
 33 34  1  0
 33 35  2  0
 35 36  1  0
 21 37  1  0
 37 38  1  0
  3 39  1  0
 39 40  1  0
 39 41  1  0
 41 42  2  0
 42 43  1  0
 42 44  1  0
 44 45  1  0
 44 46  2  0
 46 47  1  0
 46 48  1  0
 48 49  1  0
 49 50  1  0
 49 51  1  0
 49 52  1  0
 48 53  2  0
 53 54  1  0
 37  7  1  0
 53 41  1  0
 18  9  1  0
 35 22  1  0
M  END
>  <UniqueID>  (80) 
8

>  <SMILES>  (80) 
CSc1ccc(-c2nc(-c3ccc(F)cc3)c(S/C=C(/O)Nc3cccc(C(F)(F)F)c3)[nH]2)cc1

>  <Energy>  (80) 
102.14858962184822

>  <Genealogy>  (80) 
CSc1ccc(-c2nc(-c3ccc(F)cc3)c(SC=C(O)Nc3cccc(C(F)(F)F)c3)[nH]2)cc1 (tautomer)
CSc1ccc(-c2nc(-c3ccc(F)cc3)c(S/C=C(/O)Nc3cccc(C(F)(F)F)c3)[nH]2)cc1 (cis-trans isomerization)
CSc1ccc(-c2nc(-c3ccc(F)cc3)c(S/C=C(/O)Nc3cccc(C(F)(F)F)c3)[nH]2)cc1 (3D coordinates assigned)
CSc1ccc(-c2nc(-c3ccc(F)cc3)c(S/C=C(/O)Nc3cccc(C(F)(F)F)c3)[nH]2)cc1 (optimized conformer: 102.14858962184822 kcal/mol)

>  <smiles>  (80) 
CSc1ccc(-c2nc(-c3ccc(F)cc3)c(SCC(=O)Nc3cccc(C(F)(F)F)c3)[nH]2)cc1

>  <score_type>  (80) 
oracle

>  <origin>  (80) 
autodockgpu

>  <m_score__min__energy>  (80) 
-8.8300000000000001

>  <m_primary>  (80) 
energy

>  <meeko>  (80) 
{"free_energy": -7.59, "intermolecular_energy": -10.58, "internal_energy": -2.14, "cluster_size": 5, "cluster_id": 3, "rank_in_cluster": 4}

>  <energy>  (80) 
-6.34

>  <cluster_rmsd>  (80) 
0.0

>  <rmsd>  (80) 
271.71

>  <cluster>  (80) 
8

$$$$
