
     RDKit          3D

 67 70  0  0  1  0  0  0  0  0999 V2000
  138.1970   80.7950  219.2250 C   0  0  0  0  0  0  0  0  0  0  0  0
  137.9910   79.6960  220.2030 C   0  0  0  0  0  0  0  0  0  0  0  0
  136.8040   79.0070  220.3320 C   0  0  0  0  0  0  0  0  0  0  0  0
  136.7150   78.0030  221.2710 C   0  0  0  0  0  0  0  0  0  0  0  0
  137.7940   77.6610  222.0950 C   0  0  0  0  0  0  0  0  0  0  0  0
  137.6920   76.5970  223.0920 C   0  0  0  0  0  0  0  0  0  0  0  0
  137.6670   75.2600  222.6050 N   0  0  0  0  0  0  0  0  0  0  0  0
  138.3240   74.9600  221.3830 C   0  0  0  0  0  0  0  0  0  0  0  0
  138.9350   75.8000  220.6840 O   0  0  0  0  0  0  0  0  0  0  0  0
  138.2840   73.5420  220.8920 C   0  0  0  0  0  0  0  0  0  0  0  0
  138.5230   72.5800  221.9160 N   0  0  0  0  0  0  0  0  0  0  0  0
  139.7150   72.4660  222.6800 C   0  0  0  0  0  0  0  0  0  0  0  0
  140.6600   73.2620  222.4640 O   0  0  0  0  0  0  0  0  0  0  0  0
  139.8020   71.4080  223.7080 C   0  0  0  0  0  0  0  0  0  0  0  0
  139.3690   70.1230  223.4740 C   0  0  0  0  0  0  0  0  0  0  0  0
  139.4500   69.1300  224.4570 C   0  0  0  0  0  0  0  0  0  0  0  0
  139.9900   69.4890  225.6930 C   0  0  0  0  0  0  0  0  0  0  0  0
  140.1170   68.5920  226.7310 C   0  0  0  0  0  0  0  0  0  0  0  0
  140.6620   68.9910  227.9520 C   0  0  0  0  0  0  0  0  0  0  0  0
  140.8030   68.1380  228.9950 F   0  0  0  0  0  0  0  0  0  0  0  0
  141.0770   70.2870  228.1270 C   0  0  0  0  0  0  0  0  0  0  0  0
  140.9620   71.2140  227.1020 C   0  0  0  0  0  0  0  0  0  0  0  0
  140.4160   70.7790  225.9060 C   0  0  0  0  0  0  0  0  0  0  0  0
  140.3180   71.7050  224.9290 N   0  0  0  0  0  0  0  0  0  0  0  0
  138.9770   78.3930  221.9220 C   0  0  0  0  0  0  0  0  0  0  0  0
  140.1940   78.1150  222.7360 C   0  0  1  0  0  0  0  0  0  0  0  0
  141.1090   77.2540  221.8960 C   0  0  0  0  0  0  0  0  0  0  0  0
  140.7640   79.2450  223.3460 N   0  0  0  0  0  0  0  0  0  0  0  0
  141.9850   79.7750  222.8860 C   0  0  2  0  0  0  0  0  0  0  0  0
  142.7530   80.6030  223.9010 C   0  0  0  0  0  0  0  0  0  0  0  0
  141.7160   80.7150  221.7330 C   0  0  0  0  0  0  0  0  0  0  0  0
  141.1510   81.9570  221.9290 C   0  0  0  0  0  0  0  0  0  0  0  0
  140.8960   82.8210  220.8800 C   0  0  0  0  0  0  0  0  0  0  0  0
  141.2000   82.4670  219.5860 C   0  0  0  0  0  0  0  0  0  0  0  0
  140.8960   83.5170  218.2370 Cl  0  0  0  0  0  0  0  0  0  0  0  0
  141.7680   81.2260  219.3600 C   0  0  0  0  0  0  0  0  0  0  0  0
  142.1670   80.7460  217.7170 Cl  0  0  0  0  0  0  0  0  0  0  0  0
  142.0180   80.3670  220.4340 C   0  0  0  0  0  0  0  0  0  0  0  0
  139.0040   79.3620  220.9910 N   0  0  0  0  0  0  0  0  0  0  0  0
  138.3737   81.7374  219.7642 H   0  0  0  0  0  0  0  0  0  0  0  0
  139.0677   80.5652  218.5933 H   0  0  0  0  0  0  0  0  0  0  0  0
  137.3022   80.8962  218.5933 H   0  0  0  0  0  0  0  0  0  0  0  0
  135.9418   79.2549  219.6954 H   0  0  0  0  0  0  0  0  0  0  0  0
  135.7679   77.4536  221.3766 H   0  0  0  0  0  0  0  0  0  0  0  0
  138.5562   76.6892  223.7663 H   0  0  0  0  0  0  0  0  0  0  0  0
  136.7137   76.7461  223.5722 H   0  0  0  0  0  0  0  0  0  0  0  0
  137.1770   74.4820  223.1200 H   0  0  0  0  0  0  0  0  0  0  0  0
  137.2908   73.3510  220.4595 H   0  0  0  0  0  0  0  0  0  0  0  0
  139.0892   73.4329  220.1506 H   0  0  0  0  0  0  0  0  0  0  0  0
  137.7460   71.8850  222.1330 H   0  0  0  0  0  0  0  0  0  0  0  0
  138.9486   69.8698  222.4895 H   0  0  0  0  0  0  0  0  0  0  0  0
  139.1011   68.1050  224.2628 H   0  0  0  0  0  0  0  0  0  0  0  0
  139.7857   67.5518  226.5960 H   0  0  0  0  0  0  0  0  0  0  0  0
  141.5061   70.5945  229.0920 H   0  0  0  0  0  0  0  0  0  0  0  0
  141.2919   72.2550  227.2339 H   0  0  0  0  0  0  0  0  0  0  0  0
  139.9309   77.5453  223.6394 H   0  0  0  0  0  0  0  0  0  0  0  0
  141.7508   76.6501  222.5544 H   0  0  0  0  0  0  0  0  0  0  0  0
  140.5056   76.5885  221.2611 H   0  0  0  0  0  0  0  0  0  0  0  0
  141.7366   77.8967  221.2611 H   0  0  0  0  0  0  0  0  0  0  0  0
  140.6400   79.3660  224.3480 H   0  0  0  0  0  0  0  0  0  0  0  0
  142.5872   78.8918  222.6265 H   0  0  0  0  0  0  0  0  0  0  0  0
  142.4670   80.2947  224.9174 H   0  0  0  0  0  0  0  0  0  0  0  0
  143.8327   80.4463  223.7604 H   0  0  0  0  0  0  0  0  0  0  0  0
  142.5157   81.6679  223.7604 H   0  0  0  0  0  0  0  0  0  0  0  0
  140.8950   82.2705  222.9518 H   0  0  0  0  0  0  0  0  0  0  0  0
  140.4445   83.8034  221.0827 H   0  0  0  0  0  0  0  0  0  0  0  0
  142.4694   79.3835  220.2365 H   0  0  0  0  0  0  0  0  0  0  0  0
  1  2  1  0
  2  3  2  0
  3  4  1  0
  4  5  2  0
  5  6  1  0
  6  7  1  0
  7  8  1  0
  8  9  2  0
  8 10  1  0
 10 11  1  0
 11 12  1  0
 12 13  2  0
 12 14  1  0
 14 15  2  0
 15 16  1  0
 16 17  2  0
 17 18  1  0
 18 19  2  0
 19 20  1  0
 19 21  1  0
 21 22  2  0
 22 23  1  0
 23 24  2  0
  5 25  1  0
 25 26  1  0
 26 27  1  0
 26 28  1  0
 28 29  1  0
 29 30  1  0
 29 31  1  0
 31 32  2  0
 32 33  1  0
 33 34  2  0
 34 35  1  0
 34 36  1  0
 36 37  1  0
 36 38  2  0
 25 39  2  0
 39  2  1  0
 24 14  1  0
 38 31  1  0
 23 17  1  0
  1 40  1  0
  1 41  1  0
  1 42  1  0
  3 43  1  0
  4 44  1  0
  6 45  1  0
  6 46  1  0
  7 47  1  0
 10 48  1  0
 10 49  1  0
 11 50  1  0
 15 51  1  0
 16 52  1  0
 18 53  1  0
 21 54  1  0
 22 55  1  0
 26 56  1  1
 27 57  1  0
 27 58  1  0
 27 59  1  0
 28 60  1  0
 29 61  1  6
 30 62  1  0
 30 63  1  0
 30 64  1  0
 32 65  1  0
 33 66  1  0
 38 67  1  0
M  END
>  <smiles>  (1) 
Cc1ccc(CNC(=O)CNC(=O)c2ccc3cc(F)ccc3n2)c([C@@H](C)NC(C)c2ccc(Cl)c(Cl)c2)n1

>  <score_type>  (1) 
oracle

>  <origin>  (1) 
autodockgpu

>  <m_score__min__energy>  (1) 
-9.9499999999999993

>  <m_primary>  (1) 
energy

>  <meeko>  (1) 
{"free_energy": -8.91, "intermolecular_energy": -11.59, "internal_energy": -2.53, "cluster_size": 2, "cluster_id": 3, "rank_in_cluster": 1}

>  <energy>  (1) 
-9.95

>  <cluster_rmsd>  (1) 
0.0

>  <rmsd>  (1) 
269.7

>  <cluster>  (1) 
1

$$$$

     RDKit          3D

 67 70  0  0  1  0  0  0  0  0999 V2000
  141.7310   81.5590  217.5980 C   0  0  0  0  0  0  0  0  0  0  0  0
  140.8830   80.6790  218.4450 C   0  0  0  0  0  0  0  0  0  0  0  0
  139.5130   80.6010  218.3240 C   0  0  0  0  0  0  0  0  0  0  0  0
  138.8170   79.7530  219.1570 C   0  0  0  0  0  0  0  0  0  0  0  0
  139.4620   78.9680  220.1200 C   0  0  0  0  0  0  0  0  0  0  0  0
  138.7170   78.0720  221.0040 C   0  0  0  0  0  0  0  0  0  0  0  0
  138.6480   76.7030  220.6230 N   0  0  0  0  0  0  0  0  0  0  0  0
  139.1030   75.7110  221.5310 C   0  0  0  0  0  0  0  0  0  0  0  0
  139.5720   75.9530  222.6650 O   0  0  0  0  0  0  0  0  0  0  0  0
  139.0180   74.2740  221.1030 C   0  0  0  0  0  0  0  0  0  0  0  0
  139.2460   73.3520  222.1670 N   0  0  0  0  0  0  0  0  0  0  0  0
  139.1410   71.9400  222.0700 C   0  0  0  0  0  0  0  0  0  0  0  0
  138.8220   71.4210  220.9730 O   0  0  0  0  0  0  0  0  0  0  0  0
  139.4110   71.1230  223.2720 C   0  0  0  0  0  0  0  0  0  0  0  0
  139.1190   69.7790  223.3250 C   0  0  0  0  0  0  0  0  0  0  0  0
  139.3730   69.0160  224.4710 C   0  0  0  0  0  0  0  0  0  0  0  0
  139.9400   69.6690  225.5670 C   0  0  0  0  0  0  0  0  0  0  0  0
  140.2320   69.0150  226.7440 C   0  0  0  0  0  0  0  0  0  0  0  0
  140.7980   69.7040  227.8180 C   0  0  0  0  0  0  0  0  0  0  0  0
  141.0980   69.0960  228.9910 F   0  0  0  0  0  0  0  0  0  0  0  0
  141.0670   71.0450  227.7070 C   0  0  0  0  0  0  0  0  0  0  0  0
  140.7850   71.7320  226.5350 C   0  0  0  0  0  0  0  0  0  0  0  0
  140.2240   71.0120  225.4930 C   0  0  0  0  0  0  0  0  0  0  0  0
  139.9610   71.7090  224.3680 N   0  0  0  0  0  0  0  0  0  0  0  0
  140.8560   79.0850  220.2000 C   0  0  0  0  0  0  0  0  0  0  0  0
  141.6520   78.2950  221.1810 C   0  0  1  0  0  0  0  0  0  0  0  0
  142.1920   77.0860  220.4510 C   0  0  0  0  0  0  0  0  0  0  0  0
  142.5690   79.0450  221.9370 N   0  0  0  0  0  0  0  0  0  0  0  0
  142.1920   79.6200  223.1660 C   0  0  2  0  0  0  0  0  0  0  0  0
  141.8200   78.6310  224.2540 C   0  0  0  0  0  0  0  0  0  0  0  0
  140.9560   80.4660  222.9600 C   0  0  0  0  0  0  0  0  0  0  0  0
  139.7520   80.1400  223.5480 C   0  0  0  0  0  0  0  0  0  0  0  0
  138.6150   80.9050  223.3610 C   0  0  0  0  0  0  0  0  0  0  0  0
  138.6440   82.0320  222.5730 C   0  0  0  0  0  0  0  0  0  0  0  0
  137.2420   83.0210  222.3080 Cl  0  0  0  0  0  0  0  0  0  0  0  0
  139.8400   82.3810  221.9710 C   0  0  0  0  0  0  0  0  0  0  0  0
  139.9080   83.8160  220.9570 Cl  0  0  0  0  0  0  0  0  0  0  0  0
  140.9780   81.5960  222.1710 C   0  0  0  0  0  0  0  0  0  0  0  0
  141.4800   79.9300  219.3610 N   0  0  0  0  0  0  0  0  0  0  0  0
  142.3500   82.2014  218.2415 H   0  0  0  0  0  0  0  0  0  0  0  0
  142.3819   80.9401  216.9629 H   0  0  0  0  0  0  0  0  0  0  0  0
  141.0884   82.1865  216.9629 H   0  0  0  0  0  0  0  0  0  0  0  0
  138.9831   81.2064  217.5739 H   0  0  0  0  0  0  0  0  0  0  0  0
  137.7228   79.6909  219.0628 H   0  0  0  0  0  0  0  0  0  0  0  0
  139.1882   78.1173  221.9969 H   0  0  0  0  0  0  0  0  0  0  0  0
  137.6783   78.4323  220.9684 H   0  0  0  0  0  0  0  0  0  0  0  0
  138.2710   76.3980  219.6870 H   0  0  0  0  0  0  0  0  0  0  0  0
  138.0141   74.0912  220.6923 H   0  0  0  0  0  0  0  0  0  0  0  0
  139.8088   74.1102  220.3561 H   0  0  0  0  0  0  0  0  0  0  0  0
  139.5210   73.7500  223.1150 H   0  0  0  0  0  0  0  0  0  0  0  0
  138.6747   69.2919  222.4444 H   0  0  0  0  0  0  0  0  0  0  0  0
  139.1349   67.9427  224.5065 H   0  0  0  0  0  0  0  0  0  0  0  0
  140.0172   67.9403  226.8382 H   0  0  0  0  0  0  0  0  0  0  0  0
  141.5117   71.5820  228.5578 H   0  0  0  0  0  0  0  0  0  0  0  0
  140.9986   72.8066  226.4371 H   0  0  0  0  0  0  0  0  0  0  0  0
  141.0081   77.9371  221.9979 H   0  0  0  0  0  0  0  0  0  0  0  0
  142.5272   76.3356  221.1822 H   0  0  0  0  0  0  0  0  0  0  0  0
  141.4008   76.6551  219.8199 H   0  0  0  0  0  0  0  0  0  0  0  0
  143.0409   77.3877  219.8199 H   0  0  0  0  0  0  0  0  0  0  0  0
  143.2590   79.6040  221.4410 H   0  0  0  0  0  0  0  0  0  0  0  0
  143.0809   80.1800  223.4920 H   0  0  0  0  0  0  0  0  0  0  0  0
  141.9920   79.0882  225.2396 H   0  0  0  0  0  0  0  0  0  0  0  0
  140.7585   78.3599  224.1558 H   0  0  0  0  0  0  0  0  0  0  0  0
  142.4398   77.7275  224.1558 H   0  0  0  0  0  0  0  0  0  0  0  0
  139.6941   79.2449  224.1847 H   0  0  0  0  0  0  0  0  0  0  0  0
  137.6749   80.6081  223.8490 H   0  0  0  0  0  0  0  0  0  0  0  0
  141.9201   81.8884  221.6842 H   0  0  0  0  0  0  0  0  0  0  0  0
  1  2  1  0
  2  3  2  0
  3  4  1  0
  4  5  2  0
  5  6  1  0
  6  7  1  0
  7  8  1  0
  8  9  2  0
  8 10  1  0
 10 11  1  0
 11 12  1  0
 12 13  2  0
 12 14  1  0
 14 15  2  0
 15 16  1  0
 16 17  2  0
 17 18  1  0
 18 19  2  0
 19 20  1  0
 19 21  1  0
 21 22  2  0
 22 23  1  0
 23 24  2  0
  5 25  1  0
 25 26  1  0
 26 27  1  0
 26 28  1  0
 28 29  1  0
 29 30  1  0
 29 31  1  0
 31 32  2  0
 32 33  1  0
 33 34  2  0
 34 35  1  0
 34 36  1  0
 36 37  1  0
 36 38  2  0
 25 39  2  0
 39  2  1  0
 24 14  1  0
 38 31  1  0
 23 17  1  0
  1 40  1  0
  1 41  1  0
  1 42  1  0
  3 43  1  0
  4 44  1  0
  6 45  1  0
  6 46  1  0
  7 47  1  0
 10 48  1  0
 10 49  1  0
 11 50  1  0
 15 51  1  0
 16 52  1  0
 18 53  1  0
 21 54  1  0
 22 55  1  0
 26 56  1  1
 27 57  1  0
 27 58  1  0
 27 59  1  0
 28 60  1  0
 29 61  1  1
 30 62  1  0
 30 63  1  0
 30 64  1  0
 32 65  1  0
 33 66  1  0
 38 67  1  0
M  END
>  <smiles>  (2) 
Cc1ccc(CNC(=O)CNC(=O)c2ccc3cc(F)ccc3n2)c([C@@H](C)NC(C)c2ccc(Cl)c(Cl)c2)n1

>  <score_type>  (2) 
oracle

>  <origin>  (2) 
autodockgpu

>  <m_score__min__energy>  (2) 
-9.9499999999999993

>  <m_primary>  (2) 
energy

>  <meeko>  (2) 
{"free_energy": -8.7, "intermolecular_energy": -11.38, "internal_energy": -4.09, "cluster_size": 3, "cluster_id": 5, "rank_in_cluster": 1}

>  <energy>  (2) 
-9.89

>  <cluster_rmsd>  (2) 
1.12

>  <rmsd>  (2) 
269.6

>  <cluster>  (2) 
1

$$$$

     RDKit          3D

 67 70  0  0  1  0  0  0  0  0999 V2000
  137.4820   80.5720  218.5550 C   0  0  0  0  0  0  0  0  0  0  0  0
  138.5570   79.6040  218.8980 C   0  0  0  0  0  0  0  0  0  0  0  0
  138.5250   78.2750  218.5350 C   0  0  0  0  0  0  0  0  0  0  0  0
  139.5720   77.4590  218.9020 C   0  0  0  0  0  0  0  0  0  0  0  0
  140.6660   77.9400  219.6310 C   0  0  0  0  0  0  0  0  0  0  0  0
  141.7730   77.0670  220.0210 C   0  0  0  0  0  0  0  0  0  0  0  0
  141.6570   75.6910  219.6770 N   0  0  0  0  0  0  0  0  0  0  0  0
  141.5190   74.7320  220.7140 C   0  0  0  0  0  0  0  0  0  0  0  0
  141.4920   75.0090  221.9340 O   0  0  0  0  0  0  0  0  0  0  0  0
  141.3980   73.2860  220.3250 C   0  0  0  0  0  0  0  0  0  0  0  0
  141.2000   72.4140  221.4350 N   0  0  0  0  0  0  0  0  0  0  0  0
  140.2060   72.5670  222.4370 C   0  0  0  0  0  0  0  0  0  0  0  0
  139.4160   73.5400  222.3760 O   0  0  0  0  0  0  0  0  0  0  0  0
  140.1350   71.5690  223.5250 C   0  0  0  0  0  0  0  0  0  0  0  0
  139.5930   70.3190  223.3370 C   0  0  0  0  0  0  0  0  0  0  0  0
  139.5250   69.3830  224.3770 C   0  0  0  0  0  0  0  0  0  0  0  0
  140.0310   69.7640  225.6200 C   0  0  0  0  0  0  0  0  0  0  0  0
  140.0160   68.9230  226.7120 C   0  0  0  0  0  0  0  0  0  0  0  0
  140.5320   69.3420  227.9390 C   0  0  0  0  0  0  0  0  0  0  0  0
  140.5330   68.5440  229.0340 F   0  0  0  0  0  0  0  0  0  0  0  0
  141.0610   70.6020  228.0660 C   0  0  0  0  0  0  0  0  0  0  0  0
  141.0910   71.4720  226.9870 C   0  0  0  0  0  0  0  0  0  0  0  0
  140.5690   71.0180  225.7860 C   0  0  0  0  0  0  0  0  0  0  0  0
  140.6130   71.8890  224.7560 N   0  0  0  0  0  0  0  0  0  0  0  0
  140.6480   79.2990  219.9730 C   0  0  0  0  0  0  0  0  0  0  0  0
  141.7600   79.9260  220.7400 C   0  0  1  0  0  0  0  0  0  0  0  0
  141.4460   81.3990  220.8650 C   0  0  0  0  0  0  0  0  0  0  0  0
  142.1190   79.2490  221.9180 N   0  0  0  0  0  0  0  0  0  0  0  0
  141.4520   79.5070  223.1310 C   0  0  2  0  0  0  0  0  0  0  0  0
  141.8960   78.6540  224.3060 C   0  0  0  0  0  0  0  0  0  0  0  0
  139.9800   79.2100  222.9610 C   0  0  0  0  0  0  0  0  0  0  0  0
  139.0270   80.2020  223.0480 C   0  0  0  0  0  0  0  0  0  0  0  0
  137.6780   79.9380  222.9000 C   0  0  0  0  0  0  0  0  0  0  0  0
  137.2320   78.6600  222.6560 C   0  0  0  0  0  0  0  0  0  0  0  0
  135.5480   78.2810  222.4650 Cl  0  0  0  0  0  0  0  0  0  0  0  0
  138.1670   77.6440  222.5640 C   0  0  0  0  0  0  0  0  0  0  0  0
  137.6260   76.0000  222.2550 Cl  0  0  0  0  0  0  0  0  0  0  0  0
  139.5260   77.9310  222.7180 C   0  0  0  0  0  0  0  0  0  0  0  0
  139.5990   80.0460  219.5880 N   0  0  0  0  0  0  0  0  0  0  0  0
  137.0391   80.9708  219.4795 H   0  0  0  0  0  0  0  0  0  0  0  0
  137.9068   81.3981  217.9658 H   0  0  0  0  0  0  0  0  0  0  0  0
  136.7048   80.0632  217.9658 H   0  0  0  0  0  0  0  0  0  0  0  0
  137.6770   77.8725  217.9615 H   0  0  0  0  0  0  0  0  0  0  0  0
  139.5479   76.3977  218.6137 H   0  0  0  0  0  0  0  0  0  0  0  0
  142.6856   77.4535  219.5438 H   0  0  0  0  0  0  0  0  0  0  0  0
  141.7831   77.0889  221.1207 H   0  0  0  0  0  0  0  0  0  0  0  0
  141.6710   75.3570  218.6770 H   0  0  0  0  0  0  0  0  0  0  0  0
  140.5427   73.1796  219.6415 H   0  0  0  0  0  0  0  0  0  0  0  0
  142.3481   72.9973  219.8518 H   0  0  0  0  0  0  0  0  0  0  0  0
  141.8470   71.5740  221.5240 H   0  0  0  0  0  0  0  0  0  0  0  0
  139.2031   70.0474  222.3449 H   0  0  0  0  0  0  0  0  0  0  0  0
  139.0891   68.3854  224.2195 H   0  0  0  0  0  0  0  0  0  0  0  0
  139.5933   67.9121  226.6153 H   0  0  0  0  0  0  0  0  0  0  0  0
  141.4663   70.9256  229.0360 H   0  0  0  0  0  0  0  0  0  0  0  0
  141.5128   72.4836  227.0805 H   0  0  0  0  0  0  0  0  0  0  0  0
  142.7075   79.8285  220.1897 H   0  0  0  0  0  0  0  0  0  0  0  0
  141.3877   81.6725  221.9289 H   0  0  0  0  0  0  0  0  0  0  0  0
  142.2393   81.9856  220.3786 H   0  0  0  0  0  0  0  0  0  0  0  0
  140.4825   81.6111  220.3786 H   0  0  0  0  0  0  0  0  0  0  0  0
  143.0970   79.0050  222.0550 H   0  0  0  0  0  0  0  0  0  0  0  0
  141.6842   80.5587  223.3544 H   0  0  0  0  0  0  0  0  0  0  0  0
  141.6327   79.1599  225.2466 H   0  0  0  0  0  0  0  0  0  0  0  0
  141.3918   77.6774  224.2613 H   0  0  0  0  0  0  0  0  0  0  0  0
  142.9852   78.5067  224.2613 H   0  0  0  0  0  0  0  0  0  0  0  0
  139.3497   81.2357  223.2412 H   0  0  0  0  0  0  0  0  0  0  0  0
  136.9520   80.7607  222.9784 H   0  0  0  0  0  0  0  0  0  0  0  0
  140.2558   77.1114  222.6431 H   0  0  0  0  0  0  0  0  0  0  0  0
  1  2  1  0
  2  3  2  0
  3  4  1  0
  4  5  2  0
  5  6  1  0
  6  7  1  0
  7  8  1  0
  8  9  2  0
  8 10  1  0
 10 11  1  0
 11 12  1  0
 12 13  2  0
 12 14  1  0
 14 15  2  0
 15 16  1  0
 16 17  2  0
 17 18  1  0
 18 19  2  0
 19 20  1  0
 19 21  1  0
 21 22  2  0
 22 23  1  0
 23 24  2  0
  5 25  1  0
 25 26  1  0
 26 27  1  0
 26 28  1  0
 28 29  1  0
 29 30  1  0
 29 31  1  0
 31 32  2  0
 32 33  1  0
 33 34  2  0
 34 35  1  0
 34 36  1  0
 36 37  1  0
 36 38  2  0
 25 39  2  0
 39  2  1  0
 24 14  1  0
 38 31  1  0
 23 17  1  0
  1 40  1  0
  1 41  1  0
  1 42  1  0
  3 43  1  0
  4 44  1  0
  6 45  1  0
  6 46  1  0
  7 47  1  0
 10 48  1  0
 10 49  1  0
 11 50  1  0
 15 51  1  0
 16 52  1  0
 18 53  1  0
 21 54  1  0
 22 55  1  0
 26 56  1  6
 27 57  1  0
 27 58  1  0
 27 59  1  0
 28 60  1  0
 29 61  1  1
 30 62  1  0
 30 63  1  0
 30 64  1  0
 32 65  1  0
 33 66  1  0
 38 67  1  0
M  END
>  <smiles>  (3) 
Cc1ccc(CNC(=O)CNC(=O)c2ccc3cc(F)ccc3n2)c([C@@H](C)NC(C)c2ccc(Cl)c(Cl)c2)n1

>  <score_type>  (3) 
oracle

>  <origin>  (3) 
autodockgpu

>  <m_score__min__energy>  (3) 
-9.9499999999999993

>  <m_primary>  (3) 
energy

>  <meeko>  (3) 
{"free_energy": -8.59, "intermolecular_energy": -11.27, "internal_energy": -3.16, "cluster_size": 3, "cluster_id": 6, "rank_in_cluster": 2}

>  <energy>  (3) 
-9.54

>  <cluster_rmsd>  (3) 
0.95

>  <rmsd>  (3) 
269.5

>  <cluster>  (3) 
1

$$$$

     RDKit          3D

 67 70  0  0  1  0  0  0  0  0999 V2000
  141.2830   81.3130  219.5270 C   0  0  0  0  0  0  0  0  0  0  0  0
  141.5820   79.8650  219.6800 C   0  0  0  0  0  0  0  0  0  0  0  0
  142.1600   79.1000  218.6900 C   0  0  0  0  0  0  0  0  0  0  0  0
  142.3980   77.7650  218.9310 C   0  0  0  0  0  0  0  0  0  0  0  0
  142.0700   77.1640  220.1530 C   0  0  0  0  0  0  0  0  0  0  0  0
  142.3200   75.7450  220.4010 C   0  0  0  0  0  0  0  0  0  0  0  0
  141.1820   74.8940  220.4750 N   0  0  0  0  0  0  0  0  0  0  0  0
  141.2070   73.6500  219.7920 C   0  0  0  0  0  0  0  0  0  0  0  0
  142.1740   73.2350  219.1140 O   0  0  0  0  0  0  0  0  0  0  0  0
  139.9930   72.7710  219.8870 C   0  0  0  0  0  0  0  0  0  0  0  0
  139.9550   71.9820  221.0740 N   0  0  0  0  0  0  0  0  0  0  0  0
  139.9240   72.4880  222.4000 C   0  0  0  0  0  0  0  0  0  0  0  0
  139.9280   73.7290  222.5840 O   0  0  0  0  0  0  0  0  0  0  0  0
  139.8860   71.5300  223.5250 C   0  0  0  0  0  0  0  0  0  0  0  0
  139.2870   70.2960  223.4160 C   0  0  0  0  0  0  0  0  0  0  0  0
  139.2520   69.3990  224.4900 C   0  0  0  0  0  0  0  0  0  0  0  0
  139.8510   69.8000  225.6840 C   0  0  0  0  0  0  0  0  0  0  0  0
  139.8750   68.9970  226.8040 C   0  0  0  0  0  0  0  0  0  0  0  0
  140.4850   69.4350  227.9800 C   0  0  0  0  0  0  0  0  0  0  0  0
  140.5280   68.6740  229.1000 F   0  0  0  0  0  0  0  0  0  0  0  0
  141.0670   70.6760  228.0290 C   0  0  0  0  0  0  0  0  0  0  0  0
  141.0600   71.5090  226.9200 C   0  0  0  0  0  0  0  0  0  0  0  0
  140.4450   71.0370  225.7720 C   0  0  0  0  0  0  0  0  0  0  0  0
  140.4540   71.8710  224.7110 N   0  0  0  0  0  0  0  0  0  0  0  0
  141.4840   77.9870  221.1240 C   0  0  0  0  0  0  0  0  0  0  0  0
  141.1000   77.4610  222.4640 C   0  0  1  0  0  0  0  0  0  0  0  0
  141.0380   78.6400  223.4090 C   0  0  0  0  0  0  0  0  0  0  0  0
  139.9980   76.5890  222.4610 N   0  0  0  0  0  0  0  0  0  0  0  0
  138.6850   77.0840  222.3410 C   0  0  2  0  0  0  0  0  0  0  0  0
  137.5870   76.0720  222.6110 C   0  0  0  0  0  0  0  0  0  0  0  0
  138.4560   77.5450  220.9200 C   0  0  0  0  0  0  0  0  0  0  0  0
  138.0090   78.8180  220.6370 C   0  0  0  0  0  0  0  0  0  0  0  0
  137.7910   79.2470  219.3400 C   0  0  0  0  0  0  0  0  0  0  0  0
  138.0170   78.4090  218.2730 C   0  0  0  0  0  0  0  0  0  0  0  0
  137.7560   78.9030  216.6290 Cl  0  0  0  0  0  0  0  0  0  0  0  0
  138.4660   77.1250  218.5290 C   0  0  0  0  0  0  0  0  0  0  0  0
  138.7630   76.0320  217.1850 Cl  0  0  0  0  0  0  0  0  0  0  0  0
  138.6800   76.7110  219.8460 C   0  0  0  0  0  0  0  0  0  0  0  0
  141.2770   79.2820  220.8310 N   0  0  0  0  0  0  0  0  0  0  0  0
  141.1877   81.7747  220.5208 H   0  0  0  0  0  0  0  0  0  0  0  0
  142.0996   81.7995  218.9735 H   0  0  0  0  0  0  0  0  0  0  0  0
  140.3405   81.4363  218.9735 H   0  0  0  0  0  0  0  0  0  0  0  0
  142.4272   79.5489  217.7220 H   0  0  0  0  0  0  0  0  0  0  0  0
  142.8588   77.1533  218.1413 H   0  0  0  0  0  0  0  0  0  0  0  0
  142.9605   75.3733  219.5876 H   0  0  0  0  0  0  0  0  0  0  0  0
  142.7738   75.7046  221.4022 H   0  0  0  0  0  0  0  0  0  0  0  0
  140.3180   75.1560  221.0190 H   0  0  0  0  0  0  0  0  0  0  0  0
  139.0977   73.4098  219.8644 H   0  0  0  0  0  0  0  0  0  0  0  0
  140.0296   72.0748  219.0361 H   0  0  0  0  0  0  0  0  0  0  0  0
  139.9480   70.9230  220.9630 H   0  0  0  0  0  0  0  0  0  0  0  0
  138.8240   70.0072  222.4609 H   0  0  0  0  0  0  0  0  0  0  0  0
  138.7701   68.4147  224.3958 H   0  0  0  0  0  0  0  0  0  0  0  0
  139.4088   68.0013  226.7704 H   0  0  0  0  0  0  0  0  0  0  0  0
  141.5454   71.0150  228.9597 H   0  0  0  0  0  0  0  0  0  0  0  0
  141.5247   72.5056  226.9509 H   0  0  0  0  0  0  0  0  0  0  0  0
  141.8679   76.7680  222.8384 H   0  0  0  0  0  0  0  0  0  0  0  0
  141.0570   78.2787  224.4478 H   0  0  0  0  0  0  0  0  0  0  0  0
  141.9028   79.2966  223.2333 H   0  0  0  0  0  0  0  0  0  0  0  0
  140.1090   79.2023  223.2333 H   0  0  0  0  0  0  0  0  0  0  0  0
  140.0470   75.7480  223.0310 H   0  0  0  0  0  0  0  0  0  0  0  0
  138.6211   77.8805  223.0970 H   0  0  0  0  0  0  0  0  0  0  0  0
  137.4574   75.9525  223.6968 H   0  0  0  0  0  0  0  0  0  0  0  0
  136.6452   76.4254  222.1660 H   0  0  0  0  0  0  0  0  0  0  0  0
  137.8625   75.1045  222.1660 H   0  0  0  0  0  0  0  0  0  0  0  0
  137.8199   79.5138  221.4677 H   0  0  0  0  0  0  0  0  0  0  0  0
  137.4324   80.2712  219.1598 H   0  0  0  0  0  0  0  0  0  0  0  0
  139.0384   75.6877  220.0315 H   0  0  0  0  0  0  0  0  0  0  0  0
  1  2  1  0
  2  3  2  0
  3  4  1  0
  4  5  2  0
  5  6  1  0
  6  7  1  0
  7  8  1  0
  8  9  2  0
  8 10  1  0
 10 11  1  0
 11 12  1  0
 12 13  2  0
 12 14  1  0
 14 15  2  0
 15 16  1  0
 16 17  2  0
 17 18  1  0
 18 19  2  0
 19 20  1  0
 19 21  1  0
 21 22  2  0
 22 23  1  0
 23 24  2  0
  5 25  1  0
 25 26  1  0
 26 27  1  0
 26 28  1  0
 28 29  1  0
 29 30  1  0
 29 31  1  0
 31 32  2  0
 32 33  1  0
 33 34  2  0
 34 35  1  0
 34 36  1  0
 36 37  1  0
 36 38  2  0
 25 39  2  0
 39  2  1  0
 24 14  1  0
 38 31  1  0
 23 17  1  0
  1 40  1  0
  1 41  1  0
  1 42  1  0
  3 43  1  0
  4 44  1  0
  6 45  1  0
  6 46  1  0
  7 47  1  0
 10 48  1  0
 10 49  1  0
 11 50  1  0
 15 51  1  0
 16 52  1  0
 18 53  1  0
 21 54  1  0
 22 55  1  0
 26 56  1  1
 27 57  1  0
 27 58  1  0
 27 59  1  0
 28 60  1  0
 29 61  1  1
 30 62  1  0
 30 63  1  0
 30 64  1  0
 32 65  1  0
 33 66  1  0
 38 67  1  0
M  END
>  <smiles>  (4) 
Cc1ccc(CNC(=O)CNC(=O)c2ccc3cc(F)ccc3n2)c([C@@H](C)NC(C)c2ccc(Cl)c(Cl)c2)n1

>  <score_type>  (4) 
oracle

>  <origin>  (4) 
autodockgpu

>  <m_score__min__energy>  (4) 
-9.9499999999999993

>  <m_primary>  (4) 
energy

>  <meeko>  (4) 
{"free_energy": -7.22, "intermolecular_energy": -9.91, "internal_energy": -5.5, "cluster_size": 3, "cluster_id": 6, "rank_in_cluster": 3}

>  <energy>  (4) 
-9.38

>  <cluster_rmsd>  (4) 
0.0

>  <rmsd>  (4) 
270.16

>  <cluster>  (4) 
2

$$$$

     RDKit          3D

 67 70  0  0  1  0  0  0  0  0999 V2000
  142.4960   80.1720  218.8580 C   0  0  0  0  0  0  0  0  0  0  0  0
  141.4770   79.2380  219.4060 C   0  0  0  0  0  0  0  0  0  0  0  0
  140.6210   78.5010  218.6170 C   0  0  0  0  0  0  0  0  0  0  0  0
  139.7120   77.6620  219.2230 C   0  0  0  0  0  0  0  0  0  0  0  0
  139.6350   77.5350  220.6150 C   0  0  0  0  0  0  0  0  0  0  0  0
  138.6650   76.6450  221.2520 C   0  0  0  0  0  0  0  0  0  0  0  0
  138.7430   75.2650  220.9180 N   0  0  0  0  0  0  0  0  0  0  0  0
  139.7810   74.4770  221.4820 C   0  0  0  0  0  0  0  0  0  0  0  0
  140.6520   74.9130  222.2670 O   0  0  0  0  0  0  0  0  0  0  0  0
  139.8400   73.0220  221.1130 C   0  0  0  0  0  0  0  0  0  0  0  0
  139.9210   72.1530  222.2410 N   0  0  0  0  0  0  0  0  0  0  0  0
  139.1610   70.9690  222.4270 C   0  0  0  0  0  0  0  0  0  0  0  0
  138.3370   70.6240  221.5460 O   0  0  0  0  0  0  0  0  0  0  0  0
  139.3670   70.1790  223.6590 C   0  0  0  0  0  0  0  0  0  0  0  0
  138.9570   68.8690  223.7650 C   0  0  0  0  0  0  0  0  0  0  0  0
  139.1510   68.1310  224.9380 C   0  0  0  0  0  0  0  0  0  0  0  0
  139.7800   68.7730  226.0060 C   0  0  0  0  0  0  0  0  0  0  0  0
  140.0220   68.1420  227.2070 C   0  0  0  0  0  0  0  0  0  0  0  0
  140.6540   68.8190  228.2510 C   0  0  0  0  0  0  0  0  0  0  0  0
  140.9070   68.2320  229.4460 F   0  0  0  0  0  0  0  0  0  0  0  0
  141.0400   70.1250  228.0870 C   0  0  0  0  0  0  0  0  0  0  0  0
  140.8120   70.7880  226.8910 C   0  0  0  0  0  0  0  0  0  0  0  0
  140.1820   70.0820  225.8790 C   0  0  0  0  0  0  0  0  0  0  0  0
  139.9730   70.7560  224.7290 N   0  0  0  0  0  0  0  0  0  0  0  0
  140.5290   78.3070  221.3700 C   0  0  0  0  0  0  0  0  0  0  0  0
  140.5460   78.2500  222.8580 C   0  0  1  0  0  0  0  0  0  0  0  0
  141.9280   78.6660  223.3080 C   0  0  0  0  0  0  0  0  0  0  0  0
  139.4560   78.8790  223.4840 N   0  0  0  0  0  0  0  0  0  0  0  0
  139.5250   80.2330  223.8660 C   0  0  2  0  0  0  0  0  0  0  0  0
  138.2260   80.8260  224.3780 C   0  0  0  0  0  0  0  0  0  0  0  0
  139.8930   81.0700  222.6620 C   0  0  0  0  0  0  0  0  0  0  0  0
  141.1080   81.7170  222.5750 C   0  0  0  0  0  0  0  0  0  0  0  0
  141.4500   82.4880  221.4800 C   0  0  0  0  0  0  0  0  0  0  0  0
  140.5820   82.6410  220.4250 C   0  0  0  0  0  0  0  0  0  0  0  0
  140.9680   83.6020  219.0310 Cl  0  0  0  0  0  0  0  0  0  0  0  0
  139.3550   82.0030  220.4860 C   0  0  0  0  0  0  0  0  0  0  0  0
  138.2240   82.1800  219.1530 Cl  0  0  0  0  0  0  0  0  0  0  0  0
  139.0270   81.2270  221.6010 C   0  0  0  0  0  0  0  0  0  0  0  0
  141.3920   79.1080  220.7230 N   0  0  0  0  0  0  0  0  0  0  0  0
  143.0290   80.6606  219.6870 H   0  0  0  0  0  0  0  0  0  0  0  0
  143.2133   79.6111  218.2408 H   0  0  0  0  0  0  0  0  0  0  0  0
  141.9995   80.9353  218.2408 H   0  0  0  0  0  0  0  0  0  0  0  0
  140.6628   78.5813  217.5207 H   0  0  0  0  0  0  0  0  0  0  0  0
  139.0264   77.0745  218.5946 H   0  0  0  0  0  0  0  0  0  0  0  0
  138.7989   76.7317  222.3404 H   0  0  0  0  0  0  0  0  0  0  0  0
  137.6842   76.9756  220.8795 H   0  0  0  0  0  0  0  0  0  0  0  0
  138.0570   74.8040  220.2630 H   0  0  0  0  0  0  0  0  0  0  0  0
  138.9333   72.7700  220.5435 H   0  0  0  0  0  0  0  0  0  0  0  0
  140.7568   72.8741  220.5235 H   0  0  0  0  0  0  0  0  0  0  0  0
  140.6100   72.4090  223.0120 H   0  0  0  0  0  0  0  0  0  0  0  0
  138.4644   68.3903  222.9058 H   0  0  0  0  0  0  0  0  0  0  0  0
  138.8204   67.0847  225.0155 H   0  0  0  0  0  0  0  0  0  0  0  0
  139.7141   67.0949  227.3441 H   0  0  0  0  0  0  0  0  0  0  0  0
  141.5365   70.6527  228.9146 H   0  0  0  0  0  0  0  0  0  0  0  0
  141.1196   71.8348  226.7509 H   0  0  0  0  0  0  0  0  0  0  0  0
  140.3738   77.2203  223.2046 H   0  0  0  0  0  0  0  0  0  0  0  0
  141.9676   78.6779  224.4072 H   0  0  0  0  0  0  0  0  0  0  0  0
  142.6699   77.9514  222.9221 H   0  0  0  0  0  0  0  0  0  0  0  0
  142.1521   79.6714  222.9221 H   0  0  0  0  0  0  0  0  0  0  0  0
  138.8760   78.3270  224.1110 H   0  0  0  0  0  0  0  0  0  0  0  0
  140.2637   80.2517  224.6808 H   0  0  0  0  0  0  0  0  0  0  0  0
  138.2305   80.8240  225.4780 H   0  0  0  0  0  0  0  0  0  0  0  0
  138.1258   81.8591  224.0136 H   0  0  0  0  0  0  0  0  0  0  0  0
  137.3798   80.2250  224.0136 H   0  0  0  0  0  0  0  0  0  0  0  0
  141.8264   81.6164  223.4019 H   0  0  0  0  0  0  0  0  0  0  0  0
  142.4304   82.9861  221.4523 H   0  0  0  0  0  0  0  0  0  0  0  0
  138.0481   80.7263  221.6330 H   0  0  0  0  0  0  0  0  0  0  0  0
  1  2  1  0
  2  3  2  0
  3  4  1  0
  4  5  2  0
  5  6  1  0
  6  7  1  0
  7  8  1  0
  8  9  2  0
  8 10  1  0
 10 11  1  0
 11 12  1  0
 12 13  2  0
 12 14  1  0
 14 15  2  0
 15 16  1  0
 16 17  2  0
 17 18  1  0
 18 19  2  0
 19 20  1  0
 19 21  1  0
 21 22  2  0
 22 23  1  0
 23 24  2  0
  5 25  1  0
 25 26  1  0
 26 27  1  0
 26 28  1  0
 28 29  1  0
 29 30  1  0
 29 31  1  0
 31 32  2  0
 32 33  1  0
 33 34  2  0
 34 35  1  0
 34 36  1  0
 36 37  1  0
 36 38  2  0
 25 39  2  0
 39  2  1  0
 24 14  1  0
 38 31  1  0
 23 17  1  0
  1 40  1  0
  1 41  1  0
  1 42  1  0
  3 43  1  0
  4 44  1  0
  6 45  1  0
  6 46  1  0
  7 47  1  0
 10 48  1  0
 10 49  1  0
 11 50  1  0
 15 51  1  0
 16 52  1  0
 18 53  1  0
 21 54  1  0
 22 55  1  0
 26 56  1  6
 27 57  1  0
 27 58  1  0
 27 59  1  0
 28 60  1  0
 29 61  1  1
 30 62  1  0
 30 63  1  0
 30 64  1  0
 32 65  1  0
 33 66  1  0
 38 67  1  0
M  END
>  <smiles>  (5) 
Cc1ccc(CNC(=O)CNC(=O)c2ccc3cc(F)ccc3n2)c([C@@H](C)NC(C)c2ccc(Cl)c(Cl)c2)n1

>  <score_type>  (5) 
oracle

>  <origin>  (5) 
autodockgpu

>  <m_score__min__energy>  (5) 
-9.9499999999999993

>  <m_primary>  (5) 
energy

>  <meeko>  (5) 
{"free_energy": -7.99, "intermolecular_energy": -10.67, "internal_energy": -3.35, "cluster_size": 2, "cluster_id": 3, "rank_in_cluster": 2}

>  <energy>  (5) 
-9.11

>  <cluster_rmsd>  (5) 
1.17

>  <rmsd>  (5) 
269.88

>  <cluster>  (5) 
2

$$$$

     RDKit          3D

 67 70  0  0  1  0  0  0  0  0999 V2000
  143.3580   76.6400  214.3890 C   0  0  0  0  0  0  0  0  0  0  0  0
  142.1860   76.1980  215.1880 C   0  0  0  0  0  0  0  0  0  0  0  0
  140.9630   76.8320  215.1550 C   0  0  0  0  0  0  0  0  0  0  0  0
  139.9370   76.3420  215.9330 C   0  0  0  0  0  0  0  0  0  0  0  0
  140.1010   75.2190  216.7540 C   0  0  0  0  0  0  0  0  0  0  0  0
  139.0090   74.7070  217.5810 C   0  0  0  0  0  0  0  0  0  0  0  0
  138.9750   75.1350  218.9370 N   0  0  0  0  0  0  0  0  0  0  0  0
  139.2620   74.1960  219.9630 C   0  0  0  0  0  0  0  0  0  0  0  0
  139.5480   72.9940  219.7620 O   0  0  0  0  0  0  0  0  0  0  0  0
  139.2210   74.6740  221.3860 C   0  0  0  0  0  0  0  0  0  0  0  0
  139.2590   73.6160  222.3410 N   0  0  0  0  0  0  0  0  0  0  0  0
  140.3110   72.6740  222.4870 C   0  0  0  0  0  0  0  0  0  0  0  0
  141.3090   72.7450  221.7310 O   0  0  0  0  0  0  0  0  0  0  0  0
  140.1940   71.6340  223.5320 C   0  0  0  0  0  0  0  0  0  0  0  0
  139.6270   70.4060  223.2800 C   0  0  0  0  0  0  0  0  0  0  0  0
  139.5160   69.4300  224.2780 C   0  0  0  0  0  0  0  0  0  0  0  0
  140.0040   69.7480  225.5470 C   0  0  0  0  0  0  0  0  0  0  0  0
  139.9450   68.8630  226.6020 C   0  0  0  0  0  0  0  0  0  0  0  0
  140.4440   69.2190  227.8550 C   0  0  0  0  0  0  0  0  0  0  0  0
  140.4040   68.3760  228.9160 F   0  0  0  0  0  0  0  0  0  0  0  0
  140.9990   70.4590  228.0460 C   0  0  0  0  0  0  0  0  0  0  0  0
  141.0720   71.3720  227.0050 C   0  0  0  0  0  0  0  0  0  0  0  0
  140.5660   70.9810  225.7760 C   0  0  0  0  0  0  0  0  0  0  0  0
  140.6520   71.8920  224.7840 N   0  0  0  0  0  0  0  0  0  0  0  0
  141.3640   74.6130  216.7490 C   0  0  0  0  0  0  0  0  0  0  0  0
  141.6560   73.4080  217.5750 C   0  0  1  0  0  0  0  0  0  0  0  0
  142.6500   72.5670  216.8080 C   0  0  0  0  0  0  0  0  0  0  0  0
  141.9530   73.6760  218.9220 N   0  0  0  0  0  0  0  0  0  0  0  0
  143.0690   74.4600  219.2740 C   0  0  2  0  0  0  0  0  0  0  0  0
  143.7760   74.0420  220.5500 C   0  0  0  0  0  0  0  0  0  0  0  0
  142.6190   75.8820  219.5200 C   0  0  0  0  0  0  0  0  0  0  0  0
  142.9260   76.9000  218.6430 C   0  0  0  0  0  0  0  0  0  0  0  0
  142.5230   78.2040  218.8640 C   0  0  0  0  0  0  0  0  0  0  0  0
  141.7920   78.5370  219.9790 C   0  0  0  0  0  0  0  0  0  0  0  0
  141.2650   80.1610  220.2980 Cl  0  0  0  0  0  0  0  0  0  0  0  0
  141.4690   77.5350  220.8770 C   0  0  0  0  0  0  0  0  0  0  0  0
  140.5350   77.9310  222.3130 Cl  0  0  0  0  0  0  0  0  0  0  0  0
  141.8860   76.2230  220.6370 C   0  0  0  0  0  0  0  0  0  0  0  0
  142.3260   75.1370  215.9690 N   0  0  0  0  0  0  0  0  0  0  0  0
  144.1691   76.9459  215.0662 H   0  0  0  0  0  0  0  0  0  0  0  0
  143.7033   75.8103  213.7546 H   0  0  0  0  0  0  0  0  0  0  0  0
  143.0694   77.4910  213.7546 H   0  0  0  0  0  0  0  0  0  0  0  0
  140.8084   77.7152  214.5177 H   0  0  0  0  0  0  0  0  0  0  0  0
  138.9603   76.8475  215.9087 H   0  0  0  0  0  0  0  0  0  0  0  0
  138.0633   75.0152  217.1112 H   0  0  0  0  0  0  0  0  0  0  0  0
  139.1688   73.6196  217.6268 H   0  0  0  0  0  0  0  0  0  0  0  0
  138.7430   76.1270  219.2100 H   0  0  0  0  0  0  0  0  0  0  0  0
  140.0868   75.3302  221.5583 H   0  0  0  0  0  0  0  0  0  0  0  0
  138.2653   75.2010  221.5237 H   0  0  0  0  0  0  0  0  0  0  0  0
  138.4320   73.5190  223.0050 H   0  0  0  0  0  0  0  0  0  0  0  0
  139.2517   70.1855  222.2698 H   0  0  0  0  0  0  0  0  0  0  0  0
  139.0616   68.4500  224.0701 H   0  0  0  0  0  0  0  0  0  0  0  0
  139.5007   67.8676  226.4546 H   0  0  0  0  0  0  0  0  0  0  0  0
  141.3908   70.7322  229.0369 H   0  0  0  0  0  0  0  0  0  0  0  0
  141.5147   72.3686  227.1494 H   0  0  0  0  0  0  0  0  0  0  0  0
  140.7446   72.8082  217.7150 H   0  0  0  0  0  0  0  0  0  0  0  0
  143.2930   72.0229  217.5155 H   0  0  0  0  0  0  0  0  0  0  0  0
  142.1101   71.8473  216.1751 H   0  0  0  0  0  0  0  0  0  0  0  0
  143.2704   73.2186  216.1751 H   0  0  0  0  0  0  0  0  0  0  0  0
  141.7480   72.9580  219.6130 H   0  0  0  0  0  0  0  0  0  0  0  0
  143.7663   74.3386  218.4319 H   0  0  0  0  0  0  0  0  0  0  0  0
  143.1962   74.3848  221.4196 H   0  0  0  0  0  0  0  0  0  0  0  0
  143.8651   72.9460  220.5777 H   0  0  0  0  0  0  0  0  0  0  0  0
  144.7793   74.4922  220.5777 H   0  0  0  0  0  0  0  0  0  0  0  0
  143.5094   76.6679  217.7398 H   0  0  0  0  0  0  0  0  0  0  0  0
  142.7911   78.9853  218.1376 H   0  0  0  0  0  0  0  0  0  0  0  0
  141.6214   75.4384  221.3612 H   0  0  0  0  0  0  0  0  0  0  0  0
  1  2  1  0
  2  3  2  0
  3  4  1  0
  4  5  2  0
  5  6  1  0
  6  7  1  0
  7  8  1  0
  8  9  2  0
  8 10  1  0
 10 11  1  0
 11 12  1  0
 12 13  2  0
 12 14  1  0
 14 15  2  0
 15 16  1  0
 16 17  2  0
 17 18  1  0
 18 19  2  0
 19 20  1  0
 19 21  1  0
 21 22  2  0
 22 23  1  0
 23 24  2  0
  5 25  1  0
 25 26  1  0
 26 27  1  0
 26 28  1  0
 28 29  1  0
 29 30  1  0
 29 31  1  0
 31 32  2  0
 32 33  1  0
 33 34  2  0
 34 35  1  0
 34 36  1  0
 36 37  1  0
 36 38  2  0
 25 39  2  0
 39  2  1  0
 24 14  1  0
 38 31  1  0
 23 17  1  0
  1 40  1  0
  1 41  1  0
  1 42  1  0
  3 43  1  0
  4 44  1  0
  6 45  1  0
  6 46  1  0
  7 47  1  0
 10 48  1  0
 10 49  1  0
 11 50  1  0
 15 51  1  0
 16 52  1  0
 18 53  1  0
 21 54  1  0
 22 55  1  0
 26 56  1  1
 27 57  1  0
 27 58  1  0
 27 59  1  0
 28 60  1  0
 29 61  1  6
 30 62  1  0
 30 63  1  0
 30 64  1  0
 32 65  1  0
 33 66  1  0
 38 67  1  0
M  END
>  <smiles>  (6) 
Cc1ccc(CNC(=O)CNC(=O)c2ccc3cc(F)ccc3n2)c([C@@H](C)NC(C)c2ccc(Cl)c(Cl)c2)n1

>  <score_type>  (6) 
oracle

>  <origin>  (6) 
autodockgpu

>  <m_score__min__energy>  (6) 
-9.9499999999999993

>  <m_primary>  (6) 
energy

>  <meeko>  (6) 
{"free_energy": -6.8, "intermolecular_energy": -9.49, "internal_energy": -4.65, "cluster_size": 1, "cluster_id": 11, "rank_in_cluster": 1}

>  <energy>  (6) 
-8.91

>  <cluster_rmsd>  (6) 
0.0

>  <rmsd>  (6) 
269.96

>  <cluster>  (6) 
3

$$$$

     RDKit          3D

 67 70  0  0  1  0  0  0  0  0999 V2000
  138.9510   81.1570  219.8450 C   0  0  0  0  0  0  0  0  0  0  0  0
  138.6390   79.7040  219.8190 C   0  0  0  0  0  0  0  0  0  0  0  0
  138.3200   79.0160  218.6690 C   0  0  0  0  0  0  0  0  0  0  0  0
  138.0480   77.6680  218.7510 C   0  0  0  0  0  0  0  0  0  0  0  0
  138.0890   76.9780  219.9690 C   0  0  0  0  0  0  0  0  0  0  0  0
  137.7960   75.5480  220.0500 C   0  0  0  0  0  0  0  0  0  0  0  0
  138.8980   74.6770  220.2740 N   0  0  0  0  0  0  0  0  0  0  0  0
  139.0730   73.5530  219.4250 C   0  0  0  0  0  0  0  0  0  0  0  0
  138.3130   73.2620  218.4730 O   0  0  0  0  0  0  0  0  0  0  0  0
  140.2450   72.6510  219.6820 C   0  0  0  0  0  0  0  0  0  0  0  0
  140.1320   71.9050  220.8930 N   0  0  0  0  0  0  0  0  0  0  0  0
  140.2060   72.4440  222.2030 C   0  0  0  0  0  0  0  0  0  0  0  0
  140.3850   73.6770  222.3520 O   0  0  0  0  0  0  0  0  0  0  0  0
  140.0700   71.5300  223.3570 C   0  0  0  0  0  0  0  0  0  0  0  0
  139.4270   70.3170  223.2560 C   0  0  0  0  0  0  0  0  0  0  0  0
  139.2980   69.4600  224.3560 C   0  0  0  0  0  0  0  0  0  0  0  0
  139.8480   69.8810  225.5680 C   0  0  0  0  0  0  0  0  0  0  0  0
  139.7790   69.1170  226.7130 C   0  0  0  0  0  0  0  0  0  0  0  0
  140.3410   69.5740  227.9060 C   0  0  0  0  0  0  0  0  0  0  0  0
  140.2930   68.8520  229.0510 F   0  0  0  0  0  0  0  0  0  0  0  0
  140.9700   70.7920  227.9450 C   0  0  0  0  0  0  0  0  0  0  0  0
  141.0570   71.5840  226.8100 C   0  0  0  0  0  0  0  0  0  0  0  0
  140.4860   71.0960  225.6460 C   0  0  0  0  0  0  0  0  0  0  0  0
  140.5860   71.8900  224.5600 N   0  0  0  0  0  0  0  0  0  0  0  0
  138.4190   77.7250  221.1070 C   0  0  0  0  0  0  0  0  0  0  0  0
  138.5020   77.0980  222.4560 C   0  0  1  0  0  0  0  0  0  0  0  0
  137.1510   76.4870  222.7520 C   0  0  0  0  0  0  0  0  0  0  0  0
  139.6280   76.2820  222.6590 N   0  0  0  0  0  0  0  0  0  0  0  0
  140.9260   76.8270  222.6430 C   0  0  2  0  0  0  0  0  0  0  0  0
  141.0240   78.2770  223.0770 C   0  0  0  0  0  0  0  0  0  0  0  0
  141.4580   76.8010  221.2280 C   0  0  0  0  0  0  0  0  0  0  0  0
  141.8310   75.6230  220.6170 C   0  0  0  0  0  0  0  0  0  0  0  0
  142.3230   75.5920  219.3250 C   0  0  0  0  0  0  0  0  0  0  0  0
  142.4600   76.7490  218.5940 C   0  0  0  0  0  0  0  0  0  0  0  0
  143.0760   76.7580  216.9700 Cl  0  0  0  0  0  0  0  0  0  0  0  0
  142.0940   77.9460  219.1840 C   0  0  0  0  0  0  0  0  0  0  0  0
  142.2590   79.4410  218.2740 Cl  0  0  0  0  0  0  0  0  0  0  0  0
  141.5990   77.9570  220.4900 C   0  0  0  0  0  0  0  0  0  0  0  0
  138.6740   79.0370  220.9650 N   0  0  0  0  0  0  0  0  0  0  0  0
  139.0242   81.4977  220.8883 H   0  0  0  0  0  0  0  0  0  0  0  0
  139.9080   81.3358  219.3329 H   0  0  0  0  0  0  0  0  0  0  0  0
  138.1517   81.7129  219.3329 H   0  0  0  0  0  0  0  0  0  0  0  0
  138.2830   79.5351  217.6999 H   0  0  0  0  0  0  0  0  0  0  0  0
  137.7913   77.1179  217.8337 H   0  0  0  0  0  0  0  0  0  0  0  0
  137.0833   75.4010  220.8749 H   0  0  0  0  0  0  0  0  0  0  0  0
  137.4138   75.2768  219.0548 H   0  0  0  0  0  0  0  0  0  0  0  0
  139.5930   74.8360  221.0510 H   0  0  0  0  0  0  0  0  0  0  0  0
  140.3310   71.9439  218.8438 H   0  0  0  0  0  0  0  0  0  0  0  0
  141.1333   73.2927  219.7780 H   0  0  0  0  0  0  0  0  0  0  0  0
  139.9780   70.8550  220.8130 H   0  0  0  0  0  0  0  0  0  0  0  0
  139.0040   70.0133  222.2871 H   0  0  0  0  0  0  0  0  0  0  0  0
  138.7829   68.4920  224.2683 H   0  0  0  0  0  0  0  0  0  0  0  0
  139.2767   68.1387  226.6864 H   0  0  0  0  0  0  0  0  0  0  0  0
  141.4112   71.1453  228.8887 H   0  0  0  0  0  0  0  0  0  0  0  0
  141.5600   72.5620  226.8331 H   0  0  0  0  0  0  0  0  0  0  0  0
  138.7025   77.8619  223.2217 H   0  0  0  0  0  0  0  0  0  0  0  0
  137.0084   76.4225  223.8408 H   0  0  0  0  0  0  0  0  0  0  0  0
  136.3608   77.1153  222.3153 H   0  0  0  0  0  0  0  0  0  0  0  0
  137.1010   75.4787  222.3153 H   0  0  0  0  0  0  0  0  0  0  0  0
  139.6010   75.3280  222.3080 H   0  0  0  0  0  0  0  0  0  0  0  0
  141.4913   76.2100  223.3570 H   0  0  0  0  0  0  0  0  0  0  0  0
  141.0277   78.3315  224.1756 H   0  0  0  0  0  0  0  0  0  0  0  0
  141.9538   78.7150  222.6850 H   0  0  0  0  0  0  0  0  0  0  0  0
  140.1616   78.8361  222.6850 H   0  0  0  0  0  0  0  0  0  0  0  0
  141.7344   74.6793  221.1739 H   0  0  0  0  0  0  0  0  0  0  0  0
  142.6086   74.6293  218.8760 H   0  0  0  0  0  0  0  0  0  0  0  0
  141.3129   78.9174  220.9437 H   0  0  0  0  0  0  0  0  0  0  0  0
  1  2  1  0
  2  3  2  0
  3  4  1  0
  4  5  2  0
  5  6  1  0
  6  7  1  0
  7  8  1  0
  8  9  2  0
  8 10  1  0
 10 11  1  0
 11 12  1  0
 12 13  2  0
 12 14  1  0
 14 15  2  0
 15 16  1  0
 16 17  2  0
 17 18  1  0
 18 19  2  0
 19 20  1  0
 19 21  1  0
 21 22  2  0
 22 23  1  0
 23 24  2  0
  5 25  1  0
 25 26  1  0
 26 27  1  0
 26 28  1  0
 28 29  1  0
 29 30  1  0
 29 31  1  0
 31 32  2  0
 32 33  1  0
 33 34  2  0
 34 35  1  0
 34 36  1  0
 36 37  1  0
 36 38  2  0
 25 39  2  0
 39  2  1  0
 24 14  1  0
 38 31  1  0
 23 17  1  0
  1 40  1  0
  1 41  1  0
  1 42  1  0
  3 43  1  0
  4 44  1  0
  6 45  1  0
  6 46  1  0
  7 47  1  0
 10 48  1  0
 10 49  1  0
 11 50  1  0
 15 51  1  0
 16 52  1  0
 18 53  1  0
 21 54  1  0
 22 55  1  0
 26 56  1  1
 27 57  1  0
 27 58  1  0
 27 59  1  0
 28 60  1  0
 29 61  1  1
 30 62  1  0
 30 63  1  0
 30 64  1  0
 32 65  1  0
 33 66  1  0
 38 67  1  0
M  END
>  <smiles>  (7) 
Cc1ccc(CNC(=O)CNC(=O)c2ccc3cc(F)ccc3n2)c([C@@H](C)NC(C)c2ccc(Cl)c(Cl)c2)n1

>  <score_type>  (7) 
oracle

>  <origin>  (7) 
autodockgpu

>  <m_score__min__energy>  (7) 
-9.9499999999999993

>  <m_primary>  (7) 
energy

>  <meeko>  (7) 
{"free_energy": -7.24, "intermolecular_energy": -9.93, "internal_energy": -5.34, "cluster_size": 1, "cluster_id": 10, "rank_in_cluster": 1}

>  <energy>  (7) 
-7.99

>  <cluster_rmsd>  (7) 
1.92

>  <rmsd>  (7) 
269.98

>  <cluster>  (7) 
3

$$$$

     RDKit          3D

 67 70  0  0  1  0  0  0  0  0999 V2000
  137.7890   81.4560  220.0930 C   0  0  0  0  0  0  0  0  0  0  0  0
  138.2400   80.2250  220.7920 C   0  0  0  0  0  0  0  0  0  0  0  0
  137.3860   79.3770  221.4630 C   0  0  0  0  0  0  0  0  0  0  0  0
  137.9050   78.2590  222.0800 C   0  0  0  0  0  0  0  0  0  0  0  0
  139.2720   77.9600  222.0420 C   0  0  0  0  0  0  0  0  0  0  0  0
  139.8160   76.7740  222.7010 C   0  0  0  0  0  0  0  0  0  0  0  0
  139.1760   75.5340  222.4240 N   0  0  0  0  0  0  0  0  0  0  0  0
  139.2130   75.0200  221.1010 C   0  0  0  0  0  0  0  0  0  0  0  0
  139.7770   75.5860  220.1390 O   0  0  0  0  0  0  0  0  0  0  0  0
  138.5310   73.7080  220.8360 C   0  0  0  0  0  0  0  0  0  0  0  0
  138.7040   72.7570  221.8840 N   0  0  0  0  0  0  0  0  0  0  0  0
  139.8970   72.5540  222.6260 C   0  0  0  0  0  0  0  0  0  0  0  0
  140.9060   73.2530  222.3680 O   0  0  0  0  0  0  0  0  0  0  0  0
  139.9090   71.5220  223.6830 C   0  0  0  0  0  0  0  0  0  0  0  0
  139.4100   70.2560  223.4750 C   0  0  0  0  0  0  0  0  0  0  0  0
  139.4220   69.2870  224.4860 C   0  0  0  0  0  0  0  0  0  0  0  0
  139.9610   69.6490  225.7210 C   0  0  0  0  0  0  0  0  0  0  0  0
  140.0230   68.7750  226.7840 C   0  0  0  0  0  0  0  0  0  0  0  0
  140.5700   69.1770  228.0030 C   0  0  0  0  0  0  0  0  0  0  0  0
  140.6470   68.3460  229.0710 F   0  0  0  0  0  0  0  0  0  0  0  0
  141.0520   70.4520  228.1510 C   0  0  0  0  0  0  0  0  0  0  0  0
  141.0050   71.3560  227.1000 C   0  0  0  0  0  0  0  0  0  0  0  0
  140.4540   70.9190  225.9070 C   0  0  0  0  0  0  0  0  0  0  0  0
  140.4220   71.8220  224.9050 N   0  0  0  0  0  0  0  0  0  0  0  0
  140.0950   78.8550  221.3450 C   0  0  0  0  0  0  0  0  0  0  0  0
  141.5640   78.6370  221.2300 C   0  0  1  0  0  0  0  0  0  0  0  0
  142.1970   79.1590  222.4990 C   0  0  0  0  0  0  0  0  0  0  0  0
  141.9380   77.3470  220.8150 N   0  0  0  0  0  0  0  0  0  0  0  0
  142.5410   77.1380  219.5600 C   0  0  2  0  0  0  0  0  0  0  0  0
  141.6110   77.2580  218.3680 C   0  0  0  0  0  0  0  0  0  0  0  0
  143.0820   75.7280  219.4990 C   0  0  0  0  0  0  0  0  0  0  0  0
  142.9760   74.8650  220.5690 C   0  0  0  0  0  0  0  0  0  0  0  0
  143.4730   73.5750  220.5230 C   0  0  0  0  0  0  0  0  0  0  0  0
  144.0980   73.1000  219.3940 C   0  0  0  0  0  0  0  0  0  0  0  0
  144.7400   71.4900  219.2910 Cl  0  0  0  0  0  0  0  0  0  0  0  0
  144.2190   73.9450  218.3050 C   0  0  0  0  0  0  0  0  0  0  0  0
  145.0150   73.3670  216.8480 Cl  0  0  0  0  0  0  0  0  0  0  0  0
  143.7110   75.2450  218.3710 C   0  0  0  0  0  0  0  0  0  0  0  0
  139.5320   79.9290  220.7650 N   0  0  0  0  0  0  0  0  0  0  0  0
  137.5098   82.2180  220.8356 H   0  0  0  0  0  0  0  0  0  0  0  0
  138.6050   81.8397  219.4629 H   0  0  0  0  0  0  0  0  0  0  0  0
  136.9183   81.2218  219.4629 H   0  0  0  0  0  0  0  0  0  0  0  0
  136.3074   79.5888  221.5056 H   0  0  0  0  0  0  0  0  0  0  0  0
  137.2251   77.5820  222.6180 H   0  0  0  0  0  0  0  0  0  0  0  0
  140.8693   76.6793  222.3985 H   0  0  0  0  0  0  0  0  0  0  0  0
  139.6577   76.9449  223.7760 H   0  0  0  0  0  0  0  0  0  0  0  0
  138.6720   74.9810  223.1680 H   0  0  0  0  0  0  0  0  0  0  0  0
  137.4544   73.8943  220.7087 H   0  0  0  0  0  0  0  0  0  0  0  0
  138.9894   73.2811  219.9318 H   0  0  0  0  0  0  0  0  0  0  0  0
  137.8710   72.1440  222.1370 H   0  0  0  0  0  0  0  0  0  0  0  0
  138.9916   69.9992  222.4906 H   0  0  0  0  0  0  0  0  0  0  0  0
  139.0211   68.2774  224.3128 H   0  0  0  0  0  0  0  0  0  0  0  0
  139.6378   67.7509  226.6708 H   0  0  0  0  0  0  0  0  0  0  0  0
  141.4813   70.7619  229.1152 H   0  0  0  0  0  0  0  0  0  0  0  0
  141.3905   72.3804  227.2099 H   0  0  0  0  0  0  0  0  0  0  0  0
  141.9723   79.2142  220.3873 H   0  0  0  0  0  0  0  0  0  0  0  0
  141.6787   78.7316  223.3700 H   0  0  0  0  0  0  0  0  0  0  0  0
  143.2580   78.8698  222.5254 H   0  0  0  0  0  0  0  0  0  0  0  0
  142.1152   80.2556  222.5254 H   0  0  0  0  0  0  0  0  0  0  0  0
  141.3600   76.5620  221.1050 H   0  0  0  0  0  0  0  0  0  0  0  0
  143.3049   77.9262  219.4873 H   0  0  0  0  0  0  0  0  0  0  0  0
  140.5778   77.3913  218.7210 H   0  0  0  0  0  0  0  0  0  0  0  0
  141.9053   78.1256  217.7592 H   0  0  0  0  0  0  0  0  0  0  0  0
  141.6754   76.3441  217.7592 H   0  0  0  0  0  0  0  0  0  0  0  0
  142.4809   75.2131  221.4876 H   0  0  0  0  0  0  0  0  0  0  0  0
  143.3669   72.9207  221.4008 H   0  0  0  0  0  0  0  0  0  0  0  0
  143.8161   75.9034  217.4961 H   0  0  0  0  0  0  0  0  0  0  0  0
  1  2  1  0
  2  3  2  0
  3  4  1  0
  4  5  2  0
  5  6  1  0
  6  7  1  0
  7  8  1  0
  8  9  2  0
  8 10  1  0
 10 11  1  0
 11 12  1  0
 12 13  2  0
 12 14  1  0
 14 15  2  0
 15 16  1  0
 16 17  2  0
 17 18  1  0
 18 19  2  0
 19 20  1  0
 19 21  1  0
 21 22  2  0
 22 23  1  0
 23 24  2  0
  5 25  1  0
 25 26  1  0
 26 27  1  0
 26 28  1  0
 28 29  1  0
 29 30  1  0
 29 31  1  0
 31 32  2  0
 32 33  1  0
 33 34  2  0
 34 35  1  0
 34 36  1  0
 36 37  1  0
 36 38  2  0
 25 39  2  0
 39  2  1  0
 24 14  1  0
 38 31  1  0
 23 17  1  0
  1 40  1  0
  1 41  1  0
  1 42  1  0
  3 43  1  0
  4 44  1  0
  6 45  1  0
  6 46  1  0
  7 47  1  0
 10 48  1  0
 10 49  1  0
 11 50  1  0
 15 51  1  0
 16 52  1  0
 18 53  1  0
 21 54  1  0
 22 55  1  0
 26 56  1  6
 27 57  1  0
 27 58  1  0
 27 59  1  0
 28 60  1  0
 29 61  1  6
 30 62  1  0
 30 63  1  0
 30 64  1  0
 32 65  1  0
 33 66  1  0
 38 67  1  0
M  END
>  <smiles>  (8) 
Cc1ccc(CNC(=O)CNC(=O)c2ccc3cc(F)ccc3n2)c([C@@H](C)NC(C)c2ccc(Cl)c(Cl)c2)n1

>  <score_type>  (8) 
oracle

>  <origin>  (8) 
autodockgpu

>  <m_score__min__energy>  (8) 
-9.9499999999999993

>  <m_primary>  (8) 
energy

>  <meeko>  (8) 
{"free_energy": -8.57, "intermolecular_energy": -11.25, "internal_energy": -3.21, "cluster_size": 1, "cluster_id": 7, "rank_in_cluster": 1}

>  <energy>  (8) 
-8.85

>  <cluster_rmsd>  (8) 
0.0

>  <rmsd>  (8) 
269.12

>  <cluster>  (8) 
4

$$$$

     RDKit          3D

 67 70  0  0  1  0  0  0  0  0999 V2000
  133.0760   76.7790  225.3480 C   0  0  0  0  0  0  0  0  0  0  0  0
  134.3410   76.5780  224.5930 C   0  0  0  0  0  0  0  0  0  0  0  0
  134.9560   75.3530  224.4560 C   0  0  0  0  0  0  0  0  0  0  0  0
  136.1270   75.2720  223.7340 C   0  0  0  0  0  0  0  0  0  0  0  0
  136.7070   76.3970  223.1360 C   0  0  0  0  0  0  0  0  0  0  0  0
  137.9520   76.3050  222.3750 C   0  0  0  0  0  0  0  0  0  0  0  0
  138.3850   75.0010  222.0070 N   0  0  0  0  0  0  0  0  0  0  0  0
  138.2900   74.6010  220.6480 C   0  0  0  0  0  0  0  0  0  0  0  0
  137.8430   75.3230  219.7280 O   0  0  0  0  0  0  0  0  0  0  0  0
  138.7550   73.2200  220.2860 C   0  0  0  0  0  0  0  0  0  0  0  0
  138.8760   72.3500  221.4090 N   0  0  0  0  0  0  0  0  0  0  0  0
  139.8570   72.4510  222.4290 C   0  0  0  0  0  0  0  0  0  0  0  0
  140.7080   73.3710  222.3740 O   0  0  0  0  0  0  0  0  0  0  0  0
  139.8440   71.4630  223.5290 C   0  0  0  0  0  0  0  0  0  0  0  0
  139.2540   70.2270  223.3940 C   0  0  0  0  0  0  0  0  0  0  0  0
  139.2410   69.3010  224.4440 C   0  0  0  0  0  0  0  0  0  0  0  0
  139.8530   69.6750  225.6410 C   0  0  0  0  0  0  0  0  0  0  0  0
  139.8990   68.8420  226.7380 C   0  0  0  0  0  0  0  0  0  0  0  0
  140.5210   69.2550  227.9170 C   0  0  0  0  0  0  0  0  0  0  0  0
  140.5850   68.4640  229.0160 F   0  0  0  0  0  0  0  0  0  0  0  0
  141.0920   70.4990  227.9920 C   0  0  0  0  0  0  0  0  0  0  0  0
  141.0630   71.3610  226.9060 C   0  0  0  0  0  0  0  0  0  0  0  0
  140.4370   70.9150  225.7540 C   0  0  0  0  0  0  0  0  0  0  0  0
  140.4250   71.7770  224.7160 N   0  0  0  0  0  0  0  0  0  0  0  0
  136.0400   77.6180  223.3070 C   0  0  0  0  0  0  0  0  0  0  0  0
  136.5570   78.8810  222.7100 C   0  0  1  0  0  0  0  0  0  0  0  0
  136.4990   78.7260  221.2080 C   0  0  0  0  0  0  0  0  0  0  0  0
  136.0080   80.0560  223.2510 N   0  0  0  0  0  0  0  0  0  0  0  0
  136.8370   81.0800  223.7470 C   0  0  2  0  0  0  0  0  0  0  0  0
  136.6140   82.4480  223.1300 C   0  0  0  0  0  0  0  0  0  0  0  0
  138.2790   80.7410  223.4460 C   0  0  0  0  0  0  0  0  0  0  0  0
  138.9640   79.7860  224.1670 C   0  0  0  0  0  0  0  0  0  0  0  0
  140.2840   79.4730  223.9010 C   0  0  0  0  0  0  0  0  0  0  0  0
  140.9710   80.1110  222.8950 C   0  0  0  0  0  0  0  0  0  0  0  0
  142.6300   79.7530  222.5260 Cl  0  0  0  0  0  0  0  0  0  0  0  0
  140.3080   81.0740  222.1550 C   0  0  0  0  0  0  0  0  0  0  0  0
  141.1610   81.9070  220.8620 Cl  0  0  0  0  0  0  0  0  0  0  0  0
  138.9730   81.3760  222.4390 C   0  0  0  0  0  0  0  0  0  0  0  0
  134.9020   77.6350  224.0220 N   0  0  0  0  0  0  0  0  0  0  0  0
  133.2842   76.7459  226.4276 H   0  0  0  0  0  0  0  0  0  0  0  0
  132.6449   77.7569  225.0875 H   0  0  0  0  0  0  0  0  0  0  0  0
  132.3630   75.9829  225.0875 H   0  0  0  0  0  0  0  0  0  0  0  0
  134.5194   74.4540  224.9155 H   0  0  0  0  0  0  0  0  0  0  0  0
  136.6203   74.2949  223.6244 H   0  0  0  0  0  0  0  0  0  0  0  0
  137.8198   76.8850  221.4497 H   0  0  0  0  0  0  0  0  0  0  0  0
  138.7311   76.6863  223.0515 H   0  0  0  0  0  0  0  0  0  0  0  0
  138.7750   74.3180  222.7090 H   0  0  0  0  0  0  0  0  0  0  0  0
  138.0319   72.7821  219.5822 H   0  0  0  0  0  0  0  0  0  0  0  0
  139.7573   73.3206  219.8441 H   0  0  0  0  0  0  0  0  0  0  0  0
  138.1730   71.5560  221.4960 H   0  0  0  0  0  0  0  0  0  0  0  0
  138.7809   69.9600  222.4375 H   0  0  0  0  0  0  0  0  0  0  0  0
  138.7661   68.3154  224.3297 H   0  0  0  0  0  0  0  0  0  0  0  0
  139.4415   67.8431  226.6838 H   0  0  0  0  0  0  0  0  0  0  0  0
  141.5793   70.8175  228.9253 H   0  0  0  0  0  0  0  0  0  0  0  0
  141.5196   72.3604  226.9576 H   0  0  0  0  0  0  0  0  0  0  0  0
  137.6089   79.0359  222.9922 H   0  0  0  0  0  0  0  0  0  0  0  0
  136.1236   77.7229  220.9571 H   0  0  0  0  0  0  0  0  0  0  0  0
  135.8244   79.4859  220.7867 H   0  0  0  0  0  0  0  0  0  0  0  0
  137.5067   78.8563  220.7867 H   0  0  0  0  0  0  0  0  0  0  0  0
  135.1280   79.9880  223.7570 H   0  0  0  0  0  0  0  0  0  0  0  0
  136.5932   81.1359  224.8182 H   0  0  0  0  0  0  0  0  0  0  0  0
  136.4922   83.1949  223.9284 H   0  0  0  0  0  0  0  0  0  0  0  0
  137.4805   82.7150  222.5072 H   0  0  0  0  0  0  0  0  0  0  0  0
  135.7076   82.4260  222.5072 H   0  0  0  0  0  0  0  0  0  0  0  0
  138.4440   79.2567  224.9791 H   0  0  0  0  0  0  0  0  0  0  0  0
  140.7913   78.7037  224.5017 H   0  0  0  0  0  0  0  0  0  0  0  0
  138.4609   82.1438  221.8405 H   0  0  0  0  0  0  0  0  0  0  0  0
  1  2  1  0
  2  3  2  0
  3  4  1  0
  4  5  2  0
  5  6  1  0
  6  7  1  0
  7  8  1  0
  8  9  2  0
  8 10  1  0
 10 11  1  0
 11 12  1  0
 12 13  2  0
 12 14  1  0
 14 15  2  0
 15 16  1  0
 16 17  2  0
 17 18  1  0
 18 19  2  0
 19 20  1  0
 19 21  1  0
 21 22  2  0
 22 23  1  0
 23 24  2  0
  5 25  1  0
 25 26  1  0
 26 27  1  0
 26 28  1  0
 28 29  1  0
 29 30  1  0
 29 31  1  0
 31 32  2  0
 32 33  1  0
 33 34  2  0
 34 35  1  0
 34 36  1  0
 36 37  1  0
 36 38  2  0
 25 39  2  0
 39  2  1  0
 24 14  1  0
 38 31  1  0
 23 17  1  0
  1 40  1  0
  1 41  1  0
  1 42  1  0
  3 43  1  0
  4 44  1  0
  6 45  1  0
  6 46  1  0
  7 47  1  0
 10 48  1  0
 10 49  1  0
 11 50  1  0
 15 51  1  0
 16 52  1  0
 18 53  1  0
 21 54  1  0
 22 55  1  0
 26 56  1  1
 27 57  1  0
 27 58  1  0
 27 59  1  0
 28 60  1  0
 29 61  1  1
 30 62  1  0
 30 63  1  0
 30 64  1  0
 32 65  1  0
 33 66  1  0
 38 67  1  0
M  END
>  <smiles>  (9) 
Cc1ccc(CNC(=O)CNC(=O)c2ccc3cc(F)ccc3n2)c([C@@H](C)NC(C)c2ccc(Cl)c(Cl)c2)n1

>  <score_type>  (9) 
oracle

>  <origin>  (9) 
autodockgpu

>  <m_score__min__energy>  (9) 
-9.9499999999999993

>  <m_primary>  (9) 
energy

>  <meeko>  (9) 
{"free_energy": -9.11, "intermolecular_energy": -11.79, "internal_energy": -2.97, "cluster_size": 2, "cluster_id": 2, "rank_in_cluster": 2}

>  <energy>  (9) 
-8.7

>  <cluster_rmsd>  (9) 
0.0

>  <rmsd>  (9) 
270.03

>  <cluster>  (9) 
5

$$$$

     RDKit          3D

 67 70  0  0  1  0  0  0  0  0999 V2000
  143.6820   74.6180  220.0850 C   0  0  0  0  0  0  0  0  0  0  0  0
  142.3880   75.2510  220.4500 C   0  0  0  0  0  0  0  0  0  0  0  0
  142.1910   76.6140  220.4780 C   0  0  0  0  0  0  0  0  0  0  0  0
  140.9510   77.1020  220.8300 C   0  0  0  0  0  0  0  0  0  0  0  0
  139.8870   76.2520  221.1580 C   0  0  0  0  0  0  0  0  0  0  0  0
  138.5750   76.7760  221.5340 C   0  0  0  0  0  0  0  0  0  0  0  0
  137.8520   76.0500  222.5220 N   0  0  0  0  0  0  0  0  0  0  0  0
  136.5800   76.5270  222.9340 C   0  0  0  0  0  0  0  0  0  0  0  0
  136.0340   77.5600  222.4860 O   0  0  0  0  0  0  0  0  0  0  0  0
  135.8380   75.7410  223.9760 C   0  0  0  0  0  0  0  0  0  0  0  0
  136.0960   74.3400  223.9220 N   0  0  0  0  0  0  0  0  0  0  0  0
  136.0200   73.5320  222.7580 C   0  0  0  0  0  0  0  0  0  0  0  0
  135.7020   74.0580  221.6640 O   0  0  0  0  0  0  0  0  0  0  0  0
  136.3200   72.0890  222.8730 C   0  0  0  0  0  0  0  0  0  0  0  0
  135.8590   71.3280  223.9240 C   0  0  0  0  0  0  0  0  0  0  0  0
  136.1540   69.9640  224.0270 C   0  0  0  0  0  0  0  0  0  0  0  0
  136.9360   69.3950  223.0200 C   0  0  0  0  0  0  0  0  0  0  0  0
  137.2850   68.0620  223.0230 C   0  0  0  0  0  0  0  0  0  0  0  0
  138.0700   67.5320  221.9970 C   0  0  0  0  0  0  0  0  0  0  0  0
  138.4340   66.2280  221.9650 F   0  0  0  0  0  0  0  0  0  0  0  0
  138.5000   68.3400  220.9760 C   0  0  0  0  0  0  0  0  0  0  0  0
  138.1650   69.6860  220.9440 C   0  0  0  0  0  0  0  0  0  0  0  0
  137.3860   70.1730  221.9800 C   0  0  0  0  0  0  0  0  0  0  0  0
  137.0780   71.4860  221.9210 N   0  0  0  0  0  0  0  0  0  0  0  0
  140.1420   74.8750  221.1130 C   0  0  0  0  0  0  0  0  0  0  0  0
  139.0860   73.8740  221.4340 C   0  0  1  0  0  0  0  0  0  0  0  0
  138.7990   73.1020  220.1660 C   0  0  0  0  0  0  0  0  0  0  0  0
  139.3210   73.1230  222.5980 N   0  0  0  0  0  0  0  0  0  0  0  0
  140.5100   72.3860  222.7560 C   0  0  2  0  0  0  0  0  0  0  0  0
  140.8600   71.4700  221.5980 C   0  0  0  0  0  0  0  0  0  0  0  0
  140.3740   71.4740  223.9540 C   0  0  0  0  0  0  0  0  0  0  0  0
  139.9300   70.1750  223.8270 C   0  0  0  0  0  0  0  0  0  0  0  0
  139.7970   69.3360  224.9180 C   0  0  0  0  0  0  0  0  0  0  0  0
  140.1070   69.7720  226.1850 C   0  0  0  0  0  0  0  0  0  0  0  0
  139.9540   68.7550  227.5850 Cl  0  0  0  0  0  0  0  0  0  0  0  0
  140.5550   71.0720  226.3410 C   0  0  0  0  0  0  0  0  0  0  0  0
  140.9590   71.6580  227.9490 Cl  0  0  0  0  0  0  0  0  0  0  0  0
  140.6820   71.9050  225.2260 C   0  0  0  0  0  0  0  0  0  0  0  0
  141.3720   74.4590  220.7640 N   0  0  0  0  0  0  0  0  0  0  0  0
  144.2301   74.3499  221.0003 H   0  0  0  0  0  0  0  0  0  0  0  0
  143.4922   73.7110  219.4923 H   0  0  0  0  0  0  0  0  0  0  0  0
  144.2815   75.3246  219.4923 H   0  0  0  0  0  0  0  0  0  0  0  0
  143.0105   77.3022  220.2234 H   0  0  0  0  0  0  0  0  0  0  0  0
  140.7923   78.1902  220.8541 H   0  0  0  0  0  0  0  0  0  0  0  0
  138.7213   77.7982  221.9131 H   0  0  0  0  0  0  0  0  0  0  0  0
  137.9649   76.7050  220.6214 H   0  0  0  0  0  0  0  0  0  0  0  0
  138.2290   75.1690  222.9610 H   0  0  0  0  0  0  0  0  0  0  0  0
  136.1344   76.1116  224.9684 H   0  0  0  0  0  0  0  0  0  0  0  0
  134.7641   75.8800  223.7825 H   0  0  0  0  0  0  0  0  0  0  0  0
  136.3710   73.8530  224.8280 H   0  0  0  0  0  0  0  0  0  0  0  0
  135.2437   71.8040  224.7017 H   0  0  0  0  0  0  0  0  0  0  0  0
  135.7835   69.3624  224.8701 H   0  0  0  0  0  0  0  0  0  0  0  0
  136.9425   67.4102  223.8402 H   0  0  0  0  0  0  0  0  0  0  0  0
  139.1187   67.9154  220.1717 H   0  0  0  0  0  0  0  0  0  0  0  0
  138.5048   70.3405  220.1278 H   0  0  0  0  0  0  0  0  0  0  0  0
  138.1577   74.3790  221.7392 H   0  0  0  0  0  0  0  0  0  0  0  0
  138.4263   72.0996  220.4234 H   0  0  0  0  0  0  0  0  0  0  0  0
  138.0391   73.6354  219.5760 H   0  0  0  0  0  0  0  0  0  0  0  0
  139.7228   73.0094  219.5760 H   0  0  0  0  0  0  0  0  0  0  0  0
  138.5260   72.6830  223.0560 H   0  0  0  0  0  0  0  0  0  0  0  0
  141.2964   73.1495  222.8486 H   0  0  0  0  0  0  0  0  0  0  0  0
  141.2271   70.5093  221.9884 H   0  0  0  0  0  0  0  0  0  0  0  0
  139.9643   71.2977  220.9831 H   0  0  0  0  0  0  0  0  0  0  0  0
  141.6423   71.9389  220.9831 H   0  0  0  0  0  0  0  0  0  0  0  0
  139.6737   69.7944  222.8273 H   0  0  0  0  0  0  0  0  0  0  0  0
  139.4386   68.3065  224.7707 H   0  0  0  0  0  0  0  0  0  0  0  0
  141.0386   72.9358  225.3682 H   0  0  0  0  0  0  0  0  0  0  0  0
  1  2  1  0
  2  3  2  0
  3  4  1  0
  4  5  2  0
  5  6  1  0
  6  7  1  0
  7  8  1  0
  8  9  2  0
  8 10  1  0
 10 11  1  0
 11 12  1  0
 12 13  2  0
 12 14  1  0
 14 15  2  0
 15 16  1  0
 16 17  2  0
 17 18  1  0
 18 19  2  0
 19 20  1  0
 19 21  1  0
 21 22  2  0
 22 23  1  0
 23 24  2  0
  5 25  1  0
 25 26  1  0
 26 27  1  0
 26 28  1  0
 28 29  1  0
 29 30  1  0
 29 31  1  0
 31 32  2  0
 32 33  1  0
 33 34  2  0
 34 35  1  0
 34 36  1  0
 36 37  1  0
 36 38  2  0
 25 39  2  0
 39  2  1  0
 24 14  1  0
 38 31  1  0
 23 17  1  0
  1 40  1  0
  1 41  1  0
  1 42  1  0
  3 43  1  0
  4 44  1  0
  6 45  1  0
  6 46  1  0
  7 47  1  0
 10 48  1  0
 10 49  1  0
 11 50  1  0
 15 51  1  0
 16 52  1  0
 18 53  1  0
 21 54  1  0
 22 55  1  0
 26 56  1  1
 27 57  1  0
 27 58  1  0
 27 59  1  0
 28 60  1  0
 29 61  1  1
 30 62  1  0
 30 63  1  0
 30 64  1  0
 32 65  1  0
 33 66  1  0
 38 67  1  0
M  END
>  <smiles>  (10) 
Cc1ccc(CNC(=O)CNC(=O)c2ccc3cc(F)ccc3n2)c([C@@H](C)NC(C)c2ccc(Cl)c(Cl)c2)n1

>  <score_type>  (10) 
oracle

>  <origin>  (10) 
autodockgpu

>  <m_score__min__energy>  (10) 
-9.9499999999999993

>  <m_primary>  (10) 
energy

>  <meeko>  (10) 
{"free_energy": -7.72, "intermolecular_energy": -10.41, "internal_energy": -4.65, "cluster_size": 1, "cluster_id": 9, "rank_in_cluster": 1}

>  <energy>  (10) 
-8.43

>  <cluster_rmsd>  (10) 
1.5

>  <rmsd>  (10) 
270.09

>  <cluster>  (10) 
5

$$$$

     RDKit          3D

 67 70  0  0  1  0  0  0  0  0999 V2000
  142.6160   80.8100  217.8470 C   0  0  0  0  0  0  0  0  0  0  0  0
  142.2210   79.7450  218.8070 C   0  0  0  0  0  0  0  0  0  0  0  0
  142.0970   78.4180  218.4580 C   0  0  0  0  0  0  0  0  0  0  0  0
  141.7250   77.5080  219.4230 C   0  0  0  0  0  0  0  0  0  0  0  0
  141.4720   77.8920  220.7460 C   0  0  0  0  0  0  0  0  0  0  0  0
  141.0740   76.9210  221.7640 C   0  0  0  0  0  0  0  0  0  0  0  0
  140.7090   75.6240  221.3080 N   0  0  0  0  0  0  0  0  0  0  0  0
  141.7260   74.7420  220.8530 C   0  0  0  0  0  0  0  0  0  0  0  0
  142.9440   75.0250  220.8210 O   0  0  0  0  0  0  0  0  0  0  0  0
  141.3130   73.3790  220.3780 C   0  0  0  0  0  0  0  0  0  0  0  0
  141.1120   72.4450  221.4370 N   0  0  0  0  0  0  0  0  0  0  0  0
  140.2300   72.6210  222.5350 C   0  0  0  0  0  0  0  0  0  0  0  0
  139.5520   73.6740  222.6160 O   0  0  0  0  0  0  0  0  0  0  0  0
  140.1390   71.5520  223.5520 C   0  0  0  0  0  0  0  0  0  0  0  0
  139.5940   70.3200  223.2710 C   0  0  0  0  0  0  0  0  0  0  0  0
  139.5070   69.3160  224.2430 C   0  0  0  0  0  0  0  0  0  0  0  0
  139.9970   69.6090  225.5170 C   0  0  0  0  0  0  0  0  0  0  0  0
  139.9620   68.6960  226.5480 C   0  0  0  0  0  0  0  0  0  0  0  0
  140.4620   69.0280  227.8080 C   0  0  0  0  0  0  0  0  0  0  0  0
  140.4440   68.1570  228.8460 F   0  0  0  0  0  0  0  0  0  0  0  0
  140.9940   70.2730  228.0290 C   0  0  0  0  0  0  0  0  0  0  0  0
  141.0440   71.2150  227.0120 C   0  0  0  0  0  0  0  0  0  0  0  0
  140.5370   70.8460  225.7760 C   0  0  0  0  0  0  0  0  0  0  0  0
  140.6000   71.7850  224.8080 N   0  0  0  0  0  0  0  0  0  0  0  0
  141.6140   79.2530  221.0460 C   0  0  0  0  0  0  0  0  0  0  0  0
  141.3790   79.7790  222.4200 C   0  0  1  0  0  0  0  0  0  0  0  0
  142.7260   79.8860  223.0970 C   0  0  0  0  0  0  0  0  0  0  0  0
  140.5430   80.9070  222.4830 N   0  0  0  0  0  0  0  0  0  0  0  0
  139.1670   80.7730  222.7530 C   0  0  2  0  0  0  0  0  0  0  0  0
  138.8190   80.4820  224.2010 C   0  0  0  0  0  0  0  0  0  0  0  0
  138.6210   79.5990  221.9720 C   0  0  0  0  0  0  0  0  0  0  0  0
  138.4810   79.6450  220.6020 C   0  0  0  0  0  0  0  0  0  0  0  0
  137.9760   78.5780  219.8800 C   0  0  0  0  0  0  0  0  0  0  0  0
  137.5920   77.4190  220.5110 C   0  0  0  0  0  0  0  0  0  0  0  0
  136.9520   76.0550  219.6470 Cl  0  0  0  0  0  0  0  0  0  0  0  0
  137.7210   77.3460  221.8870 C   0  0  0  0  0  0  0  0  0  0  0  0
  137.2370   75.8760  222.7220 Cl  0  0  0  0  0  0  0  0  0  0  0  0
  138.2330   78.4340  222.5990 C   0  0  0  0  0  0  0  0  0  0  0  0
  141.9780   80.0940  220.0620 N   0  0  0  0  0  0  0  0  0  0  0  0
  142.9462   81.7002  218.4024 H   0  0  0  0  0  0  0  0  0  0  0  0
  143.4391   80.4464  217.2143 H   0  0  0  0  0  0  0  0  0  0  0  0
  141.7549   81.0711  217.2143 H   0  0  0  0  0  0  0  0  0  0  0  0
  142.2918   78.0906  217.4261 H   0  0  0  0  0  0  0  0  0  0  0  0
  141.6236   76.4482  219.1463 H   0  0  0  0  0  0  0  0  0  0  0  0
  141.9182   76.8035  222.4593 H   0  0  0  0  0  0  0  0  0  0  0  0
  140.1594   77.3351  222.2134 H   0  0  0  0  0  0  0  0  0  0  0  0
  139.7090   75.2920  221.2940 H   0  0  0  0  0  0  0  0  0  0  0  0
  140.3724   73.4762  219.8161 H   0  0  0  0  0  0  0  0  0  0  0  0
  142.1324   72.9910  219.7551 H   0  0  0  0  0  0  0  0  0  0  0  0
  141.6660   71.5370  221.4060 H   0  0  0  0  0  0  0  0  0  0  0  0
  139.2172   70.1190  222.2573 H   0  0  0  0  0  0  0  0  0  0  0  0
  139.0692   68.3337  224.0116 H   0  0  0  0  0  0  0  0  0  0  0  0
  139.5362   67.6964  226.3766 H   0  0  0  0  0  0  0  0  0  0  0  0
  141.3857   70.5274  229.0249 H   0  0  0  0  0  0  0  0  0  0  0  0
  141.4693   72.2155  227.1799 H   0  0  0  0  0  0  0  0  0  0  0  0
  140.7647   79.0752  223.0008 H   0  0  0  0  0  0  0  0  0  0  0  0
  142.5897   79.8752  224.1885 H   0  0  0  0  0  0  0  0  0  0  0  0
  143.3555   79.0350  222.7976 H   0  0  0  0  0  0  0  0  0  0  0  0
  143.2132   80.8257  222.7976 H   0  0  0  0  0  0  0  0  0  0  0  0
  140.7440   81.6920  221.8680 H   0  0  0  0  0  0  0  0  0  0  0  0
  138.7359   81.7471  222.4785 H   0  0  0  0  0  0  0  0  0  0  0  0
  139.4941   81.0465  224.8609 H   0  0  0  0  0  0  0  0  0  0  0  0
  137.7792   80.7833  224.3959 H   0  0  0  0  0  0  0  0  0  0  0  0
  138.9314   79.4053  224.3959 H   0  0  0  0  0  0  0  0  0  0  0  0
  138.7798   80.5578  220.0659 H   0  0  0  0  0  0  0  0  0  0  0  0
  137.8807   78.6585  218.7871 H   0  0  0  0  0  0  0  0  0  0  0  0
  138.3293   78.3587  223.6922 H   0  0  0  0  0  0  0  0  0  0  0  0
  1  2  1  0
  2  3  2  0
  3  4  1  0
  4  5  2  0
  5  6  1  0
  6  7  1  0
  7  8  1  0
  8  9  2  0
  8 10  1  0
 10 11  1  0
 11 12  1  0
 12 13  2  0
 12 14  1  0
 14 15  2  0
 15 16  1  0
 16 17  2  0
 17 18  1  0
 18 19  2  0
 19 20  1  0
 19 21  1  0
 21 22  2  0
 22 23  1  0
 23 24  2  0
  5 25  1  0
 25 26  1  0
 26 27  1  0
 26 28  1  0
 28 29  1  0
 29 30  1  0
 29 31  1  0
 31 32  2  0
 32 33  1  0
 33 34  2  0
 34 35  1  0
 34 36  1  0
 36 37  1  0
 36 38  2  0
 25 39  2  0
 39  2  1  0
 24 14  1  0
 38 31  1  0
 23 17  1  0
  1 40  1  0
  1 41  1  0
  1 42  1  0
  3 43  1  0
  4 44  1  0
  6 45  1  0
  6 46  1  0
  7 47  1  0
 10 48  1  0
 10 49  1  0
 11 50  1  0
 15 51  1  0
 16 52  1  0
 18 53  1  0
 21 54  1  0
 22 55  1  0
 26 56  1  1
 27 57  1  0
 27 58  1  0
 27 59  1  0
 28 60  1  0
 29 61  1  6
 30 62  1  0
 30 63  1  0
 30 64  1  0
 32 65  1  0
 33 66  1  0
 38 67  1  0
M  END
>  <smiles>  (11) 
Cc1ccc(CNC(=O)CNC(=O)c2ccc3cc(F)ccc3n2)c([C@@H](C)NC(C)c2ccc(Cl)c(Cl)c2)n1

>  <score_type>  (11) 
oracle

>  <origin>  (11) 
autodockgpu

>  <m_score__min__energy>  (11) 
-9.9499999999999993

>  <m_primary>  (11) 
energy

>  <meeko>  (11) 
{"free_energy": -8.6, "intermolecular_energy": -11.29, "internal_energy": -3.83, "cluster_size": 3, "cluster_id": 6, "rank_in_cluster": 1}

>  <energy>  (11) 
-8.3

>  <cluster_rmsd>  (11) 
1.6

>  <rmsd>  (11) 
270.19

>  <cluster>  (11) 
5

$$$$

     RDKit          3D

 67 70  0  0  1  0  0  0  0  0999 V2000
  146.5060   73.7470  221.2980 C   0  0  0  0  0  0  0  0  0  0  0  0
  145.1750   73.6320  220.6470 C   0  0  0  0  0  0  0  0  0  0  0  0
  144.6370   72.4350  220.2260 C   0  0  0  0  0  0  0  0  0  0  0  0
  143.3930   72.4350  219.6340 C   0  0  0  0  0  0  0  0  0  0  0  0
  142.6610   73.6140  219.4490 C   0  0  0  0  0  0  0  0  0  0  0  0
  141.3430   73.6070  218.8160 C   0  0  0  0  0  0  0  0  0  0  0  0
  140.2140   73.5550  219.6810 N   0  0  0  0  0  0  0  0  0  0  0  0
  139.1720   72.6330  219.3990 C   0  0  0  0  0  0  0  0  0  0  0  0
  139.1690   71.8460  218.4260 O   0  0  0  0  0  0  0  0  0  0  0  0
  137.9940   72.5970  220.3280 C   0  0  0  0  0  0  0  0  0  0  0  0
  138.2090   71.7960  221.4880 N   0  0  0  0  0  0  0  0  0  0  0  0
  139.1890   72.0360  222.4860 C   0  0  0  0  0  0  0  0  0  0  0  0
  139.9500   73.0280  222.3740 O   0  0  0  0  0  0  0  0  0  0  0  0
  139.2820   71.1040  223.6300 C   0  0  0  0  0  0  0  0  0  0  0  0
  138.6750   69.8690  223.6180 C   0  0  0  0  0  0  0  0  0  0  0  0
  138.7640   68.9960  224.7090 C   0  0  0  0  0  0  0  0  0  0  0  0
  139.4960   69.4240  225.8180 C   0  0  0  0  0  0  0  0  0  0  0  0
  139.6480   68.6460  226.9450 C   0  0  0  0  0  0  0  0  0  0  0  0
  140.3880   69.1110  228.0340 C   0  0  0  0  0  0  0  0  0  0  0  0
  140.5590   68.3750  229.1590 F   0  0  0  0  0  0  0  0  0  0  0  0
  140.9700   70.3520  227.9880 C   0  0  0  0  0  0  0  0  0  0  0  0
  140.8350   71.1590  226.8680 C   0  0  0  0  0  0  0  0  0  0  0  0
  140.0940   70.6620  225.8090 C   0  0  0  0  0  0  0  0  0  0  0  0
  139.9810   71.4710  224.7350 N   0  0  0  0  0  0  0  0  0  0  0  0
  143.2540   74.8020  219.8950 C   0  0  0  0  0  0  0  0  0  0  0  0
  142.5670   76.1170  219.7600 C   0  0  1  0  0  0  0  0  0  0  0  0
  142.8680   76.6410  218.3740 C   0  0  0  0  0  0  0  0  0  0  0  0
  141.2220   76.1240  220.1650 N   0  0  0  0  0  0  0  0  0  0  0  0
  140.8780   76.1320  221.5300 C   0  0  2  0  0  0  0  0  0  0  0  0
  139.4120   75.8830  221.8290 C   0  0  0  0  0  0  0  0  0  0  0  0
  141.1730   77.4980  222.1080 C   0  0  0  0  0  0  0  0  0  0  0  0
  141.4310   77.6750  223.4500 C   0  0  0  0  0  0  0  0  0  0  0  0
  141.6950   78.9210  223.9880 C   0  0  0  0  0  0  0  0  0  0  0  0
  141.7110   80.0430  223.1930 C   0  0  0  0  0  0  0  0  0  0  0  0
  142.0360   81.6280  223.8230 Cl  0  0  0  0  0  0  0  0  0  0  0  0
  141.4550   79.8940  221.8410 C   0  0  0  0  0  0  0  0  0  0  0  0
  141.4670   81.3110  220.8000 Cl  0  0  0  0  0  0  0  0  0  0  0  0
  141.1890   78.6260  221.3170 C   0  0  0  0  0  0  0  0  0  0  0  0
  144.4700   74.7400  220.4650 N   0  0  0  0  0  0  0  0  0  0  0  0
  146.3818   73.7363  222.3909 H   0  0  0  0  0  0  0  0  0  0  0  0
  147.1380   72.9001  220.9925 H   0  0  0  0  0  0  0  0  0  0  0  0
  146.9834   74.6897  220.9925 H   0  0  0  0  0  0  0  0  0  0  0  0
  145.1919   71.4948  220.3605 H   0  0  0  0  0  0  0  0  0  0  0  0
  142.9622   71.4807  219.2968 H   0  0  0  0  0  0  0  0  0  0  0  0
  141.2585   74.5237  218.2139 H   0  0  0  0  0  0  0  0  0  0  0  0
  141.3064   72.6707  218.2397 H   0  0  0  0  0  0  0  0  0  0  0  0
  140.1230   74.1790  220.5260 H   0  0  0  0  0  0  0  0  0  0  0  0
  137.7735   73.6252  220.6508 H   0  0  0  0  0  0  0  0  0  0  0  0
  137.1581   72.1457  219.7734 H   0  0  0  0  0  0  0  0  0  0  0  0
  137.5840   70.9450  221.6230 H   0  0  0  0  0  0  0  0  0  0  0  0
  138.1056   69.5600  222.7290 H   0  0  0  0  0  0  0  0  0  0  0  0
  138.2758   68.0104  224.6929 H   0  0  0  0  0  0  0  0  0  0  0  0
  139.1825   67.6503  226.9872 H   0  0  0  0  0  0  0  0  0  0  0  0
  141.5510   70.7118  228.8500 H   0  0  0  0  0  0  0  0  0  0  0  0
  141.2987   72.1554  226.8227 H   0  0  0  0  0  0  0  0  0  0  0  0
  142.9697   76.8364  220.4883 H   0  0  0  0  0  0  0  0  0  0  0  0
  143.4145   77.5924  218.4524 H   0  0  0  0  0  0  0  0  0  0  0  0
  143.4830   75.9085  217.8306 H   0  0  0  0  0  0  0  0  0  0  0  0
  141.9254   76.8033  217.8306 H   0  0  0  0  0  0  0  0  0  0  0  0
  140.5450   75.6210  219.5960 H   0  0  0  0  0  0  0  0  0  0  0  0
  141.4673   75.3121  221.9664 H   0  0  0  0  0  0  0  0  0  0  0  0
  139.2592   75.8570  222.9180 H   0  0  0  0  0  0  0  0  0  0  0  0
  138.8064   76.6912  221.3929 H   0  0  0  0  0  0  0  0  0  0  0  0
  139.1072   74.9202  221.3929 H   0  0  0  0  0  0  0  0  0  0  0  0
  141.4268   76.7979  224.1138 H   0  0  0  0  0  0  0  0  0  0  0  0
  141.8948   79.0160  225.0655 H   0  0  0  0  0  0  0  0  0  0  0  0
  140.9863   78.5255  220.2405 H   0  0  0  0  0  0  0  0  0  0  0  0
  1  2  1  0
  2  3  2  0
  3  4  1  0
  4  5  2  0
  5  6  1  0
  6  7  1  0
  7  8  1  0
  8  9  2  0
  8 10  1  0
 10 11  1  0
 11 12  1  0
 12 13  2  0
 12 14  1  0
 14 15  2  0
 15 16  1  0
 16 17  2  0
 17 18  1  0
 18 19  2  0
 19 20  1  0
 19 21  1  0
 21 22  2  0
 22 23  1  0
 23 24  2  0
  5 25  1  0
 25 26  1  0
 26 27  1  0
 26 28  1  0
 28 29  1  0
 29 30  1  0
 29 31  1  0
 31 32  2  0
 32 33  1  0
 33 34  2  0
 34 35  1  0
 34 36  1  0
 36 37  1  0
 36 38  2  0
 25 39  2  0
 39  2  1  0
 24 14  1  0
 38 31  1  0
 23 17  1  0
  1 40  1  0
  1 41  1  0
  1 42  1  0
  3 43  1  0
  4 44  1  0
  6 45  1  0
  6 46  1  0
  7 47  1  0
 10 48  1  0
 10 49  1  0
 11 50  1  0
 15 51  1  0
 16 52  1  0
 18 53  1  0
 21 54  1  0
 22 55  1  0
 26 56  1  1
 27 57  1  0
 27 58  1  0
 27 59  1  0
 28 60  1  0
 29 61  1  1
 30 62  1  0
 30 63  1  0
 30 64  1  0
 32 65  1  0
 33 66  1  0
 38 67  1  0
M  END
>  <smiles>  (12) 
Cc1ccc(CNC(=O)CNC(=O)c2ccc3cc(F)ccc3n2)c([C@@H](C)NC(C)c2ccc(Cl)c(Cl)c2)n1

>  <score_type>  (12) 
oracle

>  <origin>  (12) 
autodockgpu

>  <m_score__min__energy>  (12) 
-9.9499999999999993

>  <m_primary>  (12) 
energy

>  <meeko>  (12) 
{"free_energy": -9.89, "intermolecular_energy": -12.58, "internal_energy": -3.34, "cluster_size": 3, "cluster_id": 1, "rank_in_cluster": 2}

>  <energy>  (12) 
-8.6

>  <cluster_rmsd>  (12) 
0.0

>  <rmsd>  (12) 
269.86

>  <cluster>  (12) 
6

$$$$

     RDKit          3D

 67 70  0  0  1  0  0  0  0  0999 V2000
  137.7240   80.6770  221.9880 C   0  0  0  0  0  0  0  0  0  0  0  0
  138.2060   79.2740  221.8910 C   0  0  0  0  0  0  0  0  0  0  0  0
  138.2730   78.4190  222.9700 C   0  0  0  0  0  0  0  0  0  0  0  0
  138.7350   77.1360  222.7750 C   0  0  0  0  0  0  0  0  0  0  0  0
  139.1340   76.6760  221.5150 C   0  0  0  0  0  0  0  0  0  0  0  0
  139.6270   75.3130  221.3160 C   0  0  0  0  0  0  0  0  0  0  0  0
  138.8440   74.2600  221.8670 N   0  0  0  0  0  0  0  0  0  0  0  0
  137.7360   73.7670  221.1290 C   0  0  0  0  0  0  0  0  0  0  0  0
  137.3870   74.1960  220.0070 O   0  0  0  0  0  0  0  0  0  0  0  0
  136.9280   72.6540  221.7320 C   0  0  0  0  0  0  0  0  0  0  0  0
  137.6170   71.9440  222.7590 N   0  0  0  0  0  0  0  0  0  0  0  0
  137.6770   70.5320  222.8880 C   0  0  0  0  0  0  0  0  0  0  0  0
  137.0870   69.8130  222.0470 O   0  0  0  0  0  0  0  0  0  0  0  0
  138.4380   69.9530  224.0160 C   0  0  0  0  0  0  0  0  0  0  0  0
  138.5400   68.5940  224.2080 C   0  0  0  0  0  0  0  0  0  0  0  0
  139.2570   68.0560  225.2830 C   0  0  0  0  0  0  0  0  0  0  0  0
  139.8720   68.9520  226.1600 C   0  0  0  0  0  0  0  0  0  0  0  0
  140.6030   68.5320  227.2500 C   0  0  0  0  0  0  0  0  0  0  0  0
  141.2020   69.4590  228.1030 C   0  0  0  0  0  0  0  0  0  0  0  0
  141.9270   69.0840  229.1850 F   0  0  0  0  0  0  0  0  0  0  0  0
  141.0650   70.8020  227.8610 C   0  0  0  0  0  0  0  0  0  0  0  0
  140.3360   71.2570  226.7720 C   0  0  0  0  0  0  0  0  0  0  0  0
  139.7570   70.3050  225.9490 C   0  0  0  0  0  0  0  0  0  0  0  0
  139.0540   70.7800  224.8990 N   0  0  0  0  0  0  0  0  0  0  0  0
  139.0450   77.5860  220.4530 C   0  0  0  0  0  0  0  0  0  0  0  0
  139.4340   77.2080  219.0660 C   0  0  1  0  0  0  0  0  0  0  0  0
  138.1770   76.7710  218.3490 C   0  0  0  0  0  0  0  0  0  0  0  0
  140.2500   78.1450  218.4070 N   0  0  0  0  0  0  0  0  0  0  0  0
  141.6050   78.2950  218.7580 C   0  0  2  0  0  0  0  0  0  0  0  0
  142.3360   77.0050  219.0800 C   0  0  0  0  0  0  0  0  0  0  0  0
  141.7020   79.1280  220.0160 C   0  0  0  0  0  0  0  0  0  0  0  0
  141.7850   80.5040  219.9680 C   0  0  0  0  0  0  0  0  0  0  0  0
  141.8790   81.2730  221.1130 C   0  0  0  0  0  0  0  0  0  0  0  0
  141.8950   80.6870  222.3570 C   0  0  0  0  0  0  0  0  0  0  0  0
  142.0150   81.6120  223.8220 Cl  0  0  0  0  0  0  0  0  0  0  0  0
  141.8140   79.3080  222.4350 C   0  0  0  0  0  0  0  0  0  0  0  0
  141.8330   78.5300  224.0110 Cl  0  0  0  0  0  0  0  0  0  0  0  0
  141.7190   78.5480  221.2660 C   0  0  0  0  0  0  0  0  0  0  0  0
  138.5880   78.8250  220.7040 N   0  0  0  0  0  0  0  0  0  0  0  0
  137.6271   80.9590  223.0468 H   0  0  0  0  0  0  0  0  0  0  0  0
  138.4435   81.3469  221.4945 H   0  0  0  0  0  0  0  0  0  0  0  0
  136.7447   80.7632  221.4945 H   0  0  0  0  0  0  0  0  0  0  0  0
  137.9627   78.7556  223.9702 H   0  0  0  0  0  0  0  0  0  0  0  0
  138.7920   76.4528  223.6352 H   0  0  0  0  0  0  0  0  0  0  0  0
  139.7005   75.1408  220.2321 H   0  0  0  0  0  0  0  0  0  0  0  0
  140.5847   75.2719  221.8556 H   0  0  0  0  0  0  0  0  0  0  0  0
  139.0570   73.8320  222.8070 H   0  0  0  0  0  0  0  0  0  0  0  0
  136.0100   73.0825  222.1604 H   0  0  0  0  0  0  0  0  0  0  0  0
  136.7159   71.9348  220.9272 H   0  0  0  0  0  0  0  0  0  0  0  0
  138.1340   72.5170  223.4930 H   0  0  0  0  0  0  0  0  0  0  0  0
  138.0457   67.9136  223.4989 H   0  0  0  0  0  0  0  0  0  0  0  0
  139.3332   66.9687  225.4314 H   0  0  0  0  0  0  0  0  0  0  0  0
  140.7152   67.4560  227.4492 H   0  0  0  0  0  0  0  0  0  0  0  0
  141.5390   71.5273  228.5387 H   0  0  0  0  0  0  0  0  0  0  0  0
  140.2221   72.3322  226.5698 H   0  0  0  0  0  0  0  0  0  0  0  0
  140.1275   76.3543  219.0816 H   0  0  0  0  0  0  0  0  0  0  0  0
  137.4075   76.5035  219.0881 H   0  0  0  0  0  0  0  0  0  0  0  0
  137.8095   77.5941  217.7186 H   0  0  0  0  0  0  0  0  0  0  0  0
  138.3993   75.8974  217.7186 H   0  0  0  0  0  0  0  0  0  0  0  0
  139.8290   79.0170  218.0970 H   0  0  0  0  0  0  0  0  0  0  0  0
  142.0702   78.7482  217.8702 H   0  0  0  0  0  0  0  0  0  0  0  0
  142.4041   76.8847  220.1713 H   0  0  0  0  0  0  0  0  0  0  0  0
  141.7855   76.1547  218.6511 H   0  0  0  0  0  0  0  0  0  0  0  0
  143.3483   77.0403  218.6511 H   0  0  0  0  0  0  0  0  0  0  0  0
  141.7761   81.0048  218.9887 H   0  0  0  0  0  0  0  0  0  0  0  0
  141.9418   82.3679  221.0279 H   0  0  0  0  0  0  0  0  0  0  0  0
  141.6558   77.4527  221.3461 H   0  0  0  0  0  0  0  0  0  0  0  0
  1  2  1  0
  2  3  2  0
  3  4  1  0
  4  5  2  0
  5  6  1  0
  6  7  1  0
  7  8  1  0
  8  9  2  0
  8 10  1  0
 10 11  1  0
 11 12  1  0
 12 13  2  0
 12 14  1  0
 14 15  2  0
 15 16  1  0
 16 17  2  0
 17 18  1  0
 18 19  2  0
 19 20  1  0
 19 21  1  0
 21 22  2  0
 22 23  1  0
 23 24  2  0
  5 25  1  0
 25 26  1  0
 26 27  1  0
 26 28  1  0
 28 29  1  0
 29 30  1  0
 29 31  1  0
 31 32  2  0
 32 33  1  0
 33 34  2  0
 34 35  1  0
 34 36  1  0
 36 37  1  0
 36 38  2  0
 25 39  2  0
 39  2  1  0
 24 14  1  0
 38 31  1  0
 23 17  1  0
  1 40  1  0
  1 41  1  0
  1 42  1  0
  3 43  1  0
  4 44  1  0
  6 45  1  0
  6 46  1  0
  7 47  1  0
 10 48  1  0
 10 49  1  0
 11 50  1  0
 15 51  1  0
 16 52  1  0
 18 53  1  0
 21 54  1  0
 22 55  1  0
 26 56  1  1
 27 57  1  0
 27 58  1  0
 27 59  1  0
 28 60  1  0
 29 61  1  6
 30 62  1  0
 30 63  1  0
 30 64  1  0
 32 65  1  0
 33 66  1  0
 38 67  1  0
M  END
>  <smiles>  (13) 
Cc1ccc(CNC(=O)CNC(=O)c2ccc3cc(F)ccc3n2)c([C@@H](C)NC(C)c2ccc(Cl)c(Cl)c2)n1

>  <score_type>  (13) 
oracle

>  <origin>  (13) 
autodockgpu

>  <m_score__min__energy>  (13) 
-9.9499999999999993

>  <m_primary>  (13) 
energy

>  <meeko>  (13) 
{"free_energy": -8.48, "intermolecular_energy": -11.16, "internal_energy": -3.3, "cluster_size": 1, "cluster_id": 8, "rank_in_cluster": 1}

>  <energy>  (13) 
-8.59

>  <cluster_rmsd>  (13) 
1.62

>  <rmsd>  (13) 
269.81

>  <cluster>  (13) 
6

$$$$

     RDKit          3D

 67 70  0  0  1  0  0  0  0  0999 V2000
  146.4330   73.7690  220.9500 C   0  0  0  0  0  0  0  0  0  0  0  0
  145.1020   73.4900  220.3490 C   0  0  0  0  0  0  0  0  0  0  0  0
  144.8230   72.3580  219.6150 C   0  0  0  0  0  0  0  0  0  0  0  0
  143.5560   72.1920  219.1000 C   0  0  0  0  0  0  0  0  0  0  0  0
  142.5450   73.1390  219.3030 C   0  0  0  0  0  0  0  0  0  0  0  0
  141.2030   72.9590  218.7510 C   0  0  0  0  0  0  0  0  0  0  0  0
  140.1830   72.5590  219.6580 N   0  0  0  0  0  0  0  0  0  0  0  0
  139.1230   73.4590  219.9450 C   0  0  0  0  0  0  0  0  0  0  0  0
  139.0160   74.6040  219.4510 O   0  0  0  0  0  0  0  0  0  0  0  0
  138.0590   73.0110  220.9050 C   0  0  0  0  0  0  0  0  0  0  0  0
  138.5760   72.5570  222.1540 N   0  0  0  0  0  0  0  0  0  0  0  0
  139.1490   71.2810  222.3950 C   0  0  0  0  0  0  0  0  0  0  0  0
  139.2250   70.4540  221.4540 O   0  0  0  0  0  0  0  0  0  0  0  0
  139.6390   70.9670  223.7530 C   0  0  0  0  0  0  0  0  0  0  0  0
  140.3220   71.8880  224.5160 C   0  0  0  0  0  0  0  0  0  0  0  0
  140.7870   71.5790  225.7990 C   0  0  0  0  0  0  0  0  0  0  0  0
  140.5320   70.2950  226.2850 C   0  0  0  0  0  0  0  0  0  0  0  0
  140.9440   69.8850  227.5340 C   0  0  0  0  0  0  0  0  0  0  0  0
  140.6700   68.5920  227.9830 C   0  0  0  0  0  0  0  0  0  0  0  0
  141.0600   68.1520  229.2040 F   0  0  0  0  0  0  0  0  0  0  0  0
  139.9860   67.7170  227.1780 C   0  0  0  0  0  0  0  0  0  0  0  0
  139.5570   68.1000  225.9150 C   0  0  0  0  0  0  0  0  0  0  0  0
  139.8490   69.3910  225.5070 C   0  0  0  0  0  0  0  0  0  0  0  0
  139.4190   69.7320  224.2740 N   0  0  0  0  0  0  0  0  0  0  0  0
  142.8820   74.2710  220.0570 C   0  0  0  0  0  0  0  0  0  0  0  0
  141.8880   75.3430  220.3460 C   0  0  1  0  0  0  0  0  0  0  0  0
  141.2030   74.9820  221.6440 C   0  0  0  0  0  0  0  0  0  0  0  0
  142.3840   76.6520  220.2290 N   0  0  0  0  0  0  0  0  0  0  0  0
  141.9260   77.5100  219.2110 C   0  0  2  0  0  0  0  0  0  0  0  0
  142.8900   77.7150  218.0570 C   0  0  0  0  0  0  0  0  0  0  0  0
  141.7010   78.8890  219.7870 C   0  0  0  0  0  0  0  0  0  0  0  0
  141.4290   79.9750  218.9820 C   0  0  0  0  0  0  0  0  0  0  0  0
  141.2280   81.2410  219.5000 C   0  0  0  0  0  0  0  0  0  0  0  0
  141.2910   81.4660  220.8550 C   0  0  0  0  0  0  0  0  0  0  0  0
  141.0470   83.0380  221.5520 Cl  0  0  0  0  0  0  0  0  0  0  0  0
  141.5620   80.3940  221.6880 C   0  0  0  0  0  0  0  0  0  0  0  0
  141.6510   80.6520  223.4250 Cl  0  0  0  0  0  0  0  0  0  0  0  0
  141.7630   79.1220  221.1450 C   0  0  0  0  0  0  0  0  0  0  0  0
  144.1350   74.3780  220.5330 N   0  0  0  0  0  0  0  0  0  0  0  0
  146.3509   73.7518  222.0468 H   0  0  0  0  0  0  0  0  0  0  0  0
  147.1507   73.0018  220.6239 H   0  0  0  0  0  0  0  0  0  0  0  0
  146.7821   74.7598  220.6239 H   0  0  0  0  0  0  0  0  0  0  0  0
  145.5998   71.5985  219.4428 H   0  0  0  0  0  0  0  0  0  0  0  0
  143.3323   71.2894  218.5124 H   0  0  0  0  0  0  0  0  0  0  0  0
  140.8953   73.9168  218.3061 H   0  0  0  0  0  0  0  0  0  0  0  0
  141.2953   72.1267  218.0377 H   0  0  0  0  0  0  0  0  0  0  0  0
  140.1860   71.6150  220.1280 H   0  0  0  0  0  0  0  0  0  0  0  0
  137.3824   73.8572  221.0949 H   0  0  0  0  0  0  0  0  0  0  0  0
  137.5407   72.1595  220.4400 H   0  0  0  0  0  0  0  0  0  0  0  0
  138.5330   73.2280  222.9790 H   0  0  0  0  0  0  0  0  0  0  0  0
  140.5066   72.8920  224.1063 H   0  0  0  0  0  0  0  0  0  0  0  0
  141.3328   72.3196  226.4020 H   0  0  0  0  0  0  0  0  0  0  0  0
  141.4936   70.5826  228.1831 H   0  0  0  0  0  0  0  0  0  0  0  0
  139.7749   66.6992  227.5380 H   0  0  0  0  0  0  0  0  0  0  0  0
  139.0066   67.4054  225.2634 H   0  0  0  0  0  0  0  0  0  0  0  0
  141.1206   75.3787  219.5587 H   0  0  0  0  0  0  0  0  0  0  0  0
  141.8248   75.3097  222.4902 H   0  0  0  0  0  0  0  0  0  0  0  0
  140.2241   75.4814  221.6932 H   0  0  0  0  0  0  0  0  0  0  0  0
  141.0616   73.8922  221.6932 H   0  0  0  0  0  0  0  0  0  0  0  0
  143.3560   76.8240  220.4750 H   0  0  0  0  0  0  0  0  0  0  0  0
  141.0190   77.0204  218.8268 H   0  0  0  0  0  0  0  0  0  0  0  0
  143.8943   77.9286  218.4517 H   0  0  0  0  0  0  0  0  0  0  0  0
  142.9240   76.8040  217.4414 H   0  0  0  0  0  0  0  0  0  0  0  0
  142.5504   78.5610  217.4414 H   0  0  0  0  0  0  0  0  0  0  0  0
  141.3701   79.8295  217.8933 H   0  0  0  0  0  0  0  0  0  0  0  0
  141.0150   82.0787  218.8196 H   0  0  0  0  0  0  0  0  0  0  0  0
  141.9771   78.2812  221.8212 H   0  0  0  0  0  0  0  0  0  0  0  0
  1  2  1  0
  2  3  2  0
  3  4  1  0
  4  5  2  0
  5  6  1  0
  6  7  1  0
  7  8  1  0
  8  9  2  0
  8 10  1  0
 10 11  1  0
 11 12  1  0
 12 13  2  0
 12 14  1  0
 14 15  2  0
 15 16  1  0
 16 17  2  0
 17 18  1  0
 18 19  2  0
 19 20  1  0
 19 21  1  0
 21 22  2  0
 22 23  1  0
 23 24  2  0
  5 25  1  0
 25 26  1  0
 26 27  1  0
 26 28  1  0
 28 29  1  0
 29 30  1  0
 29 31  1  0
 31 32  2  0
 32 33  1  0
 33 34  2  0
 34 35  1  0
 34 36  1  0
 36 37  1  0
 36 38  2  0
 25 39  2  0
 39  2  1  0
 24 14  1  0
 38 31  1  0
 23 17  1  0
  1 40  1  0
  1 41  1  0
  1 42  1  0
  3 43  1  0
  4 44  1  0
  6 45  1  0
  6 46  1  0
  7 47  1  0
 10 48  1  0
 10 49  1  0
 11 50  1  0
 15 51  1  0
 16 52  1  0
 18 53  1  0
 21 54  1  0
 22 55  1  0
 26 56  1  6
 27 57  1  0
 27 58  1  0
 27 59  1  0
 28 60  1  0
 29 61  1  6
 30 62  1  0
 30 63  1  0
 30 64  1  0
 32 65  1  0
 33 66  1  0
 38 67  1  0
M  END
>  <smiles>  (14) 
Cc1ccc(CNC(=O)CNC(=O)c2ccc3cc(F)ccc3n2)c([C@@H](C)NC(C)c2ccc(Cl)c(Cl)c2)n1

>  <score_type>  (14) 
oracle

>  <origin>  (14) 
autodockgpu

>  <m_score__min__energy>  (14) 
-9.9499999999999993

>  <m_primary>  (14) 
energy

>  <meeko>  (14) 
{"free_energy": -9.54, "intermolecular_energy": -12.22, "internal_energy": -2.99, "cluster_size": 3, "cluster_id": 1, "rank_in_cluster": 3}

>  <energy>  (14) 
-7.22

>  <cluster_rmsd>  (14) 
1.64

>  <rmsd>  (14) 
269.15

>  <cluster>  (14) 
6

$$$$

     RDKit          3D

 67 70  0  0  1  0  0  0  0  0999 V2000
  137.5370   80.4210  219.4840 C   0  0  0  0  0  0  0  0  0  0  0  0
  138.1720   79.3170  220.2510 C   0  0  0  0  0  0  0  0  0  0  0  0
  137.4560   78.3210  220.8790 C   0  0  0  0  0  0  0  0  0  0  0  0
  138.1390   77.3400  221.5650 C   0  0  0  0  0  0  0  0  0  0  0  0
  139.5370   77.3270  221.6400 C   0  0  0  0  0  0  0  0  0  0  0  0
  140.2560   76.2850  222.3720 C   0  0  0  0  0  0  0  0  0  0  0  0
  140.0140   74.9390  221.9790 N   0  0  0  0  0  0  0  0  0  0  0  0
  141.0110   74.2470  221.2410 C   0  0  0  0  0  0  0  0  0  0  0  0
  142.1090   74.7410  220.9010 O   0  0  0  0  0  0  0  0  0  0  0  0
  140.7300   72.8280  220.8400 C   0  0  0  0  0  0  0  0  0  0  0  0
  140.6540   71.9300  221.9450 N   0  0  0  0  0  0  0  0  0  0  0  0
  139.5300   71.7630  222.7960 C   0  0  0  0  0  0  0  0  0  0  0  0
  138.4970   72.4450  222.5900 O   0  0  0  0  0  0  0  0  0  0  0  0
  139.6150   70.7860  223.9020 C   0  0  0  0  0  0  0  0  0  0  0  0
  139.0940   69.5170  223.7990 C   0  0  0  0  0  0  0  0  0  0  0  0
  139.1740   68.6010  224.8550 C   0  0  0  0  0  0  0  0  0  0  0  0
  139.8080   69.0220  226.0250 C   0  0  0  0  0  0  0  0  0  0  0  0
  139.9430   68.2030  227.1250 C   0  0  0  0  0  0  0  0  0  0  0  0
  140.5830   68.6620  228.2780 C   0  0  0  0  0  0  0  0  0  0  0  0
  140.7340   67.8870  229.3790 F   0  0  0  0  0  0  0  0  0  0  0  0
  141.0840   69.9380  228.3220 C   0  0  0  0  0  0  0  0  0  0  0  0
  140.9640   70.7870  227.2320 C   0  0  0  0  0  0  0  0  0  0  0  0
  140.3220   70.2940  226.1070 C   0  0  0  0  0  0  0  0  0  0  0  0
  140.2210   71.1440  225.0640 N   0  0  0  0  0  0  0  0  0  0  0  0
  140.2150   78.3620  220.9830 C   0  0  0  0  0  0  0  0  0  0  0  0
  141.7020   78.4480  220.9860 C   0  0  1  0  0  0  0  0  0  0  0  0
  142.1990   77.7040  219.7670 C   0  0  0  0  0  0  0  0  0  0  0  0
  142.2170   79.7390  221.1980 N   0  0  0  0  0  0  0  0  0  0  0  0
  142.0750   80.3770  222.4450 C   0  0  2  0  0  0  0  0  0  0  0  0
  142.1060   79.4550  223.6500 C   0  0  0  0  0  0  0  0  0  0  0  0
  140.7270   81.0580  222.5040 C   0  0  0  0  0  0  0  0  0  0  0  0
  140.4180   82.1230  221.6840 C   0  0  0  0  0  0  0  0  0  0  0  0
  139.1890   82.7550  221.7350 C   0  0  0  0  0  0  0  0  0  0  0  0
  138.2190   82.3390  222.6160 C   0  0  0  0  0  0  0  0  0  0  0  0
  136.6620   83.1030  222.7160 Cl  0  0  0  0  0  0  0  0  0  0  0  0
  138.5020   81.2730  223.4510 C   0  0  0  0  0  0  0  0  0  0  0  0
  137.2800   80.7200  224.5880 Cl  0  0  0  0  0  0  0  0  0  0  0  0
  139.7490   80.6470  223.3840 C   0  0  0  0  0  0  0  0  0  0  0  0
  139.4950   79.2910  220.3310 N   0  0  0  0  0  0  0  0  0  0  0  0
  137.1136   81.1571  220.1832 H   0  0  0  0  0  0  0  0  0  0  0  0
  138.2923   80.9092  218.8506 H   0  0  0  0  0  0  0  0  0  0  0  0
  136.7352   80.0136  218.8506 H   0  0  0  0  0  0  0  0  0  0  0  0
  136.3570   78.3091  220.8335 H   0  0  0  0  0  0  0  0  0  0  0  0
  137.5695   76.5445  222.0679 H   0  0  0  0  0  0  0  0  0  0  0  0
  141.3324   76.4776  222.2529 H   0  0  0  0  0  0  0  0  0  0  0  0
  139.8859   76.3531  223.4056 H   0  0  0  0  0  0  0  0  0  0  0  0
  139.1190   74.4350  222.2160 H   0  0  0  0  0  0  0  0  0  0  0  0
  139.7705   72.8013  220.3028 H   0  0  0  0  0  0  0  0  0  0  0  0
  141.5692   72.4970  220.2106 H   0  0  0  0  0  0  0  0  0  0  0  0
  141.5090   71.3310  222.1550 H   0  0  0  0  0  0  0  0  0  0  0  0
  138.6019   69.2141  222.8630 H   0  0  0  0  0  0  0  0  0  0  0  0
  138.7534   67.5885  224.7659 H   0  0  0  0  0  0  0  0  0  0  0  0
  139.5431   67.1787  227.0945 H   0  0  0  0  0  0  0  0  0  0  0  0
  141.5874   70.2925  229.2335 H   0  0  0  0  0  0  0  0  0  0  0  0
  141.3628   71.8118  227.2593 H   0  0  0  0  0  0  0  0  0  0  0  0
  142.1128   77.9491  221.8761 H   0  0  0  0  0  0  0  0  0  0  0  0
  142.7839   76.8284  220.0851 H   0  0  0  0  0  0  0  0  0  0  0  0
  141.3405   77.3723  219.1646 H   0  0  0  0  0  0  0  0  0  0  0  0
  142.8341   78.3701  219.1646 H   0  0  0  0  0  0  0  0  0  0  0  0
  142.2080   80.3950  220.4220 H   0  0  0  0  0  0  0  0  0  0  0  0
  142.9362   81.0588  222.5039 H   0  0  0  0  0  0  0  0  0  0  0  0
  142.0858   80.0552  224.5716 H   0  0  0  0  0  0  0  0  0  0  0  0
  141.2297   78.7905  223.6259 H   0  0  0  0  0  0  0  0  0  0  0  0
  143.0250   78.8509  223.6259 H   0  0  0  0  0  0  0  0  0  0  0  0
  141.1722   82.4807  220.9675 H   0  0  0  0  0  0  0  0  0  0  0  0
  138.9850   83.6011  221.0623 H   0  0  0  0  0  0  0  0  0  0  0  0
  139.9568   79.7999  224.0542 H   0  0  0  0  0  0  0  0  0  0  0  0
  1  2  1  0
  2  3  2  0
  3  4  1  0
  4  5  2  0
  5  6  1  0
  6  7  1  0
  7  8  1  0
  8  9  2  0
  8 10  1  0
 10 11  1  0
 11 12  1  0
 12 13  2  0
 12 14  1  0
 14 15  2  0
 15 16  1  0
 16 17  2  0
 17 18  1  0
 18 19  2  0
 19 20  1  0
 19 21  1  0
 21 22  2  0
 22 23  1  0
 23 24  2  0
  5 25  1  0
 25 26  1  0
 26 27  1  0
 26 28  1  0
 28 29  1  0
 29 30  1  0
 29 31  1  0
 31 32  2  0
 32 33  1  0
 33 34  2  0
 34 35  1  0
 34 36  1  0
 36 37  1  0
 36 38  2  0
 25 39  2  0
 39  2  1  0
 24 14  1  0
 38 31  1  0
 23 17  1  0
  1 40  1  0
  1 41  1  0
  1 42  1  0
  3 43  1  0
  4 44  1  0
  6 45  1  0
  6 46  1  0
  7 47  1  0
 10 48  1  0
 10 49  1  0
 11 50  1  0
 15 51  1  0
 16 52  1  0
 18 53  1  0
 21 54  1  0
 22 55  1  0
 26 56  1  1
 27 57  1  0
 27 58  1  0
 27 59  1  0
 28 60  1  0
 29 61  1  1
 30 62  1  0
 30 63  1  0
 30 64  1  0
 32 65  1  0
 33 66  1  0
 38 67  1  0
M  END
>  <smiles>  (15) 
Cc1ccc(CNC(=O)CNC(=O)c2ccc3cc(F)ccc3n2)c([C@@H](C)NC(C)c2ccc(Cl)c(Cl)c2)n1

>  <score_type>  (15) 
oracle

>  <origin>  (15) 
autodockgpu

>  <m_score__min__energy>  (15) 
-9.9499999999999993

>  <m_primary>  (15) 
energy

>  <meeko>  (15) 
{"free_energy": -8.3, "intermolecular_energy": -10.99, "internal_energy": -3.76, "cluster_size": 3, "cluster_id": 5, "rank_in_cluster": 3}

>  <energy>  (15) 
-8.57

>  <cluster_rmsd>  (15) 
0.0

>  <rmsd>  (15) 
269.53

>  <cluster>  (15) 
7

$$$$

     RDKit          3D

 67 70  0  0  1  0  0  0  0  0999 V2000
  146.6720   73.7650  221.3680 C   0  0  0  0  0  0  0  0  0  0  0  0
  145.3080   73.5570  220.8140 C   0  0  0  0  0  0  0  0  0  0  0  0
  144.7490   72.3130  220.6190 C   0  0  0  0  0  0  0  0  0  0  0  0
  143.4760   72.2270  220.1010 C   0  0  0  0  0  0  0  0  0  0  0  0
  142.7340   73.3670  219.7680 C   0  0  0  0  0  0  0  0  0  0  0  0
  141.3840   73.2700  219.2140 C   0  0  0  0  0  0  0  0  0  0  0  0
  140.3480   72.8850  220.1100 N   0  0  0  0  0  0  0  0  0  0  0  0
  139.0990   73.5570  220.0480 C   0  0  0  0  0  0  0  0  0  0  0  0
  138.8340   74.4830  219.2490 O   0  0  0  0  0  0  0  0  0  0  0  0
  138.0220   73.1310  221.0040 C   0  0  0  0  0  0  0  0  0  0  0  0
  138.5260   72.6410  222.2440 N   0  0  0  0  0  0  0  0  0  0  0  0
  139.1280   71.3720  222.4460 C   0  0  0  0  0  0  0  0  0  0  0  0
  139.2450   70.5860  221.4750 O   0  0  0  0  0  0  0  0  0  0  0  0
  139.5990   71.0160  223.8010 C   0  0  0  0  0  0  0  0  0  0  0  0
  140.3590   71.8760  224.5610 C   0  0  0  0  0  0  0  0  0  0  0  0
  140.8060   71.5270  225.8410 C   0  0  0  0  0  0  0  0  0  0  0  0
  140.4500   70.2680  226.3260 C   0  0  0  0  0  0  0  0  0  0  0  0
  140.8350   69.8220  227.5720 C   0  0  0  0  0  0  0  0  0  0  0  0
  140.4590   68.5550  228.0200 C   0  0  0  0  0  0  0  0  0  0  0  0
  140.8190   68.0820  229.2380 F   0  0  0  0  0  0  0  0  0  0  0  0
  139.7000   67.7410  227.2180 C   0  0  0  0  0  0  0  0  0  0  0  0
  139.2970   68.1600  225.9590 C   0  0  0  0  0  0  0  0  0  0  0  0
  139.6910   69.4240  225.5510 C   0  0  0  0  0  0  0  0  0  0  0  0
  139.2830   69.8020  224.3210 N   0  0  0  0  0  0  0  0  0  0  0  0
  143.3490   74.6070  219.9870 C   0  0  0  0  0  0  0  0  0  0  0  0
  142.6560   75.8890  219.6780 C   0  0  1  0  0  0  0  0  0  0  0  0
  142.7920   76.1280  218.1920 C   0  0  0  0  0  0  0  0  0  0  0  0
  141.3670   76.0080  220.2270 N   0  0  0  0  0  0  0  0  0  0  0  0
  141.1830   76.4740  221.5430 C   0  0  2  0  0  0  0  0  0  0  0  0
  139.8540   76.1100  222.1770 C   0  0  0  0  0  0  0  0  0  0  0  0
  141.2190   77.9860  221.5440 C   0  0  0  0  0  0  0  0  0  0  0  0
  140.6820   78.7230  220.5100 C   0  0  0  0  0  0  0  0  0  0  0  0
  140.7160   80.1050  220.5000 C   0  0  0  0  0  0  0  0  0  0  0  0
  141.2930   80.8040  221.5340 C   0  0  0  0  0  0  0  0  0  0  0  0
  141.3610   82.5390  221.5640 Cl  0  0  0  0  0  0  0  0  0  0  0  0
  141.8400   80.0890  222.5850 C   0  0  0  0  0  0  0  0  0  0  0  0
  142.5860   80.9550  223.9210 Cl  0  0  0  0  0  0  0  0  0  0  0  0
  141.7960   78.6920  222.5770 C   0  0  0  0  0  0  0  0  0  0  0  0
  144.5940   74.6270  220.4940 N   0  0  0  0  0  0  0  0  0  0  0  0
  146.6264   73.7580  222.4670 H   0  0  0  0  0  0  0  0  0  0  0  0
  147.3348   72.9575  221.0234 H   0  0  0  0  0  0  0  0  0  0  0  0
  147.0640   74.7333  221.0234 H   0  0  0  0  0  0  0  0  0  0  0  0
  145.3110   71.4023  220.8733 H   0  0  0  0  0  0  0  0  0  0  0  0
  143.0291   71.2342  219.9443 H   0  0  0  0  0  0  0  0  0  0  0  0
  141.1206   74.2567  218.8053 H   0  0  0  0  0  0  0  0  0  0  0  0
  141.4360   72.4612  218.4703 H   0  0  0  0  0  0  0  0  0  0  0  0
  140.4750   72.1170  220.8210 H   0  0  0  0  0  0  0  0  0  0  0  0
  137.3751   73.9968  221.2085 H   0  0  0  0  0  0  0  0  0  0  0  0
  137.4736   72.3049  220.5276 H   0  0  0  0  0  0  0  0  0  0  0  0
  138.4480   73.2770  223.0950 H   0  0  0  0  0  0  0  0  0  0  0  0
  140.6218   72.8628  224.1521 H   0  0  0  0  0  0  0  0  0  0  0  0
  141.4147   72.2190  226.4415 H   0  0  0  0  0  0  0  0  0  0  0  0
  141.4440   70.4705  228.2190 H   0  0  0  0  0  0  0  0  0  0  0  0
  139.4074   66.7436  227.5780 H   0  0  0  0  0  0  0  0  0  0  0  0
  138.6882   67.5139  225.3095 H   0  0  0  0  0  0  0  0  0  0  0  0
  143.1452   76.7249  220.1995 H   0  0  0  0  0  0  0  0  0  0  0  0
  143.3294   77.0723  218.0202 H   0  0  0  0  0  0  0  0  0  0  0  0
  143.3534   75.2986  217.7371 H   0  0  0  0  0  0  0  0  0  0  0  0
  141.7922   76.1870  217.7371 H   0  0  0  0  0  0  0  0  0  0  0  0
  140.6620   75.3290  219.9520 H   0  0  0  0  0  0  0  0  0  0  0  0
  141.9887   75.9953  222.1189 H   0  0  0  0  0  0  0  0  0  0  0  0
  139.9508   76.1365  223.2724 H   0  0  0  0  0  0  0  0  0  0  0  0
  139.0864   76.8310  221.8592 H   0  0  0  0  0  0  0  0  0  0  0  0
  139.5609   75.0985  221.8592 H   0  0  0  0  0  0  0  0  0  0  0  0
  140.2121   78.1952  219.6670 H   0  0  0  0  0  0  0  0  0  0  0  0
  140.2757   80.6527  219.6537 H   0  0  0  0  0  0  0  0  0  0  0  0
  142.2352   78.1396  223.4207 H   0  0  0  0  0  0  0  0  0  0  0  0
  1  2  1  0
  2  3  2  0
  3  4  1  0
  4  5  2  0
  5  6  1  0
  6  7  1  0
  7  8  1  0
  8  9  2  0
  8 10  1  0
 10 11  1  0
 11 12  1  0
 12 13  2  0
 12 14  1  0
 14 15  2  0
 15 16  1  0
 16 17  2  0
 17 18  1  0
 18 19  2  0
 19 20  1  0
 19 21  1  0
 21 22  2  0
 22 23  1  0
 23 24  2  0
  5 25  1  0
 25 26  1  0
 26 27  1  0
 26 28  1  0
 28 29  1  0
 29 30  1  0
 29 31  1  0
 31 32  2  0
 32 33  1  0
 33 34  2  0
 34 35  1  0
 34 36  1  0
 36 37  1  0
 36 38  2  0
 25 39  2  0
 39  2  1  0
 24 14  1  0
 38 31  1  0
 23 17  1  0
  1 40  1  0
  1 41  1  0
  1 42  1  0
  3 43  1  0
  4 44  1  0
  6 45  1  0
  6 46  1  0
  7 47  1  0
 10 48  1  0
 10 49  1  0
 11 50  1  0
 15 51  1  0
 16 52  1  0
 18 53  1  0
 21 54  1  0
 22 55  1  0
 26 56  1  1
 27 57  1  0
 27 58  1  0
 27 59  1  0
 28 60  1  0
 29 61  1  1
 30 62  1  0
 30 63  1  0
 30 64  1  0
 32 65  1  0
 33 66  1  0
 38 67  1  0
M  END
>  <smiles>  (16) 
Cc1ccc(CNC(=O)CNC(=O)c2ccc3cc(F)ccc3n2)c([C@@H](C)NC(C)c2ccc(Cl)c(Cl)c2)n1

>  <score_type>  (16) 
oracle

>  <origin>  (16) 
autodockgpu

>  <m_score__min__energy>  (16) 
-9.9499999999999993

>  <m_primary>  (16) 
energy

>  <meeko>  (16) 
{"free_energy": -9.95, "intermolecular_energy": -12.64, "internal_energy": -3.55, "cluster_size": 3, "cluster_id": 1, "rank_in_cluster": 1}

>  <energy>  (16) 
-8.48

>  <cluster_rmsd>  (16) 
0.0

>  <rmsd>  (16) 
269.51

>  <cluster>  (16) 
8

$$$$

     RDKit          3D

 67 70  0  0  1  0  0  0  0  0999 V2000
  141.3340   71.6620  227.4850 C   0  0  0  0  0  0  0  0  0  0  0  0
  140.6420   71.2200  226.2460 C   0  0  0  0  0  0  0  0  0  0  0  0
  139.7640   70.1590  226.2040 C   0  0  0  0  0  0  0  0  0  0  0  0
  139.1730   69.8290  225.0040 C   0  0  0  0  0  0  0  0  0  0  0  0
  139.4370   70.5420  223.8290 C   0  0  0  0  0  0  0  0  0  0  0  0
  138.8090   70.1840  222.5570 C   0  0  0  0  0  0  0  0  0  0  0  0
  137.7880   71.0510  222.0780 N   0  0  0  0  0  0  0  0  0  0  0  0
  136.4900   70.5260  221.8480 C   0  0  0  0  0  0  0  0  0  0  0  0
  136.1670   69.3320  222.0370 O   0  0  0  0  0  0  0  0  0  0  0  0
  135.4300   71.4630  221.3430 C   0  0  0  0  0  0  0  0  0  0  0  0
  134.9470   72.3610  222.3390 N   0  0  0  0  0  0  0  0  0  0  0  0
  135.7020   73.3910  222.9580 C   0  0  0  0  0  0  0  0  0  0  0  0
  136.9010   73.5580  222.6270 O   0  0  0  0  0  0  0  0  0  0  0  0
  135.0470   74.2390  223.9770 C   0  0  0  0  0  0  0  0  0  0  0  0
  135.3410   75.5760  224.1140 C   0  0  0  0  0  0  0  0  0  0  0  0
  134.7190   76.3690  225.0870 C   0  0  0  0  0  0  0  0  0  0  0  0
  133.7840   75.7520  225.9190 C   0  0  0  0  0  0  0  0  0  0  0  0
  133.1130   76.4360  226.9090 C   0  0  0  0  0  0  0  0  0  0  0  0
  132.1850   75.7830  227.7210 C   0  0  0  0  0  0  0  0  0  0  0  0
  131.5070   76.4220  228.7040 F   0  0  0  0  0  0  0  0  0  0  0  0
  131.9340   74.4470  227.5360 C   0  0  0  0  0  0  0  0  0  0  0  0
  132.5920   73.7290  226.5490 C   0  0  0  0  0  0  0  0  0  0  0  0
  133.5060   74.4150  225.7650 C   0  0  0  0  0  0  0  0  0  0  0  0
  134.1300   73.6880  224.8130 N   0  0  0  0  0  0  0  0  0  0  0  0
  140.3360   71.6120  223.9270 C   0  0  0  0  0  0  0  0  0  0  0  0
  140.6890   72.4480  222.7460 C   0  0  1  0  0  0  0  0  0  0  0  0
  141.2500   71.5220  221.6910 C   0  0  0  0  0  0  0  0  0  0  0  0
  139.6860   73.3450  222.3390 N   0  0  0  0  0  0  0  0  0  0  0  0
  139.9450   74.3220  221.3580 C   0  0  2  0  0  0  0  0  0  0  0  0
  141.3790   74.3790  220.8660 C   0  0  0  0  0  0  0  0  0  0  0  0
  139.6720   75.6910  221.9380 C   0  0  0  0  0  0  0  0  0  0  0  0
  138.3890   76.1190  222.2080 C   0  0  0  0  0  0  0  0  0  0  0  0
  138.1300   77.3720  222.7330 C   0  0  0  0  0  0  0  0  0  0  0  0
  139.1540   78.2470  223.0080 C   0  0  0  0  0  0  0  0  0  0  0  0
  138.8770   79.8300  223.6650 Cl  0  0  0  0  0  0  0  0  0  0  0  0
  140.4520   77.8430  222.7460 C   0  0  0  0  0  0  0  0  0  0  0  0
  141.7820   78.9410  223.0870 Cl  0  0  0  0  0  0  0  0  0  0  0  0
  140.6940   76.5730  222.2160 C   0  0  0  0  0  0  0  0  0  0  0  0
  140.8820   71.8860  225.1250 N   0  0  0  0  0  0  0  0  0  0  0  0
  140.7762   71.3057  228.3636 H   0  0  0  0  0  0  0  0  0  0  0  0
  142.3524   71.2468  227.5042 H   0  0  0  0  0  0  0  0  0  0  0  0
  141.3855   72.7606  227.5042 H   0  0  0  0  0  0  0  0  0  0  0  0
  139.5384   69.5843  227.1144 H   0  0  0  0  0  0  0  0  0  0  0  0
  138.4736   68.9808  224.9684 H   0  0  0  0  0  0  0  0  0  0  0  0
  139.6004   70.1487  221.7938 H   0  0  0  0  0  0  0  0  0  0  0  0
  138.3058   69.2241  222.7452 H   0  0  0  0  0  0  0  0  0  0  0  0
  137.9620   72.0740  221.8860 H   0  0  0  0  0  0  0  0  0  0  0  0
  135.8517   72.0534  220.5162 H   0  0  0  0  0  0  0  0  0  0  0  0
  134.5779   70.8462  221.0212 H   0  0  0  0  0  0  0  0  0  0  0  0
  133.9330   72.2570  222.6480 H   0  0  0  0  0  0  0  0  0  0  0  0
  136.0828   76.0336  223.4429 H   0  0  0  0  0  0  0  0  0  0  0  0
  134.9586   77.4375  225.1912 H   0  0  0  0  0  0  0  0  0  0  0  0
  133.3108   77.5074  227.0608 H   0  0  0  0  0  0  0  0  0  0  0  0
  131.2009   73.9385  228.1794 H   0  0  0  0  0  0  0  0  0  0  0  0
  132.3963   72.6576  226.3944 H   0  0  0  0  0  0  0  0  0  0  0  0
  141.4731   73.1731  223.0092 H   0  0  0  0  0  0  0  0  0  0  0  0
  141.7611   70.6784  222.1779 H   0  0  0  0  0  0  0  0  0  0  0  0
  140.4304   71.1415  221.0637 H   0  0  0  0  0  0  0  0  0  0  0  0
  141.9667   72.0723  221.0637 H   0  0  0  0  0  0  0  0  0  0  0  0
  139.0090   73.6570  223.0310 H   0  0  0  0  0  0  0  0  0  0  0  0
  139.2967   74.0434  220.5142 H   0  0  0  0  0  0  0  0  0  0  0  0
  142.0616   74.4061  221.7281 H   0  0  0  0  0  0  0  0  0  0  0  0
  141.5932   73.4887  220.2566 H   0  0  0  0  0  0  0  0  0  0  0  0
  141.5219   75.2835  220.2566 H   0  0  0  0  0  0  0  0  0  0  0  0
  137.5463   75.4434  221.9995 H   0  0  0  0  0  0  0  0  0  0  0  0
  137.0909   77.6724  222.9332 H   0  0  0  0  0  0  0  0  0  0  0  0
  141.7315   76.2679  222.0146 H   0  0  0  0  0  0  0  0  0  0  0  0
  1  2  1  0
  2  3  2  0
  3  4  1  0
  4  5  2  0
  5  6  1  0
  6  7  1  0
  7  8  1  0
  8  9  2  0
  8 10  1  0
 10 11  1  0
 11 12  1  0
 12 13  2  0
 12 14  1  0
 14 15  2  0
 15 16  1  0
 16 17  2  0
 17 18  1  0
 18 19  2  0
 19 20  1  0
 19 21  1  0
 21 22  2  0
 22 23  1  0
 23 24  2  0
  5 25  1  0
 25 26  1  0
 26 27  1  0
 26 28  1  0
 28 29  1  0
 29 30  1  0
 29 31  1  0
 31 32  2  0
 32 33  1  0
 33 34  2  0
 34 35  1  0
 34 36  1  0
 36 37  1  0
 36 38  2  0
 25 39  2  0
 39  2  1  0
 24 14  1  0
 38 31  1  0
 23 17  1  0
  1 40  1  0
  1 41  1  0
  1 42  1  0
  3 43  1  0
  4 44  1  0
  6 45  1  0
  6 46  1  0
  7 47  1  0
 10 48  1  0
 10 49  1  0
 11 50  1  0
 15 51  1  0
 16 52  1  0
 18 53  1  0
 21 54  1  0
 22 55  1  0
 26 56  1  1
 27 57  1  0
 27 58  1  0
 27 59  1  0
 28 60  1  0
 29 61  1  6
 30 62  1  0
 30 63  1  0
 30 64  1  0
 32 65  1  0
 33 66  1  0
 38 67  1  0
M  END
>  <smiles>  (17) 
Cc1ccc(CNC(=O)CNC(=O)c2ccc3cc(F)ccc3n2)c([C@@H](C)NC(C)c2ccc(Cl)c(Cl)c2)n1

>  <score_type>  (17) 
oracle

>  <origin>  (17) 
autodockgpu

>  <m_score__min__energy>  (17) 
-9.9499999999999993

>  <m_primary>  (17) 
energy

>  <meeko>  (17) 
{"free_energy": -8.85, "intermolecular_energy": -11.53, "internal_energy": -4.38, "cluster_size": 1, "cluster_id": 4, "rank_in_cluster": 1}

>  <energy>  (17) 
-7.72

>  <cluster_rmsd>  (17) 
0.0

>  <rmsd>  (17) 
268.57

>  <cluster>  (17) 
9

$$$$

     RDKit          3D

 67 70  0  0  1  0  0  0  0  0999 V2000
  133.1080   76.4130  226.0580 C   0  0  0  0  0  0  0  0  0  0  0  0
  134.2480   76.4700  225.1060 C   0  0  0  0  0  0  0  0  0  0  0  0
  135.0200   75.3760  224.7820 C   0  0  0  0  0  0  0  0  0  0  0  0
  136.0550   75.5320  223.8860 C   0  0  0  0  0  0  0  0  0  0  0  0
  136.3430   76.7690  223.2960 C   0  0  0  0  0  0  0  0  0  0  0  0
  137.4460   76.9290  222.3490 C   0  0  0  0  0  0  0  0  0  0  0  0
  138.4210   75.8940  222.3180 N   0  0  0  0  0  0  0  0  0  0  0  0
  139.2910   75.8010  221.1990 C   0  0  0  0  0  0  0  0  0  0  0  0
  139.2640   76.5760  220.2170 O   0  0  0  0  0  0  0  0  0  0  0  0
  140.3120   74.7000  221.1920 C   0  0  0  0  0  0  0  0  0  0  0  0
  140.1120   73.7330  222.2200 N   0  0  0  0  0  0  0  0  0  0  0  0
  140.5890   72.3970  222.2000 C   0  0  0  0  0  0  0  0  0  0  0  0
  141.2470   71.9940  221.2110 O   0  0  0  0  0  0  0  0  0  0  0  0
  140.2920   71.5190  223.3520 C   0  0  0  0  0  0  0  0  0  0  0  0
  139.6020   70.3360  223.2110 C   0  0  0  0  0  0  0  0  0  0  0  0
  139.3210   69.5150  224.3090 C   0  0  0  0  0  0  0  0  0  0  0  0
  139.7680   69.9380  225.5620 C   0  0  0  0  0  0  0  0  0  0  0  0
  139.5460   69.2080  226.7090 C   0  0  0  0  0  0  0  0  0  0  0  0
  140.0100   69.6660  227.9430 C   0  0  0  0  0  0  0  0  0  0  0  0
  139.8100   68.9770  229.0920 F   0  0  0  0  0  0  0  0  0  0  0  0
  140.6920   70.8540  228.0210 C   0  0  0  0  0  0  0  0  0  0  0  0
  140.9310   71.6120  226.8850 C   0  0  0  0  0  0  0  0  0  0  0  0
  140.4550   71.1230  225.6800 C   0  0  0  0  0  0  0  0  0  0  0  0
  140.7030   71.8840  224.5930 N   0  0  0  0  0  0  0  0  0  0  0  0
  135.5270   77.8480  223.6610 C   0  0  0  0  0  0  0  0  0  0  0  0
  135.7310   79.2100  223.0930 C   0  0  1  0  0  0  0  0  0  0  0  0
  134.8670   79.3170  221.8580 C   0  0  0  0  0  0  0  0  0  0  0  0
  135.6420   80.2570  224.0270 N   0  0  0  0  0  0  0  0  0  0  0  0
  136.7710   80.6720  224.7580 C   0  0  2  0  0  0  0  0  0  0  0  0
  136.6950   82.0790  225.3200 C   0  0  0  0  0  0  0  0  0  0  0  0
  137.9780   80.6750  223.8470 C   0  0  0  0  0  0  0  0  0  0  0  0
  138.0810   81.5500  222.7870 C   0  0  0  0  0  0  0  0  0  0  0  0
  139.1790   81.5560  221.9460 C   0  0  0  0  0  0  0  0  0  0  0  0
  140.2210   80.6790  222.1400 C   0  0  0  0  0  0  0  0  0  0  0  0
  141.6180   80.6490  221.1090 Cl  0  0  0  0  0  0  0  0  0  0  0  0
  140.1430   79.7900  223.1970 C   0  0  0  0  0  0  0  0  0  0  0  0
  141.4590   78.6570  223.4690 Cl  0  0  0  0  0  0  0  0  0  0  0  0
  139.0250   79.7990  224.0360 C   0  0  0  0  0  0  0  0  0  0  0  0
  134.5330   77.6340  224.5400 N   0  0  0  0  0  0  0  0  0  0  0  0
  133.4902   76.4321  227.0893 H   0  0  0  0  0  0  0  0  0  0  0  0
  132.4502   77.2794  225.8946 H   0  0  0  0  0  0  0  0  0  0  0  0
  132.5399   75.4853  225.8946 H   0  0  0  0  0  0  0  0  0  0  0  0
  134.8134   74.3935  225.2315 H   0  0  0  0  0  0  0  0  0  0  0  0
  136.6729   74.6597  223.6266 H   0  0  0  0  0  0  0  0  0  0  0  0
  137.0109   77.0063  221.3417 H   0  0  0  0  0  0  0  0  0  0  0  0
  137.9880   77.8243  222.6877 H   0  0  0  0  0  0  0  0  0  0  0  0
  138.5220   75.1910  223.0970 H   0  0  0  0  0  0  0  0  0  0  0  0
  140.2660   74.1886  220.2192 H   0  0  0  0  0  0  0  0  0  0  0  0
  141.2919   75.1661  221.3722 H   0  0  0  0  0  0  0  0  0  0  0  0
  139.5590   74.0330  223.0790 H   0  0  0  0  0  0  0  0  0  0  0  0
  139.2632   70.0285  222.2107 H   0  0  0  0  0  0  0  0  0  0  0  0
  138.7684   68.5714  224.1891 H   0  0  0  0  0  0  0  0  0  0  0  0
  138.9983   68.2558  226.6518 H   0  0  0  0  0  0  0  0  0  0  0  0
  141.0537   71.2095  228.9971 H   0  0  0  0  0  0  0  0  0  0  0  0
  141.4776   72.5651  226.9388 H   0  0  0  0  0  0  0  0  0  0  0  0
  136.7780   79.3439  222.7834 H   0  0  0  0  0  0  0  0  0  0  0  0
  133.8161   79.4471  222.1559 H   0  0  0  0  0  0  0  0  0  0  0  0
  135.1883   80.1822  221.2595 H   0  0  0  0  0  0  0  0  0  0  0  0
  134.9676   78.3995  221.2595 H   0  0  0  0  0  0  0  0  0  0  0  0
  134.7770   80.3600  224.5530 H   0  0  0  0  0  0  0  0  0  0  0  0
  136.8313   79.9632  225.5970 H   0  0  0  0  0  0  0  0  0  0  0  0
  136.6974   82.0354  226.4191 H   0  0  0  0  0  0  0  0  0  0  0  0
  137.5631   82.6593  224.9742 H   0  0  0  0  0  0  0  0  0  0  0  0
  135.7694   82.5625  224.9742 H   0  0  0  0  0  0  0  0  0  0  0  0
  137.2653   82.2651  222.6044 H   0  0  0  0  0  0  0  0  0  0  0  0
  139.2196   82.2712  221.1113 H   0  0  0  0  0  0  0  0  0  0  0  0
  138.9795   79.0856  224.8720 H   0  0  0  0  0  0  0  0  0  0  0  0
  1  2  1  0
  2  3  2  0
  3  4  1  0
  4  5  2  0
  5  6  1  0
  6  7  1  0
  7  8  1  0
  8  9  2  0
  8 10  1  0
 10 11  1  0
 11 12  1  0
 12 13  2  0
 12 14  1  0
 14 15  2  0
 15 16  1  0
 16 17  2  0
 17 18  1  0
 18 19  2  0
 19 20  1  0
 19 21  1  0
 21 22  2  0
 22 23  1  0
 23 24  2  0
  5 25  1  0
 25 26  1  0
 26 27  1  0
 26 28  1  0
 28 29  1  0
 29 30  1  0
 29 31  1  0
 31 32  2  0
 32 33  1  0
 33 34  2  0
 34 35  1  0
 34 36  1  0
 36 37  1  0
 36 38  2  0
 25 39  2  0
 39  2  1  0
 24 14  1  0
 38 31  1  0
 23 17  1  0
  1 40  1  0
  1 41  1  0
  1 42  1  0
  3 43  1  0
  4 44  1  0
  6 45  1  0
  6 46  1  0
  7 47  1  0
 10 48  1  0
 10 49  1  0
 11 50  1  0
 15 51  1  0
 16 52  1  0
 18 53  1  0
 21 54  1  0
 22 55  1  0
 26 56  1  6
 27 57  1  0
 27 58  1  0
 27 59  1  0
 28 60  1  0
 29 61  1  1
 30 62  1  0
 30 63  1  0
 30 64  1  0
 32 65  1  0
 33 66  1  0
 38 67  1  0
M  END
>  <smiles>  (18) 
Cc1ccc(CNC(=O)CNC(=O)c2ccc3cc(F)ccc3n2)c([C@@H](C)NC(C)c2ccc(Cl)c(Cl)c2)n1

>  <score_type>  (18) 
oracle

>  <origin>  (18) 
autodockgpu

>  <m_score__min__energy>  (18) 
-9.9499999999999993

>  <m_primary>  (18) 
energy

>  <meeko>  (18) 
{"free_energy": -9.38, "intermolecular_energy": -12.06, "internal_energy": -2.63, "cluster_size": 2, "cluster_id": 2, "rank_in_cluster": 1}

>  <energy>  (18) 
-7.24

>  <cluster_rmsd>  (18) 
0.0

>  <rmsd>  (18) 
269.01

>  <cluster>  (18) 
10

$$$$

     RDKit          3D

 67 70  0  0  1  0  0  0  0  0999 V2000
  141.4360   83.0920  221.6620 C   0  0  0  0  0  0  0  0  0  0  0  0
  141.4040   81.6490  222.0180 C   0  0  0  0  0  0  0  0  0  0  0  0
  142.5190   80.8390  222.0010 C   0  0  0  0  0  0  0  0  0  0  0  0
  142.3850   79.5130  222.3490 C   0  0  0  0  0  0  0  0  0  0  0  0
  141.1500   78.9660  222.7200 C   0  0  0  0  0  0  0  0  0  0  0  0
  141.0130   77.5570  223.0840 C   0  0  0  0  0  0  0  0  0  0  0  0
  139.8940   76.8600  222.5500 N   0  0  0  0  0  0  0  0  0  0  0  0
  140.0920   75.5810  221.9670 C   0  0  0  0  0  0  0  0  0  0  0  0
  141.2010   75.0070  221.8830 O   0  0  0  0  0  0  0  0  0  0  0  0
  138.8930   74.8670  221.4110 C   0  0  0  0  0  0  0  0  0  0  0  0
  137.8490   74.6850  222.3650 N   0  0  0  0  0  0  0  0  0  0  0  0
  136.8540   75.6420  222.6920 C   0  0  0  0  0  0  0  0  0  0  0  0
  136.8590   76.7550  222.1150 O   0  0  0  0  0  0  0  0  0  0  0  0
  135.8390   75.2930  223.7090 C   0  0  0  0  0  0  0  0  0  0  0  0
  135.0730   76.2490  224.3360 C   0  0  0  0  0  0  0  0  0  0  0  0
  134.1190   75.9080  225.3020 C   0  0  0  0  0  0  0  0  0  0  0  0
  133.9680   74.5550  225.6100 C   0  0  0  0  0  0  0  0  0  0  0  0
  133.0590   74.1080  226.5440 C   0  0  0  0  0  0  0  0  0  0  0  0
  132.9390   72.7460  226.8230 C   0  0  0  0  0  0  0  0  0  0  0  0
  132.0580   72.2690  227.7360 F   0  0  0  0  0  0  0  0  0  0  0  0
  133.7300   71.8390  226.1660 C   0  0  0  0  0  0  0  0  0  0  0  0
  134.6550   72.2560  225.2200 C   0  0  0  0  0  0  0  0  0  0  0  0
  134.7430   73.6160  224.9710 C   0  0  0  0  0  0  0  0  0  0  0  0
  135.6520   73.9900  224.0460 N   0  0  0  0  0  0  0  0  0  0  0  0
  140.0500   79.8340  222.7210 C   0  0  0  0  0  0  0  0  0  0  0  0
  138.6880   79.3690  223.1050 C   0  0  1  0  0  0  0  0  0  0  0  0
  138.1430   80.3550  224.1120 C   0  0  0  0  0  0  0  0  0  0  0  0
  137.8530   79.0350  222.0250 N   0  0  0  0  0  0  0  0  0  0  0  0
  137.9490   79.7210  220.7990 C   0  0  2  0  0  0  0  0  0  0  0  0
  136.7360   79.5990  219.8940 C   0  0  0  0  0  0  0  0  0  0  0  0
  139.0970   79.1490  219.9990 C   0  0  0  0  0  0  0  0  0  0  0  0
  139.1810   77.8030  219.7140 C   0  0  0  0  0  0  0  0  0  0  0  0
  140.2310   77.2710  218.9870 C   0  0  0  0  0  0  0  0  0  0  0  0
  141.2410   78.0760  218.5160 C   0  0  0  0  0  0  0  0  0  0  0  0
  142.5800   77.4530  217.6020 Cl  0  0  0  0  0  0  0  0  0  0  0  0
  141.1820   79.4320  218.7880 C   0  0  0  0  0  0  0  0  0  0  0  0
  142.4610   80.4860  218.1990 Cl  0  0  0  0  0  0  0  0  0  0  0  0
  140.1130   79.9500  219.5240 C   0  0  0  0  0  0  0  0  0  0  0  0
  140.2420   81.1180  222.3710 N   0  0  0  0  0  0  0  0  0  0  0  0
  141.4494   83.6962  222.5811 H   0  0  0  0  0  0  0  0  0  0  0  0
  142.3391   83.3039  221.0707 H   0  0  0  0  0  0  0  0  0  0  0  0
  140.5432   83.3437  221.0707 H   0  0  0  0  0  0  0  0  0  0  0  0
  143.5003   81.2450  221.7141 H   0  0  0  0  0  0  0  0  0  0  0  0
  143.2736   78.8648  222.3352 H   0  0  0  0  0  0  0  0  0  0  0  0
  141.9210   77.0366  222.7455 H   0  0  0  0  0  0  0  0  0  0  0  0
  140.8582   77.5561  224.1731 H   0  0  0  0  0  0  0  0  0  0  0  0
  138.9190   77.2610  222.5710 H   0  0  0  0  0  0  0  0  0  0  0  0
  138.4973   75.4538  220.5689 H   0  0  0  0  0  0  0  0  0  0  0  0
  139.2267   73.8660  221.1001 H   0  0  0  0  0  0  0  0  0  0  0  0
  137.8070   73.7530  222.8780 H   0  0  0  0  0  0  0  0  0  0  0  0
  135.2139   77.3074  224.0715 H   0  0  0  0  0  0  0  0  0  0  0  0
  133.5110   76.6777  225.7999 H   0  0  0  0  0  0  0  0  0  0  0  0
  132.4222   74.8312  227.0745 H   0  0  0  0  0  0  0  0  0  0  0  0
  133.6298   70.7671  226.3919 H   0  0  0  0  0  0  0  0  0  0  0  0
  135.2936   71.5351  224.6884 H   0  0  0  0  0  0  0  0  0  0  0  0
  138.7428   78.3844  223.5923 H   0  0  0  0  0  0  0  0  0  0  0  0
  138.3451   79.9894  225.1296 H   0  0  0  0  0  0  0  0  0  0  0  0
  138.6296   81.3312  223.9697 H   0  0  0  0  0  0  0  0  0  0  0  0
  137.0575   80.4622  223.9697 H   0  0  0  0  0  0  0  0  0  0  0  0
  136.9050   78.7270  222.2260 H   0  0  0  0  0  0  0  0  0  0  0  0
  138.0692   80.7768  221.0832 H   0  0  0  0  0  0  0  0  0  0  0  0
  135.8280   79.5077  220.5082 H   0  0  0  0  0  0  0  0  0  0  0  0
  136.6607   80.4941  219.2591 H   0  0  0  0  0  0  0  0  0  0  0  0
  136.8405   78.7068  219.2591 H   0  0  0  0  0  0  0  0  0  0  0  0
  138.3887   77.1311  220.0758 H   0  0  0  0  0  0  0  0  0  0  0  0
  140.2580   76.1904  218.7833 H   0  0  0  0  0  0  0  0  0  0  0  0
  140.0815   81.0300  219.7306 H   0  0  0  0  0  0  0  0  0  0  0  0
  1  2  1  0
  2  3  2  0
  3  4  1  0
  4  5  2  0
  5  6  1  0
  6  7  1  0
  7  8  1  0
  8  9  2  0
  8 10  1  0
 10 11  1  0
 11 12  1  0
 12 13  2  0
 12 14  1  0
 14 15  2  0
 15 16  1  0
 16 17  2  0
 17 18  1  0
 18 19  2  0
 19 20  1  0
 19 21  1  0
 21 22  2  0
 22 23  1  0
 23 24  2  0
  5 25  1  0
 25 26  1  0
 26 27  1  0
 26 28  1  0
 28 29  1  0
 29 30  1  0
 29 31  1  0
 31 32  2  0
 32 33  1  0
 33 34  2  0
 34 35  1  0
 34 36  1  0
 36 37  1  0
 36 38  2  0
 25 39  2  0
 39  2  1  0
 24 14  1  0
 38 31  1  0
 23 17  1  0
  1 40  1  0
  1 41  1  0
  1 42  1  0
  3 43  1  0
  4 44  1  0
  6 45  1  0
  6 46  1  0
  7 47  1  0
 10 48  1  0
 10 49  1  0
 11 50  1  0
 15 51  1  0
 16 52  1  0
 18 53  1  0
 21 54  1  0
 22 55  1  0
 26 56  1  1
 27 57  1  0
 27 58  1  0
 27 59  1  0
 28 60  1  0
 29 61  1  1
 30 62  1  0
 30 63  1  0
 30 64  1  0
 32 65  1  0
 33 66  1  0
 38 67  1  0
M  END
>  <smiles>  (19) 
Cc1ccc(CNC(=O)CNC(=O)c2ccc3cc(F)ccc3n2)c([C@@H](C)NC(C)c2ccc(Cl)c(Cl)c2)n1

>  <score_type>  (19) 
oracle

>  <origin>  (19) 
autodockgpu

>  <m_score__min__energy>  (19) 
-9.9499999999999993

>  <m_primary>  (19) 
energy

>  <meeko>  (19) 
{"free_energy": -6.68, "intermolecular_energy": -9.36, "internal_energy": -5.59, "cluster_size": 1, "cluster_id": 12, "rank_in_cluster": 1}

>  <energy>  (19) 
-6.8

>  <cluster_rmsd>  (19) 
0.0

>  <rmsd>  (19) 
268.41

>  <cluster>  (19) 
11

$$$$

     RDKit          3D

 67 70  0  0  1  0  0  0  0  0999 V2000
  142.9840   80.6920  223.9120 C   0  0  0  0  0  0  0  0  0  0  0  0
  142.0300   79.7950  223.2090 C   0  0  0  0  0  0  0  0  0  0  0  0
  140.9290   79.2330  223.8170 C   0  0  0  0  0  0  0  0  0  0  0  0
  140.1040   78.4150  223.0770 C   0  0  0  0  0  0  0  0  0  0  0  0
  140.3510   78.1400  221.7260 C   0  0  0  0  0  0  0  0  0  0  0  0
  139.4730   77.2680  220.9470 C   0  0  0  0  0  0  0  0  0  0  0  0
  139.8400   75.8960  220.8640 N   0  0  0  0  0  0  0  0  0  0  0  0
  139.0190   74.9230  221.4930 C   0  0  0  0  0  0  0  0  0  0  0  0
  137.9740   75.1860  222.1290 O   0  0  0  0  0  0  0  0  0  0  0  0
  139.4280   73.4820  221.3890 C   0  0  0  0  0  0  0  0  0  0  0  0
  139.7080   72.8790  222.6500 N   0  0  0  0  0  0  0  0  0  0  0  0
  140.0970   71.5290  222.8510 C   0  0  0  0  0  0  0  0  0  0  0  0
  140.2150   70.7700  221.8600 O   0  0  0  0  0  0  0  0  0  0  0  0
  140.3500   71.0600  224.2300 C   0  0  0  0  0  0  0  0  0  0  0  0
  140.7810   71.9090  225.2240 C   0  0  0  0  0  0  0  0  0  0  0  0
  141.0240   71.4540  226.5250 C   0  0  0  0  0  0  0  0  0  0  0  0
  140.8100   70.0990  226.7830 C   0  0  0  0  0  0  0  0  0  0  0  0
  141.0170   69.5440  228.0280 C   0  0  0  0  0  0  0  0  0  0  0  0
  140.7930   68.1840  228.2450 C   0  0  0  0  0  0  0  0  0  0  0  0
  140.9860   67.6030  229.4540 F   0  0  0  0  0  0  0  0  0  0  0  0
  140.3630   67.3870  227.2150 C   0  0  0  0  0  0  0  0  0  0  0  0
  140.1450   67.9140  225.9510 C   0  0  0  0  0  0  0  0  0  0  0  0
  140.3800   69.2680  225.7770 C   0  0  0  0  0  0  0  0  0  0  0  0
  140.1590   69.7510  224.5350 N   0  0  0  0  0  0  0  0  0  0  0  0
  141.4840   78.7380  221.1580 C   0  0  0  0  0  0  0  0  0  0  0  0
  141.8450   78.5260  219.7280 C   0  0  1  0  0  0  0  0  0  0  0  0
  142.3070   77.0940  219.5880 C   0  0  0  0  0  0  0  0  0  0  0  0
  140.8860   78.9790  218.8050 N   0  0  0  0  0  0  0  0  0  0  0  0
  140.6460   80.3550  218.6300 C   0  0  2  0  0  0  0  0  0  0  0  0
  141.8860   81.2300  218.6110 C   0  0  0  0  0  0  0  0  0  0  0  0
  139.8200   80.8670  219.7880 C   0  0  0  0  0  0  0  0  0  0  0  0
  140.2600   81.8980  220.5910 C   0  0  0  0  0  0  0  0  0  0  0  0
  139.5140   82.3680  221.6560 C   0  0  0  0  0  0  0  0  0  0  0  0
  138.2900   81.8180  221.9570 C   0  0  0  0  0  0  0  0  0  0  0  0
  137.3190   82.3740  223.2850 Cl  0  0  0  0  0  0  0  0  0  0  0  0
  137.8240   80.7810  221.1680 C   0  0  0  0  0  0  0  0  0  0  0  0
  136.2640   80.0560  221.5290 Cl  0  0  0  0  0  0  0  0  0  0  0  0
  138.5930   80.3190  220.0960 C   0  0  0  0  0  0  0  0  0  0  0  0
  142.2520   79.5260  221.9300 N   0  0  0  0  0  0  0  0  0  0  0  0
  142.8620   80.5773  224.9992 H   0  0  0  0  0  0  0  0  0  0  0  0
  144.0133   80.4270  223.6286 H   0  0  0  0  0  0  0  0  0  0  0  0
  142.7828   81.7356  223.6286 H   0  0  0  0  0  0  0  0  0  0  0  0
  140.7121   79.4343  224.8765 H   0  0  0  0  0  0  0  0  0  0  0  0
  139.2252   77.9644  223.5614 H   0  0  0  0  0  0  0  0  0  0  0  0
  138.4705   77.3175  221.3971 H   0  0  0  0  0  0  0  0  0  0  0  0
  139.5348   77.6451  219.9155 H   0  0  0  0  0  0  0  0  0  0  0  0
  140.7040   75.5730  220.3520 H   0  0  0  0  0  0  0  0  0  0  0  0
  138.6121   72.9221  220.9086 H   0  0  0  0  0  0  0  0  0  0  0  0
  140.3573   73.4506  220.8013 H   0  0  0  0  0  0  0  0  0  0  0  0
  139.6210   73.4890  223.5190 H   0  0  0  0  0  0  0  0  0  0  0  0
  140.9385   72.9722  224.9898 H   0  0  0  0  0  0  0  0  0  0  0  0
  141.3703   72.1379  227.3139 H   0  0  0  0  0  0  0  0  0  0  0  0
  141.3618   70.1789  228.8575 H   0  0  0  0  0  0  0  0  0  0  0  0
  140.1888   66.3157  227.3939 H   0  0  0  0  0  0  0  0  0  0  0  0
  139.7993   67.2820  225.1197 H   0  0  0  0  0  0  0  0  0  0  0  0
  142.6823   79.1799  219.4430 H   0  0  0  0  0  0  0  0  0  0  0  0
  142.4486   76.6551  220.5867 H   0  0  0  0  0  0  0  0  0  0  0  0
  141.5496   76.5165  219.0377 H   0  0  0  0  0  0  0  0  0  0  0  0
  143.2591   77.0680  219.0377 H   0  0  0  0  0  0  0  0  0  0  0  0
  140.0510   78.4170  218.6630 H   0  0  0  0  0  0  0  0  0  0  0  0
  140.1531   80.4246  217.6491 H   0  0  0  0  0  0  0  0  0  0  0  0
  142.1962   81.4489  219.6434 H   0  0  0  0  0  0  0  0  0  0  0  0
  142.6981   80.7038  218.0879 H   0  0  0  0  0  0  0  0  0  0  0  0
  141.6624   82.1715  218.0879 H   0  0  0  0  0  0  0  0  0  0  0  0
  141.2348   82.3609  220.3777 H   0  0  0  0  0  0  0  0  0  0  0  0
  139.9046   83.1925  222.2705 H   0  0  0  0  0  0  0  0  0  0  0  0
  138.2076   79.4934  219.4797 H   0  0  0  0  0  0  0  0  0  0  0  0
  1  2  1  0
  2  3  2  0
  3  4  1  0
  4  5  2  0
  5  6  1  0
  6  7  1  0
  7  8  1  0
  8  9  2  0
  8 10  1  0
 10 11  1  0
 11 12  1  0
 12 13  2  0
 12 14  1  0
 14 15  2  0
 15 16  1  0
 16 17  2  0
 17 18  1  0
 18 19  2  0
 19 20  1  0
 19 21  1  0
 21 22  2  0
 22 23  1  0
 23 24  2  0
  5 25  1  0
 25 26  1  0
 26 27  1  0
 26 28  1  0
 28 29  1  0
 29 30  1  0
 29 31  1  0
 31 32  2  0
 32 33  1  0
 33 34  2  0
 34 35  1  0
 34 36  1  0
 36 37  1  0
 36 38  2  0
 25 39  2  0
 39  2  1  0
 24 14  1  0
 38 31  1  0
 23 17  1  0
  1 40  1  0
  1 41  1  0
  1 42  1  0
  3 43  1  0
  4 44  1  0
  6 45  1  0
  6 46  1  0
  7 47  1  0
 10 48  1  0
 10 49  1  0
 11 50  1  0
 15 51  1  0
 16 52  1  0
 18 53  1  0
 21 54  1  0
 22 55  1  0
 26 56  1  6
 27 57  1  0
 27 58  1  0
 27 59  1  0
 28 60  1  0
 29 61  1  6
 30 62  1  0
 30 63  1  0
 30 64  1  0
 32 65  1  0
 33 66  1  0
 38 67  1  0
M  END
>  <smiles>  (20) 
Cc1ccc(CNC(=O)CNC(=O)c2ccc3cc(F)ccc3n2)c([C@@H](C)NC(C)c2ccc(Cl)c(Cl)c2)n1

>  <score_type>  (20) 
oracle

>  <origin>  (20) 
autodockgpu

>  <m_score__min__energy>  (20) 
-9.9499999999999993

>  <m_primary>  (20) 
energy

>  <meeko>  (20) 
{"free_energy": -8.43, "intermolecular_energy": -11.11, "internal_energy": -2.77, "cluster_size": 3, "cluster_id": 5, "rank_in_cluster": 2}

>  <energy>  (20) 
-6.68

>  <cluster_rmsd>  (20) 
0.0

>  <rmsd>  (20) 
269.33

>  <cluster>  (20) 
12

$$$$

     RDKit          3D

 67 70  0  0  1  0  0  0  0  0999 V2000
  137.4520   80.0260  219.0010 C   0  0  0  0  0  0  0  0  0  0  0  0
  138.0620   79.0590  219.9710 C   0  0  0  0  0  0  0  0  0  0  0  0
  137.2070   78.3150  220.7590 C   0  0  0  0  0  0  0  0  0  0  0  0
  137.8050   77.4350  221.6430 C   0  0  0  0  0  0  0  0  0  0  0  0
  139.2000   77.3130  221.7230 C   0  0  0  0  0  0  0  0  0  0  0  0
  139.7860   76.3470  222.7000 C   0  0  0  0  0  0  0  0  0  0  0  0
  139.5840   74.9680  222.2750 N   0  0  0  0  0  0  0  0  0  0  0  0
  140.3990   74.3830  221.2710 C   0  0  0  0  0  0  0  0  0  0  0  0
  141.3250   75.0140  220.7010 O   0  0  0  0  0  0  0  0  0  0  0  0
  140.1860   72.9720  220.8450 C   0  0  0  0  0  0  0  0  0  0  0  0
  140.4220   72.0820  221.9640 N   0  0  0  0  0  0  0  0  0  0  0  0
  139.3410   71.7870  222.8730 C   0  0  0  0  0  0  0  0  0  0  0  0
  138.1930   72.3000  222.7020 O   0  0  0  0  0  0  0  0  0  0  0  0
  139.5730   70.8930  223.9970 C   0  0  0  0  0  0  0  0  0  0  0  0
  139.1340   69.5900  223.9370 C   0  0  0  0  0  0  0  0  0  0  0  0
  139.3020   68.6700  224.9370 C   0  0  0  0  0  0  0  0  0  0  0  0
  139.9580   69.0930  226.0800 C   0  0  0  0  0  0  0  0  0  0  0  0
  140.1500   68.2040  227.1090 C   0  0  0  0  0  0  0  0  0  0  0  0
  140.8040   68.6140  228.2530 C   0  0  0  0  0  0  0  0  0  0  0  0
  141.0010   67.7360  229.2850 F   0  0  0  0  0  0  0  0  0  0  0  0
  141.2610   69.9250  228.3460 C   0  0  0  0  0  0  0  0  0  0  0  0
  141.0690   70.8320  227.3050 C   0  0  0  0  0  0  0  0  0  0  0  0
  140.4090   70.4140  226.1530 C   0  0  0  0  0  0  0  0  0  0  0  0
  140.2070   71.2660  225.1250 N   0  0  0  0  0  0  0  0  0  0  0  0
  140.0210   78.0960  220.8970 C   0  0  0  0  0  0  0  0  0  0  0  0
  141.4670   77.9540  220.9620 C   0  0  1  0  0  0  0  0  0  0  0  0
  142.0850   77.7570  219.5660 C   0  0  0  0  0  0  0  0  0  0  0  0
  142.2240   78.9320  221.6440 N   0  0  0  0  0  0  0  0  0  0  0  0
  141.8020   79.3530  222.9310 C   0  0  1  0  0  0  0  0  0  0  0  0
  142.9220   80.3140  223.4240 C   0  0  0  0  0  0  0  0  0  0  0  0
  140.6040   80.2430  222.9460 C   0  0  0  0  0  0  0  0  0  0  0  0
  140.5730   81.2250  221.9470 C   0  0  0  0  0  0  0  0  0  0  0  0
  139.4960   82.1070  221.8750 C   0  0  0  0  0  0  0  0  0  0  0  0
  138.4760   81.9920  222.7960 C   0  0  0  0  0  0  0  0  0  0  0  0
  137.1410   83.1010  222.6900 Cl  0  0  0  0  0  0  0  0  0  0  0  0
  138.5320   81.0070  223.7770 C   0  0  0  0  0  0  0  0  0  0  0  0
  137.2140   80.8790  224.9440 Cl  0  0  0  0  0  0  0  0  0  0  0  0
  139.5900   80.1190  223.8700 C   0  0  0  0  0  0  0  0  0  0  0  0
  139.3900   78.9310  220.0600 N   0  0  0  0  0  0  0  0  0  0  0  0
  136.9449   80.8299  219.5546 H   0  0  0  0  0  0  0  0  0  0  0  0
  138.2414   80.4579  218.3684 H   0  0  0  0  0  0  0  0  0  0  0  0
  136.7222   79.4996  218.3684 H   0  0  0  0  0  0  0  0  0  0  0  0
  136.1139   78.4160  220.6881 H   0  0  0  0  0  0  0  0  0  0  0  0
  137.1726   76.8173  222.2976 H   0  0  0  0  0  0  0  0  0  0  0  0
  140.8655   76.5391  222.7887 H   0  0  0  0  0  0  0  0  0  0  0  0
  139.2822   76.4869  223.6678 H   0  0  0  0  0  0  0  0  0  0  0  0
  138.8250   74.3700  222.7070 H   0  0  0  0  0  0  0  0  0  0  0  0
  139.1514   72.8490  220.4921 H   0  0  0  0  0  0  0  0  0  0  0  0
  140.8856   72.7278  220.0321 H   0  0  0  0  0  0  0  0  0  0  0  0
  141.3650   71.6360  222.1420 H   0  0  0  0  0  0  0  0  0  0  0  0
  138.6130   69.2658  223.0240 H   0  0  0  0  0  0  0  0  0  0  0  0
  138.9316   67.6391  224.8363 H   0  0  0  0  0  0  0  0  0  0  0  0
  139.7843   67.1702  227.0218 H   0  0  0  0  0  0  0  0  0  0  0  0
  141.7832   70.2516  229.2574 H   0  0  0  0  0  0  0  0  0  0  0  0
  141.4347   71.8657  227.3929 H   0  0  0  0  0  0  0  0  0  0  0  0
  141.5437   77.0584  221.5960 H   0  0  0  0  0  0  0  0  0  0  0  0
  143.1283   77.4244  219.6705 H   0  0  0  0  0  0  0  0  0  0  0  0
  141.5114   76.9972  219.0150 H   0  0  0  0  0  0  0  0  0  0  0  0
  142.0569   78.7086  219.0150 H   0  0  0  0  0  0  0  0  0  0  0  0
  143.2480   78.7430  221.6590 H   0  0  0  0  0  0  0  0  0  0  0  0
  141.5886   78.4412  223.5081 H   0  0  0  0  0  0  0  0  0  0  0  0
  142.9365   80.3265  224.5238 H   0  0  0  0  0  0  0  0  0  0  0  0
  143.8955   79.9658  223.0483 H   0  0  0  0  0  0  0  0  0  0  0  0
  142.7258   81.3291  223.0483 H   0  0  0  0  0  0  0  0  0  0  0  0
  141.3964   81.2997  221.2215 H   0  0  0  0  0  0  0  0  0  0  0  0
  139.4603   82.8826  221.0958 H   0  0  0  0  0  0  0  0  0  0  0  0
  139.6197   79.3449  224.6510 H   0  0  0  0  0  0  0  0  0  0  0  0
  1  2  1  0
  2  3  2  0
  3  4  1  0
  4  5  2  0
  5  6  1  0
  6  7  1  0
  7  8  1  0
  8  9  2  0
  8 10  1  0
 10 11  1  0
 11 12  1  0
 12 13  2  0
 12 14  1  0
 14 15  2  0
 15 16  1  0
 16 17  2  0
 17 18  1  0
 18 19  2  0
 19 20  1  0
 19 21  1  0
 21 22  2  0
 22 23  1  0
 23 24  2  0
  5 25  1  0
 25 26  1  0
 26 27  1  0
 26 28  1  0
 28 29  1  0
 29 30  1  0
 29 31  1  0
 31 32  2  0
 32 33  1  0
 33 34  2  0
 34 35  1  0
 34 36  1  0
 36 37  1  0
 36 38  2  0
 25 39  2  0
 39  2  1  0
 24 14  1  0
 38 31  1  0
 23 17  1  0
  1 40  1  0
  1 41  1  0
  1 42  1  0
  3 43  1  0
  4 44  1  0
  6 45  1  0
  6 46  1  0
  7 47  1  0
 10 48  1  0
 10 49  1  0
 11 50  1  0
 15 51  1  0
 16 52  1  0
 18 53  1  0
 21 54  1  0
 22 55  1  0
 26 56  1  1
 27 57  1  0
 27 58  1  0
 27 59  1  0
 28 60  1  0
 29 61  1  1
 30 62  1  0
 30 63  1  0
 30 64  1  0
 32 65  1  0
 33 66  1  0
 38 67  1  0
M  END
>  <smiles>  (21) 
Cc1ccc(CNC(=O)CNC(=O)c2ccc3cc(F)ccc3n2)c([C@@H](C)NC(C)c2ccc(Cl)c(Cl)c2)n1

>  <score_type>  (21) 
oracle

>  <origin>  (21) 
autodockgpu

>  <m_score__min__energy>  (21) 
-11.02

>  <m_primary>  (21) 
energy

>  <meeko>  (21) 
{"free_energy": -9.28, "intermolecular_energy": -11.96, "internal_energy": -3.61, "cluster_size": 2, "cluster_id": 3, "rank_in_cluster": 2}

>  <energy>  (21) 
-11.02

>  <cluster_rmsd>  (21) 
0.0

>  <rmsd>  (21) 
269.72

>  <cluster>  (21) 
1

$$$$

     RDKit          3D

 67 70  0  0  1  0  0  0  0  0999 V2000
  137.2360   82.0330  224.1510 C   0  0  0  0  0  0  0  0  0  0  0  0
  138.1010   80.8980  223.6900 C   0  0  0  0  0  0  0  0  0  0  0  0
  137.5060   79.6650  223.5190 C   0  0  0  0  0  0  0  0  0  0  0  0
  138.3350   78.6420  223.0950 C   0  0  0  0  0  0  0  0  0  0  0  0
  139.6990   78.8590  222.8550 C   0  0  0  0  0  0  0  0  0  0  0  0
  140.5430   77.7130  222.4000 C   0  0  0  0  0  0  0  0  0  0  0  0
  139.7320   76.5520  222.0600 N   0  0  0  0  0  0  0  0  0  0  0  0
  140.3250   75.3670  221.5500 C   0  0  0  0  0  0  0  0  0  0  0  0
  141.5640   75.2580  221.3650 O   0  0  0  0  0  0  0  0  0  0  0  0
  139.4870   74.1850  221.2070 C   0  0  0  0  0  0  0  0  0  0  0  0
  139.3780   73.3120  222.3590 N   0  0  0  0  0  0  0  0  0  0  0  0
  140.3740   72.2900  222.5670 C   0  0  0  0  0  0  0  0  0  0  0  0
  141.3370   72.1470  221.7530 O   0  0  0  0  0  0  0  0  0  0  0  0
  140.2690   71.4110  223.7220 C   0  0  0  0  0  0  0  0  0  0  0  0
  139.6880   70.1710  223.5880 C   0  0  0  0  0  0  0  0  0  0  0  0
  139.5420   69.2700  224.6090 C   0  0  0  0  0  0  0  0  0  0  0  0
  140.0150   69.6460  225.8550 C   0  0  0  0  0  0  0  0  0  0  0  0
  139.8910   68.7740  226.9090 C   0  0  0  0  0  0  0  0  0  0  0  0
  140.3600   69.1370  228.1540 C   0  0  0  0  0  0  0  0  0  0  0  0
  140.2410   68.2760  229.2120 F   0  0  0  0  0  0  0  0  0  0  0  0
  140.9530   70.3850  228.3240 C   0  0  0  0  0  0  0  0  0  0  0  0
  141.0820   71.2740  227.2590 C   0  0  0  0  0  0  0  0  0  0  0  0
  140.6080   70.9030  226.0040 C   0  0  0  0  0  0  0  0  0  0  0  0
  140.7170   71.7400  224.9490 N   0  0  0  0  0  0  0  0  0  0  0  0
  140.2520   80.1340  223.0450 C   0  0  0  0  0  0  0  0  0  0  0  0
  141.6620   80.3660  222.7740 C   0  0  1  0  0  0  0  0  0  0  0  0
  142.5560   79.8380  223.9110 C   0  0  0  0  0  0  0  0  0  0  0  0
  142.2070   79.9290  221.5470 N   0  0  0  0  0  0  0  0  0  0  0  0
  141.8550   80.6150  220.3570 C   0  0  1  0  0  0  0  0  0  0  0  0
  141.0910   79.5630  219.5000 C   0  0  0  0  0  0  0  0  0  0  0  0
  140.8260   81.6840  220.5200 C   0  0  0  0  0  0  0  0  0  0  0  0
  141.3080   82.9130  220.9900 C   0  0  0  0  0  0  0  0  0  0  0  0
  140.4280   83.9780  221.1760 C   0  0  0  0  0  0  0  0  0  0  0  0
  139.0900   83.7950  220.8920 C   0  0  0  0  0  0  0  0  0  0  0  0
  138.0070   85.1340  221.1310 Cl  0  0  0  0  0  0  0  0  0  0  0  0
  138.6390   82.5640  220.4270 C   0  0  0  0  0  0  0  0  0  0  0  0
  136.9230   82.3560  220.0700 Cl  0  0  0  0  0  0  0  0  0  0  0  0
  139.4930   81.4920  220.2330 C   0  0  0  0  0  0  0  0  0  0  0  0
  139.4050   81.0880  223.4570 N   0  0  0  0  0  0  0  0  0  0  0  0
  137.2177   82.0569  225.2506 H   0  0  0  0  0  0  0  0  0  0  0  0
  137.6422   82.9817  223.7703 H   0  0  0  0  0  0  0  0  0  0  0  0
  136.2135   81.8929  223.7703 H   0  0  0  0  0  0  0  0  0  0  0  0
  136.4344   79.5047  223.7088 H   0  0  0  0  0  0  0  0  0  0  0  0
  137.9150   77.6368  222.9429 H   0  0  0  0  0  0  0  0  0  0  0  0
  141.1151   78.0212  221.5124 H   0  0  0  0  0  0  0  0  0  0  0  0
  141.2164   77.4332  223.2236 H   0  0  0  0  0  0  0  0  0  0  0  0
  138.6820   76.5650  222.1870 H   0  0  0  0  0  0  0  0  0  0  0  0
  138.4837   74.5226  220.9079 H   0  0  0  0  0  0  0  0  0  0  0  0
  139.9549   73.6356  220.3768 H   0  0  0  0  0  0  0  0  0  0  0  0
  138.5890   73.3970  223.0590 H   0  0  0  0  0  0  0  0  0  0  0  0
  139.3156   69.8839  222.5936 H   0  0  0  0  0  0  0  0  0  0  0  0
  139.0695   68.2901  224.4464 H   0  0  0  0  0  0  0  0  0  0  0  0
  139.4200   67.7911  226.7607 H   0  0  0  0  0  0  0  0  0  0  0  0
  141.3265   70.6745  229.3173 H   0  0  0  0  0  0  0  0  0  0  0  0
  141.5527   72.2570  227.4082 H   0  0  0  0  0  0  0  0  0  0  0  0
  141.6658   81.4634  222.6987 H   0  0  0  0  0  0  0  0  0  0  0  0
  142.1095   80.1017  224.8811 H   0  0  0  0  0  0  0  0  0  0  0  0
  142.6419   78.7442  223.8321 H   0  0  0  0  0  0  0  0  0  0  0  0
  143.5553   80.2909  223.8321 H   0  0  0  0  0  0  0  0  0  0  0  0
  143.2370   79.7770  221.5690 H   0  0  0  0  0  0  0  0  0  0  0  0
  142.7817   81.0558  219.9610 H   0  0  0  0  0  0  0  0  0  0  0  0
  140.5757   78.8535  220.1641 H   0  0  0  0  0  0  0  0  0  0  0  0
  140.3521   80.0740  218.8653 H   0  0  0  0  0  0  0  0  0  0  0  0
  141.8055   79.0184  218.8653 H   0  0  0  0  0  0  0  0  0  0  0  0
  142.3783   83.0371  221.2117 H   0  0  0  0  0  0  0  0  0  0  0  0
  140.7940   84.9482  221.5431 H   0  0  0  0  0  0  0  0  0  0  0  0
  139.1213   80.5247  219.8640 H   0  0  0  0  0  0  0  0  0  0  0  0
  1  2  1  0
  2  3  2  0
  3  4  1  0
  4  5  2  0
  5  6  1  0
  6  7  1  0
  7  8  1  0
  8  9  2  0
  8 10  1  0
 10 11  1  0
 11 12  1  0
 12 13  2  0
 12 14  1  0
 14 15  2  0
 15 16  1  0
 16 17  2  0
 17 18  1  0
 18 19  2  0
 19 20  1  0
 19 21  1  0
 21 22  2  0
 22 23  1  0
 23 24  2  0
  5 25  1  0
 25 26  1  0
 26 27  1  0
 26 28  1  0
 28 29  1  0
 29 30  1  0
 29 31  1  0
 31 32  2  0
 32 33  1  0
 33 34  2  0
 34 35  1  0
 34 36  1  0
 36 37  1  0
 36 38  2  0
 25 39  2  0
 39  2  1  0
 24 14  1  0
 38 31  1  0
 23 17  1  0
  1 40  1  0
  1 41  1  0
  1 42  1  0
  3 43  1  0
  4 44  1  0
  6 45  1  0
  6 46  1  0
  7 47  1  0
 10 48  1  0
 10 49  1  0
 11 50  1  0
 15 51  1  0
 16 52  1  0
 18 53  1  0
 21 54  1  0
 22 55  1  0
 26 56  1  6
 27 57  1  0
 27 58  1  0
 27 59  1  0
 28 60  1  0
 29 61  1  6
 30 62  1  0
 30 63  1  0
 30 64  1  0
 32 65  1  0
 33 66  1  0
 38 67  1  0
M  END
>  <smiles>  (22) 
Cc1ccc(CNC(=O)CNC(=O)c2ccc3cc(F)ccc3n2)c([C@@H](C)NC(C)c2ccc(Cl)c(Cl)c2)n1

>  <score_type>  (22) 
oracle

>  <origin>  (22) 
autodockgpu

>  <m_score__min__energy>  (22) 
-11.02

>  <m_primary>  (22) 
energy

>  <meeko>  (22) 
{"free_energy": -9.69, "intermolecular_energy": -12.38, "internal_energy": -2.55, "cluster_size": 2, "cluster_id": 3, "rank_in_cluster": 1}

>  <energy>  (22) 
-10.79

>  <cluster_rmsd>  (22) 
0.5

>  <rmsd>  (22) 
269.71

>  <cluster>  (22) 
1

$$$$

     RDKit          3D

 67 70  0  0  1  0  0  0  0  0999 V2000
  146.3490   73.3670  221.7760 C   0  0  0  0  0  0  0  0  0  0  0  0
  145.0500   73.3580  221.0270 C   0  0  0  0  0  0  0  0  0  0  0  0
  144.5800   72.1440  220.5700 C   0  0  0  0  0  0  0  0  0  0  0  0
  143.3800   72.1750  219.8830 C   0  0  0  0  0  0  0  0  0  0  0  0
  142.6900   73.3770  219.6700 C   0  0  0  0  0  0  0  0  0  0  0  0
  141.4000   73.3460  218.9170 C   0  0  0  0  0  0  0  0  0  0  0  0
  140.2570   73.2740  219.8180 N   0  0  0  0  0  0  0  0  0  0  0  0
  139.3560   72.1770  219.7720 C   0  0  0  0  0  0  0  0  0  0  0  0
  139.4930   71.2250  218.9630 O   0  0  0  0  0  0  0  0  0  0  0  0
  138.1920   72.1110  220.6970 C   0  0  0  0  0  0  0  0  0  0  0  0
  138.5660   71.4010  221.9040 N   0  0  0  0  0  0  0  0  0  0  0  0
  139.5600   71.9730  222.7800 C   0  0  0  0  0  0  0  0  0  0  0  0
  140.1070   73.0840  222.5020 O   0  0  0  0  0  0  0  0  0  0  0  0
  139.9390   71.2650  223.9940 C   0  0  0  0  0  0  0  0  0  0  0  0
  140.7210   71.8940  224.9360 C   0  0  0  0  0  0  0  0  0  0  0  0
  141.1310   71.3190  226.1090 C   0  0  0  0  0  0  0  0  0  0  0  0
  140.7240   70.0180  226.3510 C   0  0  0  0  0  0  0  0  0  0  0  0
  141.1110   69.4010  227.5160 C   0  0  0  0  0  0  0  0  0  0  0  0
  140.7100   68.1050  227.7680 C   0  0  0  0  0  0  0  0  0  0  0  0
  141.0900   67.4810  228.9250 F   0  0  0  0  0  0  0  0  0  0  0  0
  139.9180   67.4410  226.8360 C   0  0  0  0  0  0  0  0  0  0  0  0
  139.5220   68.0620  225.6520 C   0  0  0  0  0  0  0  0  0  0  0  0
  139.9290   69.3690  225.4020 C   0  0  0  0  0  0  0  0  0  0  0  0
  139.5630   70.0010  224.2650 N   0  0  0  0  0  0  0  0  0  0  0  0
  143.2160   74.5840  220.1560 C   0  0  0  0  0  0  0  0  0  0  0  0
  142.4900   75.8280  219.9560 C   0  0  1  0  0  0  0  0  0  0  0  0
  142.5360   76.2850  218.4870 C   0  0  0  0  0  0  0  0  0  0  0  0
  141.1550   75.9260  220.4060 N   0  0  0  0  0  0  0  0  0  0  0  0
  140.9050   76.4240  221.7100 C   0  0  1  0  0  0  0  0  0  0  0  0
  141.3500   77.9140  221.6610 C   0  0  0  0  0  0  0  0  0  0  0  0
  139.4630   76.5440  222.0770 C   0  0  0  0  0  0  0  0  0  0  0  0
  139.0250   77.8440  222.3660 C   0  0  0  0  0  0  0  0  0  0  0  0
  137.6940   78.0640  222.7190 C   0  0  0  0  0  0  0  0  0  0  0  0
  136.8320   76.9890  222.7780 C   0  0  0  0  0  0  0  0  0  0  0  0
  135.1770   77.2830  223.2220 Cl  0  0  0  0  0  0  0  0  0  0  0  0
  137.2950   75.7100  222.4870 C   0  0  0  0  0  0  0  0  0  0  0  0
  136.1720   74.3500  222.5690 Cl  0  0  0  0  0  0  0  0  0  0  0  0
  138.6100   75.4640  222.1330 C   0  0  0  0  0  0  0  0  0  0  0  0
  144.3800   74.4960  220.8150 N   0  0  0  0  0  0  0  0  0  0  0  0
  146.1486   73.3656  222.8576 H   0  0  0  0  0  0  0  0  0  0  0  0
  146.9319   72.4729  221.5099 H   0  0  0  0  0  0  0  0  0  0  0  0
  146.9194   74.2691  221.5099 H   0  0  0  0  0  0  0  0  0  0  0  0
  145.1279   71.2058  220.7421 H   0  0  0  0  0  0  0  0  0  0  0  0
  142.9577   71.2362  219.4952 H   0  0  0  0  0  0  0  0  0  0  0  0
  141.3190   74.2592  218.3092 H   0  0  0  0  0  0  0  0  0  0  0  0
  141.3940   72.4494  218.2797 H   0  0  0  0  0  0  0  0  0  0  0  0
  140.0730   74.0360  220.5280 H   0  0  0  0  0  0  0  0  0  0  0  0
  137.8734   73.1312  220.9569 H   0  0  0  0  0  0  0  0  0  0  0  0
  137.3647   71.5797  220.2037 H   0  0  0  0  0  0  0  0  0  0  0  0
  138.1340   70.4730  222.1710 H   0  0  0  0  0  0  0  0  0  0  0  0
  141.0377   72.9277  224.7329 H   0  0  0  0  0  0  0  0  0  0  0  0
  141.7570   71.8673  226.8284 H   0  0  0  0  0  0  0  0  0  0  0  0
  141.7372   69.9374  228.2441 H   0  0  0  0  0  0  0  0  0  0  0  0
  139.5987   66.4077  227.0370 H   0  0  0  0  0  0  0  0  0  0  0  0
  138.8955   67.5252  224.9244 H   0  0  0  0  0  0  0  0  0  0  0  0
  143.0532   76.4900  220.6302 H   0  0  0  0  0  0  0  0  0  0  0  0
  142.6461   77.3787  218.4465 H   0  0  0  0  0  0  0  0  0  0  0  0
  143.3910   75.8115  217.9823 H   0  0  0  0  0  0  0  0  0  0  0  0
  141.6038   75.9914  217.9823 H   0  0  0  0  0  0  0  0  0  0  0  0
  140.5110   76.3850  219.7290 H   0  0  0  0  0  0  0  0  0  0  0  0
  141.4060   75.7407  222.4115 H   0  0  0  0  0  0  0  0  0  0  0  0
  141.4642   78.2965  222.6860 H   0  0  0  0  0  0  0  0  0  0  0  0
  142.3108   77.9925  221.1312 H   0  0  0  0  0  0  0  0  0  0  0  0
  140.5896   78.5065  221.1312 H   0  0  0  0  0  0  0  0  0  0  0  0
  139.7289   78.6877  222.3145 H   0  0  0  0  0  0  0  0  0  0  0  0
  137.3371   79.0792  222.9469 H   0  0  0  0  0  0  0  0  0  0  0  0
  138.9601   74.4464  221.9054 H   0  0  0  0  0  0  0  0  0  0  0  0
  1  2  1  0
  2  3  2  0
  3  4  1  0
  4  5  2  0
  5  6  1  0
  6  7  1  0
  7  8  1  0
  8  9  2  0
  8 10  1  0
 10 11  1  0
 11 12  1  0
 12 13  2  0
 12 14  1  0
 14 15  2  0
 15 16  1  0
 16 17  2  0
 17 18  1  0
 18 19  2  0
 19 20  1  0
 19 21  1  0
 21 22  2  0
 22 23  1  0
 23 24  2  0
  5 25  1  0
 25 26  1  0
 26 27  1  0
 26 28  1  0
 28 29  1  0
 29 30  1  0
 29 31  1  0
 31 32  2  0
 32 33  1  0
 33 34  2  0
 34 35  1  0
 34 36  1  0
 36 37  1  0
 36 38  2  0
 25 39  2  0
 39  2  1  0
 24 14  1  0
 38 31  1  0
 23 17  1  0
  1 40  1  0
  1 41  1  0
  1 42  1  0
  3 43  1  0
  4 44  1  0
  6 45  1  0
  6 46  1  0
  7 47  1  0
 10 48  1  0
 10 49  1  0
 11 50  1  0
 15 51  1  0
 16 52  1  0
 18 53  1  0
 21 54  1  0
 22 55  1  0
 26 56  1  1
 27 57  1  0
 27 58  1  0
 27 59  1  0
 28 60  1  0
 29 61  1  1
 30 62  1  0
 30 63  1  0
 30 64  1  0
 32 65  1  0
 33 66  1  0
 38 67  1  0
M  END
>  <smiles>  (23) 
Cc1ccc(CNC(=O)CNC(=O)c2ccc3cc(F)ccc3n2)c([C@@H](C)NC(C)c2ccc(Cl)c(Cl)c2)n1

>  <score_type>  (23) 
oracle

>  <origin>  (23) 
autodockgpu

>  <m_score__min__energy>  (23) 
-11.02

>  <m_primary>  (23) 
energy

>  <meeko>  (23) 
{"free_energy": -8.64, "intermolecular_energy": -11.33, "internal_energy": -4.22, "cluster_size": 2, "cluster_id": 5, "rank_in_cluster": 1}

>  <energy>  (23) 
-10.42

>  <cluster_rmsd>  (23) 
1.98

>  <rmsd>  (23) 
269.8

>  <cluster>  (23) 
1

$$$$

     RDKit          3D

 67 70  0  0  1  0  0  0  0  0999 V2000
  146.1720   73.3520  221.5610 C   0  0  0  0  0  0  0  0  0  0  0  0
  145.1650   73.6290  220.4850 C   0  0  0  0  0  0  0  0  0  0  0  0
  145.5160   73.3280  219.1840 C   0  0  0  0  0  0  0  0  0  0  0  0
  144.5640   73.5990  218.2180 C   0  0  0  0  0  0  0  0  0  0  0  0
  143.3170   74.1460  218.5540 C   0  0  0  0  0  0  0  0  0  0  0  0
  142.3310   74.4190  217.4650 C   0  0  0  0  0  0  0  0  0  0  0  0
  142.2220   75.8450  217.1860 N   0  0  0  0  0  0  0  0  0  0  0  0
  143.0140   76.4570  216.1790 C   0  0  0  0  0  0  0  0  0  0  0  0
  143.8400   75.8130  215.4840 O   0  0  0  0  0  0  0  0  0  0  0  0
  142.8940   77.9150  215.9000 C   0  0  0  0  0  0  0  0  0  0  0  0
  142.9400   78.6570  217.1440 N   0  0  0  0  0  0  0  0  0  0  0  0
  141.7240   78.8550  217.8930 C   0  0  0  0  0  0  0  0  0  0  0  0
  140.6200   78.3900  217.4730 O   0  0  0  0  0  0  0  0  0  0  0  0
  141.7640   79.5990  219.1440 C   0  0  0  0  0  0  0  0  0  0  0  0
  141.4040   80.9270  219.1620 C   0  0  0  0  0  0  0  0  0  0  0  0
  141.4060   81.7140  220.2820 C   0  0  0  0  0  0  0  0  0  0  0  0
  141.7990   81.1200  221.4700 C   0  0  0  0  0  0  0  0  0  0  0  0
  141.8150   81.8710  222.6200 C   0  0  0  0  0  0  0  0  0  0  0  0
  142.2040   81.2910  223.8090 C   0  0  0  0  0  0  0  0  0  0  0  0
  142.2250   82.0290  224.9610 F   0  0  0  0  0  0  0  0  0  0  0  0
  142.5740   79.9490  223.8260 C   0  0  0  0  0  0  0  0  0  0  0  0
  142.5590   79.1820  222.6620 C   0  0  0  0  0  0  0  0  0  0  0  0
  142.1660   79.7720  221.4650 C   0  0  0  0  0  0  0  0  0  0  0  0
  142.1400   79.0570  220.3180 N   0  0  0  0  0  0  0  0  0  0  0  0
  143.0140   74.4340  219.8930 C   0  0  0  0  0  0  0  0  0  0  0  0
  141.7130   74.9800  220.2450 C   0  0  1  0  0  0  0  0  0  0  0  0
  141.3890   74.7690  221.7350 C   0  0  0  0  0  0  0  0  0  0  0  0
  141.4180   76.3210  219.9170 N   0  0  0  0  0  0  0  0  0  0  0  0
  140.0660   76.6970  219.7140 C   0  0  1  0  0  0  0  0  0  0  0  0
  139.2420   75.4190  220.0440 C   0  0  0  0  0  0  0  0  0  0  0  0
  139.5240   77.6770  220.7010 C   0  0  0  0  0  0  0  0  0  0  0  0
  139.7570   77.3630  222.0470 C   0  0  0  0  0  0  0  0  0  0  0  0
  139.2910   78.2140  223.0480 C   0  0  0  0  0  0  0  0  0  0  0  0
  138.6060   79.3560  222.6870 C   0  0  0  0  0  0  0  0  0  0  0  0
  138.0330   80.4050  223.9500 Cl  0  0  0  0  0  0  0  0  0  0  0  0
  138.3890   79.6420  221.3440 C   0  0  0  0  0  0  0  0  0  0  0  0
  137.5100   81.1100  220.9080 Cl  0  0  0  0  0  0  0  0  0  0  0  0
  138.8410   78.8140  220.3310 C   0  0  0  0  0  0  0  0  0  0  0  0
  143.9710   74.1520  220.7870 N   0  0  0  0  0  0  0  0  0  0  0  0
  145.7007   73.4816  222.5464 H   0  0  0  0  0  0  0  0  0  0  0  0
  146.5388   72.3196  221.4629 H   0  0  0  0  0  0  0  0  0  0  0  0
  147.0152   74.0516  221.4629 H   0  0  0  0  0  0  0  0  0  0  0  0
  146.4961   72.8976  218.9305 H   0  0  0  0  0  0  0  0  0  0  0  0
  144.7897   73.3809  217.1637 H   0  0  0  0  0  0  0  0  0  0  0  0
  142.6556   73.9001  216.5510 H   0  0  0  0  0  0  0  0  0  0  0  0
  141.3459   74.0561  217.7935 H   0  0  0  0  0  0  0  0  0  0  0  0
  141.5500   76.4570  217.7270 H   0  0  0  0  0  0  0  0  0  0  0  0
  143.7255   78.2331  215.2538 H   0  0  0  0  0  0  0  0  0  0  0  0
  141.9368   78.1111  215.3947 H   0  0  0  0  0  0  0  0  0  0  0  0
  143.8390   79.0620  217.5280 H   0  0  0  0  0  0  0  0  0  0  0  0
  141.0937   81.3872  218.2123 H   0  0  0  0  0  0  0  0  0  0  0  0
  141.1084   82.7722  220.2404 H   0  0  0  0  0  0  0  0  0  0  0  0
  141.5189   82.9301  222.5926 H   0  0  0  0  0  0  0  0  0  0  0  0
  142.8836   79.4858  224.7745 H   0  0  0  0  0  0  0  0  0  0  0  0
  142.8544   78.1228  222.6897 H   0  0  0  0  0  0  0  0  0  0  0  0
  141.0699   74.3881  219.5771 H   0  0  0  0  0  0  0  0  0  0  0  0
  142.1530   75.2666  222.3504 H   0  0  0  0  0  0  0  0  0  0  0  0
  140.4011   75.1974  221.9597 H   0  0  0  0  0  0  0  0  0  0  0  0
  141.3814   73.6922  221.9597 H   0  0  0  0  0  0  0  0  0  0  0  0
  141.8850   77.0210  220.5290 H   0  0  0  0  0  0  0  0  0  0  0  0
  140.0054   77.1249  218.7025 H   0  0  0  0  0  0  0  0  0  0  0  0
  139.1670   75.3027  221.1353 H   0  0  0  0  0  0  0  0  0  0  0  0
  138.2334   75.5121  219.6150 H   0  0  0  0  0  0  0  0  0  0  0  0
  139.7431   74.5387  219.6150 H   0  0  0  0  0  0  0  0  0  0  0  0
  140.3061   76.4476  222.3127 H   0  0  0  0  0  0  0  0  0  0  0  0
  139.4665   77.9789  224.1082 H   0  0  0  0  0  0  0  0  0  0  0  0
  138.6618   79.0547  219.2727 H   0  0  0  0  0  0  0  0  0  0  0  0
  1  2  1  0
  2  3  2  0
  3  4  1  0
  4  5  2  0
  5  6  1  0
  6  7  1  0
  7  8  1  0
  8  9  2  0
  8 10  1  0
 10 11  1  0
 11 12  1  0
 12 13  2  0
 12 14  1  0
 14 15  2  0
 15 16  1  0
 16 17  2  0
 17 18  1  0
 18 19  2  0
 19 20  1  0
 19 21  1  0
 21 22  2  0
 22 23  1  0
 23 24  2  0
  5 25  1  0
 25 26  1  0
 26 27  1  0
 26 28  1  0
 28 29  1  0
 29 30  1  0
 29 31  1  0
 31 32  2  0
 32 33  1  0
 33 34  2  0
 34 35  1  0
 34 36  1  0
 36 37  1  0
 36 38  2  0
 25 39  2  0
 39  2  1  0
 24 14  1  0
 38 31  1  0
 23 17  1  0
  1 40  1  0
  1 41  1  0
  1 42  1  0
  3 43  1  0
  4 44  1  0
  6 45  1  0
  6 46  1  0
  7 47  1  0
 10 48  1  0
 10 49  1  0
 11 50  1  0
 15 51  1  0
 16 52  1  0
 18 53  1  0
 21 54  1  0
 22 55  1  0
 26 56  1  6
 27 57  1  0
 27 58  1  0
 27 59  1  0
 28 60  1  0
 29 61  1  6
 30 62  1  0
 30 63  1  0
 30 64  1  0
 32 65  1  0
 33 66  1  0
 38 67  1  0
M  END
>  <smiles>  (24) 
Cc1ccc(CNC(=O)CNC(=O)c2ccc3cc(F)ccc3n2)c([C@@H](C)NC(C)c2ccc(Cl)c(Cl)c2)n1

>  <score_type>  (24) 
oracle

>  <origin>  (24) 
autodockgpu

>  <m_score__min__energy>  (24) 
-11.02

>  <m_primary>  (24) 
energy

>  <meeko>  (24) 
{"free_energy": -6.86, "intermolecular_energy": -9.55, "internal_energy": -5.89, "cluster_size": 1, "cluster_id": 11, "rank_in_cluster": 1}

>  <energy>  (24) 
-9.51

>  <cluster_rmsd>  (24) 
1.59

>  <rmsd>  (24) 
269.2

>  <cluster>  (24) 
1

$$$$

     RDKit          3D

 67 70  0  0  1  0  0  0  0  0999 V2000
  138.0860   79.8660  218.5230 C   0  0  0  0  0  0  0  0  0  0  0  0
  137.8650   78.4450  218.9470 C   0  0  0  0  0  0  0  0  0  0  0  0
  137.2750   77.5870  218.0410 C   0  0  0  0  0  0  0  0  0  0  0  0
  137.0850   76.2850  218.4680 C   0  0  0  0  0  0  0  0  0  0  0  0
  137.4760   75.8720  219.7490 C   0  0  0  0  0  0  0  0  0  0  0  0
  137.2430   74.4530  220.1530 C   0  0  0  0  0  0  0  0  0  0  0  0
  138.4860   73.6950  220.1880 N   0  0  0  0  0  0  0  0  0  0  0  0
  138.4820   72.2870  220.3680 C   0  0  0  0  0  0  0  0  0  0  0  0
  137.4200   71.6270  220.5060 O   0  0  0  0  0  0  0  0  0  0  0  0
  139.7580   71.5200  220.4000 C   0  0  0  0  0  0  0  0  0  0  0  0
  139.9290   70.9080  221.7020 N   0  0  0  0  0  0  0  0  0  0  0  0
  140.1840   71.7460  222.8480 C   0  0  0  0  0  0  0  0  0  0  0  0
  140.2620   73.0070  222.7250 O   0  0  0  0  0  0  0  0  0  0  0  0
  140.3550   71.1370  224.1590 C   0  0  0  0  0  0  0  0  0  0  0  0
  140.8430   71.8890  225.2030 C   0  0  0  0  0  0  0  0  0  0  0  0
  141.0400   71.4140  226.4720 C   0  0  0  0  0  0  0  0  0  0  0  0
  140.7240   70.0860  226.7060 C   0  0  0  0  0  0  0  0  0  0  0  0
  140.9040   69.5660  227.9640 C   0  0  0  0  0  0  0  0  0  0  0  0
  140.5910   68.2450  228.2090 C   0  0  0  0  0  0  0  0  0  0  0  0
  140.7680   67.7160  229.4590 F   0  0  0  0  0  0  0  0  0  0  0  0
  140.0950   67.4580  227.1740 C   0  0  0  0  0  0  0  0  0  0  0  0
  139.9090   67.9790  225.8950 C   0  0  0  0  0  0  0  0  0  0  0  0
  140.2270   69.3130  225.6530 C   0  0  0  0  0  0  0  0  0  0  0  0
  140.0590   69.8510  224.4250 N   0  0  0  0  0  0  0  0  0  0  0  0
  138.0720   76.7870  220.6310 C   0  0  0  0  0  0  0  0  0  0  0  0
  138.4990   76.3540  221.9520 C   0  0  1  0  0  0  0  0  0  0  0  0
  137.3040   75.9400  222.8310 C   0  0  0  0  0  0  0  0  0  0  0  0
  139.4910   75.3560  222.0610 N   0  0  0  0  0  0  0  0  0  0  0  0
  140.8560   75.7340  221.9880 C   0  0  1  0  0  0  0  0  0  0  0  0
  141.3390   75.2190  220.6010 C   0  0  0  0  0  0  0  0  0  0  0  0
  141.1030   77.2020  221.8740 C   0  0  0  0  0  0  0  0  0  0  0  0
  141.0890   77.9070  223.0850 C   0  0  0  0  0  0  0  0  0  0  0  0
  141.3100   79.2840  223.0880 C   0  0  0  0  0  0  0  0  0  0  0  0
  141.5400   79.9250  221.8880 C   0  0  0  0  0  0  0  0  0  0  0  0
  141.8130   81.6420  221.9120 Cl  0  0  0  0  0  0  0  0  0  0  0  0
  141.5490   79.1990  220.7020 C   0  0  0  0  0  0  0  0  0  0  0  0
  141.8450   80.0440  219.1800 Cl  0  0  0  0  0  0  0  0  0  0  0  0
  141.3320   77.8330  220.6720 C   0  0  0  0  0  0  0  0  0  0  0  0
  138.2310   78.0340  220.1670 N   0  0  0  0  0  0  0  0  0  0  0  0
  138.1851   80.5033  219.4141 H   0  0  0  0  0  0  0  0  0  0  0  0
  139.0050   79.9306  217.9219 H   0  0  0  0  0  0  0  0  0  0  0  0
  137.2300   80.2066  217.9219 H   0  0  0  0  0  0  0  0  0  0  0  0
  136.9731   77.9195  217.0369 H   0  0  0  0  0  0  0  0  0  0  0  0
  136.6171   75.5583  217.7876 H   0  0  0  0  0  0  0  0  0  0  0  0
  136.7867   74.4370  221.1538 H   0  0  0  0  0  0  0  0  0  0  0  0
  136.5774   73.9886  219.4106 H   0  0  0  0  0  0  0  0  0  0  0  0
  139.4220   74.1760  220.0780 H   0  0  0  0  0  0  0  0  0  0  0  0
  139.7327   70.7364  219.6284 H   0  0  0  0  0  0  0  0  0  0  0  0
  140.5980   72.2033  220.2062 H   0  0  0  0  0  0  0  0  0  0  0  0
  139.8730   69.8610  221.8470 H   0  0  0  0  0  0  0  0  0  0  0  0
  141.0914   72.9421  225.0048 H   0  0  0  0  0  0  0  0  0  0  0  0
  141.4325   72.0596  227.2715 H   0  0  0  0  0  0  0  0  0  0  0  0
  141.2961   70.2000  228.7729 H   0  0  0  0  0  0  0  0  0  0  0  0
  139.8450   66.4047  227.3692 H   0  0  0  0  0  0  0  0  0  0  0  0
  139.5160   67.3446  225.0869 H   0  0  0  0  0  0  0  0  0  0  0  0
  138.9946   77.2707  222.3040 H   0  0  0  0  0  0  0  0  0  0  0  0
  137.5788   76.0352  223.8919 H   0  0  0  0  0  0  0  0  0  0  0  0
  136.4459   76.5932  222.6145 H   0  0  0  0  0  0  0  0  0  0  0  0
  137.0339   74.8959  222.6145 H   0  0  0  0  0  0  0  0  0  0  0  0
  139.3540   74.7050  222.8620 H   0  0  0  0  0  0  0  0  0  0  0  0
  141.3397   75.3505  222.8985 H   0  0  0  0  0  0  0  0  0  0  0  0
  142.0850   74.4235  220.7447 H   0  0  0  0  0  0  0  0  0  0  0  0
  140.4816   74.8203  220.0390 H   0  0  0  0  0  0  0  0  0  0  0  0
  141.7918   76.0491  220.0390 H   0  0  0  0  0  0  0  0  0  0  0  0
  140.9043   77.3759  224.0304 H   0  0  0  0  0  0  0  0  0  0  0  0
  141.3011   79.8497  224.0314 H   0  0  0  0  0  0  0  0  0  0  0  0
  141.3420   77.2732  219.7252 H   0  0  0  0  0  0  0  0  0  0  0  0
  1  2  1  0
  2  3  2  0
  3  4  1  0
  4  5  2  0
  5  6  1  0
  6  7  1  0
  7  8  1  0
  8  9  2  0
  8 10  1  0
 10 11  1  0
 11 12  1  0
 12 13  2  0
 12 14  1  0
 14 15  2  0
 15 16  1  0
 16 17  2  0
 17 18  1  0
 18 19  2  0
 19 20  1  0
 19 21  1  0
 21 22  2  0
 22 23  1  0
 23 24  2  0
  5 25  1  0
 25 26  1  0
 26 27  1  0
 26 28  1  0
 28 29  1  0
 29 30  1  0
 29 31  1  0
 31 32  2  0
 32 33  1  0
 33 34  2  0
 34 35  1  0
 34 36  1  0
 36 37  1  0
 36 38  2  0
 25 39  2  0
 39  2  1  0
 24 14  1  0
 38 31  1  0
 23 17  1  0
  1 40  1  0
  1 41  1  0
  1 42  1  0
  3 43  1  0
  4 44  1  0
  6 45  1  0
  6 46  1  0
  7 47  1  0
 10 48  1  0
 10 49  1  0
 11 50  1  0
 15 51  1  0
 16 52  1  0
 18 53  1  0
 21 54  1  0
 22 55  1  0
 26 56  1  1
 27 57  1  0
 27 58  1  0
 27 59  1  0
 28 60  1  0
 29 61  1  1
 30 62  1  0
 30 63  1  0
 30 64  1  0
 32 65  1  0
 33 66  1  0
 38 67  1  0
M  END
>  <smiles>  (25) 
Cc1ccc(CNC(=O)CNC(=O)c2ccc3cc(F)ccc3n2)c([C@@H](C)NC(C)c2ccc(Cl)c(Cl)c2)n1

>  <score_type>  (25) 
oracle

>  <origin>  (25) 
autodockgpu

>  <m_score__min__energy>  (25) 
-11.02

>  <m_primary>  (25) 
energy

>  <meeko>  (25) 
{"free_energy": -8.22, "intermolecular_energy": -10.91, "internal_energy": -4.21, "cluster_size": 1, "cluster_id": 7, "rank_in_cluster": 1}

>  <energy>  (25) 
-9.91

>  <cluster_rmsd>  (25) 
0.0

>  <rmsd>  (25) 
269.46

>  <cluster>  (25) 
2

$$$$

     RDKit          3D

 67 70  0  0  1  0  0  0  0  0999 V2000
  134.7200   75.3670  225.9460 C   0  0  0  0  0  0  0  0  0  0  0  0
  135.2460   74.9100  224.6180 C   0  0  0  0  0  0  0  0  0  0  0  0
  134.7120   73.7580  224.0770 C   0  0  0  0  0  0  0  0  0  0  0  0
  135.2230   73.3670  222.8530 C   0  0  0  0  0  0  0  0  0  0  0  0
  136.2230   74.1070  222.2070 C   0  0  0  0  0  0  0  0  0  0  0  0
  136.7360   73.6310  220.8870 C   0  0  0  0  0  0  0  0  0  0  0  0
  138.1150   73.1720  220.9830 N   0  0  0  0  0  0  0  0  0  0  0  0
  138.5340   71.9720  220.3500 C   0  0  0  0  0  0  0  0  0  0  0  0
  137.7490   71.2510  219.6840 O   0  0  0  0  0  0  0  0  0  0  0  0
  139.9460   71.5120  220.4520 C   0  0  0  0  0  0  0  0  0  0  0  0
  140.1710   70.9040  221.7480 N   0  0  0  0  0  0  0  0  0  0  0  0
  140.1800   71.7360  222.9260 C   0  0  0  0  0  0  0  0  0  0  0  0
  139.9950   72.9890  222.8370 O   0  0  0  0  0  0  0  0  0  0  0  0
  140.4040   71.1310  224.2310 C   0  0  0  0  0  0  0  0  0  0  0  0
  140.8030   71.9150  225.2890 C   0  0  0  0  0  0  0  0  0  0  0  0
  141.0400   71.4460  226.5530 C   0  0  0  0  0  0  0  0  0  0  0  0
  140.8610   70.0890  226.7670 C   0  0  0  0  0  0  0  0  0  0  0  0
  141.0860   69.5740  228.0200 C   0  0  0  0  0  0  0  0  0  0  0  0
  140.9100   68.2240  228.2450 C   0  0  0  0  0  0  0  0  0  0  0  0
  141.1320   67.7000  229.4900 F   0  0  0  0  0  0  0  0  0  0  0  0
  140.5070   67.4030  227.1960 C   0  0  0  0  0  0  0  0  0  0  0  0
  140.2770   67.9200  225.9220 C   0  0  0  0  0  0  0  0  0  0  0  0
  140.4550   69.2820  225.7000 C   0  0  0  0  0  0  0  0  0  0  0  0
  140.2410   69.8170  224.4780 N   0  0  0  0  0  0  0  0  0  0  0  0
  136.7300   75.2720  222.8030 C   0  0  0  0  0  0  0  0  0  0  0  0
  137.7510   76.0530  222.1240 C   0  0  1  0  0  0  0  0  0  0  0  0
  137.8080   77.4990  222.6500 C   0  0  0  0  0  0  0  0  0  0  0  0
  139.0710   75.5560  222.0630 N   0  0  0  0  0  0  0  0  0  0  0  0
  140.0910   76.3790  221.5230 C   0  0  1  0  0  0  0  0  0  0  0  0
  140.9040   76.8710  222.7560 C   0  0  0  0  0  0  0  0  0  0  0  0
  141.1350   75.6620  220.7320 C   0  0  0  0  0  0  0  0  0  0  0  0
  141.5070   76.2800  219.5310 C   0  0  0  0  0  0  0  0  0  0  0  0
  142.4760   75.6900  218.7200 C   0  0  0  0  0  0  0  0  0  0  0  0
  143.0500   74.5020  219.1210 C   0  0  0  0  0  0  0  0  0  0  0  0
  144.2550   73.7810  218.0960 Cl  0  0  0  0  0  0  0  0  0  0  0  0
  142.6610   73.9110  220.3190 C   0  0  0  0  0  0  0  0  0  0  0  0
  143.4110   72.3910  220.8110 Cl  0  0  0  0  0  0  0  0  0  0  0  0
  141.7030   74.4760  221.1430 C   0  0  0  0  0  0  0  0  0  0  0  0
  136.2010   75.6050  223.9890 N   0  0  0  0  0  0  0  0  0  0  0  0
  135.2847   74.8764  226.7525 H   0  0  0  0  0  0  0  0  0  0  0  0
  134.8338   76.4579  226.0298 H   0  0  0  0  0  0  0  0  0  0  0  0
  133.6557   75.1019  226.0298 H   0  0  0  0  0  0  0  0  0  0  0  0
  133.9258   73.1844  224.5896 H   0  0  0  0  0  0  0  0  0  0  0  0
  134.8361   72.4547  222.3755 H   0  0  0  0  0  0  0  0  0  0  0  0
  136.1062   72.7995  220.5378 H   0  0  0  0  0  0  0  0  0  0  0  0
  136.7014   74.4729  220.1799 H   0  0  0  0  0  0  0  0  0  0  0  0
  138.8370   73.7240  221.5250 H   0  0  0  0  0  0  0  0  0  0  0  0
  140.1476   70.7735  219.6621 H   0  0  0  0  0  0  0  0  0  0  0  0
  140.6187   72.3742  220.3332 H   0  0  0  0  0  0  0  0  0  0  0  0
  140.3310   69.8640  221.8650 H   0  0  0  0  0  0  0  0  0  0  0  0
  140.9408   72.9910  225.1068 H   0  0  0  0  0  0  0  0  0  0  0  0
  141.3588   72.1176  227.3638 H   0  0  0  0  0  0  0  0  0  0  0  0
  141.4049   70.2342  228.8400 H   0  0  0  0  0  0  0  0  0  0  0  0
  140.3675   66.3267  227.3754 H   0  0  0  0  0  0  0  0  0  0  0  0
  139.9586   67.2593  225.1022 H   0  0  0  0  0  0  0  0  0  0  0  0
  137.3862   75.9856  221.0884 H   0  0  0  0  0  0  0  0  0  0  0  0
  137.8076   77.4893  223.7500 H   0  0  0  0  0  0  0  0  0  0  0  0
  138.7260   77.9850  222.2879 H   0  0  0  0  0  0  0  0  0  0  0  0
  136.9311   78.0557  222.2879 H   0  0  0  0  0  0  0  0  0  0  0  0
  139.4060   75.1270  222.9510 H   0  0  0  0  0  0  0  0  0  0  0  0
  139.5913   77.1206  220.8824 H   0  0  0  0  0  0  0  0  0  0  0  0
  140.3927   76.5616  223.6795 H   0  0  0  0  0  0  0  0  0  0  0  0
  141.9119   76.4311  222.7299 H   0  0  0  0  0  0  0  0  0  0  0  0
  140.9819   77.9679  222.7299 H   0  0  0  0  0  0  0  0  0  0  0  0
  141.0364   77.2272  219.2288 H   0  0  0  0  0  0  0  0  0  0  0  0
  142.7778   76.1650  217.7749 H   0  0  0  0  0  0  0  0  0  0  0  0
  141.4071   73.9973  222.0881 H   0  0  0  0  0  0  0  0  0  0  0  0
  1  2  1  0
  2  3  2  0
  3  4  1  0
  4  5  2  0
  5  6  1  0
  6  7  1  0
  7  8  1  0
  8  9  2  0
  8 10  1  0
 10 11  1  0
 11 12  1  0
 12 13  2  0
 12 14  1  0
 14 15  2  0
 15 16  1  0
 16 17  2  0
 17 18  1  0
 18 19  2  0
 19 20  1  0
 19 21  1  0
 21 22  2  0
 22 23  1  0
 23 24  2  0
  5 25  1  0
 25 26  1  0
 26 27  1  0
 26 28  1  0
 28 29  1  0
 29 30  1  0
 29 31  1  0
 31 32  2  0
 32 33  1  0
 33 34  2  0
 34 35  1  0
 34 36  1  0
 36 37  1  0
 36 38  2  0
 25 39  2  0
 39  2  1  0
 24 14  1  0
 38 31  1  0
 23 17  1  0
  1 40  1  0
  1 41  1  0
  1 42  1  0
  3 43  1  0
  4 44  1  0
  6 45  1  0
  6 46  1  0
  7 47  1  0
 10 48  1  0
 10 49  1  0
 11 50  1  0
 15 51  1  0
 16 52  1  0
 18 53  1  0
 21 54  1  0
 22 55  1  0
 26 56  1  6
 27 57  1  0
 27 58  1  0
 27 59  1  0
 28 60  1  0
 29 61  1  6
 30 62  1  0
 30 63  1  0
 30 64  1  0
 32 65  1  0
 33 66  1  0
 38 67  1  0
M  END
>  <smiles>  (26) 
Cc1ccc(CNC(=O)CNC(=O)c2ccc3cc(F)ccc3n2)c([C@@H](C)NC(C)c2ccc(Cl)c(Cl)c2)n1

>  <score_type>  (26) 
oracle

>  <origin>  (26) 
autodockgpu

>  <m_score__min__energy>  (26) 
-11.02

>  <m_primary>  (26) 
energy

>  <meeko>  (26) 
{"free_energy": -8.21, "intermolecular_energy": -10.89, "internal_energy": -4.93, "cluster_size": 2, "cluster_id": 8, "rank_in_cluster": 1}

>  <energy>  (26) 
-9.34

>  <cluster_rmsd>  (26) 
1.68

>  <rmsd>  (26) 
269.5

>  <cluster>  (26) 
2

$$$$

     RDKit          3D

 67 70  0  0  1  0  0  0  0  0999 V2000
  142.9380   80.7020  224.0470 C   0  0  0  0  0  0  0  0  0  0  0  0
  141.8900   80.0460  223.1990 C   0  0  0  0  0  0  0  0  0  0  0  0
  140.6160   79.9410  223.7180 C   0  0  0  0  0  0  0  0  0  0  0  0
  139.6760   79.3300  222.9080 C   0  0  0  0  0  0  0  0  0  0  0  0
  140.0100   78.8500  221.6340 C   0  0  0  0  0  0  0  0  0  0  0  0
  138.9510   78.1960  220.8080 C   0  0  0  0  0  0  0  0  0  0  0  0
  139.2970   76.8180  220.4880 N   0  0  0  0  0  0  0  0  0  0  0  0
  139.7130   75.9130  221.5000 C   0  0  0  0  0  0  0  0  0  0  0  0
  139.8060   76.2470  222.7080 O   0  0  0  0  0  0  0  0  0  0  0  0
  140.0620   74.5050  221.1640 C   0  0  0  0  0  0  0  0  0  0  0  0
  139.9390   73.6750  222.3460 N   0  0  0  0  0  0  0  0  0  0  0  0
  140.3660   72.2980  222.2890 C   0  0  0  0  0  0  0  0  0  0  0  0
  140.8430   71.8110  221.2180 O   0  0  0  0  0  0  0  0  0  0  0  0
  140.2460   71.4600  223.4730 C   0  0  0  0  0  0  0  0  0  0  0  0
  139.6580   70.2200  223.3760 C   0  0  0  0  0  0  0  0  0  0  0  0
  139.4980   69.3560  224.4250 C   0  0  0  0  0  0  0  0  0  0  0  0
  139.9630   69.7700  225.6620 C   0  0  0  0  0  0  0  0  0  0  0  0
  139.8240   68.9360  226.7440 C   0  0  0  0  0  0  0  0  0  0  0  0
  140.2850   69.3380  227.9800 C   0  0  0  0  0  0  0  0  0  0  0  0
  140.1520   68.5150  229.0650 F   0  0  0  0  0  0  0  0  0  0  0  0
  140.8850   70.5870  228.1130 C   0  0  0  0  0  0  0  0  0  0  0  0
  141.0290   71.4380  227.0190 C   0  0  0  0  0  0  0  0  0  0  0  0
  140.5630   71.0280  225.7730 C   0  0  0  0  0  0  0  0  0  0  0  0
  140.6860   71.8280  224.6910 N   0  0  0  0  0  0  0  0  0  0  0  0
  141.3230   78.9830  221.1560 C   0  0  0  0  0  0  0  0  0  0  0  0
  141.6650   78.5070  219.8250 C   0  0  1  0  0  0  0  0  0  0  0  0
  142.0910   79.6600  218.8980 C   0  0  0  0  0  0  0  0  0  0  0  0
  142.6060   77.4630  219.6890 N   0  0  0  0  0  0  0  0  0  0  0  0
  142.3700   76.4460  218.7290 C   0  0  1  0  0  0  0  0  0  0  0  0
  143.2930   76.8080  217.5290 C   0  0  0  0  0  0  0  0  0  0  0  0
  142.8690   75.0900  219.1040 C   0  0  0  0  0  0  0  0  0  0  0  0
  142.1260   74.0170  218.5960 C   0  0  0  0  0  0  0  0  0  0  0  0
  142.5100   72.7080  218.8870 C   0  0  0  0  0  0  0  0  0  0  0  0
  143.6220   72.4990  219.6760 C   0  0  0  0  0  0  0  0  0  0  0  0
  144.0850   70.8610  220.0290 Cl  0  0  0  0  0  0  0  0  0  0  0  0
  144.3410   73.5840  220.1660 C   0  0  0  0  0  0  0  0  0  0  0  0
  145.7620   73.2900  221.1720 Cl  0  0  0  0  0  0  0  0  0  0  0  0
  143.9820   74.8920  219.8910 C   0  0  0  0  0  0  0  0  0  0  0  0
  142.1920   79.5830  221.9800 N   0  0  0  0  0  0  0  0  0  0  0  0
  142.6971   80.5512  225.1096 H   0  0  0  0  0  0  0  0  0  0  0  0
  143.9195   80.2568  223.8268 H   0  0  0  0  0  0  0  0  0  0  0  0
  142.9664   81.7794  223.8268 H   0  0  0  0  0  0  0  0  0  0  0  0
  140.3624   80.3214  224.7185 H   0  0  0  0  0  0  0  0  0  0  0  0
  138.6438   79.2183  223.2715 H   0  0  0  0  0  0  0  0  0  0  0  0
  138.0043   78.2058  221.3680 H   0  0  0  0  0  0  0  0  0  0  0  0
  138.8549   78.7549  219.8655 H   0  0  0  0  0  0  0  0  0  0  0  0
  139.2450   76.4580  219.4940 H   0  0  0  0  0  0  0  0  0  0  0  0
  139.3791   74.1351  220.3850 H   0  0  0  0  0  0  0  0  0  0  0  0
  141.0982   74.4645  220.7971 H   0  0  0  0  0  0  0  0  0  0  0  0
  139.5460   74.0430  223.2570 H   0  0  0  0  0  0  0  0  0  0  0  0
  139.2919   69.9017  222.3888 H   0  0  0  0  0  0  0  0  0  0  0  0
  139.0203   68.3742  224.2913 H   0  0  0  0  0  0  0  0  0  0  0  0
  139.3472   67.9518  226.6254 H   0  0  0  0  0  0  0  0  0  0  0  0
  141.2519   70.9079  229.0991 H   0  0  0  0  0  0  0  0  0  0  0  0
  141.5054   72.4223  227.1386 H   0  0  0  0  0  0  0  0  0  0  0  0
  140.7076   78.0515  219.5319 H   0  0  0  0  0  0  0  0  0  0  0  0
  142.4089   80.5204  219.5052 H   0  0  0  0  0  0  0  0  0  0  0  0
  142.9267   79.3305  218.2632 H   0  0  0  0  0  0  0  0  0  0  0  0
  141.2418   79.9530  218.2632 H   0  0  0  0  0  0  0  0  0  0  0  0
  143.5930   77.7870  219.6160 H   0  0  0  0  0  0  0  0  0  0  0  0
  141.2819   76.4050  218.5726 H   0  0  0  0  0  0  0  0  0  0  0  0
  144.2547   77.1852  217.9069 H   0  0  0  0  0  0  0  0  0  0  0  0
  143.4662   75.9112  216.9161 H   0  0  0  0  0  0  0  0  0  0  0  0
  142.8103   77.5835  216.9161 H   0  0  0  0  0  0  0  0  0  0  0  0
  141.2420   74.2060  217.9692 H   0  0  0  0  0  0  0  0  0  0  0  0
  141.9355   71.8564  218.4938 H   0  0  0  0  0  0  0  0  0  0  0  0
  144.5621   75.7394  220.2851 H   0  0  0  0  0  0  0  0  0  0  0  0
  1  2  1  0
  2  3  2  0
  3  4  1  0
  4  5  2  0
  5  6  1  0
  6  7  1  0
  7  8  1  0
  8  9  2  0
  8 10  1  0
 10 11  1  0
 11 12  1  0
 12 13  2  0
 12 14  1  0
 14 15  2  0
 15 16  1  0
 16 17  2  0
 17 18  1  0
 18 19  2  0
 19 20  1  0
 19 21  1  0
 21 22  2  0
 22 23  1  0
 23 24  2  0
  5 25  1  0
 25 26  1  0
 26 27  1  0
 26 28  1  0
 28 29  1  0
 29 30  1  0
 29 31  1  0
 31 32  2  0
 32 33  1  0
 33 34  2  0
 34 35  1  0
 34 36  1  0
 36 37  1  0
 36 38  2  0
 25 39  2  0
 39  2  1  0
 24 14  1  0
 38 31  1  0
 23 17  1  0
  1 40  1  0
  1 41  1  0
  1 42  1  0
  3 43  1  0
  4 44  1  0
  6 45  1  0
  6 46  1  0
  7 47  1  0
 10 48  1  0
 10 49  1  0
 11 50  1  0
 15 51  1  0
 16 52  1  0
 18 53  1  0
 21 54  1  0
 22 55  1  0
 26 56  1  6
 27 57  1  0
 27 58  1  0
 27 59  1  0
 28 60  1  0
 29 61  1  6
 30 62  1  0
 30 63  1  0
 30 64  1  0
 32 65  1  0
 33 66  1  0
 38 67  1  0
M  END
>  <smiles>  (27) 
Cc1ccc(CNC(=O)CNC(=O)c2ccc3cc(F)ccc3n2)c([C@@H](C)NC(C)c2ccc(Cl)c(Cl)c2)n1

>  <score_type>  (27) 
oracle

>  <origin>  (27) 
autodockgpu

>  <m_score__min__energy>  (27) 
-11.02

>  <m_primary>  (27) 
energy

>  <meeko>  (27) 
{"free_energy": -10.79, "intermolecular_energy": -13.47, "internal_energy": -3.25, "cluster_size": 4, "cluster_id": 1, "rank_in_cluster": 2}

>  <energy>  (27) 
-9.24

>  <cluster_rmsd>  (27) 
0.5

>  <rmsd>  (27) 
269.3

>  <cluster>  (27) 
2

$$$$

     RDKit          3D

 67 70  0  0  1  0  0  0  0  0999 V2000
  136.7500   81.4130  223.0760 C   0  0  0  0  0  0  0  0  0  0  0  0
  137.7240   80.2780  222.9660 C   0  0  0  0  0  0  0  0  0  0  0  0
  137.2130   78.9980  222.9010 C   0  0  0  0  0  0  0  0  0  0  0  0
  138.1400   77.9760  222.8010 C   0  0  0  0  0  0  0  0  0  0  0  0
  139.5160   78.2390  222.7670 C   0  0  0  0  0  0  0  0  0  0  0  0
  140.4690   77.0930  222.6600 C   0  0  0  0  0  0  0  0  0  0  0  0
  139.7680   75.8340  222.4450 N   0  0  0  0  0  0  0  0  0  0  0  0
  139.4970   75.3600  221.1340 C   0  0  0  0  0  0  0  0  0  0  0  0
  139.8410   75.9930  220.1040 O   0  0  0  0  0  0  0  0  0  0  0  0
  138.7830   74.0710  220.9240 C   0  0  0  0  0  0  0  0  0  0  0  0
  138.8580   73.2680  222.1280 N   0  0  0  0  0  0  0  0  0  0  0  0
  139.8710   72.2460  222.2320 C   0  0  0  0  0  0  0  0  0  0  0  0
  140.6890   72.0440  221.2830 O   0  0  0  0  0  0  0  0  0  0  0  0
  139.9520   71.4370  223.4390 C   0  0  0  0  0  0  0  0  0  0  0  0
  139.5170   70.1310  223.4180 C   0  0  0  0  0  0  0  0  0  0  0  0
  139.5510   69.2870  224.4950 C   0  0  0  0  0  0  0  0  0  0  0  0
  140.0590   69.7940  225.6790 C   0  0  0  0  0  0  0  0  0  0  0  0
  140.1130   68.9830  226.7860 C   0  0  0  0  0  0  0  0  0  0  0  0
  140.6180   69.4770  227.9710 C   0  0  0  0  0  0  0  0  0  0  0  0
  140.6760   68.6770  229.0800 F   0  0  0  0  0  0  0  0  0  0  0  0
  141.0670   70.7930  228.0260 C   0  0  0  0  0  0  0  0  0  0  0  0
  141.0140   71.6210  226.9070 C   0  0  0  0  0  0  0  0  0  0  0  0
  140.5040   71.1180  225.7130 C   0  0  0  0  0  0  0  0  0  0  0  0
  140.4390   71.8930  224.6090 N   0  0  0  0  0  0  0  0  0  0  0  0
  139.9810   79.5620  222.8360 C   0  0  0  0  0  0  0  0  0  0  0  0
  141.4080   79.8370  222.7770 C   0  0  1  0  0  0  0  0  0  0  0  0
  142.1130   79.4820  224.0990 C   0  0  0  0  0  0  0  0  0  0  0  0
  142.1690   79.3020  221.7150 N   0  0  0  0  0  0  0  0  0  0  0  0
  141.5470   79.1060  220.4560 C   0  0  1  0  0  0  0  0  0  0  0  0
  141.8310   80.4140  219.6620 C   0  0  0  0  0  0  0  0  0  0  0  0
  142.1840   78.0740  219.5860 C   0  0  0  0  0  0  0  0  0  0  0  0
  142.3010   78.4190  218.2330 C   0  0  0  0  0  0  0  0  0  0  0  0
  142.8830   77.5240  217.3370 C   0  0  0  0  0  0  0  0  0  0  0  0
  143.3350   76.3080  217.8070 C   0  0  0  0  0  0  0  0  0  0  0  0
  144.0580   75.2040  216.6740 Cl  0  0  0  0  0  0  0  0  0  0  0  0
  143.2060   75.9920  219.1550 C   0  0  0  0  0  0  0  0  0  0  0  0
  143.7930   74.4300  219.7320 Cl  0  0  0  0  0  0  0  0  0  0  0  0
  142.6330   76.8630  220.0650 C   0  0  0  0  0  0  0  0  0  0  0  0
  139.0410   80.5120  222.9320 N   0  0  0  0  0  0  0  0  0  0  0  0
  136.5614   81.6328  224.1372 H   0  0  0  0  0  0  0  0  0  0  0  0
  137.1687   82.3043  222.5858 H   0  0  0  0  0  0  0  0  0  0  0  0
  135.8055   81.1345  222.5858 H   0  0  0  0  0  0  0  0  0  0  0  0
  136.1310   78.8015  222.9272 H   0  0  0  0  0  0  0  0  0  0  0  0
  137.7895   76.9347  222.7470 H   0  0  0  0  0  0  0  0  0  0  0  0
  141.1498   77.2720  221.8147 H   0  0  0  0  0  0  0  0  0  0  0  0
  141.0282   77.0198  223.6044 H   0  0  0  0  0  0  0  0  0  0  0  0
  139.4460   75.2420  223.2610 H   0  0  0  0  0  0  0  0  0  0  0  0
  137.7285   74.2722  220.6840 H   0  0  0  0  0  0  0  0  0  0  0  0
  139.2540   73.5255  220.0930 H   0  0  0  0  0  0  0  0  0  0  0  0
  138.1940   73.4030  222.9410 H   0  0  0  0  0  0  0  0  0  0  0  0
  139.1150   69.7394  222.4719 H   0  0  0  0  0  0  0  0  0  0  0  0
  139.1902   68.2504  224.4230 H   0  0  0  0  0  0  0  0  0  0  0  0
  139.7553   67.9444  226.7281 H   0  0  0  0  0  0  0  0  0  0  0  0
  141.4711   71.1866  228.9703 H   0  0  0  0  0  0  0  0  0  0  0  0
  141.3708   72.6598  226.9660 H   0  0  0  0  0  0  0  0  0  0  0  0
  141.3866   80.9186  222.5780 H   0  0  0  0  0  0  0  0  0  0  0  0
  141.4856   79.7979  224.9455 H   0  0  0  0  0  0  0  0  0  0  0  0
  142.2746   78.3950  224.1480 H   0  0  0  0  0  0  0  0  0  0  0  0
  143.0825   79.9994  224.1480 H   0  0  0  0  0  0  0  0  0  0  0  0
  143.0920   79.7630  221.5790 H   0  0  0  0  0  0  0  0  0  0  0  0
  140.5045   78.8202  220.6601 H   0  0  0  0  0  0  0  0  0  0  0  0
  142.0102   81.2392  220.3669 H   0  0  0  0  0  0  0  0  0  0  0  0
  142.7195   80.2731  219.0290 H   0  0  0  0  0  0  0  0  0  0  0  0
  140.9641   80.6542  219.0290 H   0  0  0  0  0  0  0  0  0  0  0  0
  141.9344   79.3938  217.8789 H   0  0  0  0  0  0  0  0  0  0  0  0
  142.9804   77.7829  216.2723 H   0  0  0  0  0  0  0  0  0  0  0  0
  142.5398   76.5988  221.1287 H   0  0  0  0  0  0  0  0  0  0  0  0
  1  2  1  0
  2  3  2  0
  3  4  1  0
  4  5  2  0
  5  6  1  0
  6  7  1  0
  7  8  1  0
  8  9  2  0
  8 10  1  0
 10 11  1  0
 11 12  1  0
 12 13  2  0
 12 14  1  0
 14 15  2  0
 15 16  1  0
 16 17  2  0
 17 18  1  0
 18 19  2  0
 19 20  1  0
 19 21  1  0
 21 22  2  0
 22 23  1  0
 23 24  2  0
  5 25  1  0
 25 26  1  0
 26 27  1  0
 26 28  1  0
 28 29  1  0
 29 30  1  0
 29 31  1  0
 31 32  2  0
 32 33  1  0
 33 34  2  0
 34 35  1  0
 34 36  1  0
 36 37  1  0
 36 38  2  0
 25 39  2  0
 39  2  1  0
 24 14  1  0
 38 31  1  0
 23 17  1  0
  1 40  1  0
  1 41  1  0
  1 42  1  0
  3 43  1  0
  4 44  1  0
  6 45  1  0
  6 46  1  0
  7 47  1  0
 10 48  1  0
 10 49  1  0
 11 50  1  0
 15 51  1  0
 16 52  1  0
 18 53  1  0
 21 54  1  0
 22 55  1  0
 26 56  1  6
 27 57  1  0
 27 58  1  0
 27 59  1  0
 28 60  1  0
 29 61  1  1
 30 62  1  0
 30 63  1  0
 30 64  1  0
 32 65  1  0
 33 66  1  0
 38 67  1  0
M  END
>  <smiles>  (28) 
Cc1ccc(CNC(=O)CNC(=O)c2ccc3cc(F)ccc3n2)c([C@@H](C)NC(C)c2ccc(Cl)c(Cl)c2)n1

>  <score_type>  (28) 
oracle

>  <origin>  (28) 
autodockgpu

>  <m_score__min__energy>  (28) 
-11.02

>  <m_primary>  (28) 
energy

>  <meeko>  (28) 
{"free_energy": -10.42, "intermolecular_energy": -13.11, "internal_energy": -2.48, "cluster_size": 4, "cluster_id": 1, "rank_in_cluster": 3}

>  <energy>  (28) 
-9.69

>  <cluster_rmsd>  (28) 
0.0

>  <rmsd>  (28) 
270.37

>  <cluster>  (28) 
3

$$$$

     RDKit          3D

 67 70  0  0  1  0  0  0  0  0999 V2000
  146.2700   73.3970  221.6690 C   0  0  0  0  0  0  0  0  0  0  0  0
  144.9920   73.3390  220.8880 C   0  0  0  0  0  0  0  0  0  0  0  0
  144.7380   72.1990  220.1530 C   0  0  0  0  0  0  0  0  0  0  0  0
  143.5510   72.1830  219.4440 C   0  0  0  0  0  0  0  0  0  0  0  0
  142.6630   73.2670  219.4790 C   0  0  0  0  0  0  0  0  0  0  0  0
  141.3970   73.1910  218.6890 C   0  0  0  0  0  0  0  0  0  0  0  0
  140.2700   72.7930  219.5220 N   0  0  0  0  0  0  0  0  0  0  0  0
  139.4680   71.6720  219.1830 C   0  0  0  0  0  0  0  0  0  0  0  0
  139.6820   70.9730  218.1600 O   0  0  0  0  0  0  0  0  0  0  0  0
  138.3190   71.2710  220.0410 C   0  0  0  0  0  0  0  0  0  0  0  0
  138.8090   70.7370  221.2960 N   0  0  0  0  0  0  0  0  0  0  0  0
  139.2280   71.6460  222.3350 C   0  0  0  0  0  0  0  0  0  0  0  0
  139.1730   72.9020  222.1590 O   0  0  0  0  0  0  0  0  0  0  0  0
  139.7190   71.1150  223.5980 C   0  0  0  0  0  0  0  0  0  0  0  0
  140.5350   71.8870  224.3930 C   0  0  0  0  0  0  0  0  0  0  0  0
  141.0490   71.4840  225.5960 C   0  0  0  0  0  0  0  0  0  0  0  0
  140.7180   70.2110  226.0300 C   0  0  0  0  0  0  0  0  0  0  0  0
  141.2100   69.7640  227.2310 C   0  0  0  0  0  0  0  0  0  0  0  0
  140.8860   68.4980  227.6740 C   0  0  0  0  0  0  0  0  0  0  0  0
  141.3710   68.0430  228.8700 F   0  0  0  0  0  0  0  0  0  0  0  0
  140.0630   67.6920  226.8940 C   0  0  0  0  0  0  0  0  0  0  0  0
  139.5610   68.1400  225.6730 C   0  0  0  0  0  0  0  0  0  0  0  0
  139.8900   69.4170  225.2310 C   0  0  0  0  0  0  0  0  0  0  0  0
  139.4200   69.8830  224.0530 N   0  0  0  0  0  0  0  0  0  0  0  0
  142.9720   74.4030  220.2440 C   0  0  0  0  0  0  0  0  0  0  0  0
  142.0410   75.5190  220.2990 C   0  0  1  0  0  0  0  0  0  0  0  0
  141.9850   76.2830  218.9640 C   0  0  0  0  0  0  0  0  0  0  0  0
  140.7170   75.2900  220.7310 N   0  0  0  0  0  0  0  0  0  0  0  0
  139.9020   76.4000  221.0670 C   0  0  1  0  0  0  0  0  0  0  0  0
  139.0090   75.9010  222.2400 C   0  0  0  0  0  0  0  0  0  0  0  0
  140.6210   77.5490  221.6950 C   0  0  0  0  0  0  0  0  0  0  0  0
  141.1070   77.3170  222.9880 C   0  0  0  0  0  0  0  0  0  0  0  0
  141.7940   78.3260  223.6620 C   0  0  0  0  0  0  0  0  0  0  0  0
  141.9800   79.5400  223.0340 C   0  0  0  0  0  0  0  0  0  0  0  0
  142.8390   80.7860  223.8900 Cl  0  0  0  0  0  0  0  0  0  0  0  0
  141.4870   79.7420  221.7490 C   0  0  0  0  0  0  0  0  0  0  0  0
  141.7400   81.3050  220.9680 Cl  0  0  0  0  0  0  0  0  0  0  0  0
  140.8030   78.7570  221.0590 C   0  0  0  0  0  0  0  0  0  0  0  0
  144.1340   74.3660  220.9100 N   0  0  0  0  0  0  0  0  0  0  0  0
  146.0428   73.3867  222.7452 H   0  0  0  0  0  0  0  0  0  0  0  0
  146.8933   72.5262  221.4175 H   0  0  0  0  0  0  0  0  0  0  0  0
  146.8118   74.3207  221.4175 H   0  0  0  0  0  0  0  0  0  0  0  0
  145.4394   71.3519  220.1323 H   0  0  0  0  0  0  0  0  0  0  0  0
  143.2979   71.2999  218.8390 H   0  0  0  0  0  0  0  0  0  0  0  0
  141.1879   74.1792  218.2533 H   0  0  0  0  0  0  0  0  0  0  0  0
  141.5273   72.4347  217.9009 H   0  0  0  0  0  0  0  0  0  0  0  0
  140.0240   73.3290  220.4000 H   0  0  0  0  0  0  0  0  0  0  0  0
  137.6869   72.1491  220.2393 H   0  0  0  0  0  0  0  0  0  0  0  0
  137.7292   70.5004  219.5229 H   0  0  0  0  0  0  0  0  0  0  0  0
  138.8720   69.6970  221.4820 H   0  0  0  0  0  0  0  0  0  0  0  0
  140.7915   72.8960  224.0378 H   0  0  0  0  0  0  0  0  0  0  0  0
  141.6971   72.1429  226.1925 H   0  0  0  0  0  0  0  0  0  0  0  0
  141.8596   70.4121  227.8375 H   0  0  0  0  0  0  0  0  0  0  0  0
  139.8037   66.6830  227.2470 H   0  0  0  0  0  0  0  0  0  0  0  0
  138.9123   67.4911  225.0663 H   0  0  0  0  0  0  0  0  0  0  0  0
  142.4943   76.1063  221.1112 H   0  0  0  0  0  0  0  0  0  0  0  0
  141.9059   77.3621  219.1621 H   0  0  0  0  0  0  0  0  0  0  0  0
  142.9003   76.0821  218.3879 H   0  0  0  0  0  0  0  0  0  0  0  0
  141.1088   75.9508  218.3879 H   0  0  0  0  0  0  0  0  0  0  0  0
  140.1790   74.6360  220.1250 H   0  0  0  0  0  0  0  0  0  0  0  0
  139.4220   76.7328  220.1349 H   0  0  0  0  0  0  0  0  0  0  0  0
  139.4809   76.1647  223.1980 H   0  0  0  0  0  0  0  0  0  0  0  0
  138.0193   76.3768  222.1755 H   0  0  0  0  0  0  0  0  0  0  0  0
  138.8956   74.8088  222.1755 H   0  0  0  0  0  0  0  0  0  0  0  0
  140.9471   76.3415  223.4705 H   0  0  0  0  0  0  0  0  0  0  0  0
  142.1812   78.1567  224.6776 H   0  0  0  0  0  0  0  0  0  0  0  0
  140.4197   78.9317  220.0428 H   0  0  0  0  0  0  0  0  0  0  0  0
  1  2  1  0
  2  3  2  0
  3  4  1  0
  4  5  2  0
  5  6  1  0
  6  7  1  0
  7  8  1  0
  8  9  2  0
  8 10  1  0
 10 11  1  0
 11 12  1  0
 12 13  2  0
 12 14  1  0
 14 15  2  0
 15 16  1  0
 16 17  2  0
 17 18  1  0
 18 19  2  0
 19 20  1  0
 19 21  1  0
 21 22  2  0
 22 23  1  0
 23 24  2  0
  5 25  1  0
 25 26  1  0
 26 27  1  0
 26 28  1  0
 28 29  1  0
 29 30  1  0
 29 31  1  0
 31 32  2  0
 32 33  1  0
 33 34  2  0
 34 35  1  0
 34 36  1  0
 36 37  1  0
 36 38  2  0
 25 39  2  0
 39  2  1  0
 24 14  1  0
 38 31  1  0
 23 17  1  0
  1 40  1  0
  1 41  1  0
  1 42  1  0
  3 43  1  0
  4 44  1  0
  6 45  1  0
  6 46  1  0
  7 47  1  0
 10 48  1  0
 10 49  1  0
 11 50  1  0
 15 51  1  0
 16 52  1  0
 18 53  1  0
 21 54  1  0
 22 55  1  0
 26 56  1  1
 27 57  1  0
 27 58  1  0
 27 59  1  0
 28 60  1  0
 29 61  1  6
 30 62  1  0
 30 63  1  0
 30 64  1  0
 32 65  1  0
 33 66  1  0
 38 67  1  0
M  END
>  <smiles>  (29) 
Cc1ccc(CNC(=O)CNC(=O)c2ccc3cc(F)ccc3n2)c([C@@H](C)NC(C)c2ccc(Cl)c(Cl)c2)n1

>  <score_type>  (29) 
oracle

>  <origin>  (29) 
autodockgpu

>  <m_score__min__energy>  (29) 
-11.02

>  <m_primary>  (29) 
energy

>  <meeko>  (29) 
{"free_energy": -9.24, "intermolecular_energy": -11.93, "internal_energy": -3.81, "cluster_size": 3, "cluster_id": 2, "rank_in_cluster": 3}

>  <energy>  (29) 
-9.28

>  <cluster_rmsd>  (29) 
1.87

>  <rmsd>  (29) 
270.02

>  <cluster>  (29) 
3

$$$$

     RDKit          3D

 67 70  0  0  1  0  0  0  0  0999 V2000
  141.3660   82.2990  222.3390 C   0  0  0  0  0  0  0  0  0  0  0  0
  141.2870   80.8020  222.3300 C   0  0  0  0  0  0  0  0  0  0  0  0
  141.0500   80.1630  223.5300 C   0  0  0  0  0  0  0  0  0  0  0  0
  140.9850   78.7830  223.4830 C   0  0  0  0  0  0  0  0  0  0  0  0
  141.1520   78.0840  222.2790 C   0  0  0  0  0  0  0  0  0  0  0  0
  141.0740   76.5920  222.2930 C   0  0  0  0  0  0  0  0  0  0  0  0
  139.7700   76.1200  221.8470 N   0  0  0  0  0  0  0  0  0  0  0  0
  139.4500   74.7360  221.8510 C   0  0  0  0  0  0  0  0  0  0  0  0
  140.2630   73.8570  222.2330 O   0  0  0  0  0  0  0  0  0  0  0  0
  138.1140   74.2630  221.3950 C   0  0  0  0  0  0  0  0  0  0  0  0
  137.1340   74.4820  222.4400 N   0  0  0  0  0  0  0  0  0  0  0  0
  136.5510   75.7920  222.5980 C   0  0  0  0  0  0  0  0  0  0  0  0
  136.8890   76.7490  221.8360 O   0  0  0  0  0  0  0  0  0  0  0  0
  135.5660   76.0170  223.6450 C   0  0  0  0  0  0  0  0  0  0  0  0
  135.0740   77.2840  223.8610 C   0  0  0  0  0  0  0  0  0  0  0  0
  134.1470   77.6020  224.8160 C   0  0  0  0  0  0  0  0  0  0  0  0
  133.6810   76.5690  225.6130 C   0  0  0  0  0  0  0  0  0  0  0  0
  132.7490   76.8410  226.5840 C   0  0  0  0  0  0  0  0  0  0  0  0
  132.2780   75.8200  227.3830 C   0  0  0  0  0  0  0  0  0  0  0  0
  131.3490   76.0790  228.3550 F   0  0  0  0  0  0  0  0  0  0  0  0
  132.7550   74.5260  227.1910 C   0  0  0  0  0  0  0  0  0  0  0  0
  133.7000   74.2440  226.2070 C   0  0  0  0  0  0  0  0  0  0  0  0
  134.1730   75.2780  225.4040 C   0  0  0  0  0  0  0  0  0  0  0  0
  135.0890   75.0390  224.4400 N   0  0  0  0  0  0  0  0  0  0  0  0
  141.3910   78.7840  221.0870 C   0  0  0  0  0  0  0  0  0  0  0  0
  141.5410   78.0620  219.8340 C   0  0  1  0  0  0  0  0  0  0  0  0
  141.5720   79.0150  218.6260 C   0  0  0  0  0  0  0  0  0  0  0  0
  142.6010   77.1400  219.6940 N   0  0  0  0  0  0  0  0  0  0  0  0
  142.5190   76.1470  218.6840 C   0  0  1  0  0  0  0  0  0  0  0  0
  143.2420   76.7680  217.4540 C   0  0  0  0  0  0  0  0  0  0  0  0
  143.3310   74.9200  218.9320 C   0  0  0  0  0  0  0  0  0  0  0  0
  143.1640   73.8910  217.9950 C   0  0  0  0  0  0  0  0  0  0  0  0
  143.8790   72.7030  218.1360 C   0  0  0  0  0  0  0  0  0  0  0  0
  144.7410   72.5640  219.2050 C   0  0  0  0  0  0  0  0  0  0  0  0
  145.6230   71.0750  219.3650 Cl  0  0  0  0  0  0  0  0  0  0  0  0
  144.8860   73.6020  220.1200 C   0  0  0  0  0  0  0  0  0  0  0  0
  145.9960   73.4010  221.4780 Cl  0  0  0  0  0  0  0  0  0  0  0  0
  144.1890   74.7920  220.0020 C   0  0  0  0  0  0  0  0  0  0  0  0
  141.4440   80.1200  221.1900 N   0  0  0  0  0  0  0  0  0  0  0  0
  141.3850   82.6589  223.3783 H   0  0  0  0  0  0  0  0  0  0  0  0
  142.2824   82.6209  221.8227 H   0  0  0  0  0  0  0  0  0  0  0  0
  140.4886   82.7156  221.8227 H   0  0  0  0  0  0  0  0  0  0  0  0
  140.9203   80.7198  224.4698 H   0  0  0  0  0  0  0  0  0  0  0  0
  140.7983   78.2211  224.4101 H   0  0  0  0  0  0  0  0  0  0  0  0
  141.8481   76.1876  221.6243 H   0  0  0  0  0  0  0  0  0  0  0  0
  141.2298   76.2485  223.3263 H   0  0  0  0  0  0  0  0  0  0  0  0
  139.0300   76.7970  221.5100 H   0  0  0  0  0  0  0  0  0  0  0  0
  137.8175   74.8194  220.4936 H   0  0  0  0  0  0  0  0  0  0  0  0
  138.1673   73.1885  221.1658 H   0  0  0  0  0  0  0  0  0  0  0  0
  136.8270   73.7110  223.0970 H   0  0  0  0  0  0  0  0  0  0  0  0
  135.4516   78.0963  223.2225 H   0  0  0  0  0  0  0  0  0  0  0  0
  133.7873   78.6334  224.9453 H   0  0  0  0  0  0  0  0  0  0  0  0
  132.3799   77.8677  226.7240 H   0  0  0  0  0  0  0  0  0  0  0  0
  132.3789   73.7117  227.8278 H   0  0  0  0  0  0  0  0  0  0  0  0
  134.0678   73.2169  226.0663 H   0  0  0  0  0  0  0  0  0  0  0  0
  140.6372   77.4357  219.8641 H   0  0  0  0  0  0  0  0  0  0  0  0
  141.6059   80.0557  218.9808 H   0  0  0  0  0  0  0  0  0  0  0  0
  142.4638   78.8060  218.0169 H   0  0  0  0  0  0  0  0  0  0  0  0
  140.6685   78.8645  218.0169 H   0  0  0  0  0  0  0  0  0  0  0  0
  143.5450   77.5770  219.6750 H   0  0  0  0  0  0  0  0  0  0  0  0
  141.4576   75.8717  218.5968 H   0  0  0  0  0  0  0  0  0  0  0  0
  144.0343   77.4485  217.7994 H   0  0  0  0  0  0  0  0  0  0  0  0
  143.6866   75.9659  216.8465 H   0  0  0  0  0  0  0  0  0  0  0  0
  142.5162   77.3286  216.8465 H   0  0  0  0  0  0  0  0  0  0  0  0
  142.4707   74.0207  217.1509 H   0  0  0  0  0  0  0  0  0  0  0  0
  143.7582   71.8886  217.4065 H   0  0  0  0  0  0  0  0  0  0  0  0
  144.3153   75.6035  220.7338 H   0  0  0  0  0  0  0  0  0  0  0  0
  1  2  1  0
  2  3  2  0
  3  4  1  0
  4  5  2  0
  5  6  1  0
  6  7  1  0
  7  8  1  0
  8  9  2  0
  8 10  1  0
 10 11  1  0
 11 12  1  0
 12 13  2  0
 12 14  1  0
 14 15  2  0
 15 16  1  0
 16 17  2  0
 17 18  1  0
 18 19  2  0
 19 20  1  0
 19 21  1  0
 21 22  2  0
 22 23  1  0
 23 24  2  0
  5 25  1  0
 25 26  1  0
 26 27  1  0
 26 28  1  0
 28 29  1  0
 29 30  1  0
 29 31  1  0
 31 32  2  0
 32 33  1  0
 33 34  2  0
 34 35  1  0
 34 36  1  0
 36 37  1  0
 36 38  2  0
 25 39  2  0
 39  2  1  0
 24 14  1  0
 38 31  1  0
 23 17  1  0
  1 40  1  0
  1 41  1  0
  1 42  1  0
  3 43  1  0
  4 44  1  0
  6 45  1  0
  6 46  1  0
  7 47  1  0
 10 48  1  0
 10 49  1  0
 11 50  1  0
 15 51  1  0
 16 52  1  0
 18 53  1  0
 21 54  1  0
 22 55  1  0
 26 56  1  6
 27 57  1  0
 27 58  1  0
 27 59  1  0
 28 60  1  0
 29 61  1  6
 30 62  1  0
 30 63  1  0
 30 64  1  0
 32 65  1  0
 33 66  1  0
 38 67  1  0
M  END
>  <smiles>  (30) 
Cc1ccc(CNC(=O)CNC(=O)c2ccc3cc(F)ccc3n2)c([C@@H](C)NC(C)c2ccc(Cl)c(Cl)c2)n1

>  <score_type>  (30) 
oracle

>  <origin>  (30) 
autodockgpu

>  <m_score__min__energy>  (30) 
-11.02

>  <m_primary>  (30) 
energy

>  <meeko>  (30) 
{"free_energy": -9.23, "intermolecular_energy": -11.91, "internal_energy": -2.78, "cluster_size": 1, "cluster_id": 4, "rank_in_cluster": 1}

>  <energy>  (30) 
-9.23

>  <cluster_rmsd>  (30) 
0.0

>  <rmsd>  (30) 
269.19

>  <cluster>  (30) 
4

$$$$

     RDKit          3D

 67 70  0  0  1  0  0  0  0  0999 V2000
  142.9490   80.5530  224.0760 C   0  0  0  0  0  0  0  0  0  0  0  0
  141.9360   79.8680  223.2080 C   0  0  0  0  0  0  0  0  0  0  0  0
  140.6590   79.7160  223.7070 C   0  0  0  0  0  0  0  0  0  0  0  0
  139.7530   79.0790  222.8790 C   0  0  0  0  0  0  0  0  0  0  0  0
  140.1230   78.6200  221.6070 C   0  0  0  0  0  0  0  0  0  0  0  0
  139.0990   77.9360  220.7590 C   0  0  0  0  0  0  0  0  0  0  0  0
  139.4830   76.5630  220.4600 N   0  0  0  0  0  0  0  0  0  0  0  0
  139.6100   75.5960  221.4920 C   0  0  0  0  0  0  0  0  0  0  0  0
  139.4020   75.8680  222.7020 O   0  0  0  0  0  0  0  0  0  0  0  0
  140.0000   74.1940  221.1760 C   0  0  0  0  0  0  0  0  0  0  0  0
  139.8820   73.3740  222.3650 N   0  0  0  0  0  0  0  0  0  0  0  0
  140.3880   72.0230  222.3440 C   0  0  0  0  0  0  0  0  0  0  0  0
  140.9290   71.5500  221.2980 O   0  0  0  0  0  0  0  0  0  0  0  0
  140.2730   71.1950  223.5350 C   0  0  0  0  0  0  0  0  0  0  0  0
  139.6610   69.9650  223.4560 C   0  0  0  0  0  0  0  0  0  0  0  0
  139.5030   69.1100  224.5140 C   0  0  0  0  0  0  0  0  0  0  0  0
  139.9960   69.5240  225.7390 C   0  0  0  0  0  0  0  0  0  0  0  0
  139.8610   68.6990  226.8290 C   0  0  0  0  0  0  0  0  0  0  0  0
  140.3500   69.1000  228.0550 C   0  0  0  0  0  0  0  0  0  0  0  0
  140.2200   68.2860  229.1470 F   0  0  0  0  0  0  0  0  0  0  0  0
  140.9750   70.3390  228.1690 C   0  0  0  0  0  0  0  0  0  0  0  0
  141.1150   71.1800  227.0670 C   0  0  0  0  0  0  0  0  0  0  0  0
  140.6200   70.7710  225.8320 C   0  0  0  0  0  0  0  0  0  0  0  0
  140.7400   71.5620  224.7430 N   0  0  0  0  0  0  0  0  0  0  0  0
  141.4370   78.8010  221.1490 C   0  0  0  0  0  0  0  0  0  0  0  0
  141.8160   78.3450  219.8210 C   0  0  1  0  0  0  0  0  0  0  0  0
  142.3330   79.5030  218.9470 C   0  0  0  0  0  0  0  0  0  0  0  0
  142.7140   77.2630  219.6950 N   0  0  0  0  0  0  0  0  0  0  0  0
  142.3350   76.1460  218.9080 C   0  0  1  0  0  0  0  0  0  0  0  0
  142.6710   76.5550  217.4440 C   0  0  0  0  0  0  0  0  0  0  0  0
  143.1790   74.9270  219.0880 C   0  0  0  0  0  0  0  0  0  0  0  0
  142.9500   73.8980  218.1650 C   0  0  0  0  0  0  0  0  0  0  0  0
  143.6870   72.7180  218.2460 C   0  0  0  0  0  0  0  0  0  0  0  0
  144.6330   72.5880  219.2420 C   0  0  0  0  0  0  0  0  0  0  0  0
  145.5420   71.1090  219.3280 Cl  0  0  0  0  0  0  0  0  0  0  0  0
  144.8390   73.6270  220.1450 C   0  0  0  0  0  0  0  0  0  0  0  0
  146.0560   73.4370  221.4100 Cl  0  0  0  0  0  0  0  0  0  0  0  0
  144.1210   74.8080  220.0850 C   0  0  0  0  0  0  0  0  0  0  0  0
  142.2730   79.4240  221.9910 N   0  0  0  0  0  0  0  0  0  0  0  0
  142.6994   80.3842  225.1339 H   0  0  0  0  0  0  0  0  0  0  0  0
  143.9484   80.1446  223.8654 H   0  0  0  0  0  0  0  0  0  0  0  0
  142.9422   81.6326  223.8654 H   0  0  0  0  0  0  0  0  0  0  0  0
  140.3776   80.0805  224.7060 H   0  0  0  0  0  0  0  0  0  0  0  0
  138.7199   78.9292  223.2258 H   0  0  0  0  0  0  0  0  0  0  0  0
  138.1381   77.9297  221.2944 H   0  0  0  0  0  0  0  0  0  0  0  0
  139.0151   78.4851  219.8095 H   0  0  0  0  0  0  0  0  0  0  0  0
  139.6740   76.2540  219.4670 H   0  0  0  0  0  0  0  0  0  0  0  0
  139.3379   73.7983  220.3918 H   0  0  0  0  0  0  0  0  0  0  0  0
  141.0419   74.1765  220.8235 H   0  0  0  0  0  0  0  0  0  0  0  0
  139.4360   73.7300  223.2560 H   0  0  0  0  0  0  0  0  0  0  0  0
  139.2726   69.6472  222.4772 H   0  0  0  0  0  0  0  0  0  0  0  0
  139.0056   68.1361  224.3952 H   0  0  0  0  0  0  0  0  0  0  0  0
  139.3650   67.7227  226.7247 H   0  0  0  0  0  0  0  0  0  0  0  0
  141.3651   70.6595  229.1463 H   0  0  0  0  0  0  0  0  0  0  0  0
  141.6111   72.1562  227.1718 H   0  0  0  0  0  0  0  0  0  0  0  0
  140.8537   77.9405  219.4741 H   0  0  0  0  0  0  0  0  0  0  0  0
  142.6960   80.3161  219.5929 H   0  0  0  0  0  0  0  0  0  0  0  0
  143.1562   79.1438  218.3120 H   0  0  0  0  0  0  0  0  0  0  0  0
  141.5160   79.8761  218.3120 H   0  0  0  0  0  0  0  0  0  0  0  0
  143.6870   77.5440  219.4540 H   0  0  0  0  0  0  0  0  0  0  0  0
  141.2927   75.9130  219.1714 H   0  0  0  0  0  0  0  0  0  0  0  0
  143.3692   77.4049  217.4518 H   0  0  0  0  0  0  0  0  0  0  0  0
  143.1346   75.7044  216.9229 H   0  0  0  0  0  0  0  0  0  0  0  0
  141.7466   76.8447  216.9229 H   0  0  0  0  0  0  0  0  0  0  0  0
  142.1907   74.0212  217.3787 H   0  0  0  0  0  0  0  0  0  0  0  0
  143.5172   71.9029  217.5271 H   0  0  0  0  0  0  0  0  0  0  0  0
  144.2959   75.6203  220.8058 H   0  0  0  0  0  0  0  0  0  0  0  0
  1  2  1  0
  2  3  2  0
  3  4  1  0
  4  5  2  0
  5  6  1  0
  6  7  1  0
  7  8  1  0
  8  9  2  0
  8 10  1  0
 10 11  1  0
 11 12  1  0
 12 13  2  0
 12 14  1  0
 14 15  2  0
 15 16  1  0
 16 17  2  0
 17 18  1  0
 18 19  2  0
 19 20  1  0
 19 21  1  0
 21 22  2  0
 22 23  1  0
 23 24  2  0
  5 25  1  0
 25 26  1  0
 26 27  1  0
 26 28  1  0
 28 29  1  0
 29 30  1  0
 29 31  1  0
 31 32  2  0
 32 33  1  0
 33 34  2  0
 34 35  1  0
 34 36  1  0
 36 37  1  0
 36 38  2  0
 25 39  2  0
 39  2  1  0
 24 14  1  0
 38 31  1  0
 23 17  1  0
  1 40  1  0
  1 41  1  0
  1 42  1  0
  3 43  1  0
  4 44  1  0
  6 45  1  0
  6 46  1  0
  7 47  1  0
 10 48  1  0
 10 49  1  0
 11 50  1  0
 15 51  1  0
 16 52  1  0
 18 53  1  0
 21 54  1  0
 22 55  1  0
 26 56  1  6
 27 57  1  0
 27 58  1  0
 27 59  1  0
 28 60  1  0
 29 61  1  6
 30 62  1  0
 30 63  1  0
 30 64  1  0
 32 65  1  0
 33 66  1  0
 38 67  1  0
M  END
>  <smiles>  (31) 
Cc1ccc(CNC(=O)CNC(=O)c2ccc3cc(F)ccc3n2)c([C@@H](C)NC(C)c2ccc(Cl)c(Cl)c2)n1

>  <score_type>  (31) 
oracle

>  <origin>  (31) 
autodockgpu

>  <m_score__min__energy>  (31) 
-11.02

>  <m_primary>  (31) 
energy

>  <meeko>  (31) 
{"free_energy": -11.02, "intermolecular_energy": -13.71, "internal_energy": -3.01, "cluster_size": 4, "cluster_id": 1, "rank_in_cluster": 1}

>  <energy>  (31) 
-8.64

>  <cluster_rmsd>  (31) 
0.0

>  <rmsd>  (31) 
269.05

>  <cluster>  (31) 
5

$$$$

     RDKit          3D

 67 70  0  0  1  0  0  0  0  0999 V2000
  146.6440   73.3460  221.9730 C   0  0  0  0  0  0  0  0  0  0  0  0
  145.3590   73.4030  221.2050 C   0  0  0  0  0  0  0  0  0  0  0  0
  144.5910   72.2580  221.1500 C   0  0  0  0  0  0  0  0  0  0  0  0
  143.4130   72.3480  220.4310 C   0  0  0  0  0  0  0  0  0  0  0  0
  143.0310   73.5400  219.8000 C   0  0  0  0  0  0  0  0  0  0  0  0
  141.7470   73.5740  219.0360 C   0  0  0  0  0  0  0  0  0  0  0  0
  140.5980   73.3910  219.9120 N   0  0  0  0  0  0  0  0  0  0  0  0
  139.6220   74.4110  220.0630 C   0  0  0  0  0  0  0  0  0  0  0  0
  139.6960   75.5110  219.4600 O   0  0  0  0  0  0  0  0  0  0  0  0
  138.4490   74.2140  220.9590 C   0  0  0  0  0  0  0  0  0  0  0  0
  138.8560   73.4860  222.1450 N   0  0  0  0  0  0  0  0  0  0  0  0
  138.9650   72.0490  222.0880 C   0  0  0  0  0  0  0  0  0  0  0  0
  138.7080   71.4210  221.0150 O   0  0  0  0  0  0  0  0  0  0  0  0
  139.3740   71.3130  223.2750 C   0  0  0  0  0  0  0  0  0  0  0  0
  139.1920   69.9500  223.3310 C   0  0  0  0  0  0  0  0  0  0  0  0
  139.5410   69.1660  224.3970 C   0  0  0  0  0  0  0  0  0  0  0  0
  140.1160   69.8000  225.4850 C   0  0  0  0  0  0  0  0  0  0  0  0
  140.4840   69.0530  226.5780 C   0  0  0  0  0  0  0  0  0  0  0  0
  141.0580   69.6740  227.6680 C   0  0  0  0  0  0  0  0  0  0  0  0
  141.4280   68.9390  228.7620 F   0  0  0  0  0  0  0  0  0  0  0  0
  141.2570   71.0510  227.6430 C   0  0  0  0  0  0  0  0  0  0  0  0
  140.8860   71.8140  226.5380 C   0  0  0  0  0  0  0  0  0  0  0  0
  140.3070   71.1840  225.4410 C   0  0  0  0  0  0  0  0  0  0  0  0
  139.9360   71.8930  224.3520 N   0  0  0  0  0  0  0  0  0  0  0  0
  143.8500   74.6750  219.8880 C   0  0  0  0  0  0  0  0  0  0  0  0
  143.4430   75.9190  219.2540 C   0  0  1  0  0  0  0  0  0  0  0  0
  143.4200   75.7970  217.7200 C   0  0  0  0  0  0  0  0  0  0  0  0
  142.2430   76.5400  219.6640 N   0  0  0  0  0  0  0  0  0  0  0  0
  142.1680   77.9560  219.6630 C   0  0  1  0  0  0  0  0  0  0  0  0
  141.2280   78.3060  218.4730 C   0  0  0  0  0  0  0  0  0  0  0  0
  141.4360   78.5540  220.8200 C   0  0  0  0  0  0  0  0  0  0  0  0
  140.1200   78.1040  220.9930 C   0  0  0  0  0  0  0  0  0  0  0  0
  139.3510   78.6000  222.0450 C   0  0  0  0  0  0  0  0  0  0  0  0
  139.9080   79.5310  222.8980 C   0  0  0  0  0  0  0  0  0  0  0  0
  138.9340   80.1390  224.2030 Cl  0  0  0  0  0  0  0  0  0  0  0  0
  141.2170   79.9590  222.7010 C   0  0  0  0  0  0  0  0  0  0  0  0
  141.9070   81.1500  223.8070 Cl  0  0  0  0  0  0  0  0  0  0  0  0
  142.0010   79.4810  221.6660 C   0  0  0  0  0  0  0  0  0  0  0  0
  144.9790   74.5330  220.5970 N   0  0  0  0  0  0  0  0  0  0  0  0
  146.4274   73.3556  223.0514 H   0  0  0  0  0  0  0  0  0  0  0  0
  147.1843   72.4230  221.7158 H   0  0  0  0  0  0  0  0  0  0  0  0
  147.2639   74.2175  221.7158 H   0  0  0  0  0  0  0  0  0  0  0  0
  144.8980   71.3272  221.6493 H   0  0  0  0  0  0  0  0  0  0  0  0
  142.7617   71.4650  220.3526 H   0  0  0  0  0  0  0  0  0  0  0  0
  141.6585   74.5463  218.5293 H   0  0  0  0  0  0  0  0  0  0  0  0
  141.7584   72.7509  218.3063 H   0  0  0  0  0  0  0  0  0  0  0  0
  140.4630   72.4930  220.4550 H   0  0  0  0  0  0  0  0  0  0  0  0
  138.0445   75.1939  221.2525 H   0  0  0  0  0  0  0  0  0  0  0  0
  137.6766   73.6396  220.4265 H   0  0  0  0  0  0  0  0  0  0  0  0
  139.0770   73.9720  223.0580 H   0  0  0  0  0  0  0  0  0  0  0  0
  138.7351   69.4574  222.4600 H   0  0  0  0  0  0  0  0  0  0  0  0
  139.3719   68.0791  224.3896 H   0  0  0  0  0  0  0  0  0  0  0  0
  140.3217   67.9651  226.5839 H   0  0  0  0  0  0  0  0  0  0  0  0
  141.7156   71.5461  228.5116 H   0  0  0  0  0  0  0  0  0  0  0  0
  141.0489   72.9019  226.5329 H   0  0  0  0  0  0  0  0  0  0  0  0
  144.2349   76.5889  219.6201 H   0  0  0  0  0  0  0  0  0  0  0  0
  143.2231   74.7521  217.4382 H   0  0  0  0  0  0  0  0  0  0  0  0
  142.6276   76.4422  217.3127 H   0  0  0  0  0  0  0  0  0  0  0  0
  144.3929   76.1095  217.3127 H   0  0  0  0  0  0  0  0  0  0  0  0
  141.3880   76.1470  219.2200 H   0  0  0  0  0  0  0  0  0  0  0  0
  143.2033   78.3274  219.6525 H   0  0  0  0  0  0  0  0  0  0  0  0
  140.2634   78.6652  218.8611 H   0  0  0  0  0  0  0  0  0  0  0  0
  141.6915   79.0918  217.8584 H   0  0  0  0  0  0  0  0  0  0  0  0
  141.0647   77.4084  217.8584 H   0  0  0  0  0  0  0  0  0  0  0  0
  139.6952   77.3619  220.3010 H   0  0  0  0  0  0  0  0  0  0  0  0
  138.3171   78.2548  222.1927 H   0  0  0  0  0  0  0  0  0  0  0  0
  143.0352   79.8282  221.5249 H   0  0  0  0  0  0  0  0  0  0  0  0
  1  2  1  0
  2  3  2  0
  3  4  1  0
  4  5  2  0
  5  6  1  0
  6  7  1  0
  7  8  1  0
  8  9  2  0
  8 10  1  0
 10 11  1  0
 11 12  1  0
 12 13  2  0
 12 14  1  0
 14 15  2  0
 15 16  1  0
 16 17  2  0
 17 18  1  0
 18 19  2  0
 19 20  1  0
 19 21  1  0
 21 22  2  0
 22 23  1  0
 23 24  2  0
  5 25  1  0
 25 26  1  0
 26 27  1  0
 26 28  1  0
 28 29  1  0
 29 30  1  0
 29 31  1  0
 31 32  2  0
 32 33  1  0
 33 34  2  0
 34 35  1  0
 34 36  1  0
 36 37  1  0
 36 38  2  0
 25 39  2  0
 39  2  1  0
 24 14  1  0
 38 31  1  0
 23 17  1  0
  1 40  1  0
  1 41  1  0
  1 42  1  0
  3 43  1  0
  4 44  1  0
  6 45  1  0
  6 46  1  0
  7 47  1  0
 10 48  1  0
 10 49  1  0
 11 50  1  0
 15 51  1  0
 16 52  1  0
 18 53  1  0
 21 54  1  0
 22 55  1  0
 26 56  1  6
 27 57  1  0
 27 58  1  0
 27 59  1  0
 28 60  1  0
 29 61  1  6
 30 62  1  0
 30 63  1  0
 30 64  1  0
 32 65  1  0
 33 66  1  0
 38 67  1  0
M  END
>  <smiles>  (32) 
Cc1ccc(CNC(=O)CNC(=O)c2ccc3cc(F)ccc3n2)c([C@@H](C)NC(C)c2ccc(Cl)c(Cl)c2)n1

>  <score_type>  (32) 
oracle

>  <origin>  (32) 
autodockgpu

>  <m_score__min__energy>  (32) 
-11.02

>  <m_primary>  (32) 
energy

>  <meeko>  (32) 
{"free_energy": -9.34, "intermolecular_energy": -12.02, "internal_energy": -3.7, "cluster_size": 3, "cluster_id": 2, "rank_in_cluster": 2}

>  <energy>  (32) 
-8.61

>  <cluster_rmsd>  (32) 
0.15

>  <rmsd>  (32) 
269.07

>  <cluster>  (32) 
5

$$$$

     RDKit          3D

 67 70  0  0  1  0  0  0  0  0999 V2000
  140.3820   84.0010  220.4400 C   0  0  0  0  0  0  0  0  0  0  0  0
  140.1770   82.7530  221.2450 C   0  0  0  0  0  0  0  0  0  0  0  0
  138.9850   82.6170  221.9260 C   0  0  0  0  0  0  0  0  0  0  0  0
  138.8310   81.4540  222.6590 C   0  0  0  0  0  0  0  0  0  0  0  0
  139.8360   80.4770  222.6980 C   0  0  0  0  0  0  0  0  0  0  0  0
  139.6120   79.2430  223.5100 C   0  0  0  0  0  0  0  0  0  0  0  0
  138.7340   78.3040  222.8260 N   0  0  0  0  0  0  0  0  0  0  0  0
  139.1860   77.0070  222.4650 C   0  0  0  0  0  0  0  0  0  0  0  0
  140.3510   76.6050  222.7120 O   0  0  0  0  0  0  0  0  0  0  0  0
  138.2800   76.0530  221.7670 C   0  0  0  0  0  0  0  0  0  0  0  0
  137.3650   75.4600  222.7220 N   0  0  0  0  0  0  0  0  0  0  0  0
  136.2820   76.2530  223.2480 C   0  0  0  0  0  0  0  0  0  0  0  0
  136.1270   77.4600  222.8870 O   0  0  0  0  0  0  0  0  0  0  0  0
  135.3590   75.6620  224.2060 C   0  0  0  0  0  0  0  0  0  0  0  0
  134.5100   76.4710  224.9270 C   0  0  0  0  0  0  0  0  0  0  0  0
  133.6060   76.0170  225.8490 C   0  0  0  0  0  0  0  0  0  0  0  0
  133.5530   74.6500  226.0610 C   0  0  0  0  0  0  0  0  0  0  0  0
  132.6600   74.1490  226.9770 C   0  0  0  0  0  0  0  0  0  0  0  0
  132.5980   72.7880  227.1960 C   0  0  0  0  0  0  0  0  0  0  0  0
  131.7120   72.2770  228.1060 F   0  0  0  0  0  0  0  0  0  0  0  0
  133.4430   71.9420  226.4830 C   0  0  0  0  0  0  0  0  0  0  0  0
  134.3510   72.4440  225.5530 C   0  0  0  0  0  0  0  0  0  0  0  0
  134.4100   73.8180  225.3350 C   0  0  0  0  0  0  0  0  0  0  0  0
  135.2780   74.3390  224.4400 N   0  0  0  0  0  0  0  0  0  0  0  0
  141.0290   80.6670  221.9860 C   0  0  0  0  0  0  0  0  0  0  0  0
  142.0630   79.6440  222.0070 C   0  0  1  0  0  0  0  0  0  0  0  0
  142.6220   79.4270  223.4240 C   0  0  0  0  0  0  0  0  0  0  0  0
  141.7890   78.3790  221.4430 N   0  0  0  0  0  0  0  0  0  0  0  0
  142.0300   78.1760  220.0600 C   0  0  1  0  0  0  0  0  0  0  0  0
  141.0120   77.0790  219.6330 C   0  0  0  0  0  0  0  0  0  0  0  0
  141.6450   79.3150  219.1750 C   0  0  0  0  0  0  0  0  0  0  0  0
  140.2720   79.4450  218.9290 C   0  0  0  0  0  0  0  0  0  0  0  0
  139.8090   80.4780  218.1150 C   0  0  0  0  0  0  0  0  0  0  0  0
  140.7210   81.3550  217.5650 C   0  0  0  0  0  0  0  0  0  0  0  0
  140.1240   82.6360  216.5520 Cl  0  0  0  0  0  0  0  0  0  0  0  0
  142.0780   81.2020  217.8270 C   0  0  0  0  0  0  0  0  0  0  0  0
  143.2250   82.3380  217.1130 Cl  0  0  0  0  0  0  0  0  0  0  0  0
  142.5640   80.1860  218.6320 C   0  0  0  0  0  0  0  0  0  0  0  0
  141.1250   81.8110  221.2930 N   0  0  0  0  0  0  0  0  0  0  0  0
  140.5224   84.8557  221.1180 H   0  0  0  0  0  0  0  0  0  0  0  0
  141.2733   83.8859  219.8057 H   0  0  0  0  0  0  0  0  0  0  0  0
  139.5007   84.1771  219.8057 H   0  0  0  0  0  0  0  0  0  0  0  0
  138.2022   83.3888  221.8883 H   0  0  0  0  0  0  0  0  0  0  0  0
  137.9006   81.2923  223.2231 H   0  0  0  0  0  0  0  0  0  0  0  0
  140.5810   78.7562  223.6946 H   0  0  0  0  0  0  0  0  0  0  0  0
  139.1331   79.5356  224.4561 H   0  0  0  0  0  0  0  0  0  0  0  0
  137.7380   78.5660  222.5830 H   0  0  0  0  0  0  0  0  0  0  0  0
  137.7071   76.5900  220.9967 H   0  0  0  0  0  0  0  0  0  0  0  0
  138.8793   75.2599  221.2961 H   0  0  0  0  0  0  0  0  0  0  0  0
  137.4610   74.4580  223.0490 H   0  0  0  0  0  0  0  0  0  0  0  0
  134.5616   77.5555  224.7502 H   0  0  0  0  0  0  0  0  0  0  0  0
  132.9499   76.7085  226.3979 H   0  0  0  0  0  0  0  0  0  0  0  0
  131.9979   74.8292  227.5329 H   0  0  0  0  0  0  0  0  0  0  0  0
  133.3929   70.8570  226.6571 H   0  0  0  0  0  0  0  0  0  0  0  0
  135.0131   71.7633  224.9978 H   0  0  0  0  0  0  0  0  0  0  0  0
  142.7953   80.0953  221.3214 H   0  0  0  0  0  0  0  0  0  0  0  0
  141.8648   79.7209  224.1658 H   0  0  0  0  0  0  0  0  0  0  0  0
  142.8754   78.3652  223.5596 H   0  0  0  0  0  0  0  0  0  0  0  0
  143.5254   80.0397  223.5596 H   0  0  0  0  0  0  0  0  0  0  0  0
  142.1780   77.5790  221.9840 H   0  0  0  0  0  0  0  0  0  0  0  0
  143.1063   77.9759  219.9527 H   0  0  0  0  0  0  0  0  0  0  0  0
  140.5786   76.6120  220.5297 H   0  0  0  0  0  0  0  0  0  0  0  0
  140.2106   77.5358  219.0337 H   0  0  0  0  0  0  0  0  0  0  0  0
  141.5273   76.3139  219.0337 H   0  0  0  0  0  0  0  0  0  0  0  0
  139.5615   78.7344  219.3766 H   0  0  0  0  0  0  0  0  0  0  0  0
  138.7335   80.5919  217.9145 H   0  0  0  0  0  0  0  0  0  0  0  0
  143.6406   80.0785  218.8301 H   0  0  0  0  0  0  0  0  0  0  0  0
  1  2  1  0
  2  3  2  0
  3  4  1  0
  4  5  2  0
  5  6  1  0
  6  7  1  0
  7  8  1  0
  8  9  2  0
  8 10  1  0
 10 11  1  0
 11 12  1  0
 12 13  2  0
 12 14  1  0
 14 15  2  0
 15 16  1  0
 16 17  2  0
 17 18  1  0
 18 19  2  0
 19 20  1  0
 19 21  1  0
 21 22  2  0
 22 23  1  0
 23 24  2  0
  5 25  1  0
 25 26  1  0
 26 27  1  0
 26 28  1  0
 28 29  1  0
 29 30  1  0
 29 31  1  0
 31 32  2  0
 32 33  1  0
 33 34  2  0
 34 35  1  0
 34 36  1  0
 36 37  1  0
 36 38  2  0
 25 39  2  0
 39  2  1  0
 24 14  1  0
 38 31  1  0
 23 17  1  0
  1 40  1  0
  1 41  1  0
  1 42  1  0
  3 43  1  0
  4 44  1  0
  6 45  1  0
  6 46  1  0
  7 47  1  0
 10 48  1  0
 10 49  1  0
 11 50  1  0
 15 51  1  0
 16 52  1  0
 18 53  1  0
 21 54  1  0
 22 55  1  0
 26 56  1  6
 27 57  1  0
 27 58  1  0
 27 59  1  0
 28 60  1  0
 29 61  1  1
 30 62  1  0
 30 63  1  0
 30 64  1  0
 32 65  1  0
 33 66  1  0
 38 67  1  0
M  END
>  <smiles>  (33) 
Cc1ccc(CNC(=O)CNC(=O)c2ccc3cc(F)ccc3n2)c([C@@H](C)NC(C)c2ccc(Cl)c(Cl)c2)n1

>  <score_type>  (33) 
oracle

>  <origin>  (33) 
autodockgpu

>  <m_score__min__energy>  (33) 
-11.02

>  <m_primary>  (33) 
energy

>  <meeko>  (33) 
{"free_energy": -7.53, "intermolecular_energy": -10.22, "internal_energy": -4.43, "cluster_size": 1, "cluster_id": 9, "rank_in_cluster": 1}

>  <energy>  (33) 
-8.25

>  <cluster_rmsd>  (33) 
0.0

>  <rmsd>  (33) 
269.03

>  <cluster>  (33) 
6

$$$$

     RDKit          3D

 67 70  0  0  1  0  0  0  0  0999 V2000
  142.1580   80.5470  223.8180 C   0  0  0  0  0  0  0  0  0  0  0  0
  141.8160   79.5240  222.7760 C   0  0  0  0  0  0  0  0  0  0  0  0
  141.3480   78.2990  223.2070 C   0  0  0  0  0  0  0  0  0  0  0  0
  141.0440   77.3810  222.2190 C   0  0  0  0  0  0  0  0  0  0  0  0
  141.2050   77.6890  220.8610 C   0  0  0  0  0  0  0  0  0  0  0  0
  140.8620   76.6530  219.8400 C   0  0  0  0  0  0  0  0  0  0  0  0
  139.7440   75.8260  220.2710 N   0  0  0  0  0  0  0  0  0  0  0  0
  139.9370   74.7400  221.1660 C   0  0  0  0  0  0  0  0  0  0  0  0
  141.0680   74.4390  221.6270 O   0  0  0  0  0  0  0  0  0  0  0  0
  138.7880   73.9010  221.6040 C   0  0  0  0  0  0  0  0  0  0  0  0
  139.1960   73.0460  222.7000 N   0  0  0  0  0  0  0  0  0  0  0  0
  138.5910   71.7440  222.8420 C   0  0  0  0  0  0  0  0  0  0  0  0
  137.7080   71.3460  222.0210 O   0  0  0  0  0  0  0  0  0  0  0  0
  138.9970   70.8800  223.9410 C   0  0  0  0  0  0  0  0  0  0  0  0
  138.7090   69.5350  223.8950 C   0  0  0  0  0  0  0  0  0  0  0  0
  139.0460   68.6380  224.8730 C   0  0  0  0  0  0  0  0  0  0  0  0
  139.7230   69.1310  225.9760 C   0  0  0  0  0  0  0  0  0  0  0  0
  140.0830   68.2670  226.9810 C   0  0  0  0  0  0  0  0  0  0  0  0
  140.7580   68.7480  228.0850 C   0  0  0  0  0  0  0  0  0  0  0  0
  141.1210   67.8960  229.0930 F   0  0  0  0  0  0  0  0  0  0  0  0
  141.0650   70.1030  228.1620 C   0  0  0  0  0  0  0  0  0  0  0  0
  140.7020   70.9840  227.1450 C   0  0  0  0  0  0  0  0  0  0  0  0
  140.0220   70.4950  226.0340 C   0  0  0  0  0  0  0  0  0  0  0  0
  139.6560   71.3210  225.0290 N   0  0  0  0  0  0  0  0  0  0  0  0
  141.6850   78.9510  220.4780 C   0  0  0  0  0  0  0  0  0  0  0  0
  141.8300   79.2790  219.0690 C   0  0  1  0  0  0  0  0  0  0  0  0
  142.0870   80.7820  218.8570 C   0  0  0  0  0  0  0  0  0  0  0  0
  142.7590   78.5590  218.2870 N   0  0  0  0  0  0  0  0  0  0  0  0
  142.2840   77.5510  217.4110 C   0  0  1  0  0  0  0  0  0  0  0  0
  142.4840   78.1350  215.9820 C   0  0  0  0  0  0  0  0  0  0  0  0
  143.1160   76.3120  217.3570 C   0  0  0  0  0  0  0  0  0  0  0  0
  143.7400   76.0630  216.1270 C   0  0  0  0  0  0  0  0  0  0  0  0
  144.5400   74.9320  215.9730 C   0  0  0  0  0  0  0  0  0  0  0  0
  144.7000   74.0760  217.0430 C   0  0  0  0  0  0  0  0  0  0  0  0
  145.7010   72.6710  216.8320 Cl  0  0  0  0  0  0  0  0  0  0  0  0
  144.0690   74.3490  218.2520 C   0  0  0  0  0  0  0  0  0  0  0  0
  144.2900   73.2390  219.6070 Cl  0  0  0  0  0  0  0  0  0  0  0  0
  143.2700   75.4650  218.4310 C   0  0  0  0  0  0  0  0  0  0  0  0
  141.9630   79.8020  221.4760 N   0  0  0  0  0  0  0  0  0  0  0  0
  142.0132   80.1137  224.8186 H   0  0  0  0  0  0  0  0  0  0  0  0
  143.2077   80.8540  223.6998 H   0  0  0  0  0  0  0  0  0  0  0  0
  141.5041   81.4236  223.6998 H   0  0  0  0  0  0  0  0  0  0  0  0
  141.2241   78.0666  224.2750 H   0  0  0  0  0  0  0  0  0  0  0  0
  140.6677   76.3876  222.5046 H   0  0  0  0  0  0  0  0  0  0  0  0
  140.5930   77.1546  218.8987 H   0  0  0  0  0  0  0  0  0  0  0  0
  141.7382   76.0025  219.7018 H   0  0  0  0  0  0  0  0  0  0  0  0
  138.7610   76.0150  219.9290 H   0  0  0  0  0  0  0  0  0  0  0  0
  137.9654   74.5520  221.9350 H   0  0  0  0  0  0  0  0  0  0  0  0
  138.4510   73.2779  220.7625 H   0  0  0  0  0  0  0  0  0  0  0  0
  139.9270   73.3410  223.4060 H   0  0  0  0  0  0  0  0  0  0  0  0
  138.1720   69.1551  223.0133 H   0  0  0  0  0  0  0  0  0  0  0  0
  138.7901   67.5717  224.7864 H   0  0  0  0  0  0  0  0  0  0  0  0
  139.8349   67.1979  226.9067 H   0  0  0  0  0  0  0  0  0  0  0  0
  141.6039   70.4856  229.0413 H   0  0  0  0  0  0  0  0  0  0  0  0
  140.9501   72.0531  227.2197 H   0  0  0  0  0  0  0  0  0  0  0  0
  140.8487   78.9533  218.6936 H   0  0  0  0  0  0  0  0  0  0  0  0
  142.1723   81.2807  219.8337 H   0  0  0  0  0  0  0  0  0  0  0  0
  143.0215   80.9182  218.2929 H   0  0  0  0  0  0  0  0  0  0  0  0
  141.2509   81.2210  218.2929 H   0  0  0  0  0  0  0  0  0  0  0  0
  143.4480   79.1580  217.7860 H   0  0  0  0  0  0  0  0  0  0  0  0
  141.2678   77.2955  217.7457 H   0  0  0  0  0  0  0  0  0  0  0  0
  142.8396   79.1733  216.0567 H   0  0  0  0  0  0  0  0  0  0  0  0
  143.2266   77.5312  215.4398 H   0  0  0  0  0  0  0  0  0  0  0  0
  141.5272   78.1132  215.4398 H   0  0  0  0  0  0  0  0  0  0  0  0
  143.5989   76.7578  215.2860 H   0  0  0  0  0  0  0  0  0  0  0  0
  145.0360   74.7252  215.0132 H   0  0  0  0  0  0  0  0  0  0  0  0
  142.7775   75.6670  219.3936 H   0  0  0  0  0  0  0  0  0  0  0  0
  1  2  1  0
  2  3  2  0
  3  4  1  0
  4  5  2  0
  5  6  1  0
  6  7  1  0
  7  8  1  0
  8  9  2  0
  8 10  1  0
 10 11  1  0
 11 12  1  0
 12 13  2  0
 12 14  1  0
 14 15  2  0
 15 16  1  0
 16 17  2  0
 17 18  1  0
 18 19  2  0
 19 20  1  0
 19 21  1  0
 21 22  2  0
 22 23  1  0
 23 24  2  0
  5 25  1  0
 25 26  1  0
 26 27  1  0
 26 28  1  0
 28 29  1  0
 29 30  1  0
 29 31  1  0
 31 32  2  0
 32 33  1  0
 33 34  2  0
 34 35  1  0
 34 36  1  0
 36 37  1  0
 36 38  2  0
 25 39  2  0
 39  2  1  0
 24 14  1  0
 38 31  1  0
 23 17  1  0
  1 40  1  0
  1 41  1  0
  1 42  1  0
  3 43  1  0
  4 44  1  0
  6 45  1  0
  6 46  1  0
  7 47  1  0
 10 48  1  0
 10 49  1  0
 11 50  1  0
 15 51  1  0
 16 52  1  0
 18 53  1  0
 21 54  1  0
 22 55  1  0
 26 56  1  6
 27 57  1  0
 27 58  1  0
 27 59  1  0
 28 60  1  0
 29 61  1  1
 30 62  1  0
 30 63  1  0
 30 64  1  0
 32 65  1  0
 33 66  1  0
 38 67  1  0
M  END
>  <smiles>  (34) 
Cc1ccc(CNC(=O)CNC(=O)c2ccc3cc(F)ccc3n2)c([C@@H](C)NC(C)c2ccc(Cl)c(Cl)c2)n1

>  <score_type>  (34) 
oracle

>  <origin>  (34) 
autodockgpu

>  <m_score__min__energy>  (34) 
-11.02

>  <m_primary>  (34) 
energy

>  <meeko>  (34) 
{"free_energy": -9.51, "intermolecular_energy": -12.2, "internal_energy": -2.28, "cluster_size": 4, "cluster_id": 1, "rank_in_cluster": 4}

>  <energy>  (34) 
-8.2

>  <cluster_rmsd>  (34) 
1.79

>  <rmsd>  (34) 
269.2

>  <cluster>  (34) 
6

$$$$

     RDKit          3D

 67 70  0  0  1  0  0  0  0  0999 V2000
  141.0010   69.9960  226.7800 C   0  0  0  0  0  0  0  0  0  0  0  0
  140.2020   70.4040  225.5790 C   0  0  0  0  0  0  0  0  0  0  0  0
  138.9410   69.8630  225.4320 C   0  0  0  0  0  0  0  0  0  0  0  0
  138.2340   70.2610  224.3120 C   0  0  0  0  0  0  0  0  0  0  0  0
  138.7780   71.1640  223.3880 C   0  0  0  0  0  0  0  0  0  0  0  0
  137.9660   71.5540  222.1950 C   0  0  0  0  0  0  0  0  0  0  0  0
  137.0560   72.6500  222.5030 N   0  0  0  0  0  0  0  0  0  0  0  0
  135.7320   72.6690  221.9900 C   0  0  0  0  0  0  0  0  0  0  0  0
  135.2800   71.7560  221.2530 O   0  0  0  0  0  0  0  0  0  0  0  0
  134.8090   73.7920  222.3110 C   0  0  0  0  0  0  0  0  0  0  0  0
  135.3730   75.0400  221.8370 N   0  0  0  0  0  0  0  0  0  0  0  0
  136.2760   75.7750  222.6890 C   0  0  0  0  0  0  0  0  0  0  0  0
  136.5770   75.3400  223.8430 O   0  0  0  0  0  0  0  0  0  0  0  0
  136.8460   77.0280  222.2180 C   0  0  0  0  0  0  0  0  0  0  0  0
  136.8660   77.3070  220.8710 C   0  0  0  0  0  0  0  0  0  0  0  0
  137.3770   78.4550  220.3260 C   0  0  0  0  0  0  0  0  0  0  0  0
  137.9060   79.3880  221.2010 C   0  0  0  0  0  0  0  0  0  0  0  0
  138.4290   80.5550  220.6990 C   0  0  0  0  0  0  0  0  0  0  0  0
  138.9590   81.4920  221.5620 C   0  0  0  0  0  0  0  0  0  0  0  0
  139.4830   82.6580  221.0730 F   0  0  0  0  0  0  0  0  0  0  0  0
  138.9550   81.2410  222.9310 C   0  0  0  0  0  0  0  0  0  0  0  0
  138.4260   80.0590  223.4460 C   0  0  0  0  0  0  0  0  0  0  0  0
  137.8920   79.1160  222.5720 C   0  0  0  0  0  0  0  0  0  0  0  0
  137.3710   77.9600  223.0370 N   0  0  0  0  0  0  0  0  0  0  0  0
  140.0660   71.6840  223.5870 C   0  0  0  0  0  0  0  0  0  0  0  0
  140.6220   72.6390  222.6410 C   0  0  1  0  0  0  0  0  0  0  0  0
  140.9220   71.9850  221.2800 C   0  0  0  0  0  0  0  0  0  0  0  0
  139.9370   73.8510  222.4050 N   0  0  0  0  0  0  0  0  0  0  0  0
  140.0690   74.4790  221.1400 C   0  0  1  0  0  0  0  0  0  0  0  0
  138.6130   74.6180  220.6090 C   0  0  0  0  0  0  0  0  0  0  0  0
  140.5190   75.9010  221.1810 C   0  0  0  0  0  0  0  0  0  0  0  0
  140.6830   76.5140  219.9320 C   0  0  0  0  0  0  0  0  0  0  0  0
  141.1000   77.8430  219.8610 C   0  0  0  0  0  0  0  0  0  0  0  0
  141.3440   78.5290  221.0330 C   0  0  0  0  0  0  0  0  0  0  0  0
  141.8640   80.1850  220.9240 Cl  0  0  0  0  0  0  0  0  0  0  0  0
  141.1730   77.8950  222.2590 C   0  0  0  0  0  0  0  0  0  0  0  0
  141.4920   78.7950  223.7440 Cl  0  0  0  0  0  0  0  0  0  0  0  0
  140.7600   76.5780  222.3560 C   0  0  0  0  0  0  0  0  0  0  0  0
  140.7060   71.2650  224.6870 N   0  0  0  0  0  0  0  0  0  0  0  0
  140.4565   70.2741  227.6944 H   0  0  0  0  0  0  0  0  0  0  0  0
  141.1580   68.9074  226.7634 H   0  0  0  0  0  0  0  0  0  0  0  0
  141.9749   70.5072  226.7634 H   0  0  0  0  0  0  0  0  0  0  0  0
  138.5224   69.1560  226.1634 H   0  0  0  0  0  0  0  0  0  0  0  0
  137.2236   69.8606  224.1427 H   0  0  0  0  0  0  0  0  0  0  0  0
  138.6444   71.8687  221.3883 H   0  0  0  0  0  0  0  0  0  0  0  0
  137.3670   70.6846  221.8862 H   0  0  0  0  0  0  0  0  0  0  0  0
  137.3610   73.4560  223.1160 H   0  0  0  0  0  0  0  0  0  0  0  0
  133.8394   73.6196  221.8209 H   0  0  0  0  0  0  0  0  0  0  0  0
  134.6681   73.8470  223.4006 H   0  0  0  0  0  0  0  0  0  0  0  0
  135.1460   75.4370  220.8830 H   0  0  0  0  0  0  0  0  0  0  0  0
  136.4432   76.5577  220.1856 H   0  0  0  0  0  0  0  0  0  0  0  0
  137.3674   78.6281  219.2397 H   0  0  0  0  0  0  0  0  0  0  0  0
  138.4252   80.7413  219.6149 H   0  0  0  0  0  0  0  0  0  0  0  0
  139.3768   81.9888  223.6186 H   0  0  0  0  0  0  0  0  0  0  0  0
  138.4303   79.8733  224.5302 H   0  0  0  0  0  0  0  0  0  0  0  0
  141.5307   72.9403  223.1827 H   0  0  0  0  0  0  0  0  0  0  0  0
  141.3757   70.9959  221.4406 H   0  0  0  0  0  0  0  0  0  0  0  0
  139.9860   71.8714  220.7135 H   0  0  0  0  0  0  0  0  0  0  0  0
  141.6187   72.6204  220.7135 H   0  0  0  0  0  0  0  0  0  0  0  0
  138.9330   73.8330  222.6810 H   0  0  0  0  0  0  0  0  0  0  0  0
  140.7925   73.8824  220.5649 H   0  0  0  0  0  0  0  0  0  0  0  0
  137.9176   74.6844  221.4587 H   0  0  0  0  0  0  0  0  0  0  0  0
  138.5314   75.5280  219.9964 H   0  0  0  0  0  0  0  0  0  0  0  0
  138.3607   73.7399  219.9964 H   0  0  0  0  0  0  0  0  0  0  0  0
  140.4834   75.9486  219.0098 H   0  0  0  0  0  0  0  0  0  0  0  0
  141.2322   78.3362  218.8867 H   0  0  0  0  0  0  0  0  0  0  0  0
  140.6292   76.0907  223.3334 H   0  0  0  0  0  0  0  0  0  0  0  0
  1  2  1  0
  2  3  2  0
  3  4  1  0
  4  5  2  0
  5  6  1  0
  6  7  1  0
  7  8  1  0
  8  9  2  0
  8 10  1  0
 10 11  1  0
 11 12  1  0
 12 13  2  0
 12 14  1  0
 14 15  2  0
 15 16  1  0
 16 17  2  0
 17 18  1  0
 18 19  2  0
 19 20  1  0
 19 21  1  0
 21 22  2  0
 22 23  1  0
 23 24  2  0
  5 25  1  0
 25 26  1  0
 26 27  1  0
 26 28  1  0
 28 29  1  0
 29 30  1  0
 29 31  1  0
 31 32  2  0
 32 33  1  0
 33 34  2  0
 34 35  1  0
 34 36  1  0
 36 37  1  0
 36 38  2  0
 25 39  2  0
 39  2  1  0
 24 14  1  0
 38 31  1  0
 23 17  1  0
  1 40  1  0
  1 41  1  0
  1 42  1  0
  3 43  1  0
  4 44  1  0
  6 45  1  0
  6 46  1  0
  7 47  1  0
 10 48  1  0
 10 49  1  0
 11 50  1  0
 15 51  1  0
 16 52  1  0
 18 53  1  0
 21 54  1  0
 22 55  1  0
 26 56  1  1
 27 57  1  0
 27 58  1  0
 27 59  1  0
 28 60  1  0
 29 61  1  6
 30 62  1  0
 30 63  1  0
 30 64  1  0
 32 65  1  0
 33 66  1  0
 38 67  1  0
M  END
>  <smiles>  (35) 
Cc1ccc(CNC(=O)CNC(=O)c2ccc3cc(F)ccc3n2)c([C@@H](C)NC(C)c2ccc(Cl)c(Cl)c2)n1

>  <score_type>  (35) 
oracle

>  <origin>  (35) 
autodockgpu

>  <m_score__min__energy>  (35) 
-11.02

>  <m_primary>  (35) 
energy

>  <meeko>  (35) 
{"free_energy": -7.43, "intermolecular_energy": -10.12, "internal_energy": -4.85, "cluster_size": 1, "cluster_id": 10, "rank_in_cluster": 1}

>  <energy>  (35) 
-8.22

>  <cluster_rmsd>  (35) 
0.0

>  <rmsd>  (35) 
269.0

>  <cluster>  (35) 
7

$$$$

     RDKit          3D

 67 70  0  0  1  0  0  0  0  0999 V2000
  134.6540   75.5380  226.1550 C   0  0  0  0  0  0  0  0  0  0  0  0
  135.1180   75.0190  224.8260 C   0  0  0  0  0  0  0  0  0  0  0  0
  134.5050   73.8870  224.3290 C   0  0  0  0  0  0  0  0  0  0  0  0
  134.9600   73.4370  223.1020 C   0  0  0  0  0  0  0  0  0  0  0  0
  135.9830   74.1020  222.4130 C   0  0  0  0  0  0  0  0  0  0  0  0
  136.4330   73.5660  221.0930 C   0  0  0  0  0  0  0  0  0  0  0  0
  137.7980   73.0630  221.1570 N   0  0  0  0  0  0  0  0  0  0  0  0
  138.2100   71.9580  220.3660 C   0  0  0  0  0  0  0  0  0  0  0  0
  137.4300   71.3630  219.5800 O   0  0  0  0  0  0  0  0  0  0  0  0
  139.6080   71.4520  220.4370 C   0  0  0  0  0  0  0  0  0  0  0  0
  139.8480   70.8540  221.7350 N   0  0  0  0  0  0  0  0  0  0  0  0
  140.0310   71.7090  222.8830 C   0  0  0  0  0  0  0  0  0  0  0  0
  139.9870   72.9720  222.7640 O   0  0  0  0  0  0  0  0  0  0  0  0
  140.2710   71.1140  224.1890 C   0  0  0  0  0  0  0  0  0  0  0  0
  140.7110   71.9020  225.2280 C   0  0  0  0  0  0  0  0  0  0  0  0
  140.9650   71.4430  226.4930 C   0  0  0  0  0  0  0  0  0  0  0  0
  140.7610   70.0940  226.7280 C   0  0  0  0  0  0  0  0  0  0  0  0
  141.0020   69.5890  227.9820 C   0  0  0  0  0  0  0  0  0  0  0  0
  140.8010   68.2460  228.2280 C   0  0  0  0  0  0  0  0  0  0  0  0
  141.0380   67.7320  229.4740 F   0  0  0  0  0  0  0  0  0  0  0  0
  140.3550   67.4220  227.1990 C   0  0  0  0  0  0  0  0  0  0  0  0
  140.1090   67.9290  225.9240 C   0  0  0  0  0  0  0  0  0  0  0  0
  140.3130   69.2840  225.6810 C   0  0  0  0  0  0  0  0  0  0  0  0
  140.0840   69.8080  224.4570 N   0  0  0  0  0  0  0  0  0  0  0  0
  136.5720   75.2500  222.9660 C   0  0  0  0  0  0  0  0  0  0  0  0
  137.6180   75.9550  222.2420 C   0  0  1  0  0  0  0  0  0  0  0  0
  137.7840   77.4000  222.7430 C   0  0  0  0  0  0  0  0  0  0  0  0
  138.9000   75.3720  222.1460 N   0  0  0  0  0  0  0  0  0  0  0  0
  139.9110   76.0540  221.4230 C   0  0  1  0  0  0  0  0  0  0  0  0
  140.8540   76.6420  222.5130 C   0  0  0  0  0  0  0  0  0  0  0  0
  140.8420   75.1780  220.6520 C   0  0  0  0  0  0  0  0  0  0  0  0
  140.3280   74.6680  219.4520 C   0  0  0  0  0  0  0  0  0  0  0  0
  141.1190   73.8390  218.6560 C   0  0  0  0  0  0  0  0  0  0  0  0
  142.3990   73.5370  219.0730 C   0  0  0  0  0  0  0  0  0  0  0  0
  143.3690   72.5010  218.0680 Cl  0  0  0  0  0  0  0  0  0  0  0  0
  142.8820   74.0580  220.2680 C   0  0  0  0  0  0  0  0  0  0  0  0
  144.5240   73.6570  220.7790 Cl  0  0  0  0  0  0  0  0  0  0  0  0
  142.1190   74.8830  221.0750 C   0  0  0  0  0  0  0  0  0  0  0  0
  136.0940   75.6420  224.1560 N   0  0  0  0  0  0  0  0  0  0  0  0
  135.1529   74.9800  226.9610 H   0  0  0  0  0  0  0  0  0  0  0  0
  134.9040   76.6059  226.2392 H   0  0  0  0  0  0  0  0  0  0  0  0
  133.5649   75.4087  226.2392 H   0  0  0  0  0  0  0  0  0  0  0  0
  133.7015   73.3723  224.8762 H   0  0  0  0  0  0  0  0  0  0  0  0
  134.5087   72.5375  222.6578 H   0  0  0  0  0  0  0  0  0  0  0  0
  135.7638   72.7459  220.7936 H   0  0  0  0  0  0  0  0  0  0  0  0
  136.4018   74.3854  220.3597 H   0  0  0  0  0  0  0  0  0  0  0  0
  138.5150   73.5090  221.7940 H   0  0  0  0  0  0  0  0  0  0  0  0
  139.7633   70.6967  219.6525 H   0  0  0  0  0  0  0  0  0  0  0  0
  140.3055   72.2895  220.2883 H   0  0  0  0  0  0  0  0  0  0  0  0
  139.8930   69.8060  221.8760 H   0  0  0  0  0  0  0  0  0  0  0  0
  140.8693   72.9722  225.0290 H   0  0  0  0  0  0  0  0  0  0  0  0
  141.3160   72.1172  227.2882 H   0  0  0  0  0  0  0  0  0  0  0  0
  141.3536   70.2517  228.7865 H   0  0  0  0  0  0  0  0  0  0  0  0
  140.1937   66.3517  227.3952 H   0  0  0  0  0  0  0  0  0  0  0  0
  139.7578   67.2660  225.1196 H   0  0  0  0  0  0  0  0  0  0  0  0
  137.2162   75.8987  221.2196 H   0  0  0  0  0  0  0  0  0  0  0  0
  137.7850   77.4089  223.8430 H   0  0  0  0  0  0  0  0  0  0  0  0
  138.7351   77.8097  222.3721 H   0  0  0  0  0  0  0  0  0  0  0  0
  136.9506   78.0147  222.3721 H   0  0  0  0  0  0  0  0  0  0  0  0
  139.2860   75.0400  223.0540 H   0  0  0  0  0  0  0  0  0  0  0  0
  139.3976   76.7401  220.7333 H   0  0  0  0  0  0  0  0  0  0  0  0
  140.4599   76.3963  223.5101 H   0  0  0  0  0  0  0  0  0  0  0  0
  141.8595   76.2105  222.3996 H   0  0  0  0  0  0  0  0  0  0  0  0
  140.9090   77.7347  222.3996 H   0  0  0  0  0  0  0  0  0  0  0  0
  139.3042   74.9205  219.1388 H   0  0  0  0  0  0  0  0  0  0  0  0
  140.7285   73.4328  217.7113 H   0  0  0  0  0  0  0  0  0  0  0  0
  142.5167   75.2875  222.0175 H   0  0  0  0  0  0  0  0  0  0  0  0
  1  2  1  0
  2  3  2  0
  3  4  1  0
  4  5  2  0
  5  6  1  0
  6  7  1  0
  7  8  1  0
  8  9  2  0
  8 10  1  0
 10 11  1  0
 11 12  1  0
 12 13  2  0
 12 14  1  0
 14 15  2  0
 15 16  1  0
 16 17  2  0
 17 18  1  0
 18 19  2  0
 19 20  1  0
 19 21  1  0
 21 22  2  0
 22 23  1  0
 23 24  2  0
  5 25  1  0
 25 26  1  0
 26 27  1  0
 26 28  1  0
 28 29  1  0
 29 30  1  0
 29 31  1  0
 31 32  2  0
 32 33  1  0
 33 34  2  0
 34 35  1  0
 34 36  1  0
 36 37  1  0
 36 38  2  0
 25 39  2  0
 39  2  1  0
 24 14  1  0
 38 31  1  0
 23 17  1  0
  1 40  1  0
  1 41  1  0
  1 42  1  0
  3 43  1  0
  4 44  1  0
  6 45  1  0
  6 46  1  0
  7 47  1  0
 10 48  1  0
 10 49  1  0
 11 50  1  0
 15 51  1  0
 16 52  1  0
 18 53  1  0
 21 54  1  0
 22 55  1  0
 26 56  1  6
 27 57  1  0
 27 58  1  0
 27 59  1  0
 28 60  1  0
 29 61  1  6
 30 62  1  0
 30 63  1  0
 30 64  1  0
 32 65  1  0
 33 66  1  0
 38 67  1  0
M  END
>  <smiles>  (36) 
Cc1ccc(CNC(=O)CNC(=O)c2ccc3cc(F)ccc3n2)c([C@@H](C)NC(C)c2ccc(Cl)c(Cl)c2)n1

>  <score_type>  (36) 
oracle

>  <origin>  (36) 
autodockgpu

>  <m_score__min__energy>  (36) 
-11.02

>  <m_primary>  (36) 
energy

>  <meeko>  (36) 
{"free_energy": -8.17, "intermolecular_energy": -10.85, "internal_energy": -5.09, "cluster_size": 2, "cluster_id": 8, "rank_in_cluster": 2}

>  <energy>  (36) 
-8.21

>  <cluster_rmsd>  (36) 
0.0

>  <rmsd>  (36) 
269.01

>  <cluster>  (36) 
8

$$$$

     RDKit          3D

 67 70  0  0  1  0  0  0  0  0999 V2000
  141.0790   68.7670  226.5580 C   0  0  0  0  0  0  0  0  0  0  0  0
  139.9640   69.2720  225.6920 C   0  0  0  0  0  0  0  0  0  0  0  0
  138.6750   68.9190  226.0330 C   0  0  0  0  0  0  0  0  0  0  0  0
  137.6730   69.4010  225.2110 C   0  0  0  0  0  0  0  0  0  0  0  0
  137.9630   70.2030  224.0990 C   0  0  0  0  0  0  0  0  0  0  0  0
  136.8370   70.6910  223.2470 C   0  0  0  0  0  0  0  0  0  0  0  0
  136.6370   72.1270  223.3950 N   0  0  0  0  0  0  0  0  0  0  0  0
  135.9960   72.8860  222.3810 C   0  0  0  0  0  0  0  0  0  0  0  0
  135.5720   72.3690  221.3160 O   0  0  0  0  0  0  0  0  0  0  0  0
  135.7950   74.3530  222.5420 C   0  0  0  0  0  0  0  0  0  0  0  0
  137.0790   75.0110  222.6740 N   0  0  0  0  0  0  0  0  0  0  0  0
  137.1610   76.4400  222.4970 C   0  0  0  0  0  0  0  0  0  0  0  0
  136.1250   77.1210  222.2250 O   0  0  0  0  0  0  0  0  0  0  0  0
  138.4480   77.1070  222.6310 C   0  0  0  0  0  0  0  0  0  0  0  0
  139.6050   76.4270  222.3280 C   0  0  0  0  0  0  0  0  0  0  0  0
  140.8630   76.9610  222.4190 C   0  0  0  0  0  0  0  0  0  0  0  0
  140.9620   78.2750  222.8440 C   0  0  0  0  0  0  0  0  0  0  0  0
  142.2030   78.8530  222.9490 C   0  0  0  0  0  0  0  0  0  0  0  0
  142.3140   80.1610  223.3720 C   0  0  0  0  0  0  0  0  0  0  0  0
  143.5460   80.7470  223.4800 F   0  0  0  0  0  0  0  0  0  0  0  0
  141.1620   80.8780  223.6850 C   0  0  0  0  0  0  0  0  0  0  0  0
  139.9000   80.2970  223.5810 C   0  0  0  0  0  0  0  0  0  0  0  0
  139.7930   78.9760  223.1540 C   0  0  0  0  0  0  0  0  0  0  0  0
  138.5850   78.3820  223.0410 N   0  0  0  0  0  0  0  0  0  0  0  0
  139.2930   70.5310  223.7970 C   0  0  0  0  0  0  0  0  0  0  0  0
  139.5940   71.3830  222.6570 C   0  0  1  0  0  0  0  0  0  0  0  0
  140.4040   72.6250  223.0700 C   0  0  0  0  0  0  0  0  0  0  0  0
  140.2070   70.8160  221.5180 N   0  0  0  0  0  0  0  0  0  0  0  0
  140.0960   71.4860  220.2730 C   0  0  1  0  0  0  0  0  0  0  0  0
  138.6810   72.1350  220.2930 C   0  0  0  0  0  0  0  0  0  0  0  0
  140.9790   72.6790  220.1140 C   0  0  0  0  0  0  0  0  0  0  0  0
  140.3330   73.8530  219.7030 C   0  0  0  0  0  0  0  0  0  0  0  0
  141.0690   75.0240  219.5260 C   0  0  0  0  0  0  0  0  0  0  0  0
  142.4280   75.0000  219.7600 C   0  0  0  0  0  0  0  0  0  0  0  0
  143.3290   76.4690  219.5320 Cl  0  0  0  0  0  0  0  0  0  0  0  0
  143.0430   73.8200  220.1660 C   0  0  0  0  0  0  0  0  0  0  0  0
  144.7840   73.8150  220.4600 Cl  0  0  0  0  0  0  0  0  0  0  0  0
  142.3350   72.6450  220.3500 C   0  0  0  0  0  0  0  0  0  0  0  0
  140.2240   70.0380  224.6260 N   0  0  0  0  0  0  0  0  0  0  0  0
  140.8060   68.8906  227.6164 H   0  0  0  0  0  0  0  0  0  0  0  0
  141.2539   67.7018  226.3465 H   0  0  0  0  0  0  0  0  0  0  0  0
  141.9950   69.3381  226.3465 H   0  0  0  0  0  0  0  0  0  0  0  0
  138.4566   68.2901  226.9087 H   0  0  0  0  0  0  0  0  0  0  0  0
  136.6258   69.1495  225.4347 H   0  0  0  0  0  0  0  0  0  0  0  0
  137.0636   70.4686  222.1938 H   0  0  0  0  0  0  0  0  0  0  0  0
  135.9167   70.1802  223.5665 H   0  0  0  0  0  0  0  0  0  0  0  0
  136.9650   72.6370  224.2610 H   0  0  0  0  0  0  0  0  0  0  0  0
  135.2703   74.7490  221.6600 H   0  0  0  0  0  0  0  0  0  0  0  0
  135.1951   74.5412  223.4446 H   0  0  0  0  0  0  0  0  0  0  0  0
  137.9670   74.4800  222.8990 H   0  0  0  0  0  0  0  0  0  0  0  0
  139.5136   75.3843  221.9899 H   0  0  0  0  0  0  0  0  0  0  0  0
  141.7563   76.3713  222.1654 H   0  0  0  0  0  0  0  0  0  0  0  0
  143.1046   78.2754  222.6969 H   0  0  0  0  0  0  0  0  0  0  0  0
  141.2500   81.9219  224.0204 H   0  0  0  0  0  0  0  0  0  0  0  0
  138.9987   80.8750  223.8332 H   0  0  0  0  0  0  0  0  0  0  0  0
  138.5742   71.6270  222.3247 H   0  0  0  0  0  0  0  0  0  0  0  0
  140.4449   72.6878  224.1675 H   0  0  0  0  0  0  0  0  0  0  0  0
  141.4253   72.5468  222.6689 H   0  0  0  0  0  0  0  0  0  0  0  0
  139.9207   73.5280  222.6689 H   0  0  0  0  0  0  0  0  0  0  0  0
  141.1940   70.5230  221.6680 H   0  0  0  0  0  0  0  0  0  0  0  0
  140.3336   70.7470  219.4936 H   0  0  0  0  0  0  0  0  0  0  0  0
  138.3599   72.2823  221.3347 H   0  0  0  0  0  0  0  0  0  0  0  0
  138.7161   73.1070  219.7792 H   0  0  0  0  0  0  0  0  0  0  0  0
  137.9672   71.4743  219.7792 H   0  0  0  0  0  0  0  0  0  0  0  0
  139.2482   73.8506  219.5206 H   0  0  0  0  0  0  0  0  0  0  0  0
  140.5736   75.9522  219.2049 H   0  0  0  0  0  0  0  0  0  0  0  0
  142.8361   71.7203  220.6722 H   0  0  0  0  0  0  0  0  0  0  0  0
  1  2  1  0
  2  3  2  0
  3  4  1  0
  4  5  2  0
  5  6  1  0
  6  7  1  0
  7  8  1  0
  8  9  2  0
  8 10  1  0
 10 11  1  0
 11 12  1  0
 12 13  2  0
 12 14  1  0
 14 15  2  0
 15 16  1  0
 16 17  2  0
 17 18  1  0
 18 19  2  0
 19 20  1  0
 19 21  1  0
 21 22  2  0
 22 23  1  0
 23 24  2  0
  5 25  1  0
 25 26  1  0
 26 27  1  0
 26 28  1  0
 28 29  1  0
 29 30  1  0
 29 31  1  0
 31 32  2  0
 32 33  1  0
 33 34  2  0
 34 35  1  0
 34 36  1  0
 36 37  1  0
 36 38  2  0
 25 39  2  0
 39  2  1  0
 24 14  1  0
 38 31  1  0
 23 17  1  0
  1 40  1  0
  1 41  1  0
  1 42  1  0
  3 43  1  0
  4 44  1  0
  6 45  1  0
  6 46  1  0
  7 47  1  0
 10 48  1  0
 10 49  1  0
 11 50  1  0
 15 51  1  0
 16 52  1  0
 18 53  1  0
 21 54  1  0
 22 55  1  0
 26 56  1  6
 27 57  1  0
 27 58  1  0
 27 59  1  0
 28 60  1  0
 29 61  1  6
 30 62  1  0
 30 63  1  0
 30 64  1  0
 32 65  1  0
 33 66  1  0
 38 67  1  0
M  END
>  <smiles>  (37) 
Cc1ccc(CNC(=O)CNC(=O)c2ccc3cc(F)ccc3n2)c([C@@H](C)NC(C)c2ccc(Cl)c(Cl)c2)n1

>  <score_type>  (37) 
oracle

>  <origin>  (37) 
autodockgpu

>  <m_score__min__energy>  (37) 
-11.02

>  <m_primary>  (37) 
energy

>  <meeko>  (37) 
{"free_energy": -8.25, "intermolecular_energy": -10.93, "internal_energy": -2.92, "cluster_size": 2, "cluster_id": 6, "rank_in_cluster": 1}

>  <energy>  (37) 
-8.17

>  <cluster_rmsd>  (37) 
0.64

>  <rmsd>  (37) 
268.9

>  <cluster>  (37) 
8

$$$$

     RDKit          3D

 67 70  0  0  1  0  0  0  0  0999 V2000
  141.4400   70.1110  226.4670 C   0  0  0  0  0  0  0  0  0  0  0  0
  140.5000   70.5800  225.3970 C   0  0  0  0  0  0  0  0  0  0  0  0
  139.1720   70.2190  225.5050 C   0  0  0  0  0  0  0  0  0  0  0  0
  138.3350   70.6680  224.5000 C   0  0  0  0  0  0  0  0  0  0  0  0
  138.8190   71.4450  223.4390 C   0  0  0  0  0  0  0  0  0  0  0  0
  137.8650   71.8980  222.3810 C   0  0  0  0  0  0  0  0  0  0  0  0
  137.3400   73.2270  222.6670 N   0  0  0  0  0  0  0  0  0  0  0  0
  135.9750   73.5420  222.4340 C   0  0  0  0  0  0  0  0  0  0  0  0
  135.1580   72.7040  221.9740 O   0  0  0  0  0  0  0  0  0  0  0  0
  135.4480   74.9020  222.7310 C   0  0  0  0  0  0  0  0  0  0  0  0
  136.5490   75.8090  222.9860 N   0  0  0  0  0  0  0  0  0  0  0  0
  136.4950   77.1500  222.4580 C   0  0  0  0  0  0  0  0  0  0  0  0
  135.4990   77.5380  221.7730 O   0  0  0  0  0  0  0  0  0  0  0  0
  137.5970   78.0660  222.7110 C   0  0  0  0  0  0  0  0  0  0  0  0
  137.3530   79.4160  222.8190 C   0  0  0  0  0  0  0  0  0  0  0  0
  138.3160   80.3600  223.0570 C   0  0  0  0  0  0  0  0  0  0  0  0
  139.6180   79.9120  223.1960 C   0  0  0  0  0  0  0  0  0  0  0  0
  140.6180   80.8220  223.4370 C   0  0  0  0  0  0  0  0  0  0  0  0
  141.9190   80.3870  223.5780 C   0  0  0  0  0  0  0  0  0  0  0  0
  142.9230   81.2860  223.8180 F   0  0  0  0  0  0  0  0  0  0  0  0
  142.2000   79.0280  223.4750 C   0  0  0  0  0  0  0  0  0  0  0  0
  141.1900   78.0990  223.2310 C   0  0  0  0  0  0  0  0  0  0  0  0
  139.8790   78.5430  223.0890 C   0  0  0  0  0  0  0  0  0  0  0  0
  138.8760   77.6690  222.8530 N   0  0  0  0  0  0  0  0  0  0  0  0
  140.1790   71.7830  223.3780 C   0  0  0  0  0  0  0  0  0  0  0  0
  140.6780   72.6090  222.2900 C   0  0  1  0  0  0  0  0  0  0  0  0
  140.7470   71.8270  220.9660 C   0  0  0  0  0  0  0  0  0  0  0  0
  140.0640   73.8540  222.0340 N   0  0  0  0  0  0  0  0  0  0  0  0
  139.9320   74.2910  220.6920 C   0  0  1  0  0  0  0  0  0  0  0  0
  138.3980   74.3310  220.4330 C   0  0  0  0  0  0  0  0  0  0  0  0
  140.3230   75.7110  220.4450 C   0  0  0  0  0  0  0  0  0  0  0  0
  141.6920   75.9850  220.5620 C   0  0  0  0  0  0  0  0  0  0  0  0
  142.1600   77.2810  220.3500 C   0  0  0  0  0  0  0  0  0  0  0  0
  141.2570   78.2720  220.0270 C   0  0  0  0  0  0  0  0  0  0  0  0
  141.8600   79.8820  219.7660 Cl  0  0  0  0  0  0  0  0  0  0  0  0
  139.9030   77.9710  219.9170 C   0  0  0  0  0  0  0  0  0  0  0  0
  138.7680   79.2580  219.5010 Cl  0  0  0  0  0  0  0  0  0  0  0  0
  139.4130   76.6930  220.1210 C   0  0  0  0  0  0  0  0  0  0  0  0
  140.9450   71.3220  224.3770 N   0  0  0  0  0  0  0  0  0  0  0  0
  141.0077   70.3267  227.4552 H   0  0  0  0  0  0  0  0  0  0  0  0
  141.6000   69.0275  226.3654 H   0  0  0  0  0  0  0  0  0  0  0  0
  142.4019   70.6348  226.3654 H   0  0  0  0  0  0  0  0  0  0  0  0
  138.8010   69.6094  226.3421 H   0  0  0  0  0  0  0  0  0  0  0  0
  137.2663   70.4097  224.5341 H   0  0  0  0  0  0  0  0  0  0  0  0
  138.3888   71.9214  221.4140 H   0  0  0  0  0  0  0  0  0  0  0  0
  137.0212   71.1929  222.3531 H   0  0  0  0  0  0  0  0  0  0  0  0
  137.9640   73.9870  223.0560 H   0  0  0  0  0  0  0  0  0  0  0  0
  134.8675   75.2650  221.8700 H   0  0  0  0  0  0  0  0  0  0  0  0
  134.8018   74.8555  223.6200 H   0  0  0  0  0  0  0  0  0  0  0  0
  137.3970   75.5240  223.5510 H   0  0  0  0  0  0  0  0  0  0  0  0
  136.3143   79.7600  222.7066 H   0  0  0  0  0  0  0  0  0  0  0  0
  138.0655   81.4283  223.1344 H   0  0  0  0  0  0  0  0  0  0  0  0
  140.3821   81.8934  223.5172 H   0  0  0  0  0  0  0  0  0  0  0  0
  143.2376   78.6808  223.5882 H   0  0  0  0  0  0  0  0  0  0  0  0
  141.4265   77.0277  223.1516 H   0  0  0  0  0  0  0  0  0  0  0  0
  141.6698   72.8714  222.6868 H   0  0  0  0  0  0  0  0  0  0  0  0
  140.8418   70.7521  221.1795 H   0  0  0  0  0  0  0  0  0  0  0  0
  139.8296   72.0061  220.3861 H   0  0  0  0  0  0  0  0  0  0  0  0
  141.6189   72.1640  220.3861 H   0  0  0  0  0  0  0  0  0  0  0  0
  139.1630   73.9950  222.5350 H   0  0  0  0  0  0  0  0  0  0  0  0
  140.5595   73.6262  220.0803 H   0  0  0  0  0  0  0  0  0  0  0  0
  137.8640   74.3449  221.3946 H   0  0  0  0  0  0  0  0  0  0  0  0
  138.1462   75.2360  219.8607 H   0  0  0  0  0  0  0  0  0  0  0  0
  138.0994   73.4403  219.8607 H   0  0  0  0  0  0  0  0  0  0  0  0
  142.3956   75.1799  220.8204 H   0  0  0  0  0  0  0  0  0  0  0  0
  143.2323   77.5094  220.4390 H   0  0  0  0  0  0  0  0  0  0  0  0
  138.3398   76.4702  220.0281 H   0  0  0  0  0  0  0  0  0  0  0  0
  1  2  1  0
  2  3  2  0
  3  4  1  0
  4  5  2  0
  5  6  1  0
  6  7  1  0
  7  8  1  0
  8  9  2  0
  8 10  1  0
 10 11  1  0
 11 12  1  0
 12 13  2  0
 12 14  1  0
 14 15  2  0
 15 16  1  0
 16 17  2  0
 17 18  1  0
 18 19  2  0
 19 20  1  0
 19 21  1  0
 21 22  2  0
 22 23  1  0
 23 24  2  0
  5 25  1  0
 25 26  1  0
 26 27  1  0
 26 28  1  0
 28 29  1  0
 29 30  1  0
 29 31  1  0
 31 32  2  0
 32 33  1  0
 33 34  2  0
 34 35  1  0
 34 36  1  0
 36 37  1  0
 36 38  2  0
 25 39  2  0
 39  2  1  0
 24 14  1  0
 38 31  1  0
 23 17  1  0
  1 40  1  0
  1 41  1  0
  1 42  1  0
  3 43  1  0
  4 44  1  0
  6 45  1  0
  6 46  1  0
  7 47  1  0
 10 48  1  0
 10 49  1  0
 11 50  1  0
 15 51  1  0
 16 52  1  0
 18 53  1  0
 21 54  1  0
 22 55  1  0
 26 56  1  1
 27 57  1  0
 27 58  1  0
 27 59  1  0
 28 60  1  0
 29 61  1  6
 30 62  1  0
 30 63  1  0
 30 64  1  0
 32 65  1  0
 33 66  1  0
 38 67  1  0
M  END
>  <smiles>  (38) 
Cc1ccc(CNC(=O)CNC(=O)c2ccc3cc(F)ccc3n2)c([C@@H](C)NC(C)c2ccc(Cl)c(Cl)c2)n1

>  <score_type>  (38) 
oracle

>  <origin>  (38) 
autodockgpu

>  <m_score__min__energy>  (38) 
-11.02

>  <m_primary>  (38) 
energy

>  <meeko>  (38) 
{"free_energy": -8.2, "intermolecular_energy": -10.88, "internal_energy": -4.05, "cluster_size": 2, "cluster_id": 6, "rank_in_cluster": 2}

>  <energy>  (38) 
-7.53

>  <cluster_rmsd>  (38) 
0.0

>  <rmsd>  (38) 
269.37

>  <cluster>  (38) 
9

$$$$

     RDKit          3D

 67 70  0  0  1  0  0  0  0  0999 V2000
  146.4980   73.3970  221.5910 C   0  0  0  0  0  0  0  0  0  0  0  0
  145.1700   73.2600  220.9100 C   0  0  0  0  0  0  0  0  0  0  0  0
  144.8550   72.0350  220.3560 C   0  0  0  0  0  0  0  0  0  0  0  0
  143.6220   71.9460  219.7350 C   0  0  0  0  0  0  0  0  0  0  0  0
  142.7510   73.0430  219.6790 C   0  0  0  0  0  0  0  0  0  0  0  0
  141.4340   72.8850  218.9910 C   0  0  0  0  0  0  0  0  0  0  0  0
  140.3370   72.8140  219.9470 N   0  0  0  0  0  0  0  0  0  0  0  0
  139.1360   72.1240  219.6340 C   0  0  0  0  0  0  0  0  0  0  0  0
  138.9570   71.5450  218.5320 O   0  0  0  0  0  0  0  0  0  0  0  0
  138.0210   72.0550  220.6180 C   0  0  0  0  0  0  0  0  0  0  0  0
  138.4590   71.3500  221.8060 N   0  0  0  0  0  0  0  0  0  0  0  0
  139.3610   72.0030  222.7220 C   0  0  0  0  0  0  0  0  0  0  0  0
  139.7750   73.1820  222.4960 O   0  0  0  0  0  0  0  0  0  0  0  0
  139.8030   71.3000  223.9180 C   0  0  0  0  0  0  0  0  0  0  0  0
  140.7040   71.8990  224.7690 C   0  0  0  0  0  0  0  0  0  0  0  0
  141.1810   71.3260  225.9170 C   0  0  0  0  0  0  0  0  0  0  0  0
  140.7190   70.0590  226.2300 C   0  0  0  0  0  0  0  0  0  0  0  0
  141.1700   69.4450  227.3730 C   0  0  0  0  0  0  0  0  0  0  0  0
  140.7150   68.1830  227.6960 C   0  0  0  0  0  0  0  0  0  0  0  0
  141.1580   67.5620  228.8320 F   0  0  0  0  0  0  0  0  0  0  0  0
  139.8030   67.5500  226.8560 C   0  0  0  0  0  0  0  0  0  0  0  0
  139.3420   68.1680  225.6950 C   0  0  0  0  0  0  0  0  0  0  0  0
  139.8030   69.4410  225.3740 C   0  0  0  0  0  0  0  0  0  0  0  0
  139.3770   70.0690  224.2560 N   0  0  0  0  0  0  0  0  0  0  0  0
  143.1230   74.2660  220.2590 C   0  0  0  0  0  0  0  0  0  0  0  0
  142.2100   75.3970  220.2210 C   0  0  1  0  0  0  0  0  0  0  0  0
  141.7820   75.7380  218.7820 C   0  0  0  0  0  0  0  0  0  0  0  0
  141.0540   75.3750  221.0310 N   0  0  0  0  0  0  0  0  0  0  0  0
  140.1970   76.5050  221.0340 C   0  0  1  0  0  0  0  0  0  0  0  0
  139.0410   76.1280  222.0060 C   0  0  0  0  0  0  0  0  0  0  0  0
  140.7580   77.7270  221.6830 C   0  0  0  0  0  0  0  0  0  0  0  0
  141.2400   77.5450  222.9860 C   0  0  0  0  0  0  0  0  0  0  0  0
  141.7860   78.6250  223.6790 C   0  0  0  0  0  0  0  0  0  0  0  0
  141.8400   79.8570  223.0610 C   0  0  0  0  0  0  0  0  0  0  0  0
  142.5230   81.1910  223.9420 Cl  0  0  0  0  0  0  0  0  0  0  0  0
  141.3540   80.0080  221.7670 C   0  0  0  0  0  0  0  0  0  0  0  0
  141.4340   81.5950  220.9980 Cl  0  0  0  0  0  0  0  0  0  0  0  0
  140.8080   78.9530  221.0570 C   0  0  0  0  0  0  0  0  0  0  0  0
  144.3270   74.2960  220.8470 N   0  0  0  0  0  0  0  0  0  0  0  0
  146.3541   73.3822  222.6815 H   0  0  0  0  0  0  0  0  0  0  0  0
  147.1495   72.5613  221.2957 H   0  0  0  0  0  0  0  0  0  0  0  0
  146.9651   74.3481  221.2957 H   0  0  0  0  0  0  0  0  0  0  0  0
  145.5446   71.1794  220.4056 H   0  0  0  0  0  0  0  0  0  0  0  0
  143.3185   70.9939  219.2752 H   0  0  0  0  0  0  0  0  0  0  0  0
  141.2729   73.7459  218.3255 H   0  0  0  0  0  0  0  0  0  0  0  0
  141.4542   71.9458  218.4187 H   0  0  0  0  0  0  0  0  0  0  0  0
  140.4100   73.2750  220.8960 H   0  0  0  0  0  0  0  0  0  0  0  0
  137.7114   73.0745  220.8914 H   0  0  0  0  0  0  0  0  0  0  0  0
  137.1723   71.5184  220.1688 H   0  0  0  0  0  0  0  0  0  0  0  0
  138.1380   70.3660  222.0300 H   0  0  0  0  0  0  0  0  0  0  0  0
  141.0647   72.9052  224.5092 H   0  0  0  0  0  0  0  0  0  0  0  0
  141.9007   71.8499  226.5633 H   0  0  0  0  0  0  0  0  0  0  0  0
  141.8905   69.9570  228.0278 H   0  0  0  0  0  0  0  0  0  0  0  0
  139.4397   66.5441  227.1132 H   0  0  0  0  0  0  0  0  0  0  0  0
  138.6221   67.6554  225.0401 H   0  0  0  0  0  0  0  0  0  0  0  0
  142.8454   76.1719  220.6746 H   0  0  0  0  0  0  0  0  0  0  0  0
  140.9219   76.4232  218.8079 H   0  0  0  0  0  0  0  0  0  0  0  0
  142.6188   76.2197  218.2550 H   0  0  0  0  0  0  0  0  0  0  0  0
  141.4995   74.8147  218.2550 H   0  0  0  0  0  0  0  0  0  0  0  0
  140.4850   74.5090  220.9370 H   0  0  0  0  0  0  0  0  0  0  0  0
  139.9608   76.7244  219.9823 H   0  0  0  0  0  0  0  0  0  0  0  0
  139.3844   76.2400  223.0450 H   0  0  0  0  0  0  0  0  0  0  0  0
  138.1824   76.7927  221.8299 H   0  0  0  0  0  0  0  0  0  0  0  0
  138.7394   75.0849  221.8299 H   0  0  0  0  0  0  0  0  0  0  0  0
  141.1879   76.5540  223.4605 H   0  0  0  0  0  0  0  0  0  0  0  0
  142.1677   78.4964  224.7026 H   0  0  0  0  0  0  0  0  0  0  0  0
  140.4289   79.0881  220.0333 H   0  0  0  0  0  0  0  0  0  0  0  0
  1  2  1  0
  2  3  2  0
  3  4  1  0
  4  5  2  0
  5  6  1  0
  6  7  1  0
  7  8  1  0
  8  9  2  0
  8 10  1  0
 10 11  1  0
 11 12  1  0
 12 13  2  0
 12 14  1  0
 14 15  2  0
 15 16  1  0
 16 17  2  0
 17 18  1  0
 18 19  2  0
 19 20  1  0
 19 21  1  0
 21 22  2  0
 22 23  1  0
 23 24  2  0
  5 25  1  0
 25 26  1  0
 26 27  1  0
 26 28  1  0
 28 29  1  0
 29 30  1  0
 29 31  1  0
 31 32  2  0
 32 33  1  0
 33 34  2  0
 34 35  1  0
 34 36  1  0
 36 37  1  0
 36 38  2  0
 25 39  2  0
 39  2  1  0
 24 14  1  0
 38 31  1  0
 23 17  1  0
  1 40  1  0
  1 41  1  0
  1 42  1  0
  3 43  1  0
  4 44  1  0
  6 45  1  0
  6 46  1  0
  7 47  1  0
 10 48  1  0
 10 49  1  0
 11 50  1  0
 15 51  1  0
 16 52  1  0
 18 53  1  0
 21 54  1  0
 22 55  1  0
 26 56  1  1
 27 57  1  0
 27 58  1  0
 27 59  1  0
 28 60  1  0
 29 61  1  6
 30 62  1  0
 30 63  1  0
 30 64  1  0
 32 65  1  0
 33 66  1  0
 38 67  1  0
M  END
>  <smiles>  (39) 
Cc1ccc(CNC(=O)CNC(=O)c2ccc3cc(F)ccc3n2)c([C@@H](C)NC(C)c2ccc(Cl)c(Cl)c2)n1

>  <score_type>  (39) 
oracle

>  <origin>  (39) 
autodockgpu

>  <m_score__min__energy>  (39) 
-11.02

>  <m_primary>  (39) 
energy

>  <meeko>  (39) 
{"free_energy": -9.91, "intermolecular_energy": -12.59, "internal_energy": -4.1, "cluster_size": 3, "cluster_id": 2, "rank_in_cluster": 1}

>  <energy>  (39) 
-7.43

>  <cluster_rmsd>  (39) 
0.0

>  <rmsd>  (39) 
268.77

>  <cluster>  (39) 
10

$$$$

     RDKit          3D

 67 70  0  0  1  0  0  0  0  0999 V2000
  146.4640   73.4520  221.6000 C   0  0  0  0  0  0  0  0  0  0  0  0
  145.1410   73.3720  220.8990 C   0  0  0  0  0  0  0  0  0  0  0  0
  144.6950   72.1250  220.5100 C   0  0  0  0  0  0  0  0  0  0  0  0
  143.4720   72.0890  219.8640 C   0  0  0  0  0  0  0  0  0  0  0  0
  142.7370   73.2590  219.6270 C   0  0  0  0  0  0  0  0  0  0  0  0
  141.4230   73.1560  218.9220 C   0  0  0  0  0  0  0  0  0  0  0  0
  140.3090   73.2040  219.8590 N   0  0  0  0  0  0  0  0  0  0  0  0
  139.3250   72.1800  219.8810 C   0  0  0  0  0  0  0  0  0  0  0  0
  139.3610   71.1920  219.1050 O   0  0  0  0  0  0  0  0  0  0  0  0
  138.1900   72.2370  220.8430 C   0  0  0  0  0  0  0  0  0  0  0  0
  138.5430   71.5300  222.0580 N   0  0  0  0  0  0  0  0  0  0  0  0
  139.6580   71.9940  222.8470 C   0  0  0  0  0  0  0  0  0  0  0  0
  140.3300   73.0090  222.4860 O   0  0  0  0  0  0  0  0  0  0  0  0
  140.0160   71.2890  224.0690 C   0  0  0  0  0  0  0  0  0  0  0  0
  140.7150   71.9430  225.0560 C   0  0  0  0  0  0  0  0  0  0  0  0
  141.0990   71.3730  226.2400 C   0  0  0  0  0  0  0  0  0  0  0  0
  140.7540   70.0480  226.4440 C   0  0  0  0  0  0  0  0  0  0  0  0
  141.1170   69.4340  227.6180 C   0  0  0  0  0  0  0  0  0  0  0  0
  140.7770   68.1140  227.8320 C   0  0  0  0  0  0  0  0  0  0  0  0
  141.1350   67.4930  228.9980 F   0  0  0  0  0  0  0  0  0  0  0  0
  140.0700   67.4230  226.8530 C   0  0  0  0  0  0  0  0  0  0  0  0
  139.6980   68.0400  225.6600 C   0  0  0  0  0  0  0  0  0  0  0  0
  140.0430   69.3720  225.4480 C   0  0  0  0  0  0  0  0  0  0  0  0
  139.6980   70.0010  224.3040 N   0  0  0  0  0  0  0  0  0  0  0  0
  143.2380   74.5010  220.0440 C   0  0  0  0  0  0  0  0  0  0  0  0
  142.4660   75.7130  219.8190 C   0  0  1  0  0  0  0  0  0  0  0  0
  142.4360   76.1020  218.3300 C   0  0  0  0  0  0  0  0  0  0  0  0
  141.1480   75.7910  220.3210 N   0  0  0  0  0  0  0  0  0  0  0  0
  140.9380   76.3240  221.6180 C   0  0  1  0  0  0  0  0  0  0  0  0
  141.4000   77.8070  221.5200 C   0  0  0  0  0  0  0  0  0  0  0  0
  139.5080   76.4730  222.0200 C   0  0  0  0  0  0  0  0  0  0  0  0
  139.1020   77.7800  222.3180 C   0  0  0  0  0  0  0  0  0  0  0  0
  137.7850   78.0260  222.7030 C   0  0  0  0  0  0  0  0  0  0  0  0
  136.9040   76.9670  222.7830 C   0  0  0  0  0  0  0  0  0  0  0  0
  135.2660   77.2930  223.2650 Cl  0  0  0  0  0  0  0  0  0  0  0  0
  137.3350   75.6800  222.4800 C   0  0  0  0  0  0  0  0  0  0  0  0
  136.1880   74.3420  222.5890 Cl  0  0  0  0  0  0  0  0  0  0  0  0
  138.6360   75.4090  222.0950 C   0  0  0  0  0  0  0  0  0  0  0  0
  144.4260   74.4780  220.6640 N   0  0  0  0  0  0  0  0  0  0  0  0
  146.3035   73.4423  222.6882 H   0  0  0  0  0  0  0  0  0  0  0  0
  147.0837   72.5897  221.3131 H   0  0  0  0  0  0  0  0  0  0  0  0
  146.9753   74.3827  221.3131 H   0  0  0  0  0  0  0  0  0  0  0  0
  145.2783   71.2125  220.7025 H   0  0  0  0  0  0  0  0  0  0  0  0
  143.0680   71.1221  219.5294 H   0  0  0  0  0  0  0  0  0  0  0  0
  141.3308   73.9928  218.2140 H   0  0  0  0  0  0  0  0  0  0  0  0
  141.3890   72.1912  218.3948 H   0  0  0  0  0  0  0  0  0  0  0  0
  140.2070   74.0030  220.5450 H   0  0  0  0  0  0  0  0  0  0  0  0
  137.9664   73.2870  221.0828 H   0  0  0  0  0  0  0  0  0  0  0  0
  137.3054   71.7648  220.3909 H   0  0  0  0  0  0  0  0  0  0  0  0
  138.0090   70.6790  222.3930 H   0  0  0  0  0  0  0  0  0  0  0  0
  140.9839   72.9954  224.8826 H   0  0  0  0  0  0  0  0  0  0  0  0
  141.6577   71.9434  226.9967 H   0  0  0  0  0  0  0  0  0  0  0  0
  141.6760   69.9919  228.3837 H   0  0  0  0  0  0  0  0  0  0  0  0
  139.7997   66.3705  227.0237 H   0  0  0  0  0  0  0  0  0  0  0  0
  139.1386   67.4813  224.8952 H   0  0  0  0  0  0  0  0  0  0  0  0
  143.0358   76.4227  220.4367 H   0  0  0  0  0  0  0  0  0  0  0  0
  142.3517   77.1949  218.2382 H   0  0  0  0  0  0  0  0  0  0  0  0
  143.3629   75.7636  217.8439 H   0  0  0  0  0  0  0  0  0  0  0  0
  141.5719   75.6255  217.8439 H   0  0  0  0  0  0  0  0  0  0  0  0
  140.4650   76.2120  219.6570 H   0  0  0  0  0  0  0  0  0  0  0  0
  141.4482   75.6508  222.3227 H   0  0  0  0  0  0  0  0  0  0  0  0
  141.5283   78.2187  222.5320 H   0  0  0  0  0  0  0  0  0  0  0  0
  142.3566   77.8581  220.9794 H   0  0  0  0  0  0  0  0  0  0  0  0
  140.6416   78.3923  220.9794 H   0  0  0  0  0  0  0  0  0  0  0  0
  139.8204   78.6101  222.2484 H   0  0  0  0  0  0  0  0  0  0  0  0
  137.4534   79.0479  222.9392 H   0  0  0  0  0  0  0  0  0  0  0  0
  138.9611   74.3851  221.8583 H   0  0  0  0  0  0  0  0  0  0  0  0
  1  2  1  0
  2  3  2  0
  3  4  1  0
  4  5  2  0
  5  6  1  0
  6  7  1  0
  7  8  1  0
  8  9  2  0
  8 10  1  0
 10 11  1  0
 11 12  1  0
 12 13  2  0
 12 14  1  0
 14 15  2  0
 15 16  1  0
 16 17  2  0
 17 18  1  0
 18 19  2  0
 19 20  1  0
 19 21  1  0
 21 22  2  0
 22 23  1  0
 23 24  2  0
  5 25  1  0
 25 26  1  0
 26 27  1  0
 26 28  1  0
 28 29  1  0
 29 30  1  0
 29 31  1  0
 31 32  2  0
 32 33  1  0
 33 34  2  0
 34 35  1  0
 34 36  1  0
 36 37  1  0
 36 38  2  0
 25 39  2  0
 39  2  1  0
 24 14  1  0
 38 31  1  0
 23 17  1  0
  1 40  1  0
  1 41  1  0
  1 42  1  0
  3 43  1  0
  4 44  1  0
  6 45  1  0
  6 46  1  0
  7 47  1  0
 10 48  1  0
 10 49  1  0
 11 50  1  0
 15 51  1  0
 16 52  1  0
 18 53  1  0
 21 54  1  0
 22 55  1  0
 26 56  1  1
 27 57  1  0
 27 58  1  0
 27 59  1  0
 28 60  1  0
 29 61  1  1
 30 62  1  0
 30 63  1  0
 30 64  1  0
 32 65  1  0
 33 66  1  0
 38 67  1  0
M  END
>  <smiles>  (40) 
Cc1ccc(CNC(=O)CNC(=O)c2ccc3cc(F)ccc3n2)c([C@@H](C)NC(C)c2ccc(Cl)c(Cl)c2)n1

>  <score_type>  (40) 
oracle

>  <origin>  (40) 
autodockgpu

>  <m_score__min__energy>  (40) 
-11.02

>  <m_primary>  (40) 
energy

>  <meeko>  (40) 
{"free_energy": -8.61, "intermolecular_energy": -11.29, "internal_energy": -4.16, "cluster_size": 2, "cluster_id": 5, "rank_in_cluster": 2}

>  <energy>  (40) 
-6.86

>  <cluster_rmsd>  (40) 
0.0

>  <rmsd>  (40) 
269.09

>  <cluster>  (40) 
11

$$$$
