
     RDKit          3D

 52 55  0  0  0  0  0  0  0  0999 V2000
  140.3800   73.7150  221.7380 O   0  0  0  0  0  0  0  0  0  0  0  0
  141.0750   74.5210  221.1100 C   0  0  0  0  0  0  0  0  0  0  0  0
  142.3630   74.1100  220.7830 C   0  0  0  0  0  0  0  0  0  0  0  0
  142.7900   72.8430  221.1670 C   0  0  0  0  0  0  0  0  0  0  0  0
  144.0770   72.4200  220.8450 C   0  0  0  0  0  0  0  0  0  0  0  0
  144.8920   73.2920  220.1460 C   0  0  0  0  0  0  0  0  0  0  0  0
  146.1400   72.8520  219.8480 F   0  0  0  0  0  0  0  0  0  0  0  0
  144.4380   74.5510  219.7760 C   0  0  0  0  0  0  0  0  0  0  0  0
  143.1730   74.9800  220.0860 C   0  0  0  0  0  0  0  0  0  0  0  0
  142.6680   76.1690  219.7680 N   0  0  0  0  0  0  0  0  0  0  0  0
  141.4240   76.5390  220.0960 C   0  0  0  0  0  0  0  0  0  0  0  0
  141.0100   77.8810  219.7010 C   0  0  0  0  0  0  0  0  0  0  0  0
  141.8100   78.9140  220.0210 C   0  0  0  0  0  0  0  0  0  0  0  0
  141.9600   79.2860  221.4450 C   0  0  0  0  0  0  0  0  0  0  0  0
  142.4590   80.5140  221.8250 C   0  0  0  0  0  0  0  0  0  0  0  0
  142.5700   80.7710  223.1870 C   0  0  0  0  0  0  0  0  0  0  0  0
  142.2030   79.8560  224.1490 C   0  0  0  0  0  0  0  0  0  0  0  0
  141.7030   78.6260  223.7200 C   0  0  0  0  0  0  0  0  0  0  0  0
  141.6110   78.4140  222.3960 N   0  0  0  0  0  0  0  0  0  0  0  0
  140.5740   75.7080  220.7880 N   0  0  0  0  0  0  0  0  0  0  0  0
  139.2830   76.2410  221.0780 C   0  0  0  0  0  0  0  0  0  0  0  0
  139.0360   76.6690  222.4750 C   0  0  0  0  0  0  0  0  0  0  0  0
  138.0640   77.6850  222.8590 C   0  0  0  0  0  0  0  0  0  0  0  0
  138.2810   79.0500  222.7520 N   0  0  0  0  0  0  0  0  0  0  0  0
  138.6950   79.7450  221.6300 C   0  0  0  0  0  0  0  0  0  0  0  0
  138.9280   81.2230  221.9750 C   0  0  0  0  0  0  0  0  0  0  0  0
  139.4660   81.2530  223.2510 O   0  0  0  0  0  0  0  0  0  0  0  0
  138.4860   80.9630  224.2040 C   0  0  0  0  0  0  0  0  0  0  0  0
  137.5680   79.8530  223.7400 C   0  0  0  0  0  0  0  0  0  0  0  0
  142.1133   72.1776  221.7231 H   0  0  0  0  0  0  0  0  0  0  0  0
  144.4349   71.4219  221.1378 H   0  0  0  0  0  0  0  0  0  0  0  0
  145.1102   75.2212  219.2201 H   0  0  0  0  0  0  0  0  0  0  0  0
  140.0685   78.0438  219.1559 H   0  0  0  0  0  0  0  0  0  0  0  0
  142.3433   79.4724  219.2376 H   0  0  0  0  0  0  0  0  0  0  0  0
  142.7585   81.2634  221.0775 H   0  0  0  0  0  0  0  0  0  0  0  0
  142.9671   81.7448  223.5094 H   0  0  0  0  0  0  0  0  0  0  0  0
  142.3009   80.0873  225.2199 H   0  0  0  0  0  0  0  0  0  0  0  0
  141.3943   77.8553  224.4416 H   0  0  0  0  0  0  0  0  0  0  0  0
  139.1310   77.1166  220.4298 H   0  0  0  0  0  0  0  0  0  0  0  0
  138.5826   75.4111  220.9028 H   0  0  0  0  0  0  0  0  0  0  0  0
  138.7446   75.7580  223.0183 H   0  0  0  0  0  0  0  0  0  0  0  0
  139.9792   77.1868  222.7036 H   0  0  0  0  0  0  0  0  0  0  0  0
  137.1655   77.4788  222.2588 H   0  0  0  0  0  0  0  0  0  0  0  0
  138.0558   77.5615  223.9520 H   0  0  0  0  0  0  0  0  0  0  0  0
  139.6327   79.3071  221.2573 H   0  0  0  0  0  0  0  0  0  0  0  0
  137.9143   79.6763  220.8581 H   0  0  0  0  0  0  0  0  0  0  0  0
  139.6289   81.6741  221.2572 H   0  0  0  0  0  0  0  0  0  0  0  0
  137.9887   81.7935  221.9277 H   0  0  0  0  0  0  0  0  0  0  0  0
  138.9772   80.6528  225.1380 H   0  0  0  0  0  0  0  0  0  0  0  0
  137.8800   81.8676  224.3601 H   0  0  0  0  0  0  0  0  0  0  0  0
  137.2841   79.2232  224.5960 H   0  0  0  0  0  0  0  0  0  0  0  0
  136.6556   80.2773  223.2956 H   0  0  0  0  0  0  0  0  0  0  0  0
  1  2  2  0
  2  3  1  0
  3  4  2  0
  4  5  1  0
  5  6  2  0
  6  7  1  0
  6  8  1  0
  8  9  2  0
  9 10  1  0
 10 11  2  0
 11 12  1  0
 12 13  2  0
 13 14  1  0
 14 15  2  0
 15 16  1  0
 16 17  2  0
 17 18  1  0
 18 19  2  0
 11 20  1  0
 20 21  1  0
 21 22  1  0
 22 23  1  0
 23 24  1  0
 24 25  1  0
 25 26  1  0
 26 27  1  0
 27 28  1  0
 28 29  1  0
 20  2  1  0
 29 24  1  0
  9  3  1  0
 19 14  1  0
  4 30  1  0
  5 31  1  0
  8 32  1  0
 12 33  1  0
 13 34  1  0
 15 35  1  0
 16 36  1  0
 17 37  1  0
 18 38  1  0
 21 39  1  0
 21 40  1  0
 22 41  1  0
 22 42  1  0
 23 43  1  0
 23 44  1  0
 25 45  1  0
 25 46  1  0
 26 47  1  0
 26 48  1  0
 28 49  1  0
 28 50  1  0
 29 51  1  0
 29 52  1  0
M  END
>  <smiles>  (1) 
O=c1c2ccc(F)cc2nc(/C=C/c2ccccn2)n1CCCN1CCOCC1

>  <score_type>  (1) 
oracle

>  <origin>  (1) 
autodockgpu

>  <m_score__min__energy>  (1) 
-8.2400000000000002

>  <m_primary>  (1) 
energy

>  <meeko>  (1) 
{"free_energy": -5.98, "intermolecular_energy": -8.07, "internal_energy": -2.25, "cluster_size": 2, "cluster_id": 7, "rank_in_cluster": 2}

>  <energy>  (1) 
-8.24

>  <cluster_rmsd>  (1) 
0.0

>  <rmsd>  (1) 
271.21

>  <cluster>  (1) 
1

$$$$

     RDKit          3D

 52 55  0  0  0  0  0  0  0  0999 V2000
  136.1200   71.5540  222.8700 O   0  0  0  0  0  0  0  0  0  0  0  0
  137.2330   71.1610  223.2340 C   0  0  0  0  0  0  0  0  0  0  0  0
  138.3290   71.8880  222.7830 C   0  0  0  0  0  0  0  0  0  0  0  0
  138.1210   72.9960  221.9680 C   0  0  0  0  0  0  0  0  0  0  0  0
  139.2100   73.7320  221.5100 C   0  0  0  0  0  0  0  0  0  0  0  0
  140.4760   73.3250  221.8890 C   0  0  0  0  0  0  0  0  0  0  0  0
  141.5170   74.0610  221.4270 F   0  0  0  0  0  0  0  0  0  0  0  0
  140.6540   72.2130  222.7030 C   0  0  0  0  0  0  0  0  0  0  0  0
  139.5900   71.4800  223.1620 C   0  0  0  0  0  0  0  0  0  0  0  0
  139.6790   70.4060  223.9430 N   0  0  0  0  0  0  0  0  0  0  0  0
  138.6060   69.7240  224.3620 C   0  0  0  0  0  0  0  0  0  0  0  0
  138.8550   68.5540  225.1970 C   0  0  0  0  0  0  0  0  0  0  0  0
  139.9060   68.5830  226.0360 C   0  0  0  0  0  0  0  0  0  0  0  0
  140.2250   69.8470  226.7360 C   0  0  0  0  0  0  0  0  0  0  0  0
  139.6330   70.1800  227.9370 C   0  0  0  0  0  0  0  0  0  0  0  0
  139.9900   71.3930  228.5160 C   0  0  0  0  0  0  0  0  0  0  0  0
  140.8990   72.2530  227.9410 C   0  0  0  0  0  0  0  0  0  0  0  0
  141.4730   71.8760  226.7270 C   0  0  0  0  0  0  0  0  0  0  0  0
  141.1040   70.6980  226.1970 N   0  0  0  0  0  0  0  0  0  0  0  0
  137.3270   70.0900  224.0150 N   0  0  0  0  0  0  0  0  0  0  0  0
  136.2830   69.2630  224.5270 C   0  0  0  0  0  0  0  0  0  0  0  0
  135.2910   69.9130  225.4140 C   0  0  0  0  0  0  0  0  0  0  0  0
  134.0860   70.5830  224.9410 C   0  0  0  0  0  0  0  0  0  0  0  0
  133.7180   71.8700  225.2990 N   0  0  0  0  0  0  0  0  0  0  0  0
  134.1580   73.0530  224.7330 C   0  0  0  0  0  0  0  0  0  0  0  0
  133.5970   74.2550  225.5070 C   0  0  0  0  0  0  0  0  0  0  0  0
  133.5850   73.8960  226.8450 O   0  0  0  0  0  0  0  0  0  0  0  0
  132.5590   72.9800  227.0970 C   0  0  0  0  0  0  0  0  0  0  0  0
  132.4340   71.9610  225.9870 C   0  0  0  0  0  0  0  0  0  0  0  0
  137.0990   73.2896  221.6864 H   0  0  0  0  0  0  0  0  0  0  0  0
  139.0677   74.6118  220.8653 H   0  0  0  0  0  0  0  0  0  0  0  0
  141.6738   71.9133  222.9862 H   0  0  0  0  0  0  0  0  0  0  0  0
  138.2006   67.6715  225.1420 H   0  0  0  0  0  0  0  0  0  0  0  0
  140.5174   67.6832  226.1988 H   0  0  0  0  0  0  0  0  0  0  0  0
  138.9053   69.5105  228.4189 H   0  0  0  0  0  0  0  0  0  0  0  0
  139.5273   71.6772  229.4726 H   0  0  0  0  0  0  0  0  0  0  0  0
  141.1636   73.2056  228.4231 H   0  0  0  0  0  0  0  0  0  0  0  0
  142.2044   72.5225  226.2198 H   0  0  0  0  0  0  0  0  0  0  0  0
  135.7379   68.8450  223.6679 H   0  0  0  0  0  0  0  0  0  0  0  0
  136.7892   68.5179  225.1583 H   0  0  0  0  0  0  0  0  0  0  0  0
  134.9441   69.1258  226.0996 H   0  0  0  0  0  0  0  0  0  0  0  0
  135.8733   70.7697  225.7841 H   0  0  0  0  0  0  0  0  0  0  0  0
  134.1615   70.5901  223.8436 H   0  0  0  0  0  0  0  0  0  0  0  0
  133.3090   69.9961  225.4527 H   0  0  0  0  0  0  0  0  0  0  0  0
  135.2572   73.0829  224.7631 H   0  0  0  0  0  0  0  0  0  0  0  0
  133.8082   73.1032  223.6913 H   0  0  0  0  0  0  0  0  0  0  0  0
  134.2385   75.1358  225.3565 H   0  0  0  0  0  0  0  0  0  0  0  0
  132.5867   74.5142  225.1576 H   0  0  0  0  0  0  0  0  0  0  0  0
  132.7730   72.4555  228.0399 H   0  0  0  0  0  0  0  0  0  0  0  0
  131.6116   73.5353  227.1610 H   0  0  0  0  0  0  0  0  0  0  0  0
  132.1690   70.9809  226.4104 H   0  0  0  0  0  0  0  0  0  0  0  0
  131.6474   72.2655  225.2809 H   0  0  0  0  0  0  0  0  0  0  0  0
  1  2  2  0
  2  3  1  0
  3  4  2  0
  4  5  1  0
  5  6  2  0
  6  7  1  0
  6  8  1  0
  8  9  2  0
  9 10  1  0
 10 11  2  0
 11 12  1  0
 12 13  2  0
 13 14  1  0
 14 15  2  0
 15 16  1  0
 16 17  2  0
 17 18  1  0
 18 19  2  0
 11 20  1  0
 20 21  1  0
 21 22  1  0
 22 23  1  0
 23 24  1  0
 24 25  1  0
 25 26  1  0
 26 27  1  0
 27 28  1  0
 28 29  1  0
 20  2  1  0
 29 24  1  0
  9  3  1  0
 19 14  1  0
  4 30  1  0
  5 31  1  0
  8 32  1  0
 12 33  1  0
 13 34  1  0
 15 35  1  0
 16 36  1  0
 17 37  1  0
 18 38  1  0
 21 39  1  0
 21 40  1  0
 22 41  1  0
 22 42  1  0
 23 43  1  0
 23 44  1  0
 25 45  1  0
 25 46  1  0
 26 47  1  0
 26 48  1  0
 28 49  1  0
 28 50  1  0
 29 51  1  0
 29 52  1  0
M  END
>  <smiles>  (2) 
O=c1c2ccc(F)cc2nc(/C=C/c2ccccn2)n1CCCN1CCOCC1

>  <score_type>  (2) 
oracle

>  <origin>  (2) 
autodockgpu

>  <m_score__min__energy>  (2) 
-8.2400000000000002

>  <m_primary>  (2) 
energy

>  <meeko>  (2) 
{"free_energy": -6.9, "intermolecular_energy": -8.99, "internal_energy": -1.42, "cluster_size": 1, "cluster_id": 3, "rank_in_cluster": 1}

>  <energy>  (2) 
-8.2

>  <cluster_rmsd>  (2) 
0.69

>  <rmsd>  (2) 
271.43

>  <cluster>  (2) 
1

$$$$

     RDKit          3D

 52 55  0  0  0  0  0  0  0  0999 V2000
  139.1710   67.7430  225.3160 O   0  0  0  0  0  0  0  0  0  0  0  0
  139.4410   68.9170  225.0390 C   0  0  0  0  0  0  0  0  0  0  0  0
  140.0210   69.6780  226.0480 C   0  0  0  0  0  0  0  0  0  0  0  0
  140.2660   69.0920  227.2860 C   0  0  0  0  0  0  0  0  0  0  0  0
  140.8460   69.8440  228.3040 C   0  0  0  0  0  0  0  0  0  0  0  0
  141.1610   71.1640  228.0390 C   0  0  0  0  0  0  0  0  0  0  0  0
  141.7250   71.8700  229.0500 F   0  0  0  0  0  0  0  0  0  0  0  0
  140.9050   71.7220  226.7930 C   0  0  0  0  0  0  0  0  0  0  0  0
  140.3340   70.9930  225.7810 C   0  0  0  0  0  0  0  0  0  0  0  0
  140.0590   71.4560  224.5650 N   0  0  0  0  0  0  0  0  0  0  0  0
  139.4990   70.7010  223.6120 C   0  0  0  0  0  0  0  0  0  0  0  0
  139.2340   71.3460  222.3310 C   0  0  0  0  0  0  0  0  0  0  0  0
  139.0810   72.6830  222.3120 C   0  0  0  0  0  0  0  0  0  0  0  0
  140.1790   73.5180  221.7760 C   0  0  0  0  0  0  0  0  0  0  0  0
  141.2320   72.9690  221.0750 C   0  0  0  0  0  0  0  0  0  0  0  0
  142.2210   73.8330  220.6170 C   0  0  0  0  0  0  0  0  0  0  0  0
  142.1820   75.1920  220.8350 C   0  0  0  0  0  0  0  0  0  0  0  0
  141.0980   75.7050  221.5490 C   0  0  0  0  0  0  0  0  0  0  0  0
  140.1620   74.8400  221.9760 N   0  0  0  0  0  0  0  0  0  0  0  0
  139.1690   69.3830  223.8250 N   0  0  0  0  0  0  0  0  0  0  0  0
  138.5690   68.7060  222.7220 C   0  0  0  0  0  0  0  0  0  0  0  0
  137.2200   68.1360  222.9430 C   0  0  0  0  0  0  0  0  0  0  0  0
  135.9890   68.9150  222.9170 C   0  0  0  0  0  0  0  0  0  0  0  0
  135.1650   69.1080  224.0140 N   0  0  0  0  0  0  0  0  0  0  0  0
  135.3890   69.9480  225.0900 C   0  0  0  0  0  0  0  0  0  0  0  0
  134.2880   69.7700  226.1440 C   0  0  0  0  0  0  0  0  0  0  0  0
  133.9660   68.4230  226.1600 O   0  0  0  0  0  0  0  0  0  0  0  0
  133.2320   68.0810  225.0220 C   0  0  0  0  0  0  0  0  0  0  0  0
  133.7640   68.7690  223.7840 C   0  0  0  0  0  0  0  0  0  0  0  0
  140.0024   68.0383  227.4597 H   0  0  0  0  0  0  0  0  0  0  0  0
  141.0478   69.4010  229.2904 H   0  0  0  0  0  0  0  0  0  0  0  0
  141.1668   72.7752  226.6132 H   0  0  0  0  0  0  0  0  0  0  0  0
  139.1612   70.7558  221.4056 H   0  0  0  0  0  0  0  0  0  0  0  0
  138.1570   73.1465  222.6879 H   0  0  0  0  0  0  0  0  0  0  0  0
  141.2877   71.8870  220.8849 H   0  0  0  0  0  0  0  0  0  0  0  0
  143.0698   73.4131  220.0573 H   0  0  0  0  0  0  0  0  0  0  0  0
  142.9784   75.8512  220.4591 H   0  0  0  0  0  0  0  0  0  0  0  0
  141.0125   76.7820  221.7555 H   0  0  0  0  0  0  0  0  0  0  0  0
  138.4954   69.4232  221.8912 H   0  0  0  0  0  0  0  0  0  0  0  0
  139.2192   67.8404  222.5269 H   0  0  0  0  0  0  0  0  0  0  0  0
  137.0962   67.3583  222.1750 H   0  0  0  0  0  0  0  0  0  0  0  0
  137.2775   67.8740  224.0098 H   0  0  0  0  0  0  0  0  0  0  0  0
  136.2818   69.9219  222.5848 H   0  0  0  0  0  0  0  0  0  0  0  0
  135.3519   68.2733  222.2907 H   0  0  0  0  0  0  0  0  0  0  0  0
  136.3639   69.7090  225.5399 H   0  0  0  0  0  0  0  0  0  0  0  0
  135.3814   70.9900  224.7376 H   0  0  0  0  0  0  0  0  0  0  0  0
  134.6551   70.0837  227.1323 H   0  0  0  0  0  0  0  0  0  0  0  0
  133.4076   70.3843  225.9040 H   0  0  0  0  0  0  0  0  0  0  0  0
  133.2875   66.9921  224.8762 H   0  0  0  0  0  0  0  0  0  0  0  0
  132.1923   68.4063  225.1745 H   0  0  0  0  0  0  0  0  0  0  0  0
  133.6818   68.0942  222.9192 H   0  0  0  0  0  0  0  0  0  0  0  0
  133.1828   69.6798  223.5774 H   0  0  0  0  0  0  0  0  0  0  0  0
  1  2  2  0
  2  3  1  0
  3  4  2  0
  4  5  1  0
  5  6  2  0
  6  7  1  0
  6  8  1  0
  8  9  2  0
  9 10  1  0
 10 11  2  0
 11 12  1  0
 12 13  2  0
 13 14  1  0
 14 15  2  0
 15 16  1  0
 16 17  2  0
 17 18  1  0
 18 19  2  0
 11 20  1  0
 20 21  1  0
 21 22  1  0
 22 23  1  0
 23 24  1  0
 24 25  1  0
 25 26  1  0
 26 27  1  0
 27 28  1  0
 28 29  1  0
 20  2  1  0
 29 24  1  0
  9  3  1  0
 19 14  1  0
  4 30  1  0
  5 31  1  0
  8 32  1  0
 12 33  1  0
 13 34  1  0
 15 35  1  0
 16 36  1  0
 17 37  1  0
 18 38  1  0
 21 39  1  0
 21 40  1  0
 22 41  1  0
 22 42  1  0
 23 43  1  0
 23 44  1  0
 25 45  1  0
 25 46  1  0
 26 47  1  0
 26 48  1  0
 28 49  1  0
 28 50  1  0
 29 51  1  0
 29 52  1  0
M  END
>  <smiles>  (3) 
O=c1c2ccc(F)cc2nc(/C=C/c2ccccn2)n1CCCN1CCOCC1

>  <score_type>  (3) 
oracle

>  <origin>  (3) 
autodockgpu

>  <m_score__min__energy>  (3) 
-8.2400000000000002

>  <m_primary>  (3) 
energy

>  <meeko>  (3) 
{"free_energy": -7.78, "intermolecular_energy": -9.87, "internal_energy": -1.25, "cluster_size": 11, "cluster_id": 1, "rank_in_cluster": 7}

>  <energy>  (3) 
-7.96

>  <cluster_rmsd>  (3) 
0.61

>  <rmsd>  (3) 
271.38

>  <cluster>  (3) 
1

$$$$

     RDKit          3D

 52 55  0  0  0  0  0  0  0  0999 V2000
  139.1500   67.7920  225.3370 O   0  0  0  0  0  0  0  0  0  0  0  0
  139.4710   68.9510  225.0540 C   0  0  0  0  0  0  0  0  0  0  0  0
  140.0590   69.7000  226.0690 C   0  0  0  0  0  0  0  0  0  0  0  0
  140.2550   69.1170  227.3170 C   0  0  0  0  0  0  0  0  0  0  0  0
  140.8420   69.8570  228.3410 C   0  0  0  0  0  0  0  0  0  0  0  0
  141.2130   71.1610  228.0700 C   0  0  0  0  0  0  0  0  0  0  0  0
  141.7820   71.8550  229.0870 F   0  0  0  0  0  0  0  0  0  0  0  0
  141.0050   71.7160  226.8140 C   0  0  0  0  0  0  0  0  0  0  0  0
  140.4280   70.9990  225.7970 C   0  0  0  0  0  0  0  0  0  0  0  0
  140.1960   71.4600  224.5700 N   0  0  0  0  0  0  0  0  0  0  0  0
  139.6280   70.7180  223.6130 C   0  0  0  0  0  0  0  0  0  0  0  0
  139.4140   71.3600  222.3210 C   0  0  0  0  0  0  0  0  0  0  0  0
  140.4920   71.7810  221.6340 C   0  0  0  0  0  0  0  0  0  0  0  0
  140.7310   73.2360  221.5040 C   0  0  0  0  0  0  0  0  0  0  0  0
  141.8260   73.7330  220.8300 C   0  0  0  0  0  0  0  0  0  0  0  0
  141.9710   75.1150  220.7670 C   0  0  0  0  0  0  0  0  0  0  0  0
  141.0730   75.9840  221.3440 C   0  0  0  0  0  0  0  0  0  0  0  0
  139.9790   75.4380  222.0160 C   0  0  0  0  0  0  0  0  0  0  0  0
  139.8720   74.0990  222.0560 N   0  0  0  0  0  0  0  0  0  0  0  0
  139.2430   69.4150  223.8310 N   0  0  0  0  0  0  0  0  0  0  0  0
  138.6400   68.7510  222.7220 C   0  0  0  0  0  0  0  0  0  0  0  0
  137.3090   68.1430  222.9510 C   0  0  0  0  0  0  0  0  0  0  0  0
  136.0580   68.8900  222.9470 C   0  0  0  0  0  0  0  0  0  0  0  0
  135.1860   68.9560  224.0220 N   0  0  0  0  0  0  0  0  0  0  0  0
  135.1960   69.8790  225.0510 C   0  0  0  0  0  0  0  0  0  0  0  0
  134.1340   69.5200  226.1000 C   0  0  0  0  0  0  0  0  0  0  0  0
  134.1130   68.1370  226.1870 O   0  0  0  0  0  0  0  0  0  0  0  0
  133.4970   67.5850  225.0600 C   0  0  0  0  0  0  0  0  0  0  0  0
  133.8980   68.3080  223.7930 C   0  0  0  0  0  0  0  0  0  0  0  0
  139.9477   68.0758  227.4944 H   0  0  0  0  0  0  0  0  0  0  0  0
  141.0055   69.4168  229.3358 H   0  0  0  0  0  0  0  0  0  0  0  0
  141.3106   72.7566  226.6302 H   0  0  0  0  0  0  0  0  0  0  0  0
  138.3992   71.4964  221.9190 H   0  0  0  0  0  0  0  0  0  0  0  0
  141.1829   71.0570  221.1774 H   0  0  0  0  0  0  0  0  0  0  0  0
  142.5586   73.0610  220.3591 H   0  0  0  0  0  0  0  0  0  0  0  0
  142.8390   75.5305  220.2341 H   0  0  0  0  0  0  0  0  0  0  0  0
  141.2132   77.0730  221.2775 H   0  0  0  0  0  0  0  0  0  0  0  0
  139.2286   76.0824  222.4973 H   0  0  0  0  0  0  0  0  0  0  0  0
  138.5348   69.4865  221.9108 H   0  0  0  0  0  0  0  0  0  0  0  0
  139.3071   67.9064  222.4947 H   0  0  0  0  0  0  0  0  0  0  0  0
  137.1971   67.3708  222.1756 H   0  0  0  0  0  0  0  0  0  0  0  0
  137.3850   67.8703  224.0139 H   0  0  0  0  0  0  0  0  0  0  0  0
  136.3345   69.9312  222.7245 H   0  0  0  0  0  0  0  0  0  0  0  0
  135.4649   68.2959  222.2361 H   0  0  0  0  0  0  0  0  0  0  0  0
  136.1883   69.8823  225.5257 H   0  0  0  0  0  0  0  0  0  0  0  0
  134.9710   70.8745  224.6406 H   0  0  0  0  0  0  0  0  0  0  0  0
  134.3997   69.9573  227.0738 H   0  0  0  0  0  0  0  0  0  0  0  0
  133.1472   69.9140  225.8155 H   0  0  0  0  0  0  0  0  0  0  0  0
  133.7899   66.5281  224.9753 H   0  0  0  0  0  0  0  0  0  0  0  0
  132.4082   67.6837  225.1813 H   0  0  0  0  0  0  0  0  0  0  0  0
  133.9859   67.5880  222.9660 H   0  0  0  0  0  0  0  0  0  0  0  0
  133.1383   69.0584  223.5287 H   0  0  0  0  0  0  0  0  0  0  0  0
  1  2  2  0
  2  3  1  0
  3  4  2  0
  4  5  1  0
  5  6  2  0
  6  7  1  0
  6  8  1  0
  8  9  2  0
  9 10  1  0
 10 11  2  0
 11 12  1  0
 12 13  2  0
 13 14  1  0
 14 15  2  0
 15 16  1  0
 16 17  2  0
 17 18  1  0
 18 19  2  0
 11 20  1  0
 20 21  1  0
 21 22  1  0
 22 23  1  0
 23 24  1  0
 24 25  1  0
 25 26  1  0
 26 27  1  0
 27 28  1  0
 28 29  1  0
 20  2  1  0
 29 24  1  0
  9  3  1  0
 19 14  1  0
  4 30  1  0
  5 31  1  0
  8 32  1  0
 12 33  1  0
 13 34  1  0
 15 35  1  0
 16 36  1  0
 17 37  1  0
 18 38  1  0
 21 39  1  0
 21 40  1  0
 22 41  1  0
 22 42  1  0
 23 43  1  0
 23 44  1  0
 25 45  1  0
 25 46  1  0
 26 47  1  0
 26 48  1  0
 28 49  1  0
 28 50  1  0
 29 51  1  0
 29 52  1  0
M  END
>  <smiles>  (4) 
O=c1c2ccc(F)cc2nc(/C=C/c2ccccn2)n1CCCN1CCOCC1

>  <score_type>  (4) 
oracle

>  <origin>  (4) 
autodockgpu

>  <m_score__min__energy>  (4) 
-8.2400000000000002

>  <m_primary>  (4) 
energy

>  <meeko>  (4) 
{"free_energy": -7.96, "intermolecular_energy": -10.05, "internal_energy": -1.15, "cluster_size": 11, "cluster_id": 1, "rank_in_cluster": 3}

>  <energy>  (4) 
-7.89

>  <cluster_rmsd>  (4) 
0.86

>  <rmsd>  (4) 
271.22

>  <cluster>  (4) 
1

$$$$

     RDKit          3D

 52 55  0  0  0  0  0  0  0  0999 V2000
  138.7650   68.0230  225.0830 O   0  0  0  0  0  0  0  0  0  0  0  0
  139.1690   69.1570  224.8010 C   0  0  0  0  0  0  0  0  0  0  0  0
  139.8120   69.8590  225.8150 C   0  0  0  0  0  0  0  0  0  0  0  0
  139.9670   69.2620  227.0620 C   0  0  0  0  0  0  0  0  0  0  0  0
  140.6090   69.9550  228.0850 C   0  0  0  0  0  0  0  0  0  0  0  0
  141.0740   71.2290  227.8150 C   0  0  0  0  0  0  0  0  0  0  0  0
  141.6950   71.8780  228.8310 F   0  0  0  0  0  0  0  0  0  0  0  0
  140.9040   71.7990  226.5610 C   0  0  0  0  0  0  0  0  0  0  0  0
  140.2740   71.1280  225.5440 C   0  0  0  0  0  0  0  0  0  0  0  0
  140.0740   71.6070  224.3180 N   0  0  0  0  0  0  0  0  0  0  0  0
  139.4500   70.9090  223.3610 C   0  0  0  0  0  0  0  0  0  0  0  0
  139.2820   71.5670  222.0710 C   0  0  0  0  0  0  0  0  0  0  0  0
  138.4540   72.6260  222.0000 C   0  0  0  0  0  0  0  0  0  0  0  0
  139.0360   73.9860  221.9940 C   0  0  0  0  0  0  0  0  0  0  0  0
  138.2430   75.1140  222.0030 C   0  0  0  0  0  0  0  0  0  0  0  0
  138.8800   76.3500  221.9890 C   0  0  0  0  0  0  0  0  0  0  0  0
  140.2510   76.4800  221.9680 C   0  0  0  0  0  0  0  0  0  0  0  0
  141.0150   75.3130  221.9600 C   0  0  0  0  0  0  0  0  0  0  0  0
  140.3640   74.1370  221.9730 N   0  0  0  0  0  0  0  0  0  0  0  0
  138.9720   69.6380  223.5790 N   0  0  0  0  0  0  0  0  0  0  0  0
  138.3200   69.0210  222.4700 C   0  0  0  0  0  0  0  0  0  0  0  0
  136.8550   69.2110  222.3680 C   0  0  0  0  0  0  0  0  0  0  0  0
  135.8720   68.3690  223.0390 C   0  0  0  0  0  0  0  0  0  0  0  0
  135.0830   68.7870  224.0990 N   0  0  0  0  0  0  0  0  0  0  0  0
  135.3500   69.8130  224.9860 C   0  0  0  0  0  0  0  0  0  0  0  0
  134.2760   69.8630  226.0820 C   0  0  0  0  0  0  0  0  0  0  0  0
  133.9350   68.5510  226.3650 O   0  0  0  0  0  0  0  0  0  0  0  0
  133.1630   68.0110  225.3320 C   0  0  0  0  0  0  0  0  0  0  0  0
  133.6710   68.4380  223.9730 C   0  0  0  0  0  0  0  0  0  0  0  0
  139.5838   68.2462  227.2392 H   0  0  0  0  0  0  0  0  0  0  0  0
  140.7423   69.5024  229.0787 H   0  0  0  0  0  0  0  0  0  0  0  0
  141.2842   72.8149  226.3780 H   0  0  0  0  0  0  0  0  0  0  0  0
  139.8174   71.2078  221.1797 H   0  0  0  0  0  0  0  0  0  0  0  0
  137.3646   72.4827  221.9474 H   0  0  0  0  0  0  0  0  0  0  0  0
  137.1457   75.0388  222.0206 H   0  0  0  0  0  0  0  0  0  0  0  0
  138.2638   77.2612  221.9949 H   0  0  0  0  0  0  0  0  0  0  0  0
  140.7277   77.4713  221.9579 H   0  0  0  0  0  0  0  0  0  0  0  0
  142.1141   75.3537  221.9436 H   0  0  0  0  0  0  0  0  0  0  0  0
  138.7727   69.4232  221.5517 H   0  0  0  0  0  0  0  0  0  0  0  0
  138.4610   67.9401  222.6175 H   0  0  0  0  0  0  0  0  0  0  0  0
  136.6623   70.2341  222.7232 H   0  0  0  0  0  0  0  0  0  0  0  0
  136.6825   68.9345  221.3174 H   0  0  0  0  0  0  0  0  0  0  0  0
  135.1706   68.0481  222.2547 H   0  0  0  0  0  0  0  0  0  0  0  0
  136.5289   67.6446  223.5427 H   0  0  0  0  0  0  0  0  0  0  0  0
  136.3336   69.6455  225.4492 H   0  0  0  0  0  0  0  0  0  0  0  0
  135.3484   70.7677  224.4397 H   0  0  0  0  0  0  0  0  0  0  0  0
  134.6753   70.3535  226.9820 H   0  0  0  0  0  0  0  0  0  0  0  0
  133.3984   70.4372  225.7501 H   0  0  0  0  0  0  0  0  0  0  0  0
  133.1978   66.9135  225.3970 H   0  0  0  0  0  0  0  0  0  0  0  0
  132.1328   68.3797  225.4447 H   0  0  0  0  0  0  0  0  0  0  0  0
  133.5549   67.6117  223.2563 H   0  0  0  0  0  0  0  0  0  0  0  0
  133.0981   69.3039  223.6097 H   0  0  0  0  0  0  0  0  0  0  0  0
  1  2  2  0
  2  3  1  0
  3  4  2  0
  4  5  1  0
  5  6  2  0
  6  7  1  0
  6  8  1  0
  8  9  2  0
  9 10  1  0
 10 11  2  0
 11 12  1  0
 12 13  2  0
 13 14  1  0
 14 15  2  0
 15 16  1  0
 16 17  2  0
 17 18  1  0
 18 19  2  0
 11 20  1  0
 20 21  1  0
 21 22  1  0
 22 23  1  0
 23 24  1  0
 24 25  1  0
 25 26  1  0
 26 27  1  0
 27 28  1  0
 28 29  1  0
 20  2  1  0
 29 24  1  0
  9  3  1  0
 19 14  1  0
  4 30  1  0
  5 31  1  0
  8 32  1  0
 12 33  1  0
 13 34  1  0
 15 35  1  0
 16 36  1  0
 17 37  1  0
 18 38  1  0
 21 39  1  0
 21 40  1  0
 22 41  1  0
 22 42  1  0
 23 43  1  0
 23 44  1  0
 25 45  1  0
 25 46  1  0
 26 47  1  0
 26 48  1  0
 28 49  1  0
 28 50  1  0
 29 51  1  0
 29 52  1  0
M  END
>  <smiles>  (5) 
O=c1c2ccc(F)cc2nc(/C=C/c2ccccn2)n1CCCN1CCOCC1

>  <score_type>  (5) 
oracle

>  <origin>  (5) 
autodockgpu

>  <m_score__min__energy>  (5) 
-8.2400000000000002

>  <m_primary>  (5) 
energy

>  <meeko>  (5) 
{"free_energy": -7.89, "intermolecular_energy": -9.98, "internal_energy": -1.3, "cluster_size": 11, "cluster_id": 1, "rank_in_cluster": 4}

>  <energy>  (5) 
-7.85

>  <cluster_rmsd>  (5) 
0.37

>  <rmsd>  (5) 
271.3

>  <cluster>  (5) 
1

$$$$

     RDKit          3D

 52 55  0  0  0  0  0  0  0  0999 V2000
  141.2500   73.0590  218.6320 O   0  0  0  0  0  0  0  0  0  0  0  0
  140.9310   73.5450  219.7220 C   0  0  0  0  0  0  0  0  0  0  0  0
  140.5980   72.6470  220.7300 C   0  0  0  0  0  0  0  0  0  0  0  0
  140.6440   71.2810  220.4670 C   0  0  0  0  0  0  0  0  0  0  0  0
  140.3130   70.3720  221.4680 C   0  0  0  0  0  0  0  0  0  0  0  0
  139.9440   70.8720  222.7040 C   0  0  0  0  0  0  0  0  0  0  0  0
  139.6270   69.9620  223.6590 F   0  0  0  0  0  0  0  0  0  0  0  0
  139.9070   72.2400  222.9380 C   0  0  0  0  0  0  0  0  0  0  0  0
  140.2310   73.1470  221.9610 C   0  0  0  0  0  0  0  0  0  0  0  0
  140.2180   74.4690  222.1080 N   0  0  0  0  0  0  0  0  0  0  0  0
  140.5440   75.3110  221.1190 C   0  0  0  0  0  0  0  0  0  0  0  0
  140.4650   76.7370  221.4160 C   0  0  0  0  0  0  0  0  0  0  0  0
  141.0050   77.1780  222.5670 C   0  0  0  0  0  0  0  0  0  0  0  0
  141.4350   78.5910  222.6580 C   0  0  0  0  0  0  0  0  0  0  0  0
  141.8300   79.1540  223.8530 C   0  0  0  0  0  0  0  0  0  0  0  0
  142.2100   80.4910  223.8420 C   0  0  0  0  0  0  0  0  0  0  0  0
  142.2060   81.2560  222.6960 C   0  0  0  0  0  0  0  0  0  0  0  0
  141.7990   80.6470  221.5090 C   0  0  0  0  0  0  0  0  0  0  0  0
  141.4380   79.3530  221.5590 N   0  0  0  0  0  0  0  0  0  0  0  0
  140.9190   74.8650  219.8740 N   0  0  0  0  0  0  0  0  0  0  0  0
  141.2260   75.8770  218.9170 C   0  0  0  0  0  0  0  0  0  0  0  0
  142.6390   76.3150  218.8390 C   0  0  0  0  0  0  0  0  0  0  0  0
  143.6920   75.8390  219.7260 C   0  0  0  0  0  0  0  0  0  0  0  0
  144.2990   74.5980  219.6180 N   0  0  0  0  0  0  0  0  0  0  0  0
  144.7120   73.7760  220.6520 C   0  0  0  0  0  0  0  0  0  0  0  0
  145.4460   72.5480  220.0960 C   0  0  0  0  0  0  0  0  0  0  0  0
  146.1760   72.9830  219.0020 O   0  0  0  0  0  0  0  0  0  0  0  0
  145.3310   73.2360  217.9180 C   0  0  0  0  0  0  0  0  0  0  0  0
  144.0490   73.9120  218.3540 C   0  0  0  0  0  0  0  0  0  0  0  0
  140.9410   70.9207  219.4710 H   0  0  0  0  0  0  0  0  0  0  0  0
  140.3439   69.2883  221.2817 H   0  0  0  0  0  0  0  0  0  0  0  0
  139.6104   72.6059  223.9320 H   0  0  0  0  0  0  0  0  0  0  0  0
  139.9771   77.4331  220.7179 H   0  0  0  0  0  0  0  0  0  0  0  0
  141.1247   76.5001  223.4250 H   0  0  0  0  0  0  0  0  0  0  0  0
  141.8439   78.5658  224.7824 H   0  0  0  0  0  0  0  0  0  0  0  0
  142.5268   80.9573  224.7866 H   0  0  0  0  0  0  0  0  0  0  0  0
  142.5136   82.3119  222.7165 H   0  0  0  0  0  0  0  0  0  0  0  0
  141.7742   81.2073  220.5627 H   0  0  0  0  0  0  0  0  0  0  0  0
  140.9406   75.4953  217.9256 H   0  0  0  0  0  0  0  0  0  0  0  0
  140.6669   76.7649  219.2472 H   0  0  0  0  0  0  0  0  0  0  0  0
  142.9722   76.0655  217.8208 H   0  0  0  0  0  0  0  0  0  0  0  0
  142.5504   77.3620  219.1646 H   0  0  0  0  0  0  0  0  0  0  0  0
  144.5049   76.5756  219.6445 H   0  0  0  0  0  0  0  0  0  0  0  0
  143.1318   75.7146  220.6645 H   0  0  0  0  0  0  0  0  0  0  0  0
  145.3906   74.3363  221.3120 H   0  0  0  0  0  0  0  0  0  0  0  0
  143.8295   73.4401  221.2162 H   0  0  0  0  0  0  0  0  0  0  0  0
  146.1191   72.1307  220.8594 H   0  0  0  0  0  0  0  0  0  0  0  0
  144.7359   71.7583  219.8095 H   0  0  0  0  0  0  0  0  0  0  0  0
  145.8534   73.8892  217.2035 H   0  0  0  0  0  0  0  0  0  0  0  0
  145.0706   72.2733  217.4540 H   0  0  0  0  0  0  0  0  0  0  0  0
  143.7346   74.6400  217.5916 H   0  0  0  0  0  0  0  0  0  0  0  0
  143.2509   73.1655  218.4795 H   0  0  0  0  0  0  0  0  0  0  0  0
  1  2  2  0
  2  3  1  0
  3  4  2  0
  4  5  1  0
  5  6  2  0
  6  7  1  0
  6  8  1  0
  8  9  2  0
  9 10  1  0
 10 11  2  0
 11 12  1  0
 12 13  2  0
 13 14  1  0
 14 15  2  0
 15 16  1  0
 16 17  2  0
 17 18  1  0
 18 19  2  0
 11 20  1  0
 20 21  1  0
 21 22  1  0
 22 23  1  0
 23 24  1  0
 24 25  1  0
 25 26  1  0
 26 27  1  0
 27 28  1  0
 28 29  1  0
 20  2  1  0
 29 24  1  0
  9  3  1  0
 19 14  1  0
  4 30  1  0
  5 31  1  0
  8 32  1  0
 12 33  1  0
 13 34  1  0
 15 35  1  0
 16 36  1  0
 17 37  1  0
 18 38  1  0
 21 39  1  0
 21 40  1  0
 22 41  1  0
 22 42  1  0
 23 43  1  0
 23 44  1  0
 25 45  1  0
 25 46  1  0
 26 47  1  0
 26 48  1  0
 28 49  1  0
 28 50  1  0
 29 51  1  0
 29 52  1  0
M  END
>  <smiles>  (6) 
O=c1c2ccc(F)cc2nc(/C=C/c2ccccn2)n1CCCN1CCOCC1

>  <score_type>  (6) 
oracle

>  <origin>  (6) 
autodockgpu

>  <m_score__min__energy>  (6) 
-8.2400000000000002

>  <m_primary>  (6) 
energy

>  <meeko>  (6) 
{"free_energy": -6.63, "intermolecular_energy": -8.72, "internal_energy": -1.64, "cluster_size": 2, "cluster_id": 4, "rank_in_cluster": 2}

>  <energy>  (6) 
-7.83

>  <cluster_rmsd>  (6) 
0.63

>  <rmsd>  (6) 
271.46

>  <cluster>  (6) 
1

$$$$

     RDKit          3D

 52 55  0  0  0  0  0  0  0  0999 V2000
  141.1650   73.2250  218.5890 O   0  0  0  0  0  0  0  0  0  0  0  0
  140.8970   73.6740  219.7090 C   0  0  0  0  0  0  0  0  0  0  0  0
  140.5760   72.7430  220.6920 C   0  0  0  0  0  0  0  0  0  0  0  0
  140.5780   71.3890  220.3720 C   0  0  0  0  0  0  0  0  0  0  0  0
  140.2580   70.4480  221.3480 C   0  0  0  0  0  0  0  0  0  0  0  0
  139.9460   70.9050  222.6150 C   0  0  0  0  0  0  0  0  0  0  0  0
  139.6400   69.9650  223.5430 F   0  0  0  0  0  0  0  0  0  0  0  0
  139.9530   72.2640  222.9050 C   0  0  0  0  0  0  0  0  0  0  0  0
  140.2660   73.2010  221.9540 C   0  0  0  0  0  0  0  0  0  0  0  0
  140.2940   74.5160  222.1550 N   0  0  0  0  0  0  0  0  0  0  0  0
  140.6060   75.3900  221.1900 C   0  0  0  0  0  0  0  0  0  0  0  0
  140.5750   76.8040  221.5460 C   0  0  0  0  0  0  0  0  0  0  0  0
  141.0690   77.1690  222.7430 C   0  0  0  0  0  0  0  0  0  0  0  0
  141.3340   78.6020  222.9980 C   0  0  0  0  0  0  0  0  0  0  0  0
  140.3150   79.4930  223.2600 C   0  0  0  0  0  0  0  0  0  0  0  0
  140.6610   80.8220  223.4800 C   0  0  0  0  0  0  0  0  0  0  0  0
  141.9640   81.2670  223.4460 C   0  0  0  0  0  0  0  0  0  0  0  0
  142.9640   80.3310  223.1770 C   0  0  0  0  0  0  0  0  0  0  0  0
  142.5910   79.0570  222.9700 N   0  0  0  0  0  0  0  0  0  0  0  0
  140.9250   74.9860  219.9150 N   0  0  0  0  0  0  0  0  0  0  0  0
  141.2240   76.0280  218.9880 C   0  0  0  0  0  0  0  0  0  0  0  0
  142.6480   76.4150  218.8570 C   0  0  0  0  0  0  0  0  0  0  0  0
  143.7140   75.9180  219.7180 C   0  0  0  0  0  0  0  0  0  0  0  0
  144.2730   74.6540  219.6140 N   0  0  0  0  0  0  0  0  0  0  0  0
  144.6460   73.8170  220.6500 C   0  0  0  0  0  0  0  0  0  0  0  0
  145.3360   72.5610  220.0990 C   0  0  0  0  0  0  0  0  0  0  0  0
  146.0890   72.9670  219.0100 O   0  0  0  0  0  0  0  0  0  0  0  0
  145.2620   73.2530  217.9200 C   0  0  0  0  0  0  0  0  0  0  0  0
  144.0050   73.9780  218.3480 C   0  0  0  0  0  0  0  0  0  0  0  0
  140.8312   71.0629  219.3524 H   0  0  0  0  0  0  0  0  0  0  0  0
  140.2537   69.3725  221.1173 H   0  0  0  0  0  0  0  0  0  0  0  0
  139.7012   72.5964  223.9229 H   0  0  0  0  0  0  0  0  0  0  0  0
  140.1590   77.5517  220.8547 H   0  0  0  0  0  0  0  0  0  0  0  0
  141.2722   76.4155  223.5182 H   0  0  0  0  0  0  0  0  0  0  0  0
  139.2658   79.1645  223.2938 H   0  0  0  0  0  0  0  0  0  0  0  0
  139.8612   81.5475  223.6898 H   0  0  0  0  0  0  0  0  0  0  0  0
  142.2084   82.3245  223.6248 H   0  0  0  0  0  0  0  0  0  0  0  0
  144.0227   80.6268  223.1359 H   0  0  0  0  0  0  0  0  0  0  0  0
  140.8747   75.7026  217.9970 H   0  0  0  0  0  0  0  0  0  0  0  0
  140.7176   76.9206  219.3840 H   0  0  0  0  0  0  0  0  0  0  0  0
  142.9387   76.1369  217.8332 H   0  0  0  0  0  0  0  0  0  0  0  0
  142.6056   77.4695  219.1673 H   0  0  0  0  0  0  0  0  0  0  0  0
  144.5490   76.6234  219.5948 H   0  0  0  0  0  0  0  0  0  0  0  0
  143.1824   75.8313  220.6771 H   0  0  0  0  0  0  0  0  0  0  0  0
  145.3410   74.3505  221.3151 H   0  0  0  0  0  0  0  0  0  0  0  0
  143.7469   73.5156  221.2075 H   0  0  0  0  0  0  0  0  0  0  0  0
  145.9876   72.1185  220.8669 H   0  0  0  0  0  0  0  0  0  0  0  0
  144.5979   71.7990  219.8082 H   0  0  0  0  0  0  0  0  0  0  0  0
  145.8143   73.8856  217.2095 H   0  0  0  0  0  0  0  0  0  0  0  0
  144.9676   72.3014  217.4532 H   0  0  0  0  0  0  0  0  0  0  0  0
  143.7240   74.7176  217.5838 H   0  0  0  0  0  0  0  0  0  0  0  0
  143.1779   73.2629  218.4684 H   0  0  0  0  0  0  0  0  0  0  0  0
  1  2  2  0
  2  3  1  0
  3  4  2  0
  4  5  1  0
  5  6  2  0
  6  7  1  0
  6  8  1  0
  8  9  2  0
  9 10  1  0
 10 11  2  0
 11 12  1  0
 12 13  2  0
 13 14  1  0
 14 15  2  0
 15 16  1  0
 16 17  2  0
 17 18  1  0
 18 19  2  0
 11 20  1  0
 20 21  1  0
 21 22  1  0
 22 23  1  0
 23 24  1  0
 24 25  1  0
 25 26  1  0
 26 27  1  0
 27 28  1  0
 28 29  1  0
 20  2  1  0
 29 24  1  0
  9  3  1  0
 19 14  1  0
  4 30  1  0
  5 31  1  0
  8 32  1  0
 12 33  1  0
 13 34  1  0
 15 35  1  0
 16 36  1  0
 17 37  1  0
 18 38  1  0
 21 39  1  0
 21 40  1  0
 22 41  1  0
 22 42  1  0
 23 43  1  0
 23 44  1  0
 25 45  1  0
 25 46  1  0
 26 47  1  0
 26 48  1  0
 28 49  1  0
 28 50  1  0
 29 51  1  0
 29 52  1  0
M  END
>  <smiles>  (7) 
O=c1c2ccc(F)cc2nc(/C=C/c2ccccn2)n1CCCN1CCOCC1

>  <score_type>  (7) 
oracle

>  <origin>  (7) 
autodockgpu

>  <m_score__min__energy>  (7) 
-8.2400000000000002

>  <m_primary>  (7) 
energy

>  <meeko>  (7) 
{"free_energy": -6.71, "intermolecular_energy": -8.8, "internal_energy": -1.61, "cluster_size": 2, "cluster_id": 4, "rank_in_cluster": 1}

>  <energy>  (7) 
-7.78

>  <cluster_rmsd>  (7) 
0.48

>  <rmsd>  (7) 
271.37

>  <cluster>  (7) 
1

$$$$

     RDKit          3D

 52 55  0  0  0  0  0  0  0  0999 V2000
  139.0360   67.4550  225.5170 O   0  0  0  0  0  0  0  0  0  0  0  0
  139.3490   68.5860  225.1280 C   0  0  0  0  0  0  0  0  0  0  0  0
  139.9270   69.4300  226.0690 C   0  0  0  0  0  0  0  0  0  0  0  0
  140.1230   68.9690  227.3670 C   0  0  0  0  0  0  0  0  0  0  0  0
  140.7020   69.8050  228.3190 C   0  0  0  0  0  0  0  0  0  0  0  0
  141.0640   71.0820  227.9290 C   0  0  0  0  0  0  0  0  0  0  0  0
  141.6240   71.8720  228.8770 F   0  0  0  0  0  0  0  0  0  0  0  0
  140.8560   71.5150  226.6260 C   0  0  0  0  0  0  0  0  0  0  0  0
  140.2870   70.7020  225.6780 C   0  0  0  0  0  0  0  0  0  0  0  0
  140.0560   71.0440  224.4130 N   0  0  0  0  0  0  0  0  0  0  0  0
  139.4960   70.2110  223.5280 C   0  0  0  0  0  0  0  0  0  0  0  0
  139.2820   70.7280  222.1810 C   0  0  0  0  0  0  0  0  0  0  0  0
  139.9520   71.8350  221.8110 C   0  0  0  0  0  0  0  0  0  0  0  0
  139.2840   73.1490  221.9400 C   0  0  0  0  0  0  0  0  0  0  0  0
  137.9100   73.2690  221.9180 C   0  0  0  0  0  0  0  0  0  0  0  0
  137.3730   74.5460  222.0390 C   0  0  0  0  0  0  0  0  0  0  0  0
  138.1540   75.6720  222.1770 C   0  0  0  0  0  0  0  0  0  0  0  0
  139.5390   75.5040  222.1930 C   0  0  0  0  0  0  0  0  0  0  0  0
  140.0210   74.2550  222.0740 N   0  0  0  0  0  0  0  0  0  0  0  0
  139.1210   68.9320  223.8660 N   0  0  0  0  0  0  0  0  0  0  0  0
  138.5270   68.1620  222.8220 C   0  0  0  0  0  0  0  0  0  0  0  0
  137.0470   68.1500  222.7610 C   0  0  0  0  0  0  0  0  0  0  0  0
  136.2030   69.2700  223.1600 C   0  0  0  0  0  0  0  0  0  0  0  0
  135.2290   69.1990  224.1430 N   0  0  0  0  0  0  0  0  0  0  0  0
  135.0590   70.0570  225.2140 C   0  0  0  0  0  0  0  0  0  0  0  0
  133.9350   69.5500  226.1300 C   0  0  0  0  0  0  0  0  0  0  0  0
  134.0270   68.1680  226.1430 O   0  0  0  0  0  0  0  0  0  0  0  0
  133.5740   67.6350  224.9330 C   0  0  0  0  0  0  0  0  0  0  0  0
  134.0310   68.4630  223.7520 C   0  0  0  0  0  0  0  0  0  0  0  0
  139.8216   67.9471  227.6407 H   0  0  0  0  0  0  0  0  0  0  0  0
  140.8665   69.4600  229.3504 H   0  0  0  0  0  0  0  0  0  0  0  0
  141.1551   72.5360  226.3465 H   0  0  0  0  0  0  0  0  0  0  0  0
  138.5918   70.2267  221.4865 H   0  0  0  0  0  0  0  0  0  0  0  0
  140.9776   71.7642  221.4198 H   0  0  0  0  0  0  0  0  0  0  0  0
  137.2625   72.3865  221.8087 H   0  0  0  0  0  0  0  0  0  0  0  0
  136.2792   74.6616  222.0239 H   0  0  0  0  0  0  0  0  0  0  0  0
  137.7012   76.6700  222.2714 H   0  0  0  0  0  0  0  0  0  0  0  0
  140.2144   76.3657  222.2995 H   0  0  0  0  0  0  0  0  0  0  0  0
  138.8964   68.5582  221.8646 H   0  0  0  0  0  0  0  0  0  0  0  0
  138.8152   67.1214  223.0318 H   0  0  0  0  0  0  0  0  0  0  0  0
  136.7941   67.9464  221.7100 H   0  0  0  0  0  0  0  0  0  0  0  0
  136.8123   67.4212  223.5508 H   0  0  0  0  0  0  0  0  0  0  0  0
  136.8939   70.0627  223.4828 H   0  0  0  0  0  0  0  0  0  0  0  0
  135.5814   69.3917  222.2607 H   0  0  0  0  0  0  0  0  0  0  0  0
  135.9965   70.1127  225.7867 H   0  0  0  0  0  0  0  0  0  0  0  0
  134.7893   71.0537  224.8347 H   0  0  0  0  0  0  0  0  0  0  0  0
  134.0655   69.9485  227.1469 H   0  0  0  0  0  0  0  0  0  0  0  0
  132.9498   69.8782  225.7673 H   0  0  0  0  0  0  0  0  0  0  0  0
  133.9655   66.6127  224.8247 H   0  0  0  0  0  0  0  0  0  0  0  0
  132.4741   67.6358  224.9478 H   0  0  0  0  0  0  0  0  0  0  0  0
  134.2608   67.8034  222.9022 H   0  0  0  0  0  0  0  0  0  0  0  0
  133.2379   69.1633  223.4512 H   0  0  0  0  0  0  0  0  0  0  0  0
  1  2  2  0
  2  3  1  0
  3  4  2  0
  4  5  1  0
  5  6  2  0
  6  7  1  0
  6  8  1  0
  8  9  2  0
  9 10  1  0
 10 11  2  0
 11 12  1  0
 12 13  2  0
 13 14  1  0
 14 15  2  0
 15 16  1  0
 16 17  2  0
 17 18  1  0
 18 19  2  0
 11 20  1  0
 20 21  1  0
 21 22  1  0
 22 23  1  0
 23 24  1  0
 24 25  1  0
 25 26  1  0
 26 27  1  0
 27 28  1  0
 28 29  1  0
 20  2  1  0
 29 24  1  0
  9  3  1  0
 19 14  1  0
  4 30  1  0
  5 31  1  0
  8 32  1  0
 12 33  1  0
 13 34  1  0
 15 35  1  0
 16 36  1  0
 17 37  1  0
 18 38  1  0
 21 39  1  0
 21 40  1  0
 22 41  1  0
 22 42  1  0
 23 43  1  0
 23 44  1  0
 25 45  1  0
 25 46  1  0
 26 47  1  0
 26 48  1  0
 28 49  1  0
 28 50  1  0
 29 51  1  0
 29 52  1  0
M  END
>  <smiles>  (8) 
O=c1c2ccc(F)cc2nc(/C=C/c2ccccn2)n1CCCN1CCOCC1

>  <score_type>  (8) 
oracle

>  <origin>  (8) 
autodockgpu

>  <m_score__min__energy>  (8) 
-8.2400000000000002

>  <m_primary>  (8) 
energy

>  <meeko>  (8) 
{"free_energy": -7.65, "intermolecular_energy": -9.73, "internal_energy": -1.39, "cluster_size": 11, "cluster_id": 1, "rank_in_cluster": 8}

>  <energy>  (8) 
-7.65

>  <cluster_rmsd>  (8) 
1.01

>  <rmsd>  (8) 
271.17

>  <cluster>  (8) 
1

$$$$

     RDKit          3D

 52 55  0  0  0  0  0  0  0  0999 V2000
  141.3710   73.2530  218.5280 O   0  0  0  0  0  0  0  0  0  0  0  0
  141.1350   73.3550  219.7370 C   0  0  0  0  0  0  0  0  0  0  0  0
  141.1250   74.6430  220.2630 C   0  0  0  0  0  0  0  0  0  0  0  0
  141.3710   75.7230  219.4210 C   0  0  0  0  0  0  0  0  0  0  0  0
  141.3630   77.0170  219.9360 C   0  0  0  0  0  0  0  0  0  0  0  0
  141.1080   77.1780  221.2850 C   0  0  0  0  0  0  0  0  0  0  0  0
  141.1070   78.4500  221.7570 F   0  0  0  0  0  0  0  0  0  0  0  0
  140.8660   76.0810  222.1010 C   0  0  0  0  0  0  0  0  0  0  0  0
  140.8700   74.8020  221.6080 C   0  0  0  0  0  0  0  0  0  0  0  0
  140.6480   73.7020  222.3250 N   0  0  0  0  0  0  0  0  0  0  0  0
  140.6650   72.4740  221.7920 C   0  0  0  0  0  0  0  0  0  0  0  0
  140.4270   71.3590  222.7020 C   0  0  0  0  0  0  0  0  0  0  0  0
  139.5790   71.5470  223.7300 C   0  0  0  0  0  0  0  0  0  0  0  0
  139.9750   71.0760  225.0760 C   0  0  0  0  0  0  0  0  0  0  0  0
  139.6210   69.8260  225.5390 C   0  0  0  0  0  0  0  0  0  0  0  0
  140.0330   69.4740  226.8200 C   0  0  0  0  0  0  0  0  0  0  0  0
  140.7680   70.3170  227.6240 C   0  0  0  0  0  0  0  0  0  0  0  0
  141.1030   71.5720  227.1150 C   0  0  0  0  0  0  0  0  0  0  0  0
  140.6880   71.8770  225.8730 N   0  0  0  0  0  0  0  0  0  0  0  0
  140.9120   72.2610  220.4560 N   0  0  0  0  0  0  0  0  0  0  0  0
  140.9090   70.8990  220.0330 C   0  0  0  0  0  0  0  0  0  0  0  0
  142.2250   70.2960  219.7190 C   0  0  0  0  0  0  0  0  0  0  0  0
  143.4950   70.7860  220.2400 C   0  0  0  0  0  0  0  0  0  0  0  0
  144.2100   71.8370  219.6880 N   0  0  0  0  0  0  0  0  0  0  0  0
  144.2490   72.2140  218.3580 C   0  0  0  0  0  0  0  0  0  0  0  0
  145.2590   73.3530  218.1570 C   0  0  0  0  0  0  0  0  0  0  0  0
  146.3220   73.0970  219.0080 O   0  0  0  0  0  0  0  0  0  0  0  0
  145.9630   73.3600  220.3330 C   0  0  0  0  0  0  0  0  0  0  0  0
  144.5560   72.8930  220.6340 C   0  0  0  0  0  0  0  0  0  0  0  0
  141.5711   75.5554  218.3524 H   0  0  0  0  0  0  0  0  0  0  0  0
  141.5540   77.8853  219.2883 H   0  0  0  0  0  0  0  0  0  0  0  0
  140.6659   76.2424  223.1705 H   0  0  0  0  0  0  0  0  0  0  0  0
  140.9271   70.3908  222.5520 H   0  0  0  0  0  0  0  0  0  0  0  0
  138.6092   72.0417  223.5727 H   0  0  0  0  0  0  0  0  0  0  0  0
  139.0344   69.1329  224.9180 H   0  0  0  0  0  0  0  0  0  0  0  0
  139.7605   68.4811  227.2071 H   0  0  0  0  0  0  0  0  0  0  0  0
  141.0803   70.0110  228.6334 H   0  0  0  0  0  0  0  0  0  0  0  0
  141.6876   72.2887  227.7104 H   0  0  0  0  0  0  0  0  0  0  0  0
  140.4520   70.3019  220.8359 H   0  0  0  0  0  0  0  0  0  0  0  0
  140.3547   70.8931  219.0829 H   0  0  0  0  0  0  0  0  0  0  0  0
  142.1560   69.2468  220.0420 H   0  0  0  0  0  0  0  0  0  0  0  0
  142.3235   70.5557  218.6546 H   0  0  0  0  0  0  0  0  0  0  0  0
  143.2964   71.0767  221.2821 H   0  0  0  0  0  0  0  0  0  0  0  0
  144.1561   69.9392  220.0036 H   0  0  0  0  0  0  0  0  0  0  0  0
  144.5481   71.3512  217.7448 H   0  0  0  0  0  0  0  0  0  0  0  0
  143.2507   72.5631  218.0553 H   0  0  0  0  0  0  0  0  0  0  0  0
  145.6053   73.3728  217.1131 H   0  0  0  0  0  0  0  0  0  0  0  0
  144.8029   74.3297  218.3762 H   0  0  0  0  0  0  0  0  0  0  0  0
  146.6628   72.8382  221.0023 H   0  0  0  0  0  0  0  0  0  0  0  0
  146.0045   74.4479  220.4903 H   0  0  0  0  0  0  0  0  0  0  0  0
  144.5056   72.5029  221.6613 H   0  0  0  0  0  0  0  0  0  0  0  0
  143.8506   73.7317  220.5395 H   0  0  0  0  0  0  0  0  0  0  0  0
  1  2  2  0
  2  3  1  0
  3  4  2  0
  4  5  1  0
  5  6  2  0
  6  7  1  0
  6  8  1  0
  8  9  2  0
  9 10  1  0
 10 11  2  0
 11 12  1  0
 12 13  2  0
 13 14  1  0
 14 15  2  0
 15 16  1  0
 16 17  2  0
 17 18  1  0
 18 19  2  0
 11 20  1  0
 20 21  1  0
 21 22  1  0
 22 23  1  0
 23 24  1  0
 24 25  1  0
 25 26  1  0
 26 27  1  0
 27 28  1  0
 28 29  1  0
 20  2  1  0
 29 24  1  0
  9  3  1  0
 19 14  1  0
  4 30  1  0
  5 31  1  0
  8 32  1  0
 12 33  1  0
 13 34  1  0
 15 35  1  0
 16 36  1  0
 17 37  1  0
 18 38  1  0
 21 39  1  0
 21 40  1  0
 22 41  1  0
 22 42  1  0
 23 43  1  0
 23 44  1  0
 25 45  1  0
 25 46  1  0
 26 47  1  0
 26 48  1  0
 28 49  1  0
 28 50  1  0
 29 51  1  0
 29 52  1  0
M  END
>  <smiles>  (9) 
O=c1c2ccc(F)cc2nc(/C=C/c2ccccn2)n1CCCN1CCOCC1

>  <score_type>  (9) 
oracle

>  <origin>  (9) 
autodockgpu

>  <m_score__min__energy>  (9) 
-8.2400000000000002

>  <m_primary>  (9) 
energy

>  <meeko>  (9) 
{"free_energy": -6.79, "intermolecular_energy": -8.88, "internal_energy": -1.6, "cluster_size": 2, "cluster_id": 2, "rank_in_cluster": 2}

>  <energy>  (9) 
-7.57

>  <cluster_rmsd>  (9) 
0.93

>  <rmsd>  (9) 
271.39

>  <cluster>  (9) 
1

$$$$

     RDKit          3D

 52 55  0  0  0  0  0  0  0  0999 V2000
  139.1830   67.4990  225.4200 O   0  0  0  0  0  0  0  0  0  0  0  0
  139.4680   68.6500  225.0720 C   0  0  0  0  0  0  0  0  0  0  0  0
  140.0060   69.4800  226.0490 C   0  0  0  0  0  0  0  0  0  0  0  0
  140.1960   68.9830  227.3350 C   0  0  0  0  0  0  0  0  0  0  0  0
  140.7340   69.8040  228.3220 C   0  0  0  0  0  0  0  0  0  0  0  0
  141.0640   71.1030  227.9790 C   0  0  0  0  0  0  0  0  0  0  0  0
  141.5860   71.8780  228.9610 F   0  0  0  0  0  0  0  0  0  0  0  0
  140.8630   71.5720  226.6870 C   0  0  0  0  0  0  0  0  0  0  0  0
  140.3340   70.7730  225.7050 C   0  0  0  0  0  0  0  0  0  0  0  0
  140.1120   71.1500  224.4480 N   0  0  0  0  0  0  0  0  0  0  0  0
  139.5920   70.3290  223.5270 C   0  0  0  0  0  0  0  0  0  0  0  0
  139.3830   70.8830  222.1940 C   0  0  0  0  0  0  0  0  0  0  0  0
  140.1220   71.9450  221.8240 C   0  0  0  0  0  0  0  0  0  0  0  0
  139.5240   73.2950  221.9100 C   0  0  0  0  0  0  0  0  0  0  0  0
  138.1580   73.4850  221.9010 C   0  0  0  0  0  0  0  0  0  0  0  0
  137.6880   74.7920  221.9780 C   0  0  0  0  0  0  0  0  0  0  0  0
  138.5270   75.8800  222.0640 C   0  0  0  0  0  0  0  0  0  0  0  0
  139.9020   75.6420  222.0700 C   0  0  0  0  0  0  0  0  0  0  0  0
  140.3190   74.3670  221.9930 N   0  0  0  0  0  0  0  0  0  0  0  0
  139.2500   69.0290  223.8180 N   0  0  0  0  0  0  0  0  0  0  0  0
  138.6950   68.2770  222.7410 C   0  0  0  0  0  0  0  0  0  0  0  0
  137.2190   68.1670  222.6940 C   0  0  0  0  0  0  0  0  0  0  0  0
  136.3140   69.3100  222.6710 C   0  0  0  0  0  0  0  0  0  0  0  0
  135.7960   69.9160  223.8050 N   0  0  0  0  0  0  0  0  0  0  0  0
  135.2720   69.2900  224.9210 C   0  0  0  0  0  0  0  0  0  0  0  0
  134.6970   70.3300  225.8940 C   0  0  0  0  0  0  0  0  0  0  0  0
  134.1230   71.3250  225.1190 O   0  0  0  0  0  0  0  0  0  0  0  0
  135.1120   72.1120  224.5230 C   0  0  0  0  0  0  0  0  0  0  0  0
  136.2740   71.2760  224.0330 C   0  0  0  0  0  0  0  0  0  0  0  0
  139.9218   67.9442  227.5709 H   0  0  0  0  0  0  0  0  0  0  0  0
  140.8921   69.4309  229.3446 H   0  0  0  0  0  0  0  0  0  0  0  0
  141.1348   72.6101  226.4451 H   0  0  0  0  0  0  0  0  0  0  0  0
  138.6415   70.4447  221.5098 H   0  0  0  0  0  0  0  0  0  0  0  0
  141.1528   71.8114  221.4639 H   0  0  0  0  0  0  0  0  0  0  0  0
  137.4649   72.6334  221.8353 H   0  0  0  0  0  0  0  0  0  0  0  0
  136.6014   74.9631  221.9698 H   0  0  0  0  0  0  0  0  0  0  0  0
  138.1269   76.9028  222.1259 H   0  0  0  0  0  0  0  0  0  0  0  0
  140.6214   76.4715  222.1357 H   0  0  0  0  0  0  0  0  0  0  0  0
  139.0236   68.7475  221.8026 H   0  0  0  0  0  0  0  0  0  0  0  0
  139.0555   67.2488  222.8923 H   0  0  0  0  0  0  0  0  0  0  0  0
  136.9924   67.5897  221.7855 H   0  0  0  0  0  0  0  0  0  0  0  0
  137.0093   67.7560  223.6926 H   0  0  0  0  0  0  0  0  0  0  0  0
  136.8501   70.1028  222.1288 H   0  0  0  0  0  0  0  0  0  0  0  0
  135.4082   68.8487  222.2505 H   0  0  0  0  0  0  0  0  0  0  0  0
  134.4715   68.6028  224.6095 H   0  0  0  0  0  0  0  0  0  0  0  0
  136.0727   68.7306  225.4269 H   0  0  0  0  0  0  0  0  0  0  0  0
  133.9366   69.8659  226.5393 H   0  0  0  0  0  0  0  0  0  0  0  0
  135.4829   70.7396  226.5456 H   0  0  0  0  0  0  0  0  0  0  0  0
  134.6737   72.6484  223.6685 H   0  0  0  0  0  0  0  0  0  0  0  0
  135.4911   72.8159  225.2785 H   0  0  0  0  0  0  0  0  0  0  0  0
  136.6641   71.6955  223.0940 H   0  0  0  0  0  0  0  0  0  0  0  0
  137.0811   71.2738  224.7804 H   0  0  0  0  0  0  0  0  0  0  0  0
  1  2  2  0
  2  3  1  0
  3  4  2  0
  4  5  1  0
  5  6  2  0
  6  7  1  0
  6  8  1  0
  8  9  2  0
  9 10  1  0
 10 11  2  0
 11 12  1  0
 12 13  2  0
 13 14  1  0
 14 15  2  0
 15 16  1  0
 16 17  2  0
 17 18  1  0
 18 19  2  0
 11 20  1  0
 20 21  1  0
 21 22  1  0
 22 23  1  0
 23 24  1  0
 24 25  1  0
 25 26  1  0
 26 27  1  0
 27 28  1  0
 28 29  1  0
 20  2  1  0
 29 24  1  0
  9  3  1  0
 19 14  1  0
  4 30  1  0
  5 31  1  0
  8 32  1  0
 12 33  1  0
 13 34  1  0
 15 35  1  0
 16 36  1  0
 17 37  1  0
 18 38  1  0
 21 39  1  0
 21 40  1  0
 22 41  1  0
 22 42  1  0
 23 43  1  0
 23 44  1  0
 25 45  1  0
 25 46  1  0
 26 47  1  0
 26 48  1  0
 28 49  1  0
 28 50  1  0
 29 51  1  0
 29 52  1  0
M  END
>  <smiles>  (10) 
O=c1c2ccc(F)cc2nc(/C=C/c2ccccn2)n1CCCN1CCOCC1

>  <score_type>  (10) 
oracle

>  <origin>  (10) 
autodockgpu

>  <m_score__min__energy>  (10) 
-8.2400000000000002

>  <m_primary>  (10) 
energy

>  <meeko>  (10) 
{"free_energy": -6.95, "intermolecular_energy": -9.04, "internal_energy": -1.84, "cluster_size": 11, "cluster_id": 1, "rank_in_cluster": 10}

>  <energy>  (10) 
-6.95

>  <cluster_rmsd>  (10) 
1.31

>  <rmsd>  (10) 
271.34

>  <cluster>  (10) 
1

$$$$

     RDKit          3D

 52 55  0  0  0  0  0  0  0  0999 V2000
  140.7400   75.9760  222.3620 O   0  0  0  0  0  0  0  0  0  0  0  0
  141.0820   76.8680  221.5770 C   0  0  0  0  0  0  0  0  0  0  0  0
  141.4470   78.0860  222.1390 C   0  0  0  0  0  0  0  0  0  0  0  0
  141.4130   78.2340  223.5230 C   0  0  0  0  0  0  0  0  0  0  0  0
  141.7760   79.4490  224.0970 C   0  0  0  0  0  0  0  0  0  0  0  0
  142.1610   80.4770  223.2560 C   0  0  0  0  0  0  0  0  0  0  0  0
  142.5080   81.6480  223.8450 F   0  0  0  0  0  0  0  0  0  0  0  0
  142.1850   80.3010  221.8790 C   0  0  0  0  0  0  0  0  0  0  0  0
  141.8300   79.1090  221.2990 C   0  0  0  0  0  0  0  0  0  0  0  0
  141.8270   78.8640  219.9910 N   0  0  0  0  0  0  0  0  0  0  0  0
  141.4700   77.6800  219.4770 C   0  0  0  0  0  0  0  0  0  0  0  0
  141.4940   77.5600  218.0240 C   0  0  0  0  0  0  0  0  0  0  0  0
  142.6450   77.8310  217.3810 C   0  0  0  0  0  0  0  0  0  0  0  0
  143.4550   76.7050  216.8650 C   0  0  0  0  0  0  0  0  0  0  0  0
  144.0700   76.7610  215.6320 C   0  0  0  0  0  0  0  0  0  0  0  0
  144.8040   75.6510  215.2280 C   0  0  0  0  0  0  0  0  0  0  0  0
  144.9340   74.5220  216.0050 C   0  0  0  0  0  0  0  0  0  0  0  0
  144.2950   74.5080  217.2450 C   0  0  0  0  0  0  0  0  0  0  0  0
  143.5940   75.5990  217.6010 N   0  0  0  0  0  0  0  0  0  0  0  0
  141.0820   76.6270  220.2710 N   0  0  0  0  0  0  0  0  0  0  0  0
  140.7190   75.4310  219.5830 C   0  0  0  0  0  0  0  0  0  0  0  0
  141.6980   74.3200  219.6130 C   0  0  0  0  0  0  0  0  0  0  0  0
  142.6740   74.1190  220.6770 C   0  0  0  0  0  0  0  0  0  0  0  0
  143.9480   73.6110  220.4800 N   0  0  0  0  0  0  0  0  0  0  0  0
  145.1500   74.2590  220.6990 C   0  0  0  0  0  0  0  0  0  0  0  0
  146.3220   73.3800  220.2380 C   0  0  0  0  0  0  0  0  0  0  0  0
  145.8980   72.7200  219.0960 O   0  0  0  0  0  0  0  0  0  0  0  0
  144.9880   71.7110  219.4230 C   0  0  0  0  0  0  0  0  0  0  0  0
  144.0260   72.1540  220.5030 C   0  0  0  0  0  0  0  0  0  0  0  0
  141.1004   77.3938  224.1605 H   0  0  0  0  0  0  0  0  0  0  0  0
  141.7572   79.5874  225.1881 H   0  0  0  0  0  0  0  0  0  0  0  0
  142.4964   81.1380  221.2368 H   0  0  0  0  0  0  0  0  0  0  0  0
  140.5950   77.2559  217.4679 H   0  0  0  0  0  0  0  0  0  0  0  0
  142.9775   78.8702  217.2416 H   0  0  0  0  0  0  0  0  0  0  0  0
  143.9832   77.6511  214.9915 H   0  0  0  0  0  0  0  0  0  0  0  0
  145.3012   75.6762  214.2471 H   0  0  0  0  0  0  0  0  0  0  0  0
  145.5224   73.6593  215.6594 H   0  0  0  0  0  0  0  0  0  0  0  0
  144.3623   73.6338  217.9093 H   0  0  0  0  0  0  0  0  0  0  0  0
  139.7832   75.0620  220.0281 H   0  0  0  0  0  0  0  0  0  0  0  0
  140.6435   75.7196  218.5242 H   0  0  0  0  0  0  0  0  0  0  0  0
  141.1014   73.3965  219.5781 H   0  0  0  0  0  0  0  0  0  0  0  0
  142.3561   74.6002  218.7773 H   0  0  0  0  0  0  0  0  0  0  0  0
  142.8163   75.1066  221.1401 H   0  0  0  0  0  0  0  0  0  0  0  0
  142.2061   73.2936  221.2335 H   0  0  0  0  0  0  0  0  0  0  0  0
  145.1610   75.2033  220.1350 H   0  0  0  0  0  0  0  0  0  0  0  0
  145.2563   74.4611  221.7750 H   0  0  0  0  0  0  0  0  0  0  0  0
  147.1986   74.0048  220.0117 H   0  0  0  0  0  0  0  0  0  0  0  0
  146.6146   72.6665  221.0224 H   0  0  0  0  0  0  0  0  0  0  0  0
  144.4149   71.4425  218.5233 H   0  0  0  0  0  0  0  0  0  0  0  0
  145.5547   70.8475  219.8016 H   0  0  0  0  0  0  0  0  0  0  0  0
  143.0309   71.7255  220.3129 H   0  0  0  0  0  0  0  0  0  0  0  0
  144.3771   71.8095  221.4869 H   0  0  0  0  0  0  0  0  0  0  0  0
  1  2  2  0
  2  3  1  0
  3  4  2  0
  4  5  1  0
  5  6  2  0
  6  7  1  0
  6  8  1  0
  8  9  2  0
  9 10  1  0
 10 11  2  0
 11 12  1  0
 12 13  2  0
 13 14  1  0
 14 15  2  0
 15 16  1  0
 16 17  2  0
 17 18  1  0
 18 19  2  0
 11 20  1  0
 20 21  1  0
 21 22  1  0
 22 23  1  0
 23 24  1  0
 24 25  1  0
 25 26  1  0
 26 27  1  0
 27 28  1  0
 28 29  1  0
 20  2  1  0
 29 24  1  0
  9  3  1  0
 19 14  1  0
  4 30  1  0
  5 31  1  0
  8 32  1  0
 12 33  1  0
 13 34  1  0
 15 35  1  0
 16 36  1  0
 17 37  1  0
 18 38  1  0
 21 39  1  0
 21 40  1  0
 22 41  1  0
 22 42  1  0
 23 43  1  0
 23 44  1  0
 25 45  1  0
 25 46  1  0
 26 47  1  0
 26 48  1  0
 28 49  1  0
 28 50  1  0
 29 51  1  0
 29 52  1  0
M  END
>  <smiles>  (11) 
O=c1c2ccc(F)cc2nc(/C=C/c2ccccn2)n1CCCN1CCOCC1

>  <score_type>  (11) 
oracle

>  <origin>  (11) 
autodockgpu

>  <m_score__min__energy>  (11) 
-8.2400000000000002

>  <m_primary>  (11) 
energy

>  <meeko>  (11) 
{"free_energy": -6.28, "intermolecular_energy": -8.37, "internal_energy": -1.79, "cluster_size": 1, "cluster_id": 6, "rank_in_cluster": 1}

>  <energy>  (11) 
-6.91

>  <cluster_rmsd>  (11) 
1.36

>  <rmsd>  (11) 
271.33

>  <cluster>  (11) 
1

$$$$

     RDKit          3D

 52 55  0  0  0  0  0  0  0  0999 V2000
  140.1090   74.1610  221.8910 O   0  0  0  0  0  0  0  0  0  0  0  0
  140.8120   74.9430  221.2420 C   0  0  0  0  0  0  0  0  0  0  0  0
  142.0570   74.4730  220.8380 C   0  0  0  0  0  0  0  0  0  0  0  0
  142.4360   73.1770  221.1730 C   0  0  0  0  0  0  0  0  0  0  0  0
  143.6800   72.6950  220.7740 C   0  0  0  0  0  0  0  0  0  0  0  0
  144.5020   73.5380  220.0490 C   0  0  0  0  0  0  0  0  0  0  0  0
  145.7070   73.0410  219.6750 F   0  0  0  0  0  0  0  0  0  0  0  0
  144.0970   74.8280  219.7290 C   0  0  0  0  0  0  0  0  0  0  0  0
  142.8740   75.3150  220.1150 C   0  0  0  0  0  0  0  0  0  0  0  0
  142.4160   76.5360  219.8480 N   0  0  0  0  0  0  0  0  0  0  0  0
  141.2130   76.9620  220.2500 C   0  0  0  0  0  0  0  0  0  0  0  0
  140.8510   78.3320  219.9040 C   0  0  0  0  0  0  0  0  0  0  0  0
  141.7770   79.2950  220.0650 C   0  0  0  0  0  0  0  0  0  0  0  0
  141.8940   79.9600  221.3820 C   0  0  0  0  0  0  0  0  0  0  0  0
  142.5100   79.3450  222.4520 C   0  0  0  0  0  0  0  0  0  0  0  0
  142.5660   80.0450  223.6520 C   0  0  0  0  0  0  0  0  0  0  0  0
  142.0360   81.3070  223.8030 C   0  0  0  0  0  0  0  0  0  0  0  0
  141.4210   81.8910  222.6940 C   0  0  0  0  0  0  0  0  0  0  0  0
  141.3870   81.1850  221.5520 N   0  0  0  0  0  0  0  0  0  0  0  0
  140.3580   76.1620  220.9710 N   0  0  0  0  0  0  0  0  0  0  0  0
  139.1150   76.7550  221.3410 C   0  0  0  0  0  0  0  0  0  0  0  0
  139.0120   77.2860  222.7200 C   0  0  0  0  0  0  0  0  0  0  0  0
  139.3740   78.6450  223.1020 C   0  0  0  0  0  0  0  0  0  0  0  0
  138.6150   79.7660  222.8040 N   0  0  0  0  0  0  0  0  0  0  0  0
  138.3610   80.2950  221.5520 C   0  0  0  0  0  0  0  0  0  0  0  0
  137.5780   81.6100  221.6770 C   0  0  0  0  0  0  0  0  0  0  0  0
  138.0680   82.2580  222.7990 O   0  0  0  0  0  0  0  0  0  0  0  0
  137.6180   81.6290  223.9630 C   0  0  0  0  0  0  0  0  0  0  0  0
  137.6380   80.1220  223.8280 C   0  0  0  0  0  0  0  0  0  0  0  0
  141.7551   72.5351  221.7512 H   0  0  0  0  0  0  0  0  0  0  0  0
  143.9994   71.6735  221.0281 H   0  0  0  0  0  0  0  0  0  0  0  0
  144.7739   75.4749  219.1517 H   0  0  0  0  0  0  0  0  0  0  0  0
  139.8478   78.5716  219.5217 H   0  0  0  0  0  0  0  0  0  0  0  0
  142.4355   79.5829  219.2323 H   0  0  0  0  0  0  0  0  0  0  0  0
  142.9413   78.3373  222.3593 H   0  0  0  0  0  0  0  0  0  0  0  0
  143.0538   79.5711  224.5165 H   0  0  0  0  0  0  0  0  0  0  0  0
  142.0952   81.8371  224.7650 H   0  0  0  0  0  0  0  0  0  0  0  0
  140.9788   82.8964  222.7536 H   0  0  0  0  0  0  0  0  0  0  0  0
  138.9248   77.5883  220.6486 H   0  0  0  0  0  0  0  0  0  0  0  0
  138.3805   75.9376  221.2920 H   0  0  0  0  0  0  0  0  0  0  0  0
  137.9565   77.1676  223.0064 H   0  0  0  0  0  0  0  0  0  0  0  0
  139.8030   76.7110  223.2236 H   0  0  0  0  0  0  0  0  0  0  0  0
  139.4662   78.6312  224.1981 H   0  0  0  0  0  0  0  0  0  0  0  0
  140.2523   78.8132  222.4615 H   0  0  0  0  0  0  0  0  0  0  0  0
  139.3149   80.4882  221.0395 H   0  0  0  0  0  0  0  0  0  0  0  0
  137.7616   79.5755  220.9748 H   0  0  0  0  0  0  0  0  0  0  0  0
  137.7334   82.2307  220.7822 H   0  0  0  0  0  0  0  0  0  0  0  0
  136.4982   81.4212  221.7682 H   0  0  0  0  0  0  0  0  0  0  0  0
  138.2690   81.9206  224.8003 H   0  0  0  0  0  0  0  0  0  0  0  0
  136.5794   81.9435  224.1433 H   0  0  0  0  0  0  0  0  0  0  0  0
  137.9226   79.6664  224.7879 H   0  0  0  0  0  0  0  0  0  0  0  0
  136.6410   79.7539  223.5445 H   0  0  0  0  0  0  0  0  0  0  0  0
  1  2  2  0
  2  3  1  0
  3  4  2  0
  4  5  1  0
  5  6  2  0
  6  7  1  0
  6  8  1  0
  8  9  2  0
  9 10  1  0
 10 11  2  0
 11 12  1  0
 12 13  2  0
 13 14  1  0
 14 15  2  0
 15 16  1  0
 16 17  2  0
 17 18  1  0
 18 19  2  0
 11 20  1  0
 20 21  1  0
 21 22  1  0
 22 23  1  0
 23 24  1  0
 24 25  1  0
 25 26  1  0
 26 27  1  0
 27 28  1  0
 28 29  1  0
 20  2  1  0
 29 24  1  0
  9  3  1  0
 19 14  1  0
  4 30  1  0
  5 31  1  0
  8 32  1  0
 12 33  1  0
 13 34  1  0
 15 35  1  0
 16 36  1  0
 17 37  1  0
 18 38  1  0
 21 39  1  0
 21 40  1  0
 22 41  1  0
 22 42  1  0
 23 43  1  0
 23 44  1  0
 25 45  1  0
 25 46  1  0
 26 47  1  0
 26 48  1  0
 28 49  1  0
 28 50  1  0
 29 51  1  0
 29 52  1  0
M  END
>  <smiles>  (12) 
O=c1c2ccc(F)cc2nc(/C=C/c2ccccn2)n1CCCN1CCOCC1

>  <score_type>  (12) 
oracle

>  <origin>  (12) 
autodockgpu

>  <m_score__min__energy>  (12) 
-8.2400000000000002

>  <m_primary>  (12) 
energy

>  <meeko>  (12) 
{"free_energy": -6.12, "intermolecular_energy": -8.21, "internal_energy": -2.09, "cluster_size": 2, "cluster_id": 7, "rank_in_cluster": 1}

>  <energy>  (12) 
-6.96

>  <cluster_rmsd>  (12) 
0.0

>  <rmsd>  (12) 
271.42

>  <cluster>  (12) 
2

$$$$

     RDKit          3D

 52 55  0  0  0  0  0  0  0  0999 V2000
  138.8120   67.9270  225.4080 O   0  0  0  0  0  0  0  0  0  0  0  0
  139.2610   69.0290  225.0740 C   0  0  0  0  0  0  0  0  0  0  0  0
  139.9080   69.7640  226.0620 C   0  0  0  0  0  0  0  0  0  0  0  0
  140.0190   69.2310  227.3430 C   0  0  0  0  0  0  0  0  0  0  0  0
  140.6650   69.9570  228.3400 C   0  0  0  0  0  0  0  0  0  0  0  0
  141.1790   71.1980  228.0120 C   0  0  0  0  0  0  0  0  0  0  0  0
  141.8020   71.8810  229.0040 F   0  0  0  0  0  0  0  0  0  0  0  0
  141.0530   71.7040  226.7240 C   0  0  0  0  0  0  0  0  0  0  0  0
  140.4190   71.0000  225.7330 C   0  0  0  0  0  0  0  0  0  0  0  0
  140.2590   71.4170  224.4790 N   0  0  0  0  0  0  0  0  0  0  0  0
  139.6300   70.6890  223.5480 C   0  0  0  0  0  0  0  0  0  0  0  0
  139.5090   71.2810  222.2210 C   0  0  0  0  0  0  0  0  0  0  0  0
  138.5910   72.2480  222.0360 C   0  0  0  0  0  0  0  0  0  0  0  0
  139.0370   73.6580  222.0040 C   0  0  0  0  0  0  0  0  0  0  0  0
  138.1370   74.7030  221.9960 C   0  0  0  0  0  0  0  0  0  0  0  0
  138.6500   75.9950  221.9570 C   0  0  0  0  0  0  0  0  0  0  0  0
  140.0020   76.2590  221.9290 C   0  0  0  0  0  0  0  0  0  0  0  0
  140.8770   75.1710  221.9400 C   0  0  0  0  0  0  0  0  0  0  0  0
  140.3440   73.9380  221.9760 N   0  0  0  0  0  0  0  0  0  0  0  0
  139.1040   69.4490  223.8240 N   0  0  0  0  0  0  0  0  0  0  0  0
  138.4520   68.7950  222.7370 C   0  0  0  0  0  0  0  0  0  0  0  0
  136.9730   68.7370  222.7830 C   0  0  0  0  0  0  0  0  0  0  0  0
  136.1250   69.8400  223.2170 C   0  0  0  0  0  0  0  0  0  0  0  0
  135.2150   69.7610  224.2580 N   0  0  0  0  0  0  0  0  0  0  0  0
  134.9250   70.7390  225.1920 C   0  0  0  0  0  0  0  0  0  0  0  0
  133.9480   70.1980  226.2460 C   0  0  0  0  0  0  0  0  0  0  0  0
  134.2950   68.8760  226.4680 O   0  0  0  0  0  0  0  0  0  0  0  0
  133.9070   68.0790  225.3870 C   0  0  0  0  0  0  0  0  0  0  0  0
  134.1610   68.7700  224.0640 C   0  0  0  0  0  0  0  0  0  0  0  0
  139.5978   68.2398  227.5668 H   0  0  0  0  0  0  0  0  0  0  0  0
  140.7636   69.5550  229.3591 H   0  0  0  0  0  0  0  0  0  0  0  0
  141.4725   72.6944  226.4937 H   0  0  0  0  0  0  0  0  0  0  0  0
  140.1510   70.9462  221.3929 H   0  0  0  0  0  0  0  0  0  0  0  0
  137.5280   71.9942  221.9108 H   0  0  0  0  0  0  0  0  0  0  0  0
  137.0524   74.5211  222.0196 H   0  0  0  0  0  0  0  0  0  0  0  0
  137.9473   76.8412  221.9481 H   0  0  0  0  0  0  0  0  0  0  0  0
  140.3792   77.2919  221.8990 H   0  0  0  0  0  0  0  0  0  0  0  0
  141.9669   75.3183  221.9199 H   0  0  0  0  0  0  0  0  0  0  0  0
  138.7358   69.3210  221.8136 H   0  0  0  0  0  0  0  0  0  0  0  0
  138.7830   67.7474  222.7911 H   0  0  0  0  0  0  0  0  0  0  0  0
  136.6524   68.5007  221.7577 H   0  0  0  0  0  0  0  0  0  0  0  0
  136.8184   68.0206  223.6033 H   0  0  0  0  0  0  0  0  0  0  0  0
  136.8128   70.6555  223.4851 H   0  0  0  0  0  0  0  0  0  0  0  0
  135.4462   69.9294  222.3560 H   0  0  0  0  0  0  0  0  0  0  0  0
  135.8550   71.0544  225.6876 H   0  0  0  0  0  0  0  0  0  0  0  0
  134.4608   71.5951  224.6806 H   0  0  0  0  0  0  0  0  0  0  0  0
  134.0378   70.7753  227.1780 H   0  0  0  0  0  0  0  0  0  0  0  0
  132.9070   70.2814  225.9007 H   0  0  0  0  0  0  0  0  0  0  0  0
  134.4777   67.1390  225.4139 H   0  0  0  0  0  0  0  0  0  0  0  0
  132.8273   67.8864  225.4723 H   0  0  0  0  0  0  0  0  0  0  0  0
  134.4790   68.0311  223.3137 H   0  0  0  0  0  0  0  0  0  0  0  0
  133.2417   69.2596  223.7101 H   0  0  0  0  0  0  0  0  0  0  0  0
  1  2  2  0
  2  3  1  0
  3  4  2  0
  4  5  1  0
  5  6  2  0
  6  7  1  0
  6  8  1  0
  8  9  2  0
  9 10  1  0
 10 11  2  0
 11 12  1  0
 12 13  2  0
 13 14  1  0
 14 15  2  0
 15 16  1  0
 16 17  2  0
 17 18  1  0
 18 19  2  0
 11 20  1  0
 20 21  1  0
 21 22  1  0
 22 23  1  0
 23 24  1  0
 24 25  1  0
 25 26  1  0
 26 27  1  0
 27 28  1  0
 28 29  1  0
 20  2  1  0
 29 24  1  0
  9  3  1  0
 19 14  1  0
  4 30  1  0
  5 31  1  0
  8 32  1  0
 12 33  1  0
 13 34  1  0
 15 35  1  0
 16 36  1  0
 17 37  1  0
 18 38  1  0
 21 39  1  0
 21 40  1  0
 22 41  1  0
 22 42  1  0
 23 43  1  0
 23 44  1  0
 25 45  1  0
 25 46  1  0
 26 47  1  0
 26 48  1  0
 28 49  1  0
 28 50  1  0
 29 51  1  0
 29 52  1  0
M  END
>  <smiles>  (13) 
O=c1c2ccc(F)cc2nc(/C=C/c2ccccn2)n1CCCN1CCOCC1

>  <score_type>  (13) 
oracle

>  <origin>  (13) 
autodockgpu

>  <m_score__min__energy>  (13) 
-8.2400000000000002

>  <m_primary>  (13) 
energy

>  <meeko>  (13) 
{"free_energy": -7.57, "intermolecular_energy": -9.65, "internal_energy": -1.38, "cluster_size": 11, "cluster_id": 1, "rank_in_cluster": 9}

>  <energy>  (13) 
-6.79

>  <cluster_rmsd>  (13) 
0.78

>  <rmsd>  (13) 
271.29

>  <cluster>  (13) 
2

$$$$

     RDKit          3D

 52 55  0  0  0  0  0  0  0  0999 V2000
  142.8950   77.7000  218.0650 O   0  0  0  0  0  0  0  0  0  0  0  0
  142.0700   78.3030  218.7610 C   0  0  0  0  0  0  0  0  0  0  0  0
  142.0430   79.6880  218.6350 C   0  0  0  0  0  0  0  0  0  0  0  0
  142.9200   80.3080  217.7500 C   0  0  0  0  0  0  0  0  0  0  0  0
  142.9020   81.6930  217.6150 C   0  0  0  0  0  0  0  0  0  0  0  0
  141.9980   82.4090  218.3780 C   0  0  0  0  0  0  0  0  0  0  0  0
  142.0040   83.7570  218.2240 F   0  0  0  0  0  0  0  0  0  0  0  0
  141.1340   81.7640  219.2530 C   0  0  0  0  0  0  0  0  0  0  0  0
  141.1410   80.4000  219.3950 C   0  0  0  0  0  0  0  0  0  0  0  0
  140.3460   79.7100  220.2110 N   0  0  0  0  0  0  0  0  0  0  0  0
  140.3950   78.3770  220.3130 C   0  0  0  0  0  0  0  0  0  0  0  0
  139.4790   77.7560  221.2630 C   0  0  0  0  0  0  0  0  0  0  0  0
  139.6480   78.0150  222.5730 C   0  0  0  0  0  0  0  0  0  0  0  0
  140.6410   79.0360  222.9750 C   0  0  0  0  0  0  0  0  0  0  0  0
  140.2570   80.2530  223.4980 C   0  0  0  0  0  0  0  0  0  0  0  0
  141.2620   81.1530  223.8400 C   0  0  0  0  0  0  0  0  0  0  0  0
  142.6000   80.8710  223.6770 C   0  0  0  0  0  0  0  0  0  0  0  0
  142.9430   79.6280  223.1440 C   0  0  0  0  0  0  0  0  0  0  0  0
  141.9450   78.7860  222.8250 N   0  0  0  0  0  0  0  0  0  0  0  0
  141.2740   77.6200  219.5750 N   0  0  0  0  0  0  0  0  0  0  0  0
  141.2200   76.2110  219.7970 C   0  0  0  0  0  0  0  0  0  0  0  0
  142.4030   75.5910  220.4370 C   0  0  0  0  0  0  0  0  0  0  0  0
  143.6920   75.4170  219.7790 C   0  0  0  0  0  0  0  0  0  0  0  0
  144.5060   74.3080  219.9430 N   0  0  0  0  0  0  0  0  0  0  0  0
  145.5360   74.1540  220.8530 C   0  0  0  0  0  0  0  0  0  0  0  0
  146.2610   72.8210  220.6180 C   0  0  0  0  0  0  0  0  0  0  0  0
  146.2900   72.6210  219.2470 O   0  0  0  0  0  0  0  0  0  0  0  0
  145.0230   72.2620  218.7770 C   0  0  0  0  0  0  0  0  0  0  0  0
  143.9300   73.0590  219.4540 C   0  0  0  0  0  0  0  0  0  0  0  0
  143.6252   79.7052  217.1590 H   0  0  0  0  0  0  0  0  0  0  0  0
  143.5868   82.2032  216.9217 H   0  0  0  0  0  0  0  0  0  0  0  0
  140.4267   82.3617  219.8467 H   0  0  0  0  0  0  0  0  0  0  0  0
  138.6714   77.0935  220.9181 H   0  0  0  0  0  0  0  0  0  0  0  0
  139.0589   77.4777  223.3308 H   0  0  0  0  0  0  0  0  0  0  0  0
  139.1952   80.5032  223.6397 H   0  0  0  0  0  0  0  0  0  0  0  0
  140.9758   82.1296  224.2576 H   0  0  0  0  0  0  0  0  0  0  0  0
  143.3729   81.6016  223.9578 H   0  0  0  0  0  0  0  0  0  0  0  0
  143.9951   79.3465  222.9900 H   0  0  0  0  0  0  0  0  0  0  0  0
  140.3498   76.0081  220.4385 H   0  0  0  0  0  0  0  0  0  0  0  0
  141.1670   75.7629  218.7938 H   0  0  0  0  0  0  0  0  0  0  0  0
  142.6061   76.1941  221.3343 H   0  0  0  0  0  0  0  0  0  0  0  0
  142.0699   74.5460  220.5207 H   0  0  0  0  0  0  0  0  0  0  0  0
  143.4857   75.4775  218.7002 H   0  0  0  0  0  0  0  0  0  0  0  0
  144.2893   76.1892  220.2858 H   0  0  0  0  0  0  0  0  0  0  0  0
  146.2510   74.9815  220.7350 H   0  0  0  0  0  0  0  0  0  0  0  0
  145.1178   74.1590  221.8704 H   0  0  0  0  0  0  0  0  0  0  0  0
  147.2853   72.8711  221.0158 H   0  0  0  0  0  0  0  0  0  0  0  0
  145.7451   71.9942  221.1281 H   0  0  0  0  0  0  0  0  0  0  0  0
  144.9793   72.4456  217.6933 H   0  0  0  0  0  0  0  0  0  0  0  0
  144.8619   71.1975  219.0026 H   0  0  0  0  0  0  0  0  0  0  0  0
  143.1282   73.2768  218.7331 H   0  0  0  0  0  0  0  0  0  0  0  0
  143.5067   72.4847  220.2912 H   0  0  0  0  0  0  0  0  0  0  0  0
  1  2  2  0
  2  3  1  0
  3  4  2  0
  4  5  1  0
  5  6  2  0
  6  7  1  0
  6  8  1  0
  8  9  2  0
  9 10  1  0
 10 11  2  0
 11 12  1  0
 12 13  2  0
 13 14  1  0
 14 15  2  0
 15 16  1  0
 16 17  2  0
 17 18  1  0
 18 19  2  0
 11 20  1  0
 20 21  1  0
 21 22  1  0
 22 23  1  0
 23 24  1  0
 24 25  1  0
 25 26  1  0
 26 27  1  0
 27 28  1  0
 28 29  1  0
 20  2  1  0
 29 24  1  0
  9  3  1  0
 19 14  1  0
  4 30  1  0
  5 31  1  0
  8 32  1  0
 12 33  1  0
 13 34  1  0
 15 35  1  0
 16 36  1  0
 17 37  1  0
 18 38  1  0
 21 39  1  0
 21 40  1  0
 22 41  1  0
 22 42  1  0
 23 43  1  0
 23 44  1  0
 25 45  1  0
 25 46  1  0
 26 47  1  0
 26 48  1  0
 28 49  1  0
 28 50  1  0
 29 51  1  0
 29 52  1  0
M  END
>  <smiles>  (14) 
O=c1c2ccc(F)cc2nc(/C=C/c2ccccn2)n1CCCN1CCOCC1

>  <score_type>  (14) 
oracle

>  <origin>  (14) 
autodockgpu

>  <m_score__min__energy>  (14) 
-8.2400000000000002

>  <m_primary>  (14) 
energy

>  <meeko>  (14) 
{"free_energy": -6.52, "intermolecular_energy": -8.61, "internal_energy": -1.51, "cluster_size": 1, "cluster_id": 5, "rank_in_cluster": 1}

>  <energy>  (14) 
-6.9

>  <cluster_rmsd>  (14) 
0.0

>  <rmsd>  (14) 
271.43

>  <cluster>  (14) 
3

$$$$

     RDKit          3D

 52 55  0  0  0  0  0  0  0  0999 V2000
  138.8750   67.5440  225.5020 O   0  0  0  0  0  0  0  0  0  0  0  0
  139.1830   68.6880  225.1490 C   0  0  0  0  0  0  0  0  0  0  0  0
  139.8330   69.4760  226.0920 C   0  0  0  0  0  0  0  0  0  0  0  0
  140.1010   68.9480  227.3510 C   0  0  0  0  0  0  0  0  0  0  0  0
  140.7510   69.7280  228.3040 C   0  0  0  0  0  0  0  0  0  0  0  0
  141.1110   71.0170  227.9540 C   0  0  0  0  0  0  0  0  0  0  0  0
  141.7430   71.7520  228.9030 F   0  0  0  0  0  0  0  0  0  0  0  0
  140.8300   71.5170  226.6890 C   0  0  0  0  0  0  0  0  0  0  0  0
  140.1910   70.7600  225.7410 C   0  0  0  0  0  0  0  0  0  0  0  0
  139.8870   71.1680  224.5110 N   0  0  0  0  0  0  0  0  0  0  0  0
  139.2590   70.3880  223.6230 C   0  0  0  0  0  0  0  0  0  0  0  0
  138.9720   70.9740  222.3190 C   0  0  0  0  0  0  0  0  0  0  0  0
  138.8100   72.3070  222.2430 C   0  0  0  0  0  0  0  0  0  0  0  0
  139.9350   73.1360  221.7570 C   0  0  0  0  0  0  0  0  0  0  0  0
  141.0080   72.5820  221.0900 C   0  0  0  0  0  0  0  0  0  0  0  0
  142.0230   73.4390  220.6780 C   0  0  0  0  0  0  0  0  0  0  0  0
  141.9890   74.7970  220.9080 C   0  0  0  0  0  0  0  0  0  0  0  0
  140.8850   75.3140  221.5860 C   0  0  0  0  0  0  0  0  0  0  0  0
  139.9250   74.4550  221.9700 N   0  0  0  0  0  0  0  0  0  0  0  0
  138.8840   69.0990  223.9220 N   0  0  0  0  0  0  0  0  0  0  0  0
  138.2130   68.3900  222.8810 C   0  0  0  0  0  0  0  0  0  0  0  0
  136.8420   68.8410  222.5430 C   0  0  0  0  0  0  0  0  0  0  0  0
  135.6280   68.1590  222.9740 C   0  0  0  0  0  0  0  0  0  0  0  0
  134.8830   68.5220  224.0840 N   0  0  0  0  0  0  0  0  0  0  0  0
  135.0960   69.6060  224.9160 C   0  0  0  0  0  0  0  0  0  0  0  0
  134.1150   69.5730  226.0960 C   0  0  0  0  0  0  0  0  0  0  0  0
  133.9570   68.2420  226.4450 O   0  0  0  0  0  0  0  0  0  0  0  0
  133.1750   67.5760  225.4970 C   0  0  0  0  0  0  0  0  0  0  0  0
  133.5170   68.0070  224.0880 C   0  0  0  0  0  0  0  0  0  0  0  0
  139.8004   67.9179  227.5928 H   0  0  0  0  0  0  0  0  0  0  0  0
  140.9717   69.3308  229.3058 H   0  0  0  0  0  0  0  0  0  0  0  0
  141.1277   72.5466  226.4414 H   0  0  0  0  0  0  0  0  0  0  0  0
  138.8902   70.3429  221.4217 H   0  0  0  0  0  0  0  0  0  0  0  0
  137.8578   72.7727  222.5370 H   0  0  0  0  0  0  0  0  0  0  0  0
  141.0590   71.5013  220.8911 H   0  0  0  0  0  0  0  0  0  0  0  0
  142.8881   73.0153  220.1469 H   0  0  0  0  0  0  0  0  0  0  0  0
  142.8051   75.4516  220.5684 H   0  0  0  0  0  0  0  0  0  0  0  0
  140.8026   76.3899  221.7995 H   0  0  0  0  0  0  0  0  0  0  0  0
  138.8255   68.4756  221.9713 H   0  0  0  0  0  0  0  0  0  0  0  0
  138.0939   67.3646  223.2608 H   0  0  0  0  0  0  0  0  0  0  0  0
  136.7615   69.8666  222.9324 H   0  0  0  0  0  0  0  0  0  0  0  0
  136.8187   68.6435  221.4611 H   0  0  0  0  0  0  0  0  0  0  0  0
  134.9364   68.2157  222.1205 H   0  0  0  0  0  0  0  0  0  0  0  0
  136.0397   67.1950  223.3075 H   0  0  0  0  0  0  0  0  0  0  0  0
  136.1263   69.5720  225.2997 H   0  0  0  0  0  0  0  0  0  0  0  0
  134.9370   70.5323  224.3444 H   0  0  0  0  0  0  0  0  0  0  0  0
  134.5234   70.1415  226.9445 H   0  0  0  0  0  0  0  0  0  0  0  0
  133.1514   70.0274  225.8223 H   0  0  0  0  0  0  0  0  0  0  0  0
  133.3465   66.4935  225.5903 H   0  0  0  0  0  0  0  0  0  0  0  0
  132.1204   67.8255  225.6857 H   0  0  0  0  0  0  0  0  0  0  0  0
  133.4423   67.1461  223.4074 H   0  0  0  0  0  0  0  0  0  0  0  0
  132.8177   68.7860  223.7501 H   0  0  0  0  0  0  0  0  0  0  0  0
  1  2  2  0
  2  3  1  0
  3  4  2  0
  4  5  1  0
  5  6  2  0
  6  7  1  0
  6  8  1  0
  8  9  2  0
  9 10  1  0
 10 11  2  0
 11 12  1  0
 12 13  2  0
 13 14  1  0
 14 15  2  0
 15 16  1  0
 16 17  2  0
 17 18  1  0
 18 19  2  0
 11 20  1  0
 20 21  1  0
 21 22  1  0
 22 23  1  0
 23 24  1  0
 24 25  1  0
 25 26  1  0
 26 27  1  0
 27 28  1  0
 28 29  1  0
 20  2  1  0
 29 24  1  0
  9  3  1  0
 19 14  1  0
  4 30  1  0
  5 31  1  0
  8 32  1  0
 12 33  1  0
 13 34  1  0
 15 35  1  0
 16 36  1  0
 17 37  1  0
 18 38  1  0
 21 39  1  0
 21 40  1  0
 22 41  1  0
 22 42  1  0
 23 43  1  0
 23 44  1  0
 25 45  1  0
 25 46  1  0
 26 47  1  0
 26 48  1  0
 28 49  1  0
 28 50  1  0
 29 51  1  0
 29 52  1  0
M  END
>  <smiles>  (15) 
O=c1c2ccc(F)cc2nc(/C=C/c2ccccn2)n1CCCN1CCOCC1

>  <score_type>  (15) 
oracle

>  <origin>  (15) 
autodockgpu

>  <m_score__min__energy>  (15) 
-8.2400000000000002

>  <m_primary>  (15) 
energy

>  <meeko>  (15) 
{"free_energy": -8.24, "intermolecular_energy": -10.33, "internal_energy": -1.13, "cluster_size": 11, "cluster_id": 1, "rank_in_cluster": 1}

>  <energy>  (15) 
-6.71

>  <cluster_rmsd>  (15) 
0.0

>  <rmsd>  (15) 
271.38

>  <cluster>  (15) 
4

$$$$

     RDKit          3D

 52 55  0  0  0  0  0  0  0  0999 V2000
  141.5780   73.8550  218.7010 O   0  0  0  0  0  0  0  0  0  0  0  0
  141.1770   74.0090  219.8590 C   0  0  0  0  0  0  0  0  0  0  0  0
  141.2420   75.2990  220.3750 C   0  0  0  0  0  0  0  0  0  0  0  0
  141.7380   76.3250  219.5770 C   0  0  0  0  0  0  0  0  0  0  0  0
  141.8080   77.6210  220.0820 C   0  0  0  0  0  0  0  0  0  0  0  0
  141.3740   77.8390  221.3770 C   0  0  0  0  0  0  0  0  0  0  0  0
  141.4550   79.1100  221.8410 F   0  0  0  0  0  0  0  0  0  0  0  0
  140.8840   76.7940  222.1500 C   0  0  0  0  0  0  0  0  0  0  0  0
  140.8090   75.5130  221.6650 C   0  0  0  0  0  0  0  0  0  0  0  0
  140.3530   74.4630  222.3430 N   0  0  0  0  0  0  0  0  0  0  0  0
  140.3020   73.2310  221.8220 C   0  0  0  0  0  0  0  0  0  0  0  0
  139.7990   72.1700  222.6870 C   0  0  0  0  0  0  0  0  0  0  0  0
  140.6910   71.3930  223.3270 C   0  0  0  0  0  0  0  0  0  0  0  0
  140.4810   71.0990  224.7620 C   0  0  0  0  0  0  0  0  0  0  0  0
  141.0490   71.8740  225.7520 C   0  0  0  0  0  0  0  0  0  0  0  0
  140.8010   71.5150  227.0720 C   0  0  0  0  0  0  0  0  0  0  0  0
  140.0220   70.4330  227.4160 C   0  0  0  0  0  0  0  0  0  0  0  0
  139.4680   69.6760  226.3830 C   0  0  0  0  0  0  0  0  0  0  0  0
  139.7290   70.0530  225.1190 N   0  0  0  0  0  0  0  0  0  0  0  0
  140.7190   72.9630  220.5390 N   0  0  0  0  0  0  0  0  0  0  0  0
  140.6170   71.6020  220.1230 C   0  0  0  0  0  0  0  0  0  0  0  0
  141.8860   70.8510  219.9810 C   0  0  0  0  0  0  0  0  0  0  0  0
  143.1580   71.2800  220.5490 C   0  0  0  0  0  0  0  0  0  0  0  0
  144.0280   72.1650  219.9330 N   0  0  0  0  0  0  0  0  0  0  0  0
  144.1530   72.4070  218.5770 C   0  0  0  0  0  0  0  0  0  0  0  0
  145.3190   73.3710  218.3120 C   0  0  0  0  0  0  0  0  0  0  0  0
  146.3130   73.0520  219.2230 O   0  0  0  0  0  0  0  0  0  0  0  0
  145.9610   73.4860  220.5040 C   0  0  0  0  0  0  0  0  0  0  0  0
  144.4960   73.2480  220.7930 C   0  0  0  0  0  0  0  0  0  0  0  0
  142.0736   76.1134  218.5510 H   0  0  0  0  0  0  0  0  0  0  0  0
  142.1971   78.4472  219.4688 H   0  0  0  0  0  0  0  0  0  0  0  0
  140.5476   76.9989  223.1771 H   0  0  0  0  0  0  0  0  0  0  0  0
  138.7181   72.0094  222.8127 H   0  0  0  0  0  0  0  0  0  0  0  0
  141.5612   70.9833  222.7932 H   0  0  0  0  0  0  0  0  0  0  0  0
  141.6752   72.7442  225.5059 H   0  0  0  0  0  0  0  0  0  0  0  0
  141.2457   72.1207  227.8753 H   0  0  0  0  0  0  0  0  0  0  0  0
  139.8424   70.1740  228.4699 H   0  0  0  0  0  0  0  0  0  0  0  0
  138.8383   68.7995  226.5958 H   0  0  0  0  0  0  0  0  0  0  0  0
  139.9982   71.0732  220.8628 H   0  0  0  0  0  0  0  0  0  0  0  0
  140.1905   71.6415  219.1098 H   0  0  0  0  0  0  0  0  0  0  0  0
  141.6914   69.8550  220.4054 H   0  0  0  0  0  0  0  0  0  0  0  0
  142.0843   70.9794  218.9067 H   0  0  0  0  0  0  0  0  0  0  0  0
  142.9116   71.7335  221.5204 H   0  0  0  0  0  0  0  0  0  0  0  0
  143.7364   70.3463  220.4888 H   0  0  0  0  0  0  0  0  0  0  0  0
  144.3417   71.4573  218.0549 H   0  0  0  0  0  0  0  0  0  0  0  0
  143.2220   72.8620  218.2078 H   0  0  0  0  0  0  0  0  0  0  0  0
  145.6908   73.2432  217.2847 H   0  0  0  0  0  0  0  0  0  0  0  0
  145.0005   74.4180  218.4237 H   0  0  0  0  0  0  0  0  0  0  0  0
  146.5636   72.9387  221.2438 H   0  0  0  0  0  0  0  0  0  0  0  0
  146.1505   74.5679  220.5633 H   0  0  0  0  0  0  0  0  0  0  0  0
  144.3662   72.9670  221.8486 H   0  0  0  0  0  0  0  0  0  0  0  0
  143.9181   74.1633  220.5975 H   0  0  0  0  0  0  0  0  0  0  0  0
  1  2  2  0
  2  3  1  0
  3  4  2  0
  4  5  1  0
  5  6  2  0
  6  7  1  0
  6  8  1  0
  8  9  2  0
  9 10  1  0
 10 11  2  0
 11 12  1  0
 12 13  2  0
 13 14  1  0
 14 15  2  0
 15 16  1  0
 16 17  2  0
 17 18  1  0
 18 19  2  0
 11 20  1  0
 20 21  1  0
 21 22  1  0
 22 23  1  0
 23 24  1  0
 24 25  1  0
 25 26  1  0
 26 27  1  0
 27 28  1  0
 28 29  1  0
 20  2  1  0
 29 24  1  0
  9  3  1  0
 19 14  1  0
  4 30  1  0
  5 31  1  0
  8 32  1  0
 12 33  1  0
 13 34  1  0
 15 35  1  0
 16 36  1  0
 17 37  1  0
 18 38  1  0
 21 39  1  0
 21 40  1  0
 22 41  1  0
 22 42  1  0
 23 43  1  0
 23 44  1  0
 25 45  1  0
 25 46  1  0
 26 47  1  0
 26 48  1  0
 28 49  1  0
 28 50  1  0
 29 51  1  0
 29 52  1  0
M  END
>  <smiles>  (16) 
O=c1c2ccc(F)cc2nc(/C=C/c2ccccn2)n1CCCN1CCOCC1

>  <score_type>  (16) 
oracle

>  <origin>  (16) 
autodockgpu

>  <m_score__min__energy>  (16) 
-8.2400000000000002

>  <m_primary>  (16) 
energy

>  <meeko>  (16) 
{"free_energy": -6.96, "intermolecular_energy": -9.05, "internal_energy": -1.6, "cluster_size": 2, "cluster_id": 2, "rank_in_cluster": 1}

>  <energy>  (16) 
-6.63

>  <cluster_rmsd>  (16) 
0.61

>  <rmsd>  (16) 
271.3

>  <cluster>  (16) 
4

$$$$

     RDKit          3D

 52 55  0  0  0  0  0  0  0  0999 V2000
  139.1370   67.5220  225.3500 O   0  0  0  0  0  0  0  0  0  0  0  0
  139.3920   68.6960  225.0610 C   0  0  0  0  0  0  0  0  0  0  0  0
  139.9710   69.4710  226.0600 C   0  0  0  0  0  0  0  0  0  0  0  0
  140.2300   68.8970  227.3010 C   0  0  0  0  0  0  0  0  0  0  0  0
  140.8100   69.6630  228.3100 C   0  0  0  0  0  0  0  0  0  0  0  0
  141.1080   70.9850  228.0320 C   0  0  0  0  0  0  0  0  0  0  0  0
  141.6720   71.7050  229.0340 F   0  0  0  0  0  0  0  0  0  0  0  0
  140.8380   71.5300  226.7840 C   0  0  0  0  0  0  0  0  0  0  0  0
  140.2680   70.7880  225.7820 C   0  0  0  0  0  0  0  0  0  0  0  0
  139.9780   71.2380  224.5640 N   0  0  0  0  0  0  0  0  0  0  0  0
  139.4200   70.4700  223.6210 C   0  0  0  0  0  0  0  0  0  0  0  0
  139.1390   71.1030  222.3370 C   0  0  0  0  0  0  0  0  0  0  0  0
  138.9860   72.4390  222.3060 C   0  0  0  0  0  0  0  0  0  0  0  0
  140.1020   73.2730  221.8090 C   0  0  0  0  0  0  0  0  0  0  0  0
  141.1940   72.7200  221.1740 C   0  0  0  0  0  0  0  0  0  0  0  0
  142.1970   73.5830  220.7470 C   0  0  0  0  0  0  0  0  0  0  0  0
  142.1350   74.9460  220.9340 C   0  0  0  0  0  0  0  0  0  0  0  0
  141.0120   75.4640  221.5800 C   0  0  0  0  0  0  0  0  0  0  0  0
  140.0630   74.5990  221.9780 N   0  0  0  0  0  0  0  0  0  0  0  0
  139.1060   69.1500  223.8460 N   0  0  0  0  0  0  0  0  0  0  0  0
  138.5060   68.4580  222.7530 C   0  0  0  0  0  0  0  0  0  0  0  0
  137.0670   68.1280  222.8810 C   0  0  0  0  0  0  0  0  0  0  0  0
  136.0130   69.1200  223.0480 C   0  0  0  0  0  0  0  0  0  0  0  0
  135.0900   69.1100  224.0820 N   0  0  0  0  0  0  0  0  0  0  0  0
  135.0080   69.9990  225.1380 C   0  0  0  0  0  0  0  0  0  0  0  0
  133.9170   69.5570  226.1240 C   0  0  0  0  0  0  0  0  0  0  0  0
  133.9600   68.1730  226.1690 O   0  0  0  0  0  0  0  0  0  0  0  0
  133.4250   67.6280  224.9980 C   0  0  0  0  0  0  0  0  0  0  0  0
  133.8470   68.4100  223.7740 C   0  0  0  0  0  0  0  0  0  0  0  0
  139.9777   67.8422  227.4847 H   0  0  0  0  0  0  0  0  0  0  0  0
  141.0245   69.2296  229.2980 H   0  0  0  0  0  0  0  0  0  0  0  0
  141.0878   72.5843  226.5943 H   0  0  0  0  0  0  0  0  0  0  0  0
  139.0545   70.5036  221.4185 H   0  0  0  0  0  0  0  0  0  0  0  0
  138.0478   72.9031  222.6442 H   0  0  0  0  0  0  0  0  0  0  0  0
  141.2689   71.6347  221.0111 H   0  0  0  0  0  0  0  0  0  0  0  0
  143.0761   73.1597  220.2390 H   0  0  0  0  0  0  0  0  0  0  0  0
  142.9442   75.6046  220.5856 H   0  0  0  0  0  0  0  0  0  0  0  0
  140.9066   76.5444  221.7577 H   0  0  0  0  0  0  0  0  0  0  0  0
  138.6255   69.0842  221.8566 H   0  0  0  0  0  0  0  0  0  0  0  0
  139.0214   67.4872  222.7088 H   0  0  0  0  0  0  0  0  0  0  0  0
  136.8077   67.5687  221.9699 H   0  0  0  0  0  0  0  0  0  0  0  0
  137.0523   67.6409  223.8672 H   0  0  0  0  0  0  0  0  0  0  0  0
  136.5265   70.0903  223.1175 H   0  0  0  0  0  0  0  0  0  0  0  0
  135.3661   68.8807  222.1911 H   0  0  0  0  0  0  0  0  0  0  0  0
  135.9760   70.0332  225.6594 H   0  0  0  0  0  0  0  0  0  0  0  0
  134.7546   70.9956  224.7475 H   0  0  0  0  0  0  0  0  0  0  0  0
  134.1154   69.9754  227.1218 H   0  0  0  0  0  0  0  0  0  0  0  0
  132.9263   69.9125  225.8043 H   0  0  0  0  0  0  0  0  0  0  0  0
  133.7743   66.5899  224.8958 H   0  0  0  0  0  0  0  0  0  0  0  0
  132.3282   67.6693  225.0702 H   0  0  0  0  0  0  0  0  0  0  0  0
  134.0068   67.7224  222.9304 H   0  0  0  0  0  0  0  0  0  0  0  0
  133.0645   69.1320  223.4978 H   0  0  0  0  0  0  0  0  0  0  0  0
  1  2  2  0
  2  3  1  0
  3  4  2  0
  4  5  1  0
  5  6  2  0
  6  7  1  0
  6  8  1  0
  8  9  2  0
  9 10  1  0
 10 11  2  0
 11 12  1  0
 12 13  2  0
 13 14  1  0
 14 15  2  0
 15 16  1  0
 16 17  2  0
 17 18  1  0
 18 19  2  0
 11 20  1  0
 20 21  1  0
 21 22  1  0
 22 23  1  0
 23 24  1  0
 24 25  1  0
 25 26  1  0
 26 27  1  0
 27 28  1  0
 28 29  1  0
 20  2  1  0
 29 24  1  0
  9  3  1  0
 19 14  1  0
  4 30  1  0
  5 31  1  0
  8 32  1  0
 12 33  1  0
 13 34  1  0
 15 35  1  0
 16 36  1  0
 17 37  1  0
 18 38  1  0
 21 39  1  0
 21 40  1  0
 22 41  1  0
 22 42  1  0
 23 43  1  0
 23 44  1  0
 25 45  1  0
 25 46  1  0
 26 47  1  0
 26 48  1  0
 28 49  1  0
 28 50  1  0
 29 51  1  0
 29 52  1  0
M  END
>  <smiles>  (17) 
O=c1c2ccc(F)cc2nc(/C=C/c2ccccn2)n1CCCN1CCOCC1

>  <score_type>  (17) 
oracle

>  <origin>  (17) 
autodockgpu

>  <m_score__min__energy>  (17) 
-8.2400000000000002

>  <m_primary>  (17) 
energy

>  <meeko>  (17) 
{"free_energy": -7.85, "intermolecular_energy": -9.94, "internal_energy": -1.25, "cluster_size": 11, "cluster_id": 1, "rank_in_cluster": 5}

>  <energy>  (17) 
-6.52

>  <cluster_rmsd>  (17) 
0.0

>  <rmsd>  (17) 
271.8

>  <cluster>  (17) 
5

$$$$

     RDKit          3D

 52 55  0  0  0  0  0  0  0  0999 V2000
  139.1860   67.4790  225.4170 O   0  0  0  0  0  0  0  0  0  0  0  0
  139.4440   68.6380  225.0740 C   0  0  0  0  0  0  0  0  0  0  0  0
  139.9850   69.4700  226.0480 C   0  0  0  0  0  0  0  0  0  0  0  0
  140.2080   68.9650  227.3260 C   0  0  0  0  0  0  0  0  0  0  0  0
  140.7500   69.7880  228.3090 C   0  0  0  0  0  0  0  0  0  0  0  0
  141.0500   71.0950  227.9710 C   0  0  0  0  0  0  0  0  0  0  0  0
  141.5760   71.8720  228.9510 F   0  0  0  0  0  0  0  0  0  0  0  0
  140.8160   71.5710  226.6880 C   0  0  0  0  0  0  0  0  0  0  0  0
  140.2830   70.7720  225.7090 C   0  0  0  0  0  0  0  0  0  0  0  0
  140.0310   71.1540  224.4600 N   0  0  0  0  0  0  0  0  0  0  0  0
  139.5080   70.3320  223.5420 C   0  0  0  0  0  0  0  0  0  0  0  0
  139.2640   70.8940  222.2180 C   0  0  0  0  0  0  0  0  0  0  0  0
  139.9500   71.9930  221.8570 C   0  0  0  0  0  0  0  0  0  0  0  0
  139.2990   73.3150  221.9890 C   0  0  0  0  0  0  0  0  0  0  0  0
  137.9280   73.4570  221.9300 C   0  0  0  0  0  0  0  0  0  0  0  0
  137.4080   74.7410  222.0570 C   0  0  0  0  0  0  0  0  0  0  0  0
  138.2020   75.8520  222.2360 C   0  0  0  0  0  0  0  0  0  0  0  0
  139.5830   75.6620  222.2900 C   0  0  0  0  0  0  0  0  0  0  0  0
  140.0490   74.4080  222.1630 N   0  0  0  0  0  0  0  0  0  0  0  0
  139.1950   69.0240  223.8280 N   0  0  0  0  0  0  0  0  0  0  0  0
  138.6340   68.2700  222.7540 C   0  0  0  0  0  0  0  0  0  0  0  0
  137.1570   68.1710  222.7100 C   0  0  0  0  0  0  0  0  0  0  0  0
  136.2590   69.3190  222.7060 C   0  0  0  0  0  0  0  0  0  0  0  0
  135.7550   69.9180  223.8490 N   0  0  0  0  0  0  0  0  0  0  0  0
  135.2530   69.2850  224.9720 C   0  0  0  0  0  0  0  0  0  0  0  0
  134.6860   70.3180  225.9570 C   0  0  0  0  0  0  0  0  0  0  0  0
  134.0920   71.3100  225.1940 O   0  0  0  0  0  0  0  0  0  0  0  0
  135.0650   72.1070  224.5840 C   0  0  0  0  0  0  0  0  0  0  0  0
  136.2250   71.2810  224.0730 C   0  0  0  0  0  0  0  0  0  0  0  0
  139.9568   67.9195  227.5581 H   0  0  0  0  0  0  0  0  0  0  0  0
  140.9344   69.4097  229.3253 H   0  0  0  0  0  0  0  0  0  0  0  0
  141.0645   72.6159  226.4505 H   0  0  0  0  0  0  0  0  0  0  0  0
  138.5382   70.4311  221.5332 H   0  0  0  0  0  0  0  0  0  0  0  0
  140.9766   71.9105  221.4706 H   0  0  0  0  0  0  0  0  0  0  0  0
  137.2702   72.5869  221.7877 H   0  0  0  0  0  0  0  0  0  0  0  0
  136.3170   74.8745  222.0126 H   0  0  0  0  0  0  0  0  0  0  0  0
  137.7620   76.8555  222.3331 H   0  0  0  0  0  0  0  0  0  0  0  0
  140.2680   76.5109  222.4319 H   0  0  0  0  0  0  0  0  0  0  0  0
  138.9650   68.7336  221.8130 H   0  0  0  0  0  0  0  0  0  0  0  0
  138.9879   67.2400  222.9087 H   0  0  0  0  0  0  0  0  0  0  0  0
  136.9240   67.6081  221.7941 H   0  0  0  0  0  0  0  0  0  0  0  0
  136.9481   67.7482  223.7038 H   0  0  0  0  0  0  0  0  0  0  0  0
  136.7949   70.1134  222.1659 H   0  0  0  0  0  0  0  0  0  0  0  0
  135.3467   68.8663  222.2904 H   0  0  0  0  0  0  0  0  0  0  0  0
  134.4527   68.5929  224.6712 H   0  0  0  0  0  0  0  0  0  0  0  0
  136.0658   68.7302  225.4636 H   0  0  0  0  0  0  0  0  0  0  0  0
  133.9398   69.8464  226.6134 H   0  0  0  0  0  0  0  0  0  0  0  0
  135.4791   70.7320  226.5969 H   0  0  0  0  0  0  0  0  0  0  0  0
  134.6086   72.6422  223.7383 H   0  0  0  0  0  0  0  0  0  0  0  0
  135.4507   72.8123  225.3348 H   0  0  0  0  0  0  0  0  0  0  0  0
  136.5965   71.7060  223.1289 H   0  0  0  0  0  0  0  0  0  0  0  0
  137.0437   71.2830  224.8077 H   0  0  0  0  0  0  0  0  0  0  0  0
  1  2  2  0
  2  3  1  0
  3  4  2  0
  4  5  1  0
  5  6  2  0
  6  7  1  0
  6  8  1  0
  8  9  2  0
  9 10  1  0
 10 11  2  0
 11 12  1  0
 12 13  2  0
 13 14  1  0
 14 15  2  0
 15 16  1  0
 16 17  2  0
 17 18  1  0
 18 19  2  0
 11 20  1  0
 20 21  1  0
 21 22  1  0
 22 23  1  0
 23 24  1  0
 24 25  1  0
 25 26  1  0
 26 27  1  0
 27 28  1  0
 28 29  1  0
 20  2  1  0
 29 24  1  0
  9  3  1  0
 19 14  1  0
  4 30  1  0
  5 31  1  0
  8 32  1  0
 12 33  1  0
 13 34  1  0
 15 35  1  0
 16 36  1  0
 17 37  1  0
 18 38  1  0
 21 39  1  0
 21 40  1  0
 22 41  1  0
 22 42  1  0
 23 43  1  0
 23 44  1  0
 25 45  1  0
 25 46  1  0
 26 47  1  0
 26 48  1  0
 28 49  1  0
 28 50  1  0
 29 51  1  0
 29 52  1  0
M  END
>  <smiles>  (18) 
O=c1c2ccc(F)cc2nc(/C=C/c2ccccn2)n1CCCN1CCOCC1

>  <score_type>  (18) 
oracle

>  <origin>  (18) 
autodockgpu

>  <m_score__min__energy>  (18) 
-8.2400000000000002

>  <m_primary>  (18) 
energy

>  <meeko>  (18) 
{"free_energy": -6.91, "intermolecular_energy": -9.0, "internal_energy": -1.87, "cluster_size": 11, "cluster_id": 1, "rank_in_cluster": 11}

>  <energy>  (18) 
-6.28

>  <cluster_rmsd>  (18) 
0.0

>  <rmsd>  (18) 
271.32

>  <cluster>  (18) 
6

$$$$

     RDKit          3D

 52 55  0  0  0  0  0  0  0  0999 V2000
  138.7860   68.0590  225.3640 O   0  0  0  0  0  0  0  0  0  0  0  0
  139.2240   69.1750  225.0640 C   0  0  0  0  0  0  0  0  0  0  0  0
  139.8850   69.8750  226.0670 C   0  0  0  0  0  0  0  0  0  0  0  0
  140.0200   69.2950  227.3250 C   0  0  0  0  0  0  0  0  0  0  0  0
  140.6790   69.9870  228.3370 C   0  0  0  0  0  0  0  0  0  0  0  0
  141.1820   71.2420  228.0470 C   0  0  0  0  0  0  0  0  0  0  0  0
  141.8190   71.8910  229.0540 F   0  0  0  0  0  0  0  0  0  0  0  0
  141.0320   71.7960  226.7820 C   0  0  0  0  0  0  0  0  0  0  0  0
  140.3850   71.1260  225.7760 C   0  0  0  0  0  0  0  0  0  0  0  0
  140.2010   71.5890  224.5420 N   0  0  0  0  0  0  0  0  0  0  0  0
  139.5600   70.8930  223.5950 C   0  0  0  0  0  0  0  0  0  0  0  0
  139.4130   71.5330  222.2920 C   0  0  0  0  0  0  0  0  0  0  0  0
  140.4910   72.1340  221.7540 C   0  0  0  0  0  0  0  0  0  0  0  0
  140.5340   73.6120  221.7080 C   0  0  0  0  0  0  0  0  0  0  0  0
  141.5350   74.2870  221.0410 C   0  0  0  0  0  0  0  0  0  0  0  0
  141.4970   75.6770  221.0580 C   0  0  0  0  0  0  0  0  0  0  0  0
  140.5100   76.3860  221.7070 C   0  0  0  0  0  0  0  0  0  0  0  0
  139.5170   75.6630  222.3680 C   0  0  0  0  0  0  0  0  0  0  0  0
  139.5870   74.3210  222.3300 N   0  0  0  0  0  0  0  0  0  0  0  0
  139.0450   69.6400  223.8330 N   0  0  0  0  0  0  0  0  0  0  0  0
  138.3770   69.0230  222.7330 C   0  0  0  0  0  0  0  0  0  0  0  0
  136.9370   69.3290  222.5700 C   0  0  0  0  0  0  0  0  0  0  0  0
  135.8610   68.5080  223.1090 C   0  0  0  0  0  0  0  0  0  0  0  0
  135.0710   68.8700  224.1890 N   0  0  0  0  0  0  0  0  0  0  0  0
  135.3140   69.8820  225.1000 C   0  0  0  0  0  0  0  0  0  0  0  0
  134.2530   69.8660  226.2100 C   0  0  0  0  0  0  0  0  0  0  0  0
  133.9620   68.5350  226.4630 O   0  0  0  0  0  0  0  0  0  0  0  0
  133.1960   67.9950  225.4260 C   0  0  0  0  0  0  0  0  0  0  0  0
  133.6710   68.4750  224.0720 C   0  0  0  0  0  0  0  0  0  0  0  0
  139.6076   68.2938  227.5186 H   0  0  0  0  0  0  0  0  0  0  0  0
  140.7963   69.5481  229.3388 H   0  0  0  0  0  0  0  0  0  0  0  0
  141.4424   72.7969  226.5825 H   0  0  0  0  0  0  0  0  0  0  0  0
  138.4481   71.5247  221.7639 H   0  0  0  0  0  0  0  0  0  0  0  0
  141.3246   71.5369  221.3559 H   0  0  0  0  0  0  0  0  0  0  0  0
  142.3346   73.7453  220.5146 H   0  0  0  0  0  0  0  0  0  0  0  0
  142.2870   76.2330  220.5319 H   0  0  0  0  0  0  0  0  0  0  0  0
  140.5052   77.4860  221.7040 H   0  0  0  0  0  0  0  0  0  0  0  0
  138.7031   76.1743  222.9029 H   0  0  0  0  0  0  0  0  0  0  0  0
  138.8905   69.3380  221.8126 H   0  0  0  0  0  0  0  0  0  0  0  0
  138.4206   67.9432  222.9384 H   0  0  0  0  0  0  0  0  0  0  0  0
  136.7943   70.3294  223.0046 H   0  0  0  0  0  0  0  0  0  0  0  0
  136.8089   69.1573  221.4911 H   0  0  0  0  0  0  0  0  0  0  0  0
  135.1648   68.3443  222.2732 H   0  0  0  0  0  0  0  0  0  0  0  0
  136.4335   67.6743  223.5416 H   0  0  0  0  0  0  0  0  0  0  0  0
  136.3087   69.7370  225.5467 H   0  0  0  0  0  0  0  0  0  0  0  0
  135.2723   70.8500  224.5791 H   0  0  0  0  0  0  0  0  0  0  0  0
  134.6464   70.3473  227.1175 H   0  0  0  0  0  0  0  0  0  0  0  0
  133.3515   70.4170  225.9039 H   0  0  0  0  0  0  0  0  0  0  0  0
  133.2702   66.8981  225.4617 H   0  0  0  0  0  0  0  0  0  0  0  0
  132.1550   68.3239  225.5610 H   0  0  0  0  0  0  0  0  0  0  0  0
  133.5741   67.6640  223.3352 H   0  0  0  0  0  0  0  0  0  0  0  0
  133.0635   69.3295  223.7392 H   0  0  0  0  0  0  0  0  0  0  0  0
  1  2  2  0
  2  3  1  0
  3  4  2  0
  4  5  1  0
  5  6  2  0
  6  7  1  0
  6  8  1  0
  8  9  2  0
  9 10  1  0
 10 11  2  0
 11 12  1  0
 12 13  2  0
 13 14  1  0
 14 15  2  0
 15 16  1  0
 16 17  2  0
 17 18  1  0
 18 19  2  0
 11 20  1  0
 20 21  1  0
 21 22  1  0
 22 23  1  0
 23 24  1  0
 24 25  1  0
 25 26  1  0
 26 27  1  0
 27 28  1  0
 28 29  1  0
 20  2  1  0
 29 24  1  0
  9  3  1  0
 19 14  1  0
  4 30  1  0
  5 31  1  0
  8 32  1  0
 12 33  1  0
 13 34  1  0
 15 35  1  0
 16 36  1  0
 17 37  1  0
 18 38  1  0
 21 39  1  0
 21 40  1  0
 22 41  1  0
 22 42  1  0
 23 43  1  0
 23 44  1  0
 25 45  1  0
 25 46  1  0
 26 47  1  0
 26 48  1  0
 28 49  1  0
 28 50  1  0
 29 51  1  0
 29 52  1  0
M  END
>  <smiles>  (19) 
O=c1c2ccc(F)cc2nc(/C=C/c2ccccn2)n1CCCN1CCOCC1

>  <score_type>  (19) 
oracle

>  <origin>  (19) 
autodockgpu

>  <m_score__min__energy>  (19) 
-8.2400000000000002

>  <m_primary>  (19) 
energy

>  <meeko>  (19) 
{"free_energy": -8.2, "intermolecular_energy": -10.29, "internal_energy": -1.19, "cluster_size": 11, "cluster_id": 1, "rank_in_cluster": 2}

>  <energy>  (19) 
-6.12

>  <cluster_rmsd>  (19) 
0.0

>  <rmsd>  (19) 
272.12

>  <cluster>  (19) 
7

$$$$

     RDKit          3D

 52 55  0  0  0  0  0  0  0  0999 V2000
  139.1660   67.7360  225.4330 O   0  0  0  0  0  0  0  0  0  0  0  0
  139.4130   68.9140  225.1490 C   0  0  0  0  0  0  0  0  0  0  0  0
  140.0320   69.6750  226.1340 C   0  0  0  0  0  0  0  0  0  0  0  0
  140.3390   69.0860  227.3570 C   0  0  0  0  0  0  0  0  0  0  0  0
  140.9590   69.8380  228.3510 C   0  0  0  0  0  0  0  0  0  0  0  0
  141.2500   71.1620  228.0780 C   0  0  0  0  0  0  0  0  0  0  0  0
  141.8540   71.8690  229.0660 F   0  0  0  0  0  0  0  0  0  0  0  0
  140.9320   71.7240  226.8480 C   0  0  0  0  0  0  0  0  0  0  0  0
  140.3220   70.9940  225.8600 C   0  0  0  0  0  0  0  0  0  0  0  0
  139.9860   71.4600  224.6600 N   0  0  0  0  0  0  0  0  0  0  0  0
  139.3890   70.7050  223.7300 C   0  0  0  0  0  0  0  0  0  0  0  0
  139.0600   71.3540  222.4660 C   0  0  0  0  0  0  0  0  0  0  0  0
  140.0590   71.6080  221.6020 C   0  0  0  0  0  0  0  0  0  0  0  0
  140.5690   72.9920  221.4880 C   0  0  0  0  0  0  0  0  0  0  0  0
  141.7690   73.2750  220.8700 C   0  0  0  0  0  0  0  0  0  0  0  0
  142.1700   74.6050  220.8180 C   0  0  0  0  0  0  0  0  0  0  0  0
  141.4190   75.6300  221.3520 C   0  0  0  0  0  0  0  0  0  0  0  0
  140.2110   75.2990  221.9670 C   0  0  0  0  0  0  0  0  0  0  0  0
  139.8580   74.0030  221.9990 N   0  0  0  0  0  0  0  0  0  0  0  0
  139.0820   69.3830  223.9510 N   0  0  0  0  0  0  0  0  0  0  0  0
  138.4370   68.7060  222.8740 C   0  0  0  0  0  0  0  0  0  0  0  0
  136.9620   68.5850  222.9490 C   0  0  0  0  0  0  0  0  0  0  0  0
  136.0710   69.6710  223.3350 C   0  0  0  0  0  0  0  0  0  0  0  0
  135.1350   69.5870  224.3530 N   0  0  0  0  0  0  0  0  0  0  0  0
  134.9250   70.4950  225.3740 C   0  0  0  0  0  0  0  0  0  0  0  0
  133.8740   69.9600  226.3570 C   0  0  0  0  0  0  0  0  0  0  0  0
  134.0800   68.5930  226.4530 O   0  0  0  0  0  0  0  0  0  0  0  0
  133.6380   67.9490  225.2940 C   0  0  0  0  0  0  0  0  0  0  0  0
  133.9900   68.7330  224.0500 C   0  0  0  0  0  0  0  0  0  0  0  0
  140.0925   68.0293  227.5377 H   0  0  0  0  0  0  0  0  0  0  0  0
  141.2100   69.3922  229.3248 H   0  0  0  0  0  0  0  0  0  0  0  0
  141.1754   72.7805  226.6619 H   0  0  0  0  0  0  0  0  0  0  0  0
  138.0223   71.6285  222.2256 H   0  0  0  0  0  0  0  0  0  0  0  0
  140.4892   70.8009  220.9909 H   0  0  0  0  0  0  0  0  0  0  0  0
  142.3870   72.4765  220.4336 H   0  0  0  0  0  0  0  0  0  0  0  0
  143.1255   74.8494  220.3309 H   0  0  0  0  0  0  0  0  0  0  0  0
  141.7606   76.6741  221.2953 H   0  0  0  0  0  0  0  0  0  0  0  0
  139.5687   76.0738  222.4111 H   0  0  0  0  0  0  0  0  0  0  0  0
  138.6799   69.2471  221.9476 H   0  0  0  0  0  0  0  0  0  0  0  0
  138.8132   67.6732  222.9165 H   0  0  0  0  0  0  0  0  0  0  0  0
  136.6374   68.2768  221.9442 H   0  0  0  0  0  0  0  0  0  0  0  0
  136.8527   67.9106  223.8111 H   0  0  0  0  0  0  0  0  0  0  0  0
  136.7270   70.5122  223.6034 H   0  0  0  0  0  0  0  0  0  0  0  0
  135.4141   69.7221  222.4542 H   0  0  0  0  0  0  0  0  0  0  0  0
  135.8707   70.6629  225.9101 H   0  0  0  0  0  0  0  0  0  0  0  0
  134.5626   71.4399  224.9428 H   0  0  0  0  0  0  0  0  0  0  0  0
  134.0005   70.4328  227.3421 H   0  0  0  0  0  0  0  0  0  0  0  0
  132.8550   70.1837  226.0082 H   0  0  0  0  0  0  0  0  0  0  0  0
  134.1095   66.9569  225.2355 H   0  0  0  0  0  0  0  0  0  0  0  0
  132.5427   67.8623  225.3463 H   0  0  0  0  0  0  0  0  0  0  0  0
  134.2480   68.0407  223.2350 H   0  0  0  0  0  0  0  0  0  0  0  0
  133.1333   69.3467  223.7346 H   0  0  0  0  0  0  0  0  0  0  0  0
  1  2  2  0
  2  3  1  0
  3  4  2  0
  4  5  1  0
  5  6  2  0
  6  7  1  0
  6  8  1  0
  8  9  2  0
  9 10  1  0
 10 11  2  0
 11 12  1  0
 12 13  2  0
 13 14  1  0
 14 15  2  0
 15 16  1  0
 16 17  2  0
 17 18  1  0
 18 19  2  0
 11 20  1  0
 20 21  1  0
 21 22  1  0
 22 23  1  0
 23 24  1  0
 24 25  1  0
 25 26  1  0
 26 27  1  0
 27 28  1  0
 28 29  1  0
 20  2  1  0
 29 24  1  0
  9  3  1  0
 19 14  1  0
  4 30  1  0
  5 31  1  0
  8 32  1  0
 12 33  1  0
 13 34  1  0
 15 35  1  0
 16 36  1  0
 17 37  1  0
 18 38  1  0
 21 39  1  0
 21 40  1  0
 22 41  1  0
 22 42  1  0
 23 43  1  0
 23 44  1  0
 25 45  1  0
 25 46  1  0
 26 47  1  0
 26 48  1  0
 28 49  1  0
 28 50  1  0
 29 51  1  0
 29 52  1  0
M  END
>  <smiles>  (20) 
O=c1c2ccc(F)cc2nc(/C=C/c2ccccn2)n1CCCN1CCOCC1

>  <score_type>  (20) 
oracle

>  <origin>  (20) 
autodockgpu

>  <m_score__min__energy>  (20) 
-8.2400000000000002

>  <m_primary>  (20) 
energy

>  <meeko>  (20) 
{"free_energy": -7.83, "intermolecular_energy": -9.92, "internal_energy": -1.22, "cluster_size": 11, "cluster_id": 1, "rank_in_cluster": 6}

>  <energy>  (20) 
-5.98

>  <cluster_rmsd>  (20) 
0.94

>  <rmsd>  (20) 
272.1

>  <cluster>  (20) 
7

$$$$
