UQJJBYVBPBMERE-AOLYHIHGNA-N
     RDKit          3D

 56 60  0  0  0  0  0  0  0  0999 V2000
  139.4639   79.4815  221.9928 H   0  0  0  0  0  0  0  0  0  0  0  0
  139.6710   78.4040  221.9150 C   0  0  0  0  0  0  0  0  0  0  0  0
  138.8650   77.4870  222.5940 C   0  0  0  0  0  0  0  0  0  0  0  0
  138.0170   77.8430  223.1975 H   0  0  0  0  0  0  0  0  0  0  0  0
  139.1340   76.1180  222.5080 C   0  0  0  0  0  0  0  0  0  0  0  0
  138.4928   75.4005  223.0409 H   0  0  0  0  0  0  0  0  0  0  0  0
  140.2200   75.6520  221.7440 C   0  0  0  0  0  0  0  0  0  0  0  0
  140.4800   74.1950  221.6730 C   0  0  0  0  0  0  0  0  0  0  0  0
  140.0830   73.3990  222.6990 N   0  0  0  0  0  0  0  0  0  0  0  0
  140.3080   72.0600  222.6720 C   0  0  0  0  0  0  0  0  0  0  0  0
  139.8970   71.2290  223.7770 N   0  0  0  0  0  0  0  0  0  0  0  0
  140.3920   71.5210  225.1300 C   0  0  0  0  0  0  0  0  0  0  0  0
  139.7705   72.3156  225.5686 H   0  0  0  0  0  0  0  0  0  0  0  0
  141.4435   71.8311  225.0401 H   0  0  0  0  0  0  0  0  0  0  0  0
  140.3470   70.3140  226.0390 C   0  0  0  0  0  0  0  0  0  0  0  0
  140.8930   70.4150  227.3300 C   0  0  0  0  0  0  0  0  0  0  0  0
  141.3456   71.3624  227.6580 H   0  0  0  0  0  0  0  0  0  0  0  0
  140.8660   69.3220  228.2010 C   0  0  0  0  0  0  0  0  0  0  0  0
  141.2950   69.4124  229.2099 H   0  0  0  0  0  0  0  0  0  0  0  0
  140.2960   68.1180  227.7920 C   0  0  0  0  0  0  0  0  0  0  0  0
  140.2802   67.2571  228.4765 H   0  0  0  0  0  0  0  0  0  0  0  0
  139.7440   68.0030  226.5120 C   0  0  0  0  0  0  0  0  0  0  0  0
  139.3012   67.0482  226.1921 H   0  0  0  0  0  0  0  0  0  0  0  0
  139.7510   69.0980  225.6320 C   0  0  0  0  0  0  0  0  0  0  0  0
  139.2200   68.9240  224.2350 C   0  0  0  0  0  0  0  0  0  0  0  0
  138.3455   68.2574  224.2649 H   0  0  0  0  0  0  0  0  0  0  0  0
  140.0180   68.4933  223.6124 H   0  0  0  0  0  0  0  0  0  0  0  0
  138.8050   70.2600  223.6270 C   0  0  0  0  0  0  0  0  0  0  0  0
  137.9092   70.6349  224.1437 H   0  0  0  0  0  0  0  0  0  0  0  0
  138.5829   70.1221  222.5585 H   0  0  0  0  0  0  0  0  0  0  0  0
  140.9440   71.5190  221.6020 N   0  0  0  0  0  0  0  0  0  0  0  0
  141.3630   72.3030  220.5730 C   0  0  0  0  0  0  0  0  0  0  0  0
  141.9830   71.7860  219.5520 N   0  0  0  0  0  0  0  0  0  0  0  0
  143.2710   72.2510  219.0270 C   0  0  2  0  0  0  0  0  0  0  0  0
  143.5447   71.6733  218.1318 H   0  0  0  0  0  0  0  0  0  0  0  0
  144.3630   72.0320  220.0950 C   0  0  0  0  0  0  0  0  0  0  0  0
  144.1008   71.1522  220.7010 H   0  0  0  0  0  0  0  0  0  0  0  0
  145.3246   71.8782  219.5834 H   0  0  0  0  0  0  0  0  0  0  0  0
  144.4920   73.2500  221.0130 C   0  0  0  0  0  0  0  0  0  0  0  0
  143.5415   73.3979  221.5465 H   0  0  0  0  0  0  0  0  0  0  0  0
  145.3131   73.0635  221.7208 H   0  0  0  0  0  0  0  0  0  0  0  0
  144.8230   74.5300  220.2120 C   0  0  0  0  0  0  0  0  0  0  0  0
  144.2836   75.3746  220.6655 H   0  0  0  0  0  0  0  0  0  0  0  0
  145.9140   74.6652  220.2510 H   0  0  0  0  0  0  0  0  0  0  0  0
  144.4440   74.4430  218.7860 N   0  0  0  0  0  0  0  0  0  0  0  0
  144.3550   75.4130  218.4010 H   0  0  0  0  0  0  0  0  0  0  0  0
  145.1960   73.9530  218.2470 H   0  0  0  0  0  0  0  0  0  0  0  0
  143.1680   73.7390  218.6000 C   0  0  0  0  0  0  0  0  0  0  0  0
  142.3957   74.2326  219.2082 H   0  0  0  0  0  0  0  0  0  0  0  0
  142.9075   73.7739  217.5319 H   0  0  0  0  0  0  0  0  0  0  0  0
  141.1390   73.6450  220.6140 N   0  0  0  0  0  0  0  0  0  0  0  0
  141.5030   74.2490  219.8420 H   0  0  0  0  0  0  0  0  0  0  0  0
  141.0110   76.5840  221.0380 C   0  0  0  0  0  0  0  0  0  0  0  0
  142.0480   76.1640  220.2110 O   0  0  0  0  0  0  0  0  0  0  0  0
  140.7390   77.9530  221.1380 C   0  0  0  0  0  0  0  0  0  0  0  0
  141.3699   78.6771  220.6017 H   0  0  0  0  0  0  0  0  0  0  0  0
  1  2  1  0
  2  3  2  0
  3  4  1  0
  3  5  1  0
  5  6  1  0
  5  7  2  0
  7  8  1  0
  8  9  2  0
  9 10  1  0
 10 11  1  0
 11 12  1  0
 12 13  1  0
 12 14  1  0
 12 15  1  0
 15 16  2  0
 16 17  1  0
 16 18  1  0
 18 19  1  0
 18 20  2  0
 20 21  1  0
 20 22  1  0
 22 23  1  0
 22 24  2  0
 24 25  1  0
 25 26  1  0
 25 27  1  0
 25 28  1  0
 28 29  1  0
 28 30  1  0
 10 31  2  0
 31 32  1  0
 32 33  2  0
 33 34  1  0
 34 35  1  6
 34 36  1  0
 36 37  1  0
 36 38  1  0
 36 39  1  0
 39 40  1  0
 39 41  1  0
 39 42  1  0
 42 43  1  0
 42 44  1  0
 42 45  1  0
 45 46  1  0
 45 47  1  0
 45 48  1  0
 48 49  1  0
 48 50  1  0
 32 51  1  0
 51 52  1  0
  7 53  1  0
 53 54  1  0
 53 55  2  0
 55 56  1  0
 55  2  1  0
 51  8  1  0
 28 11  1  0
 48 34  1  0
 24 15  1  0
M  CHG  2  45   1  54  -1
M  END
>  <UniqueID>  (1) 
482

>  <SMILES>  (1) 
[O-]c1ccccc1-c1nc(N2CCc3ccccc3C2)n/c(=N\[C@@H]2CCC[NH2+]C2)[nH]1

>  <Energy>  (1) 
72.06465786596509

>  <Genealogy>  (1) 
[O-]c1ccccc1-c1nc(NC2CCC[NH2+]C2)nc(N2CCc3ccccc3C2)n1 (protonated)
[O-]c1ccccc1-c1nc(N2CCc3ccccc3C2)nc(=NC2CCC[NH2+]C2)[nH]1 (tautomer)
[O-]c1ccccc1-c1nc(N2CCc3ccccc3C2)nc(=N[C@@H]2CCC[NH2+]C2)[nH]1 (chirality)
[O-]c1ccccc1-c1nc(N2CCc3ccccc3C2)n/c(=N\[C@@H]2CCC[NH2+]C2)[nH]1 (cis-trans isomerization)
[O-]c1ccccc1-c1nc(N2CCc3ccccc3C2)n/c(=N\[C@@H]2CCC[NH2+]C2)[nH]1 (3D coordinates assigned)
[O-]c1ccccc1-c1nc(N2CCc3ccccc3C2)n/c(=N\[C@@H]2CCC[NH2+]C2)[nH]1 (nonaromatic ring conformer: 72.06465786596509 kcal/mol)

>  <smiles>  (1) 
Oc1ccccc1-c1nc(NC2CCCNC2)nc(N2CCc3ccccc3C2)n1

>  <score_type>  (1) 
oracle

>  <origin>  (1) 
autodockgpu

>  <m_score__min__energy>  (1) 
-7.8700000000000001

>  <m_primary>  (1) 
energy

>  <meeko>  (1) 
{"free_energy": -7.81, "intermolecular_energy": -9.01, "internal_energy": -2.32, "cluster_size": 12, "cluster_id": 1, "rank_in_cluster": 12}

>  <energy>  (1) 
-7.87

>  <cluster_rmsd>  (1) 
0.0

>  <rmsd>  (1) 
270.17

>  <cluster>  (1) 
1

$$$$
UQJJBYVBPBMERE-AOLYHIHGNA-N
     RDKit          3D

 56 60  0  0  0  0  0  0  0  0999 V2000
  139.4420   79.4489  221.8318 H   0  0  0  0  0  0  0  0  0  0  0  0
  139.6610   78.3720  221.7840 C   0  0  0  0  0  0  0  0  0  0  0  0
  138.8610   77.4650  222.4830 C   0  0  0  0  0  0  0  0  0  0  0  0
  138.0063   77.8282  223.0726 H   0  0  0  0  0  0  0  0  0  0  0  0
  139.1440   76.0970  222.4350 C   0  0  0  0  0  0  0  0  0  0  0  0
  138.5065   75.3873  222.9826 H   0  0  0  0  0  0  0  0  0  0  0  0
  140.2400   75.6220  221.6900 C   0  0  0  0  0  0  0  0  0  0  0  0
  140.5150   74.1670  221.6590 C   0  0  0  0  0  0  0  0  0  0  0  0
  140.1190   73.3940  222.7030 N   0  0  0  0  0  0  0  0  0  0  0  0
  140.3570   72.0570  222.7130 C   0  0  0  0  0  0  0  0  0  0  0  0
  139.9470   71.2510  223.8370 N   0  0  0  0  0  0  0  0  0  0  0  0
  140.4830   71.5410  225.1740 C   0  0  0  0  0  0  0  0  0  0  0  0
  139.8978   72.3596  225.6183 H   0  0  0  0  0  0  0  0  0  0  0  0
  141.5414   71.8165  225.0562 H   0  0  0  0  0  0  0  0  0  0  0  0
  140.4210   70.3450  226.0970 C   0  0  0  0  0  0  0  0  0  0  0  0
  141.0010   70.4430  227.3740 C   0  0  0  0  0  0  0  0  0  0  0  0
  141.4908   71.3790  227.6806 H   0  0  0  0  0  0  0  0  0  0  0  0
  140.9600   69.3600  228.2570 C   0  0  0  0  0  0  0  0  0  0  0  0
  141.4160   69.4465  229.2543 H   0  0  0  0  0  0  0  0  0  0  0  0
  140.3420   68.1710  227.8750 C   0  0  0  0  0  0  0  0  0  0  0  0
  140.3147   67.3184  228.5695 H   0  0  0  0  0  0  0  0  0  0  0  0
  139.7560   68.0600  226.6090 C   0  0  0  0  0  0  0  0  0  0  0  0
  139.2758   67.1166  226.3100 H   0  0  0  0  0  0  0  0  0  0  0  0
  139.7770   69.1450  225.7180 C   0  0  0  0  0  0  0  0  0  0  0  0
  139.2070   68.9750  224.3360 C   0  0  0  0  0  0  0  0  0  0  0  0
  138.3123   68.3377  224.3940 H   0  0  0  0  0  0  0  0  0  0  0  0
  139.9758   68.5126  223.6995 H   0  0  0  0  0  0  0  0  0  0  0  0
  138.8210   70.3170  223.7230 C   0  0  0  0  0  0  0  0  0  0  0  0
  137.9502   70.7263  224.2561 H   0  0  0  0  0  0  0  0  0  0  0  0
  138.5691   70.1755  222.6616 H   0  0  0  0  0  0  0  0  0  0  0  0
  141.0080   71.4940  221.6620 N   0  0  0  0  0  0  0  0  0  0  0  0
  141.4260   72.2550  220.6160 C   0  0  0  0  0  0  0  0  0  0  0  0
  142.0580   71.7180  219.6130 N   0  0  0  0  0  0  0  0  0  0  0  0
  143.3240   72.2090  219.0580 C   0  0  2  0  0  0  0  0  0  0  0  0
  143.5884   71.6367  218.1566 H   0  0  0  0  0  0  0  0  0  0  0  0
  144.4460   72.0120  220.0990 C   0  0  0  0  0  0  0  0  0  0  0  0
  144.2166   71.1271  220.7108 H   0  0  0  0  0  0  0  0  0  0  0  0
  145.3979   71.8773  219.5644 H   0  0  0  0  0  0  0  0  0  0  0  0
  144.5720   73.2330  221.0140 C   0  0  0  0  0  0  0  0  0  0  0  0
  143.6315   73.3616  221.5699 H   0  0  0  0  0  0  0  0  0  0  0  0
  145.4135   73.0633  221.7018 H   0  0  0  0  0  0  0  0  0  0  0  0
  144.8580   74.5200  220.2060 C   0  0  0  0  0  0  0  0  0  0  0  0
  144.3130   75.3537  220.6729 H   0  0  0  0  0  0  0  0  0  0  0  0
  145.9466   74.6774  220.2188 H   0  0  0  0  0  0  0  0  0  0  0  0
  144.4460   74.4250  218.7890 N   0  0  0  0  0  0  0  0  0  0  0  0
  144.3280   75.3930  218.4070 H   0  0  0  0  0  0  0  0  0  0  0  0
  145.1950   73.9500  218.2320 H   0  0  0  0  0  0  0  0  0  0  0  0
  143.1800   73.6950  218.6340 C   0  0  0  0  0  0  0  0  0  0  0  0
  142.4129   74.1728  219.2611 H   0  0  0  0  0  0  0  0  0  0  0  0
  142.8926   73.7245  217.5726 H   0  0  0  0  0  0  0  0  0  0  0  0
  141.1880   73.5950  220.6200 N   0  0  0  0  0  0  0  0  0  0  0  0
  141.5510   74.1830  219.8350 H   0  0  0  0  0  0  0  0  0  0  0  0
  141.0250   76.5430  220.9630 C   0  0  0  0  0  0  0  0  0  0  0  0
  142.0720   76.1130  220.1530 O   0  0  0  0  0  0  0  0  0  0  0  0
  140.7380   77.9120  221.0250 C   0  0  0  0  0  0  0  0  0  0  0  0
  141.3643   78.6282  220.4729 H   0  0  0  0  0  0  0  0  0  0  0  0
  1  2  1  0
  2  3  2  0
  3  4  1  0
  3  5  1  0
  5  6  1  0
  5  7  2  0
  7  8  1  0
  8  9  2  0
  9 10  1  0
 10 11  1  0
 11 12  1  0
 12 13  1  0
 12 14  1  0
 12 15  1  0
 15 16  2  0
 16 17  1  0
 16 18  1  0
 18 19  1  0
 18 20  2  0
 20 21  1  0
 20 22  1  0
 22 23  1  0
 22 24  2  0
 24 25  1  0
 25 26  1  0
 25 27  1  0
 25 28  1  0
 28 29  1  0
 28 30  1  0
 10 31  2  0
 31 32  1  0
 32 33  2  0
 33 34  1  0
 34 35  1  6
 34 36  1  0
 36 37  1  0
 36 38  1  0
 36 39  1  0
 39 40  1  0
 39 41  1  0
 39 42  1  0
 42 43  1  0
 42 44  1  0
 42 45  1  0
 45 46  1  0
 45 47  1  0
 45 48  1  0
 48 49  1  0
 48 50  1  0
 32 51  1  0
 51 52  1  0
  7 53  1  0
 53 54  1  0
 53 55  2  0
 55 56  1  0
 55  2  1  0
 51  8  1  0
 28 11  1  0
 48 34  1  0
 24 15  1  0
M  CHG  2  45   1  54  -1
M  END
>  <UniqueID>  (2) 
482

>  <SMILES>  (2) 
[O-]c1ccccc1-c1nc(N2CCc3ccccc3C2)n/c(=N\[C@@H]2CCC[NH2+]C2)[nH]1

>  <Energy>  (2) 
72.06465786596509

>  <Genealogy>  (2) 
[O-]c1ccccc1-c1nc(NC2CCC[NH2+]C2)nc(N2CCc3ccccc3C2)n1 (protonated)
[O-]c1ccccc1-c1nc(N2CCc3ccccc3C2)nc(=NC2CCC[NH2+]C2)[nH]1 (tautomer)
[O-]c1ccccc1-c1nc(N2CCc3ccccc3C2)nc(=N[C@@H]2CCC[NH2+]C2)[nH]1 (chirality)
[O-]c1ccccc1-c1nc(N2CCc3ccccc3C2)n/c(=N\[C@@H]2CCC[NH2+]C2)[nH]1 (cis-trans isomerization)
[O-]c1ccccc1-c1nc(N2CCc3ccccc3C2)n/c(=N\[C@@H]2CCC[NH2+]C2)[nH]1 (3D coordinates assigned)
[O-]c1ccccc1-c1nc(N2CCc3ccccc3C2)n/c(=N\[C@@H]2CCC[NH2+]C2)[nH]1 (nonaromatic ring conformer: 72.06465786596509 kcal/mol)

>  <smiles>  (2) 
Oc1ccccc1-c1nc(NC2CCCNC2)nc(N2CCc3ccccc3C2)n1

>  <score_type>  (2) 
oracle

>  <origin>  (2) 
autodockgpu

>  <m_score__min__energy>  (2) 
-7.8700000000000001

>  <m_primary>  (2) 
energy

>  <meeko>  (2) 
{"free_energy": -7.85, "intermolecular_energy": -9.05, "internal_energy": -2.29, "cluster_size": 12, "cluster_id": 1, "rank_in_cluster": 3}

>  <energy>  (2) 
-7.86

>  <cluster_rmsd>  (2) 
0.34

>  <rmsd>  (2) 
270.16

>  <cluster>  (2) 
1

$$$$
UQJJBYVBPBMERE-AOLYHIHGNA-N
     RDKit          3D

 56 60  0  0  0  0  0  0  0  0999 V2000
  139.4062   79.4606  221.8982 H   0  0  0  0  0  0  0  0  0  0  0  0
  139.6290   78.3850  221.8400 C   0  0  0  0  0  0  0  0  0  0  0  0
  138.8290   77.4680  222.5250 C   0  0  0  0  0  0  0  0  0  0  0  0
  137.9700   77.8219  223.1140 H   0  0  0  0  0  0  0  0  0  0  0  0
  139.1170   76.1020  222.4640 C   0  0  0  0  0  0  0  0  0  0  0  0
  138.4791   75.3846  223.0010 H   0  0  0  0  0  0  0  0  0  0  0  0
  140.2180   75.6380  221.7200 C   0  0  0  0  0  0  0  0  0  0  0  0
  140.4990   74.1840  221.6760 C   0  0  0  0  0  0  0  0  0  0  0  0
  140.1090   73.4010  222.7140 N   0  0  0  0  0  0  0  0  0  0  0  0
  140.3530   72.0650  222.7110 C   0  0  0  0  0  0  0  0  0  0  0  0
  139.9480   71.2470  223.8290 N   0  0  0  0  0  0  0  0  0  0  0  0
  140.4720   71.5410  225.1720 C   0  0  0  0  0  0  0  0  0  0  0  0
  139.8703   72.3475  225.6164 H   0  0  0  0  0  0  0  0  0  0  0  0
  141.5261   71.8355  225.0617 H   0  0  0  0  0  0  0  0  0  0  0  0
  140.4250   70.3400  226.0890 C   0  0  0  0  0  0  0  0  0  0  0  0
  140.9950   70.4420  227.3700 C   0  0  0  0  0  0  0  0  0  0  0  0
  141.4670   71.3849  227.6834 H   0  0  0  0  0  0  0  0  0  0  0  0
  140.9670   69.3550  228.2490 C   0  0  0  0  0  0  0  0  0  0  0  0
  141.4152   69.4447  229.2495 H   0  0  0  0  0  0  0  0  0  0  0  0
  140.3710   68.1580  227.8570 C   0  0  0  0  0  0  0  0  0  0  0  0
  140.3536   67.3017  228.5473 H   0  0  0  0  0  0  0  0  0  0  0  0
  139.7950   68.0430  226.5880 C   0  0  0  0  0  0  0  0  0  0  0  0
  139.3324   67.0930  226.2822 H   0  0  0  0  0  0  0  0  0  0  0  0
  139.8030   69.1310  225.7020 C   0  0  0  0  0  0  0  0  0  0  0  0
  139.2440   68.9570  224.3150 C   0  0  0  0  0  0  0  0  0  0  0  0
  138.3599   68.3044  224.3650 H   0  0  0  0  0  0  0  0  0  0  0  0
  140.0243   68.5103  223.6814 H   0  0  0  0  0  0  0  0  0  0  0  0
  138.8390   70.2950  223.7050 C   0  0  0  0  0  0  0  0  0  0  0  0
  137.9584   70.6875  224.2347 H   0  0  0  0  0  0  0  0  0  0  0  0
  138.5957   70.1535  222.6416 H   0  0  0  0  0  0  0  0  0  0  0  0
  141.0010   71.5140  221.6530 N   0  0  0  0  0  0  0  0  0  0  0  0
  141.4130   72.2860  220.6120 C   0  0  0  0  0  0  0  0  0  0  0  0
  142.0440   71.7600  219.6030 N   0  0  0  0  0  0  0  0  0  0  0  0
  143.3130   72.2520  219.0560 C   0  0  2  0  0  0  0  0  0  0  0  0
  143.5748   71.6922  218.1460 H   0  0  0  0  0  0  0  0  0  0  0  0
  144.4330   72.0330  220.0940 C   0  0  0  0  0  0  0  0  0  0  0  0
  144.1984   71.1399  220.6918 H   0  0  0  0  0  0  0  0  0  0  0  0
  145.3842   71.9019  219.5573 H   0  0  0  0  0  0  0  0  0  0  0  0
  144.5660   73.2380  221.0280 C   0  0  0  0  0  0  0  0  0  0  0  0
  143.6264   73.3629  221.5861 H   0  0  0  0  0  0  0  0  0  0  0  0
  145.4068   73.0525  221.7126 H   0  0  0  0  0  0  0  0  0  0  0  0
  144.8590   74.5360  220.2410 C   0  0  0  0  0  0  0  0  0  0  0  0
  144.3183   75.3649  220.7211 H   0  0  0  0  0  0  0  0  0  0  0  0
  145.9484   74.6874  220.2565 H   0  0  0  0  0  0  0  0  0  0  0  0
  144.4470   74.4660  218.8230 N   0  0  0  0  0  0  0  0  0  0  0  0
  144.3340   75.4410  218.4560 H   0  0  0  0  0  0  0  0  0  0  0  0
  145.1930   73.9960  218.2580 H   0  0  0  0  0  0  0  0  0  0  0  0
  143.1770   73.7460  218.6560 C   0  0  0  0  0  0  0  0  0  0  0  0
  142.4125   74.2178  219.2908 H   0  0  0  0  0  0  0  0  0  0  0  0
  142.8897   73.7945  217.5953 H   0  0  0  0  0  0  0  0  0  0  0  0
  141.1700   73.6250  220.6290 N   0  0  0  0  0  0  0  0  0  0  0  0
  141.5290   74.2200  219.8490 H   0  0  0  0  0  0  0  0  0  0  0  0
  141.0040   76.5700  221.0070 C   0  0  0  0  0  0  0  0  0  0  0  0
  142.0560   76.1510  220.1980 O   0  0  0  0  0  0  0  0  0  0  0  0
  140.7120   77.9360  221.0810 C   0  0  0  0  0  0  0  0  0  0  0  0
  141.3382   78.6599  220.5389 H   0  0  0  0  0  0  0  0  0  0  0  0
  1  2  1  0
  2  3  2  0
  3  4  1  0
  3  5  1  0
  5  6  1  0
  5  7  2  0
  7  8  1  0
  8  9  2  0
  9 10  1  0
 10 11  1  0
 11 12  1  0
 12 13  1  0
 12 14  1  0
 12 15  1  0
 15 16  2  0
 16 17  1  0
 16 18  1  0
 18 19  1  0
 18 20  2  0
 20 21  1  0
 20 22  1  0
 22 23  1  0
 22 24  2  0
 24 25  1  0
 25 26  1  0
 25 27  1  0
 25 28  1  0
 28 29  1  0
 28 30  1  0
 10 31  2  0
 31 32  1  0
 32 33  2  0
 33 34  1  0
 34 35  1  6
 34 36  1  0
 36 37  1  0
 36 38  1  0
 36 39  1  0
 39 40  1  0
 39 41  1  0
 39 42  1  0
 42 43  1  0
 42 44  1  0
 42 45  1  0
 45 46  1  0
 45 47  1  0
 45 48  1  0
 48 49  1  0
 48 50  1  0
 32 51  1  0
 51 52  1  0
  7 53  1  0
 53 54  1  0
 53 55  2  0
 55 56  1  0
 55  2  1  0
 51  8  1  0
 28 11  1  0
 48 34  1  0
 24 15  1  0
M  CHG  2  45   1  54  -1
M  END
>  <UniqueID>  (3) 
482

>  <SMILES>  (3) 
[O-]c1ccccc1-c1nc(N2CCc3ccccc3C2)n/c(=N\[C@@H]2CCC[NH2+]C2)[nH]1

>  <Energy>  (3) 
72.06465786596509

>  <Genealogy>  (3) 
[O-]c1ccccc1-c1nc(NC2CCC[NH2+]C2)nc(N2CCc3ccccc3C2)n1 (protonated)
[O-]c1ccccc1-c1nc(N2CCc3ccccc3C2)nc(=NC2CCC[NH2+]C2)[nH]1 (tautomer)
[O-]c1ccccc1-c1nc(N2CCc3ccccc3C2)nc(=N[C@@H]2CCC[NH2+]C2)[nH]1 (chirality)
[O-]c1ccccc1-c1nc(N2CCc3ccccc3C2)n/c(=N\[C@@H]2CCC[NH2+]C2)[nH]1 (cis-trans isomerization)
[O-]c1ccccc1-c1nc(N2CCc3ccccc3C2)n/c(=N\[C@@H]2CCC[NH2+]C2)[nH]1 (3D coordinates assigned)
[O-]c1ccccc1-c1nc(N2CCc3ccccc3C2)n/c(=N\[C@@H]2CCC[NH2+]C2)[nH]1 (nonaromatic ring conformer: 72.06465786596509 kcal/mol)

>  <smiles>  (3) 
Oc1ccccc1-c1nc(NC2CCCNC2)nc(N2CCc3ccccc3C2)n1

>  <score_type>  (3) 
oracle

>  <origin>  (3) 
autodockgpu

>  <m_score__min__energy>  (3) 
-7.8700000000000001

>  <m_primary>  (3) 
energy

>  <meeko>  (3) 
{"free_energy": -7.86, "intermolecular_energy": -9.05, "internal_energy": -2.29, "cluster_size": 12, "cluster_id": 1, "rank_in_cluster": 2}

>  <energy>  (3) 
-7.85

>  <cluster_rmsd>  (3) 
0.32

>  <rmsd>  (3) 
270.15

>  <cluster>  (3) 
1

$$$$
UQJJBYVBPBMERE-AOLYHIHGNA-N
     RDKit          3D

 56 60  0  0  0  0  0  0  0  0999 V2000
  139.9570   79.4522  221.7837 H   0  0  0  0  0  0  0  0  0  0  0  0
  140.1160   78.3650  221.7320 C   0  0  0  0  0  0  0  0  0  0  0  0
  139.2710   77.5010  222.4330 C   0  0  0  0  0  0  0  0  0  0  0  0
  138.4407   77.9088  223.0281 H   0  0  0  0  0  0  0  0  0  0  0  0
  139.4780   76.1200  222.3800 C   0  0  0  0  0  0  0  0  0  0  0  0
  138.8049   75.4449  222.9288 H   0  0  0  0  0  0  0  0  0  0  0  0
  140.5420   75.5880  221.6290 C   0  0  0  0  0  0  0  0  0  0  0  0
  140.7360   74.1190  221.5930 C   0  0  0  0  0  0  0  0  0  0  0  0
  140.3060   73.3670  222.6390 N   0  0  0  0  0  0  0  0  0  0  0  0
  140.4710   72.0190  222.6440 C   0  0  0  0  0  0  0  0  0  0  0  0
  140.0250   71.2340  223.7700 N   0  0  0  0  0  0  0  0  0  0  0  0
  140.5620   71.5140  225.1100 C   0  0  0  0  0  0  0  0  0  0  0  0
  140.0020   72.3546  225.5456 H   0  0  0  0  0  0  0  0  0  0  0  0
  141.6299   71.7531  224.9981 H   0  0  0  0  0  0  0  0  0  0  0  0
  140.4530   70.3260  226.0390 C   0  0  0  0  0  0  0  0  0  0  0  0
  141.0270   70.4110  227.3190 C   0  0  0  0  0  0  0  0  0  0  0  0
  141.5467   71.3314  227.6237 H   0  0  0  0  0  0  0  0  0  0  0  0
  140.9430   69.3360  228.2080 C   0  0  0  0  0  0  0  0  0  0  0  0
  141.3954   69.4125  229.2077 H   0  0  0  0  0  0  0  0  0  0  0  0
  140.2860   68.1670  227.8280 C   0  0  0  0  0  0  0  0  0  0  0  0
  140.2238   67.3201  228.5272 H   0  0  0  0  0  0  0  0  0  0  0  0
  139.7060   68.0690  226.5600 C   0  0  0  0  0  0  0  0  0  0  0  0
  139.1957   67.1408  226.2633 H   0  0  0  0  0  0  0  0  0  0  0  0
  139.7700   69.1470  225.6620 C   0  0  0  0  0  0  0  0  0  0  0  0
  139.2040   68.9880  224.2770 C   0  0  0  0  0  0  0  0  0  0  0  0
  138.2878   68.3817  224.3323 H   0  0  0  0  0  0  0  0  0  0  0  0
  139.9607   68.4958  223.6484 H   0  0  0  0  0  0  0  0  0  0  0  0
  138.8680   70.3390  223.6540 C   0  0  0  0  0  0  0  0  0  0  0  0
  138.0086   70.7811  224.1793 H   0  0  0  0  0  0  0  0  0  0  0  0
  138.6176   70.2002  222.5919 H   0  0  0  0  0  0  0  0  0  0  0  0
  141.0800   71.4240  221.5870 N   0  0  0  0  0  0  0  0  0  0  0  0
  141.5320   72.1630  220.5390 C   0  0  0  0  0  0  0  0  0  0  0  0
  142.1260   71.5940  219.5310 N   0  0  0  0  0  0  0  0  0  0  0  0
  143.4390   71.9790  219.0020 C   0  0  2  0  0  0  0  0  0  0  0  0
  143.6694   71.3938  218.0995 H   0  0  0  0  0  0  0  0  0  0  0  0
  144.5210   71.6780  220.0600 C   0  0  0  0  0  0  0  0  0  0  0  0
  144.2059   70.8106  220.6586 H   0  0  0  0  0  0  0  0  0  0  0  0
  145.4673   71.4677  219.5400 H   0  0  0  0  0  0  0  0  0  0  0  0
  144.7350   72.8750  220.9900 C   0  0  0  0  0  0  0  0  0  0  0  0
  143.7995   73.0787  221.5316 H   0  0  0  0  0  0  0  0  0  0  0  0
  145.5466   72.6276  221.6900 H   0  0  0  0  0  0  0  0  0  0  0  0
  145.1440   74.1400  220.2000 C   0  0  0  0  0  0  0  0  0  0  0  0
  144.6640   75.0130  220.6664 H   0  0  0  0  0  0  0  0  0  0  0  0
  146.2417   74.2030  220.2326 H   0  0  0  0  0  0  0  0  0  0  0  0
  144.7510   74.0940  218.7760 N   0  0  0  0  0  0  0  0  0  0  0  0
  144.7220   75.0720  218.4010 H   0  0  0  0  0  0  0  0  0  0  0  0
  145.4660   73.5610  218.2260 H   0  0  0  0  0  0  0  0  0  0  0  0
  143.4300   73.4760  218.5910 C   0  0  0  0  0  0  0  0  0  0  0  0
  142.6950   74.0119  219.2095 H   0  0  0  0  0  0  0  0  0  0  0  0
  143.1658   73.5394  217.5251 H   0  0  0  0  0  0  0  0  0  0  0  0
  141.3680   73.5140  220.5470 N   0  0  0  0  0  0  0  0  0  0  0  0
  141.7570   74.0820  219.7610 H   0  0  0  0  0  0  0  0  0  0  0  0
  141.3730   76.4660  220.8990 C   0  0  0  0  0  0  0  0  0  0  0  0
  142.3890   75.9800  220.0830 O   0  0  0  0  0  0  0  0  0  0  0  0
  141.1620   77.8480  220.9660 C   0  0  0  0  0  0  0  0  0  0  0  0
  141.8238   78.5301  220.4122 H   0  0  0  0  0  0  0  0  0  0  0  0
  1  2  1  0
  2  3  2  0
  3  4  1  0
  3  5  1  0
  5  6  1  0
  5  7  2  0
  7  8  1  0
  8  9  2  0
  9 10  1  0
 10 11  1  0
 11 12  1  0
 12 13  1  0
 12 14  1  0
 12 15  1  0
 15 16  2  0
 16 17  1  0
 16 18  1  0
 18 19  1  0
 18 20  2  0
 20 21  1  0
 20 22  1  0
 22 23  1  0
 22 24  2  0
 24 25  1  0
 25 26  1  0
 25 27  1  0
 25 28  1  0
 28 29  1  0
 28 30  1  0
 10 31  2  0
 31 32  1  0
 32 33  2  0
 33 34  1  0
 34 35  1  6
 34 36  1  0
 36 37  1  0
 36 38  1  0
 36 39  1  0
 39 40  1  0
 39 41  1  0
 39 42  1  0
 42 43  1  0
 42 44  1  0
 42 45  1  0
 45 46  1  0
 45 47  1  0
 45 48  1  0
 48 49  1  0
 48 50  1  0
 32 51  1  0
 51 52  1  0
  7 53  1  0
 53 54  1  0
 53 55  2  0
 55 56  1  0
 55  2  1  0
 51  8  1  0
 28 11  1  0
 48 34  1  0
 24 15  1  0
M  CHG  2  45   1  54  -1
M  END
>  <UniqueID>  (4) 
482

>  <SMILES>  (4) 
[O-]c1ccccc1-c1nc(N2CCc3ccccc3C2)n/c(=N\[C@@H]2CCC[NH2+]C2)[nH]1

>  <Energy>  (4) 
72.06465786596509

>  <Genealogy>  (4) 
[O-]c1ccccc1-c1nc(NC2CCC[NH2+]C2)nc(N2CCc3ccccc3C2)n1 (protonated)
[O-]c1ccccc1-c1nc(N2CCc3ccccc3C2)nc(=NC2CCC[NH2+]C2)[nH]1 (tautomer)
[O-]c1ccccc1-c1nc(N2CCc3ccccc3C2)nc(=N[C@@H]2CCC[NH2+]C2)[nH]1 (chirality)
[O-]c1ccccc1-c1nc(N2CCc3ccccc3C2)n/c(=N\[C@@H]2CCC[NH2+]C2)[nH]1 (cis-trans isomerization)
[O-]c1ccccc1-c1nc(N2CCc3ccccc3C2)n/c(=N\[C@@H]2CCC[NH2+]C2)[nH]1 (3D coordinates assigned)
[O-]c1ccccc1-c1nc(N2CCc3ccccc3C2)n/c(=N\[C@@H]2CCC[NH2+]C2)[nH]1 (nonaromatic ring conformer: 72.06465786596509 kcal/mol)

>  <smiles>  (4) 
Oc1ccccc1-c1nc(NC2CCCNC2)nc(N2CCc3ccccc3C2)n1

>  <score_type>  (4) 
oracle

>  <origin>  (4) 
autodockgpu

>  <m_score__min__energy>  (4) 
-7.8700000000000001

>  <m_primary>  (4) 
energy

>  <meeko>  (4) 
{"free_energy": -7.85, "intermolecular_energy": -9.04, "internal_energy": -2.29, "cluster_size": 12, "cluster_id": 1, "rank_in_cluster": 6}

>  <energy>  (4) 
-7.85

>  <cluster_rmsd>  (4) 
0.11

>  <rmsd>  (4) 
270.15

>  <cluster>  (4) 
1

$$$$
UQJJBYVBPBMERE-AOLYHIHGNA-N
     RDKit          3D

 56 60  0  0  0  0  0  0  0  0999 V2000
  139.9329   79.4581  221.7914 H   0  0  0  0  0  0  0  0  0  0  0  0
  140.0920   78.3710  221.7370 C   0  0  0  0  0  0  0  0  0  0  0  0
  139.2560   77.5060  222.4470 C   0  0  0  0  0  0  0  0  0  0  0  0
  138.4313   77.9125  223.0508 H   0  0  0  0  0  0  0  0  0  0  0  0
  139.4650   76.1250  222.3920 C   0  0  0  0  0  0  0  0  0  0  0  0
  138.8001   75.4491  222.9498 H   0  0  0  0  0  0  0  0  0  0  0  0
  140.5200   75.5940  221.6280 C   0  0  0  0  0  0  0  0  0  0  0  0
  140.7160   74.1260  221.5890 C   0  0  0  0  0  0  0  0  0  0  0  0
  140.2890   73.3720  222.6340 N   0  0  0  0  0  0  0  0  0  0  0  0
  140.4550   72.0240  222.6370 C   0  0  0  0  0  0  0  0  0  0  0  0
  140.0110   71.2370  223.7620 N   0  0  0  0  0  0  0  0  0  0  0  0
  140.5540   71.5120  225.1010 C   0  0  0  0  0  0  0  0  0  0  0  0
  139.9976   72.3527  225.5411 H   0  0  0  0  0  0  0  0  0  0  0  0
  141.6220   71.7489  224.9856 H   0  0  0  0  0  0  0  0  0  0  0  0
  140.4460   70.3220  226.0270 C   0  0  0  0  0  0  0  0  0  0  0  0
  141.0240   70.4030  227.3050 C   0  0  0  0  0  0  0  0  0  0  0  0
  141.5454   71.3221  227.6104 H   0  0  0  0  0  0  0  0  0  0  0  0
  140.9420   69.3250  228.1920 C   0  0  0  0  0  0  0  0  0  0  0  0
  141.3983   69.3980  229.1902 H   0  0  0  0  0  0  0  0  0  0  0  0
  140.2820   68.1580  227.8110 C   0  0  0  0  0  0  0  0  0  0  0  0
  140.2211   67.3093  228.5081 H   0  0  0  0  0  0  0  0  0  0  0  0
  139.6970   68.0640  226.5440 C   0  0  0  0  0  0  0  0  0  0  0  0
  139.1844   67.1375  226.2461 H   0  0  0  0  0  0  0  0  0  0  0  0
  139.7600   69.1450  225.6500 C   0  0  0  0  0  0  0  0  0  0  0  0
  139.1890   68.9900  224.2660 C   0  0  0  0  0  0  0  0  0  0  0  0
  138.2721   68.3850  224.3230 H   0  0  0  0  0  0  0  0  0  0  0  0
  139.9430   68.4981  223.6339 H   0  0  0  0  0  0  0  0  0  0  0  0
  138.8530   70.3430  223.6470 C   0  0  0  0  0  0  0  0  0  0  0  0
  137.9953   70.7847  224.1755 H   0  0  0  0  0  0  0  0  0  0  0  0
  138.6001   70.2068  222.5852 H   0  0  0  0  0  0  0  0  0  0  0  0
  141.0630   71.4310  221.5780 N   0  0  0  0  0  0  0  0  0  0  0  0
  141.5120   72.1730  220.5300 C   0  0  0  0  0  0  0  0  0  0  0  0
  142.1060   71.6060  219.5200 N   0  0  0  0  0  0  0  0  0  0  0  0
  143.4160   71.9950  218.9890 C   0  0  2  0  0  0  0  0  0  0  0  0
  143.6442   71.4144  218.0830 H   0  0  0  0  0  0  0  0  0  0  0  0
  144.5020   71.6900  220.0420 C   0  0  0  0  0  0  0  0  0  0  0  0
  144.1895   70.8200  220.6382 H   0  0  0  0  0  0  0  0  0  0  0  0
  145.4466   71.4820  219.5182 H   0  0  0  0  0  0  0  0  0  0  0  0
  144.7180   72.8840  220.9760 C   0  0  0  0  0  0  0  0  0  0  0  0
  143.7840   73.0845  221.5214 H   0  0  0  0  0  0  0  0  0  0  0  0
  145.5325   72.6345  221.6720 H   0  0  0  0  0  0  0  0  0  0  0  0
  145.1230   74.1520  220.1910 C   0  0  0  0  0  0  0  0  0  0  0  0
  144.6438   75.0224  220.6629 H   0  0  0  0  0  0  0  0  0  0  0  0
  146.2208   74.2159  220.2202 H   0  0  0  0  0  0  0  0  0  0  0  0
  144.7250   74.1120  218.7670 N   0  0  0  0  0  0  0  0  0  0  0  0
  144.6940   75.0910  218.3980 H   0  0  0  0  0  0  0  0  0  0  0  0
  145.4390   73.5820  218.2130 H   0  0  0  0  0  0  0  0  0  0  0  0
  143.4040   73.4930  218.5850 C   0  0  0  0  0  0  0  0  0  0  0  0
  142.6711   74.0254  219.2090 H   0  0  0  0  0  0  0  0  0  0  0  0
  143.1355   73.5606  217.5204 H   0  0  0  0  0  0  0  0  0  0  0  0
  141.3480   73.5230  220.5410 N   0  0  0  0  0  0  0  0  0  0  0  0
  141.7350   74.0930  219.7560 H   0  0  0  0  0  0  0  0  0  0  0  0
  141.3410   76.4740  220.8890 C   0  0  0  0  0  0  0  0  0  0  0  0
  142.3490   75.9900  220.0600 O   0  0  0  0  0  0  0  0  0  0  0  0
  141.1300   77.8550  220.9580 C   0  0  0  0  0  0  0  0  0  0  0  0
  141.7845   78.5377  220.3962 H   0  0  0  0  0  0  0  0  0  0  0  0
  1  2  1  0
  2  3  2  0
  3  4  1  0
  3  5  1  0
  5  6  1  0
  5  7  2  0
  7  8  1  0
  8  9  2  0
  9 10  1  0
 10 11  1  0
 11 12  1  0
 12 13  1  0
 12 14  1  0
 12 15  1  0
 15 16  2  0
 16 17  1  0
 16 18  1  0
 18 19  1  0
 18 20  2  0
 20 21  1  0
 20 22  1  0
 22 23  1  0
 22 24  2  0
 24 25  1  0
 25 26  1  0
 25 27  1  0
 25 28  1  0
 28 29  1  0
 28 30  1  0
 10 31  2  0
 31 32  1  0
 32 33  2  0
 33 34  1  0
 34 35  1  6
 34 36  1  0
 36 37  1  0
 36 38  1  0
 36 39  1  0
 39 40  1  0
 39 41  1  0
 39 42  1  0
 42 43  1  0
 42 44  1  0
 42 45  1  0
 45 46  1  0
 45 47  1  0
 45 48  1  0
 48 49  1  0
 48 50  1  0
 32 51  1  0
 51 52  1  0
  7 53  1  0
 53 54  1  0
 53 55  2  0
 55 56  1  0
 55  2  1  0
 51  8  1  0
 28 11  1  0
 48 34  1  0
 24 15  1  0
M  CHG  2  45   1  54  -1
M  END
>  <UniqueID>  (5) 
482

>  <SMILES>  (5) 
[O-]c1ccccc1-c1nc(N2CCc3ccccc3C2)n/c(=N\[C@@H]2CCC[NH2+]C2)[nH]1

>  <Energy>  (5) 
72.06465786596509

>  <Genealogy>  (5) 
[O-]c1ccccc1-c1nc(NC2CCC[NH2+]C2)nc(N2CCc3ccccc3C2)n1 (protonated)
[O-]c1ccccc1-c1nc(N2CCc3ccccc3C2)nc(=NC2CCC[NH2+]C2)[nH]1 (tautomer)
[O-]c1ccccc1-c1nc(N2CCc3ccccc3C2)nc(=N[C@@H]2CCC[NH2+]C2)[nH]1 (chirality)
[O-]c1ccccc1-c1nc(N2CCc3ccccc3C2)n/c(=N\[C@@H]2CCC[NH2+]C2)[nH]1 (cis-trans isomerization)
[O-]c1ccccc1-c1nc(N2CCc3ccccc3C2)n/c(=N\[C@@H]2CCC[NH2+]C2)[nH]1 (3D coordinates assigned)
[O-]c1ccccc1-c1nc(N2CCc3ccccc3C2)n/c(=N\[C@@H]2CCC[NH2+]C2)[nH]1 (nonaromatic ring conformer: 72.06465786596509 kcal/mol)

>  <smiles>  (5) 
Oc1ccccc1-c1nc(NC2CCCNC2)nc(N2CCc3ccccc3C2)n1

>  <score_type>  (5) 
oracle

>  <origin>  (5) 
autodockgpu

>  <m_score__min__energy>  (5) 
-7.8700000000000001

>  <m_primary>  (5) 
energy

>  <meeko>  (5) 
{"free_energy": -7.84, "intermolecular_energy": -9.04, "internal_energy": -2.3, "cluster_size": 12, "cluster_id": 1, "rank_in_cluster": 8}

>  <energy>  (5) 
-7.85

>  <cluster_rmsd>  (5) 
0.09

>  <rmsd>  (5) 
270.17

>  <cluster>  (5) 
1

$$$$
UQJJBYVBPBMERE-AOLYHIHGNA-N
     RDKit          3D

 56 60  0  0  0  0  0  0  0  0999 V2000
  146.5116   71.7978  218.5324 H   0  0  0  0  0  0  0  0  0  0  0  0
  145.5810   72.0560  219.0590 C   0  0  0  0  0  0  0  0  0  0  0  0
  144.7960   71.0480  219.6260 C   0  0  0  0  0  0  0  0  0  0  0  0
  145.1157   69.9979  219.5545 H   0  0  0  0  0  0  0  0  0  0  0  0
  143.6070   71.3710  220.2830 C   0  0  0  0  0  0  0  0  0  0  0  0
  142.9970   70.5735  220.7324 H   0  0  0  0  0  0  0  0  0  0  0  0
  143.1840   72.7100  220.3740 C   0  0  0  0  0  0  0  0  0  0  0  0
  141.9170   73.0210  221.0770 C   0  0  0  0  0  0  0  0  0  0  0  0
  141.4610   72.1690  222.0310 N   0  0  0  0  0  0  0  0  0  0  0  0
  140.3020   72.4180  222.6930 C   0  0  0  0  0  0  0  0  0  0  0  0
  139.8200   71.4940  223.6920 N   0  0  0  0  0  0  0  0  0  0  0  0
  140.3930   71.5220  225.0450 C   0  0  0  0  0  0  0  0  0  0  0  0
  139.8975   72.3174  225.6211 H   0  0  0  0  0  0  0  0  0  0  0  0
  141.4730   71.7057  224.9457 H   0  0  0  0  0  0  0  0  0  0  0  0
  140.2170   70.2120  225.7780 C   0  0  0  0  0  0  0  0  0  0  0  0
  140.8130   70.0550  227.0410 C   0  0  0  0  0  0  0  0  0  0  0  0
  141.3980   70.8798  227.4740 H   0  0  0  0  0  0  0  0  0  0  0  0
  140.6690   68.8600  227.7520 C   0  0  0  0  0  0  0  0  0  0  0  0
  141.1386   68.7480  228.7404 H   0  0  0  0  0  0  0  0  0  0  0  0
  139.9300   67.8100  227.2080 C   0  0  0  0  0  0  0  0  0  0  0  0
  139.8211   66.8681  227.7657 H   0  0  0  0  0  0  0  0  0  0  0  0
  139.3270   67.9530  225.9540 C   0  0  0  0  0  0  0  0  0  0  0  0
  138.7513   67.1187  225.5267 H   0  0  0  0  0  0  0  0  0  0  0  0
  139.4510   69.1530  225.2370 C   0  0  0  0  0  0  0  0  0  0  0  0
  138.8560   69.2530  223.8580 C   0  0  0  0  0  0  0  0  0  0  0  0
  137.9016   68.7065  223.8396 H   0  0  0  0  0  0  0  0  0  0  0  0
  139.5686   68.8187  223.1414 H   0  0  0  0  0  0  0  0  0  0  0  0
  138.6040   70.7050  223.4640 C   0  0  0  0  0  0  0  0  0  0  0  0
  137.7834   71.1126  224.0727 H   0  0  0  0  0  0  0  0  0  0  0  0
  138.3311   70.7530  222.3995 H   0  0  0  0  0  0  0  0  0  0  0  0
  139.5920   73.5340  222.3870 N   0  0  0  0  0  0  0  0  0  0  0  0
  140.0260   74.3900  221.4240 C   0  0  0  0  0  0  0  0  0  0  0  0
  139.3410   75.4550  221.1230 N   0  0  0  0  0  0  0  0  0  0  0  0
  139.9170   76.7760  220.8530 C   0  0  2  0  0  0  0  0  0  0  0  0
  139.4133   77.5388  221.4648 H   0  0  0  0  0  0  0  0  0  0  0  0
  139.7010   77.1320  219.3670 C   0  0  0  0  0  0  0  0  0  0  0  0
  138.7708   76.6608  219.0166 H   0  0  0  0  0  0  0  0  0  0  0  0
  139.6392   78.2265  219.2763 H   0  0  0  0  0  0  0  0  0  0  0  0
  140.8660   76.6390  218.5050 C   0  0  0  0  0  0  0  0  0  0  0  0
  140.9206   75.5424  218.5714 H   0  0  0  0  0  0  0  0  0  0  0  0
  140.6881   76.9603  217.4681 H   0  0  0  0  0  0  0  0  0  0  0  0
  142.2110   77.2380  218.9740 C   0  0  0  0  0  0  0  0  0  0  0  0
  142.9901   76.4682  218.8722 H   0  0  0  0  0  0  0  0  0  0  0  0
  142.4120   78.1179  218.3452 H   0  0  0  0  0  0  0  0  0  0  0  0
  142.1890   77.7000  220.3780 N   0  0  0  0  0  0  0  0  0  0  0  0
  143.1740   77.7500  220.7320 H   0  0  0  0  0  0  0  0  0  0  0  0
  141.7810   78.6630  220.4300 H   0  0  0  0  0  0  0  0  0  0  0  0
  141.4200   76.7930  221.2410 C   0  0  0  0  0  0  0  0  0  0  0  0
  141.8262   75.7755  221.1420 H   0  0  0  0  0  0  0  0  0  0  0  0
  141.5045   77.1494  222.2782 H   0  0  0  0  0  0  0  0  0  0  0  0
  141.1850   74.1270  220.7610 N   0  0  0  0  0  0  0  0  0  0  0  0
  141.4910   74.7640  219.9900 H   0  0  0  0  0  0  0  0  0  0  0  0
  143.9980   73.7250  219.8250 C   0  0  0  0  0  0  0  0  0  0  0  0
  143.6590   75.0680  219.9570 O   0  0  0  0  0  0  0  0  0  0  0  0
  145.1840   73.3900  219.1610 C   0  0  0  0  0  0  0  0  0  0  0  0
  145.8058   74.1818  218.7177 H   0  0  0  0  0  0  0  0  0  0  0  0
  1  2  1  0
  2  3  2  0
  3  4  1  0
  3  5  1  0
  5  6  1  0
  5  7  2  0
  7  8  1  0
  8  9  2  0
  9 10  1  0
 10 11  1  0
 11 12  1  0
 12 13  1  0
 12 14  1  0
 12 15  1  0
 15 16  2  0
 16 17  1  0
 16 18  1  0
 18 19  1  0
 18 20  2  0
 20 21  1  0
 20 22  1  0
 22 23  1  0
 22 24  2  0
 24 25  1  0
 25 26  1  0
 25 27  1  0
 25 28  1  0
 28 29  1  0
 28 30  1  0
 10 31  2  0
 31 32  1  0
 32 33  2  0
 33 34  1  0
 34 35  1  1
 34 36  1  0
 36 37  1  0
 36 38  1  0
 36 39  1  0
 39 40  1  0
 39 41  1  0
 39 42  1  0
 42 43  1  0
 42 44  1  0
 42 45  1  0
 45 46  1  0
 45 47  1  0
 45 48  1  0
 48 49  1  0
 48 50  1  0
 32 51  1  0
 51 52  1  0
  7 53  1  0
 53 54  1  0
 53 55  2  0
 55 56  1  0
 55  2  1  0
 51  8  1  0
 28 11  1  0
 48 34  1  0
 24 15  1  0
M  CHG  2  45   1  54  -1
M  END
>  <UniqueID>  (6) 
482

>  <SMILES>  (6) 
[O-]c1ccccc1-c1nc(N2CCc3ccccc3C2)n/c(=N\[C@@H]2CCC[NH2+]C2)[nH]1

>  <Energy>  (6) 
72.06465786596509

>  <Genealogy>  (6) 
[O-]c1ccccc1-c1nc(NC2CCC[NH2+]C2)nc(N2CCc3ccccc3C2)n1 (protonated)
[O-]c1ccccc1-c1nc(N2CCc3ccccc3C2)nc(=NC2CCC[NH2+]C2)[nH]1 (tautomer)
[O-]c1ccccc1-c1nc(N2CCc3ccccc3C2)nc(=N[C@@H]2CCC[NH2+]C2)[nH]1 (chirality)
[O-]c1ccccc1-c1nc(N2CCc3ccccc3C2)n/c(=N\[C@@H]2CCC[NH2+]C2)[nH]1 (cis-trans isomerization)
[O-]c1ccccc1-c1nc(N2CCc3ccccc3C2)n/c(=N\[C@@H]2CCC[NH2+]C2)[nH]1 (3D coordinates assigned)
[O-]c1ccccc1-c1nc(N2CCc3ccccc3C2)n/c(=N\[C@@H]2CCC[NH2+]C2)[nH]1 (nonaromatic ring conformer: 72.06465786596509 kcal/mol)

>  <smiles>  (6) 
Oc1ccccc1-c1nc(NC2CCCNC2)nc(N2CCc3ccccc3C2)n1

>  <score_type>  (6) 
oracle

>  <origin>  (6) 
autodockgpu

>  <m_score__min__energy>  (6) 
-7.8700000000000001

>  <m_primary>  (6) 
energy

>  <meeko>  (6) 
{"free_energy": -7.81, "intermolecular_energy": -9.0, "internal_energy": -2.29, "cluster_size": 8, "cluster_id": 2, "rank_in_cluster": 4}

>  <energy>  (6) 
-7.85

>  <cluster_rmsd>  (6) 
0.09

>  <rmsd>  (6) 
270.16

>  <cluster>  (6) 
1

$$$$
UQJJBYVBPBMERE-AOLYHIHGNA-N
     RDKit          3D

 56 60  0  0  0  0  0  0  0  0999 V2000
  139.4435   79.4730  221.9211 H   0  0  0  0  0  0  0  0  0  0  0  0
  139.6580   78.3960  221.8570 C   0  0  0  0  0  0  0  0  0  0  0  0
  138.8670   77.4830  222.5590 C   0  0  0  0  0  0  0  0  0  0  0  0
  138.0229   77.8415  223.1665 H   0  0  0  0  0  0  0  0  0  0  0  0
  139.1460   76.1150  222.4910 C   0  0  0  0  0  0  0  0  0  0  0  0
  138.5159   75.4006  223.0412 H   0  0  0  0  0  0  0  0  0  0  0  0
  140.2280   75.6460  221.7230 C   0  0  0  0  0  0  0  0  0  0  0  0
  140.4980   74.1900  221.6720 C   0  0  0  0  0  0  0  0  0  0  0  0
  140.1040   73.4050  222.7070 N   0  0  0  0  0  0  0  0  0  0  0  0
  140.3390   72.0670  222.6980 C   0  0  0  0  0  0  0  0  0  0  0  0
  139.9300   71.2470  223.8130 N   0  0  0  0  0  0  0  0  0  0  0  0
  140.4470   71.5400  225.1580 C   0  0  0  0  0  0  0  0  0  0  0  0
  139.8422   72.3451  225.6007 H   0  0  0  0  0  0  0  0  0  0  0  0
  141.5011   71.8365  225.0534 H   0  0  0  0  0  0  0  0  0  0  0  0
  140.3970   70.3370  226.0730 C   0  0  0  0  0  0  0  0  0  0  0  0
  140.9610   70.4380  227.3570 C   0  0  0  0  0  0  0  0  0  0  0  0
  141.4305   71.3809  227.6740 H   0  0  0  0  0  0  0  0  0  0  0  0
  140.9300   69.3500  228.2340 C   0  0  0  0  0  0  0  0  0  0  0  0
  141.3735   69.4390  229.2367 H   0  0  0  0  0  0  0  0  0  0  0  0
  140.3370   68.1520  227.8380 C   0  0  0  0  0  0  0  0  0  0  0  0
  140.3168   67.2951  228.5274 H   0  0  0  0  0  0  0  0  0  0  0  0
  139.7680   68.0380  226.5660 C   0  0  0  0  0  0  0  0  0  0  0  0
  139.3085   67.0877  226.2564 H   0  0  0  0  0  0  0  0  0  0  0  0
  139.7790   69.1280  225.6810 C   0  0  0  0  0  0  0  0  0  0  0  0
  139.2270   68.9550  224.2910 C   0  0  0  0  0  0  0  0  0  0  0  0
  138.3438   68.3009  224.3356 H   0  0  0  0  0  0  0  0  0  0  0  0
  140.0109   68.5103  223.6603 H   0  0  0  0  0  0  0  0  0  0  0  0
  138.8230   70.2930  223.6820 C   0  0  0  0  0  0  0  0  0  0  0  0
  137.9393   70.6830  224.2083 H   0  0  0  0  0  0  0  0  0  0  0  0
  138.5851   70.1531  222.6172 H   0  0  0  0  0  0  0  0  0  0  0  0
  140.9830   71.5160  221.6370 N   0  0  0  0  0  0  0  0  0  0  0  0
  141.3980   72.2900  220.5990 C   0  0  0  0  0  0  0  0  0  0  0  0
  142.0250   71.7640  219.5860 N   0  0  0  0  0  0  0  0  0  0  0  0
  143.2980   72.2480  219.0430 C   0  0  2  0  0  0  0  0  0  0  0  0
  143.5606   71.6824  218.1369 H   0  0  0  0  0  0  0  0  0  0  0  0
  144.4130   72.0290  220.0880 C   0  0  0  0  0  0  0  0  0  0  0  0
  144.1715   71.1401  220.6894 H   0  0  0  0  0  0  0  0  0  0  0  0
  145.3661   71.8906  219.5565 H   0  0  0  0  0  0  0  0  0  0  0  0
  144.5470   73.2380  221.0160 C   0  0  0  0  0  0  0  0  0  0  0  0
  143.6055   73.3697  221.5693 H   0  0  0  0  0  0  0  0  0  0  0  0
  145.3841   73.0524  221.7050 H   0  0  0  0  0  0  0  0  0  0  0  0
  144.8490   74.5310  220.2240 C   0  0  0  0  0  0  0  0  0  0  0  0
  144.3089   75.3644  220.6970 H   0  0  0  0  0  0  0  0  0  0  0  0
  145.9389   74.6786  220.2445 H   0  0  0  0  0  0  0  0  0  0  0  0
  144.4440   74.4550  218.8040 N   0  0  0  0  0  0  0  0  0  0  0  0
  144.3380   75.4280  218.4310 H   0  0  0  0  0  0  0  0  0  0  0  0
  145.1910   73.9780  218.2460 H   0  0  0  0  0  0  0  0  0  0  0  0
  143.1720   73.7400  218.6340 C   0  0  0  0  0  0  0  0  0  0  0  0
  142.4062   74.2191  219.2617 H   0  0  0  0  0  0  0  0  0  0  0  0
  142.8913   73.7836  217.5713 H   0  0  0  0  0  0  0  0  0  0  0  0
  141.1650   73.6300  220.6210 N   0  0  0  0  0  0  0  0  0  0  0  0
  141.5260   74.2270  219.8440 H   0  0  0  0  0  0  0  0  0  0  0  0
  141.0030   76.5720  220.9930 C   0  0  0  0  0  0  0  0  0  0  0  0
  142.0340   76.1480  220.1610 O   0  0  0  0  0  0  0  0  0  0  0  0
  140.7210   77.9410  221.0740 C   0  0  0  0  0  0  0  0  0  0  0  0
  141.3395   78.6613  220.5184 H   0  0  0  0  0  0  0  0  0  0  0  0
  1  2  1  0
  2  3  2  0
  3  4  1  0
  3  5  1  0
  5  6  1  0
  5  7  2  0
  7  8  1  0
  8  9  2  0
  9 10  1  0
 10 11  1  0
 11 12  1  0
 12 13  1  0
 12 14  1  0
 12 15  1  0
 15 16  2  0
 16 17  1  0
 16 18  1  0
 18 19  1  0
 18 20  2  0
 20 21  1  0
 20 22  1  0
 22 23  1  0
 22 24  2  0
 24 25  1  0
 25 26  1  0
 25 27  1  0
 25 28  1  0
 28 29  1  0
 28 30  1  0
 10 31  2  0
 31 32  1  0
 32 33  2  0
 33 34  1  0
 34 35  1  6
 34 36  1  0
 36 37  1  0
 36 38  1  0
 36 39  1  0
 39 40  1  0
 39 41  1  0
 39 42  1  0
 42 43  1  0
 42 44  1  0
 42 45  1  0
 45 46  1  0
 45 47  1  0
 45 48  1  0
 48 49  1  0
 48 50  1  0
 32 51  1  0
 51 52  1  0
  7 53  1  0
 53 54  1  0
 53 55  2  0
 55 56  1  0
 55  2  1  0
 51  8  1  0
 28 11  1  0
 48 34  1  0
 24 15  1  0
M  CHG  2  45   1  54  -1
M  END
>  <UniqueID>  (7) 
482

>  <SMILES>  (7) 
[O-]c1ccccc1-c1nc(N2CCc3ccccc3C2)n/c(=N\[C@@H]2CCC[NH2+]C2)[nH]1

>  <Energy>  (7) 
72.06465786596509

>  <Genealogy>  (7) 
[O-]c1ccccc1-c1nc(NC2CCC[NH2+]C2)nc(N2CCc3ccccc3C2)n1 (protonated)
[O-]c1ccccc1-c1nc(N2CCc3ccccc3C2)nc(=NC2CCC[NH2+]C2)[nH]1 (tautomer)
[O-]c1ccccc1-c1nc(N2CCc3ccccc3C2)nc(=N[C@@H]2CCC[NH2+]C2)[nH]1 (chirality)
[O-]c1ccccc1-c1nc(N2CCc3ccccc3C2)n/c(=N\[C@@H]2CCC[NH2+]C2)[nH]1 (cis-trans isomerization)
[O-]c1ccccc1-c1nc(N2CCc3ccccc3C2)n/c(=N\[C@@H]2CCC[NH2+]C2)[nH]1 (3D coordinates assigned)
[O-]c1ccccc1-c1nc(N2CCc3ccccc3C2)n/c(=N\[C@@H]2CCC[NH2+]C2)[nH]1 (nonaromatic ring conformer: 72.06465786596509 kcal/mol)

>  <smiles>  (7) 
Oc1ccccc1-c1nc(NC2CCCNC2)nc(N2CCc3ccccc3C2)n1

>  <score_type>  (7) 
oracle

>  <origin>  (7) 
autodockgpu

>  <m_score__min__energy>  (7) 
-7.8700000000000001

>  <m_primary>  (7) 
energy

>  <meeko>  (7) 
{"free_energy": -7.84, "intermolecular_energy": -9.04, "internal_energy": -2.3, "cluster_size": 12, "cluster_id": 1, "rank_in_cluster": 9}

>  <energy>  (7) 
-7.84

>  <cluster_rmsd>  (7) 
0.11

>  <rmsd>  (7) 
270.15

>  <cluster>  (7) 
1

$$$$
UQJJBYVBPBMERE-AOLYHIHGNA-N
     RDKit          3D

 56 60  0  0  0  0  0  0  0  0999 V2000
  139.9927   79.4573  221.7677 H   0  0  0  0  0  0  0  0  0  0  0  0
  140.1440   78.3690  221.7150 C   0  0  0  0  0  0  0  0  0  0  0  0
  139.3120   77.5120  222.4400 C   0  0  0  0  0  0  0  0  0  0  0  0
  138.4993   77.9263  223.0547 H   0  0  0  0  0  0  0  0  0  0  0  0
  139.5100   76.1300  222.3860 C   0  0  0  0  0  0  0  0  0  0  0  0
  138.8474   75.4605  222.9541 H   0  0  0  0  0  0  0  0  0  0  0  0
  140.5510   75.5890  221.6100 C   0  0  0  0  0  0  0  0  0  0  0  0
  140.7360   74.1190  221.5730 C   0  0  0  0  0  0  0  0  0  0  0  0
  140.3120   73.3710  222.6240 N   0  0  0  0  0  0  0  0  0  0  0  0
  140.4680   72.0220  222.6280 C   0  0  0  0  0  0  0  0  0  0  0  0
  140.0280   71.2410  223.7590 N   0  0  0  0  0  0  0  0  0  0  0  0
  140.5670   71.5300  225.0960 C   0  0  0  0  0  0  0  0  0  0  0  0
  140.0047   72.3707  225.5285 H   0  0  0  0  0  0  0  0  0  0  0  0
  141.6336   71.7726  224.9802 H   0  0  0  0  0  0  0  0  0  0  0  0
  140.4650   70.3460  226.0320 C   0  0  0  0  0  0  0  0  0  0  0  0
  141.0420   70.4410  227.3100 C   0  0  0  0  0  0  0  0  0  0  0  0
  141.5581   71.3654  227.6086 H   0  0  0  0  0  0  0  0  0  0  0  0
  140.9650   69.3690  228.2050 C   0  0  0  0  0  0  0  0  0  0  0  0
  141.4194   69.4527  229.2032 H   0  0  0  0  0  0  0  0  0  0  0  0
  140.3130   68.1950  227.8330 C   0  0  0  0  0  0  0  0  0  0  0  0
  140.2567   67.3513  228.5366 H   0  0  0  0  0  0  0  0  0  0  0  0
  139.7300   68.0880  226.5660 C   0  0  0  0  0  0  0  0  0  0  0  0
  139.2233   67.1560  226.2749 H   0  0  0  0  0  0  0  0  0  0  0  0
  139.7870   69.1620  225.6630 C   0  0  0  0  0  0  0  0  0  0  0  0
  139.2190   68.9930  224.2790 C   0  0  0  0  0  0  0  0  0  0  0  0
  138.3060   68.3823  224.3390 H   0  0  0  0  0  0  0  0  0  0  0  0
  139.9771   68.5015  223.6515 H   0  0  0  0  0  0  0  0  0  0  0  0
  138.8750   70.3390  223.6500 C   0  0  0  0  0  0  0  0  0  0  0  0
  138.0144   70.7794  224.1748 H   0  0  0  0  0  0  0  0  0  0  0  0
  138.6233   70.1935  222.5891 H   0  0  0  0  0  0  0  0  0  0  0  0
  141.0640   71.4220  221.5660 N   0  0  0  0  0  0  0  0  0  0  0  0
  141.5090   72.1570  220.5130 C   0  0  0  0  0  0  0  0  0  0  0  0
  142.0900   71.5840  219.4990 N   0  0  0  0  0  0  0  0  0  0  0  0
  143.3950   71.9670  218.9520 C   0  0  2  0  0  0  0  0  0  0  0  0
  143.6165   71.3728  218.0532 H   0  0  0  0  0  0  0  0  0  0  0  0
  144.4900   71.6800  220.0010 C   0  0  0  0  0  0  0  0  0  0  0  0
  144.1837   70.8187  220.6129 H   0  0  0  0  0  0  0  0  0  0  0  0
  145.4307   71.4657  219.4726 H   0  0  0  0  0  0  0  0  0  0  0  0
  144.7120   72.8880  220.9150 C   0  0  0  0  0  0  0  0  0  0  0  0
  143.7825   73.0952  221.4655 H   0  0  0  0  0  0  0  0  0  0  0  0
  145.5329   72.6503  221.6076 H   0  0  0  0  0  0  0  0  0  0  0  0
  145.1080   74.1450  220.1070 C   0  0  0  0  0  0  0  0  0  0  0  0
  144.6299   75.0215  220.5688 H   0  0  0  0  0  0  0  0  0  0  0  0
  146.2058   74.2119  220.1272 H   0  0  0  0  0  0  0  0  0  0  0  0
  144.7000   74.0820  218.6870 N   0  0  0  0  0  0  0  0  0  0  0  0
  144.6640   75.0550  218.3030 H   0  0  0  0  0  0  0  0  0  0  0  0
  145.4100   73.5450  218.1360 H   0  0  0  0  0  0  0  0  0  0  0  0
  143.3780   73.4590  218.5250 C   0  0  0  0  0  0  0  0  0  0  0  0
  142.6495   74.0002  219.1465 H   0  0  0  0  0  0  0  0  0  0  0  0
  143.1009   73.5101  217.4617 H   0  0  0  0  0  0  0  0  0  0  0  0
  141.3540   73.5090  220.5220 N   0  0  0  0  0  0  0  0  0  0  0  0
  141.7390   74.0740  219.7310 H   0  0  0  0  0  0  0  0  0  0  0  0
  141.3680   76.4600  220.8570 C   0  0  0  0  0  0  0  0  0  0  0  0
  142.3610   75.9660  220.0160 O   0  0  0  0  0  0  0  0  0  0  0  0
  141.1670   77.8440  220.9240 C   0  0  0  0  0  0  0  0  0  0  0  0
  141.8181   78.5204  220.3508 H   0  0  0  0  0  0  0  0  0  0  0  0
  1  2  1  0
  2  3  2  0
  3  4  1  0
  3  5  1  0
  5  6  1  0
  5  7  2  0
  7  8  1  0
  8  9  2  0
  9 10  1  0
 10 11  1  0
 11 12  1  0
 12 13  1  0
 12 14  1  0
 12 15  1  0
 15 16  2  0
 16 17  1  0
 16 18  1  0
 18 19  1  0
 18 20  2  0
 20 21  1  0
 20 22  1  0
 22 23  1  0
 22 24  2  0
 24 25  1  0
 25 26  1  0
 25 27  1  0
 25 28  1  0
 28 29  1  0
 28 30  1  0
 10 31  2  0
 31 32  1  0
 32 33  2  0
 33 34  1  0
 34 35  1  6
 34 36  1  0
 36 37  1  0
 36 38  1  0
 36 39  1  0
 39 40  1  0
 39 41  1  0
 39 42  1  0
 42 43  1  0
 42 44  1  0
 42 45  1  0
 45 46  1  0
 45 47  1  0
 45 48  1  0
 48 49  1  0
 48 50  1  0
 32 51  1  0
 51 52  1  0
  7 53  1  0
 53 54  1  0
 53 55  2  0
 55 56  1  0
 55  2  1  0
 51  8  1  0
 28 11  1  0
 48 34  1  0
 24 15  1  0
M  CHG  2  45   1  54  -1
M  END
>  <UniqueID>  (8) 
482

>  <SMILES>  (8) 
[O-]c1ccccc1-c1nc(N2CCc3ccccc3C2)n/c(=N\[C@@H]2CCC[NH2+]C2)[nH]1

>  <Energy>  (8) 
72.06465786596509

>  <Genealogy>  (8) 
[O-]c1ccccc1-c1nc(NC2CCC[NH2+]C2)nc(N2CCc3ccccc3C2)n1 (protonated)
[O-]c1ccccc1-c1nc(N2CCc3ccccc3C2)nc(=NC2CCC[NH2+]C2)[nH]1 (tautomer)
[O-]c1ccccc1-c1nc(N2CCc3ccccc3C2)nc(=N[C@@H]2CCC[NH2+]C2)[nH]1 (chirality)
[O-]c1ccccc1-c1nc(N2CCc3ccccc3C2)n/c(=N\[C@@H]2CCC[NH2+]C2)[nH]1 (cis-trans isomerization)
[O-]c1ccccc1-c1nc(N2CCc3ccccc3C2)n/c(=N\[C@@H]2CCC[NH2+]C2)[nH]1 (3D coordinates assigned)
[O-]c1ccccc1-c1nc(N2CCc3ccccc3C2)n/c(=N\[C@@H]2CCC[NH2+]C2)[nH]1 (nonaromatic ring conformer: 72.06465786596509 kcal/mol)

>  <smiles>  (8) 
Oc1ccccc1-c1nc(NC2CCCNC2)nc(N2CCc3ccccc3C2)n1

>  <score_type>  (8) 
oracle

>  <origin>  (8) 
autodockgpu

>  <m_score__min__energy>  (8) 
-7.8700000000000001

>  <m_primary>  (8) 
energy

>  <meeko>  (8) 
{"free_energy": -7.82, "intermolecular_energy": -9.01, "internal_energy": -2.3, "cluster_size": 12, "cluster_id": 1, "rank_in_cluster": 11}

>  <energy>  (8) 
-7.84

>  <cluster_rmsd>  (8) 
0.1

>  <rmsd>  (8) 
270.15

>  <cluster>  (8) 
1

$$$$
UQJJBYVBPBMERE-AOLYHIHGNA-N
     RDKit          3D

 56 60  0  0  0  0  0  0  0  0999 V2000
  146.4910   71.7802  218.5241 H   0  0  0  0  0  0  0  0  0  0  0  0
  145.5610   72.0380  219.0520 C   0  0  0  0  0  0  0  0  0  0  0  0
  144.7790   71.0310  219.6230 C   0  0  0  0  0  0  0  0  0  0  0  0
  145.1001   69.9812  219.5536 H   0  0  0  0  0  0  0  0  0  0  0  0
  143.5900   71.3540  220.2820 C   0  0  0  0  0  0  0  0  0  0  0  0
  142.9820   70.5566  220.7343 H   0  0  0  0  0  0  0  0  0  0  0  0
  143.1650   72.6930  220.3710 C   0  0  0  0  0  0  0  0  0  0  0  0
  141.8990   73.0030  221.0750 C   0  0  0  0  0  0  0  0  0  0  0  0
  141.4450   72.1520  222.0300 N   0  0  0  0  0  0  0  0  0  0  0  0
  140.2870   72.4010  222.6940 C   0  0  0  0  0  0  0  0  0  0  0  0
  139.8070   71.4780  223.6950 N   0  0  0  0  0  0  0  0  0  0  0  0
  140.3750   71.5150  225.0500 C   0  0  0  0  0  0  0  0  0  0  0  0
  139.8725   72.3094  225.6213 H   0  0  0  0  0  0  0  0  0  0  0  0
  141.4542   71.7054  224.9543 H   0  0  0  0  0  0  0  0  0  0  0  0
  140.2040   70.2060  225.7870 C   0  0  0  0  0  0  0  0  0  0  0  0
  140.7960   70.0590  227.0540 C   0  0  0  0  0  0  0  0  0  0  0  0
  141.3723   70.8901  227.4868 H   0  0  0  0  0  0  0  0  0  0  0  0
  140.6580   68.8650  227.7680 C   0  0  0  0  0  0  0  0  0  0  0  0
  141.1257   68.7594  228.7580 H   0  0  0  0  0  0  0  0  0  0  0  0
  139.9280   67.8080  227.2260 C   0  0  0  0  0  0  0  0  0  0  0  0
  139.8230   66.8679  227.7873 H   0  0  0  0  0  0  0  0  0  0  0  0
  139.3290   67.9420  225.9690 C   0  0  0  0  0  0  0  0  0  0  0  0
  138.7608   67.1023  225.5424 H   0  0  0  0  0  0  0  0  0  0  0  0
  139.4480   69.1410  225.2480 C   0  0  0  0  0  0  0  0  0  0  0  0
  138.8580   69.2310  223.8660 C   0  0  0  0  0  0  0  0  0  0  0  0
  137.9077   68.6773  223.8459 H   0  0  0  0  0  0  0  0  0  0  0  0
  139.5769   68.7991  223.1542 H   0  0  0  0  0  0  0  0  0  0  0  0
  138.5970   70.6790  223.4650 C   0  0  0  0  0  0  0  0  0  0  0  0
  137.7709   71.0831  224.0686 H   0  0  0  0  0  0  0  0  0  0  0  0
  138.3280   70.7207  222.3992 H   0  0  0  0  0  0  0  0  0  0  0  0
  139.5760   73.5160  222.3880 N   0  0  0  0  0  0  0  0  0  0  0  0
  140.0080   74.3720  221.4230 C   0  0  0  0  0  0  0  0  0  0  0  0
  139.3210   75.4350  221.1220 N   0  0  0  0  0  0  0  0  0  0  0  0
  139.8950   76.7600  220.8640 C   0  0  2  0  0  0  0  0  0  0  0  0
  139.3900   77.5169  221.4822 H   0  0  0  0  0  0  0  0  0  0  0  0
  139.6790   77.1270  219.3810 C   0  0  0  0  0  0  0  0  0  0  0  0
  138.7501   76.6564  219.0267 H   0  0  0  0  0  0  0  0  0  0  0  0
  139.6151   78.2221  219.2992 H   0  0  0  0  0  0  0  0  0  0  0  0
  140.8450   76.6440  218.5150 C   0  0  0  0  0  0  0  0  0  0  0  0
  140.9019   75.5469  218.5717 H   0  0  0  0  0  0  0  0  0  0  0  0
  140.6667   76.9738  217.4809 H   0  0  0  0  0  0  0  0  0  0  0  0
  142.1890   77.2420  218.9900 C   0  0  0  0  0  0  0  0  0  0  0  0
  142.9697   76.4746  218.8820 H   0  0  0  0  0  0  0  0  0  0  0  0
  142.3881   78.1277  218.3689 H   0  0  0  0  0  0  0  0  0  0  0  0
  142.1660   77.6920  220.3970 N   0  0  0  0  0  0  0  0  0  0  0  0
  143.1500   77.7410  220.7530 H   0  0  0  0  0  0  0  0  0  0  0  0
  141.7550   78.6540  220.4570 H   0  0  0  0  0  0  0  0  0  0  0  0
  141.3970   76.7770  221.2530 C   0  0  0  0  0  0  0  0  0  0  0  0
  141.8050   75.7610  221.1470 H   0  0  0  0  0  0  0  0  0  0  0  0
  141.4798   77.1263  222.2928 H   0  0  0  0  0  0  0  0  0  0  0  0
  141.1660   74.1090  220.7590 N   0  0  0  0  0  0  0  0  0  0  0  0
  141.4700   74.7450  219.9870 H   0  0  0  0  0  0  0  0  0  0  0  0
  143.9770   73.7070  219.8170 C   0  0  0  0  0  0  0  0  0  0  0  0
  143.6360   75.0500  219.9470 O   0  0  0  0  0  0  0  0  0  0  0  0
  145.1610   73.3720  219.1520 C   0  0  0  0  0  0  0  0  0  0  0  0
  145.7804   74.1638  218.7054 H   0  0  0  0  0  0  0  0  0  0  0  0
  1  2  1  0
  2  3  2  0
  3  4  1  0
  3  5  1  0
  5  6  1  0
  5  7  2  0
  7  8  1  0
  8  9  2  0
  9 10  1  0
 10 11  1  0
 11 12  1  0
 12 13  1  0
 12 14  1  0
 12 15  1  0
 15 16  2  0
 16 17  1  0
 16 18  1  0
 18 19  1  0
 18 20  2  0
 20 21  1  0
 20 22  1  0
 22 23  1  0
 22 24  2  0
 24 25  1  0
 25 26  1  0
 25 27  1  0
 25 28  1  0
 28 29  1  0
 28 30  1  0
 10 31  2  0
 31 32  1  0
 32 33  2  0
 33 34  1  0
 34 35  1  1
 34 36  1  0
 36 37  1  0
 36 38  1  0
 36 39  1  0
 39 40  1  0
 39 41  1  0
 39 42  1  0
 42 43  1  0
 42 44  1  0
 42 45  1  0
 45 46  1  0
 45 47  1  0
 45 48  1  0
 48 49  1  0
 48 50  1  0
 32 51  1  0
 51 52  1  0
  7 53  1  0
 53 54  1  0
 53 55  2  0
 55 56  1  0
 55  2  1  0
 51  8  1  0
 28 11  1  0
 48 34  1  0
 24 15  1  0
M  CHG  2  45   1  54  -1
M  END
>  <UniqueID>  (9) 
482

>  <SMILES>  (9) 
[O-]c1ccccc1-c1nc(N2CCc3ccccc3C2)n/c(=N\[C@@H]2CCC[NH2+]C2)[nH]1

>  <Energy>  (9) 
72.06465786596509

>  <Genealogy>  (9) 
[O-]c1ccccc1-c1nc(NC2CCC[NH2+]C2)nc(N2CCc3ccccc3C2)n1 (protonated)
[O-]c1ccccc1-c1nc(N2CCc3ccccc3C2)nc(=NC2CCC[NH2+]C2)[nH]1 (tautomer)
[O-]c1ccccc1-c1nc(N2CCc3ccccc3C2)nc(=N[C@@H]2CCC[NH2+]C2)[nH]1 (chirality)
[O-]c1ccccc1-c1nc(N2CCc3ccccc3C2)n/c(=N\[C@@H]2CCC[NH2+]C2)[nH]1 (cis-trans isomerization)
[O-]c1ccccc1-c1nc(N2CCc3ccccc3C2)n/c(=N\[C@@H]2CCC[NH2+]C2)[nH]1 (3D coordinates assigned)
[O-]c1ccccc1-c1nc(N2CCc3ccccc3C2)n/c(=N\[C@@H]2CCC[NH2+]C2)[nH]1 (nonaromatic ring conformer: 72.06465786596509 kcal/mol)

>  <smiles>  (9) 
Oc1ccccc1-c1nc(NC2CCCNC2)nc(N2CCc3ccccc3C2)n1

>  <score_type>  (9) 
oracle

>  <origin>  (9) 
autodockgpu

>  <m_score__min__energy>  (9) 
-7.8700000000000001

>  <m_primary>  (9) 
energy

>  <meeko>  (9) 
{"free_energy": -7.79, "intermolecular_energy": -8.99, "internal_energy": -2.28, "cluster_size": 8, "cluster_id": 2, "rank_in_cluster": 6}

>  <energy>  (9) 
-7.84

>  <cluster_rmsd>  (9) 
0.33

>  <rmsd>  (9) 
270.14

>  <cluster>  (9) 
1

$$$$
UQJJBYVBPBMERE-AOLYHIHGNA-N
     RDKit          3D

 56 60  0  0  0  0  0  0  0  0999 V2000
  139.9653   79.4589  221.7855 H   0  0  0  0  0  0  0  0  0  0  0  0
  140.1190   78.3710  221.7320 C   0  0  0  0  0  0  0  0  0  0  0  0
  139.2850   77.5110  222.4520 C   0  0  0  0  0  0  0  0  0  0  0  0
  138.4668   77.9227  223.0611 H   0  0  0  0  0  0  0  0  0  0  0  0
  139.4880   76.1300  222.4000 C   0  0  0  0  0  0  0  0  0  0  0  0
  138.8255   75.4586  222.9659 H   0  0  0  0  0  0  0  0  0  0  0  0
  140.5350   75.5920  221.6280 C   0  0  0  0  0  0  0  0  0  0  0  0
  140.7250   74.1230  221.5930 C   0  0  0  0  0  0  0  0  0  0  0  0
  140.2960   73.3730  222.6400 N   0  0  0  0  0  0  0  0  0  0  0  0
  140.4570   72.0250  222.6460 C   0  0  0  0  0  0  0  0  0  0  0  0
  140.0130   71.2420  223.7740 N   0  0  0  0  0  0  0  0  0  0  0  0
  140.5520   71.5250  225.1130 C   0  0  0  0  0  0  0  0  0  0  0  0
  139.9926   72.3665  225.5476 H   0  0  0  0  0  0  0  0  0  0  0  0
  141.6197   71.7641  224.9994 H   0  0  0  0  0  0  0  0  0  0  0  0
  140.4440   70.3390  226.0440 C   0  0  0  0  0  0  0  0  0  0  0  0
  141.0190   70.4270  227.3230 C   0  0  0  0  0  0  0  0  0  0  0  0
  141.5381   71.3485  227.6253 H   0  0  0  0  0  0  0  0  0  0  0  0
  140.9370   69.3530  228.2150 C   0  0  0  0  0  0  0  0  0  0  0  0
  141.3909   69.4316  229.2139 H   0  0  0  0  0  0  0  0  0  0  0  0
  140.2800   68.1830  227.8380 C   0  0  0  0  0  0  0  0  0  0  0  0
  140.2187   67.3376  228.5390 H   0  0  0  0  0  0  0  0  0  0  0  0
  139.6990   68.0820  226.5710 C   0  0  0  0  0  0  0  0  0  0  0  0
  139.1894   67.1527  226.2766 H   0  0  0  0  0  0  0  0  0  0  0  0
  139.7610   69.1580  225.6710 C   0  0  0  0  0  0  0  0  0  0  0  0
  139.1930   68.9960  224.2860 C   0  0  0  0  0  0  0  0  0  0  0  0
  138.2770   68.3897  224.3435 H   0  0  0  0  0  0  0  0  0  0  0  0
  139.9490   68.5027  223.6574 H   0  0  0  0  0  0  0  0  0  0  0  0
  138.8560   70.3460  223.6610 C   0  0  0  0  0  0  0  0  0  0  0  0
  137.9971   70.7888  224.1865 H   0  0  0  0  0  0  0  0  0  0  0  0
  138.6046   70.2052  222.5994 H   0  0  0  0  0  0  0  0  0  0  0  0
  141.0610   71.4270  221.5880 N   0  0  0  0  0  0  0  0  0  0  0  0
  141.5110   72.1640  220.5370 C   0  0  0  0  0  0  0  0  0  0  0  0
  142.1000   71.5920  219.5270 N   0  0  0  0  0  0  0  0  0  0  0  0
  143.4040   71.9850  218.9830 C   0  0  2  0  0  0  0  0  0  0  0  0
  143.6236   71.4060  218.0738 H   0  0  0  0  0  0  0  0  0  0  0  0
  144.5020   71.6810  220.0240 C   0  0  0  0  0  0  0  0  0  0  0  0
  144.1979   70.8094  220.6223 H   0  0  0  0  0  0  0  0  0  0  0  0
  145.4415   71.4758  219.4899 H   0  0  0  0  0  0  0  0  0  0  0  0
  144.7250   72.8740  220.9570 C   0  0  0  0  0  0  0  0  0  0  0  0
  143.7964   73.0718  221.5124 H   0  0  0  0  0  0  0  0  0  0  0  0
  145.5472   72.6255  221.6442 H   0  0  0  0  0  0  0  0  0  0  0  0
  145.1190   74.1440  220.1690 C   0  0  0  0  0  0  0  0  0  0  0  0
  144.6423   75.0128  220.6464 H   0  0  0  0  0  0  0  0  0  0  0  0
  146.2168   74.2108  220.1873 H   0  0  0  0  0  0  0  0  0  0  0  0
  144.7070   74.1040  218.7500 N   0  0  0  0  0  0  0  0  0  0  0  0
  144.6700   75.0840  218.3820 H   0  0  0  0  0  0  0  0  0  0  0  0
  145.4160   73.5770  218.1880 H   0  0  0  0  0  0  0  0  0  0  0  0
  143.3850   73.4840  218.5810 C   0  0  0  0  0  0  0  0  0  0  0  0
  142.6580   74.0145  219.2135 H   0  0  0  0  0  0  0  0  0  0  0  0
  143.1046   73.5531  217.5196 H   0  0  0  0  0  0  0  0  0  0  0  0
  141.3520   73.5150  220.5450 N   0  0  0  0  0  0  0  0  0  0  0  0
  141.7400   74.0820  219.7570 H   0  0  0  0  0  0  0  0  0  0  0  0
  141.3530   76.4660  220.8790 C   0  0  0  0  0  0  0  0  0  0  0  0
  142.3510   75.9760  220.0430 O   0  0  0  0  0  0  0  0  0  0  0  0
  141.1470   77.8490  220.9450 C   0  0  0  0  0  0  0  0  0  0  0  0
  141.7981   78.5274  220.3742 H   0  0  0  0  0  0  0  0  0  0  0  0
  1  2  1  0
  2  3  2  0
  3  4  1  0
  3  5  1  0
  5  6  1  0
  5  7  2  0
  7  8  1  0
  8  9  2  0
  9 10  1  0
 10 11  1  0
 11 12  1  0
 12 13  1  0
 12 14  1  0
 12 15  1  0
 15 16  2  0
 16 17  1  0
 16 18  1  0
 18 19  1  0
 18 20  2  0
 20 21  1  0
 20 22  1  0
 22 23  1  0
 22 24  2  0
 24 25  1  0
 25 26  1  0
 25 27  1  0
 25 28  1  0
 28 29  1  0
 28 30  1  0
 10 31  2  0
 31 32  1  0
 32 33  2  0
 33 34  1  0
 34 35  1  6
 34 36  1  0
 36 37  1  0
 36 38  1  0
 36 39  1  0
 39 40  1  0
 39 41  1  0
 39 42  1  0
 42 43  1  0
 42 44  1  0
 42 45  1  0
 45 46  1  0
 45 47  1  0
 45 48  1  0
 48 49  1  0
 48 50  1  0
 32 51  1  0
 51 52  1  0
  7 53  1  0
 53 54  1  0
 53 55  2  0
 55 56  1  0
 55  2  1  0
 51  8  1  0
 28 11  1  0
 48 34  1  0
 24 15  1  0
M  CHG  2  45   1  54  -1
M  END
>  <UniqueID>  (10) 
482

>  <SMILES>  (10) 
[O-]c1ccccc1-c1nc(N2CCc3ccccc3C2)n/c(=N\[C@@H]2CCC[NH2+]C2)[nH]1

>  <Energy>  (10) 
72.06465786596509

>  <Genealogy>  (10) 
[O-]c1ccccc1-c1nc(NC2CCC[NH2+]C2)nc(N2CCc3ccccc3C2)n1 (protonated)
[O-]c1ccccc1-c1nc(N2CCc3ccccc3C2)nc(=NC2CCC[NH2+]C2)[nH]1 (tautomer)
[O-]c1ccccc1-c1nc(N2CCc3ccccc3C2)nc(=N[C@@H]2CCC[NH2+]C2)[nH]1 (chirality)
[O-]c1ccccc1-c1nc(N2CCc3ccccc3C2)n/c(=N\[C@@H]2CCC[NH2+]C2)[nH]1 (cis-trans isomerization)
[O-]c1ccccc1-c1nc(N2CCc3ccccc3C2)n/c(=N\[C@@H]2CCC[NH2+]C2)[nH]1 (3D coordinates assigned)
[O-]c1ccccc1-c1nc(N2CCc3ccccc3C2)n/c(=N\[C@@H]2CCC[NH2+]C2)[nH]1 (nonaromatic ring conformer: 72.06465786596509 kcal/mol)

>  <smiles>  (10) 
Oc1ccccc1-c1nc(NC2CCCNC2)nc(N2CCc3ccccc3C2)n1

>  <score_type>  (10) 
oracle

>  <origin>  (10) 
autodockgpu

>  <m_score__min__energy>  (10) 
-7.8700000000000001

>  <m_primary>  (10) 
energy

>  <meeko>  (10) 
{"free_energy": -7.85, "intermolecular_energy": -9.04, "internal_energy": -2.29, "cluster_size": 12, "cluster_id": 1, "rank_in_cluster": 4}

>  <energy>  (10) 
-7.84

>  <cluster_rmsd>  (10) 
0.34

>  <rmsd>  (10) 
270.12

>  <cluster>  (10) 
1

$$$$
UQJJBYVBPBMERE-AOLYHIHGNA-N
     RDKit          3D

 56 60  0  0  0  0  0  0  0  0999 V2000
  146.3779   70.9641  218.1714 H   0  0  0  0  0  0  0  0  0  0  0  0
  145.5060   71.3180  218.7410 C   0  0  0  0  0  0  0  0  0  0  0  0
  144.6860   70.4020  219.4050 C   0  0  0  0  0  0  0  0  0  0  0  0
  144.9210   69.3280  219.3676 H   0  0  0  0  0  0  0  0  0  0  0  0
  143.5690   70.8460  220.1160 C   0  0  0  0  0  0  0  0  0  0  0  0
  142.9306   70.1196  220.6402 H   0  0  0  0  0  0  0  0  0  0  0  0
  143.2550   72.2170  220.1660 C   0  0  0  0  0  0  0  0  0  0  0  0
  142.0630   72.6580  220.9280 C   0  0  0  0  0  0  0  0  0  0  0  0
  141.6180   71.8980  221.9610 N   0  0  0  0  0  0  0  0  0  0  0  0
  140.5260   72.2680  222.6800 C   0  0  0  0  0  0  0  0  0  0  0  0
  140.0540   71.4420  223.7650 N   0  0  0  0  0  0  0  0  0  0  0  0
  140.6110   71.6230  225.1130 C   0  0  0  0  0  0  0  0  0  0  0  0
  140.0915   72.4620  225.5990 H   0  0  0  0  0  0  0  0  0  0  0  0
  141.6877   71.8201  225.0045 H   0  0  0  0  0  0  0  0  0  0  0  0
  140.4560   70.3920  225.9770 C   0  0  0  0  0  0  0  0  0  0  0  0
  141.0410   70.3810  227.2550 C   0  0  0  0  0  0  0  0  0  0  0  0
  141.6020   71.2599  227.6056 H   0  0  0  0  0  0  0  0  0  0  0  0
  140.9160   69.2630  228.0840 C   0  0  0  0  0  0  0  0  0  0  0  0
  141.3772   69.2649  229.0827 H   0  0  0  0  0  0  0  0  0  0  0  0
  140.2070   68.1450  227.6460 C   0  0  0  0  0  0  0  0  0  0  0  0
  140.1126   67.2640  228.2978 H   0  0  0  0  0  0  0  0  0  0  0  0
  139.6160   68.1430  226.3790 C   0  0  0  0  0  0  0  0  0  0  0  0
  139.0645   67.2554  226.0354 H   0  0  0  0  0  0  0  0  0  0  0  0
  139.7210   69.2650  225.5420 C   0  0  0  0  0  0  0  0  0  0  0  0
  139.1400   69.2080  224.1540 C   0  0  0  0  0  0  0  0  0  0  0  0
  138.1988   68.6395  224.1834 H   0  0  0  0  0  0  0  0  0  0  0  0
  139.8714   68.7199  223.4931 H   0  0  0  0  0  0  0  0  0  0  0  0
  138.8590   70.6040  223.6090 C   0  0  0  0  0  0  0  0  0  0  0  0
  138.0221   71.0524  224.1644 H   0  0  0  0  0  0  0  0  0  0  0  0
  138.5975   70.5346  222.5428 H   0  0  0  0  0  0  0  0  0  0  0  0
  139.8730   73.4110  222.3500 N   0  0  0  0  0  0  0  0  0  0  0  0
  140.2960   74.1760  221.3080 C   0  0  0  0  0  0  0  0  0  0  0  0
  139.6640   75.2660  220.9840 N   0  0  0  0  0  0  0  0  0  0  0  0
  140.3060   76.5200  220.5760 C   0  0  2  0  0  0  0  0  0  0  0  0
  139.9146   77.3560  221.1743 H   0  0  0  0  0  0  0  0  0  0  0  0
  139.9840   76.7980  219.0930 C   0  0  0  0  0  0  0  0  0  0  0  0
  138.9948   76.3793  218.8562 H   0  0  0  0  0  0  0  0  0  0  0  0
  139.9933   77.8862  218.9329 H   0  0  0  0  0  0  0  0  0  0  0  0
  141.0280   76.1640  218.1710 C   0  0  0  0  0  0  0  0  0  0  0  0
  141.0100   75.0727  218.3077 H   0  0  0  0  0  0  0  0  0  0  0  0
  140.7809   76.4327  217.1334 H   0  0  0  0  0  0  0  0  0  0  0  0
  142.4500   76.6860  218.4820 C   0  0  0  0  0  0  0  0  0  0  0  0
  143.1600   75.8537  218.3672 H   0  0  0  0  0  0  0  0  0  0  0  0
  142.6559   77.5072  217.7796 H   0  0  0  0  0  0  0  0  0  0  0  0
  142.5870   77.2340  219.8470 N   0  0  0  0  0  0  0  0  0  0  0  0
  143.6000   77.2300  220.1130 H   0  0  0  0  0  0  0  0  0  0  0  0
  142.2540   78.2270  219.8670 H   0  0  0  0  0  0  0  0  0  0  0  0
  141.8350   76.4450  220.8330 C   0  0  0  0  0  0  0  0  0  0  0  0
  142.1567   75.3949  220.7707 H   0  0  0  0  0  0  0  0  0  0  0  0
  142.0374   76.8583  221.8321 H   0  0  0  0  0  0  0  0  0  0  0  0
  141.3860   73.7930  220.5890 N   0  0  0  0  0  0  0  0  0  0  0  0
  141.6790   74.3590  219.7610 H   0  0  0  0  0  0  0  0  0  0  0  0
  144.1060   73.1390  219.5180 C   0  0  0  0  0  0  0  0  0  0  0  0
  143.8780   74.5090  219.6020 O   0  0  0  0  0  0  0  0  0  0  0  0
  145.2180   72.6820  218.8010 C   0  0  0  0  0  0  0  0  0  0  0  0
  145.8681   73.4018  218.2822 H   0  0  0  0  0  0  0  0  0  0  0  0
  1  2  1  0
  2  3  2  0
  3  4  1  0
  3  5  1  0
  5  6  1  0
  5  7  2  0
  7  8  1  0
  8  9  2  0
  9 10  1  0
 10 11  1  0
 11 12  1  0
 12 13  1  0
 12 14  1  0
 12 15  1  0
 15 16  2  0
 16 17  1  0
 16 18  1  0
 18 19  1  0
 18 20  2  0
 20 21  1  0
 20 22  1  0
 22 23  1  0
 22 24  2  0
 24 25  1  0
 25 26  1  0
 25 27  1  0
 25 28  1  0
 28 29  1  0
 28 30  1  0
 10 31  2  0
 31 32  1  0
 32 33  2  0
 33 34  1  0
 34 35  1  1
 34 36  1  0
 36 37  1  0
 36 38  1  0
 36 39  1  0
 39 40  1  0
 39 41  1  0
 39 42  1  0
 42 43  1  0
 42 44  1  0
 42 45  1  0
 45 46  1  0
 45 47  1  0
 45 48  1  0
 48 49  1  0
 48 50  1  0
 32 51  1  0
 51 52  1  0
  7 53  1  0
 53 54  1  0
 53 55  2  0
 55 56  1  0
 55  2  1  0
 51  8  1  0
 28 11  1  0
 48 34  1  0
 24 15  1  0
M  CHG  2  45   1  54  -1
M  END
>  <UniqueID>  (11) 
482

>  <SMILES>  (11) 
[O-]c1ccccc1-c1nc(N2CCc3ccccc3C2)n/c(=N\[C@@H]2CCC[NH2+]C2)[nH]1

>  <Energy>  (11) 
72.06465786596509

>  <Genealogy>  (11) 
[O-]c1ccccc1-c1nc(NC2CCC[NH2+]C2)nc(N2CCc3ccccc3C2)n1 (protonated)
[O-]c1ccccc1-c1nc(N2CCc3ccccc3C2)nc(=NC2CCC[NH2+]C2)[nH]1 (tautomer)
[O-]c1ccccc1-c1nc(N2CCc3ccccc3C2)nc(=N[C@@H]2CCC[NH2+]C2)[nH]1 (chirality)
[O-]c1ccccc1-c1nc(N2CCc3ccccc3C2)n/c(=N\[C@@H]2CCC[NH2+]C2)[nH]1 (cis-trans isomerization)
[O-]c1ccccc1-c1nc(N2CCc3ccccc3C2)n/c(=N\[C@@H]2CCC[NH2+]C2)[nH]1 (3D coordinates assigned)
[O-]c1ccccc1-c1nc(N2CCc3ccccc3C2)n/c(=N\[C@@H]2CCC[NH2+]C2)[nH]1 (nonaromatic ring conformer: 72.06465786596509 kcal/mol)

>  <smiles>  (11) 
Oc1ccccc1-c1nc(NC2CCCNC2)nc(N2CCc3ccccc3C2)n1

>  <score_type>  (11) 
oracle

>  <origin>  (11) 
autodockgpu

>  <m_score__min__energy>  (11) 
-7.8700000000000001

>  <m_primary>  (11) 
energy

>  <meeko>  (11) 
{"free_energy": -7.82, "intermolecular_energy": -9.01, "internal_energy": -2.27, "cluster_size": 8, "cluster_id": 2, "rank_in_cluster": 2}

>  <energy>  (11) 
-7.82

>  <cluster_rmsd>  (11) 
0.13

>  <rmsd>  (11) 
270.14

>  <cluster>  (11) 
1

$$$$
UQJJBYVBPBMERE-AOLYHIHGNA-N
     RDKit          3D

 56 60  0  0  0  0  0  0  0  0999 V2000
  139.9765   79.4545  221.7733 H   0  0  0  0  0  0  0  0  0  0  0  0
  140.1330   78.3670  221.7210 C   0  0  0  0  0  0  0  0  0  0  0  0
  139.2940   77.5060  222.4320 C   0  0  0  0  0  0  0  0  0  0  0  0
  138.4710   77.9161  223.0357 H   0  0  0  0  0  0  0  0  0  0  0  0
  139.4980   76.1240  222.3780 C   0  0  0  0  0  0  0  0  0  0  0  0
  138.8296   75.4507  222.9347 H   0  0  0  0  0  0  0  0  0  0  0  0
  140.5530   75.5890  221.6160 C   0  0  0  0  0  0  0  0  0  0  0  0
  140.7440   74.1200  221.5790 C   0  0  0  0  0  0  0  0  0  0  0  0
  140.3180   73.3690  222.6270 N   0  0  0  0  0  0  0  0  0  0  0  0
  140.4800   72.0210  222.6320 C   0  0  0  0  0  0  0  0  0  0  0  0
  140.0390   71.2370  223.7600 N   0  0  0  0  0  0  0  0  0  0  0  0
  140.5900   71.5100  225.0950 C   0  0  0  0  0  0  0  0  0  0  0  0
  140.0407   72.3544  225.5370 H   0  0  0  0  0  0  0  0  0  0  0  0
  141.6588   71.7403  224.9737 H   0  0  0  0  0  0  0  0  0  0  0  0
  140.4800   70.3220  226.0230 C   0  0  0  0  0  0  0  0  0  0  0  0
  141.0660   70.4000  227.2980 C   0  0  0  0  0  0  0  0  0  0  0  0
  141.5947   71.3162  227.5997 H   0  0  0  0  0  0  0  0  0  0  0  0
  140.9830   69.3240  228.1860 C   0  0  0  0  0  0  0  0  0  0  0  0
  141.4455   69.3955  229.1815 H   0  0  0  0  0  0  0  0  0  0  0  0
  140.3140   68.1600  227.8100 C   0  0  0  0  0  0  0  0  0  0  0  0
  140.2516   67.3126  228.5085 H   0  0  0  0  0  0  0  0  0  0  0  0
  139.7220   68.0680  226.5460 C   0  0  0  0  0  0  0  0  0  0  0  0
  139.2029   67.1439  226.2517 H   0  0  0  0  0  0  0  0  0  0  0  0
  139.7860   69.1480  225.6500 C   0  0  0  0  0  0  0  0  0  0  0  0
  139.2060   68.9950  224.2700 C   0  0  0  0  0  0  0  0  0  0  0  0
  138.2856   68.3959  224.3330 H   0  0  0  0  0  0  0  0  0  0  0  0
  139.9528   68.4974  223.6338 H   0  0  0  0  0  0  0  0  0  0  0  0
  138.8750   70.3500  223.6520 C   0  0  0  0  0  0  0  0  0  0  0  0
  138.0230   70.7973  224.1849 H   0  0  0  0  0  0  0  0  0  0  0  0
  138.6156   70.2147  222.5916 H   0  0  0  0  0  0  0  0  0  0  0  0
  141.0830   71.4240  221.5720 N   0  0  0  0  0  0  0  0  0  0  0  0
  141.5300   72.1620  220.5210 C   0  0  0  0  0  0  0  0  0  0  0  0
  142.1190   71.5920  219.5100 N   0  0  0  0  0  0  0  0  0  0  0  0
  143.4220   71.9860  218.9650 C   0  0  2  0  0  0  0  0  0  0  0  0
  143.6423   71.4052  218.0572 H   0  0  0  0  0  0  0  0  0  0  0  0
  144.5200   71.6860  220.0060 C   0  0  0  0  0  0  0  0  0  0  0  0
  144.2173   70.8154  220.6064 H   0  0  0  0  0  0  0  0  0  0  0  0
  145.4598   71.4806  219.4725 H   0  0  0  0  0  0  0  0  0  0  0  0
  144.7410   72.8820  220.9360 C   0  0  0  0  0  0  0  0  0  0  0  0
  143.8120   73.0796  221.4908 H   0  0  0  0  0  0  0  0  0  0  0  0
  145.5637   72.6366  221.6237 H   0  0  0  0  0  0  0  0  0  0  0  0
  145.1330   74.1510  220.1450 C   0  0  0  0  0  0  0  0  0  0  0  0
  144.6549   75.0202  220.6204 H   0  0  0  0  0  0  0  0  0  0  0  0
  146.2307   74.2197  220.1632 H   0  0  0  0  0  0  0  0  0  0  0  0
  144.7210   74.1070  218.7260 N   0  0  0  0  0  0  0  0  0  0  0  0
  144.6820   75.0860  218.3550 H   0  0  0  0  0  0  0  0  0  0  0  0
  145.4310   73.5790  218.1650 H   0  0  0  0  0  0  0  0  0  0  0  0
  143.4010   73.4830  218.5580 C   0  0  0  0  0  0  0  0  0  0  0  0
  142.6721   74.0141  219.1878 H   0  0  0  0  0  0  0  0  0  0  0  0
  143.1223   73.5473  217.4958 H   0  0  0  0  0  0  0  0  0  0  0  0
  141.3700   73.5140  220.5300 N   0  0  0  0  0  0  0  0  0  0  0  0
  141.7560   74.0810  219.7420 H   0  0  0  0  0  0  0  0  0  0  0  0
  141.3770   76.4650  220.8760 C   0  0  0  0  0  0  0  0  0  0  0  0
  142.3840   75.9770  220.0490 O   0  0  0  0  0  0  0  0  0  0  0  0
  141.1700   77.8480  220.9440 C   0  0  0  0  0  0  0  0  0  0  0  0
  141.8273   78.5284  220.3828 H   0  0  0  0  0  0  0  0  0  0  0  0
  1  2  1  0
  2  3  2  0
  3  4  1  0
  3  5  1  0
  5  6  1  0
  5  7  2  0
  7  8  1  0
  8  9  2  0
  9 10  1  0
 10 11  1  0
 11 12  1  0
 12 13  1  0
 12 14  1  0
 12 15  1  0
 15 16  2  0
 16 17  1  0
 16 18  1  0
 18 19  1  0
 18 20  2  0
 20 21  1  0
 20 22  1  0
 22 23  1  0
 22 24  2  0
 24 25  1  0
 25 26  1  0
 25 27  1  0
 25 28  1  0
 28 29  1  0
 28 30  1  0
 10 31  2  0
 31 32  1  0
 32 33  2  0
 33 34  1  0
 34 35  1  6
 34 36  1  0
 36 37  1  0
 36 38  1  0
 36 39  1  0
 39 40  1  0
 39 41  1  0
 39 42  1  0
 42 43  1  0
 42 44  1  0
 42 45  1  0
 45 46  1  0
 45 47  1  0
 45 48  1  0
 48 49  1  0
 48 50  1  0
 32 51  1  0
 51 52  1  0
  7 53  1  0
 53 54  1  0
 53 55  2  0
 55 56  1  0
 55  2  1  0
 51  8  1  0
 28 11  1  0
 48 34  1  0
 24 15  1  0
M  CHG  2  45   1  54  -1
M  END
>  <UniqueID>  (12) 
482

>  <SMILES>  (12) 
[O-]c1ccccc1-c1nc(N2CCc3ccccc3C2)n/c(=N\[C@@H]2CCC[NH2+]C2)[nH]1

>  <Energy>  (12) 
72.06465786596509

>  <Genealogy>  (12) 
[O-]c1ccccc1-c1nc(NC2CCC[NH2+]C2)nc(N2CCc3ccccc3C2)n1 (protonated)
[O-]c1ccccc1-c1nc(N2CCc3ccccc3C2)nc(=NC2CCC[NH2+]C2)[nH]1 (tautomer)
[O-]c1ccccc1-c1nc(N2CCc3ccccc3C2)nc(=N[C@@H]2CCC[NH2+]C2)[nH]1 (chirality)
[O-]c1ccccc1-c1nc(N2CCc3ccccc3C2)n/c(=N\[C@@H]2CCC[NH2+]C2)[nH]1 (cis-trans isomerization)
[O-]c1ccccc1-c1nc(N2CCc3ccccc3C2)n/c(=N\[C@@H]2CCC[NH2+]C2)[nH]1 (3D coordinates assigned)
[O-]c1ccccc1-c1nc(N2CCc3ccccc3C2)n/c(=N\[C@@H]2CCC[NH2+]C2)[nH]1 (nonaromatic ring conformer: 72.06465786596509 kcal/mol)

>  <smiles>  (12) 
Oc1ccccc1-c1nc(NC2CCCNC2)nc(N2CCc3ccccc3C2)n1

>  <score_type>  (12) 
oracle

>  <origin>  (12) 
autodockgpu

>  <m_score__min__energy>  (12) 
-7.8700000000000001

>  <m_primary>  (12) 
energy

>  <meeko>  (12) 
{"free_energy": -7.84, "intermolecular_energy": -9.04, "internal_energy": -2.29, "cluster_size": 12, "cluster_id": 1, "rank_in_cluster": 7}

>  <energy>  (12) 
-7.81

>  <cluster_rmsd>  (12) 
0.34

>  <rmsd>  (12) 
270.12

>  <cluster>  (12) 
1

$$$$
UQJJBYVBPBMERE-AOLYHIHGNA-N
     RDKit          3D

 56 60  0  0  0  0  0  0  0  0999 V2000
  139.9913   79.4705  221.7769 H   0  0  0  0  0  0  0  0  0  0  0  0
  140.1470   78.3830  221.7220 C   0  0  0  0  0  0  0  0  0  0  0  0
  139.2910   77.5180  222.4100 C   0  0  0  0  0  0  0  0  0  0  0  0
  138.4548   77.9257  222.9969 H   0  0  0  0  0  0  0  0  0  0  0  0
  139.4950   76.1370  222.3540 C   0  0  0  0  0  0  0  0  0  0  0  0
  138.8143   75.4618  222.8932 H   0  0  0  0  0  0  0  0  0  0  0  0
  140.5660   75.6040  221.6120 C   0  0  0  0  0  0  0  0  0  0  0  0
  140.7570   74.1360  221.5730 C   0  0  0  0  0  0  0  0  0  0  0  0
  140.3000   73.3790  222.6040 N   0  0  0  0  0  0  0  0  0  0  0  0
  140.4600   72.0310  222.6060 C   0  0  0  0  0  0  0  0  0  0  0  0
  139.9860   71.2410  223.7160 N   0  0  0  0  0  0  0  0  0  0  0  0
  140.4580   71.5420  225.0760 C   0  0  0  0  0  0  0  0  0  0  0  0
  139.8594   72.3710  225.4815 H   0  0  0  0  0  0  0  0  0  0  0  0
  141.5235   71.8070  225.0086 H   0  0  0  0  0  0  0  0  0  0  0  0
  140.3380   70.3570  226.0070 C   0  0  0  0  0  0  0  0  0  0  0  0
  140.8540   70.4630  227.3110 C   0  0  0  0  0  0  0  0  0  0  0  0
  141.3374   71.3976  227.6318 H   0  0  0  0  0  0  0  0  0  0  0  0
  140.7580   69.3910  228.2030 C   0  0  0  0  0  0  0  0  0  0  0  0
  141.1636   69.4846  229.2212 H   0  0  0  0  0  0  0  0  0  0  0  0
  140.1480   68.2030  227.8020 C   0  0  0  0  0  0  0  0  0  0  0  0
  140.0775   67.3581  228.5029 H   0  0  0  0  0  0  0  0  0  0  0  0
  139.6260   68.0840  226.5110 C   0  0  0  0  0  0  0  0  0  0  0  0
  139.1521   67.1418  226.1985 H   0  0  0  0  0  0  0  0  0  0  0  0
  139.7020   69.1580  225.6100 C   0  0  0  0  0  0  0  0  0  0  0  0
  139.2000   68.9770  224.2020 C   0  0  0  0  0  0  0  0  0  0  0  0
  138.2975   68.3485  224.2219 H   0  0  0  0  0  0  0  0  0  0  0  0
  139.9950   68.5002  223.6099 H   0  0  0  0  0  0  0  0  0  0  0  0
  138.8580   70.3160  223.5560 C   0  0  0  0  0  0  0  0  0  0  0  0
  137.9657   70.7392  224.0406 H   0  0  0  0  0  0  0  0  0  0  0  0
  138.6580   70.1649  222.4849 H   0  0  0  0  0  0  0  0  0  0  0  0
  141.0930   71.4390  221.5600 N   0  0  0  0  0  0  0  0  0  0  0  0
  141.5710   72.1830  220.5270 C   0  0  0  0  0  0  0  0  0  0  0  0
  142.1870   71.6170  219.5300 N   0  0  0  0  0  0  0  0  0  0  0  0
  143.5020   72.0170  219.0190 C   0  0  2  0  0  0  0  0  0  0  0  0
  143.7340   71.4608  218.0988 H   0  0  0  0  0  0  0  0  0  0  0  0
  144.5800   71.6800  220.0700 C   0  0  0  0  0  0  0  0  0  0  0  0
  144.2615   70.7942  220.6392 H   0  0  0  0  0  0  0  0  0  0  0  0
  145.5276   71.4850  219.5465 H   0  0  0  0  0  0  0  0  0  0  0  0
  144.7930   72.8460  221.0390 C   0  0  0  0  0  0  0  0  0  0  0  0
  143.8562   73.0334  221.5842 H   0  0  0  0  0  0  0  0  0  0  0  0
  145.6023   72.5748  221.7329 H   0  0  0  0  0  0  0  0  0  0  0  0
  145.2060   74.1350  220.2920 C   0  0  0  0  0  0  0  0  0  0  0  0
  144.7246   74.9929  220.7842 H   0  0  0  0  0  0  0  0  0  0  0  0
  146.3036   74.1961  220.3312 H   0  0  0  0  0  0  0  0  0  0  0  0
  144.8190   74.1350  218.8660 N   0  0  0  0  0  0  0  0  0  0  0  0
  144.7940   75.1250  218.5230 H   0  0  0  0  0  0  0  0  0  0  0  0
  145.5350   73.6190  218.3020 H   0  0  0  0  0  0  0  0  0  0  0  0
  143.4980   73.5260  218.6560 C   0  0  0  0  0  0  0  0  0  0  0  0
  142.7614   74.0436  219.2882 H   0  0  0  0  0  0  0  0  0  0  0  0
  143.2387   73.6238  217.5915 H   0  0  0  0  0  0  0  0  0  0  0  0
  141.4120   73.5340  220.5390 N   0  0  0  0  0  0  0  0  0  0  0  0
  141.8210   74.1050  219.7650 H   0  0  0  0  0  0  0  0  0  0  0  0
  141.4070   76.4830  220.8960 C   0  0  0  0  0  0  0  0  0  0  0  0
  142.4320   75.9980  220.0890 O   0  0  0  0  0  0  0  0  0  0  0  0
  141.2000   77.8650  220.9650 C   0  0  0  0  0  0  0  0  0  0  0  0
  141.8698   78.5467  220.4204 H   0  0  0  0  0  0  0  0  0  0  0  0
  1  2  1  0
  2  3  2  0
  3  4  1  0
  3  5  1  0
  5  6  1  0
  5  7  2  0
  7  8  1  0
  8  9  2  0
  9 10  1  0
 10 11  1  0
 11 12  1  0
 12 13  1  0
 12 14  1  0
 12 15  1  0
 15 16  2  0
 16 17  1  0
 16 18  1  0
 18 19  1  0
 18 20  2  0
 20 21  1  0
 20 22  1  0
 22 23  1  0
 22 24  2  0
 24 25  1  0
 25 26  1  0
 25 27  1  0
 25 28  1  0
 28 29  1  0
 28 30  1  0
 10 31  2  0
 31 32  1  0
 32 33  2  0
 33 34  1  0
 34 35  1  6
 34 36  1  0
 36 37  1  0
 36 38  1  0
 36 39  1  0
 39 40  1  0
 39 41  1  0
 39 42  1  0
 42 43  1  0
 42 44  1  0
 42 45  1  0
 45 46  1  0
 45 47  1  0
 45 48  1  0
 48 49  1  0
 48 50  1  0
 32 51  1  0
 51 52  1  0
  7 53  1  0
 53 54  1  0
 53 55  2  0
 55 56  1  0
 55  2  1  0
 51  8  1  0
 28 11  1  0
 48 34  1  0
 24 15  1  0
M  CHG  2  45   1  54  -1
M  END
>  <UniqueID>  (13) 
482

>  <SMILES>  (13) 
[O-]c1ccccc1-c1nc(N2CCc3ccccc3C2)n/c(=N\[C@@H]2CCC[NH2+]C2)[nH]1

>  <Energy>  (13) 
72.06465786596509

>  <Genealogy>  (13) 
[O-]c1ccccc1-c1nc(NC2CCC[NH2+]C2)nc(N2CCc3ccccc3C2)n1 (protonated)
[O-]c1ccccc1-c1nc(N2CCc3ccccc3C2)nc(=NC2CCC[NH2+]C2)[nH]1 (tautomer)
[O-]c1ccccc1-c1nc(N2CCc3ccccc3C2)nc(=N[C@@H]2CCC[NH2+]C2)[nH]1 (chirality)
[O-]c1ccccc1-c1nc(N2CCc3ccccc3C2)n/c(=N\[C@@H]2CCC[NH2+]C2)[nH]1 (cis-trans isomerization)
[O-]c1ccccc1-c1nc(N2CCc3ccccc3C2)n/c(=N\[C@@H]2CCC[NH2+]C2)[nH]1 (3D coordinates assigned)
[O-]c1ccccc1-c1nc(N2CCc3ccccc3C2)n/c(=N\[C@@H]2CCC[NH2+]C2)[nH]1 (nonaromatic ring conformer: 72.06465786596509 kcal/mol)

>  <smiles>  (13) 
Oc1ccccc1-c1nc(NC2CCCNC2)nc(N2CCc3ccccc3C2)n1

>  <score_type>  (13) 
oracle

>  <origin>  (13) 
autodockgpu

>  <m_score__min__energy>  (13) 
-7.8700000000000001

>  <m_primary>  (13) 
energy

>  <meeko>  (13) 
{"free_energy": -7.87, "intermolecular_energy": -9.06, "internal_energy": -2.26, "cluster_size": 12, "cluster_id": 1, "rank_in_cluster": 1}

>  <energy>  (13) 
-7.82

>  <cluster_rmsd>  (13) 
0.0

>  <rmsd>  (13) 
269.96

>  <cluster>  (13) 
2

$$$$
UQJJBYVBPBMERE-AOLYHIHGNA-N
     RDKit          3D

 56 60  0  0  0  0  0  0  0  0999 V2000
  146.4692   71.7109  218.5116 H   0  0  0  0  0  0  0  0  0  0  0  0
  145.5430   71.9830  219.0390 C   0  0  0  0  0  0  0  0  0  0  0  0
  144.7630   70.9900  219.6390 C   0  0  0  0  0  0  0  0  0  0  0  0
  145.0827   69.9385  219.5938 H   0  0  0  0  0  0  0  0  0  0  0  0
  143.5780   71.3310  220.2960 C   0  0  0  0  0  0  0  0  0  0  0  0
  142.9709   70.5459  220.7703 H   0  0  0  0  0  0  0  0  0  0  0  0
  143.1560   72.6720  220.3550 C   0  0  0  0  0  0  0  0  0  0  0  0
  141.8950   73.0020  221.0590 C   0  0  0  0  0  0  0  0  0  0  0  0
  141.4460   72.1760  222.0380 N   0  0  0  0  0  0  0  0  0  0  0  0
  140.2920   72.4430  222.7030 C   0  0  0  0  0  0  0  0  0  0  0  0
  139.8170   71.5460  223.7290 N   0  0  0  0  0  0  0  0  0  0  0  0
  140.5020   71.5020  225.0300 C   0  0  0  0  0  0  0  0  0  0  0  0
  140.1265   72.3262  225.6543 H   0  0  0  0  0  0  0  0  0  0  0  0
  141.5818   71.5959  224.8422 H   0  0  0  0  0  0  0  0  0  0  0  0
  140.2750   70.1980  225.7610 C   0  0  0  0  0  0  0  0  0  0  0  0
  140.9590   69.9690  226.9670 C   0  0  0  0  0  0  0  0  0  0  0  0
  141.6468   70.7336  227.3573 H   0  0  0  0  0  0  0  0  0  0  0  0
  140.7730   68.7780  227.6750 C   0  0  0  0  0  0  0  0  0  0  0  0
  141.3128   68.6086  228.6183 H   0  0  0  0  0  0  0  0  0  0  0  0
  139.9030   67.8050  227.1850 C   0  0  0  0  0  0  0  0  0  0  0  0
  139.7592   66.8668  227.7409 H   0  0  0  0  0  0  0  0  0  0  0  0
  139.2130   68.0200  225.9880 C   0  0  0  0  0  0  0  0  0  0  0  0
  138.5352   67.2446  225.6016 H   0  0  0  0  0  0  0  0  0  0  0  0
  139.3790   69.2180  225.2760 C   0  0  0  0  0  0  0  0  0  0  0  0
  138.6820   69.3920  223.9530 C   0  0  0  0  0  0  0  0  0  0  0  0
  137.6862   68.9281  224.0095 H   0  0  0  0  0  0  0  0  0  0  0  0
  139.2930   68.9120  223.1743 H   0  0  0  0  0  0  0  0  0  0  0  0
  138.5230   70.8660  223.5970 C   0  0  0  0  0  0  0  0  0  0  0  0
  137.7941   71.3305  224.2774 H   0  0  0  0  0  0  0  0  0  0  0  0
  138.1671   70.9554  222.5600 H   0  0  0  0  0  0  0  0  0  0  0  0
  139.5810   73.5510  222.3730 N   0  0  0  0  0  0  0  0  0  0  0  0
  140.0070   74.3810  221.3840 C   0  0  0  0  0  0  0  0  0  0  0  0
  139.3200   75.4380  221.0600 N   0  0  0  0  0  0  0  0  0  0  0  0
  139.8900   76.7640  220.8000 C   0  0  2  0  0  0  0  0  0  0  0  0
  139.3626   77.5246  221.3945 H   0  0  0  0  0  0  0  0  0  0  0  0
  139.7110   77.1110  219.3070 C   0  0  0  0  0  0  0  0  0  0  0  0
  138.7949   76.6296  218.9341 H   0  0  0  0  0  0  0  0  0  0  0  0
  139.6418   78.2045  219.2094 H   0  0  0  0  0  0  0  0  0  0  0  0
  140.9030   76.6250  218.4790 C   0  0  0  0  0  0  0  0  0  0  0  0
  140.9666   75.5293  218.5527 H   0  0  0  0  0  0  0  0  0  0  0  0
  140.7498   76.9388  217.4359 H   0  0  0  0  0  0  0  0  0  0  0  0
  142.2290   77.2400  218.9810 C   0  0  0  0  0  0  0  0  0  0  0  0
  143.0184   76.4778  218.9035 H   0  0  0  0  0  0  0  0  0  0  0  0
  142.4376   78.1192  218.3538 H   0  0  0  0  0  0  0  0  0  0  0  0
  142.1650   77.7080  220.3820 N   0  0  0  0  0  0  0  0  0  0  0  0
  143.1400   77.7680  220.7620 H   0  0  0  0  0  0  0  0  0  0  0  0
  141.7460   78.6670  220.4180 H   0  0  0  0  0  0  0  0  0  0  0  0
  141.3810   76.7970  221.2280 C   0  0  0  0  0  0  0  0  0  0  0  0
  141.7992   75.7830  221.1444 H   0  0  0  0  0  0  0  0  0  0  0  0
  141.4340   77.1586  222.2655 H   0  0  0  0  0  0  0  0  0  0  0  0
  141.1610   74.1000  220.7190 N   0  0  0  0  0  0  0  0  0  0  0  0
  141.4610   74.7160  219.9300 H   0  0  0  0  0  0  0  0  0  0  0  0
  143.9670   73.6720  219.7730 C   0  0  0  0  0  0  0  0  0  0  0  0
  143.6290   75.0180  219.8720 O   0  0  0  0  0  0  0  0  0  0  0  0
  145.1470   73.3190  219.1090 C   0  0  0  0  0  0  0  0  0  0  0  0
  145.7654   74.0985  218.6400 H   0  0  0  0  0  0  0  0  0  0  0  0
  1  2  1  0
  2  3  2  0
  3  4  1  0
  3  5  1  0
  5  6  1  0
  5  7  2  0
  7  8  1  0
  8  9  2  0
  9 10  1  0
 10 11  1  0
 11 12  1  0
 12 13  1  0
 12 14  1  0
 12 15  1  0
 15 16  2  0
 16 17  1  0
 16 18  1  0
 18 19  1  0
 18 20  2  0
 20 21  1  0
 20 22  1  0
 22 23  1  0
 22 24  2  0
 24 25  1  0
 25 26  1  0
 25 27  1  0
 25 28  1  0
 28 29  1  0
 28 30  1  0
 10 31  2  0
 31 32  1  0
 32 33  2  0
 33 34  1  0
 34 35  1  1
 34 36  1  0
 36 37  1  0
 36 38  1  0
 36 39  1  0
 39 40  1  0
 39 41  1  0
 39 42  1  0
 42 43  1  0
 42 44  1  0
 42 45  1  0
 45 46  1  0
 45 47  1  0
 45 48  1  0
 48 49  1  0
 48 50  1  0
 32 51  1  0
 51 52  1  0
  7 53  1  0
 53 54  1  0
 53 55  2  0
 55 56  1  0
 55  2  1  0
 51  8  1  0
 28 11  1  0
 48 34  1  0
 24 15  1  0
M  CHG  2  45   1  54  -1
M  END
>  <UniqueID>  (14) 
482

>  <SMILES>  (14) 
[O-]c1ccccc1-c1nc(N2CCc3ccccc3C2)n/c(=N\[C@@H]2CCC[NH2+]C2)[nH]1

>  <Energy>  (14) 
72.06465786596509

>  <Genealogy>  (14) 
[O-]c1ccccc1-c1nc(NC2CCC[NH2+]C2)nc(N2CCc3ccccc3C2)n1 (protonated)
[O-]c1ccccc1-c1nc(N2CCc3ccccc3C2)nc(=NC2CCC[NH2+]C2)[nH]1 (tautomer)
[O-]c1ccccc1-c1nc(N2CCc3ccccc3C2)nc(=N[C@@H]2CCC[NH2+]C2)[nH]1 (chirality)
[O-]c1ccccc1-c1nc(N2CCc3ccccc3C2)n/c(=N\[C@@H]2CCC[NH2+]C2)[nH]1 (cis-trans isomerization)
[O-]c1ccccc1-c1nc(N2CCc3ccccc3C2)n/c(=N\[C@@H]2CCC[NH2+]C2)[nH]1 (3D coordinates assigned)
[O-]c1ccccc1-c1nc(N2CCc3ccccc3C2)n/c(=N\[C@@H]2CCC[NH2+]C2)[nH]1 (nonaromatic ring conformer: 72.06465786596509 kcal/mol)

>  <smiles>  (14) 
Oc1ccccc1-c1nc(NC2CCCNC2)nc(N2CCc3ccccc3C2)n1

>  <score_type>  (14) 
oracle

>  <origin>  (14) 
autodockgpu

>  <m_score__min__energy>  (14) 
-7.8700000000000001

>  <m_primary>  (14) 
energy

>  <meeko>  (14) 
{"free_energy": -7.77, "intermolecular_energy": -8.97, "internal_energy": -2.27, "cluster_size": 8, "cluster_id": 2, "rank_in_cluster": 8}

>  <energy>  (14) 
-7.82

>  <cluster_rmsd>  (14) 
0.04

>  <rmsd>  (14) 
269.94

>  <cluster>  (14) 
2

$$$$
UQJJBYVBPBMERE-AOLYHIHGNA-N
     RDKit          3D

 56 60  0  0  0  0  0  0  0  0999 V2000
  146.4164   71.8733  218.5295 H   0  0  0  0  0  0  0  0  0  0  0  0
  145.4930   72.0990  219.0830 C   0  0  0  0  0  0  0  0  0  0  0  0
  144.7870   71.0710  219.7150 C   0  0  0  0  0  0  0  0  0  0  0  0
  145.1625   70.0382  219.6680 H   0  0  0  0  0  0  0  0  0  0  0  0
  143.6060   71.3520  220.4060 C   0  0  0  0  0  0  0  0  0  0  0  0
  143.0587   70.5392  220.9057 H   0  0  0  0  0  0  0  0  0  0  0  0
  143.1120   72.6680  220.4670 C   0  0  0  0  0  0  0  0  0  0  0  0
  141.8560   72.9350  221.2070 C   0  0  0  0  0  0  0  0  0  0  0  0
  141.4760   72.0850  222.1960 N   0  0  0  0  0  0  0  0  0  0  0  0
  140.3290   72.2940  222.8930 C   0  0  0  0  0  0  0  0  0  0  0  0
  139.9280   71.3740  223.9290 N   0  0  0  0  0  0  0  0  0  0  0  0
  140.4860   71.5140  225.2830 C   0  0  0  0  0  0  0  0  0  0  0  0
  139.9139   72.2833  225.8223 H   0  0  0  0  0  0  0  0  0  0  0  0
  141.5447   71.7942  225.1803 H   0  0  0  0  0  0  0  0  0  0  0  0
  140.4270   70.2250  226.0710 C   0  0  0  0  0  0  0  0  0  0  0  0
  141.0250   70.1800  227.3420 C   0  0  0  0  0  0  0  0  0  0  0  0
  141.5257   71.0745  227.7409 H   0  0  0  0  0  0  0  0  0  0  0  0
  140.9890   69.0080  228.1040 C   0  0  0  0  0  0  0  0  0  0  0  0
  141.4601   68.9833  229.0977 H   0  0  0  0  0  0  0  0  0  0  0  0
  140.3560   67.8710  227.6040 C   0  0  0  0  0  0  0  0  0  0  0  0
  140.3316   66.9482  228.2021 H   0  0  0  0  0  0  0  0  0  0  0  0
  139.7520   67.9020  226.3430 C   0  0  0  0  0  0  0  0  0  0  0  0
  139.2601   66.9997  225.9507 H   0  0  0  0  0  0  0  0  0  0  0  0
  139.7690   69.0770  225.5740 C   0  0  0  0  0  0  0  0  0  0  0  0
  139.1780   69.0610  224.1900 C   0  0  0  0  0  0  0  0  0  0  0  0
  138.2792   68.4268  224.1921 H   0  0  0  0  0  0  0  0  0  0  0  0
  139.9338   68.6652  223.4957 H   0  0  0  0  0  0  0  0  0  0  0  0
  138.7940   70.4640  223.7320 C   0  0  0  0  0  0  0  0  0  0  0  0
  137.9341   70.8183  224.3194 H   0  0  0  0  0  0  0  0  0  0  0  0
  138.5265   70.4395  222.6653 H   0  0  0  0  0  0  0  0  0  0  0  0
  139.5560   73.3670  222.5870 N   0  0  0  0  0  0  0  0  0  0  0  0
  139.9130   74.2190  221.5890 C   0  0  0  0  0  0  0  0  0  0  0  0
  139.1660   75.2410  221.2880 N   0  0  0  0  0  0  0  0  0  0  0  0
  139.6280   76.6320  221.2340 C   0  0  2  0  0  0  0  0  0  0  0  0
  138.9781   77.2697  221.8512 H   0  0  0  0  0  0  0  0  0  0  0  0
  139.5540   77.1360  219.7770 C   0  0  0  0  0  0  0  0  0  0  0  0
  138.7271   76.6251  219.2621 H   0  0  0  0  0  0  0  0  0  0  0  0
  139.3882   78.2233  219.7923 H   0  0  0  0  0  0  0  0  0  0  0  0
  140.8580   76.8550  219.0280 C   0  0  0  0  0  0  0  0  0  0  0  0
  141.0196   75.7677  218.9876 H   0  0  0  0  0  0  0  0  0  0  0  0
  140.7718   77.2764  218.0156 H   0  0  0  0  0  0  0  0  0  0  0  0
  142.0680   77.5170  219.7270 C   0  0  0  0  0  0  0  0  0  0  0  0
  142.9306   76.8390  219.6482 H   0  0  0  0  0  0  0  0  0  0  0  0
  142.2489   78.4783  219.2239 H   0  0  0  0  0  0  0  0  0  0  0  0
  141.8300   77.8090  221.1560 N   0  0  0  0  0  0  0  0  0  0  0  0
  142.7550   77.9070  221.6390 H   0  0  0  0  0  0  0  0  0  0  0  0
  141.3200   78.7180  221.2540 H   0  0  0  0  0  0  0  0  0  0  0  0
  141.0630   76.7410  221.8130 C   0  0  0  0  0  0  0  0  0  0  0  0
  141.5828   75.7833  221.6624 H   0  0  0  0  0  0  0  0  0  0  0  0
  140.9855   76.9807  222.8838 H   0  0  0  0  0  0  0  0  0  0  0  0
  141.0600   73.9960  220.8910 N   0  0  0  0  0  0  0  0  0  0  0  0
  141.3070   74.6270  220.0960 H   0  0  0  0  0  0  0  0  0  0  0  0
  143.8470   73.7050  219.8520 C   0  0  0  0  0  0  0  0  0  0  0  0
  143.4380   75.0320  219.9500 O   0  0  0  0  0  0  0  0  0  0  0  0
  145.0250   73.4120  219.1550 C   0  0  0  0  0  0  0  0  0  0  0  0
  145.5846   74.2204  218.6616 H   0  0  0  0  0  0  0  0  0  0  0  0
  1  2  1  0
  2  3  2  0
  3  4  1  0
  3  5  1  0
  5  6  1  0
  5  7  2  0
  7  8  1  0
  8  9  2  0
  9 10  1  0
 10 11  1  0
 11 12  1  0
 12 13  1  0
 12 14  1  0
 12 15  1  0
 15 16  2  0
 16 17  1  0
 16 18  1  0
 18 19  1  0
 18 20  2  0
 20 21  1  0
 20 22  1  0
 22 23  1  0
 22 24  2  0
 24 25  1  0
 25 26  1  0
 25 27  1  0
 25 28  1  0
 28 29  1  0
 28 30  1  0
 10 31  2  0
 31 32  1  0
 32 33  2  0
 33 34  1  0
 34 35  1  1
 34 36  1  0
 36 37  1  0
 36 38  1  0
 36 39  1  0
 39 40  1  0
 39 41  1  0
 39 42  1  0
 42 43  1  0
 42 44  1  0
 42 45  1  0
 45 46  1  0
 45 47  1  0
 45 48  1  0
 48 49  1  0
 48 50  1  0
 32 51  1  0
 51 52  1  0
  7 53  1  0
 53 54  1  0
 53 55  2  0
 55 56  1  0
 55  2  1  0
 51  8  1  0
 28 11  1  0
 48 34  1  0
 24 15  1  0
M  CHG  2  45   1  54  -1
M  END
>  <UniqueID>  (15) 
482

>  <SMILES>  (15) 
[O-]c1ccccc1-c1nc(N2CCc3ccccc3C2)n/c(=N\[C@@H]2CCC[NH2+]C2)[nH]1

>  <Energy>  (15) 
72.06465786596509

>  <Genealogy>  (15) 
[O-]c1ccccc1-c1nc(NC2CCC[NH2+]C2)nc(N2CCc3ccccc3C2)n1 (protonated)
[O-]c1ccccc1-c1nc(N2CCc3ccccc3C2)nc(=NC2CCC[NH2+]C2)[nH]1 (tautomer)
[O-]c1ccccc1-c1nc(N2CCc3ccccc3C2)nc(=N[C@@H]2CCC[NH2+]C2)[nH]1 (chirality)
[O-]c1ccccc1-c1nc(N2CCc3ccccc3C2)n/c(=N\[C@@H]2CCC[NH2+]C2)[nH]1 (cis-trans isomerization)
[O-]c1ccccc1-c1nc(N2CCc3ccccc3C2)n/c(=N\[C@@H]2CCC[NH2+]C2)[nH]1 (3D coordinates assigned)
[O-]c1ccccc1-c1nc(N2CCc3ccccc3C2)n/c(=N\[C@@H]2CCC[NH2+]C2)[nH]1 (nonaromatic ring conformer: 72.06465786596509 kcal/mol)

>  <smiles>  (15) 
Oc1ccccc1-c1nc(NC2CCCNC2)nc(N2CCc3ccccc3C2)n1

>  <score_type>  (15) 
oracle

>  <origin>  (15) 
autodockgpu

>  <m_score__min__energy>  (15) 
-7.8700000000000001

>  <m_primary>  (15) 
energy

>  <meeko>  (15) 
{"free_energy": -7.81, "intermolecular_energy": -9.01, "internal_energy": -2.26, "cluster_size": 8, "cluster_id": 2, "rank_in_cluster": 3}

>  <energy>  (15) 
-7.81

>  <cluster_rmsd>  (15) 
0.79

>  <rmsd>  (15) 
270.21

>  <cluster>  (15) 
2

$$$$
UQJJBYVBPBMERE-AOLYHIHGNA-N
     RDKit          3D

 56 60  0  0  0  0  0  0  0  0999 V2000
  146.3958   70.9915  218.1798 H   0  0  0  0  0  0  0  0  0  0  0  0
  145.5220   71.3430  218.7480 C   0  0  0  0  0  0  0  0  0  0  0  0
  144.7130   70.4260  219.4240 C   0  0  0  0  0  0  0  0  0  0  0  0
  144.9574   69.3539  219.3960 H   0  0  0  0  0  0  0  0  0  0  0  0
  143.5950   70.8670  220.1350 C   0  0  0  0  0  0  0  0  0  0  0  0
  142.9658   70.1402  220.6696 H   0  0  0  0  0  0  0  0  0  0  0  0
  143.2680   72.2350  220.1720 C   0  0  0  0  0  0  0  0  0  0  0  0
  142.0740   72.6720  220.9340 C   0  0  0  0  0  0  0  0  0  0  0  0
  141.6340   71.9130  221.9700 N   0  0  0  0  0  0  0  0  0  0  0  0
  140.5420   72.2790  222.6890 C   0  0  0  0  0  0  0  0  0  0  0  0
  140.0740   71.4530  223.7760 N   0  0  0  0  0  0  0  0  0  0  0  0
  140.6380   71.6350  225.1220 C   0  0  0  0  0  0  0  0  0  0  0  0
  140.1207   72.4740  225.6104 H   0  0  0  0  0  0  0  0  0  0  0  0
  141.7141   71.8330  225.0087 H   0  0  0  0  0  0  0  0  0  0  0  0
  140.4870   70.4040  225.9860 C   0  0  0  0  0  0  0  0  0  0  0  0
  141.0780   70.3930  227.2610 C   0  0  0  0  0  0  0  0  0  0  0  0
  141.6407   71.2719  227.6087 H   0  0  0  0  0  0  0  0  0  0  0  0
  140.9570   69.2750  228.0910 C   0  0  0  0  0  0  0  0  0  0  0  0
  141.4238   69.2766  229.0870 H   0  0  0  0  0  0  0  0  0  0  0  0
  140.2450   68.1580  227.6570 C   0  0  0  0  0  0  0  0  0  0  0  0
  140.1534   67.2772  228.3095 H   0  0  0  0  0  0  0  0  0  0  0  0
  139.6470   68.1560  226.3930 C   0  0  0  0  0  0  0  0  0  0  0  0
  139.0926   67.2690  226.0527 H   0  0  0  0  0  0  0  0  0  0  0  0
  139.7490   69.2780  225.5550 C   0  0  0  0  0  0  0  0  0  0  0  0
  139.1610   69.2200  224.1700 C   0  0  0  0  0  0  0  0  0  0  0  0
  138.2197   68.6518  224.2042 H   0  0  0  0  0  0  0  0  0  0  0  0
  139.8881   68.7307  223.5052 H   0  0  0  0  0  0  0  0  0  0  0  0
  138.8780   70.6170  223.6270 C   0  0  0  0  0  0  0  0  0  0  0  0
  138.0449   71.0661  224.1876 H   0  0  0  0  0  0  0  0  0  0  0  0
  138.6099   70.5484  222.5624 H   0  0  0  0  0  0  0  0  0  0  0  0
  139.8830   73.4190  222.3560 N   0  0  0  0  0  0  0  0  0  0  0  0
  140.3010   74.1830  221.3120 C   0  0  0  0  0  0  0  0  0  0  0  0
  139.6630   75.2690  220.9860 N   0  0  0  0  0  0  0  0  0  0  0  0
  140.2990   76.5350  220.6070 C   0  0  2  0  0  0  0  0  0  0  0  0
  139.9134   77.3530  221.2333 H   0  0  0  0  0  0  0  0  0  0  0  0
  139.9600   76.8550  219.1370 C   0  0  0  0  0  0  0  0  0  0  0  0
  138.9687   76.4416  218.8994 H   0  0  0  0  0  0  0  0  0  0  0  0
  139.9663   77.9475  219.0085 H   0  0  0  0  0  0  0  0  0  0  0  0
  140.9940   76.2500  218.1850 C   0  0  0  0  0  0  0  0  0  0  0  0
  140.9786   75.1551  218.2898 H   0  0  0  0  0  0  0  0  0  0  0  0
  140.7345   76.5493  217.1588 H   0  0  0  0  0  0  0  0  0  0  0  0
  142.4190   76.7640  218.4940 C   0  0  0  0  0  0  0  0  0  0  0  0
  143.1282   75.9361  218.3472 H   0  0  0  0  0  0  0  0  0  0  0  0
  142.6167   77.6050  217.8131 H   0  0  0  0  0  0  0  0  0  0  0  0
  142.5710   77.2730  219.8740 N   0  0  0  0  0  0  0  0  0  0  0  0
  143.5870   77.2630  220.1280 H   0  0  0  0  0  0  0  0  0  0  0  0
  142.2380   78.2650  219.9260 H   0  0  0  0  0  0  0  0  0  0  0  0
  141.8310   76.4550  220.8450 C   0  0  0  0  0  0  0  0  0  0  0  0
  142.1533   75.4077  220.7491 H   0  0  0  0  0  0  0  0  0  0  0  0
  142.0439   76.8398  221.8533 H   0  0  0  0  0  0  0  0  0  0  0  0
  141.3920   73.8030  220.5930 N   0  0  0  0  0  0  0  0  0  0  0  0
  141.6820   74.3680  219.7640 H   0  0  0  0  0  0  0  0  0  0  0  0
  144.1080   73.1580  219.5110 C   0  0  0  0  0  0  0  0  0  0  0  0
  143.8670   74.5270  219.5830 O   0  0  0  0  0  0  0  0  0  0  0  0
  145.2210   72.7050  218.7940 C   0  0  0  0  0  0  0  0  0  0  0  0
  145.8615   73.4256  218.2643 H   0  0  0  0  0  0  0  0  0  0  0  0
  1  2  1  0
  2  3  2  0
  3  4  1  0
  3  5  1  0
  5  6  1  0
  5  7  2  0
  7  8  1  0
  8  9  2  0
  9 10  1  0
 10 11  1  0
 11 12  1  0
 12 13  1  0
 12 14  1  0
 12 15  1  0
 15 16  2  0
 16 17  1  0
 16 18  1  0
 18 19  1  0
 18 20  2  0
 20 21  1  0
 20 22  1  0
 22 23  1  0
 22 24  2  0
 24 25  1  0
 25 26  1  0
 25 27  1  0
 25 28  1  0
 28 29  1  0
 28 30  1  0
 10 31  2  0
 31 32  1  0
 32 33  2  0
 33 34  1  0
 34 35  1  1
 34 36  1  0
 36 37  1  0
 36 38  1  0
 36 39  1  0
 39 40  1  0
 39 41  1  0
 39 42  1  0
 42 43  1  0
 42 44  1  0
 42 45  1  0
 45 46  1  0
 45 47  1  0
 45 48  1  0
 48 49  1  0
 48 50  1  0
 32 51  1  0
 51 52  1  0
  7 53  1  0
 53 54  1  0
 53 55  2  0
 55 56  1  0
 55  2  1  0
 51  8  1  0
 28 11  1  0
 48 34  1  0
 24 15  1  0
M  CHG  2  45   1  54  -1
M  END
>  <UniqueID>  (16) 
482

>  <SMILES>  (16) 
[O-]c1ccccc1-c1nc(N2CCc3ccccc3C2)n/c(=N\[C@@H]2CCC[NH2+]C2)[nH]1

>  <Energy>  (16) 
72.06465786596509

>  <Genealogy>  (16) 
[O-]c1ccccc1-c1nc(NC2CCC[NH2+]C2)nc(N2CCc3ccccc3C2)n1 (protonated)
[O-]c1ccccc1-c1nc(N2CCc3ccccc3C2)nc(=NC2CCC[NH2+]C2)[nH]1 (tautomer)
[O-]c1ccccc1-c1nc(N2CCc3ccccc3C2)nc(=N[C@@H]2CCC[NH2+]C2)[nH]1 (chirality)
[O-]c1ccccc1-c1nc(N2CCc3ccccc3C2)n/c(=N\[C@@H]2CCC[NH2+]C2)[nH]1 (cis-trans isomerization)
[O-]c1ccccc1-c1nc(N2CCc3ccccc3C2)n/c(=N\[C@@H]2CCC[NH2+]C2)[nH]1 (3D coordinates assigned)
[O-]c1ccccc1-c1nc(N2CCc3ccccc3C2)n/c(=N\[C@@H]2CCC[NH2+]C2)[nH]1 (nonaromatic ring conformer: 72.06465786596509 kcal/mol)

>  <smiles>  (16) 
Oc1ccccc1-c1nc(NC2CCCNC2)nc(N2CCc3ccccc3C2)n1

>  <score_type>  (16) 
oracle

>  <origin>  (16) 
autodockgpu

>  <m_score__min__energy>  (16) 
-7.8700000000000001

>  <m_primary>  (16) 
energy

>  <meeko>  (16) 
{"free_energy": -7.82, "intermolecular_energy": -9.01, "internal_energy": -2.27, "cluster_size": 8, "cluster_id": 2, "rank_in_cluster": 1}

>  <energy>  (16) 
-7.81

>  <cluster_rmsd>  (16) 
0.55

>  <rmsd>  (16) 
269.99

>  <cluster>  (16) 
2

$$$$
UQJJBYVBPBMERE-AOLYHIHGNA-N
     RDKit          3D

 56 60  0  0  0  0  0  0  0  0999 V2000
  139.9896   79.4579  221.8063 H   0  0  0  0  0  0  0  0  0  0  0  0
  140.1430   78.3700  221.7530 C   0  0  0  0  0  0  0  0  0  0  0  0
  139.3030   77.5100  222.4650 C   0  0  0  0  0  0  0  0  0  0  0  0
  138.4814   77.9217  223.0696 H   0  0  0  0  0  0  0  0  0  0  0  0
  139.5040   76.1280  222.4110 C   0  0  0  0  0  0  0  0  0  0  0  0
  138.8355   75.4561  222.9693 H   0  0  0  0  0  0  0  0  0  0  0  0
  140.5560   75.5910  221.6470 C   0  0  0  0  0  0  0  0  0  0  0  0
  140.7440   74.1220  221.6100 C   0  0  0  0  0  0  0  0  0  0  0  0
  140.3100   73.3710  222.6540 N   0  0  0  0  0  0  0  0  0  0  0  0
  140.4690   72.0220  222.6580 C   0  0  0  0  0  0  0  0  0  0  0  0
  140.0180   71.2380  223.7830 N   0  0  0  0  0  0  0  0  0  0  0  0
  140.5610   71.5090  225.1220 C   0  0  0  0  0  0  0  0  0  0  0  0
  140.0103   72.3538  225.5613 H   0  0  0  0  0  0  0  0  0  0  0  0
  141.6309   71.7379  225.0079 H   0  0  0  0  0  0  0  0  0  0  0  0
  140.4430   70.3200  226.0480 C   0  0  0  0  0  0  0  0  0  0  0  0
  141.0200   70.3970  227.3270 C   0  0  0  0  0  0  0  0  0  0  0  0
  141.5478   71.3124  227.6329 H   0  0  0  0  0  0  0  0  0  0  0  0
  140.9290   69.3200  228.2140 C   0  0  0  0  0  0  0  0  0  0  0  0
  141.3837   69.3904  229.2132 H   0  0  0  0  0  0  0  0  0  0  0  0
  140.2620   68.1570  227.8320 C   0  0  0  0  0  0  0  0  0  0  0  0
  140.1948   67.3086  228.5289 H   0  0  0  0  0  0  0  0  0  0  0  0
  139.6780   68.0670  226.5640 C   0  0  0  0  0  0  0  0  0  0  0  0
  139.1591   67.1442  226.2655 H   0  0  0  0  0  0  0  0  0  0  0  0
  139.7500   69.1470  225.6700 C   0  0  0  0  0  0  0  0  0  0  0  0
  139.1790   68.9970  224.2850 C   0  0  0  0  0  0  0  0  0  0  0  0
  138.2574   68.3991  224.3409 H   0  0  0  0  0  0  0  0  0  0  0  0
  139.9300   68.4998  223.6535 H   0  0  0  0  0  0  0  0  0  0  0  0
  138.8540   70.3520  223.6660 C   0  0  0  0  0  0  0  0  0  0  0  0
  137.9986   70.7997  224.1931 H   0  0  0  0  0  0  0  0  0  0  0  0
  138.6022   70.2176  222.6037 H   0  0  0  0  0  0  0  0  0  0  0  0
  141.0770   71.4250  221.6010 N   0  0  0  0  0  0  0  0  0  0  0  0
  141.5330   72.1630  220.5540 C   0  0  0  0  0  0  0  0  0  0  0  0
  142.1260   71.5930  219.5460 N   0  0  0  0  0  0  0  0  0  0  0  0
  143.4320   71.9850  219.0080 C   0  0  2  0  0  0  0  0  0  0  0  0
  143.6545   71.4067  218.0991 H   0  0  0  0  0  0  0  0  0  0  0  0
  144.5250   71.6790  220.0540 C   0  0  0  0  0  0  0  0  0  0  0  0
  144.2172   70.8073  220.6501 H   0  0  0  0  0  0  0  0  0  0  0  0
  145.4667   71.4733  219.5241 H   0  0  0  0  0  0  0  0  0  0  0  0
  144.7450   72.8710  220.9890 C   0  0  0  0  0  0  0  0  0  0  0  0
  143.8142   73.0687  221.5409 H   0  0  0  0  0  0  0  0  0  0  0  0
  145.5644   72.6213  221.6791 H   0  0  0  0  0  0  0  0  0  0  0  0
  145.1430   74.1420  220.2040 C   0  0  0  0  0  0  0  0  0  0  0  0
  144.6639   75.0104  220.6798 H   0  0  0  0  0  0  0  0  0  0  0  0
  146.2407   74.2090  220.2279 H   0  0  0  0  0  0  0  0  0  0  0  0
  144.7380   74.1030  218.7830 N   0  0  0  0  0  0  0  0  0  0  0  0
  144.7040   75.0840  218.4150 H   0  0  0  0  0  0  0  0  0  0  0  0
  145.4490   73.5760  218.2240 H   0  0  0  0  0  0  0  0  0  0  0  0
  143.4170   73.4840  218.6070 C   0  0  0  0  0  0  0  0  0  0  0  0
  142.6872   74.0147  219.2360 H   0  0  0  0  0  0  0  0  0  0  0  0
  143.1427   73.5536  217.5440 H   0  0  0  0  0  0  0  0  0  0  0  0
  141.3750   73.5150  220.5640 N   0  0  0  0  0  0  0  0  0  0  0  0
  141.7670   74.0820  219.7790 H   0  0  0  0  0  0  0  0  0  0  0  0
  141.3810   76.4650  220.9060 C   0  0  0  0  0  0  0  0  0  0  0  0
  142.3860   75.9750  220.0770 O   0  0  0  0  0  0  0  0  0  0  0  0
  141.1770   77.8480  220.9740 C   0  0  0  0  0  0  0  0  0  0  0  0
  141.8345   78.5267  220.4110 H   0  0  0  0  0  0  0  0  0  0  0  0
  1  2  1  0
  2  3  2  0
  3  4  1  0
  3  5  1  0
  5  6  1  0
  5  7  2  0
  7  8  1  0
  8  9  2  0
  9 10  1  0
 10 11  1  0
 11 12  1  0
 12 13  1  0
 12 14  1  0
 12 15  1  0
 15 16  2  0
 16 17  1  0
 16 18  1  0
 18 19  1  0
 18 20  2  0
 20 21  1  0
 20 22  1  0
 22 23  1  0
 22 24  2  0
 24 25  1  0
 25 26  1  0
 25 27  1  0
 25 28  1  0
 28 29  1  0
 28 30  1  0
 10 31  2  0
 31 32  1  0
 32 33  2  0
 33 34  1  0
 34 35  1  6
 34 36  1  0
 36 37  1  0
 36 38  1  0
 36 39  1  0
 39 40  1  0
 39 41  1  0
 39 42  1  0
 42 43  1  0
 42 44  1  0
 42 45  1  0
 45 46  1  0
 45 47  1  0
 45 48  1  0
 48 49  1  0
 48 50  1  0
 32 51  1  0
 51 52  1  0
  7 53  1  0
 53 54  1  0
 53 55  2  0
 55 56  1  0
 55  2  1  0
 51  8  1  0
 28 11  1  0
 48 34  1  0
 24 15  1  0
M  CHG  2  45   1  54  -1
M  END
>  <UniqueID>  (17) 
482

>  <SMILES>  (17) 
[O-]c1ccccc1-c1nc(N2CCc3ccccc3C2)n/c(=N\[C@@H]2CCC[NH2+]C2)[nH]1

>  <Energy>  (17) 
72.06465786596509

>  <Genealogy>  (17) 
[O-]c1ccccc1-c1nc(NC2CCC[NH2+]C2)nc(N2CCc3ccccc3C2)n1 (protonated)
[O-]c1ccccc1-c1nc(N2CCc3ccccc3C2)nc(=NC2CCC[NH2+]C2)[nH]1 (tautomer)
[O-]c1ccccc1-c1nc(N2CCc3ccccc3C2)nc(=N[C@@H]2CCC[NH2+]C2)[nH]1 (chirality)
[O-]c1ccccc1-c1nc(N2CCc3ccccc3C2)n/c(=N\[C@@H]2CCC[NH2+]C2)[nH]1 (cis-trans isomerization)
[O-]c1ccccc1-c1nc(N2CCc3ccccc3C2)n/c(=N\[C@@H]2CCC[NH2+]C2)[nH]1 (3D coordinates assigned)
[O-]c1ccccc1-c1nc(N2CCc3ccccc3C2)n/c(=N\[C@@H]2CCC[NH2+]C2)[nH]1 (nonaromatic ring conformer: 72.06465786596509 kcal/mol)

>  <smiles>  (17) 
Oc1ccccc1-c1nc(NC2CCCNC2)nc(N2CCc3ccccc3C2)n1

>  <score_type>  (17) 
oracle

>  <origin>  (17) 
autodockgpu

>  <m_score__min__energy>  (17) 
-7.8700000000000001

>  <m_primary>  (17) 
energy

>  <meeko>  (17) 
{"free_energy": -7.85, "intermolecular_energy": -9.04, "internal_energy": -2.29, "cluster_size": 12, "cluster_id": 1, "rank_in_cluster": 5}

>  <energy>  (17) 
-7.8

>  <cluster_rmsd>  (17) 
0.1

>  <rmsd>  (17) 
269.94

>  <cluster>  (17) 
2

$$$$
UQJJBYVBPBMERE-AOLYHIHGNA-N
     RDKit          3D

 56 60  0  0  0  0  0  0  0  0999 V2000
  146.3676   71.0438  218.2039 H   0  0  0  0  0  0  0  0  0  0  0  0
  145.4930   71.3920  218.7730 C   0  0  0  0  0  0  0  0  0  0  0  0
  144.6580   70.4680  219.4060 C   0  0  0  0  0  0  0  0  0  0  0  0
  144.8829   69.3930  219.3445 H   0  0  0  0  0  0  0  0  0  0  0  0
  143.5380   70.9060  220.1170 C   0  0  0  0  0  0  0  0  0  0  0  0
  142.8878   70.1735  220.6176 H   0  0  0  0  0  0  0  0  0  0  0  0
  143.2360   72.2790  220.1970 C   0  0  0  0  0  0  0  0  0  0  0  0
  142.0410   72.7120  220.9570 C   0  0  0  0  0  0  0  0  0  0  0  0
  141.5850   71.9370  221.9740 N   0  0  0  0  0  0  0  0  0  0  0  0
  140.4900   72.3000  222.6920 C   0  0  0  0  0  0  0  0  0  0  0  0
  140.0050   71.4580  223.7580 N   0  0  0  0  0  0  0  0  0  0  0  0
  140.5040   71.6580  225.1270 C   0  0  0  0  0  0  0  0  0  0  0  0
  139.9375   72.4782  225.5921 H   0  0  0  0  0  0  0  0  0  0  0  0
  141.5765   71.8928  225.0597 H   0  0  0  0  0  0  0  0  0  0  0  0
  140.3590   70.4220  225.9850 C   0  0  0  0  0  0  0  0  0  0  0  0
  140.8950   70.4310  227.2840 C   0  0  0  0  0  0  0  0  0  0  0  0
  141.4120   71.3286  227.6542 H   0  0  0  0  0  0  0  0  0  0  0  0
  140.7770   69.3090  228.1100 C   0  0  0  0  0  0  0  0  0  0  0  0
  141.1987   69.3269  229.1258 H   0  0  0  0  0  0  0  0  0  0  0  0
  140.1250   68.1680  227.6460 C   0  0  0  0  0  0  0  0  0  0  0  0
  140.0372   67.2839  228.2945 H   0  0  0  0  0  0  0  0  0  0  0  0
  139.5820   68.1450  226.3570 C   0  0  0  0  0  0  0  0  0  0  0  0
  139.0750   67.2389  225.9937 H   0  0  0  0  0  0  0  0  0  0  0  0
  139.6800   69.2710  225.5240 C   0  0  0  0  0  0  0  0  0  0  0  0
  139.1550   69.1930  224.1150 C   0  0  0  0  0  0  0  0  0  0  0  0
  138.2337   68.5920  224.1090 H   0  0  0  0  0  0  0  0  0  0  0  0
  139.9270   68.7299  223.4829 H   0  0  0  0  0  0  0  0  0  0  0  0
  138.8470   70.5790  223.5590 C   0  0  0  0  0  0  0  0  0  0  0  0
  137.9751   70.9980  224.0827 H   0  0  0  0  0  0  0  0  0  0  0  0
  138.6283   70.5008  222.4838 H   0  0  0  0  0  0  0  0  0  0  0  0
  139.8450   73.4520  222.3760 N   0  0  0  0  0  0  0  0  0  0  0  0
  140.2790   74.2320  221.3510 C   0  0  0  0  0  0  0  0  0  0  0  0
  139.6540   75.3310  221.0410 N   0  0  0  0  0  0  0  0  0  0  0  0
  140.3020   76.5650  220.5820 C   0  0  2  0  0  0  0  0  0  0  0  0
  139.9165   77.4268  221.1466 H   0  0  0  0  0  0  0  0  0  0  0  0
  139.9780   76.7840  219.0890 C   0  0  0  0  0  0  0  0  0  0  0  0
  138.9865   76.3603  218.8711 H   0  0  0  0  0  0  0  0  0  0  0  0
  139.9914   77.8647  218.8845 H   0  0  0  0  0  0  0  0  0  0  0  0
  141.0180   76.1080  218.1920 C   0  0  0  0  0  0  0  0  0  0  0  0
  140.9953   75.0232  218.3730 H   0  0  0  0  0  0  0  0  0  0  0  0
  140.7706   76.3352  217.1445 H   0  0  0  0  0  0  0  0  0  0  0  0
  142.4430   76.6360  218.4800 C   0  0  0  0  0  0  0  0  0  0  0  0
  143.1492   75.7967  218.3977 H   0  0  0  0  0  0  0  0  0  0  0  0
  142.6510   77.4276  217.7450 H   0  0  0  0  0  0  0  0  0  0  0  0
  142.5850   77.2380  219.8220 N   0  0  0  0  0  0  0  0  0  0  0  0
  143.5990   77.2400  220.0860 H   0  0  0  0  0  0  0  0  0  0  0  0
  142.2570   78.2330  219.8030 H   0  0  0  0  0  0  0  0  0  0  0  0
  141.8310   76.4930  220.8400 C   0  0  0  0  0  0  0  0  0  0  0  0
  142.1476   75.4398  220.8197 H   0  0  0  0  0  0  0  0  0  0  0  0
  142.0369   76.9451  221.8214 H   0  0  0  0  0  0  0  0  0  0  0  0
  141.3720   73.8560  220.6330 N   0  0  0  0  0  0  0  0  0  0  0  0
  141.6740   74.4350  219.8180 H   0  0  0  0  0  0  0  0  0  0  0  0
  144.1030   73.2070  219.5800 C   0  0  0  0  0  0  0  0  0  0  0  0
  143.8880   74.5770  219.6960 O   0  0  0  0  0  0  0  0  0  0  0  0
  145.2170   72.7570  218.8630 C   0  0  0  0  0  0  0  0  0  0  0  0
  145.8787   73.4829  218.3677 H   0  0  0  0  0  0  0  0  0  0  0  0
  1  2  1  0
  2  3  2  0
  3  4  1  0
  3  5  1  0
  5  6  1  0
  5  7  2  0
  7  8  1  0
  8  9  2  0
  9 10  1  0
 10 11  1  0
 11 12  1  0
 12 13  1  0
 12 14  1  0
 12 15  1  0
 15 16  2  0
 16 17  1  0
 16 18  1  0
 18 19  1  0
 18 20  2  0
 20 21  1  0
 20 22  1  0
 22 23  1  0
 22 24  2  0
 24 25  1  0
 25 26  1  0
 25 27  1  0
 25 28  1  0
 28 29  1  0
 28 30  1  0
 10 31  2  0
 31 32  1  0
 32 33  2  0
 33 34  1  0
 34 35  1  1
 34 36  1  0
 36 37  1  0
 36 38  1  0
 36 39  1  0
 39 40  1  0
 39 41  1  0
 39 42  1  0
 42 43  1  0
 42 44  1  0
 42 45  1  0
 45 46  1  0
 45 47  1  0
 45 48  1  0
 48 49  1  0
 48 50  1  0
 32 51  1  0
 51 52  1  0
  7 53  1  0
 53 54  1  0
 53 55  2  0
 55 56  1  0
 55  2  1  0
 51  8  1  0
 28 11  1  0
 48 34  1  0
 24 15  1  0
M  CHG  2  45   1  54  -1
M  END
>  <UniqueID>  (18) 
482

>  <SMILES>  (18) 
[O-]c1ccccc1-c1nc(N2CCc3ccccc3C2)n/c(=N\[C@@H]2CCC[NH2+]C2)[nH]1

>  <Energy>  (18) 
72.06465786596509

>  <Genealogy>  (18) 
[O-]c1ccccc1-c1nc(NC2CCC[NH2+]C2)nc(N2CCc3ccccc3C2)n1 (protonated)
[O-]c1ccccc1-c1nc(N2CCc3ccccc3C2)nc(=NC2CCC[NH2+]C2)[nH]1 (tautomer)
[O-]c1ccccc1-c1nc(N2CCc3ccccc3C2)nc(=N[C@@H]2CCC[NH2+]C2)[nH]1 (chirality)
[O-]c1ccccc1-c1nc(N2CCc3ccccc3C2)n/c(=N\[C@@H]2CCC[NH2+]C2)[nH]1 (cis-trans isomerization)
[O-]c1ccccc1-c1nc(N2CCc3ccccc3C2)n/c(=N\[C@@H]2CCC[NH2+]C2)[nH]1 (3D coordinates assigned)
[O-]c1ccccc1-c1nc(N2CCc3ccccc3C2)n/c(=N\[C@@H]2CCC[NH2+]C2)[nH]1 (nonaromatic ring conformer: 72.06465786596509 kcal/mol)

>  <smiles>  (18) 
Oc1ccccc1-c1nc(NC2CCCNC2)nc(N2CCc3ccccc3C2)n1

>  <score_type>  (18) 
oracle

>  <origin>  (18) 
autodockgpu

>  <m_score__min__energy>  (18) 
-7.8700000000000001

>  <m_primary>  (18) 
energy

>  <meeko>  (18) 
{"free_energy": -7.8, "intermolecular_energy": -8.99, "internal_energy": -2.27, "cluster_size": 8, "cluster_id": 2, "rank_in_cluster": 5}

>  <energy>  (18) 
-7.79

>  <cluster_rmsd>  (18) 
0.55

>  <rmsd>  (18) 
269.98

>  <cluster>  (18) 
2

$$$$
UQJJBYVBPBMERE-AOLYHIHGNA-N
     RDKit          3D

 56 60  0  0  0  0  0  0  0  0999 V2000
  139.4171   79.4453  221.9024 H   0  0  0  0  0  0  0  0  0  0  0  0
  139.6350   78.3690  221.8390 C   0  0  0  0  0  0  0  0  0  0  0  0
  138.8390   77.4530  222.5310 C   0  0  0  0  0  0  0  0  0  0  0  0
  137.9879   77.8088  223.1303 H   0  0  0  0  0  0  0  0  0  0  0  0
  139.1210   76.0860  222.4640 C   0  0  0  0  0  0  0  0  0  0  0  0
  138.4867   75.3697  223.0068 H   0  0  0  0  0  0  0  0  0  0  0  0
  140.2120   75.6200  221.7060 C   0  0  0  0  0  0  0  0  0  0  0  0
  140.4860   74.1650  221.6550 C   0  0  0  0  0  0  0  0  0  0  0  0
  140.0930   73.3790  222.6900 N   0  0  0  0  0  0  0  0  0  0  0  0
  140.3310   72.0410  222.6800 C   0  0  0  0  0  0  0  0  0  0  0  0
  139.9240   71.2210  223.7950 N   0  0  0  0  0  0  0  0  0  0  0  0
  140.4370   71.5160  225.1410 C   0  0  0  0  0  0  0  0  0  0  0  0
  139.8282   72.3191  225.5820 H   0  0  0  0  0  0  0  0  0  0  0  0
  141.4904   71.8157  225.0380 H   0  0  0  0  0  0  0  0  0  0  0  0
  140.3900   70.3140  226.0570 C   0  0  0  0  0  0  0  0  0  0  0  0
  140.9510   70.4180  227.3420 C   0  0  0  0  0  0  0  0  0  0  0  0
  141.4150   71.3634  227.6598 H   0  0  0  0  0  0  0  0  0  0  0  0
  140.9240   69.3300  228.2190 C   0  0  0  0  0  0  0  0  0  0  0  0
  141.3661   69.4214  229.2221 H   0  0  0  0  0  0  0  0  0  0  0  0
  140.3370   68.1290  227.8230 C   0  0  0  0  0  0  0  0  0  0  0  0
  140.3192   67.2725  228.5130 H   0  0  0  0  0  0  0  0  0  0  0  0
  139.7710   68.0120  226.5500 C   0  0  0  0  0  0  0  0  0  0  0  0
  139.3168   67.0593  226.2399 H   0  0  0  0  0  0  0  0  0  0  0  0
  139.7780   69.1020  225.6640 C   0  0  0  0  0  0  0  0  0  0  0  0
  139.2300   68.9260  224.2730 C   0  0  0  0  0  0  0  0  0  0  0  0
  138.3497   68.2678  224.3159 H   0  0  0  0  0  0  0  0  0  0  0  0
  140.0175   68.4848  223.6443 H   0  0  0  0  0  0  0  0  0  0  0  0
  138.8210   70.2620  223.6620 C   0  0  0  0  0  0  0  0  0  0  0  0
  137.9344   70.6484  224.1861 H   0  0  0  0  0  0  0  0  0  0  0  0
  138.5857   70.1204  222.5968 H   0  0  0  0  0  0  0  0  0  0  0  0
  140.9770   71.4920  221.6200 N   0  0  0  0  0  0  0  0  0  0  0  0
  141.3910   72.2670  220.5820 C   0  0  0  0  0  0  0  0  0  0  0  0
  142.0200   71.7430  219.5700 N   0  0  0  0  0  0  0  0  0  0  0  0
  143.2930   72.2290  219.0280 C   0  0  2  0  0  0  0  0  0  0  0  0
  143.5606   71.6599  218.1255 H   0  0  0  0  0  0  0  0  0  0  0  0
  144.4050   72.0200  220.0770 C   0  0  0  0  0  0  0  0  0  0  0  0
  144.1657   71.1326  220.6814 H   0  0  0  0  0  0  0  0  0  0  0  0
  145.3603   71.8841  219.5489 H   0  0  0  0  0  0  0  0  0  0  0  0
  144.5310   73.2340  221.0010 C   0  0  0  0  0  0  0  0  0  0  0  0
  143.5867   73.3652  221.5498 H   0  0  0  0  0  0  0  0  0  0  0  0
  145.3653   73.0546  221.6951 H   0  0  0  0  0  0  0  0  0  0  0  0
  144.8320   74.5240  220.2030 C   0  0  0  0  0  0  0  0  0  0  0  0
  144.2886   75.3584  220.6704 H   0  0  0  0  0  0  0  0  0  0  0  0
  145.9214   74.6743  220.2257 H   0  0  0  0  0  0  0  0  0  0  0  0
  144.4310   74.4400  218.7820 N   0  0  0  0  0  0  0  0  0  0  0  0
  144.3220   75.4110  218.4050 H   0  0  0  0  0  0  0  0  0  0  0  0
  145.1820   73.9630  218.2280 H   0  0  0  0  0  0  0  0  0  0  0  0
  143.1620   73.7190  218.6120 C   0  0  0  0  0  0  0  0  0  0  0  0
  142.3927   74.1978  219.2357 H   0  0  0  0  0  0  0  0  0  0  0  0
  142.8838   73.7568  217.5484 H   0  0  0  0  0  0  0  0  0  0  0  0
  141.1550   73.6070  220.6050 N   0  0  0  0  0  0  0  0  0  0  0  0
  141.5150   74.2050  219.8270 H   0  0  0  0  0  0  0  0  0  0  0  0
  140.9930   76.5500  220.9860 C   0  0  0  0  0  0  0  0  0  0  0  0
  142.0340   76.1290  220.1640 O   0  0  0  0  0  0  0  0  0  0  0  0
  140.7070   77.9180  221.0670 C   0  0  0  0  0  0  0  0  0  0  0  0
  141.3299   78.6409  220.5198 H   0  0  0  0  0  0  0  0  0  0  0  0
  1  2  1  0
  2  3  2  0
  3  4  1  0
  3  5  1  0
  5  6  1  0
  5  7  2  0
  7  8  1  0
  8  9  2  0
  9 10  1  0
 10 11  1  0
 11 12  1  0
 12 13  1  0
 12 14  1  0
 12 15  1  0
 15 16  2  0
 16 17  1  0
 16 18  1  0
 18 19  1  0
 18 20  2  0
 20 21  1  0
 20 22  1  0
 22 23  1  0
 22 24  2  0
 24 25  1  0
 25 26  1  0
 25 27  1  0
 25 28  1  0
 28 29  1  0
 28 30  1  0
 10 31  2  0
 31 32  1  0
 32 33  2  0
 33 34  1  0
 34 35  1  6
 34 36  1  0
 36 37  1  0
 36 38  1  0
 36 39  1  0
 39 40  1  0
 39 41  1  0
 39 42  1  0
 42 43  1  0
 42 44  1  0
 42 45  1  0
 45 46  1  0
 45 47  1  0
 45 48  1  0
 48 49  1  0
 48 50  1  0
 32 51  1  0
 51 52  1  0
  7 53  1  0
 53 54  1  0
 53 55  2  0
 55 56  1  0
 55  2  1  0
 51  8  1  0
 28 11  1  0
 48 34  1  0
 24 15  1  0
M  CHG  2  45   1  54  -1
M  END
>  <UniqueID>  (19) 
482

>  <SMILES>  (19) 
[O-]c1ccccc1-c1nc(N2CCc3ccccc3C2)n/c(=N\[C@@H]2CCC[NH2+]C2)[nH]1

>  <Energy>  (19) 
72.06465786596509

>  <Genealogy>  (19) 
[O-]c1ccccc1-c1nc(NC2CCC[NH2+]C2)nc(N2CCc3ccccc3C2)n1 (protonated)
[O-]c1ccccc1-c1nc(N2CCc3ccccc3C2)nc(=NC2CCC[NH2+]C2)[nH]1 (tautomer)
[O-]c1ccccc1-c1nc(N2CCc3ccccc3C2)nc(=N[C@@H]2CCC[NH2+]C2)[nH]1 (chirality)
[O-]c1ccccc1-c1nc(N2CCc3ccccc3C2)n/c(=N\[C@@H]2CCC[NH2+]C2)[nH]1 (cis-trans isomerization)
[O-]c1ccccc1-c1nc(N2CCc3ccccc3C2)n/c(=N\[C@@H]2CCC[NH2+]C2)[nH]1 (3D coordinates assigned)
[O-]c1ccccc1-c1nc(N2CCc3ccccc3C2)n/c(=N\[C@@H]2CCC[NH2+]C2)[nH]1 (nonaromatic ring conformer: 72.06465786596509 kcal/mol)

>  <smiles>  (19) 
Oc1ccccc1-c1nc(NC2CCCNC2)nc(N2CCc3ccccc3C2)n1

>  <score_type>  (19) 
oracle

>  <origin>  (19) 
autodockgpu

>  <m_score__min__energy>  (19) 
-7.8700000000000001

>  <m_primary>  (19) 
energy

>  <meeko>  (19) 
{"free_energy": -7.84, "intermolecular_energy": -9.03, "internal_energy": -2.31, "cluster_size": 12, "cluster_id": 1, "rank_in_cluster": 10}

>  <energy>  (19) 
-7.78

>  <cluster_rmsd>  (19) 
0.74

>  <rmsd>  (19) 
270.2

>  <cluster>  (19) 
2

$$$$
UQJJBYVBPBMERE-AOLYHIHGNA-N
     RDKit          3D

 56 60  0  0  0  0  0  0  0  0999 V2000
  146.3965   71.7552  218.5018 H   0  0  0  0  0  0  0  0  0  0  0  0
  145.4750   72.0030  219.0490 C   0  0  0  0  0  0  0  0  0  0  0  0
  144.7680   71.0000  219.7170 C   0  0  0  0  0  0  0  0  0  0  0  0
  145.1396   69.9647  219.7036 H   0  0  0  0  0  0  0  0  0  0  0  0
  143.5900   71.3090  220.4020 C   0  0  0  0  0  0  0  0  0  0  0  0
  143.0413   70.5160  220.9312 H   0  0  0  0  0  0  0  0  0  0  0  0
  143.1010   72.6290  220.4190 C   0  0  0  0  0  0  0  0  0  0  0  0
  141.8480   72.9250  221.1530 C   0  0  0  0  0  0  0  0  0  0  0  0
  141.4670   72.1110  222.1710 N   0  0  0  0  0  0  0  0  0  0  0  0
  140.3240   72.3480  222.8640 C   0  0  0  0  0  0  0  0  0  0  0  0
  139.9220   71.4640  223.9320 N   0  0  0  0  0  0  0  0  0  0  0  0
  140.4520   71.6730  225.2880 C   0  0  0  0  0  0  0  0  0  0  0  0
  139.8551   72.4530  225.7833 H   0  0  0  0  0  0  0  0  0  0  0  0
  141.5069   71.9695  225.1915 H   0  0  0  0  0  0  0  0  0  0  0  0
  140.4040   70.4190  226.1300 C   0  0  0  0  0  0  0  0  0  0  0  0
  140.9800   70.4400  227.4120 C   0  0  0  0  0  0  0  0  0  0  0  0
  141.4567   71.3602  227.7809 H   0  0  0  0  0  0  0  0  0  0  0  0
  140.9520   69.3010  228.2220 C   0  0  0  0  0  0  0  0  0  0  0  0
  141.4044   69.3279  229.2243 H   0  0  0  0  0  0  0  0  0  0  0  0
  140.3510   68.1310  227.7600 C   0  0  0  0  0  0  0  0  0  0  0  0
  140.3339   67.2340  228.3965 H   0  0  0  0  0  0  0  0  0  0  0  0
  139.7700   68.0960  226.4890 C   0  0  0  0  0  0  0  0  0  0  0  0
  139.3039   67.1677  226.1271 H   0  0  0  0  0  0  0  0  0  0  0  0
  139.7770   69.2370  225.6710 C   0  0  0  0  0  0  0  0  0  0  0  0
  139.2120   69.1510  224.2780 C   0  0  0  0  0  0  0  0  0  0  0  0
  138.3260   68.4992  224.2910 H   0  0  0  0  0  0  0  0  0  0  0  0
  139.9885   68.7422  223.6147 H   0  0  0  0  0  0  0  0  0  0  0  0
  138.8090   70.5250  223.7540 C   0  0  0  0  0  0  0  0  0  0  0  0
  137.9320   70.8866  224.3108 H   0  0  0  0  0  0  0  0  0  0  0  0
  138.5606   70.4505  222.6850 H   0  0  0  0  0  0  0  0  0  0  0  0
  139.5540   73.4130  222.5240 N   0  0  0  0  0  0  0  0  0  0  0  0
  139.9120   74.2300  221.4980 C   0  0  0  0  0  0  0  0  0  0  0  0
  139.1680   75.2440  221.1640 N   0  0  0  0  0  0  0  0  0  0  0  0
  139.6250   76.6360  221.1020 C   0  0  2  0  0  0  0  0  0  0  0  0
  138.9450   77.2817  221.6769 H   0  0  0  0  0  0  0  0  0  0  0  0
  139.6140   77.1100  219.6330 C   0  0  0  0  0  0  0  0  0  0  0  0
  138.8126   76.5849  219.0925 H   0  0  0  0  0  0  0  0  0  0  0  0
  139.4439   78.1967  219.6189 H   0  0  0  0  0  0  0  0  0  0  0  0
  140.9510   76.8200  218.9480 C   0  0  0  0  0  0  0  0  0  0  0  0
  141.1190   75.7329  218.9380 H   0  0  0  0  0  0  0  0  0  0  0  0
  140.9075   77.2193  217.9240 H   0  0  0  0  0  0  0  0  0  0  0  0
  142.1260   77.5030  219.6850 C   0  0  0  0  0  0  0  0  0  0  0  0
  142.9944   76.8284  219.6581 H   0  0  0  0  0  0  0  0  0  0  0  0
  142.3244   78.4547  219.1703 H   0  0  0  0  0  0  0  0  0  0  0  0
  141.8240   77.8230  221.0960 N   0  0  0  0  0  0  0  0  0  0  0  0
  142.7260   77.9360  221.6170 H   0  0  0  0  0  0  0  0  0  0  0  0
  141.3050   78.7310  221.1530 H   0  0  0  0  0  0  0  0  0  0  0  0
  141.0340   76.7650  221.7410 C   0  0  0  0  0  0  0  0  0  0  0  0
  141.5642   75.8072  221.6333 H   0  0  0  0  0  0  0  0  0  0  0  0
  140.9087   77.0266  222.8021 H   0  0  0  0  0  0  0  0  0  0  0  0
  141.0560   73.9790  220.8050 N   0  0  0  0  0  0  0  0  0  0  0  0
  141.3030   74.5820  219.9880 H   0  0  0  0  0  0  0  0  0  0  0  0
  143.8380   73.6410  219.7670 C   0  0  0  0  0  0  0  0  0  0  0  0
  143.4340   74.9720  219.8200 O   0  0  0  0  0  0  0  0  0  0  0  0
  145.0120   73.3190  219.0760 C   0  0  0  0  0  0  0  0  0  0  0  0
  145.5722   74.1072  218.5518 H   0  0  0  0  0  0  0  0  0  0  0  0
  1  2  1  0
  2  3  2  0
  3  4  1  0
  3  5  1  0
  5  6  1  0
  5  7  2  0
  7  8  1  0
  8  9  2  0
  9 10  1  0
 10 11  1  0
 11 12  1  0
 12 13  1  0
 12 14  1  0
 12 15  1  0
 15 16  2  0
 16 17  1  0
 16 18  1  0
 18 19  1  0
 18 20  2  0
 20 21  1  0
 20 22  1  0
 22 23  1  0
 22 24  2  0
 24 25  1  0
 25 26  1  0
 25 27  1  0
 25 28  1  0
 28 29  1  0
 28 30  1  0
 10 31  2  0
 31 32  1  0
 32 33  2  0
 33 34  1  0
 34 35  1  1
 34 36  1  0
 36 37  1  0
 36 38  1  0
 36 39  1  0
 39 40  1  0
 39 41  1  0
 39 42  1  0
 42 43  1  0
 42 44  1  0
 42 45  1  0
 45 46  1  0
 45 47  1  0
 45 48  1  0
 48 49  1  0
 48 50  1  0
 32 51  1  0
 51 52  1  0
  7 53  1  0
 53 54  1  0
 53 55  2  0
 55 56  1  0
 55  2  1  0
 51  8  1  0
 28 11  1  0
 48 34  1  0
 24 15  1  0
M  CHG  2  45   1  54  -1
M  END
>  <UniqueID>  (20) 
482

>  <SMILES>  (20) 
[O-]c1ccccc1-c1nc(N2CCc3ccccc3C2)n/c(=N\[C@@H]2CCC[NH2+]C2)[nH]1

>  <Energy>  (20) 
72.06465786596509

>  <Genealogy>  (20) 
[O-]c1ccccc1-c1nc(NC2CCC[NH2+]C2)nc(N2CCc3ccccc3C2)n1 (protonated)
[O-]c1ccccc1-c1nc(N2CCc3ccccc3C2)nc(=NC2CCC[NH2+]C2)[nH]1 (tautomer)
[O-]c1ccccc1-c1nc(N2CCc3ccccc3C2)nc(=N[C@@H]2CCC[NH2+]C2)[nH]1 (chirality)
[O-]c1ccccc1-c1nc(N2CCc3ccccc3C2)n/c(=N\[C@@H]2CCC[NH2+]C2)[nH]1 (cis-trans isomerization)
[O-]c1ccccc1-c1nc(N2CCc3ccccc3C2)n/c(=N\[C@@H]2CCC[NH2+]C2)[nH]1 (3D coordinates assigned)
[O-]c1ccccc1-c1nc(N2CCc3ccccc3C2)n/c(=N\[C@@H]2CCC[NH2+]C2)[nH]1 (nonaromatic ring conformer: 72.06465786596509 kcal/mol)

>  <smiles>  (20) 
Oc1ccccc1-c1nc(NC2CCCNC2)nc(N2CCc3ccccc3C2)n1

>  <score_type>  (20) 
oracle

>  <origin>  (20) 
autodockgpu

>  <m_score__min__energy>  (20) 
-7.8700000000000001

>  <m_primary>  (20) 
energy

>  <meeko>  (20) 
{"free_energy": -7.78, "intermolecular_energy": -8.97, "internal_energy": -2.25, "cluster_size": 8, "cluster_id": 2, "rank_in_cluster": 7}

>  <energy>  (20) 
-7.77

>  <cluster_rmsd>  (20) 
0.55

>  <rmsd>  (20) 
269.97

>  <cluster>  (20) 
2

$$$$
UQJJBYVBPBMERE-AOLYHIHGNA-N
     RDKit          3D

 56 60  0  0  0  0  0  0  0  0999 V2000
  139.4639   79.4815  221.9928 H   0  0  0  0  0  0  0  0  0  0  0  0
  139.6710   78.4040  221.9150 C   0  0  0  0  0  0  0  0  0  0  0  0
  138.8650   77.4870  222.5940 C   0  0  0  0  0  0  0  0  0  0  0  0
  138.0170   77.8430  223.1975 H   0  0  0  0  0  0  0  0  0  0  0  0
  139.1340   76.1180  222.5080 C   0  0  0  0  0  0  0  0  0  0  0  0
  138.4928   75.4005  223.0409 H   0  0  0  0  0  0  0  0  0  0  0  0
  140.2200   75.6520  221.7440 C   0  0  0  0  0  0  0  0  0  0  0  0
  140.4800   74.1950  221.6730 C   0  0  0  0  0  0  0  0  0  0  0  0
  140.0830   73.3990  222.6990 N   0  0  0  0  0  0  0  0  0  0  0  0
  140.3080   72.0600  222.6720 C   0  0  0  0  0  0  0  0  0  0  0  0
  139.8970   71.2290  223.7770 N   0  0  0  0  0  0  0  0  0  0  0  0
  140.3920   71.5210  225.1300 C   0  0  0  0  0  0  0  0  0  0  0  0
  139.7705   72.3156  225.5686 H   0  0  0  0  0  0  0  0  0  0  0  0
  141.4435   71.8311  225.0401 H   0  0  0  0  0  0  0  0  0  0  0  0
  140.3470   70.3140  226.0390 C   0  0  0  0  0  0  0  0  0  0  0  0
  140.8930   70.4150  227.3300 C   0  0  0  0  0  0  0  0  0  0  0  0
  141.3456   71.3624  227.6580 H   0  0  0  0  0  0  0  0  0  0  0  0
  140.8660   69.3220  228.2010 C   0  0  0  0  0  0  0  0  0  0  0  0
  141.2950   69.4124  229.2099 H   0  0  0  0  0  0  0  0  0  0  0  0
  140.2960   68.1180  227.7920 C   0  0  0  0  0  0  0  0  0  0  0  0
  140.2802   67.2571  228.4765 H   0  0  0  0  0  0  0  0  0  0  0  0
  139.7440   68.0030  226.5120 C   0  0  0  0  0  0  0  0  0  0  0  0
  139.3012   67.0482  226.1921 H   0  0  0  0  0  0  0  0  0  0  0  0
  139.7510   69.0980  225.6320 C   0  0  0  0  0  0  0  0  0  0  0  0
  139.2200   68.9240  224.2350 C   0  0  0  0  0  0  0  0  0  0  0  0
  138.3455   68.2574  224.2649 H   0  0  0  0  0  0  0  0  0  0  0  0
  140.0180   68.4933  223.6124 H   0  0  0  0  0  0  0  0  0  0  0  0
  138.8050   70.2600  223.6270 C   0  0  0  0  0  0  0  0  0  0  0  0
  137.9092   70.6349  224.1437 H   0  0  0  0  0  0  0  0  0  0  0  0
  138.5829   70.1221  222.5585 H   0  0  0  0  0  0  0  0  0  0  0  0
  140.9440   71.5190  221.6020 N   0  0  0  0  0  0  0  0  0  0  0  0
  141.3630   72.3030  220.5730 C   0  0  0  0  0  0  0  0  0  0  0  0
  141.9830   71.7860  219.5520 N   0  0  0  0  0  0  0  0  0  0  0  0
  143.2710   72.2510  219.0270 C   0  0  2  0  0  0  0  0  0  0  0  0
  143.5447   71.6733  218.1318 H   0  0  0  0  0  0  0  0  0  0  0  0
  144.3630   72.0320  220.0950 C   0  0  0  0  0  0  0  0  0  0  0  0
  144.1008   71.1522  220.7010 H   0  0  0  0  0  0  0  0  0  0  0  0
  145.3246   71.8782  219.5834 H   0  0  0  0  0  0  0  0  0  0  0  0
  144.4920   73.2500  221.0130 C   0  0  0  0  0  0  0  0  0  0  0  0
  143.5415   73.3979  221.5465 H   0  0  0  0  0  0  0  0  0  0  0  0
  145.3131   73.0635  221.7208 H   0  0  0  0  0  0  0  0  0  0  0  0
  144.8230   74.5300  220.2120 C   0  0  0  0  0  0  0  0  0  0  0  0
  144.2836   75.3746  220.6655 H   0  0  0  0  0  0  0  0  0  0  0  0
  145.9140   74.6652  220.2510 H   0  0  0  0  0  0  0  0  0  0  0  0
  144.4440   74.4430  218.7860 N   0  0  0  0  0  0  0  0  0  0  0  0
  144.3550   75.4130  218.4010 H   0  0  0  0  0  0  0  0  0  0  0  0
  145.1960   73.9530  218.2470 H   0  0  0  0  0  0  0  0  0  0  0  0
  143.1680   73.7390  218.6000 C   0  0  0  0  0  0  0  0  0  0  0  0
  142.3957   74.2326  219.2082 H   0  0  0  0  0  0  0  0  0  0  0  0
  142.9075   73.7739  217.5319 H   0  0  0  0  0  0  0  0  0  0  0  0
  141.1390   73.6450  220.6140 N   0  0  0  0  0  0  0  0  0  0  0  0
  141.5030   74.2490  219.8420 H   0  0  0  0  0  0  0  0  0  0  0  0
  141.0110   76.5840  221.0380 C   0  0  0  0  0  0  0  0  0  0  0  0
  142.0480   76.1640  220.2110 O   0  0  0  0  0  0  0  0  0  0  0  0
  140.7390   77.9530  221.1380 C   0  0  0  0  0  0  0  0  0  0  0  0
  141.3699   78.6771  220.6017 H   0  0  0  0  0  0  0  0  0  0  0  0
  1  2  1  0
  2  3  2  0
  3  4  1  0
  3  5  1  0
  5  6  1  0
  5  7  2  0
  7  8  1  0
  8  9  2  0
  9 10  1  0
 10 11  1  0
 11 12  1  0
 12 13  1  0
 12 14  1  0
 12 15  1  0
 15 16  2  0
 16 17  1  0
 16 18  1  0
 18 19  1  0
 18 20  2  0
 20 21  1  0
 20 22  1  0
 22 23  1  0
 22 24  2  0
 24 25  1  0
 25 26  1  0
 25 27  1  0
 25 28  1  0
 28 29  1  0
 28 30  1  0
 10 31  2  0
 31 32  1  0
 32 33  2  0
 33 34  1  0
 34 35  1  6
 34 36  1  0
 36 37  1  0
 36 38  1  0
 36 39  1  0
 39 40  1  0
 39 41  1  0
 39 42  1  0
 42 43  1  0
 42 44  1  0
 42 45  1  0
 45 46  1  0
 45 47  1  0
 45 48  1  0
 48 49  1  0
 48 50  1  0
 32 51  1  0
 51 52  1  0
  7 53  1  0
 53 54  1  0
 53 55  2  0
 55 56  1  0
 55  2  1  0
 51  8  1  0
 28 11  1  0
 48 34  1  0
 24 15  1  0
M  CHG  2  45   1  54  -1
M  END
>  <UniqueID>  (21) 
483

>  <SMILES>  (21) 
[O-]c1ccccc1-c1nc(N2CCc3ccccc3C2)n/c(=N\[C@@H]2CCC[NH2+]C2)[nH]1

>  <Energy>  (21) 
72.62298009940868

>  <Genealogy>  (21) 
[O-]c1ccccc1-c1nc(NC2CCC[NH2+]C2)nc(N2CCc3ccccc3C2)n1 (protonated)
[O-]c1ccccc1-c1nc(N2CCc3ccccc3C2)nc(=NC2CCC[NH2+]C2)[nH]1 (tautomer)
[O-]c1ccccc1-c1nc(N2CCc3ccccc3C2)nc(=N[C@@H]2CCC[NH2+]C2)[nH]1 (chirality)
[O-]c1ccccc1-c1nc(N2CCc3ccccc3C2)n/c(=N\[C@@H]2CCC[NH2+]C2)[nH]1 (cis-trans isomerization)
[O-]c1ccccc1-c1nc(N2CCc3ccccc3C2)n/c(=N\[C@@H]2CCC[NH2+]C2)[nH]1 (3D coordinates assigned)
[O-]c1ccccc1-c1nc(N2CCc3ccccc3C2)n/c(=N\[C@@H]2CCC[NH2+]C2)[nH]1 (nonaromatic ring conformer: 72.62298009940868 kcal/mol)

>  <smiles>  (21) 
Oc1ccccc1-c1nc(NC2CCCNC2)nc(N2CCc3ccccc3C2)n1

>  <score_type>  (21) 
oracle

>  <origin>  (21) 
autodockgpu

>  <m_score__min__energy>  (21) 
-7.8700000000000001

>  <m_primary>  (21) 
energy

>  <meeko>  (21) 
{"free_energy": -7.81, "intermolecular_energy": -9.01, "internal_energy": -2.32, "cluster_size": 12, "cluster_id": 1, "rank_in_cluster": 12}

>  <energy>  (21) 
-7.87

>  <cluster_rmsd>  (21) 
0.0

>  <rmsd>  (21) 
270.17

>  <cluster>  (21) 
1

$$$$
UQJJBYVBPBMERE-AOLYHIHGNA-N
     RDKit          3D

 56 60  0  0  0  0  0  0  0  0999 V2000
  139.4420   79.4489  221.8318 H   0  0  0  0  0  0  0  0  0  0  0  0
  139.6610   78.3720  221.7840 C   0  0  0  0  0  0  0  0  0  0  0  0
  138.8610   77.4650  222.4830 C   0  0  0  0  0  0  0  0  0  0  0  0
  138.0063   77.8282  223.0726 H   0  0  0  0  0  0  0  0  0  0  0  0
  139.1440   76.0970  222.4350 C   0  0  0  0  0  0  0  0  0  0  0  0
  138.5065   75.3873  222.9826 H   0  0  0  0  0  0  0  0  0  0  0  0
  140.2400   75.6220  221.6900 C   0  0  0  0  0  0  0  0  0  0  0  0
  140.5150   74.1670  221.6590 C   0  0  0  0  0  0  0  0  0  0  0  0
  140.1190   73.3940  222.7030 N   0  0  0  0  0  0  0  0  0  0  0  0
  140.3570   72.0570  222.7130 C   0  0  0  0  0  0  0  0  0  0  0  0
  139.9470   71.2510  223.8370 N   0  0  0  0  0  0  0  0  0  0  0  0
  140.4830   71.5410  225.1740 C   0  0  0  0  0  0  0  0  0  0  0  0
  139.8978   72.3596  225.6183 H   0  0  0  0  0  0  0  0  0  0  0  0
  141.5414   71.8165  225.0562 H   0  0  0  0  0  0  0  0  0  0  0  0
  140.4210   70.3450  226.0970 C   0  0  0  0  0  0  0  0  0  0  0  0
  141.0010   70.4430  227.3740 C   0  0  0  0  0  0  0  0  0  0  0  0
  141.4908   71.3790  227.6806 H   0  0  0  0  0  0  0  0  0  0  0  0
  140.9600   69.3600  228.2570 C   0  0  0  0  0  0  0  0  0  0  0  0
  141.4160   69.4465  229.2543 H   0  0  0  0  0  0  0  0  0  0  0  0
  140.3420   68.1710  227.8750 C   0  0  0  0  0  0  0  0  0  0  0  0
  140.3147   67.3184  228.5695 H   0  0  0  0  0  0  0  0  0  0  0  0
  139.7560   68.0600  226.6090 C   0  0  0  0  0  0  0  0  0  0  0  0
  139.2758   67.1166  226.3100 H   0  0  0  0  0  0  0  0  0  0  0  0
  139.7770   69.1450  225.7180 C   0  0  0  0  0  0  0  0  0  0  0  0
  139.2070   68.9750  224.3360 C   0  0  0  0  0  0  0  0  0  0  0  0
  138.3123   68.3377  224.3940 H   0  0  0  0  0  0  0  0  0  0  0  0
  139.9758   68.5126  223.6995 H   0  0  0  0  0  0  0  0  0  0  0  0
  138.8210   70.3170  223.7230 C   0  0  0  0  0  0  0  0  0  0  0  0
  137.9502   70.7263  224.2561 H   0  0  0  0  0  0  0  0  0  0  0  0
  138.5691   70.1755  222.6616 H   0  0  0  0  0  0  0  0  0  0  0  0
  141.0080   71.4940  221.6620 N   0  0  0  0  0  0  0  0  0  0  0  0
  141.4260   72.2550  220.6160 C   0  0  0  0  0  0  0  0  0  0  0  0
  142.0580   71.7180  219.6130 N   0  0  0  0  0  0  0  0  0  0  0  0
  143.3240   72.2090  219.0580 C   0  0  2  0  0  0  0  0  0  0  0  0
  143.5884   71.6367  218.1566 H   0  0  0  0  0  0  0  0  0  0  0  0
  144.4460   72.0120  220.0990 C   0  0  0  0  0  0  0  0  0  0  0  0
  144.2166   71.1271  220.7108 H   0  0  0  0  0  0  0  0  0  0  0  0
  145.3979   71.8773  219.5644 H   0  0  0  0  0  0  0  0  0  0  0  0
  144.5720   73.2330  221.0140 C   0  0  0  0  0  0  0  0  0  0  0  0
  143.6315   73.3616  221.5699 H   0  0  0  0  0  0  0  0  0  0  0  0
  145.4135   73.0633  221.7018 H   0  0  0  0  0  0  0  0  0  0  0  0
  144.8580   74.5200  220.2060 C   0  0  0  0  0  0  0  0  0  0  0  0
  144.3130   75.3537  220.6729 H   0  0  0  0  0  0  0  0  0  0  0  0
  145.9466   74.6774  220.2188 H   0  0  0  0  0  0  0  0  0  0  0  0
  144.4460   74.4250  218.7890 N   0  0  0  0  0  0  0  0  0  0  0  0
  144.3280   75.3930  218.4070 H   0  0  0  0  0  0  0  0  0  0  0  0
  145.1950   73.9500  218.2320 H   0  0  0  0  0  0  0  0  0  0  0  0
  143.1800   73.6950  218.6340 C   0  0  0  0  0  0  0  0  0  0  0  0
  142.4129   74.1728  219.2611 H   0  0  0  0  0  0  0  0  0  0  0  0
  142.8926   73.7245  217.5726 H   0  0  0  0  0  0  0  0  0  0  0  0
  141.1880   73.5950  220.6200 N   0  0  0  0  0  0  0  0  0  0  0  0
  141.5510   74.1830  219.8350 H   0  0  0  0  0  0  0  0  0  0  0  0
  141.0250   76.5430  220.9630 C   0  0  0  0  0  0  0  0  0  0  0  0
  142.0720   76.1130  220.1530 O   0  0  0  0  0  0  0  0  0  0  0  0
  140.7380   77.9120  221.0250 C   0  0  0  0  0  0  0  0  0  0  0  0
  141.3643   78.6282  220.4729 H   0  0  0  0  0  0  0  0  0  0  0  0
  1  2  1  0
  2  3  2  0
  3  4  1  0
  3  5  1  0
  5  6  1  0
  5  7  2  0
  7  8  1  0
  8  9  2  0
  9 10  1  0
 10 11  1  0
 11 12  1  0
 12 13  1  0
 12 14  1  0
 12 15  1  0
 15 16  2  0
 16 17  1  0
 16 18  1  0
 18 19  1  0
 18 20  2  0
 20 21  1  0
 20 22  1  0
 22 23  1  0
 22 24  2  0
 24 25  1  0
 25 26  1  0
 25 27  1  0
 25 28  1  0
 28 29  1  0
 28 30  1  0
 10 31  2  0
 31 32  1  0
 32 33  2  0
 33 34  1  0
 34 35  1  6
 34 36  1  0
 36 37  1  0
 36 38  1  0
 36 39  1  0
 39 40  1  0
 39 41  1  0
 39 42  1  0
 42 43  1  0
 42 44  1  0
 42 45  1  0
 45 46  1  0
 45 47  1  0
 45 48  1  0
 48 49  1  0
 48 50  1  0
 32 51  1  0
 51 52  1  0
  7 53  1  0
 53 54  1  0
 53 55  2  0
 55 56  1  0
 55  2  1  0
 51  8  1  0
 28 11  1  0
 48 34  1  0
 24 15  1  0
M  CHG  2  45   1  54  -1
M  END
>  <UniqueID>  (22) 
483

>  <SMILES>  (22) 
[O-]c1ccccc1-c1nc(N2CCc3ccccc3C2)n/c(=N\[C@@H]2CCC[NH2+]C2)[nH]1

>  <Energy>  (22) 
72.62298009940868

>  <Genealogy>  (22) 
[O-]c1ccccc1-c1nc(NC2CCC[NH2+]C2)nc(N2CCc3ccccc3C2)n1 (protonated)
[O-]c1ccccc1-c1nc(N2CCc3ccccc3C2)nc(=NC2CCC[NH2+]C2)[nH]1 (tautomer)
[O-]c1ccccc1-c1nc(N2CCc3ccccc3C2)nc(=N[C@@H]2CCC[NH2+]C2)[nH]1 (chirality)
[O-]c1ccccc1-c1nc(N2CCc3ccccc3C2)n/c(=N\[C@@H]2CCC[NH2+]C2)[nH]1 (cis-trans isomerization)
[O-]c1ccccc1-c1nc(N2CCc3ccccc3C2)n/c(=N\[C@@H]2CCC[NH2+]C2)[nH]1 (3D coordinates assigned)
[O-]c1ccccc1-c1nc(N2CCc3ccccc3C2)n/c(=N\[C@@H]2CCC[NH2+]C2)[nH]1 (nonaromatic ring conformer: 72.62298009940868 kcal/mol)

>  <smiles>  (22) 
Oc1ccccc1-c1nc(NC2CCCNC2)nc(N2CCc3ccccc3C2)n1

>  <score_type>  (22) 
oracle

>  <origin>  (22) 
autodockgpu

>  <m_score__min__energy>  (22) 
-7.8700000000000001

>  <m_primary>  (22) 
energy

>  <meeko>  (22) 
{"free_energy": -7.85, "intermolecular_energy": -9.05, "internal_energy": -2.29, "cluster_size": 12, "cluster_id": 1, "rank_in_cluster": 3}

>  <energy>  (22) 
-7.86

>  <cluster_rmsd>  (22) 
0.34

>  <rmsd>  (22) 
270.16

>  <cluster>  (22) 
1

$$$$
UQJJBYVBPBMERE-AOLYHIHGNA-N
     RDKit          3D

 56 60  0  0  0  0  0  0  0  0999 V2000
  139.4062   79.4606  221.8982 H   0  0  0  0  0  0  0  0  0  0  0  0
  139.6290   78.3850  221.8400 C   0  0  0  0  0  0  0  0  0  0  0  0
  138.8290   77.4680  222.5250 C   0  0  0  0  0  0  0  0  0  0  0  0
  137.9700   77.8219  223.1140 H   0  0  0  0  0  0  0  0  0  0  0  0
  139.1170   76.1020  222.4640 C   0  0  0  0  0  0  0  0  0  0  0  0
  138.4791   75.3846  223.0010 H   0  0  0  0  0  0  0  0  0  0  0  0
  140.2180   75.6380  221.7200 C   0  0  0  0  0  0  0  0  0  0  0  0
  140.4990   74.1840  221.6760 C   0  0  0  0  0  0  0  0  0  0  0  0
  140.1090   73.4010  222.7140 N   0  0  0  0  0  0  0  0  0  0  0  0
  140.3530   72.0650  222.7110 C   0  0  0  0  0  0  0  0  0  0  0  0
  139.9480   71.2470  223.8290 N   0  0  0  0  0  0  0  0  0  0  0  0
  140.4720   71.5410  225.1720 C   0  0  0  0  0  0  0  0  0  0  0  0
  139.8703   72.3475  225.6164 H   0  0  0  0  0  0  0  0  0  0  0  0
  141.5261   71.8355  225.0617 H   0  0  0  0  0  0  0  0  0  0  0  0
  140.4250   70.3400  226.0890 C   0  0  0  0  0  0  0  0  0  0  0  0
  140.9950   70.4420  227.3700 C   0  0  0  0  0  0  0  0  0  0  0  0
  141.4670   71.3849  227.6834 H   0  0  0  0  0  0  0  0  0  0  0  0
  140.9670   69.3550  228.2490 C   0  0  0  0  0  0  0  0  0  0  0  0
  141.4152   69.4447  229.2495 H   0  0  0  0  0  0  0  0  0  0  0  0
  140.3710   68.1580  227.8570 C   0  0  0  0  0  0  0  0  0  0  0  0
  140.3536   67.3017  228.5473 H   0  0  0  0  0  0  0  0  0  0  0  0
  139.7950   68.0430  226.5880 C   0  0  0  0  0  0  0  0  0  0  0  0
  139.3324   67.0930  226.2822 H   0  0  0  0  0  0  0  0  0  0  0  0
  139.8030   69.1310  225.7020 C   0  0  0  0  0  0  0  0  0  0  0  0
  139.2440   68.9570  224.3150 C   0  0  0  0  0  0  0  0  0  0  0  0
  138.3599   68.3044  224.3650 H   0  0  0  0  0  0  0  0  0  0  0  0
  140.0243   68.5103  223.6814 H   0  0  0  0  0  0  0  0  0  0  0  0
  138.8390   70.2950  223.7050 C   0  0  0  0  0  0  0  0  0  0  0  0
  137.9584   70.6875  224.2347 H   0  0  0  0  0  0  0  0  0  0  0  0
  138.5957   70.1535  222.6416 H   0  0  0  0  0  0  0  0  0  0  0  0
  141.0010   71.5140  221.6530 N   0  0  0  0  0  0  0  0  0  0  0  0
  141.4130   72.2860  220.6120 C   0  0  0  0  0  0  0  0  0  0  0  0
  142.0440   71.7600  219.6030 N   0  0  0  0  0  0  0  0  0  0  0  0
  143.3130   72.2520  219.0560 C   0  0  2  0  0  0  0  0  0  0  0  0
  143.5748   71.6922  218.1460 H   0  0  0  0  0  0  0  0  0  0  0  0
  144.4330   72.0330  220.0940 C   0  0  0  0  0  0  0  0  0  0  0  0
  144.1984   71.1399  220.6918 H   0  0  0  0  0  0  0  0  0  0  0  0
  145.3842   71.9019  219.5573 H   0  0  0  0  0  0  0  0  0  0  0  0
  144.5660   73.2380  221.0280 C   0  0  0  0  0  0  0  0  0  0  0  0
  143.6264   73.3629  221.5861 H   0  0  0  0  0  0  0  0  0  0  0  0
  145.4068   73.0525  221.7126 H   0  0  0  0  0  0  0  0  0  0  0  0
  144.8590   74.5360  220.2410 C   0  0  0  0  0  0  0  0  0  0  0  0
  144.3183   75.3649  220.7211 H   0  0  0  0  0  0  0  0  0  0  0  0
  145.9484   74.6874  220.2565 H   0  0  0  0  0  0  0  0  0  0  0  0
  144.4470   74.4660  218.8230 N   0  0  0  0  0  0  0  0  0  0  0  0
  144.3340   75.4410  218.4560 H   0  0  0  0  0  0  0  0  0  0  0  0
  145.1930   73.9960  218.2580 H   0  0  0  0  0  0  0  0  0  0  0  0
  143.1770   73.7460  218.6560 C   0  0  0  0  0  0  0  0  0  0  0  0
  142.4125   74.2178  219.2908 H   0  0  0  0  0  0  0  0  0  0  0  0
  142.8897   73.7945  217.5953 H   0  0  0  0  0  0  0  0  0  0  0  0
  141.1700   73.6250  220.6290 N   0  0  0  0  0  0  0  0  0  0  0  0
  141.5290   74.2200  219.8490 H   0  0  0  0  0  0  0  0  0  0  0  0
  141.0040   76.5700  221.0070 C   0  0  0  0  0  0  0  0  0  0  0  0
  142.0560   76.1510  220.1980 O   0  0  0  0  0  0  0  0  0  0  0  0
  140.7120   77.9360  221.0810 C   0  0  0  0  0  0  0  0  0  0  0  0
  141.3382   78.6599  220.5389 H   0  0  0  0  0  0  0  0  0  0  0  0
  1  2  1  0
  2  3  2  0
  3  4  1  0
  3  5  1  0
  5  6  1  0
  5  7  2  0
  7  8  1  0
  8  9  2  0
  9 10  1  0
 10 11  1  0
 11 12  1  0
 12 13  1  0
 12 14  1  0
 12 15  1  0
 15 16  2  0
 16 17  1  0
 16 18  1  0
 18 19  1  0
 18 20  2  0
 20 21  1  0
 20 22  1  0
 22 23  1  0
 22 24  2  0
 24 25  1  0
 25 26  1  0
 25 27  1  0
 25 28  1  0
 28 29  1  0
 28 30  1  0
 10 31  2  0
 31 32  1  0
 32 33  2  0
 33 34  1  0
 34 35  1  6
 34 36  1  0
 36 37  1  0
 36 38  1  0
 36 39  1  0
 39 40  1  0
 39 41  1  0
 39 42  1  0
 42 43  1  0
 42 44  1  0
 42 45  1  0
 45 46  1  0
 45 47  1  0
 45 48  1  0
 48 49  1  0
 48 50  1  0
 32 51  1  0
 51 52  1  0
  7 53  1  0
 53 54  1  0
 53 55  2  0
 55 56  1  0
 55  2  1  0
 51  8  1  0
 28 11  1  0
 48 34  1  0
 24 15  1  0
M  CHG  2  45   1  54  -1
M  END
>  <UniqueID>  (23) 
483

>  <SMILES>  (23) 
[O-]c1ccccc1-c1nc(N2CCc3ccccc3C2)n/c(=N\[C@@H]2CCC[NH2+]C2)[nH]1

>  <Energy>  (23) 
72.62298009940868

>  <Genealogy>  (23) 
[O-]c1ccccc1-c1nc(NC2CCC[NH2+]C2)nc(N2CCc3ccccc3C2)n1 (protonated)
[O-]c1ccccc1-c1nc(N2CCc3ccccc3C2)nc(=NC2CCC[NH2+]C2)[nH]1 (tautomer)
[O-]c1ccccc1-c1nc(N2CCc3ccccc3C2)nc(=N[C@@H]2CCC[NH2+]C2)[nH]1 (chirality)
[O-]c1ccccc1-c1nc(N2CCc3ccccc3C2)n/c(=N\[C@@H]2CCC[NH2+]C2)[nH]1 (cis-trans isomerization)
[O-]c1ccccc1-c1nc(N2CCc3ccccc3C2)n/c(=N\[C@@H]2CCC[NH2+]C2)[nH]1 (3D coordinates assigned)
[O-]c1ccccc1-c1nc(N2CCc3ccccc3C2)n/c(=N\[C@@H]2CCC[NH2+]C2)[nH]1 (nonaromatic ring conformer: 72.62298009940868 kcal/mol)

>  <smiles>  (23) 
Oc1ccccc1-c1nc(NC2CCCNC2)nc(N2CCc3ccccc3C2)n1

>  <score_type>  (23) 
oracle

>  <origin>  (23) 
autodockgpu

>  <m_score__min__energy>  (23) 
-7.8700000000000001

>  <m_primary>  (23) 
energy

>  <meeko>  (23) 
{"free_energy": -7.86, "intermolecular_energy": -9.05, "internal_energy": -2.29, "cluster_size": 12, "cluster_id": 1, "rank_in_cluster": 2}

>  <energy>  (23) 
-7.85

>  <cluster_rmsd>  (23) 
0.32

>  <rmsd>  (23) 
270.15

>  <cluster>  (23) 
1

$$$$
UQJJBYVBPBMERE-AOLYHIHGNA-N
     RDKit          3D

 56 60  0  0  0  0  0  0  0  0999 V2000
  139.9570   79.4522  221.7837 H   0  0  0  0  0  0  0  0  0  0  0  0
  140.1160   78.3650  221.7320 C   0  0  0  0  0  0  0  0  0  0  0  0
  139.2710   77.5010  222.4330 C   0  0  0  0  0  0  0  0  0  0  0  0
  138.4407   77.9088  223.0281 H   0  0  0  0  0  0  0  0  0  0  0  0
  139.4780   76.1200  222.3800 C   0  0  0  0  0  0  0  0  0  0  0  0
  138.8049   75.4449  222.9288 H   0  0  0  0  0  0  0  0  0  0  0  0
  140.5420   75.5880  221.6290 C   0  0  0  0  0  0  0  0  0  0  0  0
  140.7360   74.1190  221.5930 C   0  0  0  0  0  0  0  0  0  0  0  0
  140.3060   73.3670  222.6390 N   0  0  0  0  0  0  0  0  0  0  0  0
  140.4710   72.0190  222.6440 C   0  0  0  0  0  0  0  0  0  0  0  0
  140.0250   71.2340  223.7700 N   0  0  0  0  0  0  0  0  0  0  0  0
  140.5620   71.5140  225.1100 C   0  0  0  0  0  0  0  0  0  0  0  0
  140.0020   72.3546  225.5456 H   0  0  0  0  0  0  0  0  0  0  0  0
  141.6299   71.7531  224.9981 H   0  0  0  0  0  0  0  0  0  0  0  0
  140.4530   70.3260  226.0390 C   0  0  0  0  0  0  0  0  0  0  0  0
  141.0270   70.4110  227.3190 C   0  0  0  0  0  0  0  0  0  0  0  0
  141.5467   71.3314  227.6237 H   0  0  0  0  0  0  0  0  0  0  0  0
  140.9430   69.3360  228.2080 C   0  0  0  0  0  0  0  0  0  0  0  0
  141.3954   69.4125  229.2077 H   0  0  0  0  0  0  0  0  0  0  0  0
  140.2860   68.1670  227.8280 C   0  0  0  0  0  0  0  0  0  0  0  0
  140.2238   67.3201  228.5272 H   0  0  0  0  0  0  0  0  0  0  0  0
  139.7060   68.0690  226.5600 C   0  0  0  0  0  0  0  0  0  0  0  0
  139.1957   67.1408  226.2633 H   0  0  0  0  0  0  0  0  0  0  0  0
  139.7700   69.1470  225.6620 C   0  0  0  0  0  0  0  0  0  0  0  0
  139.2040   68.9880  224.2770 C   0  0  0  0  0  0  0  0  0  0  0  0
  138.2878   68.3817  224.3323 H   0  0  0  0  0  0  0  0  0  0  0  0
  139.9607   68.4958  223.6484 H   0  0  0  0  0  0  0  0  0  0  0  0
  138.8680   70.3390  223.6540 C   0  0  0  0  0  0  0  0  0  0  0  0
  138.0086   70.7811  224.1793 H   0  0  0  0  0  0  0  0  0  0  0  0
  138.6176   70.2002  222.5919 H   0  0  0  0  0  0  0  0  0  0  0  0
  141.0800   71.4240  221.5870 N   0  0  0  0  0  0  0  0  0  0  0  0
  141.5320   72.1630  220.5390 C   0  0  0  0  0  0  0  0  0  0  0  0
  142.1260   71.5940  219.5310 N   0  0  0  0  0  0  0  0  0  0  0  0
  143.4390   71.9790  219.0020 C   0  0  2  0  0  0  0  0  0  0  0  0
  143.6694   71.3938  218.0995 H   0  0  0  0  0  0  0  0  0  0  0  0
  144.5210   71.6780  220.0600 C   0  0  0  0  0  0  0  0  0  0  0  0
  144.2059   70.8106  220.6586 H   0  0  0  0  0  0  0  0  0  0  0  0
  145.4673   71.4677  219.5400 H   0  0  0  0  0  0  0  0  0  0  0  0
  144.7350   72.8750  220.9900 C   0  0  0  0  0  0  0  0  0  0  0  0
  143.7995   73.0787  221.5316 H   0  0  0  0  0  0  0  0  0  0  0  0
  145.5466   72.6276  221.6900 H   0  0  0  0  0  0  0  0  0  0  0  0
  145.1440   74.1400  220.2000 C   0  0  0  0  0  0  0  0  0  0  0  0
  144.6640   75.0130  220.6664 H   0  0  0  0  0  0  0  0  0  0  0  0
  146.2417   74.2030  220.2326 H   0  0  0  0  0  0  0  0  0  0  0  0
  144.7510   74.0940  218.7760 N   0  0  0  0  0  0  0  0  0  0  0  0
  144.7220   75.0720  218.4010 H   0  0  0  0  0  0  0  0  0  0  0  0
  145.4660   73.5610  218.2260 H   0  0  0  0  0  0  0  0  0  0  0  0
  143.4300   73.4760  218.5910 C   0  0  0  0  0  0  0  0  0  0  0  0
  142.6950   74.0119  219.2095 H   0  0  0  0  0  0  0  0  0  0  0  0
  143.1658   73.5394  217.5251 H   0  0  0  0  0  0  0  0  0  0  0  0
  141.3680   73.5140  220.5470 N   0  0  0  0  0  0  0  0  0  0  0  0
  141.7570   74.0820  219.7610 H   0  0  0  0  0  0  0  0  0  0  0  0
  141.3730   76.4660  220.8990 C   0  0  0  0  0  0  0  0  0  0  0  0
  142.3890   75.9800  220.0830 O   0  0  0  0  0  0  0  0  0  0  0  0
  141.1620   77.8480  220.9660 C   0  0  0  0  0  0  0  0  0  0  0  0
  141.8238   78.5301  220.4122 H   0  0  0  0  0  0  0  0  0  0  0  0
  1  2  1  0
  2  3  2  0
  3  4  1  0
  3  5  1  0
  5  6  1  0
  5  7  2  0
  7  8  1  0
  8  9  2  0
  9 10  1  0
 10 11  1  0
 11 12  1  0
 12 13  1  0
 12 14  1  0
 12 15  1  0
 15 16  2  0
 16 17  1  0
 16 18  1  0
 18 19  1  0
 18 20  2  0
 20 21  1  0
 20 22  1  0
 22 23  1  0
 22 24  2  0
 24 25  1  0
 25 26  1  0
 25 27  1  0
 25 28  1  0
 28 29  1  0
 28 30  1  0
 10 31  2  0
 31 32  1  0
 32 33  2  0
 33 34  1  0
 34 35  1  6
 34 36  1  0
 36 37  1  0
 36 38  1  0
 36 39  1  0
 39 40  1  0
 39 41  1  0
 39 42  1  0
 42 43  1  0
 42 44  1  0
 42 45  1  0
 45 46  1  0
 45 47  1  0
 45 48  1  0
 48 49  1  0
 48 50  1  0
 32 51  1  0
 51 52  1  0
  7 53  1  0
 53 54  1  0
 53 55  2  0
 55 56  1  0
 55  2  1  0
 51  8  1  0
 28 11  1  0
 48 34  1  0
 24 15  1  0
M  CHG  2  45   1  54  -1
M  END
>  <UniqueID>  (24) 
483

>  <SMILES>  (24) 
[O-]c1ccccc1-c1nc(N2CCc3ccccc3C2)n/c(=N\[C@@H]2CCC[NH2+]C2)[nH]1

>  <Energy>  (24) 
72.62298009940868

>  <Genealogy>  (24) 
[O-]c1ccccc1-c1nc(NC2CCC[NH2+]C2)nc(N2CCc3ccccc3C2)n1 (protonated)
[O-]c1ccccc1-c1nc(N2CCc3ccccc3C2)nc(=NC2CCC[NH2+]C2)[nH]1 (tautomer)
[O-]c1ccccc1-c1nc(N2CCc3ccccc3C2)nc(=N[C@@H]2CCC[NH2+]C2)[nH]1 (chirality)
[O-]c1ccccc1-c1nc(N2CCc3ccccc3C2)n/c(=N\[C@@H]2CCC[NH2+]C2)[nH]1 (cis-trans isomerization)
[O-]c1ccccc1-c1nc(N2CCc3ccccc3C2)n/c(=N\[C@@H]2CCC[NH2+]C2)[nH]1 (3D coordinates assigned)
[O-]c1ccccc1-c1nc(N2CCc3ccccc3C2)n/c(=N\[C@@H]2CCC[NH2+]C2)[nH]1 (nonaromatic ring conformer: 72.62298009940868 kcal/mol)

>  <smiles>  (24) 
Oc1ccccc1-c1nc(NC2CCCNC2)nc(N2CCc3ccccc3C2)n1

>  <score_type>  (24) 
oracle

>  <origin>  (24) 
autodockgpu

>  <m_score__min__energy>  (24) 
-7.8700000000000001

>  <m_primary>  (24) 
energy

>  <meeko>  (24) 
{"free_energy": -7.85, "intermolecular_energy": -9.04, "internal_energy": -2.29, "cluster_size": 12, "cluster_id": 1, "rank_in_cluster": 6}

>  <energy>  (24) 
-7.85

>  <cluster_rmsd>  (24) 
0.11

>  <rmsd>  (24) 
270.15

>  <cluster>  (24) 
1

$$$$
UQJJBYVBPBMERE-AOLYHIHGNA-N
     RDKit          3D

 56 60  0  0  0  0  0  0  0  0999 V2000
  139.9329   79.4581  221.7914 H   0  0  0  0  0  0  0  0  0  0  0  0
  140.0920   78.3710  221.7370 C   0  0  0  0  0  0  0  0  0  0  0  0
  139.2560   77.5060  222.4470 C   0  0  0  0  0  0  0  0  0  0  0  0
  138.4313   77.9125  223.0508 H   0  0  0  0  0  0  0  0  0  0  0  0
  139.4650   76.1250  222.3920 C   0  0  0  0  0  0  0  0  0  0  0  0
  138.8001   75.4491  222.9498 H   0  0  0  0  0  0  0  0  0  0  0  0
  140.5200   75.5940  221.6280 C   0  0  0  0  0  0  0  0  0  0  0  0
  140.7160   74.1260  221.5890 C   0  0  0  0  0  0  0  0  0  0  0  0
  140.2890   73.3720  222.6340 N   0  0  0  0  0  0  0  0  0  0  0  0
  140.4550   72.0240  222.6370 C   0  0  0  0  0  0  0  0  0  0  0  0
  140.0110   71.2370  223.7620 N   0  0  0  0  0  0  0  0  0  0  0  0
  140.5540   71.5120  225.1010 C   0  0  0  0  0  0  0  0  0  0  0  0
  139.9976   72.3527  225.5411 H   0  0  0  0  0  0  0  0  0  0  0  0
  141.6220   71.7489  224.9856 H   0  0  0  0  0  0  0  0  0  0  0  0
  140.4460   70.3220  226.0270 C   0  0  0  0  0  0  0  0  0  0  0  0
  141.0240   70.4030  227.3050 C   0  0  0  0  0  0  0  0  0  0  0  0
  141.5454   71.3221  227.6104 H   0  0  0  0  0  0  0  0  0  0  0  0
  140.9420   69.3250  228.1920 C   0  0  0  0  0  0  0  0  0  0  0  0
  141.3983   69.3980  229.1902 H   0  0  0  0  0  0  0  0  0  0  0  0
  140.2820   68.1580  227.8110 C   0  0  0  0  0  0  0  0  0  0  0  0
  140.2211   67.3093  228.5081 H   0  0  0  0  0  0  0  0  0  0  0  0
  139.6970   68.0640  226.5440 C   0  0  0  0  0  0  0  0  0  0  0  0
  139.1844   67.1375  226.2461 H   0  0  0  0  0  0  0  0  0  0  0  0
  139.7600   69.1450  225.6500 C   0  0  0  0  0  0  0  0  0  0  0  0
  139.1890   68.9900  224.2660 C   0  0  0  0  0  0  0  0  0  0  0  0
  138.2721   68.3850  224.3230 H   0  0  0  0  0  0  0  0  0  0  0  0
  139.9430   68.4981  223.6339 H   0  0  0  0  0  0  0  0  0  0  0  0
  138.8530   70.3430  223.6470 C   0  0  0  0  0  0  0  0  0  0  0  0
  137.9953   70.7847  224.1755 H   0  0  0  0  0  0  0  0  0  0  0  0
  138.6001   70.2068  222.5852 H   0  0  0  0  0  0  0  0  0  0  0  0
  141.0630   71.4310  221.5780 N   0  0  0  0  0  0  0  0  0  0  0  0
  141.5120   72.1730  220.5300 C   0  0  0  0  0  0  0  0  0  0  0  0
  142.1060   71.6060  219.5200 N   0  0  0  0  0  0  0  0  0  0  0  0
  143.4160   71.9950  218.9890 C   0  0  2  0  0  0  0  0  0  0  0  0
  143.6442   71.4144  218.0830 H   0  0  0  0  0  0  0  0  0  0  0  0
  144.5020   71.6900  220.0420 C   0  0  0  0  0  0  0  0  0  0  0  0
  144.1895   70.8200  220.6382 H   0  0  0  0  0  0  0  0  0  0  0  0
  145.4466   71.4820  219.5182 H   0  0  0  0  0  0  0  0  0  0  0  0
  144.7180   72.8840  220.9760 C   0  0  0  0  0  0  0  0  0  0  0  0
  143.7840   73.0845  221.5214 H   0  0  0  0  0  0  0  0  0  0  0  0
  145.5325   72.6345  221.6720 H   0  0  0  0  0  0  0  0  0  0  0  0
  145.1230   74.1520  220.1910 C   0  0  0  0  0  0  0  0  0  0  0  0
  144.6438   75.0224  220.6629 H   0  0  0  0  0  0  0  0  0  0  0  0
  146.2208   74.2159  220.2202 H   0  0  0  0  0  0  0  0  0  0  0  0
  144.7250   74.1120  218.7670 N   0  0  0  0  0  0  0  0  0  0  0  0
  144.6940   75.0910  218.3980 H   0  0  0  0  0  0  0  0  0  0  0  0
  145.4390   73.5820  218.2130 H   0  0  0  0  0  0  0  0  0  0  0  0
  143.4040   73.4930  218.5850 C   0  0  0  0  0  0  0  0  0  0  0  0
  142.6711   74.0254  219.2090 H   0  0  0  0  0  0  0  0  0  0  0  0
  143.1355   73.5606  217.5204 H   0  0  0  0  0  0  0  0  0  0  0  0
  141.3480   73.5230  220.5410 N   0  0  0  0  0  0  0  0  0  0  0  0
  141.7350   74.0930  219.7560 H   0  0  0  0  0  0  0  0  0  0  0  0
  141.3410   76.4740  220.8890 C   0  0  0  0  0  0  0  0  0  0  0  0
  142.3490   75.9900  220.0600 O   0  0  0  0  0  0  0  0  0  0  0  0
  141.1300   77.8550  220.9580 C   0  0  0  0  0  0  0  0  0  0  0  0
  141.7845   78.5377  220.3962 H   0  0  0  0  0  0  0  0  0  0  0  0
  1  2  1  0
  2  3  2  0
  3  4  1  0
  3  5  1  0
  5  6  1  0
  5  7  2  0
  7  8  1  0
  8  9  2  0
  9 10  1  0
 10 11  1  0
 11 12  1  0
 12 13  1  0
 12 14  1  0
 12 15  1  0
 15 16  2  0
 16 17  1  0
 16 18  1  0
 18 19  1  0
 18 20  2  0
 20 21  1  0
 20 22  1  0
 22 23  1  0
 22 24  2  0
 24 25  1  0
 25 26  1  0
 25 27  1  0
 25 28  1  0
 28 29  1  0
 28 30  1  0
 10 31  2  0
 31 32  1  0
 32 33  2  0
 33 34  1  0
 34 35  1  6
 34 36  1  0
 36 37  1  0
 36 38  1  0
 36 39  1  0
 39 40  1  0
 39 41  1  0
 39 42  1  0
 42 43  1  0
 42 44  1  0
 42 45  1  0
 45 46  1  0
 45 47  1  0
 45 48  1  0
 48 49  1  0
 48 50  1  0
 32 51  1  0
 51 52  1  0
  7 53  1  0
 53 54  1  0
 53 55  2  0
 55 56  1  0
 55  2  1  0
 51  8  1  0
 28 11  1  0
 48 34  1  0
 24 15  1  0
M  CHG  2  45   1  54  -1
M  END
>  <UniqueID>  (25) 
483

>  <SMILES>  (25) 
[O-]c1ccccc1-c1nc(N2CCc3ccccc3C2)n/c(=N\[C@@H]2CCC[NH2+]C2)[nH]1

>  <Energy>  (25) 
72.62298009940868

>  <Genealogy>  (25) 
[O-]c1ccccc1-c1nc(NC2CCC[NH2+]C2)nc(N2CCc3ccccc3C2)n1 (protonated)
[O-]c1ccccc1-c1nc(N2CCc3ccccc3C2)nc(=NC2CCC[NH2+]C2)[nH]1 (tautomer)
[O-]c1ccccc1-c1nc(N2CCc3ccccc3C2)nc(=N[C@@H]2CCC[NH2+]C2)[nH]1 (chirality)
[O-]c1ccccc1-c1nc(N2CCc3ccccc3C2)n/c(=N\[C@@H]2CCC[NH2+]C2)[nH]1 (cis-trans isomerization)
[O-]c1ccccc1-c1nc(N2CCc3ccccc3C2)n/c(=N\[C@@H]2CCC[NH2+]C2)[nH]1 (3D coordinates assigned)
[O-]c1ccccc1-c1nc(N2CCc3ccccc3C2)n/c(=N\[C@@H]2CCC[NH2+]C2)[nH]1 (nonaromatic ring conformer: 72.62298009940868 kcal/mol)

>  <smiles>  (25) 
Oc1ccccc1-c1nc(NC2CCCNC2)nc(N2CCc3ccccc3C2)n1

>  <score_type>  (25) 
oracle

>  <origin>  (25) 
autodockgpu

>  <m_score__min__energy>  (25) 
-7.8700000000000001

>  <m_primary>  (25) 
energy

>  <meeko>  (25) 
{"free_energy": -7.84, "intermolecular_energy": -9.04, "internal_energy": -2.3, "cluster_size": 12, "cluster_id": 1, "rank_in_cluster": 8}

>  <energy>  (25) 
-7.85

>  <cluster_rmsd>  (25) 
0.09

>  <rmsd>  (25) 
270.17

>  <cluster>  (25) 
1

$$$$
UQJJBYVBPBMERE-AOLYHIHGNA-N
     RDKit          3D

 56 60  0  0  0  0  0  0  0  0999 V2000
  146.5116   71.7978  218.5324 H   0  0  0  0  0  0  0  0  0  0  0  0
  145.5810   72.0560  219.0590 C   0  0  0  0  0  0  0  0  0  0  0  0
  144.7960   71.0480  219.6260 C   0  0  0  0  0  0  0  0  0  0  0  0
  145.1157   69.9979  219.5545 H   0  0  0  0  0  0  0  0  0  0  0  0
  143.6070   71.3710  220.2830 C   0  0  0  0  0  0  0  0  0  0  0  0
  142.9970   70.5735  220.7324 H   0  0  0  0  0  0  0  0  0  0  0  0
  143.1840   72.7100  220.3740 C   0  0  0  0  0  0  0  0  0  0  0  0
  141.9170   73.0210  221.0770 C   0  0  0  0  0  0  0  0  0  0  0  0
  141.4610   72.1690  222.0310 N   0  0  0  0  0  0  0  0  0  0  0  0
  140.3020   72.4180  222.6930 C   0  0  0  0  0  0  0  0  0  0  0  0
  139.8200   71.4940  223.6920 N   0  0  0  0  0  0  0  0  0  0  0  0
  140.3930   71.5220  225.0450 C   0  0  0  0  0  0  0  0  0  0  0  0
  139.8975   72.3174  225.6211 H   0  0  0  0  0  0  0  0  0  0  0  0
  141.4730   71.7057  224.9457 H   0  0  0  0  0  0  0  0  0  0  0  0
  140.2170   70.2120  225.7780 C   0  0  0  0  0  0  0  0  0  0  0  0
  140.8130   70.0550  227.0410 C   0  0  0  0  0  0  0  0  0  0  0  0
  141.3980   70.8798  227.4740 H   0  0  0  0  0  0  0  0  0  0  0  0
  140.6690   68.8600  227.7520 C   0  0  0  0  0  0  0  0  0  0  0  0
  141.1386   68.7480  228.7404 H   0  0  0  0  0  0  0  0  0  0  0  0
  139.9300   67.8100  227.2080 C   0  0  0  0  0  0  0  0  0  0  0  0
  139.8211   66.8681  227.7657 H   0  0  0  0  0  0  0  0  0  0  0  0
  139.3270   67.9530  225.9540 C   0  0  0  0  0  0  0  0  0  0  0  0
  138.7513   67.1187  225.5267 H   0  0  0  0  0  0  0  0  0  0  0  0
  139.4510   69.1530  225.2370 C   0  0  0  0  0  0  0  0  0  0  0  0
  138.8560   69.2530  223.8580 C   0  0  0  0  0  0  0  0  0  0  0  0
  137.9016   68.7065  223.8396 H   0  0  0  0  0  0  0  0  0  0  0  0
  139.5686   68.8187  223.1414 H   0  0  0  0  0  0  0  0  0  0  0  0
  138.6040   70.7050  223.4640 C   0  0  0  0  0  0  0  0  0  0  0  0
  137.7834   71.1126  224.0727 H   0  0  0  0  0  0  0  0  0  0  0  0
  138.3311   70.7530  222.3995 H   0  0  0  0  0  0  0  0  0  0  0  0
  139.5920   73.5340  222.3870 N   0  0  0  0  0  0  0  0  0  0  0  0
  140.0260   74.3900  221.4240 C   0  0  0  0  0  0  0  0  0  0  0  0
  139.3410   75.4550  221.1230 N   0  0  0  0  0  0  0  0  0  0  0  0
  139.9170   76.7760  220.8530 C   0  0  2  0  0  0  0  0  0  0  0  0
  139.4133   77.5388  221.4648 H   0  0  0  0  0  0  0  0  0  0  0  0
  139.7010   77.1320  219.3670 C   0  0  0  0  0  0  0  0  0  0  0  0
  138.7708   76.6608  219.0166 H   0  0  0  0  0  0  0  0  0  0  0  0
  139.6392   78.2265  219.2763 H   0  0  0  0  0  0  0  0  0  0  0  0
  140.8660   76.6390  218.5050 C   0  0  0  0  0  0  0  0  0  0  0  0
  140.9206   75.5424  218.5714 H   0  0  0  0  0  0  0  0  0  0  0  0
  140.6881   76.9603  217.4681 H   0  0  0  0  0  0  0  0  0  0  0  0
  142.2110   77.2380  218.9740 C   0  0  0  0  0  0  0  0  0  0  0  0
  142.9901   76.4682  218.8722 H   0  0  0  0  0  0  0  0  0  0  0  0
  142.4120   78.1179  218.3452 H   0  0  0  0  0  0  0  0  0  0  0  0
  142.1890   77.7000  220.3780 N   0  0  0  0  0  0  0  0  0  0  0  0
  143.1740   77.7500  220.7320 H   0  0  0  0  0  0  0  0  0  0  0  0
  141.7810   78.6630  220.4300 H   0  0  0  0  0  0  0  0  0  0  0  0
  141.4200   76.7930  221.2410 C   0  0  0  0  0  0  0  0  0  0  0  0
  141.8262   75.7755  221.1420 H   0  0  0  0  0  0  0  0  0  0  0  0
  141.5045   77.1494  222.2782 H   0  0  0  0  0  0  0  0  0  0  0  0
  141.1850   74.1270  220.7610 N   0  0  0  0  0  0  0  0  0  0  0  0
  141.4910   74.7640  219.9900 H   0  0  0  0  0  0  0  0  0  0  0  0
  143.9980   73.7250  219.8250 C   0  0  0  0  0  0  0  0  0  0  0  0
  143.6590   75.0680  219.9570 O   0  0  0  0  0  0  0  0  0  0  0  0
  145.1840   73.3900  219.1610 C   0  0  0  0  0  0  0  0  0  0  0  0
  145.8058   74.1818  218.7177 H   0  0  0  0  0  0  0  0  0  0  0  0
  1  2  1  0
  2  3  2  0
  3  4  1  0
  3  5  1  0
  5  6  1  0
  5  7  2  0
  7  8  1  0
  8  9  2  0
  9 10  1  0
 10 11  1  0
 11 12  1  0
 12 13  1  0
 12 14  1  0
 12 15  1  0
 15 16  2  0
 16 17  1  0
 16 18  1  0
 18 19  1  0
 18 20  2  0
 20 21  1  0
 20 22  1  0
 22 23  1  0
 22 24  2  0
 24 25  1  0
 25 26  1  0
 25 27  1  0
 25 28  1  0
 28 29  1  0
 28 30  1  0
 10 31  2  0
 31 32  1  0
 32 33  2  0
 33 34  1  0
 34 35  1  1
 34 36  1  0
 36 37  1  0
 36 38  1  0
 36 39  1  0
 39 40  1  0
 39 41  1  0
 39 42  1  0
 42 43  1  0
 42 44  1  0
 42 45  1  0
 45 46  1  0
 45 47  1  0
 45 48  1  0
 48 49  1  0
 48 50  1  0
 32 51  1  0
 51 52  1  0
  7 53  1  0
 53 54  1  0
 53 55  2  0
 55 56  1  0
 55  2  1  0
 51  8  1  0
 28 11  1  0
 48 34  1  0
 24 15  1  0
M  CHG  2  45   1  54  -1
M  END
>  <UniqueID>  (26) 
483

>  <SMILES>  (26) 
[O-]c1ccccc1-c1nc(N2CCc3ccccc3C2)n/c(=N\[C@@H]2CCC[NH2+]C2)[nH]1

>  <Energy>  (26) 
72.62298009940868

>  <Genealogy>  (26) 
[O-]c1ccccc1-c1nc(NC2CCC[NH2+]C2)nc(N2CCc3ccccc3C2)n1 (protonated)
[O-]c1ccccc1-c1nc(N2CCc3ccccc3C2)nc(=NC2CCC[NH2+]C2)[nH]1 (tautomer)
[O-]c1ccccc1-c1nc(N2CCc3ccccc3C2)nc(=N[C@@H]2CCC[NH2+]C2)[nH]1 (chirality)
[O-]c1ccccc1-c1nc(N2CCc3ccccc3C2)n/c(=N\[C@@H]2CCC[NH2+]C2)[nH]1 (cis-trans isomerization)
[O-]c1ccccc1-c1nc(N2CCc3ccccc3C2)n/c(=N\[C@@H]2CCC[NH2+]C2)[nH]1 (3D coordinates assigned)
[O-]c1ccccc1-c1nc(N2CCc3ccccc3C2)n/c(=N\[C@@H]2CCC[NH2+]C2)[nH]1 (nonaromatic ring conformer: 72.62298009940868 kcal/mol)

>  <smiles>  (26) 
Oc1ccccc1-c1nc(NC2CCCNC2)nc(N2CCc3ccccc3C2)n1

>  <score_type>  (26) 
oracle

>  <origin>  (26) 
autodockgpu

>  <m_score__min__energy>  (26) 
-7.8700000000000001

>  <m_primary>  (26) 
energy

>  <meeko>  (26) 
{"free_energy": -7.81, "intermolecular_energy": -9.0, "internal_energy": -2.29, "cluster_size": 8, "cluster_id": 2, "rank_in_cluster": 4}

>  <energy>  (26) 
-7.85

>  <cluster_rmsd>  (26) 
0.09

>  <rmsd>  (26) 
270.16

>  <cluster>  (26) 
1

$$$$
UQJJBYVBPBMERE-AOLYHIHGNA-N
     RDKit          3D

 56 60  0  0  0  0  0  0  0  0999 V2000
  139.4435   79.4730  221.9211 H   0  0  0  0  0  0  0  0  0  0  0  0
  139.6580   78.3960  221.8570 C   0  0  0  0  0  0  0  0  0  0  0  0
  138.8670   77.4830  222.5590 C   0  0  0  0  0  0  0  0  0  0  0  0
  138.0229   77.8415  223.1665 H   0  0  0  0  0  0  0  0  0  0  0  0
  139.1460   76.1150  222.4910 C   0  0  0  0  0  0  0  0  0  0  0  0
  138.5159   75.4006  223.0412 H   0  0  0  0  0  0  0  0  0  0  0  0
  140.2280   75.6460  221.7230 C   0  0  0  0  0  0  0  0  0  0  0  0
  140.4980   74.1900  221.6720 C   0  0  0  0  0  0  0  0  0  0  0  0
  140.1040   73.4050  222.7070 N   0  0  0  0  0  0  0  0  0  0  0  0
  140.3390   72.0670  222.6980 C   0  0  0  0  0  0  0  0  0  0  0  0
  139.9300   71.2470  223.8130 N   0  0  0  0  0  0  0  0  0  0  0  0
  140.4470   71.5400  225.1580 C   0  0  0  0  0  0  0  0  0  0  0  0
  139.8422   72.3451  225.6007 H   0  0  0  0  0  0  0  0  0  0  0  0
  141.5011   71.8365  225.0534 H   0  0  0  0  0  0  0  0  0  0  0  0
  140.3970   70.3370  226.0730 C   0  0  0  0  0  0  0  0  0  0  0  0
  140.9610   70.4380  227.3570 C   0  0  0  0  0  0  0  0  0  0  0  0
  141.4305   71.3809  227.6740 H   0  0  0  0  0  0  0  0  0  0  0  0
  140.9300   69.3500  228.2340 C   0  0  0  0  0  0  0  0  0  0  0  0
  141.3735   69.4390  229.2367 H   0  0  0  0  0  0  0  0  0  0  0  0
  140.3370   68.1520  227.8380 C   0  0  0  0  0  0  0  0  0  0  0  0
  140.3168   67.2951  228.5274 H   0  0  0  0  0  0  0  0  0  0  0  0
  139.7680   68.0380  226.5660 C   0  0  0  0  0  0  0  0  0  0  0  0
  139.3085   67.0877  226.2564 H   0  0  0  0  0  0  0  0  0  0  0  0
  139.7790   69.1280  225.6810 C   0  0  0  0  0  0  0  0  0  0  0  0
  139.2270   68.9550  224.2910 C   0  0  0  0  0  0  0  0  0  0  0  0
  138.3438   68.3009  224.3356 H   0  0  0  0  0  0  0  0  0  0  0  0
  140.0109   68.5103  223.6603 H   0  0  0  0  0  0  0  0  0  0  0  0
  138.8230   70.2930  223.6820 C   0  0  0  0  0  0  0  0  0  0  0  0
  137.9393   70.6830  224.2083 H   0  0  0  0  0  0  0  0  0  0  0  0
  138.5851   70.1531  222.6172 H   0  0  0  0  0  0  0  0  0  0  0  0
  140.9830   71.5160  221.6370 N   0  0  0  0  0  0  0  0  0  0  0  0
  141.3980   72.2900  220.5990 C   0  0  0  0  0  0  0  0  0  0  0  0
  142.0250   71.7640  219.5860 N   0  0  0  0  0  0  0  0  0  0  0  0
  143.2980   72.2480  219.0430 C   0  0  2  0  0  0  0  0  0  0  0  0
  143.5606   71.6824  218.1369 H   0  0  0  0  0  0  0  0  0  0  0  0
  144.4130   72.0290  220.0880 C   0  0  0  0  0  0  0  0  0  0  0  0
  144.1715   71.1401  220.6894 H   0  0  0  0  0  0  0  0  0  0  0  0
  145.3661   71.8906  219.5565 H   0  0  0  0  0  0  0  0  0  0  0  0
  144.5470   73.2380  221.0160 C   0  0  0  0  0  0  0  0  0  0  0  0
  143.6055   73.3697  221.5693 H   0  0  0  0  0  0  0  0  0  0  0  0
  145.3841   73.0524  221.7050 H   0  0  0  0  0  0  0  0  0  0  0  0
  144.8490   74.5310  220.2240 C   0  0  0  0  0  0  0  0  0  0  0  0
  144.3089   75.3644  220.6970 H   0  0  0  0  0  0  0  0  0  0  0  0
  145.9389   74.6786  220.2445 H   0  0  0  0  0  0  0  0  0  0  0  0
  144.4440   74.4550  218.8040 N   0  0  0  0  0  0  0  0  0  0  0  0
  144.3380   75.4280  218.4310 H   0  0  0  0  0  0  0  0  0  0  0  0
  145.1910   73.9780  218.2460 H   0  0  0  0  0  0  0  0  0  0  0  0
  143.1720   73.7400  218.6340 C   0  0  0  0  0  0  0  0  0  0  0  0
  142.4062   74.2191  219.2617 H   0  0  0  0  0  0  0  0  0  0  0  0
  142.8913   73.7836  217.5713 H   0  0  0  0  0  0  0  0  0  0  0  0
  141.1650   73.6300  220.6210 N   0  0  0  0  0  0  0  0  0  0  0  0
  141.5260   74.2270  219.8440 H   0  0  0  0  0  0  0  0  0  0  0  0
  141.0030   76.5720  220.9930 C   0  0  0  0  0  0  0  0  0  0  0  0
  142.0340   76.1480  220.1610 O   0  0  0  0  0  0  0  0  0  0  0  0
  140.7210   77.9410  221.0740 C   0  0  0  0  0  0  0  0  0  0  0  0
  141.3395   78.6613  220.5184 H   0  0  0  0  0  0  0  0  0  0  0  0
  1  2  1  0
  2  3  2  0
  3  4  1  0
  3  5  1  0
  5  6  1  0
  5  7  2  0
  7  8  1  0
  8  9  2  0
  9 10  1  0
 10 11  1  0
 11 12  1  0
 12 13  1  0
 12 14  1  0
 12 15  1  0
 15 16  2  0
 16 17  1  0
 16 18  1  0
 18 19  1  0
 18 20  2  0
 20 21  1  0
 20 22  1  0
 22 23  1  0
 22 24  2  0
 24 25  1  0
 25 26  1  0
 25 27  1  0
 25 28  1  0
 28 29  1  0
 28 30  1  0
 10 31  2  0
 31 32  1  0
 32 33  2  0
 33 34  1  0
 34 35  1  6
 34 36  1  0
 36 37  1  0
 36 38  1  0
 36 39  1  0
 39 40  1  0
 39 41  1  0
 39 42  1  0
 42 43  1  0
 42 44  1  0
 42 45  1  0
 45 46  1  0
 45 47  1  0
 45 48  1  0
 48 49  1  0
 48 50  1  0
 32 51  1  0
 51 52  1  0
  7 53  1  0
 53 54  1  0
 53 55  2  0
 55 56  1  0
 55  2  1  0
 51  8  1  0
 28 11  1  0
 48 34  1  0
 24 15  1  0
M  CHG  2  45   1  54  -1
M  END
>  <UniqueID>  (27) 
483

>  <SMILES>  (27) 
[O-]c1ccccc1-c1nc(N2CCc3ccccc3C2)n/c(=N\[C@@H]2CCC[NH2+]C2)[nH]1

>  <Energy>  (27) 
72.62298009940868

>  <Genealogy>  (27) 
[O-]c1ccccc1-c1nc(NC2CCC[NH2+]C2)nc(N2CCc3ccccc3C2)n1 (protonated)
[O-]c1ccccc1-c1nc(N2CCc3ccccc3C2)nc(=NC2CCC[NH2+]C2)[nH]1 (tautomer)
[O-]c1ccccc1-c1nc(N2CCc3ccccc3C2)nc(=N[C@@H]2CCC[NH2+]C2)[nH]1 (chirality)
[O-]c1ccccc1-c1nc(N2CCc3ccccc3C2)n/c(=N\[C@@H]2CCC[NH2+]C2)[nH]1 (cis-trans isomerization)
[O-]c1ccccc1-c1nc(N2CCc3ccccc3C2)n/c(=N\[C@@H]2CCC[NH2+]C2)[nH]1 (3D coordinates assigned)
[O-]c1ccccc1-c1nc(N2CCc3ccccc3C2)n/c(=N\[C@@H]2CCC[NH2+]C2)[nH]1 (nonaromatic ring conformer: 72.62298009940868 kcal/mol)

>  <smiles>  (27) 
Oc1ccccc1-c1nc(NC2CCCNC2)nc(N2CCc3ccccc3C2)n1

>  <score_type>  (27) 
oracle

>  <origin>  (27) 
autodockgpu

>  <m_score__min__energy>  (27) 
-7.8700000000000001

>  <m_primary>  (27) 
energy

>  <meeko>  (27) 
{"free_energy": -7.84, "intermolecular_energy": -9.04, "internal_energy": -2.3, "cluster_size": 12, "cluster_id": 1, "rank_in_cluster": 9}

>  <energy>  (27) 
-7.84

>  <cluster_rmsd>  (27) 
0.11

>  <rmsd>  (27) 
270.15

>  <cluster>  (27) 
1

$$$$
UQJJBYVBPBMERE-AOLYHIHGNA-N
     RDKit          3D

 56 60  0  0  0  0  0  0  0  0999 V2000
  139.9927   79.4573  221.7677 H   0  0  0  0  0  0  0  0  0  0  0  0
  140.1440   78.3690  221.7150 C   0  0  0  0  0  0  0  0  0  0  0  0
  139.3120   77.5120  222.4400 C   0  0  0  0  0  0  0  0  0  0  0  0
  138.4993   77.9263  223.0547 H   0  0  0  0  0  0  0  0  0  0  0  0
  139.5100   76.1300  222.3860 C   0  0  0  0  0  0  0  0  0  0  0  0
  138.8474   75.4605  222.9541 H   0  0  0  0  0  0  0  0  0  0  0  0
  140.5510   75.5890  221.6100 C   0  0  0  0  0  0  0  0  0  0  0  0
  140.7360   74.1190  221.5730 C   0  0  0  0  0  0  0  0  0  0  0  0
  140.3120   73.3710  222.6240 N   0  0  0  0  0  0  0  0  0  0  0  0
  140.4680   72.0220  222.6280 C   0  0  0  0  0  0  0  0  0  0  0  0
  140.0280   71.2410  223.7590 N   0  0  0  0  0  0  0  0  0  0  0  0
  140.5670   71.5300  225.0960 C   0  0  0  0  0  0  0  0  0  0  0  0
  140.0047   72.3707  225.5285 H   0  0  0  0  0  0  0  0  0  0  0  0
  141.6336   71.7726  224.9802 H   0  0  0  0  0  0  0  0  0  0  0  0
  140.4650   70.3460  226.0320 C   0  0  0  0  0  0  0  0  0  0  0  0
  141.0420   70.4410  227.3100 C   0  0  0  0  0  0  0  0  0  0  0  0
  141.5581   71.3654  227.6086 H   0  0  0  0  0  0  0  0  0  0  0  0
  140.9650   69.3690  228.2050 C   0  0  0  0  0  0  0  0  0  0  0  0
  141.4194   69.4527  229.2032 H   0  0  0  0  0  0  0  0  0  0  0  0
  140.3130   68.1950  227.8330 C   0  0  0  0  0  0  0  0  0  0  0  0
  140.2567   67.3513  228.5366 H   0  0  0  0  0  0  0  0  0  0  0  0
  139.7300   68.0880  226.5660 C   0  0  0  0  0  0  0  0  0  0  0  0
  139.2233   67.1560  226.2749 H   0  0  0  0  0  0  0  0  0  0  0  0
  139.7870   69.1620  225.6630 C   0  0  0  0  0  0  0  0  0  0  0  0
  139.2190   68.9930  224.2790 C   0  0  0  0  0  0  0  0  0  0  0  0
  138.3060   68.3823  224.3390 H   0  0  0  0  0  0  0  0  0  0  0  0
  139.9771   68.5015  223.6515 H   0  0  0  0  0  0  0  0  0  0  0  0
  138.8750   70.3390  223.6500 C   0  0  0  0  0  0  0  0  0  0  0  0
  138.0144   70.7794  224.1748 H   0  0  0  0  0  0  0  0  0  0  0  0
  138.6233   70.1935  222.5891 H   0  0  0  0  0  0  0  0  0  0  0  0
  141.0640   71.4220  221.5660 N   0  0  0  0  0  0  0  0  0  0  0  0
  141.5090   72.1570  220.5130 C   0  0  0  0  0  0  0  0  0  0  0  0
  142.0900   71.5840  219.4990 N   0  0  0  0  0  0  0  0  0  0  0  0
  143.3950   71.9670  218.9520 C   0  0  2  0  0  0  0  0  0  0  0  0
  143.6165   71.3728  218.0532 H   0  0  0  0  0  0  0  0  0  0  0  0
  144.4900   71.6800  220.0010 C   0  0  0  0  0  0  0  0  0  0  0  0
  144.1837   70.8187  220.6129 H   0  0  0  0  0  0  0  0  0  0  0  0
  145.4307   71.4657  219.4726 H   0  0  0  0  0  0  0  0  0  0  0  0
  144.7120   72.8880  220.9150 C   0  0  0  0  0  0  0  0  0  0  0  0
  143.7825   73.0952  221.4655 H   0  0  0  0  0  0  0  0  0  0  0  0
  145.5329   72.6503  221.6076 H   0  0  0  0  0  0  0  0  0  0  0  0
  145.1080   74.1450  220.1070 C   0  0  0  0  0  0  0  0  0  0  0  0
  144.6299   75.0215  220.5688 H   0  0  0  0  0  0  0  0  0  0  0  0
  146.2058   74.2119  220.1272 H   0  0  0  0  0  0  0  0  0  0  0  0
  144.7000   74.0820  218.6870 N   0  0  0  0  0  0  0  0  0  0  0  0
  144.6640   75.0550  218.3030 H   0  0  0  0  0  0  0  0  0  0  0  0
  145.4100   73.5450  218.1360 H   0  0  0  0  0  0  0  0  0  0  0  0
  143.3780   73.4590  218.5250 C   0  0  0  0  0  0  0  0  0  0  0  0
  142.6495   74.0002  219.1465 H   0  0  0  0  0  0  0  0  0  0  0  0
  143.1009   73.5101  217.4617 H   0  0  0  0  0  0  0  0  0  0  0  0
  141.3540   73.5090  220.5220 N   0  0  0  0  0  0  0  0  0  0  0  0
  141.7390   74.0740  219.7310 H   0  0  0  0  0  0  0  0  0  0  0  0
  141.3680   76.4600  220.8570 C   0  0  0  0  0  0  0  0  0  0  0  0
  142.3610   75.9660  220.0160 O   0  0  0  0  0  0  0  0  0  0  0  0
  141.1670   77.8440  220.9240 C   0  0  0  0  0  0  0  0  0  0  0  0
  141.8181   78.5204  220.3508 H   0  0  0  0  0  0  0  0  0  0  0  0
  1  2  1  0
  2  3  2  0
  3  4  1  0
  3  5  1  0
  5  6  1  0
  5  7  2  0
  7  8  1  0
  8  9  2  0
  9 10  1  0
 10 11  1  0
 11 12  1  0
 12 13  1  0
 12 14  1  0
 12 15  1  0
 15 16  2  0
 16 17  1  0
 16 18  1  0
 18 19  1  0
 18 20  2  0
 20 21  1  0
 20 22  1  0
 22 23  1  0
 22 24  2  0
 24 25  1  0
 25 26  1  0
 25 27  1  0
 25 28  1  0
 28 29  1  0
 28 30  1  0
 10 31  2  0
 31 32  1  0
 32 33  2  0
 33 34  1  0
 34 35  1  6
 34 36  1  0
 36 37  1  0
 36 38  1  0
 36 39  1  0
 39 40  1  0
 39 41  1  0
 39 42  1  0
 42 43  1  0
 42 44  1  0
 42 45  1  0
 45 46  1  0
 45 47  1  0
 45 48  1  0
 48 49  1  0
 48 50  1  0
 32 51  1  0
 51 52  1  0
  7 53  1  0
 53 54  1  0
 53 55  2  0
 55 56  1  0
 55  2  1  0
 51  8  1  0
 28 11  1  0
 48 34  1  0
 24 15  1  0
M  CHG  2  45   1  54  -1
M  END
>  <UniqueID>  (28) 
483

>  <SMILES>  (28) 
[O-]c1ccccc1-c1nc(N2CCc3ccccc3C2)n/c(=N\[C@@H]2CCC[NH2+]C2)[nH]1

>  <Energy>  (28) 
72.62298009940868

>  <Genealogy>  (28) 
[O-]c1ccccc1-c1nc(NC2CCC[NH2+]C2)nc(N2CCc3ccccc3C2)n1 (protonated)
[O-]c1ccccc1-c1nc(N2CCc3ccccc3C2)nc(=NC2CCC[NH2+]C2)[nH]1 (tautomer)
[O-]c1ccccc1-c1nc(N2CCc3ccccc3C2)nc(=N[C@@H]2CCC[NH2+]C2)[nH]1 (chirality)
[O-]c1ccccc1-c1nc(N2CCc3ccccc3C2)n/c(=N\[C@@H]2CCC[NH2+]C2)[nH]1 (cis-trans isomerization)
[O-]c1ccccc1-c1nc(N2CCc3ccccc3C2)n/c(=N\[C@@H]2CCC[NH2+]C2)[nH]1 (3D coordinates assigned)
[O-]c1ccccc1-c1nc(N2CCc3ccccc3C2)n/c(=N\[C@@H]2CCC[NH2+]C2)[nH]1 (nonaromatic ring conformer: 72.62298009940868 kcal/mol)

>  <smiles>  (28) 
Oc1ccccc1-c1nc(NC2CCCNC2)nc(N2CCc3ccccc3C2)n1

>  <score_type>  (28) 
oracle

>  <origin>  (28) 
autodockgpu

>  <m_score__min__energy>  (28) 
-7.8700000000000001

>  <m_primary>  (28) 
energy

>  <meeko>  (28) 
{"free_energy": -7.82, "intermolecular_energy": -9.01, "internal_energy": -2.3, "cluster_size": 12, "cluster_id": 1, "rank_in_cluster": 11}

>  <energy>  (28) 
-7.84

>  <cluster_rmsd>  (28) 
0.1

>  <rmsd>  (28) 
270.15

>  <cluster>  (28) 
1

$$$$
UQJJBYVBPBMERE-AOLYHIHGNA-N
     RDKit          3D

 56 60  0  0  0  0  0  0  0  0999 V2000
  146.4910   71.7802  218.5241 H   0  0  0  0  0  0  0  0  0  0  0  0
  145.5610   72.0380  219.0520 C   0  0  0  0  0  0  0  0  0  0  0  0
  144.7790   71.0310  219.6230 C   0  0  0  0  0  0  0  0  0  0  0  0
  145.1001   69.9812  219.5536 H   0  0  0  0  0  0  0  0  0  0  0  0
  143.5900   71.3540  220.2820 C   0  0  0  0  0  0  0  0  0  0  0  0
  142.9820   70.5566  220.7343 H   0  0  0  0  0  0  0  0  0  0  0  0
  143.1650   72.6930  220.3710 C   0  0  0  0  0  0  0  0  0  0  0  0
  141.8990   73.0030  221.0750 C   0  0  0  0  0  0  0  0  0  0  0  0
  141.4450   72.1520  222.0300 N   0  0  0  0  0  0  0  0  0  0  0  0
  140.2870   72.4010  222.6940 C   0  0  0  0  0  0  0  0  0  0  0  0
  139.8070   71.4780  223.6950 N   0  0  0  0  0  0  0  0  0  0  0  0
  140.3750   71.5150  225.0500 C   0  0  0  0  0  0  0  0  0  0  0  0
  139.8725   72.3094  225.6213 H   0  0  0  0  0  0  0  0  0  0  0  0
  141.4542   71.7054  224.9543 H   0  0  0  0  0  0  0  0  0  0  0  0
  140.2040   70.2060  225.7870 C   0  0  0  0  0  0  0  0  0  0  0  0
  140.7960   70.0590  227.0540 C   0  0  0  0  0  0  0  0  0  0  0  0
  141.3723   70.8901  227.4868 H   0  0  0  0  0  0  0  0  0  0  0  0
  140.6580   68.8650  227.7680 C   0  0  0  0  0  0  0  0  0  0  0  0
  141.1257   68.7594  228.7580 H   0  0  0  0  0  0  0  0  0  0  0  0
  139.9280   67.8080  227.2260 C   0  0  0  0  0  0  0  0  0  0  0  0
  139.8230   66.8679  227.7873 H   0  0  0  0  0  0  0  0  0  0  0  0
  139.3290   67.9420  225.9690 C   0  0  0  0  0  0  0  0  0  0  0  0
  138.7608   67.1023  225.5424 H   0  0  0  0  0  0  0  0  0  0  0  0
  139.4480   69.1410  225.2480 C   0  0  0  0  0  0  0  0  0  0  0  0
  138.8580   69.2310  223.8660 C   0  0  0  0  0  0  0  0  0  0  0  0
  137.9077   68.6773  223.8459 H   0  0  0  0  0  0  0  0  0  0  0  0
  139.5769   68.7991  223.1542 H   0  0  0  0  0  0  0  0  0  0  0  0
  138.5970   70.6790  223.4650 C   0  0  0  0  0  0  0  0  0  0  0  0
  137.7709   71.0831  224.0686 H   0  0  0  0  0  0  0  0  0  0  0  0
  138.3280   70.7207  222.3992 H   0  0  0  0  0  0  0  0  0  0  0  0
  139.5760   73.5160  222.3880 N   0  0  0  0  0  0  0  0  0  0  0  0
  140.0080   74.3720  221.4230 C   0  0  0  0  0  0  0  0  0  0  0  0
  139.3210   75.4350  221.1220 N   0  0  0  0  0  0  0  0  0  0  0  0
  139.8950   76.7600  220.8640 C   0  0  2  0  0  0  0  0  0  0  0  0
  139.3900   77.5169  221.4822 H   0  0  0  0  0  0  0  0  0  0  0  0
  139.6790   77.1270  219.3810 C   0  0  0  0  0  0  0  0  0  0  0  0
  138.7501   76.6564  219.0267 H   0  0  0  0  0  0  0  0  0  0  0  0
  139.6151   78.2221  219.2992 H   0  0  0  0  0  0  0  0  0  0  0  0
  140.8450   76.6440  218.5150 C   0  0  0  0  0  0  0  0  0  0  0  0
  140.9019   75.5469  218.5717 H   0  0  0  0  0  0  0  0  0  0  0  0
  140.6667   76.9738  217.4809 H   0  0  0  0  0  0  0  0  0  0  0  0
  142.1890   77.2420  218.9900 C   0  0  0  0  0  0  0  0  0  0  0  0
  142.9697   76.4746  218.8820 H   0  0  0  0  0  0  0  0  0  0  0  0
  142.3881   78.1277  218.3689 H   0  0  0  0  0  0  0  0  0  0  0  0
  142.1660   77.6920  220.3970 N   0  0  0  0  0  0  0  0  0  0  0  0
  143.1500   77.7410  220.7530 H   0  0  0  0  0  0  0  0  0  0  0  0
  141.7550   78.6540  220.4570 H   0  0  0  0  0  0  0  0  0  0  0  0
  141.3970   76.7770  221.2530 C   0  0  0  0  0  0  0  0  0  0  0  0
  141.8050   75.7610  221.1470 H   0  0  0  0  0  0  0  0  0  0  0  0
  141.4798   77.1263  222.2928 H   0  0  0  0  0  0  0  0  0  0  0  0
  141.1660   74.1090  220.7590 N   0  0  0  0  0  0  0  0  0  0  0  0
  141.4700   74.7450  219.9870 H   0  0  0  0  0  0  0  0  0  0  0  0
  143.9770   73.7070  219.8170 C   0  0  0  0  0  0  0  0  0  0  0  0
  143.6360   75.0500  219.9470 O   0  0  0  0  0  0  0  0  0  0  0  0
  145.1610   73.3720  219.1520 C   0  0  0  0  0  0  0  0  0  0  0  0
  145.7804   74.1638  218.7054 H   0  0  0  0  0  0  0  0  0  0  0  0
  1  2  1  0
  2  3  2  0
  3  4  1  0
  3  5  1  0
  5  6  1  0
  5  7  2  0
  7  8  1  0
  8  9  2  0
  9 10  1  0
 10 11  1  0
 11 12  1  0
 12 13  1  0
 12 14  1  0
 12 15  1  0
 15 16  2  0
 16 17  1  0
 16 18  1  0
 18 19  1  0
 18 20  2  0
 20 21  1  0
 20 22  1  0
 22 23  1  0
 22 24  2  0
 24 25  1  0
 25 26  1  0
 25 27  1  0
 25 28  1  0
 28 29  1  0
 28 30  1  0
 10 31  2  0
 31 32  1  0
 32 33  2  0
 33 34  1  0
 34 35  1  1
 34 36  1  0
 36 37  1  0
 36 38  1  0
 36 39  1  0
 39 40  1  0
 39 41  1  0
 39 42  1  0
 42 43  1  0
 42 44  1  0
 42 45  1  0
 45 46  1  0
 45 47  1  0
 45 48  1  0
 48 49  1  0
 48 50  1  0
 32 51  1  0
 51 52  1  0
  7 53  1  0
 53 54  1  0
 53 55  2  0
 55 56  1  0
 55  2  1  0
 51  8  1  0
 28 11  1  0
 48 34  1  0
 24 15  1  0
M  CHG  2  45   1  54  -1
M  END
>  <UniqueID>  (29) 
483

>  <SMILES>  (29) 
[O-]c1ccccc1-c1nc(N2CCc3ccccc3C2)n/c(=N\[C@@H]2CCC[NH2+]C2)[nH]1

>  <Energy>  (29) 
72.62298009940868

>  <Genealogy>  (29) 
[O-]c1ccccc1-c1nc(NC2CCC[NH2+]C2)nc(N2CCc3ccccc3C2)n1 (protonated)
[O-]c1ccccc1-c1nc(N2CCc3ccccc3C2)nc(=NC2CCC[NH2+]C2)[nH]1 (tautomer)
[O-]c1ccccc1-c1nc(N2CCc3ccccc3C2)nc(=N[C@@H]2CCC[NH2+]C2)[nH]1 (chirality)
[O-]c1ccccc1-c1nc(N2CCc3ccccc3C2)n/c(=N\[C@@H]2CCC[NH2+]C2)[nH]1 (cis-trans isomerization)
[O-]c1ccccc1-c1nc(N2CCc3ccccc3C2)n/c(=N\[C@@H]2CCC[NH2+]C2)[nH]1 (3D coordinates assigned)
[O-]c1ccccc1-c1nc(N2CCc3ccccc3C2)n/c(=N\[C@@H]2CCC[NH2+]C2)[nH]1 (nonaromatic ring conformer: 72.62298009940868 kcal/mol)

>  <smiles>  (29) 
Oc1ccccc1-c1nc(NC2CCCNC2)nc(N2CCc3ccccc3C2)n1

>  <score_type>  (29) 
oracle

>  <origin>  (29) 
autodockgpu

>  <m_score__min__energy>  (29) 
-7.8700000000000001

>  <m_primary>  (29) 
energy

>  <meeko>  (29) 
{"free_energy": -7.79, "intermolecular_energy": -8.99, "internal_energy": -2.28, "cluster_size": 8, "cluster_id": 2, "rank_in_cluster": 6}

>  <energy>  (29) 
-7.84

>  <cluster_rmsd>  (29) 
0.33

>  <rmsd>  (29) 
270.14

>  <cluster>  (29) 
1

$$$$
UQJJBYVBPBMERE-AOLYHIHGNA-N
     RDKit          3D

 56 60  0  0  0  0  0  0  0  0999 V2000
  139.9653   79.4589  221.7855 H   0  0  0  0  0  0  0  0  0  0  0  0
  140.1190   78.3710  221.7320 C   0  0  0  0  0  0  0  0  0  0  0  0
  139.2850   77.5110  222.4520 C   0  0  0  0  0  0  0  0  0  0  0  0
  138.4668   77.9227  223.0611 H   0  0  0  0  0  0  0  0  0  0  0  0
  139.4880   76.1300  222.4000 C   0  0  0  0  0  0  0  0  0  0  0  0
  138.8255   75.4586  222.9659 H   0  0  0  0  0  0  0  0  0  0  0  0
  140.5350   75.5920  221.6280 C   0  0  0  0  0  0  0  0  0  0  0  0
  140.7250   74.1230  221.5930 C   0  0  0  0  0  0  0  0  0  0  0  0
  140.2960   73.3730  222.6400 N   0  0  0  0  0  0  0  0  0  0  0  0
  140.4570   72.0250  222.6460 C   0  0  0  0  0  0  0  0  0  0  0  0
  140.0130   71.2420  223.7740 N   0  0  0  0  0  0  0  0  0  0  0  0
  140.5520   71.5250  225.1130 C   0  0  0  0  0  0  0  0  0  0  0  0
  139.9926   72.3665  225.5476 H   0  0  0  0  0  0  0  0  0  0  0  0
  141.6197   71.7641  224.9994 H   0  0  0  0  0  0  0  0  0  0  0  0
  140.4440   70.3390  226.0440 C   0  0  0  0  0  0  0  0  0  0  0  0
  141.0190   70.4270  227.3230 C   0  0  0  0  0  0  0  0  0  0  0  0
  141.5381   71.3485  227.6253 H   0  0  0  0  0  0  0  0  0  0  0  0
  140.9370   69.3530  228.2150 C   0  0  0  0  0  0  0  0  0  0  0  0
  141.3909   69.4316  229.2139 H   0  0  0  0  0  0  0  0  0  0  0  0
  140.2800   68.1830  227.8380 C   0  0  0  0  0  0  0  0  0  0  0  0
  140.2187   67.3376  228.5390 H   0  0  0  0  0  0  0  0  0  0  0  0
  139.6990   68.0820  226.5710 C   0  0  0  0  0  0  0  0  0  0  0  0
  139.1894   67.1527  226.2766 H   0  0  0  0  0  0  0  0  0  0  0  0
  139.7610   69.1580  225.6710 C   0  0  0  0  0  0  0  0  0  0  0  0
  139.1930   68.9960  224.2860 C   0  0  0  0  0  0  0  0  0  0  0  0
  138.2770   68.3897  224.3435 H   0  0  0  0  0  0  0  0  0  0  0  0
  139.9490   68.5027  223.6574 H   0  0  0  0  0  0  0  0  0  0  0  0
  138.8560   70.3460  223.6610 C   0  0  0  0  0  0  0  0  0  0  0  0
  137.9971   70.7888  224.1865 H   0  0  0  0  0  0  0  0  0  0  0  0
  138.6046   70.2052  222.5994 H   0  0  0  0  0  0  0  0  0  0  0  0
  141.0610   71.4270  221.5880 N   0  0  0  0  0  0  0  0  0  0  0  0
  141.5110   72.1640  220.5370 C   0  0  0  0  0  0  0  0  0  0  0  0
  142.1000   71.5920  219.5270 N   0  0  0  0  0  0  0  0  0  0  0  0
  143.4040   71.9850  218.9830 C   0  0  2  0  0  0  0  0  0  0  0  0
  143.6236   71.4060  218.0738 H   0  0  0  0  0  0  0  0  0  0  0  0
  144.5020   71.6810  220.0240 C   0  0  0  0  0  0  0  0  0  0  0  0
  144.1979   70.8094  220.6223 H   0  0  0  0  0  0  0  0  0  0  0  0
  145.4415   71.4758  219.4899 H   0  0  0  0  0  0  0  0  0  0  0  0
  144.7250   72.8740  220.9570 C   0  0  0  0  0  0  0  0  0  0  0  0
  143.7964   73.0718  221.5124 H   0  0  0  0  0  0  0  0  0  0  0  0
  145.5472   72.6255  221.6442 H   0  0  0  0  0  0  0  0  0  0  0  0
  145.1190   74.1440  220.1690 C   0  0  0  0  0  0  0  0  0  0  0  0
  144.6423   75.0128  220.6464 H   0  0  0  0  0  0  0  0  0  0  0  0
  146.2168   74.2108  220.1873 H   0  0  0  0  0  0  0  0  0  0  0  0
  144.7070   74.1040  218.7500 N   0  0  0  0  0  0  0  0  0  0  0  0
  144.6700   75.0840  218.3820 H   0  0  0  0  0  0  0  0  0  0  0  0
  145.4160   73.5770  218.1880 H   0  0  0  0  0  0  0  0  0  0  0  0
  143.3850   73.4840  218.5810 C   0  0  0  0  0  0  0  0  0  0  0  0
  142.6580   74.0145  219.2135 H   0  0  0  0  0  0  0  0  0  0  0  0
  143.1046   73.5531  217.5196 H   0  0  0  0  0  0  0  0  0  0  0  0
  141.3520   73.5150  220.5450 N   0  0  0  0  0  0  0  0  0  0  0  0
  141.7400   74.0820  219.7570 H   0  0  0  0  0  0  0  0  0  0  0  0
  141.3530   76.4660  220.8790 C   0  0  0  0  0  0  0  0  0  0  0  0
  142.3510   75.9760  220.0430 O   0  0  0  0  0  0  0  0  0  0  0  0
  141.1470   77.8490  220.9450 C   0  0  0  0  0  0  0  0  0  0  0  0
  141.7981   78.5274  220.3742 H   0  0  0  0  0  0  0  0  0  0  0  0
  1  2  1  0
  2  3  2  0
  3  4  1  0
  3  5  1  0
  5  6  1  0
  5  7  2  0
  7  8  1  0
  8  9  2  0
  9 10  1  0
 10 11  1  0
 11 12  1  0
 12 13  1  0
 12 14  1  0
 12 15  1  0
 15 16  2  0
 16 17  1  0
 16 18  1  0
 18 19  1  0
 18 20  2  0
 20 21  1  0
 20 22  1  0
 22 23  1  0
 22 24  2  0
 24 25  1  0
 25 26  1  0
 25 27  1  0
 25 28  1  0
 28 29  1  0
 28 30  1  0
 10 31  2  0
 31 32  1  0
 32 33  2  0
 33 34  1  0
 34 35  1  6
 34 36  1  0
 36 37  1  0
 36 38  1  0
 36 39  1  0
 39 40  1  0
 39 41  1  0
 39 42  1  0
 42 43  1  0
 42 44  1  0
 42 45  1  0
 45 46  1  0
 45 47  1  0
 45 48  1  0
 48 49  1  0
 48 50  1  0
 32 51  1  0
 51 52  1  0
  7 53  1  0
 53 54  1  0
 53 55  2  0
 55 56  1  0
 55  2  1  0
 51  8  1  0
 28 11  1  0
 48 34  1  0
 24 15  1  0
M  CHG  2  45   1  54  -1
M  END
>  <UniqueID>  (30) 
483

>  <SMILES>  (30) 
[O-]c1ccccc1-c1nc(N2CCc3ccccc3C2)n/c(=N\[C@@H]2CCC[NH2+]C2)[nH]1

>  <Energy>  (30) 
72.62298009940868

>  <Genealogy>  (30) 
[O-]c1ccccc1-c1nc(NC2CCC[NH2+]C2)nc(N2CCc3ccccc3C2)n1 (protonated)
[O-]c1ccccc1-c1nc(N2CCc3ccccc3C2)nc(=NC2CCC[NH2+]C2)[nH]1 (tautomer)
[O-]c1ccccc1-c1nc(N2CCc3ccccc3C2)nc(=N[C@@H]2CCC[NH2+]C2)[nH]1 (chirality)
[O-]c1ccccc1-c1nc(N2CCc3ccccc3C2)n/c(=N\[C@@H]2CCC[NH2+]C2)[nH]1 (cis-trans isomerization)
[O-]c1ccccc1-c1nc(N2CCc3ccccc3C2)n/c(=N\[C@@H]2CCC[NH2+]C2)[nH]1 (3D coordinates assigned)
[O-]c1ccccc1-c1nc(N2CCc3ccccc3C2)n/c(=N\[C@@H]2CCC[NH2+]C2)[nH]1 (nonaromatic ring conformer: 72.62298009940868 kcal/mol)

>  <smiles>  (30) 
Oc1ccccc1-c1nc(NC2CCCNC2)nc(N2CCc3ccccc3C2)n1

>  <score_type>  (30) 
oracle

>  <origin>  (30) 
autodockgpu

>  <m_score__min__energy>  (30) 
-7.8700000000000001

>  <m_primary>  (30) 
energy

>  <meeko>  (30) 
{"free_energy": -7.85, "intermolecular_energy": -9.04, "internal_energy": -2.29, "cluster_size": 12, "cluster_id": 1, "rank_in_cluster": 4}

>  <energy>  (30) 
-7.84

>  <cluster_rmsd>  (30) 
0.34

>  <rmsd>  (30) 
270.12

>  <cluster>  (30) 
1

$$$$
UQJJBYVBPBMERE-AOLYHIHGNA-N
     RDKit          3D

 56 60  0  0  0  0  0  0  0  0999 V2000
  146.3779   70.9641  218.1714 H   0  0  0  0  0  0  0  0  0  0  0  0
  145.5060   71.3180  218.7410 C   0  0  0  0  0  0  0  0  0  0  0  0
  144.6860   70.4020  219.4050 C   0  0  0  0  0  0  0  0  0  0  0  0
  144.9210   69.3280  219.3676 H   0  0  0  0  0  0  0  0  0  0  0  0
  143.5690   70.8460  220.1160 C   0  0  0  0  0  0  0  0  0  0  0  0
  142.9306   70.1196  220.6402 H   0  0  0  0  0  0  0  0  0  0  0  0
  143.2550   72.2170  220.1660 C   0  0  0  0  0  0  0  0  0  0  0  0
  142.0630   72.6580  220.9280 C   0  0  0  0  0  0  0  0  0  0  0  0
  141.6180   71.8980  221.9610 N   0  0  0  0  0  0  0  0  0  0  0  0
  140.5260   72.2680  222.6800 C   0  0  0  0  0  0  0  0  0  0  0  0
  140.0540   71.4420  223.7650 N   0  0  0  0  0  0  0  0  0  0  0  0
  140.6110   71.6230  225.1130 C   0  0  0  0  0  0  0  0  0  0  0  0
  140.0915   72.4620  225.5990 H   0  0  0  0  0  0  0  0  0  0  0  0
  141.6877   71.8201  225.0045 H   0  0  0  0  0  0  0  0  0  0  0  0
  140.4560   70.3920  225.9770 C   0  0  0  0  0  0  0  0  0  0  0  0
  141.0410   70.3810  227.2550 C   0  0  0  0  0  0  0  0  0  0  0  0
  141.6020   71.2599  227.6056 H   0  0  0  0  0  0  0  0  0  0  0  0
  140.9160   69.2630  228.0840 C   0  0  0  0  0  0  0  0  0  0  0  0
  141.3772   69.2649  229.0827 H   0  0  0  0  0  0  0  0  0  0  0  0
  140.2070   68.1450  227.6460 C   0  0  0  0  0  0  0  0  0  0  0  0
  140.1126   67.2640  228.2978 H   0  0  0  0  0  0  0  0  0  0  0  0
  139.6160   68.1430  226.3790 C   0  0  0  0  0  0  0  0  0  0  0  0
  139.0645   67.2554  226.0354 H   0  0  0  0  0  0  0  0  0  0  0  0
  139.7210   69.2650  225.5420 C   0  0  0  0  0  0  0  0  0  0  0  0
  139.1400   69.2080  224.1540 C   0  0  0  0  0  0  0  0  0  0  0  0
  138.1988   68.6395  224.1834 H   0  0  0  0  0  0  0  0  0  0  0  0
  139.8714   68.7199  223.4931 H   0  0  0  0  0  0  0  0  0  0  0  0
  138.8590   70.6040  223.6090 C   0  0  0  0  0  0  0  0  0  0  0  0
  138.0221   71.0524  224.1644 H   0  0  0  0  0  0  0  0  0  0  0  0
  138.5975   70.5346  222.5428 H   0  0  0  0  0  0  0  0  0  0  0  0
  139.8730   73.4110  222.3500 N   0  0  0  0  0  0  0  0  0  0  0  0
  140.2960   74.1760  221.3080 C   0  0  0  0  0  0  0  0  0  0  0  0
  139.6640   75.2660  220.9840 N   0  0  0  0  0  0  0  0  0  0  0  0
  140.3060   76.5200  220.5760 C   0  0  2  0  0  0  0  0  0  0  0  0
  139.9146   77.3560  221.1743 H   0  0  0  0  0  0  0  0  0  0  0  0
  139.9840   76.7980  219.0930 C   0  0  0  0  0  0  0  0  0  0  0  0
  138.9948   76.3793  218.8562 H   0  0  0  0  0  0  0  0  0  0  0  0
  139.9933   77.8862  218.9329 H   0  0  0  0  0  0  0  0  0  0  0  0
  141.0280   76.1640  218.1710 C   0  0  0  0  0  0  0  0  0  0  0  0
  141.0100   75.0727  218.3077 H   0  0  0  0  0  0  0  0  0  0  0  0
  140.7809   76.4327  217.1334 H   0  0  0  0  0  0  0  0  0  0  0  0
  142.4500   76.6860  218.4820 C   0  0  0  0  0  0  0  0  0  0  0  0
  143.1600   75.8537  218.3672 H   0  0  0  0  0  0  0  0  0  0  0  0
  142.6559   77.5072  217.7796 H   0  0  0  0  0  0  0  0  0  0  0  0
  142.5870   77.2340  219.8470 N   0  0  0  0  0  0  0  0  0  0  0  0
  143.6000   77.2300  220.1130 H   0  0  0  0  0  0  0  0  0  0  0  0
  142.2540   78.2270  219.8670 H   0  0  0  0  0  0  0  0  0  0  0  0
  141.8350   76.4450  220.8330 C   0  0  0  0  0  0  0  0  0  0  0  0
  142.1567   75.3949  220.7707 H   0  0  0  0  0  0  0  0  0  0  0  0
  142.0374   76.8583  221.8321 H   0  0  0  0  0  0  0  0  0  0  0  0
  141.3860   73.7930  220.5890 N   0  0  0  0  0  0  0  0  0  0  0  0
  141.6790   74.3590  219.7610 H   0  0  0  0  0  0  0  0  0  0  0  0
  144.1060   73.1390  219.5180 C   0  0  0  0  0  0  0  0  0  0  0  0
  143.8780   74.5090  219.6020 O   0  0  0  0  0  0  0  0  0  0  0  0
  145.2180   72.6820  218.8010 C   0  0  0  0  0  0  0  0  0  0  0  0
  145.8681   73.4018  218.2822 H   0  0  0  0  0  0  0  0  0  0  0  0
  1  2  1  0
  2  3  2  0
  3  4  1  0
  3  5  1  0
  5  6  1  0
  5  7  2  0
  7  8  1  0
  8  9  2  0
  9 10  1  0
 10 11  1  0
 11 12  1  0
 12 13  1  0
 12 14  1  0
 12 15  1  0
 15 16  2  0
 16 17  1  0
 16 18  1  0
 18 19  1  0
 18 20  2  0
 20 21  1  0
 20 22  1  0
 22 23  1  0
 22 24  2  0
 24 25  1  0
 25 26  1  0
 25 27  1  0
 25 28  1  0
 28 29  1  0
 28 30  1  0
 10 31  2  0
 31 32  1  0
 32 33  2  0
 33 34  1  0
 34 35  1  1
 34 36  1  0
 36 37  1  0
 36 38  1  0
 36 39  1  0
 39 40  1  0
 39 41  1  0
 39 42  1  0
 42 43  1  0
 42 44  1  0
 42 45  1  0
 45 46  1  0
 45 47  1  0
 45 48  1  0
 48 49  1  0
 48 50  1  0
 32 51  1  0
 51 52  1  0
  7 53  1  0
 53 54  1  0
 53 55  2  0
 55 56  1  0
 55  2  1  0
 51  8  1  0
 28 11  1  0
 48 34  1  0
 24 15  1  0
M  CHG  2  45   1  54  -1
M  END
>  <UniqueID>  (31) 
483

>  <SMILES>  (31) 
[O-]c1ccccc1-c1nc(N2CCc3ccccc3C2)n/c(=N\[C@@H]2CCC[NH2+]C2)[nH]1

>  <Energy>  (31) 
72.62298009940868

>  <Genealogy>  (31) 
[O-]c1ccccc1-c1nc(NC2CCC[NH2+]C2)nc(N2CCc3ccccc3C2)n1 (protonated)
[O-]c1ccccc1-c1nc(N2CCc3ccccc3C2)nc(=NC2CCC[NH2+]C2)[nH]1 (tautomer)
[O-]c1ccccc1-c1nc(N2CCc3ccccc3C2)nc(=N[C@@H]2CCC[NH2+]C2)[nH]1 (chirality)
[O-]c1ccccc1-c1nc(N2CCc3ccccc3C2)n/c(=N\[C@@H]2CCC[NH2+]C2)[nH]1 (cis-trans isomerization)
[O-]c1ccccc1-c1nc(N2CCc3ccccc3C2)n/c(=N\[C@@H]2CCC[NH2+]C2)[nH]1 (3D coordinates assigned)
[O-]c1ccccc1-c1nc(N2CCc3ccccc3C2)n/c(=N\[C@@H]2CCC[NH2+]C2)[nH]1 (nonaromatic ring conformer: 72.62298009940868 kcal/mol)

>  <smiles>  (31) 
Oc1ccccc1-c1nc(NC2CCCNC2)nc(N2CCc3ccccc3C2)n1

>  <score_type>  (31) 
oracle

>  <origin>  (31) 
autodockgpu

>  <m_score__min__energy>  (31) 
-7.8700000000000001

>  <m_primary>  (31) 
energy

>  <meeko>  (31) 
{"free_energy": -7.82, "intermolecular_energy": -9.01, "internal_energy": -2.27, "cluster_size": 8, "cluster_id": 2, "rank_in_cluster": 2}

>  <energy>  (31) 
-7.82

>  <cluster_rmsd>  (31) 
0.13

>  <rmsd>  (31) 
270.14

>  <cluster>  (31) 
1

$$$$
UQJJBYVBPBMERE-AOLYHIHGNA-N
     RDKit          3D

 56 60  0  0  0  0  0  0  0  0999 V2000
  139.9765   79.4545  221.7733 H   0  0  0  0  0  0  0  0  0  0  0  0
  140.1330   78.3670  221.7210 C   0  0  0  0  0  0  0  0  0  0  0  0
  139.2940   77.5060  222.4320 C   0  0  0  0  0  0  0  0  0  0  0  0
  138.4710   77.9161  223.0357 H   0  0  0  0  0  0  0  0  0  0  0  0
  139.4980   76.1240  222.3780 C   0  0  0  0  0  0  0  0  0  0  0  0
  138.8296   75.4507  222.9347 H   0  0  0  0  0  0  0  0  0  0  0  0
  140.5530   75.5890  221.6160 C   0  0  0  0  0  0  0  0  0  0  0  0
  140.7440   74.1200  221.5790 C   0  0  0  0  0  0  0  0  0  0  0  0
  140.3180   73.3690  222.6270 N   0  0  0  0  0  0  0  0  0  0  0  0
  140.4800   72.0210  222.6320 C   0  0  0  0  0  0  0  0  0  0  0  0
  140.0390   71.2370  223.7600 N   0  0  0  0  0  0  0  0  0  0  0  0
  140.5900   71.5100  225.0950 C   0  0  0  0  0  0  0  0  0  0  0  0
  140.0407   72.3544  225.5370 H   0  0  0  0  0  0  0  0  0  0  0  0
  141.6588   71.7403  224.9737 H   0  0  0  0  0  0  0  0  0  0  0  0
  140.4800   70.3220  226.0230 C   0  0  0  0  0  0  0  0  0  0  0  0
  141.0660   70.4000  227.2980 C   0  0  0  0  0  0  0  0  0  0  0  0
  141.5947   71.3162  227.5997 H   0  0  0  0  0  0  0  0  0  0  0  0
  140.9830   69.3240  228.1860 C   0  0  0  0  0  0  0  0  0  0  0  0
  141.4455   69.3955  229.1815 H   0  0  0  0  0  0  0  0  0  0  0  0
  140.3140   68.1600  227.8100 C   0  0  0  0  0  0  0  0  0  0  0  0
  140.2516   67.3126  228.5085 H   0  0  0  0  0  0  0  0  0  0  0  0
  139.7220   68.0680  226.5460 C   0  0  0  0  0  0  0  0  0  0  0  0
  139.2029   67.1439  226.2517 H   0  0  0  0  0  0  0  0  0  0  0  0
  139.7860   69.1480  225.6500 C   0  0  0  0  0  0  0  0  0  0  0  0
  139.2060   68.9950  224.2700 C   0  0  0  0  0  0  0  0  0  0  0  0
  138.2856   68.3959  224.3330 H   0  0  0  0  0  0  0  0  0  0  0  0
  139.9528   68.4974  223.6338 H   0  0  0  0  0  0  0  0  0  0  0  0
  138.8750   70.3500  223.6520 C   0  0  0  0  0  0  0  0  0  0  0  0
  138.0230   70.7973  224.1849 H   0  0  0  0  0  0  0  0  0  0  0  0
  138.6156   70.2147  222.5916 H   0  0  0  0  0  0  0  0  0  0  0  0
  141.0830   71.4240  221.5720 N   0  0  0  0  0  0  0  0  0  0  0  0
  141.5300   72.1620  220.5210 C   0  0  0  0  0  0  0  0  0  0  0  0
  142.1190   71.5920  219.5100 N   0  0  0  0  0  0  0  0  0  0  0  0
  143.4220   71.9860  218.9650 C   0  0  2  0  0  0  0  0  0  0  0  0
  143.6423   71.4052  218.0572 H   0  0  0  0  0  0  0  0  0  0  0  0
  144.5200   71.6860  220.0060 C   0  0  0  0  0  0  0  0  0  0  0  0
  144.2173   70.8154  220.6064 H   0  0  0  0  0  0  0  0  0  0  0  0
  145.4598   71.4806  219.4725 H   0  0  0  0  0  0  0  0  0  0  0  0
  144.7410   72.8820  220.9360 C   0  0  0  0  0  0  0  0  0  0  0  0
  143.8120   73.0796  221.4908 H   0  0  0  0  0  0  0  0  0  0  0  0
  145.5637   72.6366  221.6237 H   0  0  0  0  0  0  0  0  0  0  0  0
  145.1330   74.1510  220.1450 C   0  0  0  0  0  0  0  0  0  0  0  0
  144.6549   75.0202  220.6204 H   0  0  0  0  0  0  0  0  0  0  0  0
  146.2307   74.2197  220.1632 H   0  0  0  0  0  0  0  0  0  0  0  0
  144.7210   74.1070  218.7260 N   0  0  0  0  0  0  0  0  0  0  0  0
  144.6820   75.0860  218.3550 H   0  0  0  0  0  0  0  0  0  0  0  0
  145.4310   73.5790  218.1650 H   0  0  0  0  0  0  0  0  0  0  0  0
  143.4010   73.4830  218.5580 C   0  0  0  0  0  0  0  0  0  0  0  0
  142.6721   74.0141  219.1878 H   0  0  0  0  0  0  0  0  0  0  0  0
  143.1223   73.5473  217.4958 H   0  0  0  0  0  0  0  0  0  0  0  0
  141.3700   73.5140  220.5300 N   0  0  0  0  0  0  0  0  0  0  0  0
  141.7560   74.0810  219.7420 H   0  0  0  0  0  0  0  0  0  0  0  0
  141.3770   76.4650  220.8760 C   0  0  0  0  0  0  0  0  0  0  0  0
  142.3840   75.9770  220.0490 O   0  0  0  0  0  0  0  0  0  0  0  0
  141.1700   77.8480  220.9440 C   0  0  0  0  0  0  0  0  0  0  0  0
  141.8273   78.5284  220.3828 H   0  0  0  0  0  0  0  0  0  0  0  0
  1  2  1  0
  2  3  2  0
  3  4  1  0
  3  5  1  0
  5  6  1  0
  5  7  2  0
  7  8  1  0
  8  9  2  0
  9 10  1  0
 10 11  1  0
 11 12  1  0
 12 13  1  0
 12 14  1  0
 12 15  1  0
 15 16  2  0
 16 17  1  0
 16 18  1  0
 18 19  1  0
 18 20  2  0
 20 21  1  0
 20 22  1  0
 22 23  1  0
 22 24  2  0
 24 25  1  0
 25 26  1  0
 25 27  1  0
 25 28  1  0
 28 29  1  0
 28 30  1  0
 10 31  2  0
 31 32  1  0
 32 33  2  0
 33 34  1  0
 34 35  1  6
 34 36  1  0
 36 37  1  0
 36 38  1  0
 36 39  1  0
 39 40  1  0
 39 41  1  0
 39 42  1  0
 42 43  1  0
 42 44  1  0
 42 45  1  0
 45 46  1  0
 45 47  1  0
 45 48  1  0
 48 49  1  0
 48 50  1  0
 32 51  1  0
 51 52  1  0
  7 53  1  0
 53 54  1  0
 53 55  2  0
 55 56  1  0
 55  2  1  0
 51  8  1  0
 28 11  1  0
 48 34  1  0
 24 15  1  0
M  CHG  2  45   1  54  -1
M  END
>  <UniqueID>  (32) 
483

>  <SMILES>  (32) 
[O-]c1ccccc1-c1nc(N2CCc3ccccc3C2)n/c(=N\[C@@H]2CCC[NH2+]C2)[nH]1

>  <Energy>  (32) 
72.62298009940868

>  <Genealogy>  (32) 
[O-]c1ccccc1-c1nc(NC2CCC[NH2+]C2)nc(N2CCc3ccccc3C2)n1 (protonated)
[O-]c1ccccc1-c1nc(N2CCc3ccccc3C2)nc(=NC2CCC[NH2+]C2)[nH]1 (tautomer)
[O-]c1ccccc1-c1nc(N2CCc3ccccc3C2)nc(=N[C@@H]2CCC[NH2+]C2)[nH]1 (chirality)
[O-]c1ccccc1-c1nc(N2CCc3ccccc3C2)n/c(=N\[C@@H]2CCC[NH2+]C2)[nH]1 (cis-trans isomerization)
[O-]c1ccccc1-c1nc(N2CCc3ccccc3C2)n/c(=N\[C@@H]2CCC[NH2+]C2)[nH]1 (3D coordinates assigned)
[O-]c1ccccc1-c1nc(N2CCc3ccccc3C2)n/c(=N\[C@@H]2CCC[NH2+]C2)[nH]1 (nonaromatic ring conformer: 72.62298009940868 kcal/mol)

>  <smiles>  (32) 
Oc1ccccc1-c1nc(NC2CCCNC2)nc(N2CCc3ccccc3C2)n1

>  <score_type>  (32) 
oracle

>  <origin>  (32) 
autodockgpu

>  <m_score__min__energy>  (32) 
-7.8700000000000001

>  <m_primary>  (32) 
energy

>  <meeko>  (32) 
{"free_energy": -7.84, "intermolecular_energy": -9.04, "internal_energy": -2.29, "cluster_size": 12, "cluster_id": 1, "rank_in_cluster": 7}

>  <energy>  (32) 
-7.81

>  <cluster_rmsd>  (32) 
0.34

>  <rmsd>  (32) 
270.12

>  <cluster>  (32) 
1

$$$$
UQJJBYVBPBMERE-AOLYHIHGNA-N
     RDKit          3D

 56 60  0  0  0  0  0  0  0  0999 V2000
  139.9913   79.4705  221.7769 H   0  0  0  0  0  0  0  0  0  0  0  0
  140.1470   78.3830  221.7220 C   0  0  0  0  0  0  0  0  0  0  0  0
  139.2910   77.5180  222.4100 C   0  0  0  0  0  0  0  0  0  0  0  0
  138.4548   77.9257  222.9969 H   0  0  0  0  0  0  0  0  0  0  0  0
  139.4950   76.1370  222.3540 C   0  0  0  0  0  0  0  0  0  0  0  0
  138.8143   75.4618  222.8932 H   0  0  0  0  0  0  0  0  0  0  0  0
  140.5660   75.6040  221.6120 C   0  0  0  0  0  0  0  0  0  0  0  0
  140.7570   74.1360  221.5730 C   0  0  0  0  0  0  0  0  0  0  0  0
  140.3000   73.3790  222.6040 N   0  0  0  0  0  0  0  0  0  0  0  0
  140.4600   72.0310  222.6060 C   0  0  0  0  0  0  0  0  0  0  0  0
  139.9860   71.2410  223.7160 N   0  0  0  0  0  0  0  0  0  0  0  0
  140.4580   71.5420  225.0760 C   0  0  0  0  0  0  0  0  0  0  0  0
  139.8594   72.3710  225.4815 H   0  0  0  0  0  0  0  0  0  0  0  0
  141.5235   71.8070  225.0086 H   0  0  0  0  0  0  0  0  0  0  0  0
  140.3380   70.3570  226.0070 C   0  0  0  0  0  0  0  0  0  0  0  0
  140.8540   70.4630  227.3110 C   0  0  0  0  0  0  0  0  0  0  0  0
  141.3374   71.3976  227.6318 H   0  0  0  0  0  0  0  0  0  0  0  0
  140.7580   69.3910  228.2030 C   0  0  0  0  0  0  0  0  0  0  0  0
  141.1636   69.4846  229.2212 H   0  0  0  0  0  0  0  0  0  0  0  0
  140.1480   68.2030  227.8020 C   0  0  0  0  0  0  0  0  0  0  0  0
  140.0775   67.3581  228.5029 H   0  0  0  0  0  0  0  0  0  0  0  0
  139.6260   68.0840  226.5110 C   0  0  0  0  0  0  0  0  0  0  0  0
  139.1521   67.1418  226.1985 H   0  0  0  0  0  0  0  0  0  0  0  0
  139.7020   69.1580  225.6100 C   0  0  0  0  0  0  0  0  0  0  0  0
  139.2000   68.9770  224.2020 C   0  0  0  0  0  0  0  0  0  0  0  0
  138.2975   68.3485  224.2219 H   0  0  0  0  0  0  0  0  0  0  0  0
  139.9950   68.5002  223.6099 H   0  0  0  0  0  0  0  0  0  0  0  0
  138.8580   70.3160  223.5560 C   0  0  0  0  0  0  0  0  0  0  0  0
  137.9657   70.7392  224.0406 H   0  0  0  0  0  0  0  0  0  0  0  0
  138.6580   70.1649  222.4849 H   0  0  0  0  0  0  0  0  0  0  0  0
  141.0930   71.4390  221.5600 N   0  0  0  0  0  0  0  0  0  0  0  0
  141.5710   72.1830  220.5270 C   0  0  0  0  0  0  0  0  0  0  0  0
  142.1870   71.6170  219.5300 N   0  0  0  0  0  0  0  0  0  0  0  0
  143.5020   72.0170  219.0190 C   0  0  2  0  0  0  0  0  0  0  0  0
  143.7340   71.4608  218.0988 H   0  0  0  0  0  0  0  0  0  0  0  0
  144.5800   71.6800  220.0700 C   0  0  0  0  0  0  0  0  0  0  0  0
  144.2615   70.7942  220.6392 H   0  0  0  0  0  0  0  0  0  0  0  0
  145.5276   71.4850  219.5465 H   0  0  0  0  0  0  0  0  0  0  0  0
  144.7930   72.8460  221.0390 C   0  0  0  0  0  0  0  0  0  0  0  0
  143.8562   73.0334  221.5842 H   0  0  0  0  0  0  0  0  0  0  0  0
  145.6023   72.5748  221.7329 H   0  0  0  0  0  0  0  0  0  0  0  0
  145.2060   74.1350  220.2920 C   0  0  0  0  0  0  0  0  0  0  0  0
  144.7246   74.9929  220.7842 H   0  0  0  0  0  0  0  0  0  0  0  0
  146.3036   74.1961  220.3312 H   0  0  0  0  0  0  0  0  0  0  0  0
  144.8190   74.1350  218.8660 N   0  0  0  0  0  0  0  0  0  0  0  0
  144.7940   75.1250  218.5230 H   0  0  0  0  0  0  0  0  0  0  0  0
  145.5350   73.6190  218.3020 H   0  0  0  0  0  0  0  0  0  0  0  0
  143.4980   73.5260  218.6560 C   0  0  0  0  0  0  0  0  0  0  0  0
  142.7614   74.0436  219.2882 H   0  0  0  0  0  0  0  0  0  0  0  0
  143.2387   73.6238  217.5915 H   0  0  0  0  0  0  0  0  0  0  0  0
  141.4120   73.5340  220.5390 N   0  0  0  0  0  0  0  0  0  0  0  0
  141.8210   74.1050  219.7650 H   0  0  0  0  0  0  0  0  0  0  0  0
  141.4070   76.4830  220.8960 C   0  0  0  0  0  0  0  0  0  0  0  0
  142.4320   75.9980  220.0890 O   0  0  0  0  0  0  0  0  0  0  0  0
  141.2000   77.8650  220.9650 C   0  0  0  0  0  0  0  0  0  0  0  0
  141.8698   78.5467  220.4204 H   0  0  0  0  0  0  0  0  0  0  0  0
  1  2  1  0
  2  3  2  0
  3  4  1  0
  3  5  1  0
  5  6  1  0
  5  7  2  0
  7  8  1  0
  8  9  2  0
  9 10  1  0
 10 11  1  0
 11 12  1  0
 12 13  1  0
 12 14  1  0
 12 15  1  0
 15 16  2  0
 16 17  1  0
 16 18  1  0
 18 19  1  0
 18 20  2  0
 20 21  1  0
 20 22  1  0
 22 23  1  0
 22 24  2  0
 24 25  1  0
 25 26  1  0
 25 27  1  0
 25 28  1  0
 28 29  1  0
 28 30  1  0
 10 31  2  0
 31 32  1  0
 32 33  2  0
 33 34  1  0
 34 35  1  6
 34 36  1  0
 36 37  1  0
 36 38  1  0
 36 39  1  0
 39 40  1  0
 39 41  1  0
 39 42  1  0
 42 43  1  0
 42 44  1  0
 42 45  1  0
 45 46  1  0
 45 47  1  0
 45 48  1  0
 48 49  1  0
 48 50  1  0
 32 51  1  0
 51 52  1  0
  7 53  1  0
 53 54  1  0
 53 55  2  0
 55 56  1  0
 55  2  1  0
 51  8  1  0
 28 11  1  0
 48 34  1  0
 24 15  1  0
M  CHG  2  45   1  54  -1
M  END
>  <UniqueID>  (33) 
483

>  <SMILES>  (33) 
[O-]c1ccccc1-c1nc(N2CCc3ccccc3C2)n/c(=N\[C@@H]2CCC[NH2+]C2)[nH]1

>  <Energy>  (33) 
72.62298009940868

>  <Genealogy>  (33) 
[O-]c1ccccc1-c1nc(NC2CCC[NH2+]C2)nc(N2CCc3ccccc3C2)n1 (protonated)
[O-]c1ccccc1-c1nc(N2CCc3ccccc3C2)nc(=NC2CCC[NH2+]C2)[nH]1 (tautomer)
[O-]c1ccccc1-c1nc(N2CCc3ccccc3C2)nc(=N[C@@H]2CCC[NH2+]C2)[nH]1 (chirality)
[O-]c1ccccc1-c1nc(N2CCc3ccccc3C2)n/c(=N\[C@@H]2CCC[NH2+]C2)[nH]1 (cis-trans isomerization)
[O-]c1ccccc1-c1nc(N2CCc3ccccc3C2)n/c(=N\[C@@H]2CCC[NH2+]C2)[nH]1 (3D coordinates assigned)
[O-]c1ccccc1-c1nc(N2CCc3ccccc3C2)n/c(=N\[C@@H]2CCC[NH2+]C2)[nH]1 (nonaromatic ring conformer: 72.62298009940868 kcal/mol)

>  <smiles>  (33) 
Oc1ccccc1-c1nc(NC2CCCNC2)nc(N2CCc3ccccc3C2)n1

>  <score_type>  (33) 
oracle

>  <origin>  (33) 
autodockgpu

>  <m_score__min__energy>  (33) 
-7.8700000000000001

>  <m_primary>  (33) 
energy

>  <meeko>  (33) 
{"free_energy": -7.87, "intermolecular_energy": -9.06, "internal_energy": -2.26, "cluster_size": 12, "cluster_id": 1, "rank_in_cluster": 1}

>  <energy>  (33) 
-7.82

>  <cluster_rmsd>  (33) 
0.0

>  <rmsd>  (33) 
269.96

>  <cluster>  (33) 
2

$$$$
UQJJBYVBPBMERE-AOLYHIHGNA-N
     RDKit          3D

 56 60  0  0  0  0  0  0  0  0999 V2000
  146.4692   71.7109  218.5116 H   0  0  0  0  0  0  0  0  0  0  0  0
  145.5430   71.9830  219.0390 C   0  0  0  0  0  0  0  0  0  0  0  0
  144.7630   70.9900  219.6390 C   0  0  0  0  0  0  0  0  0  0  0  0
  145.0827   69.9385  219.5938 H   0  0  0  0  0  0  0  0  0  0  0  0
  143.5780   71.3310  220.2960 C   0  0  0  0  0  0  0  0  0  0  0  0
  142.9709   70.5459  220.7703 H   0  0  0  0  0  0  0  0  0  0  0  0
  143.1560   72.6720  220.3550 C   0  0  0  0  0  0  0  0  0  0  0  0
  141.8950   73.0020  221.0590 C   0  0  0  0  0  0  0  0  0  0  0  0
  141.4460   72.1760  222.0380 N   0  0  0  0  0  0  0  0  0  0  0  0
  140.2920   72.4430  222.7030 C   0  0  0  0  0  0  0  0  0  0  0  0
  139.8170   71.5460  223.7290 N   0  0  0  0  0  0  0  0  0  0  0  0
  140.5020   71.5020  225.0300 C   0  0  0  0  0  0  0  0  0  0  0  0
  140.1265   72.3262  225.6543 H   0  0  0  0  0  0  0  0  0  0  0  0
  141.5818   71.5959  224.8422 H   0  0  0  0  0  0  0  0  0  0  0  0
  140.2750   70.1980  225.7610 C   0  0  0  0  0  0  0  0  0  0  0  0
  140.9590   69.9690  226.9670 C   0  0  0  0  0  0  0  0  0  0  0  0
  141.6468   70.7336  227.3573 H   0  0  0  0  0  0  0  0  0  0  0  0
  140.7730   68.7780  227.6750 C   0  0  0  0  0  0  0  0  0  0  0  0
  141.3128   68.6086  228.6183 H   0  0  0  0  0  0  0  0  0  0  0  0
  139.9030   67.8050  227.1850 C   0  0  0  0  0  0  0  0  0  0  0  0
  139.7592   66.8668  227.7409 H   0  0  0  0  0  0  0  0  0  0  0  0
  139.2130   68.0200  225.9880 C   0  0  0  0  0  0  0  0  0  0  0  0
  138.5352   67.2446  225.6016 H   0  0  0  0  0  0  0  0  0  0  0  0
  139.3790   69.2180  225.2760 C   0  0  0  0  0  0  0  0  0  0  0  0
  138.6820   69.3920  223.9530 C   0  0  0  0  0  0  0  0  0  0  0  0
  137.6862   68.9281  224.0095 H   0  0  0  0  0  0  0  0  0  0  0  0
  139.2930   68.9120  223.1743 H   0  0  0  0  0  0  0  0  0  0  0  0
  138.5230   70.8660  223.5970 C   0  0  0  0  0  0  0  0  0  0  0  0
  137.7941   71.3305  224.2774 H   0  0  0  0  0  0  0  0  0  0  0  0
  138.1671   70.9554  222.5600 H   0  0  0  0  0  0  0  0  0  0  0  0
  139.5810   73.5510  222.3730 N   0  0  0  0  0  0  0  0  0  0  0  0
  140.0070   74.3810  221.3840 C   0  0  0  0  0  0  0  0  0  0  0  0
  139.3200   75.4380  221.0600 N   0  0  0  0  0  0  0  0  0  0  0  0
  139.8900   76.7640  220.8000 C   0  0  2  0  0  0  0  0  0  0  0  0
  139.3626   77.5246  221.3945 H   0  0  0  0  0  0  0  0  0  0  0  0
  139.7110   77.1110  219.3070 C   0  0  0  0  0  0  0  0  0  0  0  0
  138.7949   76.6296  218.9341 H   0  0  0  0  0  0  0  0  0  0  0  0
  139.6418   78.2045  219.2094 H   0  0  0  0  0  0  0  0  0  0  0  0
  140.9030   76.6250  218.4790 C   0  0  0  0  0  0  0  0  0  0  0  0
  140.9666   75.5293  218.5527 H   0  0  0  0  0  0  0  0  0  0  0  0
  140.7498   76.9388  217.4359 H   0  0  0  0  0  0  0  0  0  0  0  0
  142.2290   77.2400  218.9810 C   0  0  0  0  0  0  0  0  0  0  0  0
  143.0184   76.4778  218.9035 H   0  0  0  0  0  0  0  0  0  0  0  0
  142.4376   78.1192  218.3538 H   0  0  0  0  0  0  0  0  0  0  0  0
  142.1650   77.7080  220.3820 N   0  0  0  0  0  0  0  0  0  0  0  0
  143.1400   77.7680  220.7620 H   0  0  0  0  0  0  0  0  0  0  0  0
  141.7460   78.6670  220.4180 H   0  0  0  0  0  0  0  0  0  0  0  0
  141.3810   76.7970  221.2280 C   0  0  0  0  0  0  0  0  0  0  0  0
  141.7992   75.7830  221.1444 H   0  0  0  0  0  0  0  0  0  0  0  0
  141.4340   77.1586  222.2655 H   0  0  0  0  0  0  0  0  0  0  0  0
  141.1610   74.1000  220.7190 N   0  0  0  0  0  0  0  0  0  0  0  0
  141.4610   74.7160  219.9300 H   0  0  0  0  0  0  0  0  0  0  0  0
  143.9670   73.6720  219.7730 C   0  0  0  0  0  0  0  0  0  0  0  0
  143.6290   75.0180  219.8720 O   0  0  0  0  0  0  0  0  0  0  0  0
  145.1470   73.3190  219.1090 C   0  0  0  0  0  0  0  0  0  0  0  0
  145.7654   74.0985  218.6400 H   0  0  0  0  0  0  0  0  0  0  0  0
  1  2  1  0
  2  3  2  0
  3  4  1  0
  3  5  1  0
  5  6  1  0
  5  7  2  0
  7  8  1  0
  8  9  2  0
  9 10  1  0
 10 11  1  0
 11 12  1  0
 12 13  1  0
 12 14  1  0
 12 15  1  0
 15 16  2  0
 16 17  1  0
 16 18  1  0
 18 19  1  0
 18 20  2  0
 20 21  1  0
 20 22  1  0
 22 23  1  0
 22 24  2  0
 24 25  1  0
 25 26  1  0
 25 27  1  0
 25 28  1  0
 28 29  1  0
 28 30  1  0
 10 31  2  0
 31 32  1  0
 32 33  2  0
 33 34  1  0
 34 35  1  1
 34 36  1  0
 36 37  1  0
 36 38  1  0
 36 39  1  0
 39 40  1  0
 39 41  1  0
 39 42  1  0
 42 43  1  0
 42 44  1  0
 42 45  1  0
 45 46  1  0
 45 47  1  0
 45 48  1  0
 48 49  1  0
 48 50  1  0
 32 51  1  0
 51 52  1  0
  7 53  1  0
 53 54  1  0
 53 55  2  0
 55 56  1  0
 55  2  1  0
 51  8  1  0
 28 11  1  0
 48 34  1  0
 24 15  1  0
M  CHG  2  45   1  54  -1
M  END
>  <UniqueID>  (34) 
483

>  <SMILES>  (34) 
[O-]c1ccccc1-c1nc(N2CCc3ccccc3C2)n/c(=N\[C@@H]2CCC[NH2+]C2)[nH]1

>  <Energy>  (34) 
72.62298009940868

>  <Genealogy>  (34) 
[O-]c1ccccc1-c1nc(NC2CCC[NH2+]C2)nc(N2CCc3ccccc3C2)n1 (protonated)
[O-]c1ccccc1-c1nc(N2CCc3ccccc3C2)nc(=NC2CCC[NH2+]C2)[nH]1 (tautomer)
[O-]c1ccccc1-c1nc(N2CCc3ccccc3C2)nc(=N[C@@H]2CCC[NH2+]C2)[nH]1 (chirality)
[O-]c1ccccc1-c1nc(N2CCc3ccccc3C2)n/c(=N\[C@@H]2CCC[NH2+]C2)[nH]1 (cis-trans isomerization)
[O-]c1ccccc1-c1nc(N2CCc3ccccc3C2)n/c(=N\[C@@H]2CCC[NH2+]C2)[nH]1 (3D coordinates assigned)
[O-]c1ccccc1-c1nc(N2CCc3ccccc3C2)n/c(=N\[C@@H]2CCC[NH2+]C2)[nH]1 (nonaromatic ring conformer: 72.62298009940868 kcal/mol)

>  <smiles>  (34) 
Oc1ccccc1-c1nc(NC2CCCNC2)nc(N2CCc3ccccc3C2)n1

>  <score_type>  (34) 
oracle

>  <origin>  (34) 
autodockgpu

>  <m_score__min__energy>  (34) 
-7.8700000000000001

>  <m_primary>  (34) 
energy

>  <meeko>  (34) 
{"free_energy": -7.77, "intermolecular_energy": -8.97, "internal_energy": -2.27, "cluster_size": 8, "cluster_id": 2, "rank_in_cluster": 8}

>  <energy>  (34) 
-7.82

>  <cluster_rmsd>  (34) 
0.04

>  <rmsd>  (34) 
269.94

>  <cluster>  (34) 
2

$$$$
UQJJBYVBPBMERE-AOLYHIHGNA-N
     RDKit          3D

 56 60  0  0  0  0  0  0  0  0999 V2000
  146.4164   71.8733  218.5295 H   0  0  0  0  0  0  0  0  0  0  0  0
  145.4930   72.0990  219.0830 C   0  0  0  0  0  0  0  0  0  0  0  0
  144.7870   71.0710  219.7150 C   0  0  0  0  0  0  0  0  0  0  0  0
  145.1625   70.0382  219.6680 H   0  0  0  0  0  0  0  0  0  0  0  0
  143.6060   71.3520  220.4060 C   0  0  0  0  0  0  0  0  0  0  0  0
  143.0587   70.5392  220.9057 H   0  0  0  0  0  0  0  0  0  0  0  0
  143.1120   72.6680  220.4670 C   0  0  0  0  0  0  0  0  0  0  0  0
  141.8560   72.9350  221.2070 C   0  0  0  0  0  0  0  0  0  0  0  0
  141.4760   72.0850  222.1960 N   0  0  0  0  0  0  0  0  0  0  0  0
  140.3290   72.2940  222.8930 C   0  0  0  0  0  0  0  0  0  0  0  0
  139.9280   71.3740  223.9290 N   0  0  0  0  0  0  0  0  0  0  0  0
  140.4860   71.5140  225.2830 C   0  0  0  0  0  0  0  0  0  0  0  0
  139.9139   72.2833  225.8223 H   0  0  0  0  0  0  0  0  0  0  0  0
  141.5447   71.7942  225.1803 H   0  0  0  0  0  0  0  0  0  0  0  0
  140.4270   70.2250  226.0710 C   0  0  0  0  0  0  0  0  0  0  0  0
  141.0250   70.1800  227.3420 C   0  0  0  0  0  0  0  0  0  0  0  0
  141.5257   71.0745  227.7409 H   0  0  0  0  0  0  0  0  0  0  0  0
  140.9890   69.0080  228.1040 C   0  0  0  0  0  0  0  0  0  0  0  0
  141.4601   68.9833  229.0977 H   0  0  0  0  0  0  0  0  0  0  0  0
  140.3560   67.8710  227.6040 C   0  0  0  0  0  0  0  0  0  0  0  0
  140.3316   66.9482  228.2021 H   0  0  0  0  0  0  0  0  0  0  0  0
  139.7520   67.9020  226.3430 C   0  0  0  0  0  0  0  0  0  0  0  0
  139.2601   66.9997  225.9507 H   0  0  0  0  0  0  0  0  0  0  0  0
  139.7690   69.0770  225.5740 C   0  0  0  0  0  0  0  0  0  0  0  0
  139.1780   69.0610  224.1900 C   0  0  0  0  0  0  0  0  0  0  0  0
  138.2792   68.4268  224.1921 H   0  0  0  0  0  0  0  0  0  0  0  0
  139.9338   68.6652  223.4957 H   0  0  0  0  0  0  0  0  0  0  0  0
  138.7940   70.4640  223.7320 C   0  0  0  0  0  0  0  0  0  0  0  0
  137.9341   70.8183  224.3194 H   0  0  0  0  0  0  0  0  0  0  0  0
  138.5265   70.4395  222.6653 H   0  0  0  0  0  0  0  0  0  0  0  0
  139.5560   73.3670  222.5870 N   0  0  0  0  0  0  0  0  0  0  0  0
  139.9130   74.2190  221.5890 C   0  0  0  0  0  0  0  0  0  0  0  0
  139.1660   75.2410  221.2880 N   0  0  0  0  0  0  0  0  0  0  0  0
  139.6280   76.6320  221.2340 C   0  0  2  0  0  0  0  0  0  0  0  0
  138.9781   77.2697  221.8512 H   0  0  0  0  0  0  0  0  0  0  0  0
  139.5540   77.1360  219.7770 C   0  0  0  0  0  0  0  0  0  0  0  0
  138.7271   76.6251  219.2621 H   0  0  0  0  0  0  0  0  0  0  0  0
  139.3882   78.2233  219.7923 H   0  0  0  0  0  0  0  0  0  0  0  0
  140.8580   76.8550  219.0280 C   0  0  0  0  0  0  0  0  0  0  0  0
  141.0196   75.7677  218.9876 H   0  0  0  0  0  0  0  0  0  0  0  0
  140.7718   77.2764  218.0156 H   0  0  0  0  0  0  0  0  0  0  0  0
  142.0680   77.5170  219.7270 C   0  0  0  0  0  0  0  0  0  0  0  0
  142.9306   76.8390  219.6482 H   0  0  0  0  0  0  0  0  0  0  0  0
  142.2489   78.4783  219.2239 H   0  0  0  0  0  0  0  0  0  0  0  0
  141.8300   77.8090  221.1560 N   0  0  0  0  0  0  0  0  0  0  0  0
  142.7550   77.9070  221.6390 H   0  0  0  0  0  0  0  0  0  0  0  0
  141.3200   78.7180  221.2540 H   0  0  0  0  0  0  0  0  0  0  0  0
  141.0630   76.7410  221.8130 C   0  0  0  0  0  0  0  0  0  0  0  0
  141.5828   75.7833  221.6624 H   0  0  0  0  0  0  0  0  0  0  0  0
  140.9855   76.9807  222.8838 H   0  0  0  0  0  0  0  0  0  0  0  0
  141.0600   73.9960  220.8910 N   0  0  0  0  0  0  0  0  0  0  0  0
  141.3070   74.6270  220.0960 H   0  0  0  0  0  0  0  0  0  0  0  0
  143.8470   73.7050  219.8520 C   0  0  0  0  0  0  0  0  0  0  0  0
  143.4380   75.0320  219.9500 O   0  0  0  0  0  0  0  0  0  0  0  0
  145.0250   73.4120  219.1550 C   0  0  0  0  0  0  0  0  0  0  0  0
  145.5846   74.2204  218.6616 H   0  0  0  0  0  0  0  0  0  0  0  0
  1  2  1  0
  2  3  2  0
  3  4  1  0
  3  5  1  0
  5  6  1  0
  5  7  2  0
  7  8  1  0
  8  9  2  0
  9 10  1  0
 10 11  1  0
 11 12  1  0
 12 13  1  0
 12 14  1  0
 12 15  1  0
 15 16  2  0
 16 17  1  0
 16 18  1  0
 18 19  1  0
 18 20  2  0
 20 21  1  0
 20 22  1  0
 22 23  1  0
 22 24  2  0
 24 25  1  0
 25 26  1  0
 25 27  1  0
 25 28  1  0
 28 29  1  0
 28 30  1  0
 10 31  2  0
 31 32  1  0
 32 33  2  0
 33 34  1  0
 34 35  1  1
 34 36  1  0
 36 37  1  0
 36 38  1  0
 36 39  1  0
 39 40  1  0
 39 41  1  0
 39 42  1  0
 42 43  1  0
 42 44  1  0
 42 45  1  0
 45 46  1  0
 45 47  1  0
 45 48  1  0
 48 49  1  0
 48 50  1  0
 32 51  1  0
 51 52  1  0
  7 53  1  0
 53 54  1  0
 53 55  2  0
 55 56  1  0
 55  2  1  0
 51  8  1  0
 28 11  1  0
 48 34  1  0
 24 15  1  0
M  CHG  2  45   1  54  -1
M  END
>  <UniqueID>  (35) 
483

>  <SMILES>  (35) 
[O-]c1ccccc1-c1nc(N2CCc3ccccc3C2)n/c(=N\[C@@H]2CCC[NH2+]C2)[nH]1

>  <Energy>  (35) 
72.62298009940868

>  <Genealogy>  (35) 
[O-]c1ccccc1-c1nc(NC2CCC[NH2+]C2)nc(N2CCc3ccccc3C2)n1 (protonated)
[O-]c1ccccc1-c1nc(N2CCc3ccccc3C2)nc(=NC2CCC[NH2+]C2)[nH]1 (tautomer)
[O-]c1ccccc1-c1nc(N2CCc3ccccc3C2)nc(=N[C@@H]2CCC[NH2+]C2)[nH]1 (chirality)
[O-]c1ccccc1-c1nc(N2CCc3ccccc3C2)n/c(=N\[C@@H]2CCC[NH2+]C2)[nH]1 (cis-trans isomerization)
[O-]c1ccccc1-c1nc(N2CCc3ccccc3C2)n/c(=N\[C@@H]2CCC[NH2+]C2)[nH]1 (3D coordinates assigned)
[O-]c1ccccc1-c1nc(N2CCc3ccccc3C2)n/c(=N\[C@@H]2CCC[NH2+]C2)[nH]1 (nonaromatic ring conformer: 72.62298009940868 kcal/mol)

>  <smiles>  (35) 
Oc1ccccc1-c1nc(NC2CCCNC2)nc(N2CCc3ccccc3C2)n1

>  <score_type>  (35) 
oracle

>  <origin>  (35) 
autodockgpu

>  <m_score__min__energy>  (35) 
-7.8700000000000001

>  <m_primary>  (35) 
energy

>  <meeko>  (35) 
{"free_energy": -7.81, "intermolecular_energy": -9.01, "internal_energy": -2.26, "cluster_size": 8, "cluster_id": 2, "rank_in_cluster": 3}

>  <energy>  (35) 
-7.81

>  <cluster_rmsd>  (35) 
0.79

>  <rmsd>  (35) 
270.21

>  <cluster>  (35) 
2

$$$$
UQJJBYVBPBMERE-AOLYHIHGNA-N
     RDKit          3D

 56 60  0  0  0  0  0  0  0  0999 V2000
  146.3958   70.9915  218.1798 H   0  0  0  0  0  0  0  0  0  0  0  0
  145.5220   71.3430  218.7480 C   0  0  0  0  0  0  0  0  0  0  0  0
  144.7130   70.4260  219.4240 C   0  0  0  0  0  0  0  0  0  0  0  0
  144.9574   69.3539  219.3960 H   0  0  0  0  0  0  0  0  0  0  0  0
  143.5950   70.8670  220.1350 C   0  0  0  0  0  0  0  0  0  0  0  0
  142.9658   70.1402  220.6696 H   0  0  0  0  0  0  0  0  0  0  0  0
  143.2680   72.2350  220.1720 C   0  0  0  0  0  0  0  0  0  0  0  0
  142.0740   72.6720  220.9340 C   0  0  0  0  0  0  0  0  0  0  0  0
  141.6340   71.9130  221.9700 N   0  0  0  0  0  0  0  0  0  0  0  0
  140.5420   72.2790  222.6890 C   0  0  0  0  0  0  0  0  0  0  0  0
  140.0740   71.4530  223.7760 N   0  0  0  0  0  0  0  0  0  0  0  0
  140.6380   71.6350  225.1220 C   0  0  0  0  0  0  0  0  0  0  0  0
  140.1207   72.4740  225.6104 H   0  0  0  0  0  0  0  0  0  0  0  0
  141.7141   71.8330  225.0087 H   0  0  0  0  0  0  0  0  0  0  0  0
  140.4870   70.4040  225.9860 C   0  0  0  0  0  0  0  0  0  0  0  0
  141.0780   70.3930  227.2610 C   0  0  0  0  0  0  0  0  0  0  0  0
  141.6407   71.2719  227.6087 H   0  0  0  0  0  0  0  0  0  0  0  0
  140.9570   69.2750  228.0910 C   0  0  0  0  0  0  0  0  0  0  0  0
  141.4238   69.2766  229.0870 H   0  0  0  0  0  0  0  0  0  0  0  0
  140.2450   68.1580  227.6570 C   0  0  0  0  0  0  0  0  0  0  0  0
  140.1534   67.2772  228.3095 H   0  0  0  0  0  0  0  0  0  0  0  0
  139.6470   68.1560  226.3930 C   0  0  0  0  0  0  0  0  0  0  0  0
  139.0926   67.2690  226.0527 H   0  0  0  0  0  0  0  0  0  0  0  0
  139.7490   69.2780  225.5550 C   0  0  0  0  0  0  0  0  0  0  0  0
  139.1610   69.2200  224.1700 C   0  0  0  0  0  0  0  0  0  0  0  0
  138.2197   68.6518  224.2042 H   0  0  0  0  0  0  0  0  0  0  0  0
  139.8881   68.7307  223.5052 H   0  0  0  0  0  0  0  0  0  0  0  0
  138.8780   70.6170  223.6270 C   0  0  0  0  0  0  0  0  0  0  0  0
  138.0449   71.0661  224.1876 H   0  0  0  0  0  0  0  0  0  0  0  0
  138.6099   70.5484  222.5624 H   0  0  0  0  0  0  0  0  0  0  0  0
  139.8830   73.4190  222.3560 N   0  0  0  0  0  0  0  0  0  0  0  0
  140.3010   74.1830  221.3120 C   0  0  0  0  0  0  0  0  0  0  0  0
  139.6630   75.2690  220.9860 N   0  0  0  0  0  0  0  0  0  0  0  0
  140.2990   76.5350  220.6070 C   0  0  2  0  0  0  0  0  0  0  0  0
  139.9134   77.3530  221.2333 H   0  0  0  0  0  0  0  0  0  0  0  0
  139.9600   76.8550  219.1370 C   0  0  0  0  0  0  0  0  0  0  0  0
  138.9687   76.4416  218.8994 H   0  0  0  0  0  0  0  0  0  0  0  0
  139.9663   77.9475  219.0085 H   0  0  0  0  0  0  0  0  0  0  0  0
  140.9940   76.2500  218.1850 C   0  0  0  0  0  0  0  0  0  0  0  0
  140.9786   75.1551  218.2898 H   0  0  0  0  0  0  0  0  0  0  0  0
  140.7345   76.5493  217.1588 H   0  0  0  0  0  0  0  0  0  0  0  0
  142.4190   76.7640  218.4940 C   0  0  0  0  0  0  0  0  0  0  0  0
  143.1282   75.9361  218.3472 H   0  0  0  0  0  0  0  0  0  0  0  0
  142.6167   77.6050  217.8131 H   0  0  0  0  0  0  0  0  0  0  0  0
  142.5710   77.2730  219.8740 N   0  0  0  0  0  0  0  0  0  0  0  0
  143.5870   77.2630  220.1280 H   0  0  0  0  0  0  0  0  0  0  0  0
  142.2380   78.2650  219.9260 H   0  0  0  0  0  0  0  0  0  0  0  0
  141.8310   76.4550  220.8450 C   0  0  0  0  0  0  0  0  0  0  0  0
  142.1533   75.4077  220.7491 H   0  0  0  0  0  0  0  0  0  0  0  0
  142.0439   76.8398  221.8533 H   0  0  0  0  0  0  0  0  0  0  0  0
  141.3920   73.8030  220.5930 N   0  0  0  0  0  0  0  0  0  0  0  0
  141.6820   74.3680  219.7640 H   0  0  0  0  0  0  0  0  0  0  0  0
  144.1080   73.1580  219.5110 C   0  0  0  0  0  0  0  0  0  0  0  0
  143.8670   74.5270  219.5830 O   0  0  0  0  0  0  0  0  0  0  0  0
  145.2210   72.7050  218.7940 C   0  0  0  0  0  0  0  0  0  0  0  0
  145.8615   73.4256  218.2643 H   0  0  0  0  0  0  0  0  0  0  0  0
  1  2  1  0
  2  3  2  0
  3  4  1  0
  3  5  1  0
  5  6  1  0
  5  7  2  0
  7  8  1  0
  8  9  2  0
  9 10  1  0
 10 11  1  0
 11 12  1  0
 12 13  1  0
 12 14  1  0
 12 15  1  0
 15 16  2  0
 16 17  1  0
 16 18  1  0
 18 19  1  0
 18 20  2  0
 20 21  1  0
 20 22  1  0
 22 23  1  0
 22 24  2  0
 24 25  1  0
 25 26  1  0
 25 27  1  0
 25 28  1  0
 28 29  1  0
 28 30  1  0
 10 31  2  0
 31 32  1  0
 32 33  2  0
 33 34  1  0
 34 35  1  1
 34 36  1  0
 36 37  1  0
 36 38  1  0
 36 39  1  0
 39 40  1  0
 39 41  1  0
 39 42  1  0
 42 43  1  0
 42 44  1  0
 42 45  1  0
 45 46  1  0
 45 47  1  0
 45 48  1  0
 48 49  1  0
 48 50  1  0
 32 51  1  0
 51 52  1  0
  7 53  1  0
 53 54  1  0
 53 55  2  0
 55 56  1  0
 55  2  1  0
 51  8  1  0
 28 11  1  0
 48 34  1  0
 24 15  1  0
M  CHG  2  45   1  54  -1
M  END
>  <UniqueID>  (36) 
483

>  <SMILES>  (36) 
[O-]c1ccccc1-c1nc(N2CCc3ccccc3C2)n/c(=N\[C@@H]2CCC[NH2+]C2)[nH]1

>  <Energy>  (36) 
72.62298009940868

>  <Genealogy>  (36) 
[O-]c1ccccc1-c1nc(NC2CCC[NH2+]C2)nc(N2CCc3ccccc3C2)n1 (protonated)
[O-]c1ccccc1-c1nc(N2CCc3ccccc3C2)nc(=NC2CCC[NH2+]C2)[nH]1 (tautomer)
[O-]c1ccccc1-c1nc(N2CCc3ccccc3C2)nc(=N[C@@H]2CCC[NH2+]C2)[nH]1 (chirality)
[O-]c1ccccc1-c1nc(N2CCc3ccccc3C2)n/c(=N\[C@@H]2CCC[NH2+]C2)[nH]1 (cis-trans isomerization)
[O-]c1ccccc1-c1nc(N2CCc3ccccc3C2)n/c(=N\[C@@H]2CCC[NH2+]C2)[nH]1 (3D coordinates assigned)
[O-]c1ccccc1-c1nc(N2CCc3ccccc3C2)n/c(=N\[C@@H]2CCC[NH2+]C2)[nH]1 (nonaromatic ring conformer: 72.62298009940868 kcal/mol)

>  <smiles>  (36) 
Oc1ccccc1-c1nc(NC2CCCNC2)nc(N2CCc3ccccc3C2)n1

>  <score_type>  (36) 
oracle

>  <origin>  (36) 
autodockgpu

>  <m_score__min__energy>  (36) 
-7.8700000000000001

>  <m_primary>  (36) 
energy

>  <meeko>  (36) 
{"free_energy": -7.82, "intermolecular_energy": -9.01, "internal_energy": -2.27, "cluster_size": 8, "cluster_id": 2, "rank_in_cluster": 1}

>  <energy>  (36) 
-7.81

>  <cluster_rmsd>  (36) 
0.55

>  <rmsd>  (36) 
269.99

>  <cluster>  (36) 
2

$$$$
UQJJBYVBPBMERE-AOLYHIHGNA-N
     RDKit          3D

 56 60  0  0  0  0  0  0  0  0999 V2000
  139.9896   79.4579  221.8063 H   0  0  0  0  0  0  0  0  0  0  0  0
  140.1430   78.3700  221.7530 C   0  0  0  0  0  0  0  0  0  0  0  0
  139.3030   77.5100  222.4650 C   0  0  0  0  0  0  0  0  0  0  0  0
  138.4814   77.9217  223.0696 H   0  0  0  0  0  0  0  0  0  0  0  0
  139.5040   76.1280  222.4110 C   0  0  0  0  0  0  0  0  0  0  0  0
  138.8355   75.4561  222.9693 H   0  0  0  0  0  0  0  0  0  0  0  0
  140.5560   75.5910  221.6470 C   0  0  0  0  0  0  0  0  0  0  0  0
  140.7440   74.1220  221.6100 C   0  0  0  0  0  0  0  0  0  0  0  0
  140.3100   73.3710  222.6540 N   0  0  0  0  0  0  0  0  0  0  0  0
  140.4690   72.0220  222.6580 C   0  0  0  0  0  0  0  0  0  0  0  0
  140.0180   71.2380  223.7830 N   0  0  0  0  0  0  0  0  0  0  0  0
  140.5610   71.5090  225.1220 C   0  0  0  0  0  0  0  0  0  0  0  0
  140.0103   72.3538  225.5613 H   0  0  0  0  0  0  0  0  0  0  0  0
  141.6309   71.7379  225.0079 H   0  0  0  0  0  0  0  0  0  0  0  0
  140.4430   70.3200  226.0480 C   0  0  0  0  0  0  0  0  0  0  0  0
  141.0200   70.3970  227.3270 C   0  0  0  0  0  0  0  0  0  0  0  0
  141.5478   71.3124  227.6329 H   0  0  0  0  0  0  0  0  0  0  0  0
  140.9290   69.3200  228.2140 C   0  0  0  0  0  0  0  0  0  0  0  0
  141.3837   69.3904  229.2132 H   0  0  0  0  0  0  0  0  0  0  0  0
  140.2620   68.1570  227.8320 C   0  0  0  0  0  0  0  0  0  0  0  0
  140.1948   67.3086  228.5289 H   0  0  0  0  0  0  0  0  0  0  0  0
  139.6780   68.0670  226.5640 C   0  0  0  0  0  0  0  0  0  0  0  0
  139.1591   67.1442  226.2655 H   0  0  0  0  0  0  0  0  0  0  0  0
  139.7500   69.1470  225.6700 C   0  0  0  0  0  0  0  0  0  0  0  0
  139.1790   68.9970  224.2850 C   0  0  0  0  0  0  0  0  0  0  0  0
  138.2574   68.3991  224.3409 H   0  0  0  0  0  0  0  0  0  0  0  0
  139.9300   68.4998  223.6535 H   0  0  0  0  0  0  0  0  0  0  0  0
  138.8540   70.3520  223.6660 C   0  0  0  0  0  0  0  0  0  0  0  0
  137.9986   70.7997  224.1931 H   0  0  0  0  0  0  0  0  0  0  0  0
  138.6022   70.2176  222.6037 H   0  0  0  0  0  0  0  0  0  0  0  0
  141.0770   71.4250  221.6010 N   0  0  0  0  0  0  0  0  0  0  0  0
  141.5330   72.1630  220.5540 C   0  0  0  0  0  0  0  0  0  0  0  0
  142.1260   71.5930  219.5460 N   0  0  0  0  0  0  0  0  0  0  0  0
  143.4320   71.9850  219.0080 C   0  0  2  0  0  0  0  0  0  0  0  0
  143.6545   71.4067  218.0991 H   0  0  0  0  0  0  0  0  0  0  0  0
  144.5250   71.6790  220.0540 C   0  0  0  0  0  0  0  0  0  0  0  0
  144.2172   70.8073  220.6501 H   0  0  0  0  0  0  0  0  0  0  0  0
  145.4667   71.4733  219.5241 H   0  0  0  0  0  0  0  0  0  0  0  0
  144.7450   72.8710  220.9890 C   0  0  0  0  0  0  0  0  0  0  0  0
  143.8142   73.0687  221.5409 H   0  0  0  0  0  0  0  0  0  0  0  0
  145.5644   72.6213  221.6791 H   0  0  0  0  0  0  0  0  0  0  0  0
  145.1430   74.1420  220.2040 C   0  0  0  0  0  0  0  0  0  0  0  0
  144.6639   75.0104  220.6798 H   0  0  0  0  0  0  0  0  0  0  0  0
  146.2407   74.2090  220.2279 H   0  0  0  0  0  0  0  0  0  0  0  0
  144.7380   74.1030  218.7830 N   0  0  0  0  0  0  0  0  0  0  0  0
  144.7040   75.0840  218.4150 H   0  0  0  0  0  0  0  0  0  0  0  0
  145.4490   73.5760  218.2240 H   0  0  0  0  0  0  0  0  0  0  0  0
  143.4170   73.4840  218.6070 C   0  0  0  0  0  0  0  0  0  0  0  0
  142.6872   74.0147  219.2360 H   0  0  0  0  0  0  0  0  0  0  0  0
  143.1427   73.5536  217.5440 H   0  0  0  0  0  0  0  0  0  0  0  0
  141.3750   73.5150  220.5640 N   0  0  0  0  0  0  0  0  0  0  0  0
  141.7670   74.0820  219.7790 H   0  0  0  0  0  0  0  0  0  0  0  0
  141.3810   76.4650  220.9060 C   0  0  0  0  0  0  0  0  0  0  0  0
  142.3860   75.9750  220.0770 O   0  0  0  0  0  0  0  0  0  0  0  0
  141.1770   77.8480  220.9740 C   0  0  0  0  0  0  0  0  0  0  0  0
  141.8345   78.5267  220.4110 H   0  0  0  0  0  0  0  0  0  0  0  0
  1  2  1  0
  2  3  2  0
  3  4  1  0
  3  5  1  0
  5  6  1  0
  5  7  2  0
  7  8  1  0
  8  9  2  0
  9 10  1  0
 10 11  1  0
 11 12  1  0
 12 13  1  0
 12 14  1  0
 12 15  1  0
 15 16  2  0
 16 17  1  0
 16 18  1  0
 18 19  1  0
 18 20  2  0
 20 21  1  0
 20 22  1  0
 22 23  1  0
 22 24  2  0
 24 25  1  0
 25 26  1  0
 25 27  1  0
 25 28  1  0
 28 29  1  0
 28 30  1  0
 10 31  2  0
 31 32  1  0
 32 33  2  0
 33 34  1  0
 34 35  1  6
 34 36  1  0
 36 37  1  0
 36 38  1  0
 36 39  1  0
 39 40  1  0
 39 41  1  0
 39 42  1  0
 42 43  1  0
 42 44  1  0
 42 45  1  0
 45 46  1  0
 45 47  1  0
 45 48  1  0
 48 49  1  0
 48 50  1  0
 32 51  1  0
 51 52  1  0
  7 53  1  0
 53 54  1  0
 53 55  2  0
 55 56  1  0
 55  2  1  0
 51  8  1  0
 28 11  1  0
 48 34  1  0
 24 15  1  0
M  CHG  2  45   1  54  -1
M  END
>  <UniqueID>  (37) 
483

>  <SMILES>  (37) 
[O-]c1ccccc1-c1nc(N2CCc3ccccc3C2)n/c(=N\[C@@H]2CCC[NH2+]C2)[nH]1

>  <Energy>  (37) 
72.62298009940868

>  <Genealogy>  (37) 
[O-]c1ccccc1-c1nc(NC2CCC[NH2+]C2)nc(N2CCc3ccccc3C2)n1 (protonated)
[O-]c1ccccc1-c1nc(N2CCc3ccccc3C2)nc(=NC2CCC[NH2+]C2)[nH]1 (tautomer)
[O-]c1ccccc1-c1nc(N2CCc3ccccc3C2)nc(=N[C@@H]2CCC[NH2+]C2)[nH]1 (chirality)
[O-]c1ccccc1-c1nc(N2CCc3ccccc3C2)n/c(=N\[C@@H]2CCC[NH2+]C2)[nH]1 (cis-trans isomerization)
[O-]c1ccccc1-c1nc(N2CCc3ccccc3C2)n/c(=N\[C@@H]2CCC[NH2+]C2)[nH]1 (3D coordinates assigned)
[O-]c1ccccc1-c1nc(N2CCc3ccccc3C2)n/c(=N\[C@@H]2CCC[NH2+]C2)[nH]1 (nonaromatic ring conformer: 72.62298009940868 kcal/mol)

>  <smiles>  (37) 
Oc1ccccc1-c1nc(NC2CCCNC2)nc(N2CCc3ccccc3C2)n1

>  <score_type>  (37) 
oracle

>  <origin>  (37) 
autodockgpu

>  <m_score__min__energy>  (37) 
-7.8700000000000001

>  <m_primary>  (37) 
energy

>  <meeko>  (37) 
{"free_energy": -7.85, "intermolecular_energy": -9.04, "internal_energy": -2.29, "cluster_size": 12, "cluster_id": 1, "rank_in_cluster": 5}

>  <energy>  (37) 
-7.8

>  <cluster_rmsd>  (37) 
0.1

>  <rmsd>  (37) 
269.94

>  <cluster>  (37) 
2

$$$$
UQJJBYVBPBMERE-AOLYHIHGNA-N
     RDKit          3D

 56 60  0  0  0  0  0  0  0  0999 V2000
  146.3676   71.0438  218.2039 H   0  0  0  0  0  0  0  0  0  0  0  0
  145.4930   71.3920  218.7730 C   0  0  0  0  0  0  0  0  0  0  0  0
  144.6580   70.4680  219.4060 C   0  0  0  0  0  0  0  0  0  0  0  0
  144.8829   69.3930  219.3445 H   0  0  0  0  0  0  0  0  0  0  0  0
  143.5380   70.9060  220.1170 C   0  0  0  0  0  0  0  0  0  0  0  0
  142.8878   70.1735  220.6176 H   0  0  0  0  0  0  0  0  0  0  0  0
  143.2360   72.2790  220.1970 C   0  0  0  0  0  0  0  0  0  0  0  0
  142.0410   72.7120  220.9570 C   0  0  0  0  0  0  0  0  0  0  0  0
  141.5850   71.9370  221.9740 N   0  0  0  0  0  0  0  0  0  0  0  0
  140.4900   72.3000  222.6920 C   0  0  0  0  0  0  0  0  0  0  0  0
  140.0050   71.4580  223.7580 N   0  0  0  0  0  0  0  0  0  0  0  0
  140.5040   71.6580  225.1270 C   0  0  0  0  0  0  0  0  0  0  0  0
  139.9375   72.4782  225.5921 H   0  0  0  0  0  0  0  0  0  0  0  0
  141.5765   71.8928  225.0597 H   0  0  0  0  0  0  0  0  0  0  0  0
  140.3590   70.4220  225.9850 C   0  0  0  0  0  0  0  0  0  0  0  0
  140.8950   70.4310  227.2840 C   0  0  0  0  0  0  0  0  0  0  0  0
  141.4120   71.3286  227.6542 H   0  0  0  0  0  0  0  0  0  0  0  0
  140.7770   69.3090  228.1100 C   0  0  0  0  0  0  0  0  0  0  0  0
  141.1987   69.3269  229.1258 H   0  0  0  0  0  0  0  0  0  0  0  0
  140.1250   68.1680  227.6460 C   0  0  0  0  0  0  0  0  0  0  0  0
  140.0372   67.2839  228.2945 H   0  0  0  0  0  0  0  0  0  0  0  0
  139.5820   68.1450  226.3570 C   0  0  0  0  0  0  0  0  0  0  0  0
  139.0750   67.2389  225.9937 H   0  0  0  0  0  0  0  0  0  0  0  0
  139.6800   69.2710  225.5240 C   0  0  0  0  0  0  0  0  0  0  0  0
  139.1550   69.1930  224.1150 C   0  0  0  0  0  0  0  0  0  0  0  0
  138.2337   68.5920  224.1090 H   0  0  0  0  0  0  0  0  0  0  0  0
  139.9270   68.7299  223.4829 H   0  0  0  0  0  0  0  0  0  0  0  0
  138.8470   70.5790  223.5590 C   0  0  0  0  0  0  0  0  0  0  0  0
  137.9751   70.9980  224.0827 H   0  0  0  0  0  0  0  0  0  0  0  0
  138.6283   70.5008  222.4838 H   0  0  0  0  0  0  0  0  0  0  0  0
  139.8450   73.4520  222.3760 N   0  0  0  0  0  0  0  0  0  0  0  0
  140.2790   74.2320  221.3510 C   0  0  0  0  0  0  0  0  0  0  0  0
  139.6540   75.3310  221.0410 N   0  0  0  0  0  0  0  0  0  0  0  0
  140.3020   76.5650  220.5820 C   0  0  2  0  0  0  0  0  0  0  0  0
  139.9165   77.4268  221.1466 H   0  0  0  0  0  0  0  0  0  0  0  0
  139.9780   76.7840  219.0890 C   0  0  0  0  0  0  0  0  0  0  0  0
  138.9865   76.3603  218.8711 H   0  0  0  0  0  0  0  0  0  0  0  0
  139.9914   77.8647  218.8845 H   0  0  0  0  0  0  0  0  0  0  0  0
  141.0180   76.1080  218.1920 C   0  0  0  0  0  0  0  0  0  0  0  0
  140.9953   75.0232  218.3730 H   0  0  0  0  0  0  0  0  0  0  0  0
  140.7706   76.3352  217.1445 H   0  0  0  0  0  0  0  0  0  0  0  0
  142.4430   76.6360  218.4800 C   0  0  0  0  0  0  0  0  0  0  0  0
  143.1492   75.7967  218.3977 H   0  0  0  0  0  0  0  0  0  0  0  0
  142.6510   77.4276  217.7450 H   0  0  0  0  0  0  0  0  0  0  0  0
  142.5850   77.2380  219.8220 N   0  0  0  0  0  0  0  0  0  0  0  0
  143.5990   77.2400  220.0860 H   0  0  0  0  0  0  0  0  0  0  0  0
  142.2570   78.2330  219.8030 H   0  0  0  0  0  0  0  0  0  0  0  0
  141.8310   76.4930  220.8400 C   0  0  0  0  0  0  0  0  0  0  0  0
  142.1476   75.4398  220.8197 H   0  0  0  0  0  0  0  0  0  0  0  0
  142.0369   76.9451  221.8214 H   0  0  0  0  0  0  0  0  0  0  0  0
  141.3720   73.8560  220.6330 N   0  0  0  0  0  0  0  0  0  0  0  0
  141.6740   74.4350  219.8180 H   0  0  0  0  0  0  0  0  0  0  0  0
  144.1030   73.2070  219.5800 C   0  0  0  0  0  0  0  0  0  0  0  0
  143.8880   74.5770  219.6960 O   0  0  0  0  0  0  0  0  0  0  0  0
  145.2170   72.7570  218.8630 C   0  0  0  0  0  0  0  0  0  0  0  0
  145.8787   73.4829  218.3677 H   0  0  0  0  0  0  0  0  0  0  0  0
  1  2  1  0
  2  3  2  0
  3  4  1  0
  3  5  1  0
  5  6  1  0
  5  7  2  0
  7  8  1  0
  8  9  2  0
  9 10  1  0
 10 11  1  0
 11 12  1  0
 12 13  1  0
 12 14  1  0
 12 15  1  0
 15 16  2  0
 16 17  1  0
 16 18  1  0
 18 19  1  0
 18 20  2  0
 20 21  1  0
 20 22  1  0
 22 23  1  0
 22 24  2  0
 24 25  1  0
 25 26  1  0
 25 27  1  0
 25 28  1  0
 28 29  1  0
 28 30  1  0
 10 31  2  0
 31 32  1  0
 32 33  2  0
 33 34  1  0
 34 35  1  1
 34 36  1  0
 36 37  1  0
 36 38  1  0
 36 39  1  0
 39 40  1  0
 39 41  1  0
 39 42  1  0
 42 43  1  0
 42 44  1  0
 42 45  1  0
 45 46  1  0
 45 47  1  0
 45 48  1  0
 48 49  1  0
 48 50  1  0
 32 51  1  0
 51 52  1  0
  7 53  1  0
 53 54  1  0
 53 55  2  0
 55 56  1  0
 55  2  1  0
 51  8  1  0
 28 11  1  0
 48 34  1  0
 24 15  1  0
M  CHG  2  45   1  54  -1
M  END
>  <UniqueID>  (38) 
483

>  <SMILES>  (38) 
[O-]c1ccccc1-c1nc(N2CCc3ccccc3C2)n/c(=N\[C@@H]2CCC[NH2+]C2)[nH]1

>  <Energy>  (38) 
72.62298009940868

>  <Genealogy>  (38) 
[O-]c1ccccc1-c1nc(NC2CCC[NH2+]C2)nc(N2CCc3ccccc3C2)n1 (protonated)
[O-]c1ccccc1-c1nc(N2CCc3ccccc3C2)nc(=NC2CCC[NH2+]C2)[nH]1 (tautomer)
[O-]c1ccccc1-c1nc(N2CCc3ccccc3C2)nc(=N[C@@H]2CCC[NH2+]C2)[nH]1 (chirality)
[O-]c1ccccc1-c1nc(N2CCc3ccccc3C2)n/c(=N\[C@@H]2CCC[NH2+]C2)[nH]1 (cis-trans isomerization)
[O-]c1ccccc1-c1nc(N2CCc3ccccc3C2)n/c(=N\[C@@H]2CCC[NH2+]C2)[nH]1 (3D coordinates assigned)
[O-]c1ccccc1-c1nc(N2CCc3ccccc3C2)n/c(=N\[C@@H]2CCC[NH2+]C2)[nH]1 (nonaromatic ring conformer: 72.62298009940868 kcal/mol)

>  <smiles>  (38) 
Oc1ccccc1-c1nc(NC2CCCNC2)nc(N2CCc3ccccc3C2)n1

>  <score_type>  (38) 
oracle

>  <origin>  (38) 
autodockgpu

>  <m_score__min__energy>  (38) 
-7.8700000000000001

>  <m_primary>  (38) 
energy

>  <meeko>  (38) 
{"free_energy": -7.8, "intermolecular_energy": -8.99, "internal_energy": -2.27, "cluster_size": 8, "cluster_id": 2, "rank_in_cluster": 5}

>  <energy>  (38) 
-7.79

>  <cluster_rmsd>  (38) 
0.55

>  <rmsd>  (38) 
269.98

>  <cluster>  (38) 
2

$$$$
UQJJBYVBPBMERE-AOLYHIHGNA-N
     RDKit          3D

 56 60  0  0  0  0  0  0  0  0999 V2000
  139.4171   79.4453  221.9024 H   0  0  0  0  0  0  0  0  0  0  0  0
  139.6350   78.3690  221.8390 C   0  0  0  0  0  0  0  0  0  0  0  0
  138.8390   77.4530  222.5310 C   0  0  0  0  0  0  0  0  0  0  0  0
  137.9879   77.8088  223.1303 H   0  0  0  0  0  0  0  0  0  0  0  0
  139.1210   76.0860  222.4640 C   0  0  0  0  0  0  0  0  0  0  0  0
  138.4867   75.3697  223.0068 H   0  0  0  0  0  0  0  0  0  0  0  0
  140.2120   75.6200  221.7060 C   0  0  0  0  0  0  0  0  0  0  0  0
  140.4860   74.1650  221.6550 C   0  0  0  0  0  0  0  0  0  0  0  0
  140.0930   73.3790  222.6900 N   0  0  0  0  0  0  0  0  0  0  0  0
  140.3310   72.0410  222.6800 C   0  0  0  0  0  0  0  0  0  0  0  0
  139.9240   71.2210  223.7950 N   0  0  0  0  0  0  0  0  0  0  0  0
  140.4370   71.5160  225.1410 C   0  0  0  0  0  0  0  0  0  0  0  0
  139.8282   72.3191  225.5820 H   0  0  0  0  0  0  0  0  0  0  0  0
  141.4904   71.8157  225.0380 H   0  0  0  0  0  0  0  0  0  0  0  0
  140.3900   70.3140  226.0570 C   0  0  0  0  0  0  0  0  0  0  0  0
  140.9510   70.4180  227.3420 C   0  0  0  0  0  0  0  0  0  0  0  0
  141.4150   71.3634  227.6598 H   0  0  0  0  0  0  0  0  0  0  0  0
  140.9240   69.3300  228.2190 C   0  0  0  0  0  0  0  0  0  0  0  0
  141.3661   69.4214  229.2221 H   0  0  0  0  0  0  0  0  0  0  0  0
  140.3370   68.1290  227.8230 C   0  0  0  0  0  0  0  0  0  0  0  0
  140.3192   67.2725  228.5130 H   0  0  0  0  0  0  0  0  0  0  0  0
  139.7710   68.0120  226.5500 C   0  0  0  0  0  0  0  0  0  0  0  0
  139.3168   67.0593  226.2399 H   0  0  0  0  0  0  0  0  0  0  0  0
  139.7780   69.1020  225.6640 C   0  0  0  0  0  0  0  0  0  0  0  0
  139.2300   68.9260  224.2730 C   0  0  0  0  0  0  0  0  0  0  0  0
  138.3497   68.2678  224.3159 H   0  0  0  0  0  0  0  0  0  0  0  0
  140.0175   68.4848  223.6443 H   0  0  0  0  0  0  0  0  0  0  0  0
  138.8210   70.2620  223.6620 C   0  0  0  0  0  0  0  0  0  0  0  0
  137.9344   70.6484  224.1861 H   0  0  0  0  0  0  0  0  0  0  0  0
  138.5857   70.1204  222.5968 H   0  0  0  0  0  0  0  0  0  0  0  0
  140.9770   71.4920  221.6200 N   0  0  0  0  0  0  0  0  0  0  0  0
  141.3910   72.2670  220.5820 C   0  0  0  0  0  0  0  0  0  0  0  0
  142.0200   71.7430  219.5700 N   0  0  0  0  0  0  0  0  0  0  0  0
  143.2930   72.2290  219.0280 C   0  0  2  0  0  0  0  0  0  0  0  0
  143.5606   71.6599  218.1255 H   0  0  0  0  0  0  0  0  0  0  0  0
  144.4050   72.0200  220.0770 C   0  0  0  0  0  0  0  0  0  0  0  0
  144.1657   71.1326  220.6814 H   0  0  0  0  0  0  0  0  0  0  0  0
  145.3603   71.8841  219.5489 H   0  0  0  0  0  0  0  0  0  0  0  0
  144.5310   73.2340  221.0010 C   0  0  0  0  0  0  0  0  0  0  0  0
  143.5867   73.3652  221.5498 H   0  0  0  0  0  0  0  0  0  0  0  0
  145.3653   73.0546  221.6951 H   0  0  0  0  0  0  0  0  0  0  0  0
  144.8320   74.5240  220.2030 C   0  0  0  0  0  0  0  0  0  0  0  0
  144.2886   75.3584  220.6704 H   0  0  0  0  0  0  0  0  0  0  0  0
  145.9214   74.6743  220.2257 H   0  0  0  0  0  0  0  0  0  0  0  0
  144.4310   74.4400  218.7820 N   0  0  0  0  0  0  0  0  0  0  0  0
  144.3220   75.4110  218.4050 H   0  0  0  0  0  0  0  0  0  0  0  0
  145.1820   73.9630  218.2280 H   0  0  0  0  0  0  0  0  0  0  0  0
  143.1620   73.7190  218.6120 C   0  0  0  0  0  0  0  0  0  0  0  0
  142.3927   74.1978  219.2357 H   0  0  0  0  0  0  0  0  0  0  0  0
  142.8838   73.7568  217.5484 H   0  0  0  0  0  0  0  0  0  0  0  0
  141.1550   73.6070  220.6050 N   0  0  0  0  0  0  0  0  0  0  0  0
  141.5150   74.2050  219.8270 H   0  0  0  0  0  0  0  0  0  0  0  0
  140.9930   76.5500  220.9860 C   0  0  0  0  0  0  0  0  0  0  0  0
  142.0340   76.1290  220.1640 O   0  0  0  0  0  0  0  0  0  0  0  0
  140.7070   77.9180  221.0670 C   0  0  0  0  0  0  0  0  0  0  0  0
  141.3299   78.6409  220.5198 H   0  0  0  0  0  0  0  0  0  0  0  0
  1  2  1  0
  2  3  2  0
  3  4  1  0
  3  5  1  0
  5  6  1  0
  5  7  2  0
  7  8  1  0
  8  9  2  0
  9 10  1  0
 10 11  1  0
 11 12  1  0
 12 13  1  0
 12 14  1  0
 12 15  1  0
 15 16  2  0
 16 17  1  0
 16 18  1  0
 18 19  1  0
 18 20  2  0
 20 21  1  0
 20 22  1  0
 22 23  1  0
 22 24  2  0
 24 25  1  0
 25 26  1  0
 25 27  1  0
 25 28  1  0
 28 29  1  0
 28 30  1  0
 10 31  2  0
 31 32  1  0
 32 33  2  0
 33 34  1  0
 34 35  1  6
 34 36  1  0
 36 37  1  0
 36 38  1  0
 36 39  1  0
 39 40  1  0
 39 41  1  0
 39 42  1  0
 42 43  1  0
 42 44  1  0
 42 45  1  0
 45 46  1  0
 45 47  1  0
 45 48  1  0
 48 49  1  0
 48 50  1  0
 32 51  1  0
 51 52  1  0
  7 53  1  0
 53 54  1  0
 53 55  2  0
 55 56  1  0
 55  2  1  0
 51  8  1  0
 28 11  1  0
 48 34  1  0
 24 15  1  0
M  CHG  2  45   1  54  -1
M  END
>  <UniqueID>  (39) 
483

>  <SMILES>  (39) 
[O-]c1ccccc1-c1nc(N2CCc3ccccc3C2)n/c(=N\[C@@H]2CCC[NH2+]C2)[nH]1

>  <Energy>  (39) 
72.62298009940868

>  <Genealogy>  (39) 
[O-]c1ccccc1-c1nc(NC2CCC[NH2+]C2)nc(N2CCc3ccccc3C2)n1 (protonated)
[O-]c1ccccc1-c1nc(N2CCc3ccccc3C2)nc(=NC2CCC[NH2+]C2)[nH]1 (tautomer)
[O-]c1ccccc1-c1nc(N2CCc3ccccc3C2)nc(=N[C@@H]2CCC[NH2+]C2)[nH]1 (chirality)
[O-]c1ccccc1-c1nc(N2CCc3ccccc3C2)n/c(=N\[C@@H]2CCC[NH2+]C2)[nH]1 (cis-trans isomerization)
[O-]c1ccccc1-c1nc(N2CCc3ccccc3C2)n/c(=N\[C@@H]2CCC[NH2+]C2)[nH]1 (3D coordinates assigned)
[O-]c1ccccc1-c1nc(N2CCc3ccccc3C2)n/c(=N\[C@@H]2CCC[NH2+]C2)[nH]1 (nonaromatic ring conformer: 72.62298009940868 kcal/mol)

>  <smiles>  (39) 
Oc1ccccc1-c1nc(NC2CCCNC2)nc(N2CCc3ccccc3C2)n1

>  <score_type>  (39) 
oracle

>  <origin>  (39) 
autodockgpu

>  <m_score__min__energy>  (39) 
-7.8700000000000001

>  <m_primary>  (39) 
energy

>  <meeko>  (39) 
{"free_energy": -7.84, "intermolecular_energy": -9.03, "internal_energy": -2.31, "cluster_size": 12, "cluster_id": 1, "rank_in_cluster": 10}

>  <energy>  (39) 
-7.78

>  <cluster_rmsd>  (39) 
0.74

>  <rmsd>  (39) 
270.2

>  <cluster>  (39) 
2

$$$$
UQJJBYVBPBMERE-AOLYHIHGNA-N
     RDKit          3D

 56 60  0  0  0  0  0  0  0  0999 V2000
  146.3965   71.7552  218.5018 H   0  0  0  0  0  0  0  0  0  0  0  0
  145.4750   72.0030  219.0490 C   0  0  0  0  0  0  0  0  0  0  0  0
  144.7680   71.0000  219.7170 C   0  0  0  0  0  0  0  0  0  0  0  0
  145.1396   69.9647  219.7036 H   0  0  0  0  0  0  0  0  0  0  0  0
  143.5900   71.3090  220.4020 C   0  0  0  0  0  0  0  0  0  0  0  0
  143.0413   70.5160  220.9312 H   0  0  0  0  0  0  0  0  0  0  0  0
  143.1010   72.6290  220.4190 C   0  0  0  0  0  0  0  0  0  0  0  0
  141.8480   72.9250  221.1530 C   0  0  0  0  0  0  0  0  0  0  0  0
  141.4670   72.1110  222.1710 N   0  0  0  0  0  0  0  0  0  0  0  0
  140.3240   72.3480  222.8640 C   0  0  0  0  0  0  0  0  0  0  0  0
  139.9220   71.4640  223.9320 N   0  0  0  0  0  0  0  0  0  0  0  0
  140.4520   71.6730  225.2880 C   0  0  0  0  0  0  0  0  0  0  0  0
  139.8551   72.4530  225.7833 H   0  0  0  0  0  0  0  0  0  0  0  0
  141.5069   71.9695  225.1915 H   0  0  0  0  0  0  0  0  0  0  0  0
  140.4040   70.4190  226.1300 C   0  0  0  0  0  0  0  0  0  0  0  0
  140.9800   70.4400  227.4120 C   0  0  0  0  0  0  0  0  0  0  0  0
  141.4567   71.3602  227.7809 H   0  0  0  0  0  0  0  0  0  0  0  0
  140.9520   69.3010  228.2220 C   0  0  0  0  0  0  0  0  0  0  0  0
  141.4044   69.3279  229.2243 H   0  0  0  0  0  0  0  0  0  0  0  0
  140.3510   68.1310  227.7600 C   0  0  0  0  0  0  0  0  0  0  0  0
  140.3339   67.2340  228.3965 H   0  0  0  0  0  0  0  0  0  0  0  0
  139.7700   68.0960  226.4890 C   0  0  0  0  0  0  0  0  0  0  0  0
  139.3039   67.1677  226.1271 H   0  0  0  0  0  0  0  0  0  0  0  0
  139.7770   69.2370  225.6710 C   0  0  0  0  0  0  0  0  0  0  0  0
  139.2120   69.1510  224.2780 C   0  0  0  0  0  0  0  0  0  0  0  0
  138.3260   68.4992  224.2910 H   0  0  0  0  0  0  0  0  0  0  0  0
  139.9885   68.7422  223.6147 H   0  0  0  0  0  0  0  0  0  0  0  0
  138.8090   70.5250  223.7540 C   0  0  0  0  0  0  0  0  0  0  0  0
  137.9320   70.8866  224.3108 H   0  0  0  0  0  0  0  0  0  0  0  0
  138.5606   70.4505  222.6850 H   0  0  0  0  0  0  0  0  0  0  0  0
  139.5540   73.4130  222.5240 N   0  0  0  0  0  0  0  0  0  0  0  0
  139.9120   74.2300  221.4980 C   0  0  0  0  0  0  0  0  0  0  0  0
  139.1680   75.2440  221.1640 N   0  0  0  0  0  0  0  0  0  0  0  0
  139.6250   76.6360  221.1020 C   0  0  2  0  0  0  0  0  0  0  0  0
  138.9450   77.2817  221.6769 H   0  0  0  0  0  0  0  0  0  0  0  0
  139.6140   77.1100  219.6330 C   0  0  0  0  0  0  0  0  0  0  0  0
  138.8126   76.5849  219.0925 H   0  0  0  0  0  0  0  0  0  0  0  0
  139.4439   78.1967  219.6189 H   0  0  0  0  0  0  0  0  0  0  0  0
  140.9510   76.8200  218.9480 C   0  0  0  0  0  0  0  0  0  0  0  0
  141.1190   75.7329  218.9380 H   0  0  0  0  0  0  0  0  0  0  0  0
  140.9075   77.2193  217.9240 H   0  0  0  0  0  0  0  0  0  0  0  0
  142.1260   77.5030  219.6850 C   0  0  0  0  0  0  0  0  0  0  0  0
  142.9944   76.8284  219.6581 H   0  0  0  0  0  0  0  0  0  0  0  0
  142.3244   78.4547  219.1703 H   0  0  0  0  0  0  0  0  0  0  0  0
  141.8240   77.8230  221.0960 N   0  0  0  0  0  0  0  0  0  0  0  0
  142.7260   77.9360  221.6170 H   0  0  0  0  0  0  0  0  0  0  0  0
  141.3050   78.7310  221.1530 H   0  0  0  0  0  0  0  0  0  0  0  0
  141.0340   76.7650  221.7410 C   0  0  0  0  0  0  0  0  0  0  0  0
  141.5642   75.8072  221.6333 H   0  0  0  0  0  0  0  0  0  0  0  0
  140.9087   77.0266  222.8021 H   0  0  0  0  0  0  0  0  0  0  0  0
  141.0560   73.9790  220.8050 N   0  0  0  0  0  0  0  0  0  0  0  0
  141.3030   74.5820  219.9880 H   0  0  0  0  0  0  0  0  0  0  0  0
  143.8380   73.6410  219.7670 C   0  0  0  0  0  0  0  0  0  0  0  0
  143.4340   74.9720  219.8200 O   0  0  0  0  0  0  0  0  0  0  0  0
  145.0120   73.3190  219.0760 C   0  0  0  0  0  0  0  0  0  0  0  0
  145.5722   74.1072  218.5518 H   0  0  0  0  0  0  0  0  0  0  0  0
  1  2  1  0
  2  3  2  0
  3  4  1  0
  3  5  1  0
  5  6  1  0
  5  7  2  0
  7  8  1  0
  8  9  2  0
  9 10  1  0
 10 11  1  0
 11 12  1  0
 12 13  1  0
 12 14  1  0
 12 15  1  0
 15 16  2  0
 16 17  1  0
 16 18  1  0
 18 19  1  0
 18 20  2  0
 20 21  1  0
 20 22  1  0
 22 23  1  0
 22 24  2  0
 24 25  1  0
 25 26  1  0
 25 27  1  0
 25 28  1  0
 28 29  1  0
 28 30  1  0
 10 31  2  0
 31 32  1  0
 32 33  2  0
 33 34  1  0
 34 35  1  1
 34 36  1  0
 36 37  1  0
 36 38  1  0
 36 39  1  0
 39 40  1  0
 39 41  1  0
 39 42  1  0
 42 43  1  0
 42 44  1  0
 42 45  1  0
 45 46  1  0
 45 47  1  0
 45 48  1  0
 48 49  1  0
 48 50  1  0
 32 51  1  0
 51 52  1  0
  7 53  1  0
 53 54  1  0
 53 55  2  0
 55 56  1  0
 55  2  1  0
 51  8  1  0
 28 11  1  0
 48 34  1  0
 24 15  1  0
M  CHG  2  45   1  54  -1
M  END
>  <UniqueID>  (40) 
483

>  <SMILES>  (40) 
[O-]c1ccccc1-c1nc(N2CCc3ccccc3C2)n/c(=N\[C@@H]2CCC[NH2+]C2)[nH]1

>  <Energy>  (40) 
72.62298009940868

>  <Genealogy>  (40) 
[O-]c1ccccc1-c1nc(NC2CCC[NH2+]C2)nc(N2CCc3ccccc3C2)n1 (protonated)
[O-]c1ccccc1-c1nc(N2CCc3ccccc3C2)nc(=NC2CCC[NH2+]C2)[nH]1 (tautomer)
[O-]c1ccccc1-c1nc(N2CCc3ccccc3C2)nc(=N[C@@H]2CCC[NH2+]C2)[nH]1 (chirality)
[O-]c1ccccc1-c1nc(N2CCc3ccccc3C2)n/c(=N\[C@@H]2CCC[NH2+]C2)[nH]1 (cis-trans isomerization)
[O-]c1ccccc1-c1nc(N2CCc3ccccc3C2)n/c(=N\[C@@H]2CCC[NH2+]C2)[nH]1 (3D coordinates assigned)
[O-]c1ccccc1-c1nc(N2CCc3ccccc3C2)n/c(=N\[C@@H]2CCC[NH2+]C2)[nH]1 (nonaromatic ring conformer: 72.62298009940868 kcal/mol)

>  <smiles>  (40) 
Oc1ccccc1-c1nc(NC2CCCNC2)nc(N2CCc3ccccc3C2)n1

>  <score_type>  (40) 
oracle

>  <origin>  (40) 
autodockgpu

>  <m_score__min__energy>  (40) 
-7.8700000000000001

>  <m_primary>  (40) 
energy

>  <meeko>  (40) 
{"free_energy": -7.78, "intermolecular_energy": -8.97, "internal_energy": -2.25, "cluster_size": 8, "cluster_id": 2, "rank_in_cluster": 7}

>  <energy>  (40) 
-7.77

>  <cluster_rmsd>  (40) 
0.55

>  <rmsd>  (40) 
269.97

>  <cluster>  (40) 
2

$$$$
UQJJBYVBPBMERE-JUZPGEPYNA-N
     RDKit          3D

 56 60  0  0  0  0  0  0  0  0999 V2000
  145.2070   75.2420  220.0520 H   0  0  0  0  0  0  0  0  0  0  0  0
  144.5150   74.6120  220.4410 O   0  0  0  0  0  0  0  0  0  0  0  0
  144.5000   73.2540  220.1250 C   0  0  0  0  0  0  0  0  0  0  0  0
  145.6120   72.6790  219.4890 C   0  0  0  0  0  0  0  0  0  0  0  0
  146.4688   73.3096  219.2091 H   0  0  0  0  0  0  0  0  0  0  0  0
  145.6360   71.3110  219.2100 C   0  0  0  0  0  0  0  0  0  0  0  0
  146.5092   70.8677  218.7089 H   0  0  0  0  0  0  0  0  0  0  0  0
  144.5540   70.5060  219.5660 C   0  0  0  0  0  0  0  0  0  0  0  0
  144.5788   69.4270  219.3534 H   0  0  0  0  0  0  0  0  0  0  0  0
  143.4390   71.0680  220.1920 C   0  0  0  0  0  0  0  0  0  0  0  0
  142.5918   70.4263  220.4756 H   0  0  0  0  0  0  0  0  0  0  0  0
  143.3900   72.4480  220.4630 C   0  0  0  0  0  0  0  0  0  0  0  0
  142.1910   73.0120  221.1280 C   0  0  0  0  0  0  0  0  0  0  0  0
  141.4100   72.2000  221.8880 N   0  0  0  0  0  0  0  0  0  0  0  0
  140.2930   72.6810  222.4930 C   0  0  0  0  0  0  0  0  0  0  0  0
  139.5340   71.9070  223.2100 N   0  0  0  0  0  0  0  0  0  0  0  0
  140.0170   70.8620  224.1190 C   0  0  1  0  0  0  0  0  0  0  0  0
  140.7232   70.2149  223.5781 H   0  0  0  0  0  0  0  0  0  0  0  0
  140.7490   71.5150  225.3200 C   0  0  0  0  0  0  0  0  0  0  0  0
  140.3853   72.5470  225.4327 H   0  0  0  0  0  0  0  0  0  0  0  0
  141.8273   71.4796  225.1057 H   0  0  0  0  0  0  0  0  0  0  0  0
  140.5290   70.7980  226.5910 N   0  0  0  0  0  0  0  0  0  0  0  0
  141.3010   71.0550  227.2480 H   0  0  0  0  0  0  0  0  0  0  0  0
  140.5580   69.3440  226.3980 C   0  0  0  0  0  0  0  0  0  0  0  0
  140.5298   68.8475  227.3792 H   0  0  0  0  0  0  0  0  0  0  0  0
  141.4807   69.0733  225.8638 H   0  0  0  0  0  0  0  0  0  0  0  0
  139.3460   68.8890  225.5640 C   0  0  0  0  0  0  0  0  0  0  0  0
  138.5277   68.6191  226.2478 H   0  0  0  0  0  0  0  0  0  0  0  0
  139.6614   68.0293  224.9546 H   0  0  0  0  0  0  0  0  0  0  0  0
  138.8490   69.9860  224.6070 C   0  0  0  0  0  0  0  0  0  0  0  0
  138.1196   70.6193  225.1333 H   0  0  0  0  0  0  0  0  0  0  0  0
  138.3826   69.5053  223.7344 H   0  0  0  0  0  0  0  0  0  0  0  0
  139.9620   73.9860  222.3450 N   0  0  0  0  0  0  0  0  0  0  0  0
  140.7320   74.8140  221.5880 C   0  0  0  0  0  0  0  0  0  0  0  0
  140.3500   76.1940  221.4320 N   0  0  0  0  0  0  0  0  0  0  0  0
  139.9630   77.0320  222.5710 C   0  0  0  0  0  0  0  0  0  0  0  0
  140.0798   76.4565  223.5011 H   0  0  0  0  0  0  0  0  0  0  0  0
  138.9144   77.3408  222.4479 H   0  0  0  0  0  0  0  0  0  0  0  0
  140.8320   78.2620  222.6350 C   0  0  0  0  0  0  0  0  0  0  0  0
  140.8600   79.0230  223.8150 C   0  0  0  0  0  0  0  0  0  0  0  0
  140.2894   78.6898  224.6944 H   0  0  0  0  0  0  0  0  0  0  0  0
  141.6080   80.2000  223.8780 C   0  0  0  0  0  0  0  0  0  0  0  0
  141.6293   80.7876  224.8077 H   0  0  0  0  0  0  0  0  0  0  0  0
  142.3290   80.6330  222.7640 C   0  0  0  0  0  0  0  0  0  0  0  0
  142.9195   81.5594  222.8185 H   0  0  0  0  0  0  0  0  0  0  0  0
  142.3020   79.8920  221.5800 C   0  0  0  0  0  0  0  0  0  0  0  0
  142.8786   80.2346  220.7081 H   0  0  0  0  0  0  0  0  0  0  0  0
  141.5440   78.7130  221.4950 C   0  0  0  0  0  0  0  0  0  0  0  0
  141.5960   77.9000  220.2190 C   0  0  0  0  0  0  0  0  0  0  0  0
  142.5623   77.3764  220.1734 H   0  0  0  0  0  0  0  0  0  0  0  0
  141.4721   78.5944  219.3749 H   0  0  0  0  0  0  0  0  0  0  0  0
  140.4720   76.8640  220.1380 C   0  0  0  0  0  0  0  0  0  0  0  0
  140.7081   76.1234  219.3597 H   0  0  0  0  0  0  0  0  0  0  0  0
  139.5242   77.3620  219.8858 H   0  0  0  0  0  0  0  0  0  0  0  0
  141.8330   74.3170  220.9580 N   0  0  0  0  0  0  0  0  0  0  0  0
  142.3690   74.9200  220.2970 H   0  0  0  0  0  0  0  0  0  0  0  0
  1  2  1  0
  2  3  1  0
  3  4  2  0
  4  5  1  0
  4  6  1  0
  6  7  1  0
  6  8  2  0
  8  9  1  0
  8 10  1  0
 10 11  1  0
 10 12  2  0
 12 13  1  0
 13 14  2  0
 14 15  1  0
 15 16  2  0
 16 17  1  0
 17 18  1  6
 17 19  1  0
 19 20  1  0
 19 21  1  0
 19 22  1  0
 22 23  1  0
 22 24  1  0
 24 25  1  0
 24 26  1  0
 24 27  1  0
 27 28  1  0
 27 29  1  0
 27 30  1  0
 30 31  1  0
 30 32  1  0
 15 33  1  0
 33 34  2  0
 34 35  1  0
 35 36  1  0
 36 37  1  0
 36 38  1  0
 36 39  1  0
 39 40  2  0
 40 41  1  0
 40 42  1  0
 42 43  1  0
 42 44  2  0
 44 45  1  0
 44 46  1  0
 46 47  1  0
 46 48  2  0
 48 49  1  0
 49 50  1  0
 49 51  1  0
 49 52  1  0
 52 53  1  0
 52 54  1  0
 34 55  1  0
 55 56  1  0
 12  3  1  0
 55 13  1  0
 30 17  1  0
 52 35  1  0
 48 39  1  0
M  END
>  <UniqueID>  (41) 
484

>  <SMILES>  (41) 
Oc1ccccc1-c1n/c(=N\[C@@H]2CCCNC2)nc(N2CCc3ccccc3C2)[nH]1

>  <Energy>  (41) 
73.76739758018856

>  <Genealogy>  (41) 
Oc1ccccc1-c1nc(=NC2CCCNC2)nc(N2CCc3ccccc3C2)[nH]1 (tautomer)
Oc1ccccc1-c1nc(=N[C@@H]2CCCNC2)nc(N2CCc3ccccc3C2)[nH]1 (chirality)
Oc1ccccc1-c1n/c(=N\[C@@H]2CCCNC2)nc(N2CCc3ccccc3C2)[nH]1 (cis-trans isomerization)
Oc1ccccc1-c1n/c(=N\[C@@H]2CCCNC2)nc(N2CCc3ccccc3C2)[nH]1 (3D coordinates assigned)
Oc1ccccc1-c1n/c(=N\[C@@H]2CCCNC2)nc(N2CCc3ccccc3C2)[nH]1 (nonaromatic ring conformer: 73.76739758018856 kcal/mol)

>  <smiles>  (41) 
Oc1ccccc1-c1nc(NC2CCCNC2)nc(N2CCc3ccccc3C2)n1

>  <score_type>  (41) 
oracle

>  <origin>  (41) 
autodockgpu

>  <m_score__min__energy>  (41) 
-8.4900000000000002

>  <m_primary>  (41) 
energy

>  <meeko>  (41) 
{"free_energy": -8.38, "intermolecular_energy": -9.87, "internal_energy": -1.33, "cluster_size": 11, "cluster_id": 2, "rank_in_cluster": 7}

>  <energy>  (41) 
-8.49

>  <cluster_rmsd>  (41) 
0.0

>  <rmsd>  (41) 
271.28

>  <cluster>  (41) 
1

$$$$
UQJJBYVBPBMERE-JUZPGEPYNA-N
     RDKit          3D

 56 60  0  0  0  0  0  0  0  0999 V2000
  138.9150   74.5080  223.0200 H   0  0  0  0  0  0  0  0  0  0  0  0
  139.4980   74.8540  222.2660 O   0  0  0  0  0  0  0  0  0  0  0  0
  140.5250   74.0840  221.7220 C   0  0  0  0  0  0  0  0  0  0  0  0
  141.5440   74.7100  220.9860 C   0  0  0  0  0  0  0  0  0  0  0  0
  141.5046   75.7952  220.8103 H   0  0  0  0  0  0  0  0  0  0  0  0
  142.6070   73.9620  220.4760 C   0  0  0  0  0  0  0  0  0  0  0  0
  143.3994   74.4584  219.8966 H   0  0  0  0  0  0  0  0  0  0  0  0
  142.6660   72.5860  220.7000 C   0  0  0  0  0  0  0  0  0  0  0  0
  143.5095   72.0003  220.3056 H   0  0  0  0  0  0  0  0  0  0  0  0
  141.6540   71.9520  221.4250 C   0  0  0  0  0  0  0  0  0  0  0  0
  141.7090   70.8680  221.6036 H   0  0  0  0  0  0  0  0  0  0  0  0
  140.5650   72.6870  221.9290 C   0  0  0  0  0  0  0  0  0  0  0  0
  139.5090   71.9820  222.6940 C   0  0  0  0  0  0  0  0  0  0  0  0
  139.8180   70.8300  223.3450 N   0  0  0  0  0  0  0  0  0  0  0  0
  138.8680   70.1490  224.0360 C   0  0  0  0  0  0  0  0  0  0  0  0
  139.1540   69.0390  224.6500 N   0  0  0  0  0  0  0  0  0  0  0  0
  139.4460   68.9210  226.0820 C   0  0  1  0  0  0  0  0  0  0  0  0
  138.5098   69.0341  226.6484 H   0  0  0  0  0  0  0  0  0  0  0  0
  140.0490   67.5230  226.3760 C   0  0  0  0  0  0  0  0  0  0  0  0
  140.4940   67.1315  225.4493 H   0  0  0  0  0  0  0  0  0  0  0  0
  139.2324   66.8835  226.7423 H   0  0  0  0  0  0  0  0  0  0  0  0
  141.0900   67.5510  227.4220 N   0  0  0  0  0  0  0  0  0  0  0  0
  141.1860   66.5840  227.8120 H   0  0  0  0  0  0  0  0  0  0  0  0
  140.7240   68.4530  228.5190 C   0  0  0  0  0  0  0  0  0  0  0  0
  141.4513   68.3427  229.3369 H   0  0  0  0  0  0  0  0  0  0  0  0
  139.7152   68.1937  228.8725 H   0  0  0  0  0  0  0  0  0  0  0  0
  140.7230   69.9140  228.0350 C   0  0  0  0  0  0  0  0  0  0  0  0
  141.7152   70.3497  228.2242 H   0  0  0  0  0  0  0  0  0  0  0  0
  139.9363   70.4499  228.5863 H   0  0  0  0  0  0  0  0  0  0  0  0
  140.4090   70.0330  226.5340 C   0  0  0  0  0  0  0  0  0  0  0  0
  141.3457   69.9517  225.9630 H   0  0  0  0  0  0  0  0  0  0  0  0
  139.9301   71.0065  226.3523 H   0  0  0  0  0  0  0  0  0  0  0  0
  137.6030   70.6300  224.0850 N   0  0  0  0  0  0  0  0  0  0  0  0
  137.2740   71.7810  223.4380 C   0  0  0  0  0  0  0  0  0  0  0  0
  135.9180   72.2630  223.4900 N   0  0  0  0  0  0  0  0  0  0  0  0
  134.8490   71.5190  224.1630 C   0  0  0  0  0  0  0  0  0  0  0  0
  135.2745   70.6235  224.6394 H   0  0  0  0  0  0  0  0  0  0  0  0
  134.0932   71.2269  223.4190 H   0  0  0  0  0  0  0  0  0  0  0  0
  134.1950   72.3790  225.2150 C   0  0  0  0  0  0  0  0  0  0  0  0
  133.3870   71.7760  226.1920 C   0  0  0  0  0  0  0  0  0  0  0  0
  133.2781   70.6816  226.2121 H   0  0  0  0  0  0  0  0  0  0  0  0
  132.7210   72.5570  227.1380 C   0  0  0  0  0  0  0  0  0  0  0  0
  132.0945   72.0760  227.9036 H   0  0  0  0  0  0  0  0  0  0  0  0
  132.8480   73.9470  227.1150 C   0  0  0  0  0  0  0  0  0  0  0  0
  132.3239   74.5589  227.8639 H   0  0  0  0  0  0  0  0  0  0  0  0
  133.6400   74.5620  226.1420 C   0  0  0  0  0  0  0  0  0  0  0  0
  133.7428   75.6572  226.1339 H   0  0  0  0  0  0  0  0  0  0  0  0
  134.3060   73.7920  225.1740 C   0  0  0  0  0  0  0  0  0  0  0  0
  135.2110   74.4890  224.1810 C   0  0  0  0  0  0  0  0  0  0  0  0
  136.1363   74.7871  224.6958 H   0  0  0  0  0  0  0  0  0  0  0  0
  134.6676   75.3611  223.7885 H   0  0  0  0  0  0  0  0  0  0  0  0
  135.5760   73.5960  222.9940 C   0  0  0  0  0  0  0  0  0  0  0  0
  136.4381   74.0240  222.4615 H   0  0  0  0  0  0  0  0  0  0  0  0
  134.7229   73.5284  222.3029 H   0  0  0  0  0  0  0  0  0  0  0  0
  138.2250   72.4410  222.7200 N   0  0  0  0  0  0  0  0  0  0  0  0
  137.9580   73.2670  222.1410 H   0  0  0  0  0  0  0  0  0  0  0  0
  1  2  1  0
  2  3  1  0
  3  4  2  0
  4  5  1  0
  4  6  1  0
  6  7  1  0
  6  8  2  0
  8  9  1  0
  8 10  1  0
 10 11  1  0
 10 12  2  0
 12 13  1  0
 13 14  2  0
 14 15  1  0
 15 16  2  0
 16 17  1  0
 17 18  1  1
 17 19  1  0
 19 20  1  0
 19 21  1  0
 19 22  1  0
 22 23  1  0
 22 24  1  0
 24 25  1  0
 24 26  1  0
 24 27  1  0
 27 28  1  0
 27 29  1  0
 27 30  1  0
 30 31  1  0
 30 32  1  0
 15 33  1  0
 33 34  2  0
 34 35  1  0
 35 36  1  0
 36 37  1  0
 36 38  1  0
 36 39  1  0
 39 40  2  0
 40 41  1  0
 40 42  1  0
 42 43  1  0
 42 44  2  0
 44 45  1  0
 44 46  1  0
 46 47  1  0
 46 48  2  0
 48 49  1  0
 49 50  1  0
 49 51  1  0
 49 52  1  0
 52 53  1  0
 52 54  1  0
 34 55  1  0
 55 56  1  0
 12  3  1  0
 55 13  1  0
 30 17  1  0
 52 35  1  0
 48 39  1  0
M  END
>  <UniqueID>  (42) 
484

>  <SMILES>  (42) 
Oc1ccccc1-c1n/c(=N\[C@@H]2CCCNC2)nc(N2CCc3ccccc3C2)[nH]1

>  <Energy>  (42) 
73.76739758018856

>  <Genealogy>  (42) 
Oc1ccccc1-c1nc(=NC2CCCNC2)nc(N2CCc3ccccc3C2)[nH]1 (tautomer)
Oc1ccccc1-c1nc(=N[C@@H]2CCCNC2)nc(N2CCc3ccccc3C2)[nH]1 (chirality)
Oc1ccccc1-c1n/c(=N\[C@@H]2CCCNC2)nc(N2CCc3ccccc3C2)[nH]1 (cis-trans isomerization)
Oc1ccccc1-c1n/c(=N\[C@@H]2CCCNC2)nc(N2CCc3ccccc3C2)[nH]1 (3D coordinates assigned)
Oc1ccccc1-c1n/c(=N\[C@@H]2CCCNC2)nc(N2CCc3ccccc3C2)[nH]1 (nonaromatic ring conformer: 73.76739758018856 kcal/mol)

>  <smiles>  (42) 
Oc1ccccc1-c1nc(NC2CCCNC2)nc(N2CCc3ccccc3C2)n1

>  <score_type>  (42) 
oracle

>  <origin>  (42) 
autodockgpu

>  <m_score__min__energy>  (42) 
-8.4900000000000002

>  <m_primary>  (42) 
energy

>  <meeko>  (42) 
{"free_energy": -8.45, "intermolecular_energy": -9.94, "internal_energy": -1.32, "cluster_size": 4, "cluster_id": 1, "rank_in_cluster": 3}

>  <energy>  (42) 
-8.49

>  <cluster_rmsd>  (42) 
0.06

>  <rmsd>  (42) 
271.24

>  <cluster>  (42) 
1

$$$$
UQJJBYVBPBMERE-JUZPGEPYNA-N
     RDKit          3D

 56 60  0  0  0  0  0  0  0  0999 V2000
  143.8090   75.2470  221.2120 H   0  0  0  0  0  0  0  0  0  0  0  0
  144.4240   74.8830  220.4940 O   0  0  0  0  0  0  0  0  0  0  0  0
  144.4810   73.5210  220.2000 C   0  0  0  0  0  0  0  0  0  0  0  0
  145.6320   72.9910  219.5950 C   0  0  0  0  0  0  0  0  0  0  0  0
  146.4626   73.6582  219.3213 H   0  0  0  0  0  0  0  0  0  0  0  0
  145.7280   71.6220  219.3390 C   0  0  0  0  0  0  0  0  0  0  0  0
  146.6313   71.2146  218.8614 H   0  0  0  0  0  0  0  0  0  0  0  0
  144.6800   70.7700  219.6880 C   0  0  0  0  0  0  0  0  0  0  0  0
  144.7620   69.6902  219.4947 H   0  0  0  0  0  0  0  0  0  0  0  0
  143.5260   71.2870  220.2830 C   0  0  0  0  0  0  0  0  0  0  0  0
  142.7052   70.6093  220.5606 H   0  0  0  0  0  0  0  0  0  0  0  0
  143.4050   72.6670  220.5300 C   0  0  0  0  0  0  0  0  0  0  0  0
  142.1670   73.1820  221.1640 C   0  0  0  0  0  0  0  0  0  0  0  0
  141.3700   72.3260  221.8550 N   0  0  0  0  0  0  0  0  0  0  0  0
  140.2190   72.7610  222.4290 C   0  0  0  0  0  0  0  0  0  0  0  0
  139.4450   71.9450  223.0790 N   0  0  0  0  0  0  0  0  0  0  0  0
  139.9060   70.8910  223.9880 C   0  0  1  0  0  0  0  0  0  0  0  0
  140.5438   70.1903  223.4293 H   0  0  0  0  0  0  0  0  0  0  0  0
  140.7350   71.5210  225.1370 C   0  0  0  0  0  0  0  0  0  0  0  0
  140.4412   72.5757  225.2434 H   0  0  0  0  0  0  0  0  0  0  0  0
  141.7973   71.4148  224.8721 H   0  0  0  0  0  0  0  0  0  0  0  0
  140.5340   70.8440  226.4330 N   0  0  0  0  0  0  0  0  0  0  0  0
  141.3520   71.0660  227.0470 H   0  0  0  0  0  0  0  0  0  0  0  0
  140.4650   69.3870  226.2720 C   0  0  0  0  0  0  0  0  0  0  0  0
  140.4545   68.9127  227.2644 H   0  0  0  0  0  0  0  0  0  0  0  0
  141.3423   69.0488  225.7011 H   0  0  0  0  0  0  0  0  0  0  0  0
  139.1880   68.9920  225.5070 C   0  0  0  0  0  0  0  0  0  0  0  0
  138.3891   68.7874  226.2349 H   0  0  0  0  0  0  0  0  0  0  0  0
  139.4201   68.1024  224.9031 H   0  0  0  0  0  0  0  0  0  0  0  0
  138.7130   70.0980  224.5500 C   0  0  0  0  0  0  0  0  0  0  0  0
  138.0493   70.7850  225.0954 H   0  0  0  0  0  0  0  0  0  0  0  0
  138.1774   69.6294  223.7112 H   0  0  0  0  0  0  0  0  0  0  0  0
  139.8690   74.0660  222.3180 N   0  0  0  0  0  0  0  0  0  0  0  0
  140.6540   74.9370  221.6300 C   0  0  0  0  0  0  0  0  0  0  0  0
  140.2530   76.3160  221.5120 N   0  0  0  0  0  0  0  0  0  0  0  0
  139.9770   77.1520  222.6840 C   0  0  0  0  0  0  0  0  0  0  0  0
  140.1882   76.5772  223.5978 H   0  0  0  0  0  0  0  0  0  0  0  0
  138.9199   77.4558  222.6664 H   0  0  0  0  0  0  0  0  0  0  0  0
  140.8430   78.3860  222.6610 C   0  0  0  0  0  0  0  0  0  0  0  0
  140.9850   79.1480  223.8320 C   0  0  0  0  0  0  0  0  0  0  0  0
  140.5058   78.8128  224.7637 H   0  0  0  0  0  0  0  0  0  0  0  0
  141.7310   80.3290  223.8210 C   0  0  0  0  0  0  0  0  0  0  0  0
  141.8420   80.9171  224.7439 H   0  0  0  0  0  0  0  0  0  0  0  0
  142.3360   80.7640  222.6400 C   0  0  0  0  0  0  0  0  0  0  0  0
  142.9255   81.6927  222.6349 H   0  0  0  0  0  0  0  0  0  0  0  0
  142.1940   80.0220  221.4650 C   0  0  0  0  0  0  0  0  0  0  0  0
  142.6796   80.3662  220.5399 H   0  0  0  0  0  0  0  0  0  0  0  0
  141.4360   78.8400  221.4560 C   0  0  0  0  0  0  0  0  0  0  0  0
  141.3650   78.0260  220.1810 C   0  0  0  0  0  0  0  0  0  0  0  0
  142.3242   77.5062  220.0404 H   0  0  0  0  0  0  0  0  0  0  0  0
  141.1557   78.7192  219.3529 H   0  0  0  0  0  0  0  0  0  0  0  0
  140.2430   76.9860  220.2120 C   0  0  0  0  0  0  0  0  0  0  0  0
  140.4034   76.2460  219.4141 H   0  0  0  0  0  0  0  0  0  0  0  0
  139.2728   77.4801  220.0551 H   0  0  0  0  0  0  0  0  0  0  0  0
  141.7920   74.4860  221.0300 N   0  0  0  0  0  0  0  0  0  0  0  0
  142.3440   75.1250  220.4180 H   0  0  0  0  0  0  0  0  0  0  0  0
  1  2  1  0
  2  3  1  0
  3  4  2  0
  4  5  1  0
  4  6  1  0
  6  7  1  0
  6  8  2  0
  8  9  1  0
  8 10  1  0
 10 11  1  0
 10 12  2  0
 12 13  1  0
 13 14  2  0
 14 15  1  0
 15 16  2  0
 16 17  1  0
 17 18  1  6
 17 19  1  0
 19 20  1  0
 19 21  1  0
 19 22  1  0
 22 23  1  0
 22 24  1  0
 24 25  1  0
 24 26  1  0
 24 27  1  0
 27 28  1  0
 27 29  1  0
 27 30  1  0
 30 31  1  0
 30 32  1  0
 15 33  1  0
 33 34  2  0
 34 35  1  0
 35 36  1  0
 36 37  1  0
 36 38  1  0
 36 39  1  0
 39 40  2  0
 40 41  1  0
 40 42  1  0
 42 43  1  0
 42 44  2  0
 44 45  1  0
 44 46  1  0
 46 47  1  0
 46 48  2  0
 48 49  1  0
 49 50  1  0
 49 51  1  0
 49 52  1  0
 52 53  1  0
 52 54  1  0
 34 55  1  0
 55 56  1  0
 12  3  1  0
 55 13  1  0
 30 17  1  0
 52 35  1  0
 48 39  1  0
M  END
>  <UniqueID>  (43) 
484

>  <SMILES>  (43) 
Oc1ccccc1-c1n/c(=N\[C@@H]2CCCNC2)nc(N2CCc3ccccc3C2)[nH]1

>  <Energy>  (43) 
73.76739758018856

>  <Genealogy>  (43) 
Oc1ccccc1-c1nc(=NC2CCCNC2)nc(N2CCc3ccccc3C2)[nH]1 (tautomer)
Oc1ccccc1-c1nc(=N[C@@H]2CCCNC2)nc(N2CCc3ccccc3C2)[nH]1 (chirality)
Oc1ccccc1-c1n/c(=N\[C@@H]2CCCNC2)nc(N2CCc3ccccc3C2)[nH]1 (cis-trans isomerization)
Oc1ccccc1-c1n/c(=N\[C@@H]2CCCNC2)nc(N2CCc3ccccc3C2)[nH]1 (3D coordinates assigned)
Oc1ccccc1-c1n/c(=N\[C@@H]2CCCNC2)nc(N2CCc3ccccc3C2)[nH]1 (nonaromatic ring conformer: 73.76739758018856 kcal/mol)

>  <smiles>  (43) 
Oc1ccccc1-c1nc(NC2CCCNC2)nc(N2CCc3ccccc3C2)n1

>  <score_type>  (43) 
oracle

>  <origin>  (43) 
autodockgpu

>  <m_score__min__energy>  (43) 
-8.4900000000000002

>  <m_primary>  (43) 
energy

>  <meeko>  (43) 
{"free_energy": -8.42, "intermolecular_energy": -9.91, "internal_energy": -1.31, "cluster_size": 11, "cluster_id": 2, "rank_in_cluster": 5}

>  <energy>  (43) 
-8.45

>  <cluster_rmsd>  (43) 
0.16

>  <rmsd>  (43) 
271.29

>  <cluster>  (43) 
1

$$$$
UQJJBYVBPBMERE-JUZPGEPYNA-N
     RDKit          3D

 56 60  0  0  0  0  0  0  0  0999 V2000
  141.5800   71.0340  220.2390 H   0  0  0  0  0  0  0  0  0  0  0  0
  142.4770   70.8270  219.8150 O   0  0  0  0  0  0  0  0  0  0  0  0
  143.5950   71.6310  220.0360 C   0  0  0  0  0  0  0  0  0  0  0  0
  144.8520   71.2110  219.5760 C   0  0  0  0  0  0  0  0  0  0  0  0
  144.9544   70.2345  219.0800 H   0  0  0  0  0  0  0  0  0  0  0  0
  145.9740   72.0250  219.7440 C   0  0  0  0  0  0  0  0  0  0  0  0
  146.9572   71.6865  219.3852 H   0  0  0  0  0  0  0  0  0  0  0  0
  145.8490   73.2680  220.3670 C   0  0  0  0  0  0  0  0  0  0  0  0
  146.7316   73.9131  220.4886 H   0  0  0  0  0  0  0  0  0  0  0  0
  144.6040   73.6930  220.8360 C   0  0  0  0  0  0  0  0  0  0  0  0
  144.5112   74.6753  221.3224 H   0  0  0  0  0  0  0  0  0  0  0  0
  143.4670   72.8760  220.6920 C   0  0  0  0  0  0  0  0  0  0  0  0
  142.1610   73.3590  221.2010 C   0  0  0  0  0  0  0  0  0  0  0  0
  141.2840   72.4660  221.7310 N   0  0  0  0  0  0  0  0  0  0  0  0
  140.0700   72.8720  222.1850 C   0  0  0  0  0  0  0  0  0  0  0  0
  139.2220   72.0220  222.6800 N   0  0  0  0  0  0  0  0  0  0  0  0
  139.2840   71.4610  224.0330 C   0  0  1  0  0  0  0  0  0  0  0  0
  138.6271   72.0471  224.6925 H   0  0  0  0  0  0  0  0  0  0  0  0
  138.7940   69.9900  224.0110 C   0  0  0  0  0  0  0  0  0  0  0  0
  138.9165   69.5954  222.9915 H   0  0  0  0  0  0  0  0  0  0  0  0
  137.7409   69.9903  224.3287 H   0  0  0  0  0  0  0  0  0  0  0  0
  139.5350   69.1190  224.9440 N   0  0  0  0  0  0  0  0  0  0  0  0
  138.9450   68.2770  225.1410 H   0  0  0  0  0  0  0  0  0  0  0  0
  139.7990   69.7990  226.2170 C   0  0  0  0  0  0  0  0  0  0  0  0
  140.2262   69.0792  226.9307 H   0  0  0  0  0  0  0  0  0  0  0  0
  138.8539   70.2035  226.6085 H   0  0  0  0  0  0  0  0  0  0  0  0
  140.7910   70.9580  226.0100 C   0  0  0  0  0  0  0  0  0  0  0  0
  141.8112   70.5853  226.1843 H   0  0  0  0  0  0  0  0  0  0  0  0
  140.5270   71.7563  226.7193 H   0  0  0  0  0  0  0  0  0  0  0  0
  140.7160   71.5470  224.5920 C   0  0  0  0  0  0  0  0  0  0  0  0
  141.3937   70.9847  223.9328 H   0  0  0  0  0  0  0  0  0  0  0  0
  141.0115   72.6056  224.6365 H   0  0  0  0  0  0  0  0  0  0  0  0
  139.7370   74.1840  222.1190 N   0  0  0  0  0  0  0  0  0  0  0  0
  140.6020   75.0920  221.5920 C   0  0  0  0  0  0  0  0  0  0  0  0
  140.2180   76.4790  221.5160 N   0  0  0  0  0  0  0  0  0  0  0  0
  140.0130   77.2990  222.7140 C   0  0  0  0  0  0  0  0  0  0  0  0
  140.2587   76.7053  223.6068 H   0  0  0  0  0  0  0  0  0  0  0  0
  138.9615   77.6197  222.7531 H   0  0  0  0  0  0  0  0  0  0  0  0
  140.8970   78.5190  222.6690 C   0  0  0  0  0  0  0  0  0  0  0  0
  141.1080   79.2580  223.8440 C   0  0  0  0  0  0  0  0  0  0  0  0
  140.6690   78.9143  224.7923 H   0  0  0  0  0  0  0  0  0  0  0  0
  141.8720   80.4270  223.8160 C   0  0  0  0  0  0  0  0  0  0  0  0
  142.0373   80.9971  224.7421 H   0  0  0  0  0  0  0  0  0  0  0  0
  142.4260   80.8730  222.6150 C   0  0  0  0  0  0  0  0  0  0  0  0
  143.0292   81.7927  222.5969 H   0  0  0  0  0  0  0  0  0  0  0  0
  142.2160   80.1540  221.4360 C   0  0  0  0  0  0  0  0  0  0  0  0
  142.6624   80.5066  220.4945 H   0  0  0  0  0  0  0  0  0  0  0  0
  141.4390   78.9840  221.4440 C   0  0  0  0  0  0  0  0  0  0  0  0
  141.2930   78.1940  220.1610 C   0  0  0  0  0  0  0  0  0  0  0  0
  142.2356   77.6620  219.9651 H   0  0  0  0  0  0  0  0  0  0  0  0
  141.0550   78.9048  219.3559 H   0  0  0  0  0  0  0  0  0  0  0  0
  140.1570   77.1710  220.2290 C   0  0  0  0  0  0  0  0  0  0  0  0
  140.2672   76.4422  219.4125 H   0  0  0  0  0  0  0  0  0  0  0  0
  139.1886   77.6826  220.1269 H   0  0  0  0  0  0  0  0  0  0  0  0
  141.8040   74.6720  221.1080 N   0  0  0  0  0  0  0  0  0  0  0  0
  142.4280   75.3450  220.6120 H   0  0  0  0  0  0  0  0  0  0  0  0
  1  2  1  0
  2  3  1  0
  3  4  2  0
  4  5  1  0
  4  6  1  0
  6  7  1  0
  6  8  2  0
  8  9  1  0
  8 10  1  0
 10 11  1  0
 10 12  2  0
 12 13  1  0
 13 14  2  0
 14 15  1  0
 15 16  2  0
 16 17  1  0
 17 18  1  1
 17 19  1  0
 19 20  1  0
 19 21  1  0
 19 22  1  0
 22 23  1  0
 22 24  1  0
 24 25  1  0
 24 26  1  0
 24 27  1  0
 27 28  1  0
 27 29  1  0
 27 30  1  0
 30 31  1  0
 30 32  1  0
 15 33  1  0
 33 34  2  0
 34 35  1  0
 35 36  1  0
 36 37  1  0
 36 38  1  0
 36 39  1  0
 39 40  2  0
 40 41  1  0
 40 42  1  0
 42 43  1  0
 42 44  2  0
 44 45  1  0
 44 46  1  0
 46 47  1  0
 46 48  2  0
 48 49  1  0
 49 50  1  0
 49 51  1  0
 49 52  1  0
 52 53  1  0
 52 54  1  0
 34 55  1  0
 55 56  1  0
 12  3  1  0
 55 13  1  0
 30 17  1  0
 52 35  1  0
 48 39  1  0
M  END
>  <UniqueID>  (44) 
484

>  <SMILES>  (44) 
Oc1ccccc1-c1n/c(=N\[C@@H]2CCCNC2)nc(N2CCc3ccccc3C2)[nH]1

>  <Energy>  (44) 
73.76739758018856

>  <Genealogy>  (44) 
Oc1ccccc1-c1nc(=NC2CCCNC2)nc(N2CCc3ccccc3C2)[nH]1 (tautomer)
Oc1ccccc1-c1nc(=N[C@@H]2CCCNC2)nc(N2CCc3ccccc3C2)[nH]1 (chirality)
Oc1ccccc1-c1n/c(=N\[C@@H]2CCCNC2)nc(N2CCc3ccccc3C2)[nH]1 (cis-trans isomerization)
Oc1ccccc1-c1n/c(=N\[C@@H]2CCCNC2)nc(N2CCc3ccccc3C2)[nH]1 (3D coordinates assigned)
Oc1ccccc1-c1n/c(=N\[C@@H]2CCCNC2)nc(N2CCc3ccccc3C2)[nH]1 (nonaromatic ring conformer: 73.76739758018856 kcal/mol)

>  <smiles>  (44) 
Oc1ccccc1-c1nc(NC2CCCNC2)nc(N2CCc3ccccc3C2)n1

>  <score_type>  (44) 
oracle

>  <origin>  (44) 
autodockgpu

>  <m_score__min__energy>  (44) 
-8.4900000000000002

>  <m_primary>  (44) 
energy

>  <meeko>  (44) 
{"free_energy": -8.33, "intermolecular_energy": -9.82, "internal_energy": -1.39, "cluster_size": 11, "cluster_id": 2, "rank_in_cluster": 9}

>  <energy>  (44) 
-8.45

>  <cluster_rmsd>  (44) 
0.29

>  <rmsd>  (44) 
271.28

>  <cluster>  (44) 
1

$$$$
UQJJBYVBPBMERE-JUZPGEPYNA-N
     RDKit          3D

 56 60  0  0  0  0  0  0  0  0999 V2000
  143.7980   75.2350  221.1930 H   0  0  0  0  0  0  0  0  0  0  0  0
  144.4330   74.8650  220.4950 O   0  0  0  0  0  0  0  0  0  0  0  0
  144.4840   73.5020  220.2000 C   0  0  0  0  0  0  0  0  0  0  0  0
  145.6330   72.9680  219.5960 C   0  0  0  0  0  0  0  0  0  0  0  0
  146.4671   73.6315  219.3238 H   0  0  0  0  0  0  0  0  0  0  0  0
  145.7220   71.5980  219.3390 C   0  0  0  0  0  0  0  0  0  0  0  0
  146.6237   71.1862  218.8623 H   0  0  0  0  0  0  0  0  0  0  0  0
  144.6690   70.7510  219.6860 C   0  0  0  0  0  0  0  0  0  0  0  0
  144.7450   69.6711  219.4911 H   0  0  0  0  0  0  0  0  0  0  0  0
  143.5180   71.2740  220.2810 C   0  0  0  0  0  0  0  0  0  0  0  0
  142.6939   70.6002  220.5582 H   0  0  0  0  0  0  0  0  0  0  0  0
  143.4030   72.6540  220.5290 C   0  0  0  0  0  0  0  0  0  0  0  0
  142.1680   73.1750  221.1620 C   0  0  0  0  0  0  0  0  0  0  0  0
  141.3700   72.3230  221.8570 N   0  0  0  0  0  0  0  0  0  0  0  0
  140.2200   72.7640  222.4300 C   0  0  0  0  0  0  0  0  0  0  0  0
  139.4440   71.9520  223.0860 N   0  0  0  0  0  0  0  0  0  0  0  0
  139.9040   70.8980  223.9930 C   0  0  1  0  0  0  0  0  0  0  0  0
  140.5347   70.1935  223.4310 H   0  0  0  0  0  0  0  0  0  0  0  0
  140.7430   71.5240  225.1370 C   0  0  0  0  0  0  0  0  0  0  0  0
  140.4566   72.5807  225.2433 H   0  0  0  0  0  0  0  0  0  0  0  0
  141.8031   71.4097  224.8666 H   0  0  0  0  0  0  0  0  0  0  0  0
  140.5450   70.8510  226.4350 N   0  0  0  0  0  0  0  0  0  0  0  0
  141.3680   71.0690  227.0440 H   0  0  0  0  0  0  0  0  0  0  0  0
  140.4660   69.3950  226.2780 C   0  0  0  0  0  0  0  0  0  0  0  0
  140.4572   68.9232  227.2716 H   0  0  0  0  0  0  0  0  0  0  0  0
  141.3384   69.0500  225.7037 H   0  0  0  0  0  0  0  0  0  0  0  0
  139.1830   69.0060  225.5200 C   0  0  0  0  0  0  0  0  0  0  0  0
  138.3867   68.8067  226.2522 H   0  0  0  0  0  0  0  0  0  0  0  0
  139.4074   68.1144  224.9160 H   0  0  0  0  0  0  0  0  0  0  0  0
  138.7090   70.1130  224.5640 C   0  0  0  0  0  0  0  0  0  0  0  0
  138.0529   70.8051  225.1122 H   0  0  0  0  0  0  0  0  0  0  0  0
  138.1654   69.6462  223.7294 H   0  0  0  0  0  0  0  0  0  0  0  0
  139.8730   74.0690  222.3150 N   0  0  0  0  0  0  0  0  0  0  0  0
  140.6600   74.9350  221.6220 C   0  0  0  0  0  0  0  0  0  0  0  0
  140.2610   76.3140  221.4990 N   0  0  0  0  0  0  0  0  0  0  0  0
  139.9610   77.1480  222.6670 C   0  0  0  0  0  0  0  0  0  0  0  0
  140.1528   76.5712  223.5838 H   0  0  0  0  0  0  0  0  0  0  0  0
  138.9047   77.4525  222.6277 H   0  0  0  0  0  0  0  0  0  0  0  0
  140.8280   78.3820  222.6650 C   0  0  0  0  0  0  0  0  0  0  0  0
  140.9450   79.1410  223.8400 C   0  0  0  0  0  0  0  0  0  0  0  0
  140.4455   78.8045  224.7605 H   0  0  0  0  0  0  0  0  0  0  0  0
  141.6920   80.3210  223.8470 C   0  0  0  0  0  0  0  0  0  0  0  0
  141.7841   80.9066  224.7736 H   0  0  0  0  0  0  0  0  0  0  0  0
  142.3220   80.7590  222.6810 C   0  0  0  0  0  0  0  0  0  0  0  0
  142.9113   81.6878  222.6908 H   0  0  0  0  0  0  0  0  0  0  0  0
  142.2050   80.0190  221.5010 C   0  0  0  0  0  0  0  0  0  0  0  0
  142.7105   80.3646  220.5872 H   0  0  0  0  0  0  0  0  0  0  0  0
  141.4470   78.8380  221.4740 C   0  0  0  0  0  0  0  0  0  0  0  0
  141.4020   78.0270  220.1960 C   0  0  0  0  0  0  0  0  0  0  0  0
  142.3639   77.5074  220.0741 H   0  0  0  0  0  0  0  0  0  0  0  0
  141.2093   78.7226  219.3659 H   0  0  0  0  0  0  0  0  0  0  0  0
  140.2800   76.9870  220.2000 C   0  0  0  0  0  0  0  0  0  0  0  0
  140.4583   76.2486  219.4044 H   0  0  0  0  0  0  0  0  0  0  0  0
  139.3135   77.4814  220.0227 H   0  0  0  0  0  0  0  0  0  0  0  0
  141.7950   74.4790  221.0230 N   0  0  0  0  0  0  0  0  0  0  0  0
  142.3490   75.1140  220.4070 H   0  0  0  0  0  0  0  0  0  0  0  0
  1  2  1  0
  2  3  1  0
  3  4  2  0
  4  5  1  0
  4  6  1  0
  6  7  1  0
  6  8  2  0
  8  9  1  0
  8 10  1  0
 10 11  1  0
 10 12  2  0
 12 13  1  0
 13 14  2  0
 14 15  1  0
 15 16  2  0
 16 17  1  0
 17 18  1  6
 17 19  1  0
 19 20  1  0
 19 21  1  0
 19 22  1  0
 22 23  1  0
 22 24  1  0
 24 25  1  0
 24 26  1  0
 24 27  1  0
 27 28  1  0
 27 29  1  0
 27 30  1  0
 30 31  1  0
 30 32  1  0
 15 33  1  0
 33 34  2  0
 34 35  1  0
 35 36  1  0
 36 37  1  0
 36 38  1  0
 36 39  1  0
 39 40  2  0
 40 41  1  0
 40 42  1  0
 42 43  1  0
 42 44  2  0
 44 45  1  0
 44 46  1  0
 46 47  1  0
 46 48  2  0
 48 49  1  0
 49 50  1  0
 49 51  1  0
 49 52  1  0
 52 53  1  0
 52 54  1  0
 34 55  1  0
 55 56  1  0
 12  3  1  0
 55 13  1  0
 30 17  1  0
 52 35  1  0
 48 39  1  0
M  END
>  <UniqueID>  (45) 
484

>  <SMILES>  (45) 
Oc1ccccc1-c1n/c(=N\[C@@H]2CCCNC2)nc(N2CCc3ccccc3C2)[nH]1

>  <Energy>  (45) 
73.76739758018856

>  <Genealogy>  (45) 
Oc1ccccc1-c1nc(=NC2CCCNC2)nc(N2CCc3ccccc3C2)[nH]1 (tautomer)
Oc1ccccc1-c1nc(=N[C@@H]2CCCNC2)nc(N2CCc3ccccc3C2)[nH]1 (chirality)
Oc1ccccc1-c1n/c(=N\[C@@H]2CCCNC2)nc(N2CCc3ccccc3C2)[nH]1 (cis-trans isomerization)
Oc1ccccc1-c1n/c(=N\[C@@H]2CCCNC2)nc(N2CCc3ccccc3C2)[nH]1 (3D coordinates assigned)
Oc1ccccc1-c1n/c(=N\[C@@H]2CCCNC2)nc(N2CCc3ccccc3C2)[nH]1 (nonaromatic ring conformer: 73.76739758018856 kcal/mol)

>  <smiles>  (45) 
Oc1ccccc1-c1nc(NC2CCCNC2)nc(N2CCc3ccccc3C2)n1

>  <score_type>  (45) 
oracle

>  <origin>  (45) 
autodockgpu

>  <m_score__min__energy>  (45) 
-8.4900000000000002

>  <m_primary>  (45) 
energy

>  <meeko>  (45) 
{"free_energy": -8.42, "intermolecular_energy": -9.91, "internal_energy": -1.3, "cluster_size": 11, "cluster_id": 2, "rank_in_cluster": 4}

>  <energy>  (45) 
-8.43

>  <cluster_rmsd>  (45) 
0.0

>  <rmsd>  (45) 
272.03

>  <cluster>  (45) 
2

$$$$
UQJJBYVBPBMERE-JUZPGEPYNA-N
     RDKit          3D

 56 60  0  0  0  0  0  0  0  0999 V2000
  137.2530   73.5100  223.1170 H   0  0  0  0  0  0  0  0  0  0  0  0
  137.3290   72.5790  222.7240 O   0  0  0  0  0  0  0  0  0  0  0  0
  137.9750   71.5470  223.4040 C   0  0  0  0  0  0  0  0  0  0  0  0
  137.2250   70.6610  224.1920 C   0  0  0  0  0  0  0  0  0  0  0  0
  136.1403   70.8092  224.2994 H   0  0  0  0  0  0  0  0  0  0  0  0
  137.8470   69.5920  224.8410 C   0  0  0  0  0  0  0  0  0  0  0  0
  137.2527   68.9035  225.4596 H   0  0  0  0  0  0  0  0  0  0  0  0
  139.2220   69.3970  224.7050 C   0  0  0  0  0  0  0  0  0  0  0  0
  139.7094   68.5496  225.2093 H   0  0  0  0  0  0  0  0  0  0  0  0
  139.9800   70.2770  223.9290 C   0  0  0  0  0  0  0  0  0  0  0  0
  141.0624   70.1138  223.8204 H   0  0  0  0  0  0  0  0  0  0  0  0
  139.3720   71.3700  223.2850 C   0  0  0  0  0  0  0  0  0  0  0  0
  140.2070   72.2840  222.4690 C   0  0  0  0  0  0  0  0  0  0  0  0
  141.3770   71.8280  221.9490 N   0  0  0  0  0  0  0  0  0  0  0  0
  142.1750   72.6470  221.2160 C   0  0  0  0  0  0  0  0  0  0  0  0
  143.3010   72.2210  220.7270 N   0  0  0  0  0  0  0  0  0  0  0  0
  143.9430   72.7390  219.5150 C   0  0  1  0  0  0  0  0  0  0  0  0
  143.2428   73.4131  219.0000 H   0  0  0  0  0  0  0  0  0  0  0  0
  145.2180   73.5340  219.9000 C   0  0  0  0  0  0  0  0  0  0  0  0
  145.5654   73.1843  220.8834 H   0  0  0  0  0  0  0  0  0  0  0  0
  144.9485   74.6004  219.9147 H   0  0  0  0  0  0  0  0  0  0  0  0
  146.3160   73.3700  218.9280 N   0  0  0  0  0  0  0  0  0  0  0  0
  146.9750   74.1750  219.0420 H   0  0  0  0  0  0  0  0  0  0  0  0
  145.8180   73.3800  217.5490 C   0  0  0  0  0  0  0  0  0  0  0  0
  146.6717   73.3951  216.8554 H   0  0  0  0  0  0  0  0  0  0  0  0
  145.1950   74.2744  217.4010 H   0  0  0  0  0  0  0  0  0  0  0  0
  144.9650   72.1260  217.2770 C   0  0  0  0  0  0  0  0  0  0  0  0
  145.6139   71.3397  216.8637 H   0  0  0  0  0  0  0  0  0  0  0  0
  144.1717   72.4062  216.5684 H   0  0  0  0  0  0  0  0  0  0  0  0
  144.2900   71.5910  218.5510 C   0  0  0  0  0  0  0  0  0  0  0  0
  144.9747   70.8928  219.0548 H   0  0  0  0  0  0  0  0  0  0  0  0
  143.3589   71.0794  218.2658 H   0  0  0  0  0  0  0  0  0  0  0  0
  141.7930   73.9270  220.9930 N   0  0  0  0  0  0  0  0  0  0  0  0
  140.6260   74.4020  221.5050 C   0  0  0  0  0  0  0  0  0  0  0  0
  140.2500   75.7720  221.2690 N   0  0  0  0  0  0  0  0  0  0  0  0
  139.8170   76.6610  222.3520 C   0  0  0  0  0  0  0  0  0  0  0  0
  139.8962   76.1290  223.3115 H   0  0  0  0  0  0  0  0  0  0  0  0
  138.7743   76.9617  222.1722 H   0  0  0  0  0  0  0  0  0  0  0  0
  140.6820   77.8950  222.3950 C   0  0  0  0  0  0  0  0  0  0  0  0
  140.6610   78.7100  223.5370 C   0  0  0  0  0  0  0  0  0  0  0  0
  140.0537   78.4173  224.4062 H   0  0  0  0  0  0  0  0  0  0  0  0
  141.4060   79.8900  223.5770 C   0  0  0  0  0  0  0  0  0  0  0  0
  141.3896   80.5193  224.4791 H   0  0  0  0  0  0  0  0  0  0  0  0
  142.1720   80.2730  222.4740 C   0  0  0  0  0  0  0  0  0  0  0  0
  142.7594   81.2023  222.5090 H   0  0  0  0  0  0  0  0  0  0  0  0
  142.1930   79.4770  221.3260 C   0  0  0  0  0  0  0  0  0  0  0  0
  142.8044   79.7797  220.4632 H   0  0  0  0  0  0  0  0  0  0  0  0
  141.4400   78.2940  221.2650 C   0  0  0  0  0  0  0  0  0  0  0  0
  141.5450   77.4230  220.0310 C   0  0  0  0  0  0  0  0  0  0  0  0
  142.5126   76.9002  220.0495 H   0  0  0  0  0  0  0  0  0  0  0  0
  141.4558   78.0773  219.1513 H   0  0  0  0  0  0  0  0  0  0  0  0
  140.4260   76.3820  219.9520 C   0  0  0  0  0  0  0  0  0  0  0  0
  140.6945   75.6067  219.2193 H   0  0  0  0  0  0  0  0  0  0  0  0
  139.4894   76.8661  219.6383 H   0  0  0  0  0  0  0  0  0  0  0  0
  139.8470   73.5840  222.2670 N   0  0  0  0  0  0  0  0  0  0  0  0
  139.0030   73.9690  222.7460 H   0  0  0  0  0  0  0  0  0  0  0  0
  1  2  1  0
  2  3  1  0
  3  4  2  0
  4  5  1  0
  4  6  1  0
  6  7  1  0
  6  8  2  0
  8  9  1  0
  8 10  1  0
 10 11  1  0
 10 12  2  0
 12 13  1  0
 13 14  2  0
 14 15  1  0
 15 16  2  0
 16 17  1  0
 17 18  1  6
 17 19  1  0
 19 20  1  0
 19 21  1  0
 19 22  1  0
 22 23  1  0
 22 24  1  0
 24 25  1  0
 24 26  1  0
 24 27  1  0
 27 28  1  0
 27 29  1  0
 27 30  1  0
 30 31  1  0
 30 32  1  0
 15 33  1  0
 33 34  2  0
 34 35  1  0
 35 36  1  0
 36 37  1  0
 36 38  1  0
 36 39  1  0
 39 40  2  0
 40 41  1  0
 40 42  1  0
 42 43  1  0
 42 44  2  0
 44 45  1  0
 44 46  1  0
 46 47  1  0
 46 48  2  0
 48 49  1  0
 49 50  1  0
 49 51  1  0
 49 52  1  0
 52 53  1  0
 52 54  1  0
 34 55  1  0
 55 56  1  0
 12  3  1  0
 55 13  1  0
 30 17  1  0
 52 35  1  0
 48 39  1  0
M  END
>  <UniqueID>  (46) 
484

>  <SMILES>  (46) 
Oc1ccccc1-c1n/c(=N\[C@@H]2CCCNC2)nc(N2CCc3ccccc3C2)[nH]1

>  <Energy>  (46) 
73.76739758018856

>  <Genealogy>  (46) 
Oc1ccccc1-c1nc(=NC2CCCNC2)nc(N2CCc3ccccc3C2)[nH]1 (tautomer)
Oc1ccccc1-c1nc(=N[C@@H]2CCCNC2)nc(N2CCc3ccccc3C2)[nH]1 (chirality)
Oc1ccccc1-c1n/c(=N\[C@@H]2CCCNC2)nc(N2CCc3ccccc3C2)[nH]1 (cis-trans isomerization)
Oc1ccccc1-c1n/c(=N\[C@@H]2CCCNC2)nc(N2CCc3ccccc3C2)[nH]1 (3D coordinates assigned)
Oc1ccccc1-c1n/c(=N\[C@@H]2CCCNC2)nc(N2CCc3ccccc3C2)[nH]1 (nonaromatic ring conformer: 73.76739758018856 kcal/mol)

>  <smiles>  (46) 
Oc1ccccc1-c1nc(NC2CCCNC2)nc(N2CCc3ccccc3C2)n1

>  <score_type>  (46) 
oracle

>  <origin>  (46) 
autodockgpu

>  <m_score__min__energy>  (46) 
-8.4900000000000002

>  <m_primary>  (46) 
energy

>  <meeko>  (46) 
{"free_energy": -8.32, "intermolecular_energy": -9.81, "internal_energy": -1.26, "cluster_size": 2, "cluster_id": 3, "rank_in_cluster": 1}

>  <energy>  (46) 
-8.43

>  <cluster_rmsd>  (46) 
0.03

>  <rmsd>  (46) 
272.02

>  <cluster>  (46) 
2

$$$$
UQJJBYVBPBMERE-JUZPGEPYNA-N
     RDKit          3D

 56 60  0  0  0  0  0  0  0  0999 V2000
  139.5100   74.4080  223.1570 H   0  0  0  0  0  0  0  0  0  0  0  0
  139.7520   74.7980  222.2530 O   0  0  0  0  0  0  0  0  0  0  0  0
  138.7750   75.1640  221.3280 C   0  0  0  0  0  0  0  0  0  0  0  0
  139.0270   76.2170  220.4340 C   0  0  0  0  0  0  0  0  0  0  0  0
  139.9753   76.7710  220.4951 H   0  0  0  0  0  0  0  0  0  0  0  0
  138.0810   76.5650  219.4680 C   0  0  0  0  0  0  0  0  0  0  0  0
  138.2845   77.3930  218.7731 H   0  0  0  0  0  0  0  0  0  0  0  0
  136.8780   75.8640  219.3830 C   0  0  0  0  0  0  0  0  0  0  0  0
  136.1382   76.1332  218.6148 H   0  0  0  0  0  0  0  0  0  0  0  0
  136.6120   74.8200  220.2730 C   0  0  0  0  0  0  0  0  0  0  0  0
  135.6633   74.2683  220.1978 H   0  0  0  0  0  0  0  0  0  0  0  0
  137.5460   74.4680  221.2640 C   0  0  0  0  0  0  0  0  0  0  0  0
  137.2330   73.3550  222.1910 C   0  0  0  0  0  0  0  0  0  0  0  0
  135.9530   73.1870  222.6170 N   0  0  0  0  0  0  0  0  0  0  0  0
  135.6370   72.1900  223.4840 C   0  0  0  0  0  0  0  0  0  0  0  0
  134.4180   72.0330  223.9070 N   0  0  0  0  0  0  0  0  0  0  0  0
  133.6810   72.9960  224.7300 C   0  0  1  0  0  0  0  0  0  0  0  0
  132.7476   73.2669  224.2147 H   0  0  0  0  0  0  0  0  0  0  0  0
  133.3350   72.3530  226.0980 C   0  0  0  0  0  0  0  0  0  0  0  0
  134.0472   71.5374  226.2917 H   0  0  0  0  0  0  0  0  0  0  0  0
  132.2989   71.9888  226.0368 H   0  0  0  0  0  0  0  0  0  0  0  0
  133.4000   73.3100  227.2200 N   0  0  0  0  0  0  0  0  0  0  0  0
  132.8280   72.9270  228.0090 H   0  0  0  0  0  0  0  0  0  0  0  0
  132.8440   74.6150  226.8440 C   0  0  0  0  0  0  0  0  0  0  0  0
  132.7830   75.2539  227.7374 H   0  0  0  0  0  0  0  0  0  0  0  0
  131.8415   74.4657  226.4166 H   0  0  0  0  0  0  0  0  0  0  0  0
  133.7380   75.2970  225.7930 C   0  0  0  0  0  0  0  0  0  0  0  0
  134.4655   75.9392  226.3110 H   0  0  0  0  0  0  0  0  0  0  0  0
  133.0868   75.8822  225.1271 H   0  0  0  0  0  0  0  0  0  0  0  0
  134.5030   74.2820  224.9280 C   0  0  0  0  0  0  0  0  0  0  0  0
  135.4519   74.0296  225.4239 H   0  0  0  0  0  0  0  0  0  0  0  0
  134.6913   74.7329  223.9425 H   0  0  0  0  0  0  0  0  0  0  0  0
  136.6060   71.3490  223.9170 N   0  0  0  0  0  0  0  0  0  0  0  0
  137.8920   71.5010  223.5020 C   0  0  0  0  0  0  0  0  0  0  0  0
  138.9080   70.6050  223.9900 N   0  0  0  0  0  0  0  0  0  0  0  0
  140.0620   71.0780  224.7610 C   0  0  0  0  0  0  0  0  0  0  0  0
  139.9644   72.1601  224.9330 H   0  0  0  0  0  0  0  0  0  0  0  0
  140.9810   70.8673  224.1943 H   0  0  0  0  0  0  0  0  0  0  0  0
  140.1320   70.3680  226.0890 C   0  0  0  0  0  0  0  0  0  0  0  0
  140.9450   70.8910  227.1070 C   0  0  0  0  0  0  0  0  0  0  0  0
  141.4836   71.8364  226.9452 H   0  0  0  0  0  0  0  0  0  0  0  0
  141.0740   70.2180  228.3240 C   0  0  0  0  0  0  0  0  0  0  0  0
  141.7082   70.6378  229.1187 H   0  0  0  0  0  0  0  0  0  0  0  0
  140.4000   69.0140  228.5340 C   0  0  0  0  0  0  0  0  0  0  0  0
  140.5016   68.4878  229.4946 H   0  0  0  0  0  0  0  0  0  0  0  0
  139.5960   68.4760  227.5250 C   0  0  0  0  0  0  0  0  0  0  0  0
  139.0610   67.5308  227.6993 H   0  0  0  0  0  0  0  0  0  0  0  0
  139.4660   69.1320  226.2920 C   0  0  0  0  0  0  0  0  0  0  0  0
  138.5300   68.5550  225.2510 C   0  0  0  0  0  0  0  0  0  0  0  0
  137.4933   68.7569  225.5583 H   0  0  0  0  0  0  0  0  0  0  0  0
  138.7292   67.4752  225.1843 H   0  0  0  0  0  0  0  0  0  0  0  0
  138.7560   69.1560  223.8620 C   0  0  0  0  0  0  0  0  0  0  0  0
  137.8932   68.9310  223.2178 H   0  0  0  0  0  0  0  0  0  0  0  0
  139.6631   68.7250  223.4133 H   0  0  0  0  0  0  0  0  0  0  0  0
  138.2080   72.5240  222.6580 N   0  0  0  0  0  0  0  0  0  0  0  0
  139.2060   72.7070  222.4150 H   0  0  0  0  0  0  0  0  0  0  0  0
  1  2  1  0
  2  3  1  0
  3  4  2  0
  4  5  1  0
  4  6  1  0
  6  7  1  0
  6  8  2  0
  8  9  1  0
  8 10  1  0
 10 11  1  0
 10 12  2  0
 12 13  1  0
 13 14  2  0
 14 15  1  0
 15 16  2  0
 16 17  1  0
 17 18  1  6
 17 19  1  0
 19 20  1  0
 19 21  1  0
 19 22  1  0
 22 23  1  0
 22 24  1  0
 24 25  1  0
 24 26  1  0
 24 27  1  0
 27 28  1  0
 27 29  1  0
 27 30  1  0
 30 31  1  0
 30 32  1  0
 15 33  1  0
 33 34  2  0
 34 35  1  0
 35 36  1  0
 36 37  1  0
 36 38  1  0
 36 39  1  0
 39 40  2  0
 40 41  1  0
 40 42  1  0
 42 43  1  0
 42 44  2  0
 44 45  1  0
 44 46  1  0
 46 47  1  0
 46 48  2  0
 48 49  1  0
 49 50  1  0
 49 51  1  0
 49 52  1  0
 52 53  1  0
 52 54  1  0
 34 55  1  0
 55 56  1  0
 12  3  1  0
 55 13  1  0
 30 17  1  0
 52 35  1  0
 48 39  1  0
M  END
>  <UniqueID>  (47) 
484

>  <SMILES>  (47) 
Oc1ccccc1-c1n/c(=N\[C@@H]2CCCNC2)nc(N2CCc3ccccc3C2)[nH]1

>  <Energy>  (47) 
73.76739758018856

>  <Genealogy>  (47) 
Oc1ccccc1-c1nc(=NC2CCCNC2)nc(N2CCc3ccccc3C2)[nH]1 (tautomer)
Oc1ccccc1-c1nc(=N[C@@H]2CCCNC2)nc(N2CCc3ccccc3C2)[nH]1 (chirality)
Oc1ccccc1-c1n/c(=N\[C@@H]2CCCNC2)nc(N2CCc3ccccc3C2)[nH]1 (cis-trans isomerization)
Oc1ccccc1-c1n/c(=N\[C@@H]2CCCNC2)nc(N2CCc3ccccc3C2)[nH]1 (3D coordinates assigned)
Oc1ccccc1-c1n/c(=N\[C@@H]2CCCNC2)nc(N2CCc3ccccc3C2)[nH]1 (nonaromatic ring conformer: 73.76739758018856 kcal/mol)

>  <smiles>  (47) 
Oc1ccccc1-c1nc(NC2CCCNC2)nc(N2CCc3ccccc3C2)n1

>  <score_type>  (47) 
oracle

>  <origin>  (47) 
autodockgpu

>  <m_score__min__energy>  (47) 
-8.4900000000000002

>  <m_primary>  (47) 
energy

>  <meeko>  (47) 
{"free_energy": -7.87, "intermolecular_energy": -9.36, "internal_energy": -1.37, "cluster_size": 1, "cluster_id": 5, "rank_in_cluster": 1}

>  <energy>  (47) 
-8.42

>  <cluster_rmsd>  (47) 
0.05

>  <rmsd>  (47) 
272.01

>  <cluster>  (47) 
2

$$$$
UQJJBYVBPBMERE-JUZPGEPYNA-N
     RDKit          3D

 56 60  0  0  0  0  0  0  0  0999 V2000
  139.0260   74.4940  223.0210 H   0  0  0  0  0  0  0  0  0  0  0  0
  139.5980   74.7500  222.2240 O   0  0  0  0  0  0  0  0  0  0  0  0
  140.5720   73.8910  221.7150 C   0  0  0  0  0  0  0  0  0  0  0  0
  141.6450   74.4190  220.9810 C   0  0  0  0  0  0  0  0  0  0  0  0
  141.6895   75.4992  220.7780 H   0  0  0  0  0  0  0  0  0  0  0  0
  142.6560   73.5820  220.5070 C   0  0  0  0  0  0  0  0  0  0  0  0
  143.4919   74.0032  219.9293 H   0  0  0  0  0  0  0  0  0  0  0  0
  142.6080   72.2110  220.7650 C   0  0  0  0  0  0  0  0  0  0  0  0
  143.4109   71.5541  220.3992 H   0  0  0  0  0  0  0  0  0  0  0  0
  141.5400   71.6730  221.4880 C   0  0  0  0  0  0  0  0  0  0  0  0
  141.5098   70.5926  221.6924 H   0  0  0  0  0  0  0  0  0  0  0  0
  140.5030   72.5000  221.9570 C   0  0  0  0  0  0  0  0  0  0  0  0
  139.3860   71.8960  222.7210 C   0  0  0  0  0  0  0  0  0  0  0  0
  139.5930   70.7320  223.3910 N   0  0  0  0  0  0  0  0  0  0  0  0
  138.5850   70.1420  224.0830 C   0  0  0  0  0  0  0  0  0  0  0  0
  138.7720   69.0210  224.7140 N   0  0  0  0  0  0  0  0  0  0  0  0
  139.2250   68.9030  226.1030 C   0  0  1  0  0  0  0  0  0  0  0  0
  138.3514   68.9571  226.7692 H   0  0  0  0  0  0  0  0  0  0  0  0
  139.9310   67.5380  226.3070 C   0  0  0  0  0  0  0  0  0  0  0  0
  140.2919   67.1814  225.3310 H   0  0  0  0  0  0  0  0  0  0  0  0
  139.1948   66.8514  226.7503 H   0  0  0  0  0  0  0  0  0  0  0  0
  141.0770   67.6110  227.2330 N   0  0  0  0  0  0  0  0  0  0  0  0
  141.2660   66.6470  227.5950 H   0  0  0  0  0  0  0  0  0  0  0  0
  140.7860   68.4800  228.3790 C   0  0  0  0  0  0  0  0  0  0  0  0
  141.6038   68.4013  229.1104 H   0  0  0  0  0  0  0  0  0  0  0  0
  139.8377   68.1615  228.8365 H   0  0  0  0  0  0  0  0  0  0  0  0
  140.6530   69.9450  227.9220 C   0  0  0  0  0  0  0  0  0  0  0  0
  141.6348   70.4332  228.0097 H   0  0  0  0  0  0  0  0  0  0  0  0
  139.9034   70.4306  228.5642 H   0  0  0  0  0  0  0  0  0  0  0  0
  140.1710   70.0620  226.4660 C   0  0  0  0  0  0  0  0  0  0  0  0
  141.0427   70.0382  225.7955 H   0  0  0  0  0  0  0  0  0  0  0  0
  139.6237   71.0095  226.3532 H   0  0  0  0  0  0  0  0  0  0  0  0
  137.3630   70.7270  224.1130 N   0  0  0  0  0  0  0  0  0  0  0  0
  137.1370   71.8920  223.4490 C   0  0  0  0  0  0  0  0  0  0  0  0
  135.8250   72.4870  223.4820 N   0  0  0  0  0  0  0  0  0  0  0  0
  134.7310   71.9200  224.2770 C   0  0  0  0  0  0  0  0  0  0  0  0
  135.1065   71.0586  224.8488 H   0  0  0  0  0  0  0  0  0  0  0  0
  133.9250   71.6002  223.6002 H   0  0  0  0  0  0  0  0  0  0  0  0
  134.1890   72.9530  225.2320 C   0  0  0  0  0  0  0  0  0  0  0  0
  133.3780   72.5410  226.3010 C   0  0  0  0  0  0  0  0  0  0  0  0
  133.1860   71.4697  226.4604 H   0  0  0  0  0  0  0  0  0  0  0  0
  132.8130   73.4840  227.1640 C   0  0  0  0  0  0  0  0  0  0  0  0
  132.1836   73.1527  228.0031 H   0  0  0  0  0  0  0  0  0  0  0  0
  133.0460   74.8450  226.9630 C   0  0  0  0  0  0  0  0  0  0  0  0
  132.6018   75.5847  227.6453 H   0  0  0  0  0  0  0  0  0  0  0  0
  133.8430   75.2700  225.8960 C   0  0  0  0  0  0  0  0  0  0  0  0
  134.0303   76.3438  225.7481 H   0  0  0  0  0  0  0  0  0  0  0  0
  134.4060   74.3360  225.0120 C   0  0  0  0  0  0  0  0  0  0  0  0
  135.3210   74.8310  223.9120 C   0  0  0  0  0  0  0  0  0  0  0  0
  136.2868   75.1130  224.3566 H   0  0  0  0  0  0  0  0  0  0  0  0
  134.8312   75.6905  223.4310 H   0  0  0  0  0  0  0  0  0  0  0  0
  135.5670   73.7720  222.8340 C   0  0  0  0  0  0  0  0  0  0  0  0
  136.4370   74.0598  222.2255 H   0  0  0  0  0  0  0  0  0  0  0  0
  134.6837   73.6905  222.1835 H   0  0  0  0  0  0  0  0  0  0  0  0
  138.1450   72.4620  222.7300 N   0  0  0  0  0  0  0  0  0  0  0  0
  137.9520   73.2990  222.1380 H   0  0  0  0  0  0  0  0  0  0  0  0
  1  2  1  0
  2  3  1  0
  3  4  2  0
  4  5  1  0
  4  6  1  0
  6  7  1  0
  6  8  2  0
  8  9  1  0
  8 10  1  0
 10 11  1  0
 10 12  2  0
 12 13  1  0
 13 14  2  0
 14 15  1  0
 15 16  2  0
 16 17  1  0
 17 18  1  1
 17 19  1  0
 19 20  1  0
 19 21  1  0
 19 22  1  0
 22 23  1  0
 22 24  1  0
 24 25  1  0
 24 26  1  0
 24 27  1  0
 27 28  1  0
 27 29  1  0
 27 30  1  0
 30 31  1  0
 30 32  1  0
 15 33  1  0
 33 34  2  0
 34 35  1  0
 35 36  1  0
 36 37  1  0
 36 38  1  0
 36 39  1  0
 39 40  2  0
 40 41  1  0
 40 42  1  0
 42 43  1  0
 42 44  2  0
 44 45  1  0
 44 46  1  0
 46 47  1  0
 46 48  2  0
 48 49  1  0
 49 50  1  0
 49 51  1  0
 49 52  1  0
 52 53  1  0
 52 54  1  0
 34 55  1  0
 55 56  1  0
 12  3  1  0
 55 13  1  0
 30 17  1  0
 52 35  1  0
 48 39  1  0
M  END
>  <UniqueID>  (48) 
484

>  <SMILES>  (48) 
Oc1ccccc1-c1n/c(=N\[C@@H]2CCCNC2)nc(N2CCc3ccccc3C2)[nH]1

>  <Energy>  (48) 
73.76739758018856

>  <Genealogy>  (48) 
Oc1ccccc1-c1nc(=NC2CCCNC2)nc(N2CCc3ccccc3C2)[nH]1 (tautomer)
Oc1ccccc1-c1nc(=N[C@@H]2CCCNC2)nc(N2CCc3ccccc3C2)[nH]1 (chirality)
Oc1ccccc1-c1n/c(=N\[C@@H]2CCCNC2)nc(N2CCc3ccccc3C2)[nH]1 (cis-trans isomerization)
Oc1ccccc1-c1n/c(=N\[C@@H]2CCCNC2)nc(N2CCc3ccccc3C2)[nH]1 (3D coordinates assigned)
Oc1ccccc1-c1n/c(=N\[C@@H]2CCCNC2)nc(N2CCc3ccccc3C2)[nH]1 (nonaromatic ring conformer: 73.76739758018856 kcal/mol)

>  <smiles>  (48) 
Oc1ccccc1-c1nc(NC2CCCNC2)nc(N2CCc3ccccc3C2)n1

>  <score_type>  (48) 
oracle

>  <origin>  (48) 
autodockgpu

>  <m_score__min__energy>  (48) 
-8.4900000000000002

>  <m_primary>  (48) 
energy

>  <meeko>  (48) 
{"free_energy": -8.45, "intermolecular_energy": -9.94, "internal_energy": -1.35, "cluster_size": 4, "cluster_id": 1, "rank_in_cluster": 4}

>  <energy>  (48) 
-8.42

>  <cluster_rmsd>  (48) 
0.05

>  <rmsd>  (48) 
272.01

>  <cluster>  (48) 
2

$$$$
UQJJBYVBPBMERE-JUZPGEPYNA-N
     RDKit          3D

 56 60  0  0  0  0  0  0  0  0999 V2000
  143.7830   75.2540  221.1990 H   0  0  0  0  0  0  0  0  0  0  0  0
  144.4000   74.8860  220.4850 O   0  0  0  0  0  0  0  0  0  0  0  0
  144.4560   73.5220  220.1970 C   0  0  0  0  0  0  0  0  0  0  0  0
  145.6030   72.9900  219.5870 C   0  0  0  0  0  0  0  0  0  0  0  0
  146.4317   73.6560  219.3046 H   0  0  0  0  0  0  0  0  0  0  0  0
  145.6970   71.6190  219.3370 C   0  0  0  0  0  0  0  0  0  0  0  0
  146.5974   71.2090  218.8562 H   0  0  0  0  0  0  0  0  0  0  0  0
  144.6510   70.7690  219.6960 C   0  0  0  0  0  0  0  0  0  0  0  0
  144.7314   69.6884  219.5067 H   0  0  0  0  0  0  0  0  0  0  0  0
  143.5010   71.2890  220.2960 C   0  0  0  0  0  0  0  0  0  0  0  0
  142.6820   70.6125  220.5818 H   0  0  0  0  0  0  0  0  0  0  0  0
  143.3810   72.6700  220.5380 C   0  0  0  0  0  0  0  0  0  0  0  0
  142.1480   73.1880  221.1770 C   0  0  0  0  0  0  0  0  0  0  0  0
  141.3540   72.3340  221.8750 N   0  0  0  0  0  0  0  0  0  0  0  0
  140.2060   72.7730  222.4530 C   0  0  0  0  0  0  0  0  0  0  0  0
  139.4350   71.9590  223.1110 N   0  0  0  0  0  0  0  0  0  0  0  0
  139.9010   70.8930  224.0030 C   0  0  1  0  0  0  0  0  0  0  0  0
  140.5572   70.2147  223.4378 H   0  0  0  0  0  0  0  0  0  0  0  0
  140.7050   71.5100  225.1760 C   0  0  0  0  0  0  0  0  0  0  0  0
  140.3936   72.5575  225.3012 H   0  0  0  0  0  0  0  0  0  0  0  0
  141.7721   71.4253  224.9229 H   0  0  0  0  0  0  0  0  0  0  0  0
  140.4980   70.8020  226.4550 N   0  0  0  0  0  0  0  0  0  0  0  0
  141.3040   71.0230  227.0840 H   0  0  0  0  0  0  0  0  0  0  0  0
  140.4540   69.3490  226.2620 C   0  0  0  0  0  0  0  0  0  0  0  0
  140.4376   68.8533  227.2439 H   0  0  0  0  0  0  0  0  0  0  0  0
  141.3441   69.0373  225.6959 H   0  0  0  0  0  0  0  0  0  0  0  0
  139.1940   68.9500  225.4710 C   0  0  0  0  0  0  0  0  0  0  0  0
  138.3890   68.7158  226.1831 H   0  0  0  0  0  0  0  0  0  0  0  0
  139.4490   68.0781  224.8507 H   0  0  0  0  0  0  0  0  0  0  0  0
  138.7130   70.0700  224.5320 C   0  0  0  0  0  0  0  0  0  0  0  0
  138.0320   70.7347  225.0838 H   0  0  0  0  0  0  0  0  0  0  0  0
  138.1947   69.6122  223.6766 H   0  0  0  0  0  0  0  0  0  0  0  0
  139.8570   74.0770  222.3410 N   0  0  0  0  0  0  0  0  0  0  0  0
  140.6390   74.9460  221.6460 C   0  0  0  0  0  0  0  0  0  0  0  0
  140.2380   76.3240  221.5260 N   0  0  0  0  0  0  0  0  0  0  0  0
  139.9570   77.1600  222.6970 C   0  0  0  0  0  0  0  0  0  0  0  0
  140.1646   76.5852  223.6116 H   0  0  0  0  0  0  0  0  0  0  0  0
  138.9000   77.4636  222.6748 H   0  0  0  0  0  0  0  0  0  0  0  0
  140.8230   78.3950  222.6780 C   0  0  0  0  0  0  0  0  0  0  0  0
  140.9590   79.1570  223.8500 C   0  0  0  0  0  0  0  0  0  0  0  0
  140.4750   78.8222  224.7793 H   0  0  0  0  0  0  0  0  0  0  0  0
  141.7050   80.3370  223.8420 C   0  0  0  0  0  0  0  0  0  0  0  0
  141.8125   80.9246  224.7657 H   0  0  0  0  0  0  0  0  0  0  0  0
  142.3150   80.7730  222.6640 C   0  0  0  0  0  0  0  0  0  0  0  0
  142.9033   81.7024  222.6616 H   0  0  0  0  0  0  0  0  0  0  0  0
  142.1790   80.0300  221.4880 C   0  0  0  0  0  0  0  0  0  0  0  0
  142.6688   80.3740  220.5651 H   0  0  0  0  0  0  0  0  0  0  0  0
  141.4220   78.8480  221.4760 C   0  0  0  0  0  0  0  0  0  0  0  0
  141.3570   78.0350  220.2010 C   0  0  0  0  0  0  0  0  0  0  0  0
  142.3170   77.5157  220.0645 H   0  0  0  0  0  0  0  0  0  0  0  0
  141.1509   78.7286  219.3725 H   0  0  0  0  0  0  0  0  0  0  0  0
  140.2350   76.9940  220.2260 C   0  0  0  0  0  0  0  0  0  0  0  0
  140.4003   76.2540  219.4290 H   0  0  0  0  0  0  0  0  0  0  0  0
  139.2655   77.4877  220.0639 H   0  0  0  0  0  0  0  0  0  0  0  0
  141.7730   74.4920  221.0410 N   0  0  0  0  0  0  0  0  0  0  0  0
  142.3220   75.1280  220.4240 H   0  0  0  0  0  0  0  0  0  0  0  0
  1  2  1  0
  2  3  1  0
  3  4  2  0
  4  5  1  0
  4  6  1  0
  6  7  1  0
  6  8  2  0
  8  9  1  0
  8 10  1  0
 10 11  1  0
 10 12  2  0
 12 13  1  0
 13 14  2  0
 14 15  1  0
 15 16  2  0
 16 17  1  0
 17 18  1  6
 17 19  1  0
 19 20  1  0
 19 21  1  0
 19 22  1  0
 22 23  1  0
 22 24  1  0
 24 25  1  0
 24 26  1  0
 24 27  1  0
 27 28  1  0
 27 29  1  0
 27 30  1  0
 30 31  1  0
 30 32  1  0
 15 33  1  0
 33 34  2  0
 34 35  1  0
 35 36  1  0
 36 37  1  0
 36 38  1  0
 36 39  1  0
 39 40  2  0
 40 41  1  0
 40 42  1  0
 42 43  1  0
 42 44  2  0
 44 45  1  0
 44 46  1  0
 46 47  1  0
 46 48  2  0
 48 49  1  0
 49 50  1  0
 49 51  1  0
 49 52  1  0
 52 53  1  0
 52 54  1  0
 34 55  1  0
 55 56  1  0
 12  3  1  0
 55 13  1  0
 30 17  1  0
 52 35  1  0
 48 39  1  0
M  END
>  <UniqueID>  (49) 
484

>  <SMILES>  (49) 
Oc1ccccc1-c1n/c(=N\[C@@H]2CCCNC2)nc(N2CCc3ccccc3C2)[nH]1

>  <Energy>  (49) 
73.76739758018856

>  <Genealogy>  (49) 
Oc1ccccc1-c1nc(=NC2CCCNC2)nc(N2CCc3ccccc3C2)[nH]1 (tautomer)
Oc1ccccc1-c1nc(=N[C@@H]2CCCNC2)nc(N2CCc3ccccc3C2)[nH]1 (chirality)
Oc1ccccc1-c1n/c(=N\[C@@H]2CCCNC2)nc(N2CCc3ccccc3C2)[nH]1 (cis-trans isomerization)
Oc1ccccc1-c1n/c(=N\[C@@H]2CCCNC2)nc(N2CCc3ccccc3C2)[nH]1 (3D coordinates assigned)
Oc1ccccc1-c1n/c(=N\[C@@H]2CCCNC2)nc(N2CCc3ccccc3C2)[nH]1 (nonaromatic ring conformer: 73.76739758018856 kcal/mol)

>  <smiles>  (49) 
Oc1ccccc1-c1nc(NC2CCCNC2)nc(N2CCc3ccccc3C2)n1

>  <score_type>  (49) 
oracle

>  <origin>  (49) 
autodockgpu

>  <m_score__min__energy>  (49) 
-8.4900000000000002

>  <m_primary>  (49) 
energy

>  <meeko>  (49) 
{"free_energy": -8.42, "intermolecular_energy": -9.91, "internal_energy": -1.3, "cluster_size": 11, "cluster_id": 2, "rank_in_cluster": 3}

>  <energy>  (49) 
-8.42

>  <cluster_rmsd>  (49) 
0.04

>  <rmsd>  (49) 
272.01

>  <cluster>  (49) 
2

$$$$
UQJJBYVBPBMERE-JUZPGEPYNA-N
     RDKit          3D

 56 60  0  0  0  0  0  0  0  0999 V2000
  138.6400   67.5100  225.1910 H   0  0  0  0  0  0  0  0  0  0  0  0
  139.2390   67.4000  226.0010 O   0  0  0  0  0  0  0  0  0  0  0  0
  139.8190   68.4970  226.6380 C   0  0  0  0  0  0  0  0  0  0  0  0
  140.6430   68.2930  227.7550 C   0  0  0  0  0  0  0  0  0  0  0  0
  140.7937   67.2754  228.1447 H   0  0  0  0  0  0  0  0  0  0  0  0
  141.2730   69.3740  228.3750 C   0  0  0  0  0  0  0  0  0  0  0  0
  141.9147   69.2067  229.2526 H   0  0  0  0  0  0  0  0  0  0  0  0
  141.0890   70.6660  227.8820 C   0  0  0  0  0  0  0  0  0  0  0  0
  141.5934   71.5156  228.3656 H   0  0  0  0  0  0  0  0  0  0  0  0
  140.2650   70.8820  226.7750 C   0  0  0  0  0  0  0  0  0  0  0  0
  140.1284   71.9027  226.3882 H   0  0  0  0  0  0  0  0  0  0  0  0
  139.6080   69.8060  226.1500 C   0  0  0  0  0  0  0  0  0  0  0  0
  138.7410   70.0710  224.9770 C   0  0  0  0  0  0  0  0  0  0  0  0
  137.5850   69.3710  224.8350 N   0  0  0  0  0  0  0  0  0  0  0  0
  136.7800   69.5740  223.7600 C   0  0  0  0  0  0  0  0  0  0  0  0
  135.6800   68.8980  223.6110 N   0  0  0  0  0  0  0  0  0  0  0  0
  134.3930   69.2380  224.2230 C   0  0  1  0  0  0  0  0  0  0  0  0
  133.6553   69.4188  223.4274 H   0  0  0  0  0  0  0  0  0  0  0  0
  133.9070   68.0570  225.1030 C   0  0  0  0  0  0  0  0  0  0  0  0
  134.7803   67.4552  225.3949 H   0  0  0  0  0  0  0  0  0  0  0  0
  133.1884   67.4765  224.5058 H   0  0  0  0  0  0  0  0  0  0  0  0
  133.2090   68.4970  226.3270 N   0  0  0  0  0  0  0  0  0  0  0  0
  132.6170   67.7040  226.6670 H   0  0  0  0  0  0  0  0  0  0  0  0
  132.3310   69.6420  226.0620 C   0  0  0  0  0  0  0  0  0  0  0  0
  131.7287   69.8521  226.9581 H   0  0  0  0  0  0  0  0  0  0  0  0
  131.6739   69.3995  225.2138 H   0  0  0  0  0  0  0  0  0  0  0  0
  133.1660   70.8870  225.7080 C   0  0  0  0  0  0  0  0  0  0  0  0
  133.3597   71.4560  226.6292 H   0  0  0  0  0  0  0  0  0  0  0  0
  132.5919   71.4802  224.9810 H   0  0  0  0  0  0  0  0  0  0  0  0
  134.5120   70.5250  225.0590 C   0  0  0  0  0  0  0  0  0  0  0  0
  135.2627   70.3729  225.8485 H   0  0  0  0  0  0  0  0  0  0  0  0
  134.8131   71.3481  224.3943 H   0  0  0  0  0  0  0  0  0  0  0  0
  137.1290   70.4930  222.8280 N   0  0  0  0  0  0  0  0  0  0  0  0
  138.2810   71.2040  222.9540 C   0  0  0  0  0  0  0  0  0  0  0  0
  138.6400   72.1630  221.9410 N   0  0  0  0  0  0  0  0  0  0  0  0
  138.0340   73.4970  221.8800 C   0  0  0  0  0  0  0  0  0  0  0  0
  137.3564   73.6273  222.7367 H   0  0  0  0  0  0  0  0  0  0  0  0
  137.4735   73.5927  220.9383 H   0  0  0  0  0  0  0  0  0  0  0  0
  139.1030   74.5600  221.9250 C   0  0  0  0  0  0  0  0  0  0  0  0
  138.7420   75.8860  222.2100 C   0  0  0  0  0  0  0  0  0  0  0  0
  137.6954   76.1297  222.4448 H   0  0  0  0  0  0  0  0  0  0  0  0
  139.7050   76.8980  222.1970 C   0  0  0  0  0  0  0  0  0  0  0  0
  139.4154   77.9340  222.4271 H   0  0  0  0  0  0  0  0  0  0  0  0
  141.0330   76.5980  221.8930 C   0  0  0  0  0  0  0  0  0  0  0  0
  141.7888   77.3972  221.8871 H   0  0  0  0  0  0  0  0  0  0  0  0
  141.4050   75.2840  221.5960 C   0  0  0  0  0  0  0  0  0  0  0  0
  142.4551   75.0529  221.3637 H   0  0  0  0  0  0  0  0  0  0  0  0
  140.4480   74.2570  221.5920 C   0  0  0  0  0  0  0  0  0  0  0  0
  140.9010   72.8350  221.3360 C   0  0  0  0  0  0  0  0  0  0  0  0
  141.4142   72.4612  222.2343 H   0  0  0  0  0  0  0  0  0  0  0  0
  141.5711   72.8498  220.4638 H   0  0  0  0  0  0  0  0  0  0  0  0
  139.7360   71.8980  221.0110 C   0  0  0  0  0  0  0  0  0  0  0  0
  140.0631   70.8529  221.1144 H   0  0  0  0  0  0  0  0  0  0  0  0
  139.3975   72.0693  219.9785 H   0  0  0  0  0  0  0  0  0  0  0  0
  139.1000   70.9710  224.0180 N   0  0  0  0  0  0  0  0  0  0  0  0
  140.0320   71.4380  224.0680 H   0  0  0  0  0  0  0  0  0  0  0  0
  1  2  1  0
  2  3  1  0
  3  4  2  0
  4  5  1  0
  4  6  1  0
  6  7  1  0
  6  8  2  0
  8  9  1  0
  8 10  1  0
 10 11  1  0
 10 12  2  0
 12 13  1  0
 13 14  2  0
 14 15  1  0
 15 16  2  0
 16 17  1  0
 17 18  1  6
 17 19  1  0
 19 20  1  0
 19 21  1  0
 19 22  1  0
 22 23  1  0
 22 24  1  0
 24 25  1  0
 24 26  1  0
 24 27  1  0
 27 28  1  0
 27 29  1  0
 27 30  1  0
 30 31  1  0
 30 32  1  0
 15 33  1  0
 33 34  2  0
 34 35  1  0
 35 36  1  0
 36 37  1  0
 36 38  1  0
 36 39  1  0
 39 40  2  0
 40 41  1  0
 40 42  1  0
 42 43  1  0
 42 44  2  0
 44 45  1  0
 44 46  1  0
 46 47  1  0
 46 48  2  0
 48 49  1  0
 49 50  1  0
 49 51  1  0
 49 52  1  0
 52 53  1  0
 52 54  1  0
 34 55  1  0
 55 56  1  0
 12  3  1  0
 55 13  1  0
 30 17  1  0
 52 35  1  0
 48 39  1  0
M  END
>  <UniqueID>  (50) 
484

>  <SMILES>  (50) 
Oc1ccccc1-c1n/c(=N\[C@@H]2CCCNC2)nc(N2CCc3ccccc3C2)[nH]1

>  <Energy>  (50) 
73.76739758018856

>  <Genealogy>  (50) 
Oc1ccccc1-c1nc(=NC2CCCNC2)nc(N2CCc3ccccc3C2)[nH]1 (tautomer)
Oc1ccccc1-c1nc(=N[C@@H]2CCCNC2)nc(N2CCc3ccccc3C2)[nH]1 (chirality)
Oc1ccccc1-c1n/c(=N\[C@@H]2CCCNC2)nc(N2CCc3ccccc3C2)[nH]1 (cis-trans isomerization)
Oc1ccccc1-c1n/c(=N\[C@@H]2CCCNC2)nc(N2CCc3ccccc3C2)[nH]1 (3D coordinates assigned)
Oc1ccccc1-c1n/c(=N\[C@@H]2CCCNC2)nc(N2CCc3ccccc3C2)[nH]1 (nonaromatic ring conformer: 73.76739758018856 kcal/mol)

>  <smiles>  (50) 
Oc1ccccc1-c1nc(NC2CCCNC2)nc(N2CCc3ccccc3C2)n1

>  <score_type>  (50) 
oracle

>  <origin>  (50) 
autodockgpu

>  <m_score__min__energy>  (50) 
-8.4900000000000002

>  <m_primary>  (50) 
energy

>  <meeko>  (50) 
{"free_energy": -7.63, "intermolecular_energy": -9.12, "internal_energy": -1.44, "cluster_size": 1, "cluster_id": 6, "rank_in_cluster": 1}

>  <energy>  (50) 
-8.41

>  <cluster_rmsd>  (50) 
0.06

>  <rmsd>  (50) 
271.99

>  <cluster>  (50) 
2

$$$$
UQJJBYVBPBMERE-JUZPGEPYNA-N
     RDKit          3D

 56 60  0  0  0  0  0  0  0  0999 V2000
  145.2910   74.9890  220.0480 H   0  0  0  0  0  0  0  0  0  0  0  0
  144.6090   74.3830  220.4900 O   0  0  0  0  0  0  0  0  0  0  0  0
  144.5300   73.0240  220.1860 C   0  0  0  0  0  0  0  0  0  0  0  0
  145.6360   72.3780  219.6110 C   0  0  0  0  0  0  0  0  0  0  0  0
  146.5407   72.9546  219.3679 H   0  0  0  0  0  0  0  0  0  0  0  0
  145.5940   71.0080  219.3460 C   0  0  0  0  0  0  0  0  0  0  0  0
  146.4631   70.5090  218.8925 H   0  0  0  0  0  0  0  0  0  0  0  0
  144.4500   70.2710  219.6560 C   0  0  0  0  0  0  0  0  0  0  0  0
  144.4217   69.1899  219.4552 H   0  0  0  0  0  0  0  0  0  0  0  0
  143.3410   70.9050  220.2210 C   0  0  0  0  0  0  0  0  0  0  0  0
  142.4445   70.3173  220.4680 H   0  0  0  0  0  0  0  0  0  0  0  0
  143.3600   72.2880  220.4770 C   0  0  0  0  0  0  0  0  0  0  0  0
  142.1650   72.9290  221.0770 C   0  0  0  0  0  0  0  0  0  0  0  0
  141.2990   72.1710  221.7990 N   0  0  0  0  0  0  0  0  0  0  0  0
  140.1830   72.7230  222.3440 C   0  0  0  0  0  0  0  0  0  0  0  0
  139.3430   72.0010  223.0240 N   0  0  0  0  0  0  0  0  0  0  0  0
  139.5700   71.5030  224.3840 C   0  0  1  0  0  0  0  0  0  0  0  0
  139.3088   72.2934  225.1031 H   0  0  0  0  0  0  0  0  0  0  0  0
  138.6690   70.2670  224.6420 C   0  0  0  0  0  0  0  0  0  0  0  0
  138.4085   69.8152  223.6735 H   0  0  0  0  0  0  0  0  0  0  0  0
  137.7789   70.6171  225.1853 H   0  0  0  0  0  0  0  0  0  0  0  0
  139.3210   69.2410  225.4790 N   0  0  0  0  0  0  0  0  0  0  0  0
  138.5740   68.6400  225.8990 H   0  0  0  0  0  0  0  0  0  0  0  0
  140.0870   69.8480  226.5720 C   0  0  0  0  0  0  0  0  0  0  0  0
  140.4409   69.0569  227.2495 H   0  0  0  0  0  0  0  0  0  0  0  0
  139.4375   70.5493  227.1163 H   0  0  0  0  0  0  0  0  0  0  0  0
  141.2990   70.6190  226.0150 C   0  0  0  0  0  0  0  0  0  0  0  0
  142.1686   69.9456  225.9974 H   0  0  0  0  0  0  0  0  0  0  0  0
  141.4747   71.4862  226.6685 H   0  0  0  0  0  0  0  0  0  0  0  0
  141.0530   71.1460  224.5910 C   0  0  0  0  0  0  0  0  0  0  0  0
  141.3411   70.3708  223.8657 H   0  0  0  0  0  0  0  0  0  0  0  0
  141.6561   72.0541  224.4441 H   0  0  0  0  0  0  0  0  0  0  0  0
  139.9410   74.0450  222.1740 N   0  0  0  0  0  0  0  0  0  0  0  0
  140.7970   74.8190  221.4550 C   0  0  0  0  0  0  0  0  0  0  0  0
  140.5090   76.2190  221.2730 N   0  0  0  0  0  0  0  0  0  0  0  0
  139.9360   77.0430  222.3420 C   0  0  0  0  0  0  0  0  0  0  0  0
  139.8432   76.4383  223.2562 H   0  0  0  0  0  0  0  0  0  0  0  0
  138.9455   77.4018  222.0256 H   0  0  0  0  0  0  0  0  0  0  0  0
  140.8230   78.2310  222.6190 C   0  0  0  0  0  0  0  0  0  0  0  0
  140.6450   78.9590  223.8060 C   0  0  0  0  0  0  0  0  0  0  0  0
  139.8973   78.6298  224.5426 H   0  0  0  0  0  0  0  0  0  0  0  0
  141.4120   80.0990  224.0570 C   0  0  0  0  0  0  0  0  0  0  0  0
  141.2711   80.6605  224.9923 H   0  0  0  0  0  0  0  0  0  0  0  0
  142.3570   80.5270  223.1230 C   0  0  0  0  0  0  0  0  0  0  0  0
  142.9611   81.4239  223.3247 H   0  0  0  0  0  0  0  0  0  0  0  0
  142.5370   79.8180  221.9320 C   0  0  0  0  0  0  0  0  0  0  0  0
  143.2889   80.1558  221.2036 H   0  0  0  0  0  0  0  0  0  0  0  0
  141.7650   78.6780  221.6590 C   0  0  0  0  0  0  0  0  0  0  0  0
  142.0380   77.8970  220.3910 C   0  0  0  0  0  0  0  0  0  0  0  0
  142.9726   77.3313  220.5195 H   0  0  0  0  0  0  0  0  0  0  0  0
  142.1122   78.6182  219.5638 H   0  0  0  0  0  0  0  0  0  0  0  0
  140.9130   76.9160  220.0530 C   0  0  0  0  0  0  0  0  0  0  0  0
  141.2702   76.1859  219.3118 H   0  0  0  0  0  0  0  0  0  0  0  0
  140.0550   77.4630  219.6351 H   0  0  0  0  0  0  0  0  0  0  0  0
  141.8970   74.2510  220.8840 N   0  0  0  0  0  0  0  0  0  0  0  0
  142.5020   74.8160  220.2490 H   0  0  0  0  0  0  0  0  0  0  0  0
  1  2  1  0
  2  3  1  0
  3  4  2  0
  4  5  1  0
  4  6  1  0
  6  7  1  0
  6  8  2  0
  8  9  1  0
  8 10  1  0
 10 11  1  0
 10 12  2  0
 12 13  1  0
 13 14  2  0
 14 15  1  0
 15 16  2  0
 16 17  1  0
 17 18  1  1
 17 19  1  0
 19 20  1  0
 19 21  1  0
 19 22  1  0
 22 23  1  0
 22 24  1  0
 24 25  1  0
 24 26  1  0
 24 27  1  0
 27 28  1  0
 27 29  1  0
 27 30  1  0
 30 31  1  0
 30 32  1  0
 15 33  1  0
 33 34  2  0
 34 35  1  0
 35 36  1  0
 36 37  1  0
 36 38  1  0
 36 39  1  0
 39 40  2  0
 40 41  1  0
 40 42  1  0
 42 43  1  0
 42 44  2  0
 44 45  1  0
 44 46  1  0
 46 47  1  0
 46 48  2  0
 48 49  1  0
 49 50  1  0
 49 51  1  0
 49 52  1  0
 52 53  1  0
 52 54  1  0
 34 55  1  0
 55 56  1  0
 12  3  1  0
 55 13  1  0
 30 17  1  0
 52 35  1  0
 48 39  1  0
M  END
>  <UniqueID>  (51) 
484

>  <SMILES>  (51) 
Oc1ccccc1-c1n/c(=N\[C@@H]2CCCNC2)nc(N2CCc3ccccc3C2)[nH]1

>  <Energy>  (51) 
73.76739758018856

>  <Genealogy>  (51) 
Oc1ccccc1-c1nc(=NC2CCCNC2)nc(N2CCc3ccccc3C2)[nH]1 (tautomer)
Oc1ccccc1-c1nc(=N[C@@H]2CCCNC2)nc(N2CCc3ccccc3C2)[nH]1 (chirality)
Oc1ccccc1-c1n/c(=N\[C@@H]2CCCNC2)nc(N2CCc3ccccc3C2)[nH]1 (cis-trans isomerization)
Oc1ccccc1-c1n/c(=N\[C@@H]2CCCNC2)nc(N2CCc3ccccc3C2)[nH]1 (3D coordinates assigned)
Oc1ccccc1-c1n/c(=N\[C@@H]2CCCNC2)nc(N2CCc3ccccc3C2)[nH]1 (nonaromatic ring conformer: 73.76739758018856 kcal/mol)

>  <smiles>  (51) 
Oc1ccccc1-c1nc(NC2CCCNC2)nc(N2CCc3ccccc3C2)n1

>  <score_type>  (51) 
oracle

>  <origin>  (51) 
autodockgpu

>  <m_score__min__energy>  (51) 
-8.4900000000000002

>  <m_primary>  (51) 
energy

>  <meeko>  (51) 
{"free_energy": -8.07, "intermolecular_energy": -9.57, "internal_energy": -1.36, "cluster_size": 11, "cluster_id": 2, "rank_in_cluster": 11}

>  <energy>  (51) 
-8.38

>  <cluster_rmsd>  (51) 
0.38

>  <rmsd>  (51) 
271.99

>  <cluster>  (51) 
2

$$$$
UQJJBYVBPBMERE-JUZPGEPYNA-N
     RDKit          3D

 56 60  0  0  0  0  0  0  0  0999 V2000
  143.8090   75.2460  221.2140 H   0  0  0  0  0  0  0  0  0  0  0  0
  144.4530   74.8840  220.5210 O   0  0  0  0  0  0  0  0  0  0  0  0
  144.5140   73.5240  220.2170 C   0  0  0  0  0  0  0  0  0  0  0  0
  145.6670   73.0000  219.6130 C   0  0  0  0  0  0  0  0  0  0  0  0
  146.4973   73.6705  219.3466 H   0  0  0  0  0  0  0  0  0  0  0  0
  145.7670   71.6330  219.3480 C   0  0  0  0  0  0  0  0  0  0  0  0
  146.6727   71.2302  218.8711 H   0  0  0  0  0  0  0  0  0  0  0  0
  144.7180   70.7770  219.6880 C   0  0  0  0  0  0  0  0  0  0  0  0
  144.8018   69.6987  219.4871 H   0  0  0  0  0  0  0  0  0  0  0  0
  143.5620   71.2880  220.2830 C   0  0  0  0  0  0  0  0  0  0  0  0
  142.7415   70.6072  220.5537 H   0  0  0  0  0  0  0  0  0  0  0  0
  143.4380   72.6660  220.5390 C   0  0  0  0  0  0  0  0  0  0  0  0
  142.1980   73.1750  221.1720 C   0  0  0  0  0  0  0  0  0  0  0  0
  141.4040   72.3140  221.8620 N   0  0  0  0  0  0  0  0  0  0  0  0
  140.2500   72.7440  222.4350 C   0  0  0  0  0  0  0  0  0  0  0  0
  139.4790   71.9230  223.0840 N   0  0  0  0  0  0  0  0  0  0  0  0
  139.9440   70.8740  223.9960 C   0  0  1  0  0  0  0  0  0  0  0  0
  140.6140   70.1955  223.4475 H   0  0  0  0  0  0  0  0  0  0  0  0
  140.7260   71.5150  225.1720 C   0  0  0  0  0  0  0  0  0  0  0  0
  140.4025   72.5609  225.2787 H   0  0  0  0  0  0  0  0  0  0  0  0
  141.7972   71.4373  224.9345 H   0  0  0  0  0  0  0  0  0  0  0  0
  140.5090   70.8230  226.4570 N   0  0  0  0  0  0  0  0  0  0  0  0
  141.3050   71.0610  227.0940 H   0  0  0  0  0  0  0  0  0  0  0  0
  140.4820   69.3670  226.2830 C   0  0  0  0  0  0  0  0  0  0  0  0
  140.4579   68.8843  227.2712 H   0  0  0  0  0  0  0  0  0  0  0  0
  141.3824   69.0568  225.7325 H   0  0  0  0  0  0  0  0  0  0  0  0
  139.2370   68.9450  225.4820 C   0  0  0  0  0  0  0  0  0  0  0  0
  138.4251   68.7130  226.1870 H   0  0  0  0  0  0  0  0  0  0  0  0
  139.5084   68.0671  224.8774 H   0  0  0  0  0  0  0  0  0  0  0  0
  138.7580   70.0460  224.5220 C   0  0  0  0  0  0  0  0  0  0  0  0
  138.0635   70.7114  225.0557 H   0  0  0  0  0  0  0  0  0  0  0  0
  138.2558   69.5707  223.6665 H   0  0  0  0  0  0  0  0  0  0  0  0
  139.8950   74.0470  222.3260 N   0  0  0  0  0  0  0  0  0  0  0  0
  140.6770   74.9230  221.6400 C   0  0  0  0  0  0  0  0  0  0  0  0
  140.2690   76.2990  221.5230 N   0  0  0  0  0  0  0  0  0  0  0  0
  139.9930   77.1340  222.6960 C   0  0  0  0  0  0  0  0  0  0  0  0
  140.2083   76.5594  223.6089 H   0  0  0  0  0  0  0  0  0  0  0  0
  138.9349   77.4343  222.6798 H   0  0  0  0  0  0  0  0  0  0  0  0
  140.8540   78.3720  222.6730 C   0  0  0  0  0  0  0  0  0  0  0  0
  140.9950   79.1330  223.8430 C   0  0  0  0  0  0  0  0  0  0  0  0
  140.5192   78.7953  224.7755 H   0  0  0  0  0  0  0  0  0  0  0  0
  141.7360   80.3170  223.8310 C   0  0  0  0  0  0  0  0  0  0  0  0
  141.8468   80.9046  224.7543 H   0  0  0  0  0  0  0  0  0  0  0  0
  142.3360   80.7560  222.6500 C   0  0  0  0  0  0  0  0  0  0  0  0
  142.9206   81.6878  222.6443 H   0  0  0  0  0  0  0  0  0  0  0  0
  142.1950   80.0130  221.4740 C   0  0  0  0  0  0  0  0  0  0  0  0
  142.6776   80.3594  220.5482 H   0  0  0  0  0  0  0  0  0  0  0  0
  141.4420   78.8280  221.4660 C   0  0  0  0  0  0  0  0  0  0  0  0
  141.3720   78.0150  220.1910 C   0  0  0  0  0  0  0  0  0  0  0  0
  142.3330   77.4993  220.0480 H   0  0  0  0  0  0  0  0  0  0  0  0
  141.1583   78.7077  219.3637 H   0  0  0  0  0  0  0  0  0  0  0  0
  140.2540   76.9700  220.2240 C   0  0  0  0  0  0  0  0  0  0  0  0
  140.4158   76.2312  219.4252 H   0  0  0  0  0  0  0  0  0  0  0  0
  139.2816   77.4606  220.0699 H   0  0  0  0  0  0  0  0  0  0  0  0
  141.8160   74.4770  221.0400 N   0  0  0  0  0  0  0  0  0  0  0  0
  142.3670   75.1190  220.4290 H   0  0  0  0  0  0  0  0  0  0  0  0
  1  2  1  0
  2  3  1  0
  3  4  2  0
  4  5  1  0
  4  6  1  0
  6  7  1  0
  6  8  2  0
  8  9  1  0
  8 10  1  0
 10 11  1  0
 10 12  2  0
 12 13  1  0
 13 14  2  0
 14 15  1  0
 15 16  2  0
 16 17  1  0
 17 18  1  6
 17 19  1  0
 19 20  1  0
 19 21  1  0
 19 22  1  0
 22 23  1  0
 22 24  1  0
 24 25  1  0
 24 26  1  0
 24 27  1  0
 27 28  1  0
 27 29  1  0
 27 30  1  0
 30 31  1  0
 30 32  1  0
 15 33  1  0
 33 34  2  0
 34 35  1  0
 35 36  1  0
 36 37  1  0
 36 38  1  0
 36 39  1  0
 39 40  2  0
 40 41  1  0
 40 42  1  0
 42 43  1  0
 42 44  2  0
 44 45  1  0
 44 46  1  0
 46 47  1  0
 46 48  2  0
 48 49  1  0
 49 50  1  0
 49 51  1  0
 49 52  1  0
 52 53  1  0
 52 54  1  0
 34 55  1  0
 55 56  1  0
 12  3  1  0
 55 13  1  0
 30 17  1  0
 52 35  1  0
 48 39  1  0
M  END
>  <UniqueID>  (52) 
484

>  <SMILES>  (52) 
Oc1ccccc1-c1n/c(=N\[C@@H]2CCCNC2)nc(N2CCc3ccccc3C2)[nH]1

>  <Energy>  (52) 
73.76739758018856

>  <Genealogy>  (52) 
Oc1ccccc1-c1nc(=NC2CCCNC2)nc(N2CCc3ccccc3C2)[nH]1 (tautomer)
Oc1ccccc1-c1nc(=N[C@@H]2CCCNC2)nc(N2CCc3ccccc3C2)[nH]1 (chirality)
Oc1ccccc1-c1n/c(=N\[C@@H]2CCCNC2)nc(N2CCc3ccccc3C2)[nH]1 (cis-trans isomerization)
Oc1ccccc1-c1n/c(=N\[C@@H]2CCCNC2)nc(N2CCc3ccccc3C2)[nH]1 (3D coordinates assigned)
Oc1ccccc1-c1n/c(=N\[C@@H]2CCCNC2)nc(N2CCc3ccccc3C2)[nH]1 (nonaromatic ring conformer: 73.76739758018856 kcal/mol)

>  <smiles>  (52) 
Oc1ccccc1-c1nc(NC2CCCNC2)nc(N2CCc3ccccc3C2)n1

>  <score_type>  (52) 
oracle

>  <origin>  (52) 
autodockgpu

>  <m_score__min__energy>  (52) 
-8.4900000000000002

>  <m_primary>  (52) 
energy

>  <meeko>  (52) 
{"free_energy": -8.43, "intermolecular_energy": -9.92, "internal_energy": -1.3, "cluster_size": 11, "cluster_id": 2, "rank_in_cluster": 1}

>  <energy>  (52) 
-8.37

>  <cluster_rmsd>  (52) 
0.38

>  <rmsd>  (52) 
271.98

>  <cluster>  (52) 
2

$$$$
UQJJBYVBPBMERE-JUZPGEPYNA-N
     RDKit          3D

 56 60  0  0  0  0  0  0  0  0999 V2000
  139.1980   73.3790  223.4260 H   0  0  0  0  0  0  0  0  0  0  0  0
  139.6520   72.8240  222.7090 O   0  0  0  0  0  0  0  0  0  0  0  0
  140.7150   73.3260  221.9580 C   0  0  0  0  0  0  0  0  0  0  0  0
  141.7310   72.4570  221.5310 C   0  0  0  0  0  0  0  0  0  0  0  0
  141.7032   71.3972  221.8243 H   0  0  0  0  0  0  0  0  0  0  0  0
  142.7770   72.9300  220.7360 C   0  0  0  0  0  0  0  0  0  0  0  0
  143.5714   72.2438  220.4075 H   0  0  0  0  0  0  0  0  0  0  0  0
  142.8150   74.2730  220.3580 C   0  0  0  0  0  0  0  0  0  0  0  0
  143.6344   74.6421  219.7237 H   0  0  0  0  0  0  0  0  0  0  0  0
  141.8140   75.1490  220.7840 C   0  0  0  0  0  0  0  0  0  0  0  0
  141.8473   76.2052  220.4783 H   0  0  0  0  0  0  0  0  0  0  0  0
  140.7630   74.6920  221.6010 C   0  0  0  0  0  0  0  0  0  0  0  0
  139.7170   75.6480  222.0350 C   0  0  0  0  0  0  0  0  0  0  0  0
  140.0560   76.9440  222.2630 N   0  0  0  0  0  0  0  0  0  0  0  0
  139.1250   77.8410  222.6820 C   0  0  0  0  0  0  0  0  0  0  0  0
  139.4450   79.0790  222.9140 N   0  0  0  0  0  0  0  0  0  0  0  0
  140.7360   79.5300  223.4420 C   0  0  1  0  0  0  0  0  0  0  0  0
  140.8732   79.1183  224.4528 H   0  0  0  0  0  0  0  0  0  0  0  0
  141.8790   79.0170  222.5280 C   0  0  0  0  0  0  0  0  0  0  0  0
  141.4656   78.8187  221.5281 H   0  0  0  0  0  0  0  0  0  0  0  0
  142.2874   78.1072  222.9922 H   0  0  0  0  0  0  0  0  0  0  0  0
  142.9890   79.9800  222.3950 N   0  0  0  0  0  0  0  0  0  0  0  0
  143.8410   79.4550  222.0880 H   0  0  0  0  0  0  0  0  0  0  0  0
  143.2900   80.6320  223.6740 C   0  0  0  0  0  0  0  0  0  0  0  0
  144.2042   81.2343  223.5675 H   0  0  0  0  0  0  0  0  0  0  0  0
  143.4341   79.8591  224.4433 H   0  0  0  0  0  0  0  0  0  0  0  0
  142.1260   81.5470  224.0970 C   0  0  0  0  0  0  0  0  0  0  0  0
  142.3194   82.5621  223.7200 H   0  0  0  0  0  0  0  0  0  0  0  0
  142.0674   81.5299  225.1953 H   0  0  0  0  0  0  0  0  0  0  0  0
  140.7730   81.0650  223.5470 C   0  0  0  0  0  0  0  0  0  0  0  0
  140.6159   81.4979  222.5480 H   0  0  0  0  0  0  0  0  0  0  0  0
  139.9790   81.3885  224.2362 H   0  0  0  0  0  0  0  0  0  0  0  0
  137.8440   77.4380  222.8640 N   0  0  0  0  0  0  0  0  0  0  0  0
  137.4870   76.1450  222.6420 C   0  0  0  0  0  0  0  0  0  0  0  0
  136.1220   75.7370  222.8600 N   0  0  0  0  0  0  0  0  0  0  0  0
  135.7150   74.3280  222.8360 C   0  0  0  0  0  0  0  0  0  0  0  0
  136.6042   73.6957  222.6966 H   0  0  0  0  0  0  0  0  0  0  0  0
  135.0091   74.1734  222.0066 H   0  0  0  0  0  0  0  0  0  0  0  0
  135.0390   73.9570  224.1310 C   0  0  0  0  0  0  0  0  0  0  0  0
  134.8690   72.6010  224.4540 C   0  0  0  0  0  0  0  0  0  0  0  0
  135.2721   71.8251  223.7865 H   0  0  0  0  0  0  0  0  0  0  0  0
  134.1910   72.2320  225.6180 C   0  0  0  0  0  0  0  0  0  0  0  0
  134.0676   71.1677  225.8673 H   0  0  0  0  0  0  0  0  0  0  0  0
  133.6700   73.2100  226.4650 C   0  0  0  0  0  0  0  0  0  0  0  0
  133.1391   72.9153  227.3822 H   0  0  0  0  0  0  0  0  0  0  0  0
  133.8210   74.5640  226.1510 C   0  0  0  0  0  0  0  0  0  0  0  0
  133.4146   75.3304  226.8274 H   0  0  0  0  0  0  0  0  0  0  0  0
  134.4880   74.9520  224.9780 C   0  0  0  0  0  0  0  0  0  0  0  0
  134.6940   76.4270  224.7080 C   0  0  0  0  0  0  0  0  0  0  0  0
  135.4832   76.8012  225.3767 H   0  0  0  0  0  0  0  0  0  0  0  0
  133.7360   76.9367  224.8881 H   0  0  0  0  0  0  0  0  0  0  0  0
  135.1040   76.7060  223.2610 C   0  0  0  0  0  0  0  0  0  0  0  0
  135.5130   77.7242  223.1833 H   0  0  0  0  0  0  0  0  0  0  0  0
  134.2272   76.6181  222.6026 H   0  0  0  0  0  0  0  0  0  0  0  0
  138.4330   75.2440  222.2530 N   0  0  0  0  0  0  0  0  0  0  0  0
  138.1870   74.2330  222.1780 H   0  0  0  0  0  0  0  0  0  0  0  0
  1  2  1  0
  2  3  1  0
  3  4  2  0
  4  5  1  0
  4  6  1  0
  6  7  1  0
  6  8  2  0
  8  9  1  0
  8 10  1  0
 10 11  1  0
 10 12  2  0
 12 13  1  0
 13 14  2  0
 14 15  1  0
 15 16  2  0
 16 17  1  0
 17 18  1  1
 17 19  1  0
 19 20  1  0
 19 21  1  0
 19 22  1  0
 22 23  1  0
 22 24  1  0
 24 25  1  0
 24 26  1  0
 24 27  1  0
 27 28  1  0
 27 29  1  0
 27 30  1  0
 30 31  1  0
 30 32  1  0
 15 33  1  0
 33 34  2  0
 34 35  1  0
 35 36  1  0
 36 37  1  0
 36 38  1  0
 36 39  1  0
 39 40  2  0
 40 41  1  0
 40 42  1  0
 42 43  1  0
 42 44  2  0
 44 45  1  0
 44 46  1  0
 46 47  1  0
 46 48  2  0
 48 49  1  0
 49 50  1  0
 49 51  1  0
 49 52  1  0
 52 53  1  0
 52 54  1  0
 34 55  1  0
 55 56  1  0
 12  3  1  0
 55 13  1  0
 30 17  1  0
 52 35  1  0
 48 39  1  0
M  END
>  <UniqueID>  (53) 
484

>  <SMILES>  (53) 
Oc1ccccc1-c1n/c(=N\[C@@H]2CCCNC2)nc(N2CCc3ccccc3C2)[nH]1

>  <Energy>  (53) 
73.76739758018856

>  <Genealogy>  (53) 
Oc1ccccc1-c1nc(=NC2CCCNC2)nc(N2CCc3ccccc3C2)[nH]1 (tautomer)
Oc1ccccc1-c1nc(=N[C@@H]2CCCNC2)nc(N2CCc3ccccc3C2)[nH]1 (chirality)
Oc1ccccc1-c1n/c(=N\[C@@H]2CCCNC2)nc(N2CCc3ccccc3C2)[nH]1 (cis-trans isomerization)
Oc1ccccc1-c1n/c(=N\[C@@H]2CCCNC2)nc(N2CCc3ccccc3C2)[nH]1 (3D coordinates assigned)
Oc1ccccc1-c1n/c(=N\[C@@H]2CCCNC2)nc(N2CCc3ccccc3C2)[nH]1 (nonaromatic ring conformer: 73.76739758018856 kcal/mol)

>  <smiles>  (53) 
Oc1ccccc1-c1nc(NC2CCCNC2)nc(N2CCc3ccccc3C2)n1

>  <score_type>  (53) 
oracle

>  <origin>  (53) 
autodockgpu

>  <m_score__min__energy>  (53) 
-8.4900000000000002

>  <m_primary>  (53) 
energy

>  <meeko>  (53) 
{"free_energy": -8.13, "intermolecular_energy": -9.63, "internal_energy": -1.19, "cluster_size": 1, "cluster_id": 4, "rank_in_cluster": 1}

>  <energy>  (53) 
-8.33

>  <cluster_rmsd>  (53) 
1.43

>  <rmsd>  (53) 
271.75

>  <cluster>  (53) 
2

$$$$
UQJJBYVBPBMERE-JUZPGEPYNA-N
     RDKit          3D

 56 60  0  0  0  0  0  0  0  0999 V2000
  137.2560   73.5380  223.1200 H   0  0  0  0  0  0  0  0  0  0  0  0
  137.3260   72.6070  222.7260 O   0  0  0  0  0  0  0  0  0  0  0  0
  137.9690   71.5710  223.4030 C   0  0  0  0  0  0  0  0  0  0  0  0
  137.2140   70.6820  224.1850 C   0  0  0  0  0  0  0  0  0  0  0  0
  136.1293   70.8315  224.2897 H   0  0  0  0  0  0  0  0  0  0  0  0
  137.8320   69.6100  224.8300 C   0  0  0  0  0  0  0  0  0  0  0  0
  137.2343   68.9199  225.4435 H   0  0  0  0  0  0  0  0  0  0  0  0
  139.2070   69.4120  224.6980 C   0  0  0  0  0  0  0  0  0  0  0  0
  139.6905   68.5606  225.1994 H   0  0  0  0  0  0  0  0  0  0  0  0
  139.9700   70.2950  223.9290 C   0  0  0  0  0  0  0  0  0  0  0  0
  141.0526   70.1307  223.8240 H   0  0  0  0  0  0  0  0  0  0  0  0
  139.3660   71.3920  223.2880 C   0  0  0  0  0  0  0  0  0  0  0  0
  140.2040   72.3100  222.4800 C   0  0  0  0  0  0  0  0  0  0  0  0
  141.3790   71.8560  221.9680 N   0  0  0  0  0  0  0  0  0  0  0  0
  142.1810   72.6780  221.2420 C   0  0  0  0  0  0  0  0  0  0  0  0
  143.3120   72.2550  220.7620 N   0  0  0  0  0  0  0  0  0  0  0  0
  143.9520   72.7620  219.5440 C   0  0  1  0  0  0  0  0  0  0  0  0
  143.2542   73.4381  219.0283 H   0  0  0  0  0  0  0  0  0  0  0  0
  145.2330   73.5500  219.9180 C   0  0  0  0  0  0  0  0  0  0  0  0
  145.5824   73.2036  220.9019 H   0  0  0  0  0  0  0  0  0  0  0  0
  144.9702   74.6181  219.9269 H   0  0  0  0  0  0  0  0  0  0  0  0
  146.3260   73.3740  218.9430 N   0  0  0  0  0  0  0  0  0  0  0  0
  146.9910   74.1750  219.0490 H   0  0  0  0  0  0  0  0  0  0  0  0
  145.8220   73.3780  217.5650 C   0  0  0  0  0  0  0  0  0  0  0  0
  146.6729   73.3830  216.8679 H   0  0  0  0  0  0  0  0  0  0  0  0
  145.2041   74.2754  217.4136 H   0  0  0  0  0  0  0  0  0  0  0  0
  144.9600   72.1280  217.3050 C   0  0  0  0  0  0  0  0  0  0  0  0
  145.6021   71.3351  216.8939 H   0  0  0  0  0  0  0  0  0  0  0  0
  144.1652   72.4090  216.5983 H   0  0  0  0  0  0  0  0  0  0  0  0
  144.2870   71.6050  218.5850 C   0  0  0  0  0  0  0  0  0  0  0  0
  144.9691   70.9052  219.0900 H   0  0  0  0  0  0  0  0  0  0  0  0
  143.3513   71.0979  218.3071 H   0  0  0  0  0  0  0  0  0  0  0  0
  141.7980   73.9580  221.0180 N   0  0  0  0  0  0  0  0  0  0  0  0
  140.6260   74.4290  221.5220 C   0  0  0  0  0  0  0  0  0  0  0  0
  140.2490   75.7990  221.2840 N   0  0  0  0  0  0  0  0  0  0  0  0
  139.8240   76.6910  222.3670 C   0  0  0  0  0  0  0  0  0  0  0  0
  139.9099   76.1618  223.3275 H   0  0  0  0  0  0  0  0  0  0  0  0
  138.7801   76.9914  222.1938 H   0  0  0  0  0  0  0  0  0  0  0  0
  140.6900   77.9250  222.4000 C   0  0  0  0  0  0  0  0  0  0  0  0
  140.6770   78.7430  223.5400 C   0  0  0  0  0  0  0  0  0  0  0  0
  140.0760   78.4528  224.4144 H   0  0  0  0  0  0  0  0  0  0  0  0
  141.4230   79.9240  223.5710 C   0  0  0  0  0  0  0  0  0  0  0  0
  141.4128   80.5567  224.4708 H   0  0  0  0  0  0  0  0  0  0  0  0
  142.1810   80.3020  222.4620 C   0  0  0  0  0  0  0  0  0  0  0  0
  142.7696   81.2308  222.4904 H   0  0  0  0  0  0  0  0  0  0  0  0
  142.1940   79.5030  221.3150 C   0  0  0  0  0  0  0  0  0  0  0  0
  142.7993   79.8034  220.4470 H   0  0  0  0  0  0  0  0  0  0  0  0
  141.4400   78.3200  221.2630 C   0  0  0  0  0  0  0  0  0  0  0  0
  141.5350   77.4450  220.0320 C   0  0  0  0  0  0  0  0  0  0  0  0
  142.5024   76.9217  220.0452 H   0  0  0  0  0  0  0  0  0  0  0  0
  141.4392   78.0966  219.1510 H   0  0  0  0  0  0  0  0  0  0  0  0
  140.4160   76.4050  219.9640 C   0  0  0  0  0  0  0  0  0  0  0  0
  140.6791   75.6274  219.2318 H   0  0  0  0  0  0  0  0  0  0  0  0
  139.4774   76.8885  219.6554 H   0  0  0  0  0  0  0  0  0  0  0  0
  139.8430   73.6080  222.2770 N   0  0  0  0  0  0  0  0  0  0  0  0
  138.9950   73.9910  222.7490 H   0  0  0  0  0  0  0  0  0  0  0  0
  1  2  1  0
  2  3  1  0
  3  4  2  0
  4  5  1  0
  4  6  1  0
  6  7  1  0
  6  8  2  0
  8  9  1  0
  8 10  1  0
 10 11  1  0
 10 12  2  0
 12 13  1  0
 13 14  2  0
 14 15  1  0
 15 16  2  0
 16 17  1  0
 17 18  1  6
 17 19  1  0
 19 20  1  0
 19 21  1  0
 19 22  1  0
 22 23  1  0
 22 24  1  0
 24 25  1  0
 24 26  1  0
 24 27  1  0
 27 28  1  0
 27 29  1  0
 27 30  1  0
 30 31  1  0
 30 32  1  0
 15 33  1  0
 33 34  2  0
 34 35  1  0
 35 36  1  0
 36 37  1  0
 36 38  1  0
 36 39  1  0
 39 40  2  0
 40 41  1  0
 40 42  1  0
 42 43  1  0
 42 44  2  0
 44 45  1  0
 44 46  1  0
 46 47  1  0
 46 48  2  0
 48 49  1  0
 49 50  1  0
 49 51  1  0
 49 52  1  0
 52 53  1  0
 52 54  1  0
 34 55  1  0
 55 56  1  0
 12  3  1  0
 55 13  1  0
 30 17  1  0
 52 35  1  0
 48 39  1  0
M  END
>  <UniqueID>  (54) 
484

>  <SMILES>  (54) 
Oc1ccccc1-c1n/c(=N\[C@@H]2CCCNC2)nc(N2CCc3ccccc3C2)[nH]1

>  <Energy>  (54) 
73.76739758018856

>  <Genealogy>  (54) 
Oc1ccccc1-c1nc(=NC2CCCNC2)nc(N2CCc3ccccc3C2)[nH]1 (tautomer)
Oc1ccccc1-c1nc(=N[C@@H]2CCCNC2)nc(N2CCc3ccccc3C2)[nH]1 (chirality)
Oc1ccccc1-c1n/c(=N\[C@@H]2CCCNC2)nc(N2CCc3ccccc3C2)[nH]1 (cis-trans isomerization)
Oc1ccccc1-c1n/c(=N\[C@@H]2CCCNC2)nc(N2CCc3ccccc3C2)[nH]1 (3D coordinates assigned)
Oc1ccccc1-c1n/c(=N\[C@@H]2CCCNC2)nc(N2CCc3ccccc3C2)[nH]1 (nonaromatic ring conformer: 73.76739758018856 kcal/mol)

>  <smiles>  (54) 
Oc1ccccc1-c1nc(NC2CCCNC2)nc(N2CCc3ccccc3C2)n1

>  <score_type>  (54) 
oracle

>  <origin>  (54) 
autodockgpu

>  <m_score__min__energy>  (54) 
-8.4900000000000002

>  <m_primary>  (54) 
energy

>  <meeko>  (54) 
{"free_energy": -8.31, "intermolecular_energy": -9.8, "internal_energy": -1.26, "cluster_size": 2, "cluster_id": 3, "rank_in_cluster": 2}

>  <energy>  (54) 
-8.24

>  <cluster_rmsd>  (54) 
1.39

>  <rmsd>  (54) 
271.83

>  <cluster>  (54) 
2

$$$$
UQJJBYVBPBMERE-JUZPGEPYNA-N
     RDKit          3D

 56 60  0  0  0  0  0  0  0  0999 V2000
  143.8030   75.2160  221.2070 H   0  0  0  0  0  0  0  0  0  0  0  0
  144.4200   74.8600  220.4860 O   0  0  0  0  0  0  0  0  0  0  0  0
  144.4600   73.5050  220.1590 C   0  0  0  0  0  0  0  0  0  0  0  0
  145.5990   72.9780  219.5310 C   0  0  0  0  0  0  0  0  0  0  0  0
  146.4345   73.6425  219.2658 H   0  0  0  0  0  0  0  0  0  0  0  0
  145.6770   71.6140  219.2410 C   0  0  0  0  0  0  0  0  0  0  0  0
  146.5716   71.2079  218.7462 H   0  0  0  0  0  0  0  0  0  0  0  0
  144.6220   70.7660  219.5780 C   0  0  0  0  0  0  0  0  0  0  0  0
  144.6894   69.6906  219.3569 H   0  0  0  0  0  0  0  0  0  0  0  0
  143.4800   71.2810  220.1960 C   0  0  0  0  0  0  0  0  0  0  0  0
  142.6540   70.6060  220.4646 H   0  0  0  0  0  0  0  0  0  0  0  0
  143.3770   72.6560  220.4780 C   0  0  0  0  0  0  0  0  0  0  0  0
  142.1510   73.1690  221.1350 C   0  0  0  0  0  0  0  0  0  0  0  0
  141.3640   72.3100  221.8350 N   0  0  0  0  0  0  0  0  0  0  0  0
  140.2230   72.7440  222.4300 C   0  0  0  0  0  0  0  0  0  0  0  0
  139.4580   71.9250  223.0890 N   0  0  0  0  0  0  0  0  0  0  0  0
  139.9330   70.8650  223.9830 C   0  0  1  0  0  0  0  0  0  0  0  0
  140.6045   70.1989  223.4214 H   0  0  0  0  0  0  0  0  0  0  0  0
  140.7170   71.4920  225.1650 C   0  0  0  0  0  0  0  0  0  0  0  0
  140.3887   72.5345  225.2892 H   0  0  0  0  0  0  0  0  0  0  0  0
  141.7876   71.4238  224.9217 H   0  0  0  0  0  0  0  0  0  0  0  0
  140.5090   70.7790  226.4400 N   0  0  0  0  0  0  0  0  0  0  0  0
  141.3060   71.0120  227.0770 H   0  0  0  0  0  0  0  0  0  0  0  0
  140.4890   69.3260  226.2440 C   0  0  0  0  0  0  0  0  0  0  0  0
  140.4718   68.8283  227.2248 H   0  0  0  0  0  0  0  0  0  0  0  0
  141.3886   69.0293  225.6848 H   0  0  0  0  0  0  0  0  0  0  0  0
  139.2430   68.9090  225.4420 C   0  0  0  0  0  0  0  0  0  0  0  0
  138.4354   68.6617  226.1467 H   0  0  0  0  0  0  0  0  0  0  0  0
  139.5165   68.0417  224.8231 H   0  0  0  0  0  0  0  0  0  0  0  0
  138.7540   70.0220  224.5010 C   0  0  0  0  0  0  0  0  0  0  0  0
  138.0579   70.6751  225.0477 H   0  0  0  0  0  0  0  0  0  0  0  0
  138.2512   69.5570  223.6402 H   0  0  0  0  0  0  0  0  0  0  0  0
  139.8740   74.0490  222.3330 N   0  0  0  0  0  0  0  0  0  0  0  0
  140.6490   74.9240  221.6370 C   0  0  0  0  0  0  0  0  0  0  0  0
  140.2480   76.3040  221.5330 N   0  0  0  0  0  0  0  0  0  0  0  0
  139.9990   77.1350  222.7150 C   0  0  0  0  0  0  0  0  0  0  0  0
  140.2290   76.5553  223.6211 H   0  0  0  0  0  0  0  0  0  0  0  0
  138.9423   77.4407  222.7213 H   0  0  0  0  0  0  0  0  0  0  0  0
  140.8660   78.3680  222.6800 C   0  0  0  0  0  0  0  0  0  0  0  0
  141.0340   79.1240  223.8500 C   0  0  0  0  0  0  0  0  0  0  0  0
  140.5738   78.7860  224.7902 H   0  0  0  0  0  0  0  0  0  0  0  0
  141.7820   80.3030  223.8280 C   0  0  0  0  0  0  0  0  0  0  0  0
  141.9136   80.8864  224.7512 H   0  0  0  0  0  0  0  0  0  0  0  0
  142.3630   80.7430  222.6380 C   0  0  0  0  0  0  0  0  0  0  0  0
  142.9538   81.6708  222.6253 H   0  0  0  0  0  0  0  0  0  0  0  0
  142.1950   80.0060  221.4620 C   0  0  0  0  0  0  0  0  0  0  0  0
  142.6618   80.3533  220.5285 H   0  0  0  0  0  0  0  0  0  0  0  0
  141.4350   78.8260  221.4640 C   0  0  0  0  0  0  0  0  0  0  0  0
  141.3350   78.0180  220.1870 C   0  0  0  0  0  0  0  0  0  0  0  0
  142.2901   77.4975  220.0232 H   0  0  0  0  0  0  0  0  0  0  0  0
  141.1087   78.7155  219.3671 H   0  0  0  0  0  0  0  0  0  0  0  0
  140.2120   76.9790  220.2370 C   0  0  0  0  0  0  0  0  0  0  0  0
  140.3548   76.2421  219.4329 H   0  0  0  0  0  0  0  0  0  0  0  0
  139.2395   77.4750  220.1023 H   0  0  0  0  0  0  0  0  0  0  0  0
  141.7750   74.4740  221.0150 N   0  0  0  0  0  0  0  0  0  0  0  0
  142.3190   75.1160  220.3980 H   0  0  0  0  0  0  0  0  0  0  0  0
  1  2  1  0
  2  3  1  0
  3  4  2  0
  4  5  1  0
  4  6  1  0
  6  7  1  0
  6  8  2  0
  8  9  1  0
  8 10  1  0
 10 11  1  0
 10 12  2  0
 12 13  1  0
 13 14  2  0
 14 15  1  0
 15 16  2  0
 16 17  1  0
 17 18  1  6
 17 19  1  0
 19 20  1  0
 19 21  1  0
 19 22  1  0
 22 23  1  0
 22 24  1  0
 24 25  1  0
 24 26  1  0
 24 27  1  0
 27 28  1  0
 27 29  1  0
 27 30  1  0
 30 31  1  0
 30 32  1  0
 15 33  1  0
 33 34  2  0
 34 35  1  0
 35 36  1  0
 36 37  1  0
 36 38  1  0
 36 39  1  0
 39 40  2  0
 40 41  1  0
 40 42  1  0
 42 43  1  0
 42 44  2  0
 44 45  1  0
 44 46  1  0
 46 47  1  0
 46 48  2  0
 48 49  1  0
 49 50  1  0
 49 51  1  0
 49 52  1  0
 52 53  1  0
 52 54  1  0
 34 55  1  0
 55 56  1  0
 12  3  1  0
 55 13  1  0
 30 17  1  0
 52 35  1  0
 48 39  1  0
M  END
>  <UniqueID>  (55) 
484

>  <SMILES>  (55) 
Oc1ccccc1-c1n/c(=N\[C@@H]2CCCNC2)nc(N2CCc3ccccc3C2)[nH]1

>  <Energy>  (55) 
73.76739758018856

>  <Genealogy>  (55) 
Oc1ccccc1-c1nc(=NC2CCCNC2)nc(N2CCc3ccccc3C2)[nH]1 (tautomer)
Oc1ccccc1-c1nc(=N[C@@H]2CCCNC2)nc(N2CCc3ccccc3C2)[nH]1 (chirality)
Oc1ccccc1-c1n/c(=N\[C@@H]2CCCNC2)nc(N2CCc3ccccc3C2)[nH]1 (cis-trans isomerization)
Oc1ccccc1-c1n/c(=N\[C@@H]2CCCNC2)nc(N2CCc3ccccc3C2)[nH]1 (3D coordinates assigned)
Oc1ccccc1-c1n/c(=N\[C@@H]2CCCNC2)nc(N2CCc3ccccc3C2)[nH]1 (nonaromatic ring conformer: 73.76739758018856 kcal/mol)

>  <smiles>  (55) 
Oc1ccccc1-c1nc(NC2CCCNC2)nc(N2CCc3ccccc3C2)n1

>  <score_type>  (55) 
oracle

>  <origin>  (55) 
autodockgpu

>  <m_score__min__energy>  (55) 
-8.4900000000000002

>  <m_primary>  (55) 
energy

>  <meeko>  (55) 
{"free_energy": -8.41, "intermolecular_energy": -9.91, "internal_energy": -1.3, "cluster_size": 11, "cluster_id": 2, "rank_in_cluster": 6}

>  <energy>  (55) 
-8.07

>  <cluster_rmsd>  (55) 
0.98

>  <rmsd>  (55) 
271.89

>  <cluster>  (55) 
2

$$$$
UQJJBYVBPBMERE-JUZPGEPYNA-N
     RDKit          3D

 56 60  0  0  0  0  0  0  0  0999 V2000
  143.8070   75.2350  221.2000 H   0  0  0  0  0  0  0  0  0  0  0  0
  144.4320   74.8670  220.4910 O   0  0  0  0  0  0  0  0  0  0  0  0
  144.4860   73.5050  220.1980 C   0  0  0  0  0  0  0  0  0  0  0  0
  145.6340   72.9720  219.5920 C   0  0  0  0  0  0  0  0  0  0  0  0
  146.4656   73.6372  219.3163 H   0  0  0  0  0  0  0  0  0  0  0  0
  145.7270   71.6030  219.3370 C   0  0  0  0  0  0  0  0  0  0  0  0
  146.6286   71.1935  218.8579 H   0  0  0  0  0  0  0  0  0  0  0  0
  144.6780   70.7530  219.6890 C   0  0  0  0  0  0  0  0  0  0  0  0
  144.7573   69.6729  219.4963 H   0  0  0  0  0  0  0  0  0  0  0  0
  143.5270   71.2730  220.2860 C   0  0  0  0  0  0  0  0  0  0  0  0
  142.7055   70.5972  220.5662 H   0  0  0  0  0  0  0  0  0  0  0  0
  143.4090   72.6530  220.5320 C   0  0  0  0  0  0  0  0  0  0  0  0
  142.1740   73.1710  221.1680 C   0  0  0  0  0  0  0  0  0  0  0  0
  141.3780   72.3180  221.8650 N   0  0  0  0  0  0  0  0  0  0  0  0
  140.2290   72.7570  222.4400 C   0  0  0  0  0  0  0  0  0  0  0  0
  139.4560   71.9430  223.0970 N   0  0  0  0  0  0  0  0  0  0  0  0
  139.9210   70.8850  223.9990 C   0  0  1  0  0  0  0  0  0  0  0  0
  140.5664   70.1937  223.4373 H   0  0  0  0  0  0  0  0  0  0  0  0
  140.7400   71.5110  225.1570 C   0  0  0  0  0  0  0  0  0  0  0  0
  140.4390   72.5630  225.2700 H   0  0  0  0  0  0  0  0  0  0  0  0
  141.8043   71.4131  224.8967 H   0  0  0  0  0  0  0  0  0  0  0  0
  140.5370   70.8230  226.4470 N   0  0  0  0  0  0  0  0  0  0  0  0
  141.3510   71.0450  227.0670 H   0  0  0  0  0  0  0  0  0  0  0  0
  140.4780   69.3670  226.2740 C   0  0  0  0  0  0  0  0  0  0  0  0
  140.4659   68.8848  227.2626 H   0  0  0  0  0  0  0  0  0  0  0  0
  141.3601   69.0395  225.7043 H   0  0  0  0  0  0  0  0  0  0  0  0
  139.2080   68.9690  225.5000 C   0  0  0  0  0  0  0  0  0  0  0  0
  138.4070   68.7526  226.2222 H   0  0  0  0  0  0  0  0  0  0  0  0
  139.4491   68.0859  224.8900 H   0  0  0  0  0  0  0  0  0  0  0  0
  138.7300   70.0800  224.5500 C   0  0  0  0  0  0  0  0  0  0  0  0
  138.0600   70.7586  225.0983 H   0  0  0  0  0  0  0  0  0  0  0  0
  138.2005   69.6151  223.7053 H   0  0  0  0  0  0  0  0  0  0  0  0
  139.8800   74.0610  222.3270 N   0  0  0  0  0  0  0  0  0  0  0  0
  140.6630   74.9290  221.6330 C   0  0  0  0  0  0  0  0  0  0  0  0
  140.2620   76.3070  221.5110 N   0  0  0  0  0  0  0  0  0  0  0  0
  139.9720   77.1430  222.6800 C   0  0  0  0  0  0  0  0  0  0  0  0
  140.1726   76.5678  223.5959 H   0  0  0  0  0  0  0  0  0  0  0  0
  138.9152   77.4466  222.6489 H   0  0  0  0  0  0  0  0  0  0  0  0
  140.8370   78.3780  222.6690 C   0  0  0  0  0  0  0  0  0  0  0  0
  140.9640   79.1390  223.8420 C   0  0  0  0  0  0  0  0  0  0  0  0
  140.4734   78.8034  224.7676 H   0  0  0  0  0  0  0  0  0  0  0  0
  141.7100   80.3200  223.8400 C   0  0  0  0  0  0  0  0  0  0  0  0
  141.8106   80.9074  224.7646 H   0  0  0  0  0  0  0  0  0  0  0  0
  142.3280   80.7560  222.6670 C   0  0  0  0  0  0  0  0  0  0  0  0
  142.9166   81.6853  222.6698 H   0  0  0  0  0  0  0  0  0  0  0  0
  142.2010   80.0150  221.4890 C   0  0  0  0  0  0  0  0  0  0  0  0
  142.6971   80.3604  220.5700 H   0  0  0  0  0  0  0  0  0  0  0  0
  141.4440   78.8320  221.4710 C   0  0  0  0  0  0  0  0  0  0  0  0
  141.3890   78.0200  220.1950 C   0  0  0  0  0  0  0  0  0  0  0  0
  142.3505   77.5017  220.0650 H   0  0  0  0  0  0  0  0  0  0  0  0
  141.1882   78.7141  219.3656 H   0  0  0  0  0  0  0  0  0  0  0  0
  140.2680   76.9780  220.2110 C   0  0  0  0  0  0  0  0  0  0  0  0
  140.4399   76.2387  219.4149 H   0  0  0  0  0  0  0  0  0  0  0  0
  139.2992   77.4708  220.0419 H   0  0  0  0  0  0  0  0  0  0  0  0
  141.7980   74.4750  221.0300 N   0  0  0  0  0  0  0  0  0  0  0  0
  142.3490   75.1120  220.4140 H   0  0  0  0  0  0  0  0  0  0  0  0
  1  2  1  0
  2  3  1  0
  3  4  2  0
  4  5  1  0
  4  6  1  0
  6  7  1  0
  6  8  2  0
  8  9  1  0
  8 10  1  0
 10 11  1  0
 10 12  2  0
 12 13  1  0
 13 14  2  0
 14 15  1  0
 15 16  2  0
 16 17  1  0
 17 18  1  6
 17 19  1  0
 19 20  1  0
 19 21  1  0
 19 22  1  0
 22 23  1  0
 22 24  1  0
 24 25  1  0
 24 26  1  0
 24 27  1  0
 27 28  1  0
 27 29  1  0
 27 30  1  0
 30 31  1  0
 30 32  1  0
 15 33  1  0
 33 34  2  0
 34 35  1  0
 35 36  1  0
 36 37  1  0
 36 38  1  0
 36 39  1  0
 39 40  2  0
 40 41  1  0
 40 42  1  0
 42 43  1  0
 42 44  2  0
 44 45  1  0
 44 46  1  0
 46 47  1  0
 46 48  2  0
 48 49  1  0
 49 50  1  0
 49 51  1  0
 49 52  1  0
 52 53  1  0
 52 54  1  0
 34 55  1  0
 55 56  1  0
 12  3  1  0
 55 13  1  0
 30 17  1  0
 52 35  1  0
 48 39  1  0
M  END
>  <UniqueID>  (56) 
484

>  <SMILES>  (56) 
Oc1ccccc1-c1n/c(=N\[C@@H]2CCCNC2)nc(N2CCc3ccccc3C2)[nH]1

>  <Energy>  (56) 
73.76739758018856

>  <Genealogy>  (56) 
Oc1ccccc1-c1nc(=NC2CCCNC2)nc(N2CCc3ccccc3C2)[nH]1 (tautomer)
Oc1ccccc1-c1nc(=N[C@@H]2CCCNC2)nc(N2CCc3ccccc3C2)[nH]1 (chirality)
Oc1ccccc1-c1n/c(=N\[C@@H]2CCCNC2)nc(N2CCc3ccccc3C2)[nH]1 (cis-trans isomerization)
Oc1ccccc1-c1n/c(=N\[C@@H]2CCCNC2)nc(N2CCc3ccccc3C2)[nH]1 (3D coordinates assigned)
Oc1ccccc1-c1n/c(=N\[C@@H]2CCCNC2)nc(N2CCc3ccccc3C2)[nH]1 (nonaromatic ring conformer: 73.76739758018856 kcal/mol)

>  <smiles>  (56) 
Oc1ccccc1-c1nc(NC2CCCNC2)nc(N2CCc3ccccc3C2)n1

>  <score_type>  (56) 
oracle

>  <origin>  (56) 
autodockgpu

>  <m_score__min__energy>  (56) 
-8.4900000000000002

>  <m_primary>  (56) 
energy

>  <meeko>  (56) 
{"free_energy": -8.43, "intermolecular_energy": -9.92, "internal_energy": -1.3, "cluster_size": 11, "cluster_id": 2, "rank_in_cluster": 2}

>  <energy>  (56) 
-8.32

>  <cluster_rmsd>  (56) 
0.0

>  <rmsd>  (56) 
271.2

>  <cluster>  (56) 
3

$$$$
UQJJBYVBPBMERE-JUZPGEPYNA-N
     RDKit          3D

 56 60  0  0  0  0  0  0  0  0999 V2000
  138.9790   74.5630  223.0460 H   0  0  0  0  0  0  0  0  0  0  0  0
  139.5410   74.8550  222.2550 O   0  0  0  0  0  0  0  0  0  0  0  0
  140.5440   74.0410  221.7280 C   0  0  0  0  0  0  0  0  0  0  0  0
  141.5930   74.6200  220.9980 C   0  0  0  0  0  0  0  0  0  0  0  0
  141.5970   75.7043  220.8129 H   0  0  0  0  0  0  0  0  0  0  0  0
  142.6320   73.8280  220.5050 C   0  0  0  0  0  0  0  0  0  0  0  0
  143.4490   74.2882  219.9299 H   0  0  0  0  0  0  0  0  0  0  0  0
  142.6340   72.4520  220.7420 C   0  0  0  0  0  0  0  0  0  0  0  0
  143.4584   71.8305  220.3625 H   0  0  0  0  0  0  0  0  0  0  0  0
  141.5910   71.8640  221.4600 C   0  0  0  0  0  0  0  0  0  0  0  0
  141.6016   70.7800  221.6469 H   0  0  0  0  0  0  0  0  0  0  0  0
  140.5260   72.6450  221.9470 C   0  0  0  0  0  0  0  0  0  0  0  0
  139.4360   71.9880  222.7060 C   0  0  0  0  0  0  0  0  0  0  0  0
  139.6880   70.8200  223.3530 N   0  0  0  0  0  0  0  0  0  0  0  0
  138.7040   70.1820  224.0390 C   0  0  0  0  0  0  0  0  0  0  0  0
  138.9350   69.0580  224.6490 N   0  0  0  0  0  0  0  0  0  0  0  0
  139.3090   68.9260  226.0600 C   0  0  1  0  0  0  0  0  0  0  0  0
  138.4022   68.9993  226.6784 H   0  0  0  0  0  0  0  0  0  0  0  0
  139.9700   67.5440  226.2970 C   0  0  0  0  0  0  0  0  0  0  0  0
  140.3750   67.1809  225.3409 H   0  0  0  0  0  0  0  0  0  0  0  0
  139.1949   66.8735  226.6966 H   0  0  0  0  0  0  0  0  0  0  0  0
  141.0660   67.5890  227.2850 N   0  0  0  0  0  0  0  0  0  0  0  0
  141.2120   66.6200  227.6530 H   0  0  0  0  0  0  0  0  0  0  0  0
  140.7330   68.4620  228.4160 C   0  0  0  0  0  0  0  0  0  0  0  0
  141.5073   68.3625  229.1910 H   0  0  0  0  0  0  0  0  0  0  0  0
  139.7539   68.1651  228.8200 H   0  0  0  0  0  0  0  0  0  0  0  0
  140.6600   69.9300  227.9570 C   0  0  0  0  0  0  0  0  0  0  0  0
  141.6470   70.3943  228.0995 H   0  0  0  0  0  0  0  0  0  0  0  0
  139.8881   70.4318  228.5589 H   0  0  0  0  0  0  0  0  0  0  0  0
  140.2610   70.0620  226.4780 C   0  0  0  0  0  0  0  0  0  0  0  0
  141.1671   70.0193  225.8557 H   0  0  0  0  0  0  0  0  0  0  0  0
  139.7431   71.0224  226.3390 H   0  0  0  0  0  0  0  0  0  0  0  0
  137.4640   70.7240  224.0870 N   0  0  0  0  0  0  0  0  0  0  0  0
  137.1930   71.8920  223.4460 C   0  0  0  0  0  0  0  0  0  0  0  0
  135.8610   72.4390  223.4960 N   0  0  0  0  0  0  0  0  0  0  0  0
  134.7470   71.7260  224.1300 C   0  0  0  0  0  0  0  0  0  0  0  0
  135.1217   70.7951  224.5806 H   0  0  0  0  0  0  0  0  0  0  0  0
  133.9885   71.4971  223.3669 H   0  0  0  0  0  0  0  0  0  0  0  0
  134.1210   72.5800  225.2020 C   0  0  0  0  0  0  0  0  0  0  0  0
  133.2700   71.9840  226.1460 C   0  0  0  0  0  0  0  0  0  0  0  0
  133.1068   70.8964  226.1251 H   0  0  0  0  0  0  0  0  0  0  0  0
  132.6290   72.7640  227.1120 C   0  0  0  0  0  0  0  0  0  0  0  0
  131.9689   72.2884  227.8523 H   0  0  0  0  0  0  0  0  0  0  0  0
  132.8250   74.1460  227.1390 C   0  0  0  0  0  0  0  0  0  0  0  0
  132.3208   74.7572  227.9021 H   0  0  0  0  0  0  0  0  0  0  0  0
  133.6600   74.7540  226.1990 C   0  0  0  0  0  0  0  0  0  0  0  0
  133.8167   75.8423  226.2314 H   0  0  0  0  0  0  0  0  0  0  0  0
  134.3010   73.9870  225.2130 C   0  0  0  0  0  0  0  0  0  0  0  0
  135.2540   74.6720  224.2570 C   0  0  0  0  0  0  0  0  0  0  0  0
  136.1851   74.9057  224.7940 H   0  0  0  0  0  0  0  0  0  0  0  0
  134.7603   75.5832  223.8883 H   0  0  0  0  0  0  0  0  0  0  0  0
  135.5920   73.8030  223.0440 C   0  0  0  0  0  0  0  0  0  0  0  0
  136.4816   74.2061  222.5380 H   0  0  0  0  0  0  0  0  0  0  0  0
  134.7463   73.8015  222.3406 H   0  0  0  0  0  0  0  0  0  0  0  0
  138.1760   72.5090  222.7320 N   0  0  0  0  0  0  0  0  0  0  0  0
  137.9500   73.3500  222.1570 H   0  0  0  0  0  0  0  0  0  0  0  0
  1  2  1  0
  2  3  1  0
  3  4  2  0
  4  5  1  0
  4  6  1  0
  6  7  1  0
  6  8  2  0
  8  9  1  0
  8 10  1  0
 10 11  1  0
 10 12  2  0
 12 13  1  0
 13 14  2  0
 14 15  1  0
 15 16  2  0
 16 17  1  0
 17 18  1  1
 17 19  1  0
 19 20  1  0
 19 21  1  0
 19 22  1  0
 22 23  1  0
 22 24  1  0
 24 25  1  0
 24 26  1  0
 24 27  1  0
 27 28  1  0
 27 29  1  0
 27 30  1  0
 30 31  1  0
 30 32  1  0
 15 33  1  0
 33 34  2  0
 34 35  1  0
 35 36  1  0
 36 37  1  0
 36 38  1  0
 36 39  1  0
 39 40  2  0
 40 41  1  0
 40 42  1  0
 42 43  1  0
 42 44  2  0
 44 45  1  0
 44 46  1  0
 46 47  1  0
 46 48  2  0
 48 49  1  0
 49 50  1  0
 49 51  1  0
 49 52  1  0
 52 53  1  0
 52 54  1  0
 34 55  1  0
 55 56  1  0
 12  3  1  0
 55 13  1  0
 30 17  1  0
 52 35  1  0
 48 39  1  0
M  END
>  <UniqueID>  (57) 
484

>  <SMILES>  (57) 
Oc1ccccc1-c1n/c(=N\[C@@H]2CCCNC2)nc(N2CCc3ccccc3C2)[nH]1

>  <Energy>  (57) 
73.76739758018856

>  <Genealogy>  (57) 
Oc1ccccc1-c1nc(=NC2CCCNC2)nc(N2CCc3ccccc3C2)[nH]1 (tautomer)
Oc1ccccc1-c1nc(=N[C@@H]2CCCNC2)nc(N2CCc3ccccc3C2)[nH]1 (chirality)
Oc1ccccc1-c1n/c(=N\[C@@H]2CCCNC2)nc(N2CCc3ccccc3C2)[nH]1 (cis-trans isomerization)
Oc1ccccc1-c1n/c(=N\[C@@H]2CCCNC2)nc(N2CCc3ccccc3C2)[nH]1 (3D coordinates assigned)
Oc1ccccc1-c1n/c(=N\[C@@H]2CCCNC2)nc(N2CCc3ccccc3C2)[nH]1 (nonaromatic ring conformer: 73.76739758018856 kcal/mol)

>  <smiles>  (57) 
Oc1ccccc1-c1nc(NC2CCCNC2)nc(N2CCc3ccccc3C2)n1

>  <score_type>  (57) 
oracle

>  <origin>  (57) 
autodockgpu

>  <m_score__min__energy>  (57) 
-8.4900000000000002

>  <m_primary>  (57) 
energy

>  <meeko>  (57) 
{"free_energy": -8.49, "intermolecular_energy": -9.98, "internal_energy": -1.35, "cluster_size": 4, "cluster_id": 1, "rank_in_cluster": 1}

>  <energy>  (57) 
-8.31

>  <cluster_rmsd>  (57) 
0.03

>  <rmsd>  (57) 
271.22

>  <cluster>  (57) 
3

$$$$
UQJJBYVBPBMERE-JUZPGEPYNA-N
     RDKit          3D

 56 60  0  0  0  0  0  0  0  0999 V2000
  138.9900   74.5230  223.0320 H   0  0  0  0  0  0  0  0  0  0  0  0
  139.5500   74.8050  222.2360 O   0  0  0  0  0  0  0  0  0  0  0  0
  140.5370   73.9750  221.7040 C   0  0  0  0  0  0  0  0  0  0  0  0
  141.5920   74.5380  220.9700 C   0  0  0  0  0  0  0  0  0  0  0  0
  141.6122   75.6222  220.7852 H   0  0  0  0  0  0  0  0  0  0  0  0
  142.6160   73.7300  220.4730 C   0  0  0  0  0  0  0  0  0  0  0  0
  143.4380   74.1779  219.8954 H   0  0  0  0  0  0  0  0  0  0  0  0
  142.5980   72.3550  220.7080 C   0  0  0  0  0  0  0  0  0  0  0  0
  143.4108   71.7213  220.3235 H   0  0  0  0  0  0  0  0  0  0  0  0
  141.5490   71.7820  221.4310 C   0  0  0  0  0  0  0  0  0  0  0  0
  141.5437   70.6980  221.6181 H   0  0  0  0  0  0  0  0  0  0  0  0
  140.4990   72.5800  221.9220 C   0  0  0  0  0  0  0  0  0  0  0  0
  139.4010   71.9400  222.6860 C   0  0  0  0  0  0  0  0  0  0  0  0
  139.6390   70.7700  223.3350 N   0  0  0  0  0  0  0  0  0  0  0  0
  138.6490   70.1470  224.0250 C   0  0  0  0  0  0  0  0  0  0  0  0
  138.8660   69.0220  224.6380 N   0  0  0  0  0  0  0  0  0  0  0  0
  139.2640   68.8910  226.0420 C   0  0  1  0  0  0  0  0  0  0  0  0
  138.3668   68.9571  226.6750 H   0  0  0  0  0  0  0  0  0  0  0  0
  139.9390   67.5130  226.2660 C   0  0  0  0  0  0  0  0  0  0  0  0
  140.3302   67.1540  225.3026 H   0  0  0  0  0  0  0  0  0  0  0  0
  139.1755   66.8368  226.6780 H   0  0  0  0  0  0  0  0  0  0  0  0
  141.0510   67.5640  227.2350 N   0  0  0  0  0  0  0  0  0  0  0  0
  141.2110   66.5960  227.5990 H   0  0  0  0  0  0  0  0  0  0  0  0
  140.7300   68.4320  228.3730 C   0  0  0  0  0  0  0  0  0  0  0  0
  141.5173   68.3363  229.1352 H   0  0  0  0  0  0  0  0  0  0  0  0
  139.7595   68.1272  228.7916 H   0  0  0  0  0  0  0  0  0  0  0  0
  140.6390   69.9010  227.9190 C   0  0  0  0  0  0  0  0  0  0  0  0
  141.6250   70.3719  228.0459 H   0  0  0  0  0  0  0  0  0  0  0  0
  139.8742   70.3963  228.5352 H   0  0  0  0  0  0  0  0  0  0  0  0
  140.2140   70.0330  226.4470 C   0  0  0  0  0  0  0  0  0  0  0  0
  141.1098   69.9987  225.8096 H   0  0  0  0  0  0  0  0  0  0  0  0
  139.6862   70.9896  226.3192 H   0  0  0  0  0  0  0  0  0  0  0  0
  137.4150   70.7050  224.0740 N   0  0  0  0  0  0  0  0  0  0  0  0
  137.1580   71.8750  223.4300 C   0  0  0  0  0  0  0  0  0  0  0  0
  135.8340   72.4400  223.4820 N   0  0  0  0  0  0  0  0  0  0  0  0
  134.7120   71.7410  224.1150 C   0  0  0  0  0  0  0  0  0  0  0  0
  135.0748   70.8050  224.5649 H   0  0  0  0  0  0  0  0  0  0  0  0
  133.9505   71.5217  223.3521 H   0  0  0  0  0  0  0  0  0  0  0  0
  134.0970   72.6040  225.1890 C   0  0  0  0  0  0  0  0  0  0  0  0
  133.2390   72.0190  226.1330 C   0  0  0  0  0  0  0  0  0  0  0  0
  133.0616   70.9336  226.1120 H   0  0  0  0  0  0  0  0  0  0  0  0
  132.6090   72.8070  227.0990 C   0  0  0  0  0  0  0  0  0  0  0  0
  131.9423   72.3401  227.8389 H   0  0  0  0  0  0  0  0  0  0  0  0
  132.8240   74.1860  227.1270 C   0  0  0  0  0  0  0  0  0  0  0  0
  132.3295   74.8035  227.8914 H   0  0  0  0  0  0  0  0  0  0  0  0
  133.6660   74.7830  226.1860 C   0  0  0  0  0  0  0  0  0  0  0  0
  133.8361   75.8693  226.2177 H   0  0  0  0  0  0  0  0  0  0  0  0
  134.2970   74.0080  225.2000 C   0  0  0  0  0  0  0  0  0  0  0  0
  135.2580   74.6810  224.2430 C   0  0  0  0  0  0  0  0  0  0  0  0
  136.1928   74.9021  224.7790 H   0  0  0  0  0  0  0  0  0  0  0  0
  134.7760   75.5989  223.8754 H   0  0  0  0  0  0  0  0  0  0  0  0
  135.5830   73.8080  223.0290 C   0  0  0  0  0  0  0  0  0  0  0  0
  136.4775   74.1990  222.5220 H   0  0  0  0  0  0  0  0  0  0  0  0
  134.7372   73.8182  222.3258 H   0  0  0  0  0  0  0  0  0  0  0  0
  138.1480   72.4770  222.7130 N   0  0  0  0  0  0  0  0  0  0  0  0
  137.9320   73.3190  222.1350 H   0  0  0  0  0  0  0  0  0  0  0  0
  1  2  1  0
  2  3  1  0
  3  4  2  0
  4  5  1  0
  4  6  1  0
  6  7  1  0
  6  8  2  0
  8  9  1  0
  8 10  1  0
 10 11  1  0
 10 12  2  0
 12 13  1  0
 13 14  2  0
 14 15  1  0
 15 16  2  0
 16 17  1  0
 17 18  1  1
 17 19  1  0
 19 20  1  0
 19 21  1  0
 19 22  1  0
 22 23  1  0
 22 24  1  0
 24 25  1  0
 24 26  1  0
 24 27  1  0
 27 28  1  0
 27 29  1  0
 27 30  1  0
 30 31  1  0
 30 32  1  0
 15 33  1  0
 33 34  2  0
 34 35  1  0
 35 36  1  0
 36 37  1  0
 36 38  1  0
 36 39  1  0
 39 40  2  0
 40 41  1  0
 40 42  1  0
 42 43  1  0
 42 44  2  0
 44 45  1  0
 44 46  1  0
 46 47  1  0
 46 48  2  0
 48 49  1  0
 49 50  1  0
 49 51  1  0
 49 52  1  0
 52 53  1  0
 52 54  1  0
 34 55  1  0
 55 56  1  0
 12  3  1  0
 55 13  1  0
 30 17  1  0
 52 35  1  0
 48 39  1  0
M  END
>  <UniqueID>  (58) 
484

>  <SMILES>  (58) 
Oc1ccccc1-c1n/c(=N\[C@@H]2CCCNC2)nc(N2CCc3ccccc3C2)[nH]1

>  <Energy>  (58) 
73.76739758018856

>  <Genealogy>  (58) 
Oc1ccccc1-c1nc(=NC2CCCNC2)nc(N2CCc3ccccc3C2)[nH]1 (tautomer)
Oc1ccccc1-c1nc(=N[C@@H]2CCCNC2)nc(N2CCc3ccccc3C2)[nH]1 (chirality)
Oc1ccccc1-c1n/c(=N\[C@@H]2CCCNC2)nc(N2CCc3ccccc3C2)[nH]1 (cis-trans isomerization)
Oc1ccccc1-c1n/c(=N\[C@@H]2CCCNC2)nc(N2CCc3ccccc3C2)[nH]1 (3D coordinates assigned)
Oc1ccccc1-c1n/c(=N\[C@@H]2CCCNC2)nc(N2CCc3ccccc3C2)[nH]1 (nonaromatic ring conformer: 73.76739758018856 kcal/mol)

>  <smiles>  (58) 
Oc1ccccc1-c1nc(NC2CCCNC2)nc(N2CCc3ccccc3C2)n1

>  <score_type>  (58) 
oracle

>  <origin>  (58) 
autodockgpu

>  <m_score__min__energy>  (58) 
-8.4900000000000002

>  <m_primary>  (58) 
energy

>  <meeko>  (58) 
{"free_energy": -8.49, "intermolecular_energy": -9.98, "internal_energy": -1.35, "cluster_size": 4, "cluster_id": 1, "rank_in_cluster": 2}

>  <energy>  (58) 
-8.13

>  <cluster_rmsd>  (58) 
0.0

>  <rmsd>  (58) 
271.7

>  <cluster>  (58) 
4

$$$$
UQJJBYVBPBMERE-JUZPGEPYNA-N
     RDKit          3D

 56 60  0  0  0  0  0  0  0  0999 V2000
  145.1880   75.2230  220.0730 H   0  0  0  0  0  0  0  0  0  0  0  0
  144.5000   74.5930  220.4690 O   0  0  0  0  0  0  0  0  0  0  0  0
  144.4870   73.2330  220.1570 C   0  0  0  0  0  0  0  0  0  0  0  0
  145.6040   72.6560  219.5330 C   0  0  0  0  0  0  0  0  0  0  0  0
  146.4638   73.2851  219.2593 H   0  0  0  0  0  0  0  0  0  0  0  0
  145.6290   71.2870  219.2580 C   0  0  0  0  0  0  0  0  0  0  0  0
  146.5061   70.8417  218.7655 H   0  0  0  0  0  0  0  0  0  0  0  0
  144.5430   70.4830  219.6070 C   0  0  0  0  0  0  0  0  0  0  0  0
  144.5689   69.4032  219.3986 H   0  0  0  0  0  0  0  0  0  0  0  0
  143.4230   71.0490  220.2210 C   0  0  0  0  0  0  0  0  0  0  0  0
  142.5722   70.4093  220.4984 H   0  0  0  0  0  0  0  0  0  0  0  0
  143.3730   72.4300  220.4880 C   0  0  0  0  0  0  0  0  0  0  0  0
  142.1690   72.9970  221.1410 C   0  0  0  0  0  0  0  0  0  0  0  0
  141.3810   72.1880  221.8970 N   0  0  0  0  0  0  0  0  0  0  0  0
  140.2600   72.6710  222.4910 C   0  0  0  0  0  0  0  0  0  0  0  0
  139.4940   71.9000  223.2040 N   0  0  0  0  0  0  0  0  0  0  0  0
  139.9670   70.8570  224.1180 C   0  0  1  0  0  0  0  0  0  0  0  0
  140.6718   70.2050  223.5813 H   0  0  0  0  0  0  0  0  0  0  0  0
  140.6980   71.5090  225.3190 C   0  0  0  0  0  0  0  0  0  0  0  0
  140.3400   72.5435  225.4271 H   0  0  0  0  0  0  0  0  0  0  0  0
  141.7769   71.4665  225.1088 H   0  0  0  0  0  0  0  0  0  0  0  0
  140.4690   70.7970  226.5920 N   0  0  0  0  0  0  0  0  0  0  0  0
  141.2410   71.0530  227.2520 H   0  0  0  0  0  0  0  0  0  0  0  0
  140.4920   69.3430  226.4040 C   0  0  0  0  0  0  0  0  0  0  0  0
  140.4572   68.8498  227.3866 H   0  0  0  0  0  0  0  0  0  0  0  0
  141.4157   69.0661  225.8748 H   0  0  0  0  0  0  0  0  0  0  0  0
  139.2810   68.8910  225.5660 C   0  0  0  0  0  0  0  0  0  0  0  0
  138.4584   68.6273  226.2470 H   0  0  0  0  0  0  0  0  0  0  0  0
  139.5946   68.0277  224.9607 H   0  0  0  0  0  0  0  0  0  0  0  0
  138.7940   69.9870  224.6040 C   0  0  0  0  0  0  0  0  0  0  0  0
  138.0651   70.6249  225.1253 H   0  0  0  0  0  0  0  0  0  0  0  0
  138.3302   69.5052  223.7306 H   0  0  0  0  0  0  0  0  0  0  0  0
  139.9320   73.9770  222.3360 N   0  0  0  0  0  0  0  0  0  0  0  0
  140.7080   74.8010  221.5830 C   0  0  0  0  0  0  0  0  0  0  0  0
  140.3290   76.1820  221.4190 N   0  0  0  0  0  0  0  0  0  0  0  0
  139.9190   77.0190  222.5510 C   0  0  0  0  0  0  0  0  0  0  0  0
  140.0180   76.4431  223.4829 H   0  0  0  0  0  0  0  0  0  0  0  0
  138.8727   77.3271  222.4082 H   0  0  0  0  0  0  0  0  0  0  0  0
  140.7860   78.2490  222.6320 C   0  0  0  0  0  0  0  0  0  0  0  0
  140.7900   79.0100  223.8120 C   0  0  0  0  0  0  0  0  0  0  0  0
  140.2017   78.6768  224.6797 H   0  0  0  0  0  0  0  0  0  0  0  0
  141.5370   80.1880  223.8900 C   0  0  0  0  0  0  0  0  0  0  0  0
  141.5395   80.7756  224.8199 H   0  0  0  0  0  0  0  0  0  0  0  0
  142.2800   80.6210  222.7910 C   0  0  0  0  0  0  0  0  0  0  0  0
  142.8698   81.5471  222.8575 H   0  0  0  0  0  0  0  0  0  0  0  0
  142.2760   79.8800  221.6060 C   0  0  0  0  0  0  0  0  0  0  0  0
  142.8690   80.2227  220.7453 H   0  0  0  0  0  0  0  0  0  0  0  0
  141.5200   78.7010  221.5070 C   0  0  0  0  0  0  0  0  0  0  0  0
  141.5980   77.8880  220.2320 C   0  0  0  0  0  0  0  0  0  0  0  0
  142.5653   77.3649  220.2059 H   0  0  0  0  0  0  0  0  0  0  0  0
  141.4907   78.5825  219.3857 H   0  0  0  0  0  0  0  0  0  0  0  0
  140.4770   76.8520  220.1280 C   0  0  0  0  0  0  0  0  0  0  0  0
  140.7293   76.1115  219.3547 H   0  0  0  0  0  0  0  0  0  0  0  0
  139.5343   77.3495  219.8565 H   0  0  0  0  0  0  0  0  0  0  0  0
  141.8140   74.3010  220.9640 N   0  0  0  0  0  0  0  0  0  0  0  0
  142.3560   74.9020  220.3050 H   0  0  0  0  0  0  0  0  0  0  0  0
  1  2  1  0
  2  3  1  0
  3  4  2  0
  4  5  1  0
  4  6  1  0
  6  7  1  0
  6  8  2  0
  8  9  1  0
  8 10  1  0
 10 11  1  0
 10 12  2  0
 12 13  1  0
 13 14  2  0
 14 15  1  0
 15 16  2  0
 16 17  1  0
 17 18  1  6
 17 19  1  0
 19 20  1  0
 19 21  1  0
 19 22  1  0
 22 23  1  0
 22 24  1  0
 24 25  1  0
 24 26  1  0
 24 27  1  0
 27 28  1  0
 27 29  1  0
 27 30  1  0
 30 31  1  0
 30 32  1  0
 15 33  1  0
 33 34  2  0
 34 35  1  0
 35 36  1  0
 36 37  1  0
 36 38  1  0
 36 39  1  0
 39 40  2  0
 40 41  1  0
 40 42  1  0
 42 43  1  0
 42 44  2  0
 44 45  1  0
 44 46  1  0
 46 47  1  0
 46 48  2  0
 48 49  1  0
 49 50  1  0
 49 51  1  0
 49 52  1  0
 52 53  1  0
 52 54  1  0
 34 55  1  0
 55 56  1  0
 12  3  1  0
 55 13  1  0
 30 17  1  0
 52 35  1  0
 48 39  1  0
M  END
>  <UniqueID>  (59) 
484

>  <SMILES>  (59) 
Oc1ccccc1-c1n/c(=N\[C@@H]2CCCNC2)nc(N2CCc3ccccc3C2)[nH]1

>  <Energy>  (59) 
73.76739758018856

>  <Genealogy>  (59) 
Oc1ccccc1-c1nc(=NC2CCCNC2)nc(N2CCc3ccccc3C2)[nH]1 (tautomer)
Oc1ccccc1-c1nc(=N[C@@H]2CCCNC2)nc(N2CCc3ccccc3C2)[nH]1 (chirality)
Oc1ccccc1-c1n/c(=N\[C@@H]2CCCNC2)nc(N2CCc3ccccc3C2)[nH]1 (cis-trans isomerization)
Oc1ccccc1-c1n/c(=N\[C@@H]2CCCNC2)nc(N2CCc3ccccc3C2)[nH]1 (3D coordinates assigned)
Oc1ccccc1-c1n/c(=N\[C@@H]2CCCNC2)nc(N2CCc3ccccc3C2)[nH]1 (nonaromatic ring conformer: 73.76739758018856 kcal/mol)

>  <smiles>  (59) 
Oc1ccccc1-c1nc(NC2CCCNC2)nc(N2CCc3ccccc3C2)n1

>  <score_type>  (59) 
oracle

>  <origin>  (59) 
autodockgpu

>  <m_score__min__energy>  (59) 
-8.4900000000000002

>  <m_primary>  (59) 
energy

>  <meeko>  (59) 
{"free_energy": -8.37, "intermolecular_energy": -9.87, "internal_energy": -1.33, "cluster_size": 11, "cluster_id": 2, "rank_in_cluster": 8}

>  <energy>  (59) 
-7.87

>  <cluster_rmsd>  (59) 
0.0

>  <rmsd>  (59) 
270.97

>  <cluster>  (59) 
5

$$$$
UQJJBYVBPBMERE-JUZPGEPYNA-N
     RDKit          3D

 56 60  0  0  0  0  0  0  0  0999 V2000
  141.6650   70.9310  220.3870 H   0  0  0  0  0  0  0  0  0  0  0  0
  142.5130   70.8160  219.8430 O   0  0  0  0  0  0  0  0  0  0  0  0
  143.6330   71.6210  220.0530 C   0  0  0  0  0  0  0  0  0  0  0  0
  144.8870   71.1970  219.5860 C   0  0  0  0  0  0  0  0  0  0  0  0
  144.9855   70.2178  219.0947 H   0  0  0  0  0  0  0  0  0  0  0  0
  146.0100   72.0120  219.7420 C   0  0  0  0  0  0  0  0  0  0  0  0
  146.9904   71.6723  219.3766 H   0  0  0  0  0  0  0  0  0  0  0  0
  145.8900   73.2570  220.3610 C   0  0  0  0  0  0  0  0  0  0  0  0
  146.7740   73.9019  220.4740 H   0  0  0  0  0  0  0  0  0  0  0  0
  144.6490   73.6850  220.8370 C   0  0  0  0  0  0  0  0  0  0  0  0
  144.5608   74.6694  221.3198 H   0  0  0  0  0  0  0  0  0  0  0  0
  143.5100   72.8690  220.7050 C   0  0  0  0  0  0  0  0  0  0  0  0
  142.2080   73.3550  221.2200 C   0  0  0  0  0  0  0  0  0  0  0  0
  141.3400   72.4660  221.7710 N   0  0  0  0  0  0  0  0  0  0  0  0
  140.1300   72.8750  222.2330 C   0  0  0  0  0  0  0  0  0  0  0  0
  139.2890   72.0290  222.7480 N   0  0  0  0  0  0  0  0  0  0  0  0
  139.3910   71.4520  224.0910 C   0  0  1  0  0  0  0  0  0  0  0  0
  138.5630   71.8328  224.7069 H   0  0  0  0  0  0  0  0  0  0  0  0
  139.2860   69.9080  224.0050 C   0  0  0  0  0  0  0  0  0  0  0  0
  139.5766   69.5935  222.9918 H   0  0  0  0  0  0  0  0  0  0  0  0
  138.2458   69.6370  224.2386 H   0  0  0  0  0  0  0  0  0  0  0  0
  140.1500   69.2130  224.9780 N   0  0  0  0  0  0  0  0  0  0  0  0
  139.7760   68.2450  225.1130 H   0  0  0  0  0  0  0  0  0  0  0  0
  140.1440   69.8910  226.2790 C   0  0  0  0  0  0  0  0  0  0  0  0
  140.6833   69.2731  227.0121 H   0  0  0  0  0  0  0  0  0  0  0  0
  139.1021   70.0365  226.6004 H   0  0  0  0  0  0  0  0  0  0  0  0
  140.8300   71.2660  226.1720 C   0  0  0  0  0  0  0  0  0  0  0  0
  141.8954   71.1499  226.4197 H   0  0  0  0  0  0  0  0  0  0  0  0
  140.3265   71.9485  226.8725 H   0  0  0  0  0  0  0  0  0  0  0  0
  140.7130   71.8690  224.7620 C   0  0  0  0  0  0  0  0  0  0  0  0
  141.5549   71.5154  224.1486 H   0  0  0  0  0  0  0  0  0  0  0  0
  140.7319   72.9655  224.8473 H   0  0  0  0  0  0  0  0  0  0  0  0
  139.7930   74.1850  222.1530 N   0  0  0  0  0  0  0  0  0  0  0  0
  140.6490   75.0890  221.6050 C   0  0  0  0  0  0  0  0  0  0  0  0
  140.2600   76.4730  221.5150 N   0  0  0  0  0  0  0  0  0  0  0  0
  140.0260   77.2970  222.7050 C   0  0  0  0  0  0  0  0  0  0  0  0
  140.2551   76.7077  223.6052 H   0  0  0  0  0  0  0  0  0  0  0  0
  138.9726   77.6133  222.7196 H   0  0  0  0  0  0  0  0  0  0  0  0
  140.9050   78.5210  222.6750 C   0  0  0  0  0  0  0  0  0  0  0  0
  141.0870   79.2660  223.8510 C   0  0  0  0  0  0  0  0  0  0  0  0
  140.6289   78.9243  224.7909 H   0  0  0  0  0  0  0  0  0  0  0  0
  141.8460   80.4380  223.8350 C   0  0  0  0  0  0  0  0  0  0  0  0
  141.9885   81.0124  224.7623 H   0  0  0  0  0  0  0  0  0  0  0  0
  142.4240   80.8820  222.6450 C   0  0  0  0  0  0  0  0  0  0  0  0
  143.0232   81.8044  222.6365 H   0  0  0  0  0  0  0  0  0  0  0  0
  142.2430   80.1570  221.4640 C   0  0  0  0  0  0  0  0  0  0  0  0
  142.7085   80.5076  220.5311 H   0  0  0  0  0  0  0  0  0  0  0  0
  141.4710   78.9840  221.4600 C   0  0  0  0  0  0  0  0  0  0  0  0
  141.3570   78.1880  220.1770 C   0  0  0  0  0  0  0  0  0  0  0  0
  142.3061   77.6595  220.0040 H   0  0  0  0  0  0  0  0  0  0  0  0
  141.1339   78.8942  219.3637 H   0  0  0  0  0  0  0  0  0  0  0  0
  140.2240   77.1600  220.2250 C   0  0  0  0  0  0  0  0  0  0  0  0
  140.3547   76.4287  219.4138 H   0  0  0  0  0  0  0  0  0  0  0  0
  139.2559   77.6673  220.1007 H   0  0  0  0  0  0  0  0  0  0  0  0
  141.8470   74.6650  221.1140 N   0  0  0  0  0  0  0  0  0  0  0  0
  142.4650   75.3330  220.6030 H   0  0  0  0  0  0  0  0  0  0  0  0
  1  2  1  0
  2  3  1  0
  3  4  2  0
  4  5  1  0
  4  6  1  0
  6  7  1  0
  6  8  2  0
  8  9  1  0
  8 10  1  0
 10 11  1  0
 10 12  2  0
 12 13  1  0
 13 14  2  0
 14 15  1  0
 15 16  2  0
 16 17  1  0
 17 18  1  1
 17 19  1  0
 19 20  1  0
 19 21  1  0
 19 22  1  0
 22 23  1  0
 22 24  1  0
 24 25  1  0
 24 26  1  0
 24 27  1  0
 27 28  1  0
 27 29  1  0
 27 30  1  0
 30 31  1  0
 30 32  1  0
 15 33  1  0
 33 34  2  0
 34 35  1  0
 35 36  1  0
 36 37  1  0
 36 38  1  0
 36 39  1  0
 39 40  2  0
 40 41  1  0
 40 42  1  0
 42 43  1  0
 42 44  2  0
 44 45  1  0
 44 46  1  0
 46 47  1  0
 46 48  2  0
 48 49  1  0
 49 50  1  0
 49 51  1  0
 49 52  1  0
 52 53  1  0
 52 54  1  0
 34 55  1  0
 55 56  1  0
 12  3  1  0
 55 13  1  0
 30 17  1  0
 52 35  1  0
 48 39  1  0
M  END
>  <UniqueID>  (60) 
484

>  <SMILES>  (60) 
Oc1ccccc1-c1n/c(=N\[C@@H]2CCCNC2)nc(N2CCc3ccccc3C2)[nH]1

>  <Energy>  (60) 
73.76739758018856

>  <Genealogy>  (60) 
Oc1ccccc1-c1nc(=NC2CCCNC2)nc(N2CCc3ccccc3C2)[nH]1 (tautomer)
Oc1ccccc1-c1nc(=N[C@@H]2CCCNC2)nc(N2CCc3ccccc3C2)[nH]1 (chirality)
Oc1ccccc1-c1n/c(=N\[C@@H]2CCCNC2)nc(N2CCc3ccccc3C2)[nH]1 (cis-trans isomerization)
Oc1ccccc1-c1n/c(=N\[C@@H]2CCCNC2)nc(N2CCc3ccccc3C2)[nH]1 (3D coordinates assigned)
Oc1ccccc1-c1n/c(=N\[C@@H]2CCCNC2)nc(N2CCc3ccccc3C2)[nH]1 (nonaromatic ring conformer: 73.76739758018856 kcal/mol)

>  <smiles>  (60) 
Oc1ccccc1-c1nc(NC2CCCNC2)nc(N2CCc3ccccc3C2)n1

>  <score_type>  (60) 
oracle

>  <origin>  (60) 
autodockgpu

>  <m_score__min__energy>  (60) 
-8.4900000000000002

>  <m_primary>  (60) 
energy

>  <meeko>  (60) 
{"free_energy": -8.24, "intermolecular_energy": -9.73, "internal_energy": -1.43, "cluster_size": 11, "cluster_id": 2, "rank_in_cluster": 10}

>  <energy>  (60) 
-7.63

>  <cluster_rmsd>  (60) 
0.0

>  <rmsd>  (60) 
271.02

>  <cluster>  (60) 
6

$$$$
UQJJBYVBPBMERE-JUZPGEPYNA-N
     RDKit          3D

 56 60  0  0  0  0  0  0  0  0999 V2000
  145.2070   75.2420  220.0520 H   0  0  0  0  0  0  0  0  0  0  0  0
  144.5150   74.6120  220.4410 O   0  0  0  0  0  0  0  0  0  0  0  0
  144.5000   73.2540  220.1250 C   0  0  0  0  0  0  0  0  0  0  0  0
  145.6120   72.6790  219.4890 C   0  0  0  0  0  0  0  0  0  0  0  0
  146.4688   73.3096  219.2091 H   0  0  0  0  0  0  0  0  0  0  0  0
  145.6360   71.3110  219.2100 C   0  0  0  0  0  0  0  0  0  0  0  0
  146.5092   70.8677  218.7089 H   0  0  0  0  0  0  0  0  0  0  0  0
  144.5540   70.5060  219.5660 C   0  0  0  0  0  0  0  0  0  0  0  0
  144.5788   69.4270  219.3534 H   0  0  0  0  0  0  0  0  0  0  0  0
  143.4390   71.0680  220.1920 C   0  0  0  0  0  0  0  0  0  0  0  0
  142.5918   70.4263  220.4756 H   0  0  0  0  0  0  0  0  0  0  0  0
  143.3900   72.4480  220.4630 C   0  0  0  0  0  0  0  0  0  0  0  0
  142.1910   73.0120  221.1280 C   0  0  0  0  0  0  0  0  0  0  0  0
  141.4100   72.2000  221.8880 N   0  0  0  0  0  0  0  0  0  0  0  0
  140.2930   72.6810  222.4930 C   0  0  0  0  0  0  0  0  0  0  0  0
  139.5340   71.9070  223.2100 N   0  0  0  0  0  0  0  0  0  0  0  0
  140.0170   70.8620  224.1190 C   0  0  1  0  0  0  0  0  0  0  0  0
  140.7232   70.2149  223.5781 H   0  0  0  0  0  0  0  0  0  0  0  0
  140.7490   71.5150  225.3200 C   0  0  0  0  0  0  0  0  0  0  0  0
  140.3853   72.5470  225.4327 H   0  0  0  0  0  0  0  0  0  0  0  0
  141.8273   71.4796  225.1057 H   0  0  0  0  0  0  0  0  0  0  0  0
  140.5290   70.7980  226.5910 N   0  0  0  0  0  0  0  0  0  0  0  0
  141.3010   71.0550  227.2480 H   0  0  0  0  0  0  0  0  0  0  0  0
  140.5580   69.3440  226.3980 C   0  0  0  0  0  0  0  0  0  0  0  0
  140.5298   68.8475  227.3792 H   0  0  0  0  0  0  0  0  0  0  0  0
  141.4807   69.0733  225.8638 H   0  0  0  0  0  0  0  0  0  0  0  0
  139.3460   68.8890  225.5640 C   0  0  0  0  0  0  0  0  0  0  0  0
  138.5277   68.6191  226.2478 H   0  0  0  0  0  0  0  0  0  0  0  0
  139.6614   68.0293  224.9546 H   0  0  0  0  0  0  0  0  0  0  0  0
  138.8490   69.9860  224.6070 C   0  0  0  0  0  0  0  0  0  0  0  0
  138.1196   70.6193  225.1333 H   0  0  0  0  0  0  0  0  0  0  0  0
  138.3826   69.5053  223.7344 H   0  0  0  0  0  0  0  0  0  0  0  0
  139.9620   73.9860  222.3450 N   0  0  0  0  0  0  0  0  0  0  0  0
  140.7320   74.8140  221.5880 C   0  0  0  0  0  0  0  0  0  0  0  0
  140.3500   76.1940  221.4320 N   0  0  0  0  0  0  0  0  0  0  0  0
  139.9630   77.0320  222.5710 C   0  0  0  0  0  0  0  0  0  0  0  0
  140.0798   76.4565  223.5011 H   0  0  0  0  0  0  0  0  0  0  0  0
  138.9144   77.3408  222.4479 H   0  0  0  0  0  0  0  0  0  0  0  0
  140.8320   78.2620  222.6350 C   0  0  0  0  0  0  0  0  0  0  0  0
  140.8600   79.0230  223.8150 C   0  0  0  0  0  0  0  0  0  0  0  0
  140.2894   78.6898  224.6944 H   0  0  0  0  0  0  0  0  0  0  0  0
  141.6080   80.2000  223.8780 C   0  0  0  0  0  0  0  0  0  0  0  0
  141.6293   80.7876  224.8077 H   0  0  0  0  0  0  0  0  0  0  0  0
  142.3290   80.6330  222.7640 C   0  0  0  0  0  0  0  0  0  0  0  0
  142.9195   81.5594  222.8185 H   0  0  0  0  0  0  0  0  0  0  0  0
  142.3020   79.8920  221.5800 C   0  0  0  0  0  0  0  0  0  0  0  0
  142.8786   80.2346  220.7081 H   0  0  0  0  0  0  0  0  0  0  0  0
  141.5440   78.7130  221.4950 C   0  0  0  0  0  0  0  0  0  0  0  0
  141.5960   77.9000  220.2190 C   0  0  0  0  0  0  0  0  0  0  0  0
  142.5623   77.3764  220.1734 H   0  0  0  0  0  0  0  0  0  0  0  0
  141.4721   78.5944  219.3749 H   0  0  0  0  0  0  0  0  0  0  0  0
  140.4720   76.8640  220.1380 C   0  0  0  0  0  0  0  0  0  0  0  0
  140.7081   76.1234  219.3597 H   0  0  0  0  0  0  0  0  0  0  0  0
  139.5242   77.3620  219.8858 H   0  0  0  0  0  0  0  0  0  0  0  0
  141.8330   74.3170  220.9580 N   0  0  0  0  0  0  0  0  0  0  0  0
  142.3690   74.9200  220.2970 H   0  0  0  0  0  0  0  0  0  0  0  0
  1  2  1  0
  2  3  1  0
  3  4  2  0
  4  5  1  0
  4  6  1  0
  6  7  1  0
  6  8  2  0
  8  9  1  0
  8 10  1  0
 10 11  1  0
 10 12  2  0
 12 13  1  0
 13 14  2  0
 14 15  1  0
 15 16  2  0
 16 17  1  0
 17 18  1  6
 17 19  1  0
 19 20  1  0
 19 21  1  0
 19 22  1  0
 22 23  1  0
 22 24  1  0
 24 25  1  0
 24 26  1  0
 24 27  1  0
 27 28  1  0
 27 29  1  0
 27 30  1  0
 30 31  1  0
 30 32  1  0
 15 33  1  0
 33 34  2  0
 34 35  1  0
 35 36  1  0
 36 37  1  0
 36 38  1  0
 36 39  1  0
 39 40  2  0
 40 41  1  0
 40 42  1  0
 42 43  1  0
 42 44  2  0
 44 45  1  0
 44 46  1  0
 46 47  1  0
 46 48  2  0
 48 49  1  0
 49 50  1  0
 49 51  1  0
 49 52  1  0
 52 53  1  0
 52 54  1  0
 34 55  1  0
 55 56  1  0
 12  3  1  0
 55 13  1  0
 30 17  1  0
 52 35  1  0
 48 39  1  0
M  END
>  <UniqueID>  (61) 
485

>  <SMILES>  (61) 
Oc1ccccc1-c1n/c(=N\[C@@H]2CCCNC2)nc(N2CCc3ccccc3C2)[nH]1

>  <Energy>  (61) 
74.54154189360749

>  <Genealogy>  (61) 
Oc1ccccc1-c1nc(=NC2CCCNC2)nc(N2CCc3ccccc3C2)[nH]1 (tautomer)
Oc1ccccc1-c1nc(=N[C@@H]2CCCNC2)nc(N2CCc3ccccc3C2)[nH]1 (chirality)
Oc1ccccc1-c1n/c(=N\[C@@H]2CCCNC2)nc(N2CCc3ccccc3C2)[nH]1 (cis-trans isomerization)
Oc1ccccc1-c1n/c(=N\[C@@H]2CCCNC2)nc(N2CCc3ccccc3C2)[nH]1 (3D coordinates assigned)
Oc1ccccc1-c1n/c(=N\[C@@H]2CCCNC2)nc(N2CCc3ccccc3C2)[nH]1 (nonaromatic ring conformer: 74.54154189360749 kcal/mol)

>  <smiles>  (61) 
Oc1ccccc1-c1nc(NC2CCCNC2)nc(N2CCc3ccccc3C2)n1

>  <score_type>  (61) 
oracle

>  <origin>  (61) 
autodockgpu

>  <m_score__min__energy>  (61) 
-8.4900000000000002

>  <m_primary>  (61) 
energy

>  <meeko>  (61) 
{"free_energy": -8.38, "intermolecular_energy": -9.87, "internal_energy": -1.33, "cluster_size": 11, "cluster_id": 2, "rank_in_cluster": 7}

>  <energy>  (61) 
-8.49

>  <cluster_rmsd>  (61) 
0.0

>  <rmsd>  (61) 
271.28

>  <cluster>  (61) 
1

$$$$
UQJJBYVBPBMERE-JUZPGEPYNA-N
     RDKit          3D

 56 60  0  0  0  0  0  0  0  0999 V2000
  138.9150   74.5080  223.0200 H   0  0  0  0  0  0  0  0  0  0  0  0
  139.4980   74.8540  222.2660 O   0  0  0  0  0  0  0  0  0  0  0  0
  140.5250   74.0840  221.7220 C   0  0  0  0  0  0  0  0  0  0  0  0
  141.5440   74.7100  220.9860 C   0  0  0  0  0  0  0  0  0  0  0  0
  141.5046   75.7952  220.8103 H   0  0  0  0  0  0  0  0  0  0  0  0
  142.6070   73.9620  220.4760 C   0  0  0  0  0  0  0  0  0  0  0  0
  143.3994   74.4584  219.8966 H   0  0  0  0  0  0  0  0  0  0  0  0
  142.6660   72.5860  220.7000 C   0  0  0  0  0  0  0  0  0  0  0  0
  143.5095   72.0003  220.3056 H   0  0  0  0  0  0  0  0  0  0  0  0
  141.6540   71.9520  221.4250 C   0  0  0  0  0  0  0  0  0  0  0  0
  141.7090   70.8680  221.6036 H   0  0  0  0  0  0  0  0  0  0  0  0
  140.5650   72.6870  221.9290 C   0  0  0  0  0  0  0  0  0  0  0  0
  139.5090   71.9820  222.6940 C   0  0  0  0  0  0  0  0  0  0  0  0
  139.8180   70.8300  223.3450 N   0  0  0  0  0  0  0  0  0  0  0  0
  138.8680   70.1490  224.0360 C   0  0  0  0  0  0  0  0  0  0  0  0
  139.1540   69.0390  224.6500 N   0  0  0  0  0  0  0  0  0  0  0  0
  139.4460   68.9210  226.0820 C   0  0  1  0  0  0  0  0  0  0  0  0
  138.5098   69.0341  226.6484 H   0  0  0  0  0  0  0  0  0  0  0  0
  140.0490   67.5230  226.3760 C   0  0  0  0  0  0  0  0  0  0  0  0
  140.4940   67.1315  225.4493 H   0  0  0  0  0  0  0  0  0  0  0  0
  139.2324   66.8835  226.7423 H   0  0  0  0  0  0  0  0  0  0  0  0
  141.0900   67.5510  227.4220 N   0  0  0  0  0  0  0  0  0  0  0  0
  141.1860   66.5840  227.8120 H   0  0  0  0  0  0  0  0  0  0  0  0
  140.7240   68.4530  228.5190 C   0  0  0  0  0  0  0  0  0  0  0  0
  141.4513   68.3427  229.3369 H   0  0  0  0  0  0  0  0  0  0  0  0
  139.7152   68.1937  228.8725 H   0  0  0  0  0  0  0  0  0  0  0  0
  140.7230   69.9140  228.0350 C   0  0  0  0  0  0  0  0  0  0  0  0
  141.7152   70.3497  228.2242 H   0  0  0  0  0  0  0  0  0  0  0  0
  139.9363   70.4499  228.5863 H   0  0  0  0  0  0  0  0  0  0  0  0
  140.4090   70.0330  226.5340 C   0  0  0  0  0  0  0  0  0  0  0  0
  141.3457   69.9517  225.9630 H   0  0  0  0  0  0  0  0  0  0  0  0
  139.9301   71.0065  226.3523 H   0  0  0  0  0  0  0  0  0  0  0  0
  137.6030   70.6300  224.0850 N   0  0  0  0  0  0  0  0  0  0  0  0
  137.2740   71.7810  223.4380 C   0  0  0  0  0  0  0  0  0  0  0  0
  135.9180   72.2630  223.4900 N   0  0  0  0  0  0  0  0  0  0  0  0
  134.8490   71.5190  224.1630 C   0  0  0  0  0  0  0  0  0  0  0  0
  135.2745   70.6235  224.6394 H   0  0  0  0  0  0  0  0  0  0  0  0
  134.0932   71.2269  223.4190 H   0  0  0  0  0  0  0  0  0  0  0  0
  134.1950   72.3790  225.2150 C   0  0  0  0  0  0  0  0  0  0  0  0
  133.3870   71.7760  226.1920 C   0  0  0  0  0  0  0  0  0  0  0  0
  133.2781   70.6816  226.2121 H   0  0  0  0  0  0  0  0  0  0  0  0
  132.7210   72.5570  227.1380 C   0  0  0  0  0  0  0  0  0  0  0  0
  132.0945   72.0760  227.9036 H   0  0  0  0  0  0  0  0  0  0  0  0
  132.8480   73.9470  227.1150 C   0  0  0  0  0  0  0  0  0  0  0  0
  132.3239   74.5589  227.8639 H   0  0  0  0  0  0  0  0  0  0  0  0
  133.6400   74.5620  226.1420 C   0  0  0  0  0  0  0  0  0  0  0  0
  133.7428   75.6572  226.1339 H   0  0  0  0  0  0  0  0  0  0  0  0
  134.3060   73.7920  225.1740 C   0  0  0  0  0  0  0  0  0  0  0  0
  135.2110   74.4890  224.1810 C   0  0  0  0  0  0  0  0  0  0  0  0
  136.1363   74.7871  224.6958 H   0  0  0  0  0  0  0  0  0  0  0  0
  134.6676   75.3611  223.7885 H   0  0  0  0  0  0  0  0  0  0  0  0
  135.5760   73.5960  222.9940 C   0  0  0  0  0  0  0  0  0  0  0  0
  136.4381   74.0240  222.4615 H   0  0  0  0  0  0  0  0  0  0  0  0
  134.7229   73.5284  222.3029 H   0  0  0  0  0  0  0  0  0  0  0  0
  138.2250   72.4410  222.7200 N   0  0  0  0  0  0  0  0  0  0  0  0
  137.9580   73.2670  222.1410 H   0  0  0  0  0  0  0  0  0  0  0  0
  1  2  1  0
  2  3  1  0
  3  4  2  0
  4  5  1  0
  4  6  1  0
  6  7  1  0
  6  8  2  0
  8  9  1  0
  8 10  1  0
 10 11  1  0
 10 12  2  0
 12 13  1  0
 13 14  2  0
 14 15  1  0
 15 16  2  0
 16 17  1  0
 17 18  1  1
 17 19  1  0
 19 20  1  0
 19 21  1  0
 19 22  1  0
 22 23  1  0
 22 24  1  0
 24 25  1  0
 24 26  1  0
 24 27  1  0
 27 28  1  0
 27 29  1  0
 27 30  1  0
 30 31  1  0
 30 32  1  0
 15 33  1  0
 33 34  2  0
 34 35  1  0
 35 36  1  0
 36 37  1  0
 36 38  1  0
 36 39  1  0
 39 40  2  0
 40 41  1  0
 40 42  1  0
 42 43  1  0
 42 44  2  0
 44 45  1  0
 44 46  1  0
 46 47  1  0
 46 48  2  0
 48 49  1  0
 49 50  1  0
 49 51  1  0
 49 52  1  0
 52 53  1  0
 52 54  1  0
 34 55  1  0
 55 56  1  0
 12  3  1  0
 55 13  1  0
 30 17  1  0
 52 35  1  0
 48 39  1  0
M  END
>  <UniqueID>  (62) 
485

>  <SMILES>  (62) 
Oc1ccccc1-c1n/c(=N\[C@@H]2CCCNC2)nc(N2CCc3ccccc3C2)[nH]1

>  <Energy>  (62) 
74.54154189360749

>  <Genealogy>  (62) 
Oc1ccccc1-c1nc(=NC2CCCNC2)nc(N2CCc3ccccc3C2)[nH]1 (tautomer)
Oc1ccccc1-c1nc(=N[C@@H]2CCCNC2)nc(N2CCc3ccccc3C2)[nH]1 (chirality)
Oc1ccccc1-c1n/c(=N\[C@@H]2CCCNC2)nc(N2CCc3ccccc3C2)[nH]1 (cis-trans isomerization)
Oc1ccccc1-c1n/c(=N\[C@@H]2CCCNC2)nc(N2CCc3ccccc3C2)[nH]1 (3D coordinates assigned)
Oc1ccccc1-c1n/c(=N\[C@@H]2CCCNC2)nc(N2CCc3ccccc3C2)[nH]1 (nonaromatic ring conformer: 74.54154189360749 kcal/mol)

>  <smiles>  (62) 
Oc1ccccc1-c1nc(NC2CCCNC2)nc(N2CCc3ccccc3C2)n1

>  <score_type>  (62) 
oracle

>  <origin>  (62) 
autodockgpu

>  <m_score__min__energy>  (62) 
-8.4900000000000002

>  <m_primary>  (62) 
energy

>  <meeko>  (62) 
{"free_energy": -8.45, "intermolecular_energy": -9.94, "internal_energy": -1.32, "cluster_size": 4, "cluster_id": 1, "rank_in_cluster": 3}

>  <energy>  (62) 
-8.49

>  <cluster_rmsd>  (62) 
0.06

>  <rmsd>  (62) 
271.24

>  <cluster>  (62) 
1

$$$$
UQJJBYVBPBMERE-JUZPGEPYNA-N
     RDKit          3D

 56 60  0  0  0  0  0  0  0  0999 V2000
  143.8090   75.2470  221.2120 H   0  0  0  0  0  0  0  0  0  0  0  0
  144.4240   74.8830  220.4940 O   0  0  0  0  0  0  0  0  0  0  0  0
  144.4810   73.5210  220.2000 C   0  0  0  0  0  0  0  0  0  0  0  0
  145.6320   72.9910  219.5950 C   0  0  0  0  0  0  0  0  0  0  0  0
  146.4626   73.6582  219.3213 H   0  0  0  0  0  0  0  0  0  0  0  0
  145.7280   71.6220  219.3390 C   0  0  0  0  0  0  0  0  0  0  0  0
  146.6313   71.2146  218.8614 H   0  0  0  0  0  0  0  0  0  0  0  0
  144.6800   70.7700  219.6880 C   0  0  0  0  0  0  0  0  0  0  0  0
  144.7620   69.6902  219.4947 H   0  0  0  0  0  0  0  0  0  0  0  0
  143.5260   71.2870  220.2830 C   0  0  0  0  0  0  0  0  0  0  0  0
  142.7052   70.6093  220.5606 H   0  0  0  0  0  0  0  0  0  0  0  0
  143.4050   72.6670  220.5300 C   0  0  0  0  0  0  0  0  0  0  0  0
  142.1670   73.1820  221.1640 C   0  0  0  0  0  0  0  0  0  0  0  0
  141.3700   72.3260  221.8550 N   0  0  0  0  0  0  0  0  0  0  0  0
  140.2190   72.7610  222.4290 C   0  0  0  0  0  0  0  0  0  0  0  0
  139.4450   71.9450  223.0790 N   0  0  0  0  0  0  0  0  0  0  0  0
  139.9060   70.8910  223.9880 C   0  0  1  0  0  0  0  0  0  0  0  0
  140.5438   70.1903  223.4293 H   0  0  0  0  0  0  0  0  0  0  0  0
  140.7350   71.5210  225.1370 C   0  0  0  0  0  0  0  0  0  0  0  0
  140.4412   72.5757  225.2434 H   0  0  0  0  0  0  0  0  0  0  0  0
  141.7973   71.4148  224.8721 H   0  0  0  0  0  0  0  0  0  0  0  0
  140.5340   70.8440  226.4330 N   0  0  0  0  0  0  0  0  0  0  0  0
  141.3520   71.0660  227.0470 H   0  0  0  0  0  0  0  0  0  0  0  0
  140.4650   69.3870  226.2720 C   0  0  0  0  0  0  0  0  0  0  0  0
  140.4545   68.9127  227.2644 H   0  0  0  0  0  0  0  0  0  0  0  0
  141.3423   69.0488  225.7011 H   0  0  0  0  0  0  0  0  0  0  0  0
  139.1880   68.9920  225.5070 C   0  0  0  0  0  0  0  0  0  0  0  0
  138.3891   68.7874  226.2349 H   0  0  0  0  0  0  0  0  0  0  0  0
  139.4201   68.1024  224.9031 H   0  0  0  0  0  0  0  0  0  0  0  0
  138.7130   70.0980  224.5500 C   0  0  0  0  0  0  0  0  0  0  0  0
  138.0493   70.7850  225.0954 H   0  0  0  0  0  0  0  0  0  0  0  0
  138.1774   69.6294  223.7112 H   0  0  0  0  0  0  0  0  0  0  0  0
  139.8690   74.0660  222.3180 N   0  0  0  0  0  0  0  0  0  0  0  0
  140.6540   74.9370  221.6300 C   0  0  0  0  0  0  0  0  0  0  0  0
  140.2530   76.3160  221.5120 N   0  0  0  0  0  0  0  0  0  0  0  0
  139.9770   77.1520  222.6840 C   0  0  0  0  0  0  0  0  0  0  0  0
  140.1882   76.5772  223.5978 H   0  0  0  0  0  0  0  0  0  0  0  0
  138.9199   77.4558  222.6664 H   0  0  0  0  0  0  0  0  0  0  0  0
  140.8430   78.3860  222.6610 C   0  0  0  0  0  0  0  0  0  0  0  0
  140.9850   79.1480  223.8320 C   0  0  0  0  0  0  0  0  0  0  0  0
  140.5058   78.8128  224.7637 H   0  0  0  0  0  0  0  0  0  0  0  0
  141.7310   80.3290  223.8210 C   0  0  0  0  0  0  0  0  0  0  0  0
  141.8420   80.9171  224.7439 H   0  0  0  0  0  0  0  0  0  0  0  0
  142.3360   80.7640  222.6400 C   0  0  0  0  0  0  0  0  0  0  0  0
  142.9255   81.6927  222.6349 H   0  0  0  0  0  0  0  0  0  0  0  0
  142.1940   80.0220  221.4650 C   0  0  0  0  0  0  0  0  0  0  0  0
  142.6796   80.3662  220.5399 H   0  0  0  0  0  0  0  0  0  0  0  0
  141.4360   78.8400  221.4560 C   0  0  0  0  0  0  0  0  0  0  0  0
  141.3650   78.0260  220.1810 C   0  0  0  0  0  0  0  0  0  0  0  0
  142.3242   77.5062  220.0404 H   0  0  0  0  0  0  0  0  0  0  0  0
  141.1557   78.7192  219.3529 H   0  0  0  0  0  0  0  0  0  0  0  0
  140.2430   76.9860  220.2120 C   0  0  0  0  0  0  0  0  0  0  0  0
  140.4034   76.2460  219.4141 H   0  0  0  0  0  0  0  0  0  0  0  0
  139.2728   77.4801  220.0551 H   0  0  0  0  0  0  0  0  0  0  0  0
  141.7920   74.4860  221.0300 N   0  0  0  0  0  0  0  0  0  0  0  0
  142.3440   75.1250  220.4180 H   0  0  0  0  0  0  0  0  0  0  0  0
  1  2  1  0
  2  3  1  0
  3  4  2  0
  4  5  1  0
  4  6  1  0
  6  7  1  0
  6  8  2  0
  8  9  1  0
  8 10  1  0
 10 11  1  0
 10 12  2  0
 12 13  1  0
 13 14  2  0
 14 15  1  0
 15 16  2  0
 16 17  1  0
 17 18  1  6
 17 19  1  0
 19 20  1  0
 19 21  1  0
 19 22  1  0
 22 23  1  0
 22 24  1  0
 24 25  1  0
 24 26  1  0
 24 27  1  0
 27 28  1  0
 27 29  1  0
 27 30  1  0
 30 31  1  0
 30 32  1  0
 15 33  1  0
 33 34  2  0
 34 35  1  0
 35 36  1  0
 36 37  1  0
 36 38  1  0
 36 39  1  0
 39 40  2  0
 40 41  1  0
 40 42  1  0
 42 43  1  0
 42 44  2  0
 44 45  1  0
 44 46  1  0
 46 47  1  0
 46 48  2  0
 48 49  1  0
 49 50  1  0
 49 51  1  0
 49 52  1  0
 52 53  1  0
 52 54  1  0
 34 55  1  0
 55 56  1  0
 12  3  1  0
 55 13  1  0
 30 17  1  0
 52 35  1  0
 48 39  1  0
M  END
>  <UniqueID>  (63) 
485

>  <SMILES>  (63) 
Oc1ccccc1-c1n/c(=N\[C@@H]2CCCNC2)nc(N2CCc3ccccc3C2)[nH]1

>  <Energy>  (63) 
74.54154189360749

>  <Genealogy>  (63) 
Oc1ccccc1-c1nc(=NC2CCCNC2)nc(N2CCc3ccccc3C2)[nH]1 (tautomer)
Oc1ccccc1-c1nc(=N[C@@H]2CCCNC2)nc(N2CCc3ccccc3C2)[nH]1 (chirality)
Oc1ccccc1-c1n/c(=N\[C@@H]2CCCNC2)nc(N2CCc3ccccc3C2)[nH]1 (cis-trans isomerization)
Oc1ccccc1-c1n/c(=N\[C@@H]2CCCNC2)nc(N2CCc3ccccc3C2)[nH]1 (3D coordinates assigned)
Oc1ccccc1-c1n/c(=N\[C@@H]2CCCNC2)nc(N2CCc3ccccc3C2)[nH]1 (nonaromatic ring conformer: 74.54154189360749 kcal/mol)

>  <smiles>  (63) 
Oc1ccccc1-c1nc(NC2CCCNC2)nc(N2CCc3ccccc3C2)n1

>  <score_type>  (63) 
oracle

>  <origin>  (63) 
autodockgpu

>  <m_score__min__energy>  (63) 
-8.4900000000000002

>  <m_primary>  (63) 
energy

>  <meeko>  (63) 
{"free_energy": -8.42, "intermolecular_energy": -9.91, "internal_energy": -1.31, "cluster_size": 11, "cluster_id": 2, "rank_in_cluster": 5}

>  <energy>  (63) 
-8.45

>  <cluster_rmsd>  (63) 
0.16

>  <rmsd>  (63) 
271.29

>  <cluster>  (63) 
1

$$$$
UQJJBYVBPBMERE-JUZPGEPYNA-N
     RDKit          3D

 56 60  0  0  0  0  0  0  0  0999 V2000
  141.5800   71.0340  220.2390 H   0  0  0  0  0  0  0  0  0  0  0  0
  142.4770   70.8270  219.8150 O   0  0  0  0  0  0  0  0  0  0  0  0
  143.5950   71.6310  220.0360 C   0  0  0  0  0  0  0  0  0  0  0  0
  144.8520   71.2110  219.5760 C   0  0  0  0  0  0  0  0  0  0  0  0
  144.9544   70.2345  219.0800 H   0  0  0  0  0  0  0  0  0  0  0  0
  145.9740   72.0250  219.7440 C   0  0  0  0  0  0  0  0  0  0  0  0
  146.9572   71.6865  219.3852 H   0  0  0  0  0  0  0  0  0  0  0  0
  145.8490   73.2680  220.3670 C   0  0  0  0  0  0  0  0  0  0  0  0
  146.7316   73.9131  220.4886 H   0  0  0  0  0  0  0  0  0  0  0  0
  144.6040   73.6930  220.8360 C   0  0  0  0  0  0  0  0  0  0  0  0
  144.5112   74.6753  221.3224 H   0  0  0  0  0  0  0  0  0  0  0  0
  143.4670   72.8760  220.6920 C   0  0  0  0  0  0  0  0  0  0  0  0
  142.1610   73.3590  221.2010 C   0  0  0  0  0  0  0  0  0  0  0  0
  141.2840   72.4660  221.7310 N   0  0  0  0  0  0  0  0  0  0  0  0
  140.0700   72.8720  222.1850 C   0  0  0  0  0  0  0  0  0  0  0  0
  139.2220   72.0220  222.6800 N   0  0  0  0  0  0  0  0  0  0  0  0
  139.2840   71.4610  224.0330 C   0  0  1  0  0  0  0  0  0  0  0  0
  138.6271   72.0471  224.6925 H   0  0  0  0  0  0  0  0  0  0  0  0
  138.7940   69.9900  224.0110 C   0  0  0  0  0  0  0  0  0  0  0  0
  138.9165   69.5954  222.9915 H   0  0  0  0  0  0  0  0  0  0  0  0
  137.7409   69.9903  224.3287 H   0  0  0  0  0  0  0  0  0  0  0  0
  139.5350   69.1190  224.9440 N   0  0  0  0  0  0  0  0  0  0  0  0
  138.9450   68.2770  225.1410 H   0  0  0  0  0  0  0  0  0  0  0  0
  139.7990   69.7990  226.2170 C   0  0  0  0  0  0  0  0  0  0  0  0
  140.2262   69.0792  226.9307 H   0  0  0  0  0  0  0  0  0  0  0  0
  138.8539   70.2035  226.6085 H   0  0  0  0  0  0  0  0  0  0  0  0
  140.7910   70.9580  226.0100 C   0  0  0  0  0  0  0  0  0  0  0  0
  141.8112   70.5853  226.1843 H   0  0  0  0  0  0  0  0  0  0  0  0
  140.5270   71.7563  226.7193 H   0  0  0  0  0  0  0  0  0  0  0  0
  140.7160   71.5470  224.5920 C   0  0  0  0  0  0  0  0  0  0  0  0
  141.3937   70.9847  223.9328 H   0  0  0  0  0  0  0  0  0  0  0  0
  141.0115   72.6056  224.6365 H   0  0  0  0  0  0  0  0  0  0  0  0
  139.7370   74.1840  222.1190 N   0  0  0  0  0  0  0  0  0  0  0  0
  140.6020   75.0920  221.5920 C   0  0  0  0  0  0  0  0  0  0  0  0
  140.2180   76.4790  221.5160 N   0  0  0  0  0  0  0  0  0  0  0  0
  140.0130   77.2990  222.7140 C   0  0  0  0  0  0  0  0  0  0  0  0
  140.2587   76.7053  223.6068 H   0  0  0  0  0  0  0  0  0  0  0  0
  138.9615   77.6197  222.7531 H   0  0  0  0  0  0  0  0  0  0  0  0
  140.8970   78.5190  222.6690 C   0  0  0  0  0  0  0  0  0  0  0  0
  141.1080   79.2580  223.8440 C   0  0  0  0  0  0  0  0  0  0  0  0
  140.6690   78.9143  224.7923 H   0  0  0  0  0  0  0  0  0  0  0  0
  141.8720   80.4270  223.8160 C   0  0  0  0  0  0  0  0  0  0  0  0
  142.0373   80.9971  224.7421 H   0  0  0  0  0  0  0  0  0  0  0  0
  142.4260   80.8730  222.6150 C   0  0  0  0  0  0  0  0  0  0  0  0
  143.0292   81.7927  222.5969 H   0  0  0  0  0  0  0  0  0  0  0  0
  142.2160   80.1540  221.4360 C   0  0  0  0  0  0  0  0  0  0  0  0
  142.6624   80.5066  220.4945 H   0  0  0  0  0  0  0  0  0  0  0  0
  141.4390   78.9840  221.4440 C   0  0  0  0  0  0  0  0  0  0  0  0
  141.2930   78.1940  220.1610 C   0  0  0  0  0  0  0  0  0  0  0  0
  142.2356   77.6620  219.9651 H   0  0  0  0  0  0  0  0  0  0  0  0
  141.0550   78.9048  219.3559 H   0  0  0  0  0  0  0  0  0  0  0  0
  140.1570   77.1710  220.2290 C   0  0  0  0  0  0  0  0  0  0  0  0
  140.2672   76.4422  219.4125 H   0  0  0  0  0  0  0  0  0  0  0  0
  139.1886   77.6826  220.1269 H   0  0  0  0  0  0  0  0  0  0  0  0
  141.8040   74.6720  221.1080 N   0  0  0  0  0  0  0  0  0  0  0  0
  142.4280   75.3450  220.6120 H   0  0  0  0  0  0  0  0  0  0  0  0
  1  2  1  0
  2  3  1  0
  3  4  2  0
  4  5  1  0
  4  6  1  0
  6  7  1  0
  6  8  2  0
  8  9  1  0
  8 10  1  0
 10 11  1  0
 10 12  2  0
 12 13  1  0
 13 14  2  0
 14 15  1  0
 15 16  2  0
 16 17  1  0
 17 18  1  1
 17 19  1  0
 19 20  1  0
 19 21  1  0
 19 22  1  0
 22 23  1  0
 22 24  1  0
 24 25  1  0
 24 26  1  0
 24 27  1  0
 27 28  1  0
 27 29  1  0
 27 30  1  0
 30 31  1  0
 30 32  1  0
 15 33  1  0
 33 34  2  0
 34 35  1  0
 35 36  1  0
 36 37  1  0
 36 38  1  0
 36 39  1  0
 39 40  2  0
 40 41  1  0
 40 42  1  0
 42 43  1  0
 42 44  2  0
 44 45  1  0
 44 46  1  0
 46 47  1  0
 46 48  2  0
 48 49  1  0
 49 50  1  0
 49 51  1  0
 49 52  1  0
 52 53  1  0
 52 54  1  0
 34 55  1  0
 55 56  1  0
 12  3  1  0
 55 13  1  0
 30 17  1  0
 52 35  1  0
 48 39  1  0
M  END
>  <UniqueID>  (64) 
485

>  <SMILES>  (64) 
Oc1ccccc1-c1n/c(=N\[C@@H]2CCCNC2)nc(N2CCc3ccccc3C2)[nH]1

>  <Energy>  (64) 
74.54154189360749

>  <Genealogy>  (64) 
Oc1ccccc1-c1nc(=NC2CCCNC2)nc(N2CCc3ccccc3C2)[nH]1 (tautomer)
Oc1ccccc1-c1nc(=N[C@@H]2CCCNC2)nc(N2CCc3ccccc3C2)[nH]1 (chirality)
Oc1ccccc1-c1n/c(=N\[C@@H]2CCCNC2)nc(N2CCc3ccccc3C2)[nH]1 (cis-trans isomerization)
Oc1ccccc1-c1n/c(=N\[C@@H]2CCCNC2)nc(N2CCc3ccccc3C2)[nH]1 (3D coordinates assigned)
Oc1ccccc1-c1n/c(=N\[C@@H]2CCCNC2)nc(N2CCc3ccccc3C2)[nH]1 (nonaromatic ring conformer: 74.54154189360749 kcal/mol)

>  <smiles>  (64) 
Oc1ccccc1-c1nc(NC2CCCNC2)nc(N2CCc3ccccc3C2)n1

>  <score_type>  (64) 
oracle

>  <origin>  (64) 
autodockgpu

>  <m_score__min__energy>  (64) 
-8.4900000000000002

>  <m_primary>  (64) 
energy

>  <meeko>  (64) 
{"free_energy": -8.33, "intermolecular_energy": -9.82, "internal_energy": -1.39, "cluster_size": 11, "cluster_id": 2, "rank_in_cluster": 9}

>  <energy>  (64) 
-8.45

>  <cluster_rmsd>  (64) 
0.29

>  <rmsd>  (64) 
271.28

>  <cluster>  (64) 
1

$$$$
UQJJBYVBPBMERE-JUZPGEPYNA-N
     RDKit          3D

 56 60  0  0  0  0  0  0  0  0999 V2000
  143.7980   75.2350  221.1930 H   0  0  0  0  0  0  0  0  0  0  0  0
  144.4330   74.8650  220.4950 O   0  0  0  0  0  0  0  0  0  0  0  0
  144.4840   73.5020  220.2000 C   0  0  0  0  0  0  0  0  0  0  0  0
  145.6330   72.9680  219.5960 C   0  0  0  0  0  0  0  0  0  0  0  0
  146.4671   73.6315  219.3238 H   0  0  0  0  0  0  0  0  0  0  0  0
  145.7220   71.5980  219.3390 C   0  0  0  0  0  0  0  0  0  0  0  0
  146.6237   71.1862  218.8623 H   0  0  0  0  0  0  0  0  0  0  0  0
  144.6690   70.7510  219.6860 C   0  0  0  0  0  0  0  0  0  0  0  0
  144.7450   69.6711  219.4911 H   0  0  0  0  0  0  0  0  0  0  0  0
  143.5180   71.2740  220.2810 C   0  0  0  0  0  0  0  0  0  0  0  0
  142.6939   70.6002  220.5582 H   0  0  0  0  0  0  0  0  0  0  0  0
  143.4030   72.6540  220.5290 C   0  0  0  0  0  0  0  0  0  0  0  0
  142.1680   73.1750  221.1620 C   0  0  0  0  0  0  0  0  0  0  0  0
  141.3700   72.3230  221.8570 N   0  0  0  0  0  0  0  0  0  0  0  0
  140.2200   72.7640  222.4300 C   0  0  0  0  0  0  0  0  0  0  0  0
  139.4440   71.9520  223.0860 N   0  0  0  0  0  0  0  0  0  0  0  0
  139.9040   70.8980  223.9930 C   0  0  1  0  0  0  0  0  0  0  0  0
  140.5347   70.1935  223.4310 H   0  0  0  0  0  0  0  0  0  0  0  0
  140.7430   71.5240  225.1370 C   0  0  0  0  0  0  0  0  0  0  0  0
  140.4566   72.5807  225.2433 H   0  0  0  0  0  0  0  0  0  0  0  0
  141.8031   71.4097  224.8666 H   0  0  0  0  0  0  0  0  0  0  0  0
  140.5450   70.8510  226.4350 N   0  0  0  0  0  0  0  0  0  0  0  0
  141.3680   71.0690  227.0440 H   0  0  0  0  0  0  0  0  0  0  0  0
  140.4660   69.3950  226.2780 C   0  0  0  0  0  0  0  0  0  0  0  0
  140.4572   68.9232  227.2716 H   0  0  0  0  0  0  0  0  0  0  0  0
  141.3384   69.0500  225.7037 H   0  0  0  0  0  0  0  0  0  0  0  0
  139.1830   69.0060  225.5200 C   0  0  0  0  0  0  0  0  0  0  0  0
  138.3867   68.8067  226.2522 H   0  0  0  0  0  0  0  0  0  0  0  0
  139.4074   68.1144  224.9160 H   0  0  0  0  0  0  0  0  0  0  0  0
  138.7090   70.1130  224.5640 C   0  0  0  0  0  0  0  0  0  0  0  0
  138.0529   70.8051  225.1122 H   0  0  0  0  0  0  0  0  0  0  0  0
  138.1654   69.6462  223.7294 H   0  0  0  0  0  0  0  0  0  0  0  0
  139.8730   74.0690  222.3150 N   0  0  0  0  0  0  0  0  0  0  0  0
  140.6600   74.9350  221.6220 C   0  0  0  0  0  0  0  0  0  0  0  0
  140.2610   76.3140  221.4990 N   0  0  0  0  0  0  0  0  0  0  0  0
  139.9610   77.1480  222.6670 C   0  0  0  0  0  0  0  0  0  0  0  0
  140.1528   76.5712  223.5838 H   0  0  0  0  0  0  0  0  0  0  0  0
  138.9047   77.4525  222.6277 H   0  0  0  0  0  0  0  0  0  0  0  0
  140.8280   78.3820  222.6650 C   0  0  0  0  0  0  0  0  0  0  0  0
  140.9450   79.1410  223.8400 C   0  0  0  0  0  0  0  0  0  0  0  0
  140.4455   78.8045  224.7605 H   0  0  0  0  0  0  0  0  0  0  0  0
  141.6920   80.3210  223.8470 C   0  0  0  0  0  0  0  0  0  0  0  0
  141.7841   80.9066  224.7736 H   0  0  0  0  0  0  0  0  0  0  0  0
  142.3220   80.7590  222.6810 C   0  0  0  0  0  0  0  0  0  0  0  0
  142.9113   81.6878  222.6908 H   0  0  0  0  0  0  0  0  0  0  0  0
  142.2050   80.0190  221.5010 C   0  0  0  0  0  0  0  0  0  0  0  0
  142.7105   80.3646  220.5872 H   0  0  0  0  0  0  0  0  0  0  0  0
  141.4470   78.8380  221.4740 C   0  0  0  0  0  0  0  0  0  0  0  0
  141.4020   78.0270  220.1960 C   0  0  0  0  0  0  0  0  0  0  0  0
  142.3639   77.5074  220.0741 H   0  0  0  0  0  0  0  0  0  0  0  0
  141.2093   78.7226  219.3659 H   0  0  0  0  0  0  0  0  0  0  0  0
  140.2800   76.9870  220.2000 C   0  0  0  0  0  0  0  0  0  0  0  0
  140.4583   76.2486  219.4044 H   0  0  0  0  0  0  0  0  0  0  0  0
  139.3135   77.4814  220.0227 H   0  0  0  0  0  0  0  0  0  0  0  0
  141.7950   74.4790  221.0230 N   0  0  0  0  0  0  0  0  0  0  0  0
  142.3490   75.1140  220.4070 H   0  0  0  0  0  0  0  0  0  0  0  0
  1  2  1  0
  2  3  1  0
  3  4  2  0
  4  5  1  0
  4  6  1  0
  6  7  1  0
  6  8  2  0
  8  9  1  0
  8 10  1  0
 10 11  1  0
 10 12  2  0
 12 13  1  0
 13 14  2  0
 14 15  1  0
 15 16  2  0
 16 17  1  0
 17 18  1  6
 17 19  1  0
 19 20  1  0
 19 21  1  0
 19 22  1  0
 22 23  1  0
 22 24  1  0
 24 25  1  0
 24 26  1  0
 24 27  1  0
 27 28  1  0
 27 29  1  0
 27 30  1  0
 30 31  1  0
 30 32  1  0
 15 33  1  0
 33 34  2  0
 34 35  1  0
 35 36  1  0
 36 37  1  0
 36 38  1  0
 36 39  1  0
 39 40  2  0
 40 41  1  0
 40 42  1  0
 42 43  1  0
 42 44  2  0
 44 45  1  0
 44 46  1  0
 46 47  1  0
 46 48  2  0
 48 49  1  0
 49 50  1  0
 49 51  1  0
 49 52  1  0
 52 53  1  0
 52 54  1  0
 34 55  1  0
 55 56  1  0
 12  3  1  0
 55 13  1  0
 30 17  1  0
 52 35  1  0
 48 39  1  0
M  END
>  <UniqueID>  (65) 
485

>  <SMILES>  (65) 
Oc1ccccc1-c1n/c(=N\[C@@H]2CCCNC2)nc(N2CCc3ccccc3C2)[nH]1

>  <Energy>  (65) 
74.54154189360749

>  <Genealogy>  (65) 
Oc1ccccc1-c1nc(=NC2CCCNC2)nc(N2CCc3ccccc3C2)[nH]1 (tautomer)
Oc1ccccc1-c1nc(=N[C@@H]2CCCNC2)nc(N2CCc3ccccc3C2)[nH]1 (chirality)
Oc1ccccc1-c1n/c(=N\[C@@H]2CCCNC2)nc(N2CCc3ccccc3C2)[nH]1 (cis-trans isomerization)
Oc1ccccc1-c1n/c(=N\[C@@H]2CCCNC2)nc(N2CCc3ccccc3C2)[nH]1 (3D coordinates assigned)
Oc1ccccc1-c1n/c(=N\[C@@H]2CCCNC2)nc(N2CCc3ccccc3C2)[nH]1 (nonaromatic ring conformer: 74.54154189360749 kcal/mol)

>  <smiles>  (65) 
Oc1ccccc1-c1nc(NC2CCCNC2)nc(N2CCc3ccccc3C2)n1

>  <score_type>  (65) 
oracle

>  <origin>  (65) 
autodockgpu

>  <m_score__min__energy>  (65) 
-8.4900000000000002

>  <m_primary>  (65) 
energy

>  <meeko>  (65) 
{"free_energy": -8.42, "intermolecular_energy": -9.91, "internal_energy": -1.3, "cluster_size": 11, "cluster_id": 2, "rank_in_cluster": 4}

>  <energy>  (65) 
-8.43

>  <cluster_rmsd>  (65) 
0.0

>  <rmsd>  (65) 
272.03

>  <cluster>  (65) 
2

$$$$
UQJJBYVBPBMERE-JUZPGEPYNA-N
     RDKit          3D

 56 60  0  0  0  0  0  0  0  0999 V2000
  137.2530   73.5100  223.1170 H   0  0  0  0  0  0  0  0  0  0  0  0
  137.3290   72.5790  222.7240 O   0  0  0  0  0  0  0  0  0  0  0  0
  137.9750   71.5470  223.4040 C   0  0  0  0  0  0  0  0  0  0  0  0
  137.2250   70.6610  224.1920 C   0  0  0  0  0  0  0  0  0  0  0  0
  136.1403   70.8092  224.2994 H   0  0  0  0  0  0  0  0  0  0  0  0
  137.8470   69.5920  224.8410 C   0  0  0  0  0  0  0  0  0  0  0  0
  137.2527   68.9035  225.4596 H   0  0  0  0  0  0  0  0  0  0  0  0
  139.2220   69.3970  224.7050 C   0  0  0  0  0  0  0  0  0  0  0  0
  139.7094   68.5496  225.2093 H   0  0  0  0  0  0  0  0  0  0  0  0
  139.9800   70.2770  223.9290 C   0  0  0  0  0  0  0  0  0  0  0  0
  141.0624   70.1138  223.8204 H   0  0  0  0  0  0  0  0  0  0  0  0
  139.3720   71.3700  223.2850 C   0  0  0  0  0  0  0  0  0  0  0  0
  140.2070   72.2840  222.4690 C   0  0  0  0  0  0  0  0  0  0  0  0
  141.3770   71.8280  221.9490 N   0  0  0  0  0  0  0  0  0  0  0  0
  142.1750   72.6470  221.2160 C   0  0  0  0  0  0  0  0  0  0  0  0
  143.3010   72.2210  220.7270 N   0  0  0  0  0  0  0  0  0  0  0  0
  143.9430   72.7390  219.5150 C   0  0  1  0  0  0  0  0  0  0  0  0
  143.2428   73.4131  219.0000 H   0  0  0  0  0  0  0  0  0  0  0  0
  145.2180   73.5340  219.9000 C   0  0  0  0  0  0  0  0  0  0  0  0
  145.5654   73.1843  220.8834 H   0  0  0  0  0  0  0  0  0  0  0  0
  144.9485   74.6004  219.9147 H   0  0  0  0  0  0  0  0  0  0  0  0
  146.3160   73.3700  218.9280 N   0  0  0  0  0  0  0  0  0  0  0  0
  146.9750   74.1750  219.0420 H   0  0  0  0  0  0  0  0  0  0  0  0
  145.8180   73.3800  217.5490 C   0  0  0  0  0  0  0  0  0  0  0  0
  146.6717   73.3951  216.8554 H   0  0  0  0  0  0  0  0  0  0  0  0
  145.1950   74.2744  217.4010 H   0  0  0  0  0  0  0  0  0  0  0  0
  144.9650   72.1260  217.2770 C   0  0  0  0  0  0  0  0  0  0  0  0
  145.6139   71.3397  216.8637 H   0  0  0  0  0  0  0  0  0  0  0  0
  144.1717   72.4062  216.5684 H   0  0  0  0  0  0  0  0  0  0  0  0
  144.2900   71.5910  218.5510 C   0  0  0  0  0  0  0  0  0  0  0  0
  144.9747   70.8928  219.0548 H   0  0  0  0  0  0  0  0  0  0  0  0
  143.3589   71.0794  218.2658 H   0  0  0  0  0  0  0  0  0  0  0  0
  141.7930   73.9270  220.9930 N   0  0  0  0  0  0  0  0  0  0  0  0
  140.6260   74.4020  221.5050 C   0  0  0  0  0  0  0  0  0  0  0  0
  140.2500   75.7720  221.2690 N   0  0  0  0  0  0  0  0  0  0  0  0
  139.8170   76.6610  222.3520 C   0  0  0  0  0  0  0  0  0  0  0  0
  139.8962   76.1290  223.3115 H   0  0  0  0  0  0  0  0  0  0  0  0
  138.7743   76.9617  222.1722 H   0  0  0  0  0  0  0  0  0  0  0  0
  140.6820   77.8950  222.3950 C   0  0  0  0  0  0  0  0  0  0  0  0
  140.6610   78.7100  223.5370 C   0  0  0  0  0  0  0  0  0  0  0  0
  140.0537   78.4173  224.4062 H   0  0  0  0  0  0  0  0  0  0  0  0
  141.4060   79.8900  223.5770 C   0  0  0  0  0  0  0  0  0  0  0  0
  141.3896   80.5193  224.4791 H   0  0  0  0  0  0  0  0  0  0  0  0
  142.1720   80.2730  222.4740 C   0  0  0  0  0  0  0  0  0  0  0  0
  142.7594   81.2023  222.5090 H   0  0  0  0  0  0  0  0  0  0  0  0
  142.1930   79.4770  221.3260 C   0  0  0  0  0  0  0  0  0  0  0  0
  142.8044   79.7797  220.4632 H   0  0  0  0  0  0  0  0  0  0  0  0
  141.4400   78.2940  221.2650 C   0  0  0  0  0  0  0  0  0  0  0  0
  141.5450   77.4230  220.0310 C   0  0  0  0  0  0  0  0  0  0  0  0
  142.5126   76.9002  220.0495 H   0  0  0  0  0  0  0  0  0  0  0  0
  141.4558   78.0773  219.1513 H   0  0  0  0  0  0  0  0  0  0  0  0
  140.4260   76.3820  219.9520 C   0  0  0  0  0  0  0  0  0  0  0  0
  140.6945   75.6067  219.2193 H   0  0  0  0  0  0  0  0  0  0  0  0
  139.4894   76.8661  219.6383 H   0  0  0  0  0  0  0  0  0  0  0  0
  139.8470   73.5840  222.2670 N   0  0  0  0  0  0  0  0  0  0  0  0
  139.0030   73.9690  222.7460 H   0  0  0  0  0  0  0  0  0  0  0  0
  1  2  1  0
  2  3  1  0
  3  4  2  0
  4  5  1  0
  4  6  1  0
  6  7  1  0
  6  8  2  0
  8  9  1  0
  8 10  1  0
 10 11  1  0
 10 12  2  0
 12 13  1  0
 13 14  2  0
 14 15  1  0
 15 16  2  0
 16 17  1  0
 17 18  1  6
 17 19  1  0
 19 20  1  0
 19 21  1  0
 19 22  1  0
 22 23  1  0
 22 24  1  0
 24 25  1  0
 24 26  1  0
 24 27  1  0
 27 28  1  0
 27 29  1  0
 27 30  1  0
 30 31  1  0
 30 32  1  0
 15 33  1  0
 33 34  2  0
 34 35  1  0
 35 36  1  0
 36 37  1  0
 36 38  1  0
 36 39  1  0
 39 40  2  0
 40 41  1  0
 40 42  1  0
 42 43  1  0
 42 44  2  0
 44 45  1  0
 44 46  1  0
 46 47  1  0
 46 48  2  0
 48 49  1  0
 49 50  1  0
 49 51  1  0
 49 52  1  0
 52 53  1  0
 52 54  1  0
 34 55  1  0
 55 56  1  0
 12  3  1  0
 55 13  1  0
 30 17  1  0
 52 35  1  0
 48 39  1  0
M  END
>  <UniqueID>  (66) 
485

>  <SMILES>  (66) 
Oc1ccccc1-c1n/c(=N\[C@@H]2CCCNC2)nc(N2CCc3ccccc3C2)[nH]1

>  <Energy>  (66) 
74.54154189360749

>  <Genealogy>  (66) 
Oc1ccccc1-c1nc(=NC2CCCNC2)nc(N2CCc3ccccc3C2)[nH]1 (tautomer)
Oc1ccccc1-c1nc(=N[C@@H]2CCCNC2)nc(N2CCc3ccccc3C2)[nH]1 (chirality)
Oc1ccccc1-c1n/c(=N\[C@@H]2CCCNC2)nc(N2CCc3ccccc3C2)[nH]1 (cis-trans isomerization)
Oc1ccccc1-c1n/c(=N\[C@@H]2CCCNC2)nc(N2CCc3ccccc3C2)[nH]1 (3D coordinates assigned)
Oc1ccccc1-c1n/c(=N\[C@@H]2CCCNC2)nc(N2CCc3ccccc3C2)[nH]1 (nonaromatic ring conformer: 74.54154189360749 kcal/mol)

>  <smiles>  (66) 
Oc1ccccc1-c1nc(NC2CCCNC2)nc(N2CCc3ccccc3C2)n1

>  <score_type>  (66) 
oracle

>  <origin>  (66) 
autodockgpu

>  <m_score__min__energy>  (66) 
-8.4900000000000002

>  <m_primary>  (66) 
energy

>  <meeko>  (66) 
{"free_energy": -8.32, "intermolecular_energy": -9.81, "internal_energy": -1.26, "cluster_size": 2, "cluster_id": 3, "rank_in_cluster": 1}

>  <energy>  (66) 
-8.43

>  <cluster_rmsd>  (66) 
0.03

>  <rmsd>  (66) 
272.02

>  <cluster>  (66) 
2

$$$$
UQJJBYVBPBMERE-JUZPGEPYNA-N
     RDKit          3D

 56 60  0  0  0  0  0  0  0  0999 V2000
  139.5100   74.4080  223.1570 H   0  0  0  0  0  0  0  0  0  0  0  0
  139.7520   74.7980  222.2530 O   0  0  0  0  0  0  0  0  0  0  0  0
  138.7750   75.1640  221.3280 C   0  0  0  0  0  0  0  0  0  0  0  0
  139.0270   76.2170  220.4340 C   0  0  0  0  0  0  0  0  0  0  0  0
  139.9753   76.7710  220.4951 H   0  0  0  0  0  0  0  0  0  0  0  0
  138.0810   76.5650  219.4680 C   0  0  0  0  0  0  0  0  0  0  0  0
  138.2845   77.3930  218.7731 H   0  0  0  0  0  0  0  0  0  0  0  0
  136.8780   75.8640  219.3830 C   0  0  0  0  0  0  0  0  0  0  0  0
  136.1382   76.1332  218.6148 H   0  0  0  0  0  0  0  0  0  0  0  0
  136.6120   74.8200  220.2730 C   0  0  0  0  0  0  0  0  0  0  0  0
  135.6633   74.2683  220.1978 H   0  0  0  0  0  0  0  0  0  0  0  0
  137.5460   74.4680  221.2640 C   0  0  0  0  0  0  0  0  0  0  0  0
  137.2330   73.3550  222.1910 C   0  0  0  0  0  0  0  0  0  0  0  0
  135.9530   73.1870  222.6170 N   0  0  0  0  0  0  0  0  0  0  0  0
  135.6370   72.1900  223.4840 C   0  0  0  0  0  0  0  0  0  0  0  0
  134.4180   72.0330  223.9070 N   0  0  0  0  0  0  0  0  0  0  0  0
  133.6810   72.9960  224.7300 C   0  0  1  0  0  0  0  0  0  0  0  0
  132.7476   73.2669  224.2147 H   0  0  0  0  0  0  0  0  0  0  0  0
  133.3350   72.3530  226.0980 C   0  0  0  0  0  0  0  0  0  0  0  0
  134.0472   71.5374  226.2917 H   0  0  0  0  0  0  0  0  0  0  0  0
  132.2989   71.9888  226.0368 H   0  0  0  0  0  0  0  0  0  0  0  0
  133.4000   73.3100  227.2200 N   0  0  0  0  0  0  0  0  0  0  0  0
  132.8280   72.9270  228.0090 H   0  0  0  0  0  0  0  0  0  0  0  0
  132.8440   74.6150  226.8440 C   0  0  0  0  0  0  0  0  0  0  0  0
  132.7830   75.2539  227.7374 H   0  0  0  0  0  0  0  0  0  0  0  0
  131.8415   74.4657  226.4166 H   0  0  0  0  0  0  0  0  0  0  0  0
  133.7380   75.2970  225.7930 C   0  0  0  0  0  0  0  0  0  0  0  0
  134.4655   75.9392  226.3110 H   0  0  0  0  0  0  0  0  0  0  0  0
  133.0868   75.8822  225.1271 H   0  0  0  0  0  0  0  0  0  0  0  0
  134.5030   74.2820  224.9280 C   0  0  0  0  0  0  0  0  0  0  0  0
  135.4519   74.0296  225.4239 H   0  0  0  0  0  0  0  0  0  0  0  0
  134.6913   74.7329  223.9425 H   0  0  0  0  0  0  0  0  0  0  0  0
  136.6060   71.3490  223.9170 N   0  0  0  0  0  0  0  0  0  0  0  0
  137.8920   71.5010  223.5020 C   0  0  0  0  0  0  0  0  0  0  0  0
  138.9080   70.6050  223.9900 N   0  0  0  0  0  0  0  0  0  0  0  0
  140.0620   71.0780  224.7610 C   0  0  0  0  0  0  0  0  0  0  0  0
  139.9644   72.1601  224.9330 H   0  0  0  0  0  0  0  0  0  0  0  0
  140.9810   70.8673  224.1943 H   0  0  0  0  0  0  0  0  0  0  0  0
  140.1320   70.3680  226.0890 C   0  0  0  0  0  0  0  0  0  0  0  0
  140.9450   70.8910  227.1070 C   0  0  0  0  0  0  0  0  0  0  0  0
  141.4836   71.8364  226.9452 H   0  0  0  0  0  0  0  0  0  0  0  0
  141.0740   70.2180  228.3240 C   0  0  0  0  0  0  0  0  0  0  0  0
  141.7082   70.6378  229.1187 H   0  0  0  0  0  0  0  0  0  0  0  0
  140.4000   69.0140  228.5340 C   0  0  0  0  0  0  0  0  0  0  0  0
  140.5016   68.4878  229.4946 H   0  0  0  0  0  0  0  0  0  0  0  0
  139.5960   68.4760  227.5250 C   0  0  0  0  0  0  0  0  0  0  0  0
  139.0610   67.5308  227.6993 H   0  0  0  0  0  0  0  0  0  0  0  0
  139.4660   69.1320  226.2920 C   0  0  0  0  0  0  0  0  0  0  0  0
  138.5300   68.5550  225.2510 C   0  0  0  0  0  0  0  0  0  0  0  0
  137.4933   68.7569  225.5583 H   0  0  0  0  0  0  0  0  0  0  0  0
  138.7292   67.4752  225.1843 H   0  0  0  0  0  0  0  0  0  0  0  0
  138.7560   69.1560  223.8620 C   0  0  0  0  0  0  0  0  0  0  0  0
  137.8932   68.9310  223.2178 H   0  0  0  0  0  0  0  0  0  0  0  0
  139.6631   68.7250  223.4133 H   0  0  0  0  0  0  0  0  0  0  0  0
  138.2080   72.5240  222.6580 N   0  0  0  0  0  0  0  0  0  0  0  0
  139.2060   72.7070  222.4150 H   0  0  0  0  0  0  0  0  0  0  0  0
  1  2  1  0
  2  3  1  0
  3  4  2  0
  4  5  1  0
  4  6  1  0
  6  7  1  0
  6  8  2  0
  8  9  1  0
  8 10  1  0
 10 11  1  0
 10 12  2  0
 12 13  1  0
 13 14  2  0
 14 15  1  0
 15 16  2  0
 16 17  1  0
 17 18  1  6
 17 19  1  0
 19 20  1  0
 19 21  1  0
 19 22  1  0
 22 23  1  0
 22 24  1  0
 24 25  1  0
 24 26  1  0
 24 27  1  0
 27 28  1  0
 27 29  1  0
 27 30  1  0
 30 31  1  0
 30 32  1  0
 15 33  1  0
 33 34  2  0
 34 35  1  0
 35 36  1  0
 36 37  1  0
 36 38  1  0
 36 39  1  0
 39 40  2  0
 40 41  1  0
 40 42  1  0
 42 43  1  0
 42 44  2  0
 44 45  1  0
 44 46  1  0
 46 47  1  0
 46 48  2  0
 48 49  1  0
 49 50  1  0
 49 51  1  0
 49 52  1  0
 52 53  1  0
 52 54  1  0
 34 55  1  0
 55 56  1  0
 12  3  1  0
 55 13  1  0
 30 17  1  0
 52 35  1  0
 48 39  1  0
M  END
>  <UniqueID>  (67) 
485

>  <SMILES>  (67) 
Oc1ccccc1-c1n/c(=N\[C@@H]2CCCNC2)nc(N2CCc3ccccc3C2)[nH]1

>  <Energy>  (67) 
74.54154189360749

>  <Genealogy>  (67) 
Oc1ccccc1-c1nc(=NC2CCCNC2)nc(N2CCc3ccccc3C2)[nH]1 (tautomer)
Oc1ccccc1-c1nc(=N[C@@H]2CCCNC2)nc(N2CCc3ccccc3C2)[nH]1 (chirality)
Oc1ccccc1-c1n/c(=N\[C@@H]2CCCNC2)nc(N2CCc3ccccc3C2)[nH]1 (cis-trans isomerization)
Oc1ccccc1-c1n/c(=N\[C@@H]2CCCNC2)nc(N2CCc3ccccc3C2)[nH]1 (3D coordinates assigned)
Oc1ccccc1-c1n/c(=N\[C@@H]2CCCNC2)nc(N2CCc3ccccc3C2)[nH]1 (nonaromatic ring conformer: 74.54154189360749 kcal/mol)

>  <smiles>  (67) 
Oc1ccccc1-c1nc(NC2CCCNC2)nc(N2CCc3ccccc3C2)n1

>  <score_type>  (67) 
oracle

>  <origin>  (67) 
autodockgpu

>  <m_score__min__energy>  (67) 
-8.4900000000000002

>  <m_primary>  (67) 
energy

>  <meeko>  (67) 
{"free_energy": -7.87, "intermolecular_energy": -9.36, "internal_energy": -1.37, "cluster_size": 1, "cluster_id": 5, "rank_in_cluster": 1}

>  <energy>  (67) 
-8.42

>  <cluster_rmsd>  (67) 
0.05

>  <rmsd>  (67) 
272.01

>  <cluster>  (67) 
2

$$$$
UQJJBYVBPBMERE-JUZPGEPYNA-N
     RDKit          3D

 56 60  0  0  0  0  0  0  0  0999 V2000
  139.0260   74.4940  223.0210 H   0  0  0  0  0  0  0  0  0  0  0  0
  139.5980   74.7500  222.2240 O   0  0  0  0  0  0  0  0  0  0  0  0
  140.5720   73.8910  221.7150 C   0  0  0  0  0  0  0  0  0  0  0  0
  141.6450   74.4190  220.9810 C   0  0  0  0  0  0  0  0  0  0  0  0
  141.6895   75.4992  220.7780 H   0  0  0  0  0  0  0  0  0  0  0  0
  142.6560   73.5820  220.5070 C   0  0  0  0  0  0  0  0  0  0  0  0
  143.4919   74.0032  219.9293 H   0  0  0  0  0  0  0  0  0  0  0  0
  142.6080   72.2110  220.7650 C   0  0  0  0  0  0  0  0  0  0  0  0
  143.4109   71.5541  220.3992 H   0  0  0  0  0  0  0  0  0  0  0  0
  141.5400   71.6730  221.4880 C   0  0  0  0  0  0  0  0  0  0  0  0
  141.5098   70.5926  221.6924 H   0  0  0  0  0  0  0  0  0  0  0  0
  140.5030   72.5000  221.9570 C   0  0  0  0  0  0  0  0  0  0  0  0
  139.3860   71.8960  222.7210 C   0  0  0  0  0  0  0  0  0  0  0  0
  139.5930   70.7320  223.3910 N   0  0  0  0  0  0  0  0  0  0  0  0
  138.5850   70.1420  224.0830 C   0  0  0  0  0  0  0  0  0  0  0  0
  138.7720   69.0210  224.7140 N   0  0  0  0  0  0  0  0  0  0  0  0
  139.2250   68.9030  226.1030 C   0  0  1  0  0  0  0  0  0  0  0  0
  138.3514   68.9571  226.7692 H   0  0  0  0  0  0  0  0  0  0  0  0
  139.9310   67.5380  226.3070 C   0  0  0  0  0  0  0  0  0  0  0  0
  140.2919   67.1814  225.3310 H   0  0  0  0  0  0  0  0  0  0  0  0
  139.1948   66.8514  226.7503 H   0  0  0  0  0  0  0  0  0  0  0  0
  141.0770   67.6110  227.2330 N   0  0  0  0  0  0  0  0  0  0  0  0
  141.2660   66.6470  227.5950 H   0  0  0  0  0  0  0  0  0  0  0  0
  140.7860   68.4800  228.3790 C   0  0  0  0  0  0  0  0  0  0  0  0
  141.6038   68.4013  229.1104 H   0  0  0  0  0  0  0  0  0  0  0  0
  139.8377   68.1615  228.8365 H   0  0  0  0  0  0  0  0  0  0  0  0
  140.6530   69.9450  227.9220 C   0  0  0  0  0  0  0  0  0  0  0  0
  141.6348   70.4332  228.0097 H   0  0  0  0  0  0  0  0  0  0  0  0
  139.9034   70.4306  228.5642 H   0  0  0  0  0  0  0  0  0  0  0  0
  140.1710   70.0620  226.4660 C   0  0  0  0  0  0  0  0  0  0  0  0
  141.0427   70.0382  225.7955 H   0  0  0  0  0  0  0  0  0  0  0  0
  139.6237   71.0095  226.3532 H   0  0  0  0  0  0  0  0  0  0  0  0
  137.3630   70.7270  224.1130 N   0  0  0  0  0  0  0  0  0  0  0  0
  137.1370   71.8920  223.4490 C   0  0  0  0  0  0  0  0  0  0  0  0
  135.8250   72.4870  223.4820 N   0  0  0  0  0  0  0  0  0  0  0  0
  134.7310   71.9200  224.2770 C   0  0  0  0  0  0  0  0  0  0  0  0
  135.1065   71.0586  224.8488 H   0  0  0  0  0  0  0  0  0  0  0  0
  133.9250   71.6002  223.6002 H   0  0  0  0  0  0  0  0  0  0  0  0
  134.1890   72.9530  225.2320 C   0  0  0  0  0  0  0  0  0  0  0  0
  133.3780   72.5410  226.3010 C   0  0  0  0  0  0  0  0  0  0  0  0
  133.1860   71.4697  226.4604 H   0  0  0  0  0  0  0  0  0  0  0  0
  132.8130   73.4840  227.1640 C   0  0  0  0  0  0  0  0  0  0  0  0
  132.1836   73.1527  228.0031 H   0  0  0  0  0  0  0  0  0  0  0  0
  133.0460   74.8450  226.9630 C   0  0  0  0  0  0  0  0  0  0  0  0
  132.6018   75.5847  227.6453 H   0  0  0  0  0  0  0  0  0  0  0  0
  133.8430   75.2700  225.8960 C   0  0  0  0  0  0  0  0  0  0  0  0
  134.0303   76.3438  225.7481 H   0  0  0  0  0  0  0  0  0  0  0  0
  134.4060   74.3360  225.0120 C   0  0  0  0  0  0  0  0  0  0  0  0
  135.3210   74.8310  223.9120 C   0  0  0  0  0  0  0  0  0  0  0  0
  136.2868   75.1130  224.3566 H   0  0  0  0  0  0  0  0  0  0  0  0
  134.8312   75.6905  223.4310 H   0  0  0  0  0  0  0  0  0  0  0  0
  135.5670   73.7720  222.8340 C   0  0  0  0  0  0  0  0  0  0  0  0
  136.4370   74.0598  222.2255 H   0  0  0  0  0  0  0  0  0  0  0  0
  134.6837   73.6905  222.1835 H   0  0  0  0  0  0  0  0  0  0  0  0
  138.1450   72.4620  222.7300 N   0  0  0  0  0  0  0  0  0  0  0  0
  137.9520   73.2990  222.1380 H   0  0  0  0  0  0  0  0  0  0  0  0
  1  2  1  0
  2  3  1  0
  3  4  2  0
  4  5  1  0
  4  6  1  0
  6  7  1  0
  6  8  2  0
  8  9  1  0
  8 10  1  0
 10 11  1  0
 10 12  2  0
 12 13  1  0
 13 14  2  0
 14 15  1  0
 15 16  2  0
 16 17  1  0
 17 18  1  1
 17 19  1  0
 19 20  1  0
 19 21  1  0
 19 22  1  0
 22 23  1  0
 22 24  1  0
 24 25  1  0
 24 26  1  0
 24 27  1  0
 27 28  1  0
 27 29  1  0
 27 30  1  0
 30 31  1  0
 30 32  1  0
 15 33  1  0
 33 34  2  0
 34 35  1  0
 35 36  1  0
 36 37  1  0
 36 38  1  0
 36 39  1  0
 39 40  2  0
 40 41  1  0
 40 42  1  0
 42 43  1  0
 42 44  2  0
 44 45  1  0
 44 46  1  0
 46 47  1  0
 46 48  2  0
 48 49  1  0
 49 50  1  0
 49 51  1  0
 49 52  1  0
 52 53  1  0
 52 54  1  0
 34 55  1  0
 55 56  1  0
 12  3  1  0
 55 13  1  0
 30 17  1  0
 52 35  1  0
 48 39  1  0
M  END
>  <UniqueID>  (68) 
485

>  <SMILES>  (68) 
Oc1ccccc1-c1n/c(=N\[C@@H]2CCCNC2)nc(N2CCc3ccccc3C2)[nH]1

>  <Energy>  (68) 
74.54154189360749

>  <Genealogy>  (68) 
Oc1ccccc1-c1nc(=NC2CCCNC2)nc(N2CCc3ccccc3C2)[nH]1 (tautomer)
Oc1ccccc1-c1nc(=N[C@@H]2CCCNC2)nc(N2CCc3ccccc3C2)[nH]1 (chirality)
Oc1ccccc1-c1n/c(=N\[C@@H]2CCCNC2)nc(N2CCc3ccccc3C2)[nH]1 (cis-trans isomerization)
Oc1ccccc1-c1n/c(=N\[C@@H]2CCCNC2)nc(N2CCc3ccccc3C2)[nH]1 (3D coordinates assigned)
Oc1ccccc1-c1n/c(=N\[C@@H]2CCCNC2)nc(N2CCc3ccccc3C2)[nH]1 (nonaromatic ring conformer: 74.54154189360749 kcal/mol)

>  <smiles>  (68) 
Oc1ccccc1-c1nc(NC2CCCNC2)nc(N2CCc3ccccc3C2)n1

>  <score_type>  (68) 
oracle

>  <origin>  (68) 
autodockgpu

>  <m_score__min__energy>  (68) 
-8.4900000000000002

>  <m_primary>  (68) 
energy

>  <meeko>  (68) 
{"free_energy": -8.45, "intermolecular_energy": -9.94, "internal_energy": -1.35, "cluster_size": 4, "cluster_id": 1, "rank_in_cluster": 4}

>  <energy>  (68) 
-8.42

>  <cluster_rmsd>  (68) 
0.05

>  <rmsd>  (68) 
272.01

>  <cluster>  (68) 
2

$$$$
UQJJBYVBPBMERE-JUZPGEPYNA-N
     RDKit          3D

 56 60  0  0  0  0  0  0  0  0999 V2000
  143.7830   75.2540  221.1990 H   0  0  0  0  0  0  0  0  0  0  0  0
  144.4000   74.8860  220.4850 O   0  0  0  0  0  0  0  0  0  0  0  0
  144.4560   73.5220  220.1970 C   0  0  0  0  0  0  0  0  0  0  0  0
  145.6030   72.9900  219.5870 C   0  0  0  0  0  0  0  0  0  0  0  0
  146.4317   73.6560  219.3046 H   0  0  0  0  0  0  0  0  0  0  0  0
  145.6970   71.6190  219.3370 C   0  0  0  0  0  0  0  0  0  0  0  0
  146.5974   71.2090  218.8562 H   0  0  0  0  0  0  0  0  0  0  0  0
  144.6510   70.7690  219.6960 C   0  0  0  0  0  0  0  0  0  0  0  0
  144.7314   69.6884  219.5067 H   0  0  0  0  0  0  0  0  0  0  0  0
  143.5010   71.2890  220.2960 C   0  0  0  0  0  0  0  0  0  0  0  0
  142.6820   70.6125  220.5818 H   0  0  0  0  0  0  0  0  0  0  0  0
  143.3810   72.6700  220.5380 C   0  0  0  0  0  0  0  0  0  0  0  0
  142.1480   73.1880  221.1770 C   0  0  0  0  0  0  0  0  0  0  0  0
  141.3540   72.3340  221.8750 N   0  0  0  0  0  0  0  0  0  0  0  0
  140.2060   72.7730  222.4530 C   0  0  0  0  0  0  0  0  0  0  0  0
  139.4350   71.9590  223.1110 N   0  0  0  0  0  0  0  0  0  0  0  0
  139.9010   70.8930  224.0030 C   0  0  1  0  0  0  0  0  0  0  0  0
  140.5572   70.2147  223.4378 H   0  0  0  0  0  0  0  0  0  0  0  0
  140.7050   71.5100  225.1760 C   0  0  0  0  0  0  0  0  0  0  0  0
  140.3936   72.5575  225.3012 H   0  0  0  0  0  0  0  0  0  0  0  0
  141.7721   71.4253  224.9229 H   0  0  0  0  0  0  0  0  0  0  0  0
  140.4980   70.8020  226.4550 N   0  0  0  0  0  0  0  0  0  0  0  0
  141.3040   71.0230  227.0840 H   0  0  0  0  0  0  0  0  0  0  0  0
  140.4540   69.3490  226.2620 C   0  0  0  0  0  0  0  0  0  0  0  0
  140.4376   68.8533  227.2439 H   0  0  0  0  0  0  0  0  0  0  0  0
  141.3441   69.0373  225.6959 H   0  0  0  0  0  0  0  0  0  0  0  0
  139.1940   68.9500  225.4710 C   0  0  0  0  0  0  0  0  0  0  0  0
  138.3890   68.7158  226.1831 H   0  0  0  0  0  0  0  0  0  0  0  0
  139.4490   68.0781  224.8507 H   0  0  0  0  0  0  0  0  0  0  0  0
  138.7130   70.0700  224.5320 C   0  0  0  0  0  0  0  0  0  0  0  0
  138.0320   70.7347  225.0838 H   0  0  0  0  0  0  0  0  0  0  0  0
  138.1947   69.6122  223.6766 H   0  0  0  0  0  0  0  0  0  0  0  0
  139.8570   74.0770  222.3410 N   0  0  0  0  0  0  0  0  0  0  0  0
  140.6390   74.9460  221.6460 C   0  0  0  0  0  0  0  0  0  0  0  0
  140.2380   76.3240  221.5260 N   0  0  0  0  0  0  0  0  0  0  0  0
  139.9570   77.1600  222.6970 C   0  0  0  0  0  0  0  0  0  0  0  0
  140.1646   76.5852  223.6116 H   0  0  0  0  0  0  0  0  0  0  0  0
  138.9000   77.4636  222.6748 H   0  0  0  0  0  0  0  0  0  0  0  0
  140.8230   78.3950  222.6780 C   0  0  0  0  0  0  0  0  0  0  0  0
  140.9590   79.1570  223.8500 C   0  0  0  0  0  0  0  0  0  0  0  0
  140.4750   78.8222  224.7793 H   0  0  0  0  0  0  0  0  0  0  0  0
  141.7050   80.3370  223.8420 C   0  0  0  0  0  0  0  0  0  0  0  0
  141.8125   80.9246  224.7657 H   0  0  0  0  0  0  0  0  0  0  0  0
  142.3150   80.7730  222.6640 C   0  0  0  0  0  0  0  0  0  0  0  0
  142.9033   81.7024  222.6616 H   0  0  0  0  0  0  0  0  0  0  0  0
  142.1790   80.0300  221.4880 C   0  0  0  0  0  0  0  0  0  0  0  0
  142.6688   80.3740  220.5651 H   0  0  0  0  0  0  0  0  0  0  0  0
  141.4220   78.8480  221.4760 C   0  0  0  0  0  0  0  0  0  0  0  0
  141.3570   78.0350  220.2010 C   0  0  0  0  0  0  0  0  0  0  0  0
  142.3170   77.5157  220.0645 H   0  0  0  0  0  0  0  0  0  0  0  0
  141.1509   78.7286  219.3725 H   0  0  0  0  0  0  0  0  0  0  0  0
  140.2350   76.9940  220.2260 C   0  0  0  0  0  0  0  0  0  0  0  0
  140.4003   76.2540  219.4290 H   0  0  0  0  0  0  0  0  0  0  0  0
  139.2655   77.4877  220.0639 H   0  0  0  0  0  0  0  0  0  0  0  0
  141.7730   74.4920  221.0410 N   0  0  0  0  0  0  0  0  0  0  0  0
  142.3220   75.1280  220.4240 H   0  0  0  0  0  0  0  0  0  0  0  0
  1  2  1  0
  2  3  1  0
  3  4  2  0
  4  5  1  0
  4  6  1  0
  6  7  1  0
  6  8  2  0
  8  9  1  0
  8 10  1  0
 10 11  1  0
 10 12  2  0
 12 13  1  0
 13 14  2  0
 14 15  1  0
 15 16  2  0
 16 17  1  0
 17 18  1  6
 17 19  1  0
 19 20  1  0
 19 21  1  0
 19 22  1  0
 22 23  1  0
 22 24  1  0
 24 25  1  0
 24 26  1  0
 24 27  1  0
 27 28  1  0
 27 29  1  0
 27 30  1  0
 30 31  1  0
 30 32  1  0
 15 33  1  0
 33 34  2  0
 34 35  1  0
 35 36  1  0
 36 37  1  0
 36 38  1  0
 36 39  1  0
 39 40  2  0
 40 41  1  0
 40 42  1  0
 42 43  1  0
 42 44  2  0
 44 45  1  0
 44 46  1  0
 46 47  1  0
 46 48  2  0
 48 49  1  0
 49 50  1  0
 49 51  1  0
 49 52  1  0
 52 53  1  0
 52 54  1  0
 34 55  1  0
 55 56  1  0
 12  3  1  0
 55 13  1  0
 30 17  1  0
 52 35  1  0
 48 39  1  0
M  END
>  <UniqueID>  (69) 
485

>  <SMILES>  (69) 
Oc1ccccc1-c1n/c(=N\[C@@H]2CCCNC2)nc(N2CCc3ccccc3C2)[nH]1

>  <Energy>  (69) 
74.54154189360749

>  <Genealogy>  (69) 
Oc1ccccc1-c1nc(=NC2CCCNC2)nc(N2CCc3ccccc3C2)[nH]1 (tautomer)
Oc1ccccc1-c1nc(=N[C@@H]2CCCNC2)nc(N2CCc3ccccc3C2)[nH]1 (chirality)
Oc1ccccc1-c1n/c(=N\[C@@H]2CCCNC2)nc(N2CCc3ccccc3C2)[nH]1 (cis-trans isomerization)
Oc1ccccc1-c1n/c(=N\[C@@H]2CCCNC2)nc(N2CCc3ccccc3C2)[nH]1 (3D coordinates assigned)
Oc1ccccc1-c1n/c(=N\[C@@H]2CCCNC2)nc(N2CCc3ccccc3C2)[nH]1 (nonaromatic ring conformer: 74.54154189360749 kcal/mol)

>  <smiles>  (69) 
Oc1ccccc1-c1nc(NC2CCCNC2)nc(N2CCc3ccccc3C2)n1

>  <score_type>  (69) 
oracle

>  <origin>  (69) 
autodockgpu

>  <m_score__min__energy>  (69) 
-8.4900000000000002

>  <m_primary>  (69) 
energy

>  <meeko>  (69) 
{"free_energy": -8.42, "intermolecular_energy": -9.91, "internal_energy": -1.3, "cluster_size": 11, "cluster_id": 2, "rank_in_cluster": 3}

>  <energy>  (69) 
-8.42

>  <cluster_rmsd>  (69) 
0.04

>  <rmsd>  (69) 
272.01

>  <cluster>  (69) 
2

$$$$
UQJJBYVBPBMERE-JUZPGEPYNA-N
     RDKit          3D

 56 60  0  0  0  0  0  0  0  0999 V2000
  138.6400   67.5100  225.1910 H   0  0  0  0  0  0  0  0  0  0  0  0
  139.2390   67.4000  226.0010 O   0  0  0  0  0  0  0  0  0  0  0  0
  139.8190   68.4970  226.6380 C   0  0  0  0  0  0  0  0  0  0  0  0
  140.6430   68.2930  227.7550 C   0  0  0  0  0  0  0  0  0  0  0  0
  140.7937   67.2754  228.1447 H   0  0  0  0  0  0  0  0  0  0  0  0
  141.2730   69.3740  228.3750 C   0  0  0  0  0  0  0  0  0  0  0  0
  141.9147   69.2067  229.2526 H   0  0  0  0  0  0  0  0  0  0  0  0
  141.0890   70.6660  227.8820 C   0  0  0  0  0  0  0  0  0  0  0  0
  141.5934   71.5156  228.3656 H   0  0  0  0  0  0  0  0  0  0  0  0
  140.2650   70.8820  226.7750 C   0  0  0  0  0  0  0  0  0  0  0  0
  140.1284   71.9027  226.3882 H   0  0  0  0  0  0  0  0  0  0  0  0
  139.6080   69.8060  226.1500 C   0  0  0  0  0  0  0  0  0  0  0  0
  138.7410   70.0710  224.9770 C   0  0  0  0  0  0  0  0  0  0  0  0
  137.5850   69.3710  224.8350 N   0  0  0  0  0  0  0  0  0  0  0  0
  136.7800   69.5740  223.7600 C   0  0  0  0  0  0  0  0  0  0  0  0
  135.6800   68.8980  223.6110 N   0  0  0  0  0  0  0  0  0  0  0  0
  134.3930   69.2380  224.2230 C   0  0  1  0  0  0  0  0  0  0  0  0
  133.6553   69.4188  223.4274 H   0  0  0  0  0  0  0  0  0  0  0  0
  133.9070   68.0570  225.1030 C   0  0  0  0  0  0  0  0  0  0  0  0
  134.7803   67.4552  225.3949 H   0  0  0  0  0  0  0  0  0  0  0  0
  133.1884   67.4765  224.5058 H   0  0  0  0  0  0  0  0  0  0  0  0
  133.2090   68.4970  226.3270 N   0  0  0  0  0  0  0  0  0  0  0  0
  132.6170   67.7040  226.6670 H   0  0  0  0  0  0  0  0  0  0  0  0
  132.3310   69.6420  226.0620 C   0  0  0  0  0  0  0  0  0  0  0  0
  131.7287   69.8521  226.9581 H   0  0  0  0  0  0  0  0  0  0  0  0
  131.6739   69.3995  225.2138 H   0  0  0  0  0  0  0  0  0  0  0  0
  133.1660   70.8870  225.7080 C   0  0  0  0  0  0  0  0  0  0  0  0
  133.3597   71.4560  226.6292 H   0  0  0  0  0  0  0  0  0  0  0  0
  132.5919   71.4802  224.9810 H   0  0  0  0  0  0  0  0  0  0  0  0
  134.5120   70.5250  225.0590 C   0  0  0  0  0  0  0  0  0  0  0  0
  135.2627   70.3729  225.8485 H   0  0  0  0  0  0  0  0  0  0  0  0
  134.8131   71.3481  224.3943 H   0  0  0  0  0  0  0  0  0  0  0  0
  137.1290   70.4930  222.8280 N   0  0  0  0  0  0  0  0  0  0  0  0
  138.2810   71.2040  222.9540 C   0  0  0  0  0  0  0  0  0  0  0  0
  138.6400   72.1630  221.9410 N   0  0  0  0  0  0  0  0  0  0  0  0
  138.0340   73.4970  221.8800 C   0  0  0  0  0  0  0  0  0  0  0  0
  137.3564   73.6273  222.7367 H   0  0  0  0  0  0  0  0  0  0  0  0
  137.4735   73.5927  220.9383 H   0  0  0  0  0  0  0  0  0  0  0  0
  139.1030   74.5600  221.9250 C   0  0  0  0  0  0  0  0  0  0  0  0
  138.7420   75.8860  222.2100 C   0  0  0  0  0  0  0  0  0  0  0  0
  137.6954   76.1297  222.4448 H   0  0  0  0  0  0  0  0  0  0  0  0
  139.7050   76.8980  222.1970 C   0  0  0  0  0  0  0  0  0  0  0  0
  139.4154   77.9340  222.4271 H   0  0  0  0  0  0  0  0  0  0  0  0
  141.0330   76.5980  221.8930 C   0  0  0  0  0  0  0  0  0  0  0  0
  141.7888   77.3972  221.8871 H   0  0  0  0  0  0  0  0  0  0  0  0
  141.4050   75.2840  221.5960 C   0  0  0  0  0  0  0  0  0  0  0  0
  142.4551   75.0529  221.3637 H   0  0  0  0  0  0  0  0  0  0  0  0
  140.4480   74.2570  221.5920 C   0  0  0  0  0  0  0  0  0  0  0  0
  140.9010   72.8350  221.3360 C   0  0  0  0  0  0  0  0  0  0  0  0
  141.4142   72.4612  222.2343 H   0  0  0  0  0  0  0  0  0  0  0  0
  141.5711   72.8498  220.4638 H   0  0  0  0  0  0  0  0  0  0  0  0
  139.7360   71.8980  221.0110 C   0  0  0  0  0  0  0  0  0  0  0  0
  140.0631   70.8529  221.1144 H   0  0  0  0  0  0  0  0  0  0  0  0
  139.3975   72.0693  219.9785 H   0  0  0  0  0  0  0  0  0  0  0  0
  139.1000   70.9710  224.0180 N   0  0  0  0  0  0  0  0  0  0  0  0
  140.0320   71.4380  224.0680 H   0  0  0  0  0  0  0  0  0  0  0  0
  1  2  1  0
  2  3  1  0
  3  4  2  0
  4  5  1  0
  4  6  1  0
  6  7  1  0
  6  8  2  0
  8  9  1  0
  8 10  1  0
 10 11  1  0
 10 12  2  0
 12 13  1  0
 13 14  2  0
 14 15  1  0
 15 16  2  0
 16 17  1  0
 17 18  1  6
 17 19  1  0
 19 20  1  0
 19 21  1  0
 19 22  1  0
 22 23  1  0
 22 24  1  0
 24 25  1  0
 24 26  1  0
 24 27  1  0
 27 28  1  0
 27 29  1  0
 27 30  1  0
 30 31  1  0
 30 32  1  0
 15 33  1  0
 33 34  2  0
 34 35  1  0
 35 36  1  0
 36 37  1  0
 36 38  1  0
 36 39  1  0
 39 40  2  0
 40 41  1  0
 40 42  1  0
 42 43  1  0
 42 44  2  0
 44 45  1  0
 44 46  1  0
 46 47  1  0
 46 48  2  0
 48 49  1  0
 49 50  1  0
 49 51  1  0
 49 52  1  0
 52 53  1  0
 52 54  1  0
 34 55  1  0
 55 56  1  0
 12  3  1  0
 55 13  1  0
 30 17  1  0
 52 35  1  0
 48 39  1  0
M  END
>  <UniqueID>  (70) 
485

>  <SMILES>  (70) 
Oc1ccccc1-c1n/c(=N\[C@@H]2CCCNC2)nc(N2CCc3ccccc3C2)[nH]1

>  <Energy>  (70) 
74.54154189360749

>  <Genealogy>  (70) 
Oc1ccccc1-c1nc(=NC2CCCNC2)nc(N2CCc3ccccc3C2)[nH]1 (tautomer)
Oc1ccccc1-c1nc(=N[C@@H]2CCCNC2)nc(N2CCc3ccccc3C2)[nH]1 (chirality)
Oc1ccccc1-c1n/c(=N\[C@@H]2CCCNC2)nc(N2CCc3ccccc3C2)[nH]1 (cis-trans isomerization)
Oc1ccccc1-c1n/c(=N\[C@@H]2CCCNC2)nc(N2CCc3ccccc3C2)[nH]1 (3D coordinates assigned)
Oc1ccccc1-c1n/c(=N\[C@@H]2CCCNC2)nc(N2CCc3ccccc3C2)[nH]1 (nonaromatic ring conformer: 74.54154189360749 kcal/mol)

>  <smiles>  (70) 
Oc1ccccc1-c1nc(NC2CCCNC2)nc(N2CCc3ccccc3C2)n1

>  <score_type>  (70) 
oracle

>  <origin>  (70) 
autodockgpu

>  <m_score__min__energy>  (70) 
-8.4900000000000002

>  <m_primary>  (70) 
energy

>  <meeko>  (70) 
{"free_energy": -7.63, "intermolecular_energy": -9.12, "internal_energy": -1.44, "cluster_size": 1, "cluster_id": 6, "rank_in_cluster": 1}

>  <energy>  (70) 
-8.41

>  <cluster_rmsd>  (70) 
0.06

>  <rmsd>  (70) 
271.99

>  <cluster>  (70) 
2

$$$$
UQJJBYVBPBMERE-JUZPGEPYNA-N
     RDKit          3D

 56 60  0  0  0  0  0  0  0  0999 V2000
  145.2910   74.9890  220.0480 H   0  0  0  0  0  0  0  0  0  0  0  0
  144.6090   74.3830  220.4900 O   0  0  0  0  0  0  0  0  0  0  0  0
  144.5300   73.0240  220.1860 C   0  0  0  0  0  0  0  0  0  0  0  0
  145.6360   72.3780  219.6110 C   0  0  0  0  0  0  0  0  0  0  0  0
  146.5407   72.9546  219.3679 H   0  0  0  0  0  0  0  0  0  0  0  0
  145.5940   71.0080  219.3460 C   0  0  0  0  0  0  0  0  0  0  0  0
  146.4631   70.5090  218.8925 H   0  0  0  0  0  0  0  0  0  0  0  0
  144.4500   70.2710  219.6560 C   0  0  0  0  0  0  0  0  0  0  0  0
  144.4217   69.1899  219.4552 H   0  0  0  0  0  0  0  0  0  0  0  0
  143.3410   70.9050  220.2210 C   0  0  0  0  0  0  0  0  0  0  0  0
  142.4445   70.3173  220.4680 H   0  0  0  0  0  0  0  0  0  0  0  0
  143.3600   72.2880  220.4770 C   0  0  0  0  0  0  0  0  0  0  0  0
  142.1650   72.9290  221.0770 C   0  0  0  0  0  0  0  0  0  0  0  0
  141.2990   72.1710  221.7990 N   0  0  0  0  0  0  0  0  0  0  0  0
  140.1830   72.7230  222.3440 C   0  0  0  0  0  0  0  0  0  0  0  0
  139.3430   72.0010  223.0240 N   0  0  0  0  0  0  0  0  0  0  0  0
  139.5700   71.5030  224.3840 C   0  0  1  0  0  0  0  0  0  0  0  0
  139.3088   72.2934  225.1031 H   0  0  0  0  0  0  0  0  0  0  0  0
  138.6690   70.2670  224.6420 C   0  0  0  0  0  0  0  0  0  0  0  0
  138.4085   69.8152  223.6735 H   0  0  0  0  0  0  0  0  0  0  0  0
  137.7789   70.6171  225.1853 H   0  0  0  0  0  0  0  0  0  0  0  0
  139.3210   69.2410  225.4790 N   0  0  0  0  0  0  0  0  0  0  0  0
  138.5740   68.6400  225.8990 H   0  0  0  0  0  0  0  0  0  0  0  0
  140.0870   69.8480  226.5720 C   0  0  0  0  0  0  0  0  0  0  0  0
  140.4409   69.0569  227.2495 H   0  0  0  0  0  0  0  0  0  0  0  0
  139.4375   70.5493  227.1163 H   0  0  0  0  0  0  0  0  0  0  0  0
  141.2990   70.6190  226.0150 C   0  0  0  0  0  0  0  0  0  0  0  0
  142.1686   69.9456  225.9974 H   0  0  0  0  0  0  0  0  0  0  0  0
  141.4747   71.4862  226.6685 H   0  0  0  0  0  0  0  0  0  0  0  0
  141.0530   71.1460  224.5910 C   0  0  0  0  0  0  0  0  0  0  0  0
  141.3411   70.3708  223.8657 H   0  0  0  0  0  0  0  0  0  0  0  0
  141.6561   72.0541  224.4441 H   0  0  0  0  0  0  0  0  0  0  0  0
  139.9410   74.0450  222.1740 N   0  0  0  0  0  0  0  0  0  0  0  0
  140.7970   74.8190  221.4550 C   0  0  0  0  0  0  0  0  0  0  0  0
  140.5090   76.2190  221.2730 N   0  0  0  0  0  0  0  0  0  0  0  0
  139.9360   77.0430  222.3420 C   0  0  0  0  0  0  0  0  0  0  0  0
  139.8432   76.4383  223.2562 H   0  0  0  0  0  0  0  0  0  0  0  0
  138.9455   77.4018  222.0256 H   0  0  0  0  0  0  0  0  0  0  0  0
  140.8230   78.2310  222.6190 C   0  0  0  0  0  0  0  0  0  0  0  0
  140.6450   78.9590  223.8060 C   0  0  0  0  0  0  0  0  0  0  0  0
  139.8973   78.6298  224.5426 H   0  0  0  0  0  0  0  0  0  0  0  0
  141.4120   80.0990  224.0570 C   0  0  0  0  0  0  0  0  0  0  0  0
  141.2711   80.6605  224.9923 H   0  0  0  0  0  0  0  0  0  0  0  0
  142.3570   80.5270  223.1230 C   0  0  0  0  0  0  0  0  0  0  0  0
  142.9611   81.4239  223.3247 H   0  0  0  0  0  0  0  0  0  0  0  0
  142.5370   79.8180  221.9320 C   0  0  0  0  0  0  0  0  0  0  0  0
  143.2889   80.1558  221.2036 H   0  0  0  0  0  0  0  0  0  0  0  0
  141.7650   78.6780  221.6590 C   0  0  0  0  0  0  0  0  0  0  0  0
  142.0380   77.8970  220.3910 C   0  0  0  0  0  0  0  0  0  0  0  0
  142.9726   77.3313  220.5195 H   0  0  0  0  0  0  0  0  0  0  0  0
  142.1122   78.6182  219.5638 H   0  0  0  0  0  0  0  0  0  0  0  0
  140.9130   76.9160  220.0530 C   0  0  0  0  0  0  0  0  0  0  0  0
  141.2702   76.1859  219.3118 H   0  0  0  0  0  0  0  0  0  0  0  0
  140.0550   77.4630  219.6351 H   0  0  0  0  0  0  0  0  0  0  0  0
  141.8970   74.2510  220.8840 N   0  0  0  0  0  0  0  0  0  0  0  0
  142.5020   74.8160  220.2490 H   0  0  0  0  0  0  0  0  0  0  0  0
  1  2  1  0
  2  3  1  0
  3  4  2  0
  4  5  1  0
  4  6  1  0
  6  7  1  0
  6  8  2  0
  8  9  1  0
  8 10  1  0
 10 11  1  0
 10 12  2  0
 12 13  1  0
 13 14  2  0
 14 15  1  0
 15 16  2  0
 16 17  1  0
 17 18  1  1
 17 19  1  0
 19 20  1  0
 19 21  1  0
 19 22  1  0
 22 23  1  0
 22 24  1  0
 24 25  1  0
 24 26  1  0
 24 27  1  0
 27 28  1  0
 27 29  1  0
 27 30  1  0
 30 31  1  0
 30 32  1  0
 15 33  1  0
 33 34  2  0
 34 35  1  0
 35 36  1  0
 36 37  1  0
 36 38  1  0
 36 39  1  0
 39 40  2  0
 40 41  1  0
 40 42  1  0
 42 43  1  0
 42 44  2  0
 44 45  1  0
 44 46  1  0
 46 47  1  0
 46 48  2  0
 48 49  1  0
 49 50  1  0
 49 51  1  0
 49 52  1  0
 52 53  1  0
 52 54  1  0
 34 55  1  0
 55 56  1  0
 12  3  1  0
 55 13  1  0
 30 17  1  0
 52 35  1  0
 48 39  1  0
M  END
>  <UniqueID>  (71) 
485

>  <SMILES>  (71) 
Oc1ccccc1-c1n/c(=N\[C@@H]2CCCNC2)nc(N2CCc3ccccc3C2)[nH]1

>  <Energy>  (71) 
74.54154189360749

>  <Genealogy>  (71) 
Oc1ccccc1-c1nc(=NC2CCCNC2)nc(N2CCc3ccccc3C2)[nH]1 (tautomer)
Oc1ccccc1-c1nc(=N[C@@H]2CCCNC2)nc(N2CCc3ccccc3C2)[nH]1 (chirality)
Oc1ccccc1-c1n/c(=N\[C@@H]2CCCNC2)nc(N2CCc3ccccc3C2)[nH]1 (cis-trans isomerization)
Oc1ccccc1-c1n/c(=N\[C@@H]2CCCNC2)nc(N2CCc3ccccc3C2)[nH]1 (3D coordinates assigned)
Oc1ccccc1-c1n/c(=N\[C@@H]2CCCNC2)nc(N2CCc3ccccc3C2)[nH]1 (nonaromatic ring conformer: 74.54154189360749 kcal/mol)

>  <smiles>  (71) 
Oc1ccccc1-c1nc(NC2CCCNC2)nc(N2CCc3ccccc3C2)n1

>  <score_type>  (71) 
oracle

>  <origin>  (71) 
autodockgpu

>  <m_score__min__energy>  (71) 
-8.4900000000000002

>  <m_primary>  (71) 
energy

>  <meeko>  (71) 
{"free_energy": -8.07, "intermolecular_energy": -9.57, "internal_energy": -1.36, "cluster_size": 11, "cluster_id": 2, "rank_in_cluster": 11}

>  <energy>  (71) 
-8.38

>  <cluster_rmsd>  (71) 
0.38

>  <rmsd>  (71) 
271.99

>  <cluster>  (71) 
2

$$$$
UQJJBYVBPBMERE-JUZPGEPYNA-N
     RDKit          3D

 56 60  0  0  0  0  0  0  0  0999 V2000
  143.8090   75.2460  221.2140 H   0  0  0  0  0  0  0  0  0  0  0  0
  144.4530   74.8840  220.5210 O   0  0  0  0  0  0  0  0  0  0  0  0
  144.5140   73.5240  220.2170 C   0  0  0  0  0  0  0  0  0  0  0  0
  145.6670   73.0000  219.6130 C   0  0  0  0  0  0  0  0  0  0  0  0
  146.4973   73.6705  219.3466 H   0  0  0  0  0  0  0  0  0  0  0  0
  145.7670   71.6330  219.3480 C   0  0  0  0  0  0  0  0  0  0  0  0
  146.6727   71.2302  218.8711 H   0  0  0  0  0  0  0  0  0  0  0  0
  144.7180   70.7770  219.6880 C   0  0  0  0  0  0  0  0  0  0  0  0
  144.8018   69.6987  219.4871 H   0  0  0  0  0  0  0  0  0  0  0  0
  143.5620   71.2880  220.2830 C   0  0  0  0  0  0  0  0  0  0  0  0
  142.7415   70.6072  220.5537 H   0  0  0  0  0  0  0  0  0  0  0  0
  143.4380   72.6660  220.5390 C   0  0  0  0  0  0  0  0  0  0  0  0
  142.1980   73.1750  221.1720 C   0  0  0  0  0  0  0  0  0  0  0  0
  141.4040   72.3140  221.8620 N   0  0  0  0  0  0  0  0  0  0  0  0
  140.2500   72.7440  222.4350 C   0  0  0  0  0  0  0  0  0  0  0  0
  139.4790   71.9230  223.0840 N   0  0  0  0  0  0  0  0  0  0  0  0
  139.9440   70.8740  223.9960 C   0  0  1  0  0  0  0  0  0  0  0  0
  140.6140   70.1955  223.4475 H   0  0  0  0  0  0  0  0  0  0  0  0
  140.7260   71.5150  225.1720 C   0  0  0  0  0  0  0  0  0  0  0  0
  140.4025   72.5609  225.2787 H   0  0  0  0  0  0  0  0  0  0  0  0
  141.7972   71.4373  224.9345 H   0  0  0  0  0  0  0  0  0  0  0  0
  140.5090   70.8230  226.4570 N   0  0  0  0  0  0  0  0  0  0  0  0
  141.3050   71.0610  227.0940 H   0  0  0  0  0  0  0  0  0  0  0  0
  140.4820   69.3670  226.2830 C   0  0  0  0  0  0  0  0  0  0  0  0
  140.4579   68.8843  227.2712 H   0  0  0  0  0  0  0  0  0  0  0  0
  141.3824   69.0568  225.7325 H   0  0  0  0  0  0  0  0  0  0  0  0
  139.2370   68.9450  225.4820 C   0  0  0  0  0  0  0  0  0  0  0  0
  138.4251   68.7130  226.1870 H   0  0  0  0  0  0  0  0  0  0  0  0
  139.5084   68.0671  224.8774 H   0  0  0  0  0  0  0  0  0  0  0  0
  138.7580   70.0460  224.5220 C   0  0  0  0  0  0  0  0  0  0  0  0
  138.0635   70.7114  225.0557 H   0  0  0  0  0  0  0  0  0  0  0  0
  138.2558   69.5707  223.6665 H   0  0  0  0  0  0  0  0  0  0  0  0
  139.8950   74.0470  222.3260 N   0  0  0  0  0  0  0  0  0  0  0  0
  140.6770   74.9230  221.6400 C   0  0  0  0  0  0  0  0  0  0  0  0
  140.2690   76.2990  221.5230 N   0  0  0  0  0  0  0  0  0  0  0  0
  139.9930   77.1340  222.6960 C   0  0  0  0  0  0  0  0  0  0  0  0
  140.2083   76.5594  223.6089 H   0  0  0  0  0  0  0  0  0  0  0  0
  138.9349   77.4343  222.6798 H   0  0  0  0  0  0  0  0  0  0  0  0
  140.8540   78.3720  222.6730 C   0  0  0  0  0  0  0  0  0  0  0  0
  140.9950   79.1330  223.8430 C   0  0  0  0  0  0  0  0  0  0  0  0
  140.5192   78.7953  224.7755 H   0  0  0  0  0  0  0  0  0  0  0  0
  141.7360   80.3170  223.8310 C   0  0  0  0  0  0  0  0  0  0  0  0
  141.8468   80.9046  224.7543 H   0  0  0  0  0  0  0  0  0  0  0  0
  142.3360   80.7560  222.6500 C   0  0  0  0  0  0  0  0  0  0  0  0
  142.9206   81.6878  222.6443 H   0  0  0  0  0  0  0  0  0  0  0  0
  142.1950   80.0130  221.4740 C   0  0  0  0  0  0  0  0  0  0  0  0
  142.6776   80.3594  220.5482 H   0  0  0  0  0  0  0  0  0  0  0  0
  141.4420   78.8280  221.4660 C   0  0  0  0  0  0  0  0  0  0  0  0
  141.3720   78.0150  220.1910 C   0  0  0  0  0  0  0  0  0  0  0  0
  142.3330   77.4993  220.0480 H   0  0  0  0  0  0  0  0  0  0  0  0
  141.1583   78.7077  219.3637 H   0  0  0  0  0  0  0  0  0  0  0  0
  140.2540   76.9700  220.2240 C   0  0  0  0  0  0  0  0  0  0  0  0
  140.4158   76.2312  219.4252 H   0  0  0  0  0  0  0  0  0  0  0  0
  139.2816   77.4606  220.0699 H   0  0  0  0  0  0  0  0  0  0  0  0
  141.8160   74.4770  221.0400 N   0  0  0  0  0  0  0  0  0  0  0  0
  142.3670   75.1190  220.4290 H   0  0  0  0  0  0  0  0  0  0  0  0
  1  2  1  0
  2  3  1  0
  3  4  2  0
  4  5  1  0
  4  6  1  0
  6  7  1  0
  6  8  2  0
  8  9  1  0
  8 10  1  0
 10 11  1  0
 10 12  2  0
 12 13  1  0
 13 14  2  0
 14 15  1  0
 15 16  2  0
 16 17  1  0
 17 18  1  6
 17 19  1  0
 19 20  1  0
 19 21  1  0
 19 22  1  0
 22 23  1  0
 22 24  1  0
 24 25  1  0
 24 26  1  0
 24 27  1  0
 27 28  1  0
 27 29  1  0
 27 30  1  0
 30 31  1  0
 30 32  1  0
 15 33  1  0
 33 34  2  0
 34 35  1  0
 35 36  1  0
 36 37  1  0
 36 38  1  0
 36 39  1  0
 39 40  2  0
 40 41  1  0
 40 42  1  0
 42 43  1  0
 42 44  2  0
 44 45  1  0
 44 46  1  0
 46 47  1  0
 46 48  2  0
 48 49  1  0
 49 50  1  0
 49 51  1  0
 49 52  1  0
 52 53  1  0
 52 54  1  0
 34 55  1  0
 55 56  1  0
 12  3  1  0
 55 13  1  0
 30 17  1  0
 52 35  1  0
 48 39  1  0
M  END
>  <UniqueID>  (72) 
485

>  <SMILES>  (72) 
Oc1ccccc1-c1n/c(=N\[C@@H]2CCCNC2)nc(N2CCc3ccccc3C2)[nH]1

>  <Energy>  (72) 
74.54154189360749

>  <Genealogy>  (72) 
Oc1ccccc1-c1nc(=NC2CCCNC2)nc(N2CCc3ccccc3C2)[nH]1 (tautomer)
Oc1ccccc1-c1nc(=N[C@@H]2CCCNC2)nc(N2CCc3ccccc3C2)[nH]1 (chirality)
Oc1ccccc1-c1n/c(=N\[C@@H]2CCCNC2)nc(N2CCc3ccccc3C2)[nH]1 (cis-trans isomerization)
Oc1ccccc1-c1n/c(=N\[C@@H]2CCCNC2)nc(N2CCc3ccccc3C2)[nH]1 (3D coordinates assigned)
Oc1ccccc1-c1n/c(=N\[C@@H]2CCCNC2)nc(N2CCc3ccccc3C2)[nH]1 (nonaromatic ring conformer: 74.54154189360749 kcal/mol)

>  <smiles>  (72) 
Oc1ccccc1-c1nc(NC2CCCNC2)nc(N2CCc3ccccc3C2)n1

>  <score_type>  (72) 
oracle

>  <origin>  (72) 
autodockgpu

>  <m_score__min__energy>  (72) 
-8.4900000000000002

>  <m_primary>  (72) 
energy

>  <meeko>  (72) 
{"free_energy": -8.43, "intermolecular_energy": -9.92, "internal_energy": -1.3, "cluster_size": 11, "cluster_id": 2, "rank_in_cluster": 1}

>  <energy>  (72) 
-8.37

>  <cluster_rmsd>  (72) 
0.38

>  <rmsd>  (72) 
271.98

>  <cluster>  (72) 
2

$$$$
UQJJBYVBPBMERE-JUZPGEPYNA-N
     RDKit          3D

 56 60  0  0  0  0  0  0  0  0999 V2000
  139.1980   73.3790  223.4260 H   0  0  0  0  0  0  0  0  0  0  0  0
  139.6520   72.8240  222.7090 O   0  0  0  0  0  0  0  0  0  0  0  0
  140.7150   73.3260  221.9580 C   0  0  0  0  0  0  0  0  0  0  0  0
  141.7310   72.4570  221.5310 C   0  0  0  0  0  0  0  0  0  0  0  0
  141.7032   71.3972  221.8243 H   0  0  0  0  0  0  0  0  0  0  0  0
  142.7770   72.9300  220.7360 C   0  0  0  0  0  0  0  0  0  0  0  0
  143.5714   72.2438  220.4075 H   0  0  0  0  0  0  0  0  0  0  0  0
  142.8150   74.2730  220.3580 C   0  0  0  0  0  0  0  0  0  0  0  0
  143.6344   74.6421  219.7237 H   0  0  0  0  0  0  0  0  0  0  0  0
  141.8140   75.1490  220.7840 C   0  0  0  0  0  0  0  0  0  0  0  0
  141.8473   76.2052  220.4783 H   0  0  0  0  0  0  0  0  0  0  0  0
  140.7630   74.6920  221.6010 C   0  0  0  0  0  0  0  0  0  0  0  0
  139.7170   75.6480  222.0350 C   0  0  0  0  0  0  0  0  0  0  0  0
  140.0560   76.9440  222.2630 N   0  0  0  0  0  0  0  0  0  0  0  0
  139.1250   77.8410  222.6820 C   0  0  0  0  0  0  0  0  0  0  0  0
  139.4450   79.0790  222.9140 N   0  0  0  0  0  0  0  0  0  0  0  0
  140.7360   79.5300  223.4420 C   0  0  1  0  0  0  0  0  0  0  0  0
  140.8732   79.1183  224.4528 H   0  0  0  0  0  0  0  0  0  0  0  0
  141.8790   79.0170  222.5280 C   0  0  0  0  0  0  0  0  0  0  0  0
  141.4656   78.8187  221.5281 H   0  0  0  0  0  0  0  0  0  0  0  0
  142.2874   78.1072  222.9922 H   0  0  0  0  0  0  0  0  0  0  0  0
  142.9890   79.9800  222.3950 N   0  0  0  0  0  0  0  0  0  0  0  0
  143.8410   79.4550  222.0880 H   0  0  0  0  0  0  0  0  0  0  0  0
  143.2900   80.6320  223.6740 C   0  0  0  0  0  0  0  0  0  0  0  0
  144.2042   81.2343  223.5675 H   0  0  0  0  0  0  0  0  0  0  0  0
  143.4341   79.8591  224.4433 H   0  0  0  0  0  0  0  0  0  0  0  0
  142.1260   81.5470  224.0970 C   0  0  0  0  0  0  0  0  0  0  0  0
  142.3194   82.5621  223.7200 H   0  0  0  0  0  0  0  0  0  0  0  0
  142.0674   81.5299  225.1953 H   0  0  0  0  0  0  0  0  0  0  0  0
  140.7730   81.0650  223.5470 C   0  0  0  0  0  0  0  0  0  0  0  0
  140.6159   81.4979  222.5480 H   0  0  0  0  0  0  0  0  0  0  0  0
  139.9790   81.3885  224.2362 H   0  0  0  0  0  0  0  0  0  0  0  0
  137.8440   77.4380  222.8640 N   0  0  0  0  0  0  0  0  0  0  0  0
  137.4870   76.1450  222.6420 C   0  0  0  0  0  0  0  0  0  0  0  0
  136.1220   75.7370  222.8600 N   0  0  0  0  0  0  0  0  0  0  0  0
  135.7150   74.3280  222.8360 C   0  0  0  0  0  0  0  0  0  0  0  0
  136.6042   73.6957  222.6966 H   0  0  0  0  0  0  0  0  0  0  0  0
  135.0091   74.1734  222.0066 H   0  0  0  0  0  0  0  0  0  0  0  0
  135.0390   73.9570  224.1310 C   0  0  0  0  0  0  0  0  0  0  0  0
  134.8690   72.6010  224.4540 C   0  0  0  0  0  0  0  0  0  0  0  0
  135.2721   71.8251  223.7865 H   0  0  0  0  0  0  0  0  0  0  0  0
  134.1910   72.2320  225.6180 C   0  0  0  0  0  0  0  0  0  0  0  0
  134.0676   71.1677  225.8673 H   0  0  0  0  0  0  0  0  0  0  0  0
  133.6700   73.2100  226.4650 C   0  0  0  0  0  0  0  0  0  0  0  0
  133.1391   72.9153  227.3822 H   0  0  0  0  0  0  0  0  0  0  0  0
  133.8210   74.5640  226.1510 C   0  0  0  0  0  0  0  0  0  0  0  0
  133.4146   75.3304  226.8274 H   0  0  0  0  0  0  0  0  0  0  0  0
  134.4880   74.9520  224.9780 C   0  0  0  0  0  0  0  0  0  0  0  0
  134.6940   76.4270  224.7080 C   0  0  0  0  0  0  0  0  0  0  0  0
  135.4832   76.8012  225.3767 H   0  0  0  0  0  0  0  0  0  0  0  0
  133.7360   76.9367  224.8881 H   0  0  0  0  0  0  0  0  0  0  0  0
  135.1040   76.7060  223.2610 C   0  0  0  0  0  0  0  0  0  0  0  0
  135.5130   77.7242  223.1833 H   0  0  0  0  0  0  0  0  0  0  0  0
  134.2272   76.6181  222.6026 H   0  0  0  0  0  0  0  0  0  0  0  0
  138.4330   75.2440  222.2530 N   0  0  0  0  0  0  0  0  0  0  0  0
  138.1870   74.2330  222.1780 H   0  0  0  0  0  0  0  0  0  0  0  0
  1  2  1  0
  2  3  1  0
  3  4  2  0
  4  5  1  0
  4  6  1  0
  6  7  1  0
  6  8  2  0
  8  9  1  0
  8 10  1  0
 10 11  1  0
 10 12  2  0
 12 13  1  0
 13 14  2  0
 14 15  1  0
 15 16  2  0
 16 17  1  0
 17 18  1  1
 17 19  1  0
 19 20  1  0
 19 21  1  0
 19 22  1  0
 22 23  1  0
 22 24  1  0
 24 25  1  0
 24 26  1  0
 24 27  1  0
 27 28  1  0
 27 29  1  0
 27 30  1  0
 30 31  1  0
 30 32  1  0
 15 33  1  0
 33 34  2  0
 34 35  1  0
 35 36  1  0
 36 37  1  0
 36 38  1  0
 36 39  1  0
 39 40  2  0
 40 41  1  0
 40 42  1  0
 42 43  1  0
 42 44  2  0
 44 45  1  0
 44 46  1  0
 46 47  1  0
 46 48  2  0
 48 49  1  0
 49 50  1  0
 49 51  1  0
 49 52  1  0
 52 53  1  0
 52 54  1  0
 34 55  1  0
 55 56  1  0
 12  3  1  0
 55 13  1  0
 30 17  1  0
 52 35  1  0
 48 39  1  0
M  END
>  <UniqueID>  (73) 
485

>  <SMILES>  (73) 
Oc1ccccc1-c1n/c(=N\[C@@H]2CCCNC2)nc(N2CCc3ccccc3C2)[nH]1

>  <Energy>  (73) 
74.54154189360749

>  <Genealogy>  (73) 
Oc1ccccc1-c1nc(=NC2CCCNC2)nc(N2CCc3ccccc3C2)[nH]1 (tautomer)
Oc1ccccc1-c1nc(=N[C@@H]2CCCNC2)nc(N2CCc3ccccc3C2)[nH]1 (chirality)
Oc1ccccc1-c1n/c(=N\[C@@H]2CCCNC2)nc(N2CCc3ccccc3C2)[nH]1 (cis-trans isomerization)
Oc1ccccc1-c1n/c(=N\[C@@H]2CCCNC2)nc(N2CCc3ccccc3C2)[nH]1 (3D coordinates assigned)
Oc1ccccc1-c1n/c(=N\[C@@H]2CCCNC2)nc(N2CCc3ccccc3C2)[nH]1 (nonaromatic ring conformer: 74.54154189360749 kcal/mol)

>  <smiles>  (73) 
Oc1ccccc1-c1nc(NC2CCCNC2)nc(N2CCc3ccccc3C2)n1

>  <score_type>  (73) 
oracle

>  <origin>  (73) 
autodockgpu

>  <m_score__min__energy>  (73) 
-8.4900000000000002

>  <m_primary>  (73) 
energy

>  <meeko>  (73) 
{"free_energy": -8.13, "intermolecular_energy": -9.63, "internal_energy": -1.19, "cluster_size": 1, "cluster_id": 4, "rank_in_cluster": 1}

>  <energy>  (73) 
-8.33

>  <cluster_rmsd>  (73) 
1.43

>  <rmsd>  (73) 
271.75

>  <cluster>  (73) 
2

$$$$
UQJJBYVBPBMERE-JUZPGEPYNA-N
     RDKit          3D

 56 60  0  0  0  0  0  0  0  0999 V2000
  137.2560   73.5380  223.1200 H   0  0  0  0  0  0  0  0  0  0  0  0
  137.3260   72.6070  222.7260 O   0  0  0  0  0  0  0  0  0  0  0  0
  137.9690   71.5710  223.4030 C   0  0  0  0  0  0  0  0  0  0  0  0
  137.2140   70.6820  224.1850 C   0  0  0  0  0  0  0  0  0  0  0  0
  136.1293   70.8315  224.2897 H   0  0  0  0  0  0  0  0  0  0  0  0
  137.8320   69.6100  224.8300 C   0  0  0  0  0  0  0  0  0  0  0  0
  137.2343   68.9199  225.4435 H   0  0  0  0  0  0  0  0  0  0  0  0
  139.2070   69.4120  224.6980 C   0  0  0  0  0  0  0  0  0  0  0  0
  139.6905   68.5606  225.1994 H   0  0  0  0  0  0  0  0  0  0  0  0
  139.9700   70.2950  223.9290 C   0  0  0  0  0  0  0  0  0  0  0  0
  141.0526   70.1307  223.8240 H   0  0  0  0  0  0  0  0  0  0  0  0
  139.3660   71.3920  223.2880 C   0  0  0  0  0  0  0  0  0  0  0  0
  140.2040   72.3100  222.4800 C   0  0  0  0  0  0  0  0  0  0  0  0
  141.3790   71.8560  221.9680 N   0  0  0  0  0  0  0  0  0  0  0  0
  142.1810   72.6780  221.2420 C   0  0  0  0  0  0  0  0  0  0  0  0
  143.3120   72.2550  220.7620 N   0  0  0  0  0  0  0  0  0  0  0  0
  143.9520   72.7620  219.5440 C   0  0  1  0  0  0  0  0  0  0  0  0
  143.2542   73.4381  219.0283 H   0  0  0  0  0  0  0  0  0  0  0  0
  145.2330   73.5500  219.9180 C   0  0  0  0  0  0  0  0  0  0  0  0
  145.5824   73.2036  220.9019 H   0  0  0  0  0  0  0  0  0  0  0  0
  144.9702   74.6181  219.9269 H   0  0  0  0  0  0  0  0  0  0  0  0
  146.3260   73.3740  218.9430 N   0  0  0  0  0  0  0  0  0  0  0  0
  146.9910   74.1750  219.0490 H   0  0  0  0  0  0  0  0  0  0  0  0
  145.8220   73.3780  217.5650 C   0  0  0  0  0  0  0  0  0  0  0  0
  146.6729   73.3830  216.8679 H   0  0  0  0  0  0  0  0  0  0  0  0
  145.2041   74.2754  217.4136 H   0  0  0  0  0  0  0  0  0  0  0  0
  144.9600   72.1280  217.3050 C   0  0  0  0  0  0  0  0  0  0  0  0
  145.6021   71.3351  216.8939 H   0  0  0  0  0  0  0  0  0  0  0  0
  144.1652   72.4090  216.5983 H   0  0  0  0  0  0  0  0  0  0  0  0
  144.2870   71.6050  218.5850 C   0  0  0  0  0  0  0  0  0  0  0  0
  144.9691   70.9052  219.0900 H   0  0  0  0  0  0  0  0  0  0  0  0
  143.3513   71.0979  218.3071 H   0  0  0  0  0  0  0  0  0  0  0  0
  141.7980   73.9580  221.0180 N   0  0  0  0  0  0  0  0  0  0  0  0
  140.6260   74.4290  221.5220 C   0  0  0  0  0  0  0  0  0  0  0  0
  140.2490   75.7990  221.2840 N   0  0  0  0  0  0  0  0  0  0  0  0
  139.8240   76.6910  222.3670 C   0  0  0  0  0  0  0  0  0  0  0  0
  139.9099   76.1618  223.3275 H   0  0  0  0  0  0  0  0  0  0  0  0
  138.7801   76.9914  222.1938 H   0  0  0  0  0  0  0  0  0  0  0  0
  140.6900   77.9250  222.4000 C   0  0  0  0  0  0  0  0  0  0  0  0
  140.6770   78.7430  223.5400 C   0  0  0  0  0  0  0  0  0  0  0  0
  140.0760   78.4528  224.4144 H   0  0  0  0  0  0  0  0  0  0  0  0
  141.4230   79.9240  223.5710 C   0  0  0  0  0  0  0  0  0  0  0  0
  141.4128   80.5567  224.4708 H   0  0  0  0  0  0  0  0  0  0  0  0
  142.1810   80.3020  222.4620 C   0  0  0  0  0  0  0  0  0  0  0  0
  142.7696   81.2308  222.4904 H   0  0  0  0  0  0  0  0  0  0  0  0
  142.1940   79.5030  221.3150 C   0  0  0  0  0  0  0  0  0  0  0  0
  142.7993   79.8034  220.4470 H   0  0  0  0  0  0  0  0  0  0  0  0
  141.4400   78.3200  221.2630 C   0  0  0  0  0  0  0  0  0  0  0  0
  141.5350   77.4450  220.0320 C   0  0  0  0  0  0  0  0  0  0  0  0
  142.5024   76.9217  220.0452 H   0  0  0  0  0  0  0  0  0  0  0  0
  141.4392   78.0966  219.1510 H   0  0  0  0  0  0  0  0  0  0  0  0
  140.4160   76.4050  219.9640 C   0  0  0  0  0  0  0  0  0  0  0  0
  140.6791   75.6274  219.2318 H   0  0  0  0  0  0  0  0  0  0  0  0
  139.4774   76.8885  219.6554 H   0  0  0  0  0  0  0  0  0  0  0  0
  139.8430   73.6080  222.2770 N   0  0  0  0  0  0  0  0  0  0  0  0
  138.9950   73.9910  222.7490 H   0  0  0  0  0  0  0  0  0  0  0  0
  1  2  1  0
  2  3  1  0
  3  4  2  0
  4  5  1  0
  4  6  1  0
  6  7  1  0
  6  8  2  0
  8  9  1  0
  8 10  1  0
 10 11  1  0
 10 12  2  0
 12 13  1  0
 13 14  2  0
 14 15  1  0
 15 16  2  0
 16 17  1  0
 17 18  1  6
 17 19  1  0
 19 20  1  0
 19 21  1  0
 19 22  1  0
 22 23  1  0
 22 24  1  0
 24 25  1  0
 24 26  1  0
 24 27  1  0
 27 28  1  0
 27 29  1  0
 27 30  1  0
 30 31  1  0
 30 32  1  0
 15 33  1  0
 33 34  2  0
 34 35  1  0
 35 36  1  0
 36 37  1  0
 36 38  1  0
 36 39  1  0
 39 40  2  0
 40 41  1  0
 40 42  1  0
 42 43  1  0
 42 44  2  0
 44 45  1  0
 44 46  1  0
 46 47  1  0
 46 48  2  0
 48 49  1  0
 49 50  1  0
 49 51  1  0
 49 52  1  0
 52 53  1  0
 52 54  1  0
 34 55  1  0
 55 56  1  0
 12  3  1  0
 55 13  1  0
 30 17  1  0
 52 35  1  0
 48 39  1  0
M  END
>  <UniqueID>  (74) 
485

>  <SMILES>  (74) 
Oc1ccccc1-c1n/c(=N\[C@@H]2CCCNC2)nc(N2CCc3ccccc3C2)[nH]1

>  <Energy>  (74) 
74.54154189360749

>  <Genealogy>  (74) 
Oc1ccccc1-c1nc(=NC2CCCNC2)nc(N2CCc3ccccc3C2)[nH]1 (tautomer)
Oc1ccccc1-c1nc(=N[C@@H]2CCCNC2)nc(N2CCc3ccccc3C2)[nH]1 (chirality)
Oc1ccccc1-c1n/c(=N\[C@@H]2CCCNC2)nc(N2CCc3ccccc3C2)[nH]1 (cis-trans isomerization)
Oc1ccccc1-c1n/c(=N\[C@@H]2CCCNC2)nc(N2CCc3ccccc3C2)[nH]1 (3D coordinates assigned)
Oc1ccccc1-c1n/c(=N\[C@@H]2CCCNC2)nc(N2CCc3ccccc3C2)[nH]1 (nonaromatic ring conformer: 74.54154189360749 kcal/mol)

>  <smiles>  (74) 
Oc1ccccc1-c1nc(NC2CCCNC2)nc(N2CCc3ccccc3C2)n1

>  <score_type>  (74) 
oracle

>  <origin>  (74) 
autodockgpu

>  <m_score__min__energy>  (74) 
-8.4900000000000002

>  <m_primary>  (74) 
energy

>  <meeko>  (74) 
{"free_energy": -8.31, "intermolecular_energy": -9.8, "internal_energy": -1.26, "cluster_size": 2, "cluster_id": 3, "rank_in_cluster": 2}

>  <energy>  (74) 
-8.24

>  <cluster_rmsd>  (74) 
1.39

>  <rmsd>  (74) 
271.83

>  <cluster>  (74) 
2

$$$$
UQJJBYVBPBMERE-JUZPGEPYNA-N
     RDKit          3D

 56 60  0  0  0  0  0  0  0  0999 V2000
  143.8030   75.2160  221.2070 H   0  0  0  0  0  0  0  0  0  0  0  0
  144.4200   74.8600  220.4860 O   0  0  0  0  0  0  0  0  0  0  0  0
  144.4600   73.5050  220.1590 C   0  0  0  0  0  0  0  0  0  0  0  0
  145.5990   72.9780  219.5310 C   0  0  0  0  0  0  0  0  0  0  0  0
  146.4345   73.6425  219.2658 H   0  0  0  0  0  0  0  0  0  0  0  0
  145.6770   71.6140  219.2410 C   0  0  0  0  0  0  0  0  0  0  0  0
  146.5716   71.2079  218.7462 H   0  0  0  0  0  0  0  0  0  0  0  0
  144.6220   70.7660  219.5780 C   0  0  0  0  0  0  0  0  0  0  0  0
  144.6894   69.6906  219.3569 H   0  0  0  0  0  0  0  0  0  0  0  0
  143.4800   71.2810  220.1960 C   0  0  0  0  0  0  0  0  0  0  0  0
  142.6540   70.6060  220.4646 H   0  0  0  0  0  0  0  0  0  0  0  0
  143.3770   72.6560  220.4780 C   0  0  0  0  0  0  0  0  0  0  0  0
  142.1510   73.1690  221.1350 C   0  0  0  0  0  0  0  0  0  0  0  0
  141.3640   72.3100  221.8350 N   0  0  0  0  0  0  0  0  0  0  0  0
  140.2230   72.7440  222.4300 C   0  0  0  0  0  0  0  0  0  0  0  0
  139.4580   71.9250  223.0890 N   0  0  0  0  0  0  0  0  0  0  0  0
  139.9330   70.8650  223.9830 C   0  0  1  0  0  0  0  0  0  0  0  0
  140.6045   70.1989  223.4214 H   0  0  0  0  0  0  0  0  0  0  0  0
  140.7170   71.4920  225.1650 C   0  0  0  0  0  0  0  0  0  0  0  0
  140.3887   72.5345  225.2892 H   0  0  0  0  0  0  0  0  0  0  0  0
  141.7876   71.4238  224.9217 H   0  0  0  0  0  0  0  0  0  0  0  0
  140.5090   70.7790  226.4400 N   0  0  0  0  0  0  0  0  0  0  0  0
  141.3060   71.0120  227.0770 H   0  0  0  0  0  0  0  0  0  0  0  0
  140.4890   69.3260  226.2440 C   0  0  0  0  0  0  0  0  0  0  0  0
  140.4718   68.8283  227.2248 H   0  0  0  0  0  0  0  0  0  0  0  0
  141.3886   69.0293  225.6848 H   0  0  0  0  0  0  0  0  0  0  0  0
  139.2430   68.9090  225.4420 C   0  0  0  0  0  0  0  0  0  0  0  0
  138.4354   68.6617  226.1467 H   0  0  0  0  0  0  0  0  0  0  0  0
  139.5165   68.0417  224.8231 H   0  0  0  0  0  0  0  0  0  0  0  0
  138.7540   70.0220  224.5010 C   0  0  0  0  0  0  0  0  0  0  0  0
  138.0579   70.6751  225.0477 H   0  0  0  0  0  0  0  0  0  0  0  0
  138.2512   69.5570  223.6402 H   0  0  0  0  0  0  0  0  0  0  0  0
  139.8740   74.0490  222.3330 N   0  0  0  0  0  0  0  0  0  0  0  0
  140.6490   74.9240  221.6370 C   0  0  0  0  0  0  0  0  0  0  0  0
  140.2480   76.3040  221.5330 N   0  0  0  0  0  0  0  0  0  0  0  0
  139.9990   77.1350  222.7150 C   0  0  0  0  0  0  0  0  0  0  0  0
  140.2290   76.5553  223.6211 H   0  0  0  0  0  0  0  0  0  0  0  0
  138.9423   77.4407  222.7213 H   0  0  0  0  0  0  0  0  0  0  0  0
  140.8660   78.3680  222.6800 C   0  0  0  0  0  0  0  0  0  0  0  0
  141.0340   79.1240  223.8500 C   0  0  0  0  0  0  0  0  0  0  0  0
  140.5738   78.7860  224.7902 H   0  0  0  0  0  0  0  0  0  0  0  0
  141.7820   80.3030  223.8280 C   0  0  0  0  0  0  0  0  0  0  0  0
  141.9136   80.8864  224.7512 H   0  0  0  0  0  0  0  0  0  0  0  0
  142.3630   80.7430  222.6380 C   0  0  0  0  0  0  0  0  0  0  0  0
  142.9538   81.6708  222.6253 H   0  0  0  0  0  0  0  0  0  0  0  0
  142.1950   80.0060  221.4620 C   0  0  0  0  0  0  0  0  0  0  0  0
  142.6618   80.3533  220.5285 H   0  0  0  0  0  0  0  0  0  0  0  0
  141.4350   78.8260  221.4640 C   0  0  0  0  0  0  0  0  0  0  0  0
  141.3350   78.0180  220.1870 C   0  0  0  0  0  0  0  0  0  0  0  0
  142.2901   77.4975  220.0232 H   0  0  0  0  0  0  0  0  0  0  0  0
  141.1087   78.7155  219.3671 H   0  0  0  0  0  0  0  0  0  0  0  0
  140.2120   76.9790  220.2370 C   0  0  0  0  0  0  0  0  0  0  0  0
  140.3548   76.2421  219.4329 H   0  0  0  0  0  0  0  0  0  0  0  0
  139.2395   77.4750  220.1023 H   0  0  0  0  0  0  0  0  0  0  0  0
  141.7750   74.4740  221.0150 N   0  0  0  0  0  0  0  0  0  0  0  0
  142.3190   75.1160  220.3980 H   0  0  0  0  0  0  0  0  0  0  0  0
  1  2  1  0
  2  3  1  0
  3  4  2  0
  4  5  1  0
  4  6  1  0
  6  7  1  0
  6  8  2  0
  8  9  1  0
  8 10  1  0
 10 11  1  0
 10 12  2  0
 12 13  1  0
 13 14  2  0
 14 15  1  0
 15 16  2  0
 16 17  1  0
 17 18  1  6
 17 19  1  0
 19 20  1  0
 19 21  1  0
 19 22  1  0
 22 23  1  0
 22 24  1  0
 24 25  1  0
 24 26  1  0
 24 27  1  0
 27 28  1  0
 27 29  1  0
 27 30  1  0
 30 31  1  0
 30 32  1  0
 15 33  1  0
 33 34  2  0
 34 35  1  0
 35 36  1  0
 36 37  1  0
 36 38  1  0
 36 39  1  0
 39 40  2  0
 40 41  1  0
 40 42  1  0
 42 43  1  0
 42 44  2  0
 44 45  1  0
 44 46  1  0
 46 47  1  0
 46 48  2  0
 48 49  1  0
 49 50  1  0
 49 51  1  0
 49 52  1  0
 52 53  1  0
 52 54  1  0
 34 55  1  0
 55 56  1  0
 12  3  1  0
 55 13  1  0
 30 17  1  0
 52 35  1  0
 48 39  1  0
M  END
>  <UniqueID>  (75) 
485

>  <SMILES>  (75) 
Oc1ccccc1-c1n/c(=N\[C@@H]2CCCNC2)nc(N2CCc3ccccc3C2)[nH]1

>  <Energy>  (75) 
74.54154189360749

>  <Genealogy>  (75) 
Oc1ccccc1-c1nc(=NC2CCCNC2)nc(N2CCc3ccccc3C2)[nH]1 (tautomer)
Oc1ccccc1-c1nc(=N[C@@H]2CCCNC2)nc(N2CCc3ccccc3C2)[nH]1 (chirality)
Oc1ccccc1-c1n/c(=N\[C@@H]2CCCNC2)nc(N2CCc3ccccc3C2)[nH]1 (cis-trans isomerization)
Oc1ccccc1-c1n/c(=N\[C@@H]2CCCNC2)nc(N2CCc3ccccc3C2)[nH]1 (3D coordinates assigned)
Oc1ccccc1-c1n/c(=N\[C@@H]2CCCNC2)nc(N2CCc3ccccc3C2)[nH]1 (nonaromatic ring conformer: 74.54154189360749 kcal/mol)

>  <smiles>  (75) 
Oc1ccccc1-c1nc(NC2CCCNC2)nc(N2CCc3ccccc3C2)n1

>  <score_type>  (75) 
oracle

>  <origin>  (75) 
autodockgpu

>  <m_score__min__energy>  (75) 
-8.4900000000000002

>  <m_primary>  (75) 
energy

>  <meeko>  (75) 
{"free_energy": -8.41, "intermolecular_energy": -9.91, "internal_energy": -1.3, "cluster_size": 11, "cluster_id": 2, "rank_in_cluster": 6}

>  <energy>  (75) 
-8.07

>  <cluster_rmsd>  (75) 
0.98

>  <rmsd>  (75) 
271.89

>  <cluster>  (75) 
2

$$$$
UQJJBYVBPBMERE-JUZPGEPYNA-N
     RDKit          3D

 56 60  0  0  0  0  0  0  0  0999 V2000
  143.8070   75.2350  221.2000 H   0  0  0  0  0  0  0  0  0  0  0  0
  144.4320   74.8670  220.4910 O   0  0  0  0  0  0  0  0  0  0  0  0
  144.4860   73.5050  220.1980 C   0  0  0  0  0  0  0  0  0  0  0  0
  145.6340   72.9720  219.5920 C   0  0  0  0  0  0  0  0  0  0  0  0
  146.4656   73.6372  219.3163 H   0  0  0  0  0  0  0  0  0  0  0  0
  145.7270   71.6030  219.3370 C   0  0  0  0  0  0  0  0  0  0  0  0
  146.6286   71.1935  218.8579 H   0  0  0  0  0  0  0  0  0  0  0  0
  144.6780   70.7530  219.6890 C   0  0  0  0  0  0  0  0  0  0  0  0
  144.7573   69.6729  219.4963 H   0  0  0  0  0  0  0  0  0  0  0  0
  143.5270   71.2730  220.2860 C   0  0  0  0  0  0  0  0  0  0  0  0
  142.7055   70.5972  220.5662 H   0  0  0  0  0  0  0  0  0  0  0  0
  143.4090   72.6530  220.5320 C   0  0  0  0  0  0  0  0  0  0  0  0
  142.1740   73.1710  221.1680 C   0  0  0  0  0  0  0  0  0  0  0  0
  141.3780   72.3180  221.8650 N   0  0  0  0  0  0  0  0  0  0  0  0
  140.2290   72.7570  222.4400 C   0  0  0  0  0  0  0  0  0  0  0  0
  139.4560   71.9430  223.0970 N   0  0  0  0  0  0  0  0  0  0  0  0
  139.9210   70.8850  223.9990 C   0  0  1  0  0  0  0  0  0  0  0  0
  140.5664   70.1937  223.4373 H   0  0  0  0  0  0  0  0  0  0  0  0
  140.7400   71.5110  225.1570 C   0  0  0  0  0  0  0  0  0  0  0  0
  140.4390   72.5630  225.2700 H   0  0  0  0  0  0  0  0  0  0  0  0
  141.8043   71.4131  224.8967 H   0  0  0  0  0  0  0  0  0  0  0  0
  140.5370   70.8230  226.4470 N   0  0  0  0  0  0  0  0  0  0  0  0
  141.3510   71.0450  227.0670 H   0  0  0  0  0  0  0  0  0  0  0  0
  140.4780   69.3670  226.2740 C   0  0  0  0  0  0  0  0  0  0  0  0
  140.4659   68.8848  227.2626 H   0  0  0  0  0  0  0  0  0  0  0  0
  141.3601   69.0395  225.7043 H   0  0  0  0  0  0  0  0  0  0  0  0
  139.2080   68.9690  225.5000 C   0  0  0  0  0  0  0  0  0  0  0  0
  138.4070   68.7526  226.2222 H   0  0  0  0  0  0  0  0  0  0  0  0
  139.4491   68.0859  224.8900 H   0  0  0  0  0  0  0  0  0  0  0  0
  138.7300   70.0800  224.5500 C   0  0  0  0  0  0  0  0  0  0  0  0
  138.0600   70.7586  225.0983 H   0  0  0  0  0  0  0  0  0  0  0  0
  138.2005   69.6151  223.7053 H   0  0  0  0  0  0  0  0  0  0  0  0
  139.8800   74.0610  222.3270 N   0  0  0  0  0  0  0  0  0  0  0  0
  140.6630   74.9290  221.6330 C   0  0  0  0  0  0  0  0  0  0  0  0
  140.2620   76.3070  221.5110 N   0  0  0  0  0  0  0  0  0  0  0  0
  139.9720   77.1430  222.6800 C   0  0  0  0  0  0  0  0  0  0  0  0
  140.1726   76.5678  223.5959 H   0  0  0  0  0  0  0  0  0  0  0  0
  138.9152   77.4466  222.6489 H   0  0  0  0  0  0  0  0  0  0  0  0
  140.8370   78.3780  222.6690 C   0  0  0  0  0  0  0  0  0  0  0  0
  140.9640   79.1390  223.8420 C   0  0  0  0  0  0  0  0  0  0  0  0
  140.4734   78.8034  224.7676 H   0  0  0  0  0  0  0  0  0  0  0  0
  141.7100   80.3200  223.8400 C   0  0  0  0  0  0  0  0  0  0  0  0
  141.8106   80.9074  224.7646 H   0  0  0  0  0  0  0  0  0  0  0  0
  142.3280   80.7560  222.6670 C   0  0  0  0  0  0  0  0  0  0  0  0
  142.9166   81.6853  222.6698 H   0  0  0  0  0  0  0  0  0  0  0  0
  142.2010   80.0150  221.4890 C   0  0  0  0  0  0  0  0  0  0  0  0
  142.6971   80.3604  220.5700 H   0  0  0  0  0  0  0  0  0  0  0  0
  141.4440   78.8320  221.4710 C   0  0  0  0  0  0  0  0  0  0  0  0
  141.3890   78.0200  220.1950 C   0  0  0  0  0  0  0  0  0  0  0  0
  142.3505   77.5017  220.0650 H   0  0  0  0  0  0  0  0  0  0  0  0
  141.1882   78.7141  219.3656 H   0  0  0  0  0  0  0  0  0  0  0  0
  140.2680   76.9780  220.2110 C   0  0  0  0  0  0  0  0  0  0  0  0
  140.4399   76.2387  219.4149 H   0  0  0  0  0  0  0  0  0  0  0  0
  139.2992   77.4708  220.0419 H   0  0  0  0  0  0  0  0  0  0  0  0
  141.7980   74.4750  221.0300 N   0  0  0  0  0  0  0  0  0  0  0  0
  142.3490   75.1120  220.4140 H   0  0  0  0  0  0  0  0  0  0  0  0
  1  2  1  0
  2  3  1  0
  3  4  2  0
  4  5  1  0
  4  6  1  0
  6  7  1  0
  6  8  2  0
  8  9  1  0
  8 10  1  0
 10 11  1  0
 10 12  2  0
 12 13  1  0
 13 14  2  0
 14 15  1  0
 15 16  2  0
 16 17  1  0
 17 18  1  6
 17 19  1  0
 19 20  1  0
 19 21  1  0
 19 22  1  0
 22 23  1  0
 22 24  1  0
 24 25  1  0
 24 26  1  0
 24 27  1  0
 27 28  1  0
 27 29  1  0
 27 30  1  0
 30 31  1  0
 30 32  1  0
 15 33  1  0
 33 34  2  0
 34 35  1  0
 35 36  1  0
 36 37  1  0
 36 38  1  0
 36 39  1  0
 39 40  2  0
 40 41  1  0
 40 42  1  0
 42 43  1  0
 42 44  2  0
 44 45  1  0
 44 46  1  0
 46 47  1  0
 46 48  2  0
 48 49  1  0
 49 50  1  0
 49 51  1  0
 49 52  1  0
 52 53  1  0
 52 54  1  0
 34 55  1  0
 55 56  1  0
 12  3  1  0
 55 13  1  0
 30 17  1  0
 52 35  1  0
 48 39  1  0
M  END
>  <UniqueID>  (76) 
485

>  <SMILES>  (76) 
Oc1ccccc1-c1n/c(=N\[C@@H]2CCCNC2)nc(N2CCc3ccccc3C2)[nH]1

>  <Energy>  (76) 
74.54154189360749

>  <Genealogy>  (76) 
Oc1ccccc1-c1nc(=NC2CCCNC2)nc(N2CCc3ccccc3C2)[nH]1 (tautomer)
Oc1ccccc1-c1nc(=N[C@@H]2CCCNC2)nc(N2CCc3ccccc3C2)[nH]1 (chirality)
Oc1ccccc1-c1n/c(=N\[C@@H]2CCCNC2)nc(N2CCc3ccccc3C2)[nH]1 (cis-trans isomerization)
Oc1ccccc1-c1n/c(=N\[C@@H]2CCCNC2)nc(N2CCc3ccccc3C2)[nH]1 (3D coordinates assigned)
Oc1ccccc1-c1n/c(=N\[C@@H]2CCCNC2)nc(N2CCc3ccccc3C2)[nH]1 (nonaromatic ring conformer: 74.54154189360749 kcal/mol)

>  <smiles>  (76) 
Oc1ccccc1-c1nc(NC2CCCNC2)nc(N2CCc3ccccc3C2)n1

>  <score_type>  (76) 
oracle

>  <origin>  (76) 
autodockgpu

>  <m_score__min__energy>  (76) 
-8.4900000000000002

>  <m_primary>  (76) 
energy

>  <meeko>  (76) 
{"free_energy": -8.43, "intermolecular_energy": -9.92, "internal_energy": -1.3, "cluster_size": 11, "cluster_id": 2, "rank_in_cluster": 2}

>  <energy>  (76) 
-8.32

>  <cluster_rmsd>  (76) 
0.0

>  <rmsd>  (76) 
271.2

>  <cluster>  (76) 
3

$$$$
UQJJBYVBPBMERE-JUZPGEPYNA-N
     RDKit          3D

 56 60  0  0  0  0  0  0  0  0999 V2000
  138.9790   74.5630  223.0460 H   0  0  0  0  0  0  0  0  0  0  0  0
  139.5410   74.8550  222.2550 O   0  0  0  0  0  0  0  0  0  0  0  0
  140.5440   74.0410  221.7280 C   0  0  0  0  0  0  0  0  0  0  0  0
  141.5930   74.6200  220.9980 C   0  0  0  0  0  0  0  0  0  0  0  0
  141.5970   75.7043  220.8129 H   0  0  0  0  0  0  0  0  0  0  0  0
  142.6320   73.8280  220.5050 C   0  0  0  0  0  0  0  0  0  0  0  0
  143.4490   74.2882  219.9299 H   0  0  0  0  0  0  0  0  0  0  0  0
  142.6340   72.4520  220.7420 C   0  0  0  0  0  0  0  0  0  0  0  0
  143.4584   71.8305  220.3625 H   0  0  0  0  0  0  0  0  0  0  0  0
  141.5910   71.8640  221.4600 C   0  0  0  0  0  0  0  0  0  0  0  0
  141.6016   70.7800  221.6469 H   0  0  0  0  0  0  0  0  0  0  0  0
  140.5260   72.6450  221.9470 C   0  0  0  0  0  0  0  0  0  0  0  0
  139.4360   71.9880  222.7060 C   0  0  0  0  0  0  0  0  0  0  0  0
  139.6880   70.8200  223.3530 N   0  0  0  0  0  0  0  0  0  0  0  0
  138.7040   70.1820  224.0390 C   0  0  0  0  0  0  0  0  0  0  0  0
  138.9350   69.0580  224.6490 N   0  0  0  0  0  0  0  0  0  0  0  0
  139.3090   68.9260  226.0600 C   0  0  1  0  0  0  0  0  0  0  0  0
  138.4022   68.9993  226.6784 H   0  0  0  0  0  0  0  0  0  0  0  0
  139.9700   67.5440  226.2970 C   0  0  0  0  0  0  0  0  0  0  0  0
  140.3750   67.1809  225.3409 H   0  0  0  0  0  0  0  0  0  0  0  0
  139.1949   66.8735  226.6966 H   0  0  0  0  0  0  0  0  0  0  0  0
  141.0660   67.5890  227.2850 N   0  0  0  0  0  0  0  0  0  0  0  0
  141.2120   66.6200  227.6530 H   0  0  0  0  0  0  0  0  0  0  0  0
  140.7330   68.4620  228.4160 C   0  0  0  0  0  0  0  0  0  0  0  0
  141.5073   68.3625  229.1910 H   0  0  0  0  0  0  0  0  0  0  0  0
  139.7539   68.1651  228.8200 H   0  0  0  0  0  0  0  0  0  0  0  0
  140.6600   69.9300  227.9570 C   0  0  0  0  0  0  0  0  0  0  0  0
  141.6470   70.3943  228.0995 H   0  0  0  0  0  0  0  0  0  0  0  0
  139.8881   70.4318  228.5589 H   0  0  0  0  0  0  0  0  0  0  0  0
  140.2610   70.0620  226.4780 C   0  0  0  0  0  0  0  0  0  0  0  0
  141.1671   70.0193  225.8557 H   0  0  0  0  0  0  0  0  0  0  0  0
  139.7431   71.0224  226.3390 H   0  0  0  0  0  0  0  0  0  0  0  0
  137.4640   70.7240  224.0870 N   0  0  0  0  0  0  0  0  0  0  0  0
  137.1930   71.8920  223.4460 C   0  0  0  0  0  0  0  0  0  0  0  0
  135.8610   72.4390  223.4960 N   0  0  0  0  0  0  0  0  0  0  0  0
  134.7470   71.7260  224.1300 C   0  0  0  0  0  0  0  0  0  0  0  0
  135.1217   70.7951  224.5806 H   0  0  0  0  0  0  0  0  0  0  0  0
  133.9885   71.4971  223.3669 H   0  0  0  0  0  0  0  0  0  0  0  0
  134.1210   72.5800  225.2020 C   0  0  0  0  0  0  0  0  0  0  0  0
  133.2700   71.9840  226.1460 C   0  0  0  0  0  0  0  0  0  0  0  0
  133.1068   70.8964  226.1251 H   0  0  0  0  0  0  0  0  0  0  0  0
  132.6290   72.7640  227.1120 C   0  0  0  0  0  0  0  0  0  0  0  0
  131.9689   72.2884  227.8523 H   0  0  0  0  0  0  0  0  0  0  0  0
  132.8250   74.1460  227.1390 C   0  0  0  0  0  0  0  0  0  0  0  0
  132.3208   74.7572  227.9021 H   0  0  0  0  0  0  0  0  0  0  0  0
  133.6600   74.7540  226.1990 C   0  0  0  0  0  0  0  0  0  0  0  0
  133.8167   75.8423  226.2314 H   0  0  0  0  0  0  0  0  0  0  0  0
  134.3010   73.9870  225.2130 C   0  0  0  0  0  0  0  0  0  0  0  0
  135.2540   74.6720  224.2570 C   0  0  0  0  0  0  0  0  0  0  0  0
  136.1851   74.9057  224.7940 H   0  0  0  0  0  0  0  0  0  0  0  0
  134.7603   75.5832  223.8883 H   0  0  0  0  0  0  0  0  0  0  0  0
  135.5920   73.8030  223.0440 C   0  0  0  0  0  0  0  0  0  0  0  0
  136.4816   74.2061  222.5380 H   0  0  0  0  0  0  0  0  0  0  0  0
  134.7463   73.8015  222.3406 H   0  0  0  0  0  0  0  0  0  0  0  0
  138.1760   72.5090  222.7320 N   0  0  0  0  0  0  0  0  0  0  0  0
  137.9500   73.3500  222.1570 H   0  0  0  0  0  0  0  0  0  0  0  0
  1  2  1  0
  2  3  1  0
  3  4  2  0
  4  5  1  0
  4  6  1  0
  6  7  1  0
  6  8  2  0
  8  9  1  0
  8 10  1  0
 10 11  1  0
 10 12  2  0
 12 13  1  0
 13 14  2  0
 14 15  1  0
 15 16  2  0
 16 17  1  0
 17 18  1  1
 17 19  1  0
 19 20  1  0
 19 21  1  0
 19 22  1  0
 22 23  1  0
 22 24  1  0
 24 25  1  0
 24 26  1  0
 24 27  1  0
 27 28  1  0
 27 29  1  0
 27 30  1  0
 30 31  1  0
 30 32  1  0
 15 33  1  0
 33 34  2  0
 34 35  1  0
 35 36  1  0
 36 37  1  0
 36 38  1  0
 36 39  1  0
 39 40  2  0
 40 41  1  0
 40 42  1  0
 42 43  1  0
 42 44  2  0
 44 45  1  0
 44 46  1  0
 46 47  1  0
 46 48  2  0
 48 49  1  0
 49 50  1  0
 49 51  1  0
 49 52  1  0
 52 53  1  0
 52 54  1  0
 34 55  1  0
 55 56  1  0
 12  3  1  0
 55 13  1  0
 30 17  1  0
 52 35  1  0
 48 39  1  0
M  END
>  <UniqueID>  (77) 
485

>  <SMILES>  (77) 
Oc1ccccc1-c1n/c(=N\[C@@H]2CCCNC2)nc(N2CCc3ccccc3C2)[nH]1

>  <Energy>  (77) 
74.54154189360749

>  <Genealogy>  (77) 
Oc1ccccc1-c1nc(=NC2CCCNC2)nc(N2CCc3ccccc3C2)[nH]1 (tautomer)
Oc1ccccc1-c1nc(=N[C@@H]2CCCNC2)nc(N2CCc3ccccc3C2)[nH]1 (chirality)
Oc1ccccc1-c1n/c(=N\[C@@H]2CCCNC2)nc(N2CCc3ccccc3C2)[nH]1 (cis-trans isomerization)
Oc1ccccc1-c1n/c(=N\[C@@H]2CCCNC2)nc(N2CCc3ccccc3C2)[nH]1 (3D coordinates assigned)
Oc1ccccc1-c1n/c(=N\[C@@H]2CCCNC2)nc(N2CCc3ccccc3C2)[nH]1 (nonaromatic ring conformer: 74.54154189360749 kcal/mol)

>  <smiles>  (77) 
Oc1ccccc1-c1nc(NC2CCCNC2)nc(N2CCc3ccccc3C2)n1

>  <score_type>  (77) 
oracle

>  <origin>  (77) 
autodockgpu

>  <m_score__min__energy>  (77) 
-8.4900000000000002

>  <m_primary>  (77) 
energy

>  <meeko>  (77) 
{"free_energy": -8.49, "intermolecular_energy": -9.98, "internal_energy": -1.35, "cluster_size": 4, "cluster_id": 1, "rank_in_cluster": 1}

>  <energy>  (77) 
-8.31

>  <cluster_rmsd>  (77) 
0.03

>  <rmsd>  (77) 
271.22

>  <cluster>  (77) 
3

$$$$
UQJJBYVBPBMERE-JUZPGEPYNA-N
     RDKit          3D

 56 60  0  0  0  0  0  0  0  0999 V2000
  138.9900   74.5230  223.0320 H   0  0  0  0  0  0  0  0  0  0  0  0
  139.5500   74.8050  222.2360 O   0  0  0  0  0  0  0  0  0  0  0  0
  140.5370   73.9750  221.7040 C   0  0  0  0  0  0  0  0  0  0  0  0
  141.5920   74.5380  220.9700 C   0  0  0  0  0  0  0  0  0  0  0  0
  141.6122   75.6222  220.7852 H   0  0  0  0  0  0  0  0  0  0  0  0
  142.6160   73.7300  220.4730 C   0  0  0  0  0  0  0  0  0  0  0  0
  143.4380   74.1779  219.8954 H   0  0  0  0  0  0  0  0  0  0  0  0
  142.5980   72.3550  220.7080 C   0  0  0  0  0  0  0  0  0  0  0  0
  143.4108   71.7213  220.3235 H   0  0  0  0  0  0  0  0  0  0  0  0
  141.5490   71.7820  221.4310 C   0  0  0  0  0  0  0  0  0  0  0  0
  141.5437   70.6980  221.6181 H   0  0  0  0  0  0  0  0  0  0  0  0
  140.4990   72.5800  221.9220 C   0  0  0  0  0  0  0  0  0  0  0  0
  139.4010   71.9400  222.6860 C   0  0  0  0  0  0  0  0  0  0  0  0
  139.6390   70.7700  223.3350 N   0  0  0  0  0  0  0  0  0  0  0  0
  138.6490   70.1470  224.0250 C   0  0  0  0  0  0  0  0  0  0  0  0
  138.8660   69.0220  224.6380 N   0  0  0  0  0  0  0  0  0  0  0  0
  139.2640   68.8910  226.0420 C   0  0  1  0  0  0  0  0  0  0  0  0
  138.3668   68.9571  226.6750 H   0  0  0  0  0  0  0  0  0  0  0  0
  139.9390   67.5130  226.2660 C   0  0  0  0  0  0  0  0  0  0  0  0
  140.3302   67.1540  225.3026 H   0  0  0  0  0  0  0  0  0  0  0  0
  139.1755   66.8368  226.6780 H   0  0  0  0  0  0  0  0  0  0  0  0
  141.0510   67.5640  227.2350 N   0  0  0  0  0  0  0  0  0  0  0  0
  141.2110   66.5960  227.5990 H   0  0  0  0  0  0  0  0  0  0  0  0
  140.7300   68.4320  228.3730 C   0  0  0  0  0  0  0  0  0  0  0  0
  141.5173   68.3363  229.1352 H   0  0  0  0  0  0  0  0  0  0  0  0
  139.7595   68.1272  228.7916 H   0  0  0  0  0  0  0  0  0  0  0  0
  140.6390   69.9010  227.9190 C   0  0  0  0  0  0  0  0  0  0  0  0
  141.6250   70.3719  228.0459 H   0  0  0  0  0  0  0  0  0  0  0  0
  139.8742   70.3963  228.5352 H   0  0  0  0  0  0  0  0  0  0  0  0
  140.2140   70.0330  226.4470 C   0  0  0  0  0  0  0  0  0  0  0  0
  141.1098   69.9987  225.8096 H   0  0  0  0  0  0  0  0  0  0  0  0
  139.6862   70.9896  226.3192 H   0  0  0  0  0  0  0  0  0  0  0  0
  137.4150   70.7050  224.0740 N   0  0  0  0  0  0  0  0  0  0  0  0
  137.1580   71.8750  223.4300 C   0  0  0  0  0  0  0  0  0  0  0  0
  135.8340   72.4400  223.4820 N   0  0  0  0  0  0  0  0  0  0  0  0
  134.7120   71.7410  224.1150 C   0  0  0  0  0  0  0  0  0  0  0  0
  135.0748   70.8050  224.5649 H   0  0  0  0  0  0  0  0  0  0  0  0
  133.9505   71.5217  223.3521 H   0  0  0  0  0  0  0  0  0  0  0  0
  134.0970   72.6040  225.1890 C   0  0  0  0  0  0  0  0  0  0  0  0
  133.2390   72.0190  226.1330 C   0  0  0  0  0  0  0  0  0  0  0  0
  133.0616   70.9336  226.1120 H   0  0  0  0  0  0  0  0  0  0  0  0
  132.6090   72.8070  227.0990 C   0  0  0  0  0  0  0  0  0  0  0  0
  131.9423   72.3401  227.8389 H   0  0  0  0  0  0  0  0  0  0  0  0
  132.8240   74.1860  227.1270 C   0  0  0  0  0  0  0  0  0  0  0  0
  132.3295   74.8035  227.8914 H   0  0  0  0  0  0  0  0  0  0  0  0
  133.6660   74.7830  226.1860 C   0  0  0  0  0  0  0  0  0  0  0  0
  133.8361   75.8693  226.2177 H   0  0  0  0  0  0  0  0  0  0  0  0
  134.2970   74.0080  225.2000 C   0  0  0  0  0  0  0  0  0  0  0  0
  135.2580   74.6810  224.2430 C   0  0  0  0  0  0  0  0  0  0  0  0
  136.1928   74.9021  224.7790 H   0  0  0  0  0  0  0  0  0  0  0  0
  134.7760   75.5989  223.8754 H   0  0  0  0  0  0  0  0  0  0  0  0
  135.5830   73.8080  223.0290 C   0  0  0  0  0  0  0  0  0  0  0  0
  136.4775   74.1990  222.5220 H   0  0  0  0  0  0  0  0  0  0  0  0
  134.7372   73.8182  222.3258 H   0  0  0  0  0  0  0  0  0  0  0  0
  138.1480   72.4770  222.7130 N   0  0  0  0  0  0  0  0  0  0  0  0
  137.9320   73.3190  222.1350 H   0  0  0  0  0  0  0  0  0  0  0  0
  1  2  1  0
  2  3  1  0
  3  4  2  0
  4  5  1  0
  4  6  1  0
  6  7  1  0
  6  8  2  0
  8  9  1  0
  8 10  1  0
 10 11  1  0
 10 12  2  0
 12 13  1  0
 13 14  2  0
 14 15  1  0
 15 16  2  0
 16 17  1  0
 17 18  1  1
 17 19  1  0
 19 20  1  0
 19 21  1  0
 19 22  1  0
 22 23  1  0
 22 24  1  0
 24 25  1  0
 24 26  1  0
 24 27  1  0
 27 28  1  0
 27 29  1  0
 27 30  1  0
 30 31  1  0
 30 32  1  0
 15 33  1  0
 33 34  2  0
 34 35  1  0
 35 36  1  0
 36 37  1  0
 36 38  1  0
 36 39  1  0
 39 40  2  0
 40 41  1  0
 40 42  1  0
 42 43  1  0
 42 44  2  0
 44 45  1  0
 44 46  1  0
 46 47  1  0
 46 48  2  0
 48 49  1  0
 49 50  1  0
 49 51  1  0
 49 52  1  0
 52 53  1  0
 52 54  1  0
 34 55  1  0
 55 56  1  0
 12  3  1  0
 55 13  1  0
 30 17  1  0
 52 35  1  0
 48 39  1  0
M  END
>  <UniqueID>  (78) 
485

>  <SMILES>  (78) 
Oc1ccccc1-c1n/c(=N\[C@@H]2CCCNC2)nc(N2CCc3ccccc3C2)[nH]1

>  <Energy>  (78) 
74.54154189360749

>  <Genealogy>  (78) 
Oc1ccccc1-c1nc(=NC2CCCNC2)nc(N2CCc3ccccc3C2)[nH]1 (tautomer)
Oc1ccccc1-c1nc(=N[C@@H]2CCCNC2)nc(N2CCc3ccccc3C2)[nH]1 (chirality)
Oc1ccccc1-c1n/c(=N\[C@@H]2CCCNC2)nc(N2CCc3ccccc3C2)[nH]1 (cis-trans isomerization)
Oc1ccccc1-c1n/c(=N\[C@@H]2CCCNC2)nc(N2CCc3ccccc3C2)[nH]1 (3D coordinates assigned)
Oc1ccccc1-c1n/c(=N\[C@@H]2CCCNC2)nc(N2CCc3ccccc3C2)[nH]1 (nonaromatic ring conformer: 74.54154189360749 kcal/mol)

>  <smiles>  (78) 
Oc1ccccc1-c1nc(NC2CCCNC2)nc(N2CCc3ccccc3C2)n1

>  <score_type>  (78) 
oracle

>  <origin>  (78) 
autodockgpu

>  <m_score__min__energy>  (78) 
-8.4900000000000002

>  <m_primary>  (78) 
energy

>  <meeko>  (78) 
{"free_energy": -8.49, "intermolecular_energy": -9.98, "internal_energy": -1.35, "cluster_size": 4, "cluster_id": 1, "rank_in_cluster": 2}

>  <energy>  (78) 
-8.13

>  <cluster_rmsd>  (78) 
0.0

>  <rmsd>  (78) 
271.7

>  <cluster>  (78) 
4

$$$$
UQJJBYVBPBMERE-JUZPGEPYNA-N
     RDKit          3D

 56 60  0  0  0  0  0  0  0  0999 V2000
  145.1880   75.2230  220.0730 H   0  0  0  0  0  0  0  0  0  0  0  0
  144.5000   74.5930  220.4690 O   0  0  0  0  0  0  0  0  0  0  0  0
  144.4870   73.2330  220.1570 C   0  0  0  0  0  0  0  0  0  0  0  0
  145.6040   72.6560  219.5330 C   0  0  0  0  0  0  0  0  0  0  0  0
  146.4638   73.2851  219.2593 H   0  0  0  0  0  0  0  0  0  0  0  0
  145.6290   71.2870  219.2580 C   0  0  0  0  0  0  0  0  0  0  0  0
  146.5061   70.8417  218.7655 H   0  0  0  0  0  0  0  0  0  0  0  0
  144.5430   70.4830  219.6070 C   0  0  0  0  0  0  0  0  0  0  0  0
  144.5689   69.4032  219.3986 H   0  0  0  0  0  0  0  0  0  0  0  0
  143.4230   71.0490  220.2210 C   0  0  0  0  0  0  0  0  0  0  0  0
  142.5722   70.4093  220.4984 H   0  0  0  0  0  0  0  0  0  0  0  0
  143.3730   72.4300  220.4880 C   0  0  0  0  0  0  0  0  0  0  0  0
  142.1690   72.9970  221.1410 C   0  0  0  0  0  0  0  0  0  0  0  0
  141.3810   72.1880  221.8970 N   0  0  0  0  0  0  0  0  0  0  0  0
  140.2600   72.6710  222.4910 C   0  0  0  0  0  0  0  0  0  0  0  0
  139.4940   71.9000  223.2040 N   0  0  0  0  0  0  0  0  0  0  0  0
  139.9670   70.8570  224.1180 C   0  0  1  0  0  0  0  0  0  0  0  0
  140.6718   70.2050  223.5813 H   0  0  0  0  0  0  0  0  0  0  0  0
  140.6980   71.5090  225.3190 C   0  0  0  0  0  0  0  0  0  0  0  0
  140.3400   72.5435  225.4271 H   0  0  0  0  0  0  0  0  0  0  0  0
  141.7769   71.4665  225.1088 H   0  0  0  0  0  0  0  0  0  0  0  0
  140.4690   70.7970  226.5920 N   0  0  0  0  0  0  0  0  0  0  0  0
  141.2410   71.0530  227.2520 H   0  0  0  0  0  0  0  0  0  0  0  0
  140.4920   69.3430  226.4040 C   0  0  0  0  0  0  0  0  0  0  0  0
  140.4572   68.8498  227.3866 H   0  0  0  0  0  0  0  0  0  0  0  0
  141.4157   69.0661  225.8748 H   0  0  0  0  0  0  0  0  0  0  0  0
  139.2810   68.8910  225.5660 C   0  0  0  0  0  0  0  0  0  0  0  0
  138.4584   68.6273  226.2470 H   0  0  0  0  0  0  0  0  0  0  0  0
  139.5946   68.0277  224.9607 H   0  0  0  0  0  0  0  0  0  0  0  0
  138.7940   69.9870  224.6040 C   0  0  0  0  0  0  0  0  0  0  0  0
  138.0651   70.6249  225.1253 H   0  0  0  0  0  0  0  0  0  0  0  0
  138.3302   69.5052  223.7306 H   0  0  0  0  0  0  0  0  0  0  0  0
  139.9320   73.9770  222.3360 N   0  0  0  0  0  0  0  0  0  0  0  0
  140.7080   74.8010  221.5830 C   0  0  0  0  0  0  0  0  0  0  0  0
  140.3290   76.1820  221.4190 N   0  0  0  0  0  0  0  0  0  0  0  0
  139.9190   77.0190  222.5510 C   0  0  0  0  0  0  0  0  0  0  0  0
  140.0180   76.4431  223.4829 H   0  0  0  0  0  0  0  0  0  0  0  0
  138.8727   77.3271  222.4082 H   0  0  0  0  0  0  0  0  0  0  0  0
  140.7860   78.2490  222.6320 C   0  0  0  0  0  0  0  0  0  0  0  0
  140.7900   79.0100  223.8120 C   0  0  0  0  0  0  0  0  0  0  0  0
  140.2017   78.6768  224.6797 H   0  0  0  0  0  0  0  0  0  0  0  0
  141.5370   80.1880  223.8900 C   0  0  0  0  0  0  0  0  0  0  0  0
  141.5395   80.7756  224.8199 H   0  0  0  0  0  0  0  0  0  0  0  0
  142.2800   80.6210  222.7910 C   0  0  0  0  0  0  0  0  0  0  0  0
  142.8698   81.5471  222.8575 H   0  0  0  0  0  0  0  0  0  0  0  0
  142.2760   79.8800  221.6060 C   0  0  0  0  0  0  0  0  0  0  0  0
  142.8690   80.2227  220.7453 H   0  0  0  0  0  0  0  0  0  0  0  0
  141.5200   78.7010  221.5070 C   0  0  0  0  0  0  0  0  0  0  0  0
  141.5980   77.8880  220.2320 C   0  0  0  0  0  0  0  0  0  0  0  0
  142.5653   77.3649  220.2059 H   0  0  0  0  0  0  0  0  0  0  0  0
  141.4907   78.5825  219.3857 H   0  0  0  0  0  0  0  0  0  0  0  0
  140.4770   76.8520  220.1280 C   0  0  0  0  0  0  0  0  0  0  0  0
  140.7293   76.1115  219.3547 H   0  0  0  0  0  0  0  0  0  0  0  0
  139.5343   77.3495  219.8565 H   0  0  0  0  0  0  0  0  0  0  0  0
  141.8140   74.3010  220.9640 N   0  0  0  0  0  0  0  0  0  0  0  0
  142.3560   74.9020  220.3050 H   0  0  0  0  0  0  0  0  0  0  0  0
  1  2  1  0
  2  3  1  0
  3  4  2  0
  4  5  1  0
  4  6  1  0
  6  7  1  0
  6  8  2  0
  8  9  1  0
  8 10  1  0
 10 11  1  0
 10 12  2  0
 12 13  1  0
 13 14  2  0
 14 15  1  0
 15 16  2  0
 16 17  1  0
 17 18  1  6
 17 19  1  0
 19 20  1  0
 19 21  1  0
 19 22  1  0
 22 23  1  0
 22 24  1  0
 24 25  1  0
 24 26  1  0
 24 27  1  0
 27 28  1  0
 27 29  1  0
 27 30  1  0
 30 31  1  0
 30 32  1  0
 15 33  1  0
 33 34  2  0
 34 35  1  0
 35 36  1  0
 36 37  1  0
 36 38  1  0
 36 39  1  0
 39 40  2  0
 40 41  1  0
 40 42  1  0
 42 43  1  0
 42 44  2  0
 44 45  1  0
 44 46  1  0
 46 47  1  0
 46 48  2  0
 48 49  1  0
 49 50  1  0
 49 51  1  0
 49 52  1  0
 52 53  1  0
 52 54  1  0
 34 55  1  0
 55 56  1  0
 12  3  1  0
 55 13  1  0
 30 17  1  0
 52 35  1  0
 48 39  1  0
M  END
>  <UniqueID>  (79) 
485

>  <SMILES>  (79) 
Oc1ccccc1-c1n/c(=N\[C@@H]2CCCNC2)nc(N2CCc3ccccc3C2)[nH]1

>  <Energy>  (79) 
74.54154189360749

>  <Genealogy>  (79) 
Oc1ccccc1-c1nc(=NC2CCCNC2)nc(N2CCc3ccccc3C2)[nH]1 (tautomer)
Oc1ccccc1-c1nc(=N[C@@H]2CCCNC2)nc(N2CCc3ccccc3C2)[nH]1 (chirality)
Oc1ccccc1-c1n/c(=N\[C@@H]2CCCNC2)nc(N2CCc3ccccc3C2)[nH]1 (cis-trans isomerization)
Oc1ccccc1-c1n/c(=N\[C@@H]2CCCNC2)nc(N2CCc3ccccc3C2)[nH]1 (3D coordinates assigned)
Oc1ccccc1-c1n/c(=N\[C@@H]2CCCNC2)nc(N2CCc3ccccc3C2)[nH]1 (nonaromatic ring conformer: 74.54154189360749 kcal/mol)

>  <smiles>  (79) 
Oc1ccccc1-c1nc(NC2CCCNC2)nc(N2CCc3ccccc3C2)n1

>  <score_type>  (79) 
oracle

>  <origin>  (79) 
autodockgpu

>  <m_score__min__energy>  (79) 
-8.4900000000000002

>  <m_primary>  (79) 
energy

>  <meeko>  (79) 
{"free_energy": -8.37, "intermolecular_energy": -9.87, "internal_energy": -1.33, "cluster_size": 11, "cluster_id": 2, "rank_in_cluster": 8}

>  <energy>  (79) 
-7.87

>  <cluster_rmsd>  (79) 
0.0

>  <rmsd>  (79) 
270.97

>  <cluster>  (79) 
5

$$$$
UQJJBYVBPBMERE-JUZPGEPYNA-N
     RDKit          3D

 56 60  0  0  0  0  0  0  0  0999 V2000
  141.6650   70.9310  220.3870 H   0  0  0  0  0  0  0  0  0  0  0  0
  142.5130   70.8160  219.8430 O   0  0  0  0  0  0  0  0  0  0  0  0
  143.6330   71.6210  220.0530 C   0  0  0  0  0  0  0  0  0  0  0  0
  144.8870   71.1970  219.5860 C   0  0  0  0  0  0  0  0  0  0  0  0
  144.9855   70.2178  219.0947 H   0  0  0  0  0  0  0  0  0  0  0  0
  146.0100   72.0120  219.7420 C   0  0  0  0  0  0  0  0  0  0  0  0
  146.9904   71.6723  219.3766 H   0  0  0  0  0  0  0  0  0  0  0  0
  145.8900   73.2570  220.3610 C   0  0  0  0  0  0  0  0  0  0  0  0
  146.7740   73.9019  220.4740 H   0  0  0  0  0  0  0  0  0  0  0  0
  144.6490   73.6850  220.8370 C   0  0  0  0  0  0  0  0  0  0  0  0
  144.5608   74.6694  221.3198 H   0  0  0  0  0  0  0  0  0  0  0  0
  143.5100   72.8690  220.7050 C   0  0  0  0  0  0  0  0  0  0  0  0
  142.2080   73.3550  221.2200 C   0  0  0  0  0  0  0  0  0  0  0  0
  141.3400   72.4660  221.7710 N   0  0  0  0  0  0  0  0  0  0  0  0
  140.1300   72.8750  222.2330 C   0  0  0  0  0  0  0  0  0  0  0  0
  139.2890   72.0290  222.7480 N   0  0  0  0  0  0  0  0  0  0  0  0
  139.3910   71.4520  224.0910 C   0  0  1  0  0  0  0  0  0  0  0  0
  138.5630   71.8328  224.7069 H   0  0  0  0  0  0  0  0  0  0  0  0
  139.2860   69.9080  224.0050 C   0  0  0  0  0  0  0  0  0  0  0  0
  139.5766   69.5935  222.9918 H   0  0  0  0  0  0  0  0  0  0  0  0
  138.2458   69.6370  224.2386 H   0  0  0  0  0  0  0  0  0  0  0  0
  140.1500   69.2130  224.9780 N   0  0  0  0  0  0  0  0  0  0  0  0
  139.7760   68.2450  225.1130 H   0  0  0  0  0  0  0  0  0  0  0  0
  140.1440   69.8910  226.2790 C   0  0  0  0  0  0  0  0  0  0  0  0
  140.6833   69.2731  227.0121 H   0  0  0  0  0  0  0  0  0  0  0  0
  139.1021   70.0365  226.6004 H   0  0  0  0  0  0  0  0  0  0  0  0
  140.8300   71.2660  226.1720 C   0  0  0  0  0  0  0  0  0  0  0  0
  141.8954   71.1499  226.4197 H   0  0  0  0  0  0  0  0  0  0  0  0
  140.3265   71.9485  226.8725 H   0  0  0  0  0  0  0  0  0  0  0  0
  140.7130   71.8690  224.7620 C   0  0  0  0  0  0  0  0  0  0  0  0
  141.5549   71.5154  224.1486 H   0  0  0  0  0  0  0  0  0  0  0  0
  140.7319   72.9655  224.8473 H   0  0  0  0  0  0  0  0  0  0  0  0
  139.7930   74.1850  222.1530 N   0  0  0  0  0  0  0  0  0  0  0  0
  140.6490   75.0890  221.6050 C   0  0  0  0  0  0  0  0  0  0  0  0
  140.2600   76.4730  221.5150 N   0  0  0  0  0  0  0  0  0  0  0  0
  140.0260   77.2970  222.7050 C   0  0  0  0  0  0  0  0  0  0  0  0
  140.2551   76.7077  223.6052 H   0  0  0  0  0  0  0  0  0  0  0  0
  138.9726   77.6133  222.7196 H   0  0  0  0  0  0  0  0  0  0  0  0
  140.9050   78.5210  222.6750 C   0  0  0  0  0  0  0  0  0  0  0  0
  141.0870   79.2660  223.8510 C   0  0  0  0  0  0  0  0  0  0  0  0
  140.6289   78.9243  224.7909 H   0  0  0  0  0  0  0  0  0  0  0  0
  141.8460   80.4380  223.8350 C   0  0  0  0  0  0  0  0  0  0  0  0
  141.9885   81.0124  224.7623 H   0  0  0  0  0  0  0  0  0  0  0  0
  142.4240   80.8820  222.6450 C   0  0  0  0  0  0  0  0  0  0  0  0
  143.0232   81.8044  222.6365 H   0  0  0  0  0  0  0  0  0  0  0  0
  142.2430   80.1570  221.4640 C   0  0  0  0  0  0  0  0  0  0  0  0
  142.7085   80.5076  220.5311 H   0  0  0  0  0  0  0  0  0  0  0  0
  141.4710   78.9840  221.4600 C   0  0  0  0  0  0  0  0  0  0  0  0
  141.3570   78.1880  220.1770 C   0  0  0  0  0  0  0  0  0  0  0  0
  142.3061   77.6595  220.0040 H   0  0  0  0  0  0  0  0  0  0  0  0
  141.1339   78.8942  219.3637 H   0  0  0  0  0  0  0  0  0  0  0  0
  140.2240   77.1600  220.2250 C   0  0  0  0  0  0  0  0  0  0  0  0
  140.3547   76.4287  219.4138 H   0  0  0  0  0  0  0  0  0  0  0  0
  139.2559   77.6673  220.1007 H   0  0  0  0  0  0  0  0  0  0  0  0
  141.8470   74.6650  221.1140 N   0  0  0  0  0  0  0  0  0  0  0  0
  142.4650   75.3330  220.6030 H   0  0  0  0  0  0  0  0  0  0  0  0
  1  2  1  0
  2  3  1  0
  3  4  2  0
  4  5  1  0
  4  6  1  0
  6  7  1  0
  6  8  2  0
  8  9  1  0
  8 10  1  0
 10 11  1  0
 10 12  2  0
 12 13  1  0
 13 14  2  0
 14 15  1  0
 15 16  2  0
 16 17  1  0
 17 18  1  1
 17 19  1  0
 19 20  1  0
 19 21  1  0
 19 22  1  0
 22 23  1  0
 22 24  1  0
 24 25  1  0
 24 26  1  0
 24 27  1  0
 27 28  1  0
 27 29  1  0
 27 30  1  0
 30 31  1  0
 30 32  1  0
 15 33  1  0
 33 34  2  0
 34 35  1  0
 35 36  1  0
 36 37  1  0
 36 38  1  0
 36 39  1  0
 39 40  2  0
 40 41  1  0
 40 42  1  0
 42 43  1  0
 42 44  2  0
 44 45  1  0
 44 46  1  0
 46 47  1  0
 46 48  2  0
 48 49  1  0
 49 50  1  0
 49 51  1  0
 49 52  1  0
 52 53  1  0
 52 54  1  0
 34 55  1  0
 55 56  1  0
 12  3  1  0
 55 13  1  0
 30 17  1  0
 52 35  1  0
 48 39  1  0
M  END
>  <UniqueID>  (80) 
485

>  <SMILES>  (80) 
Oc1ccccc1-c1n/c(=N\[C@@H]2CCCNC2)nc(N2CCc3ccccc3C2)[nH]1

>  <Energy>  (80) 
74.54154189360749

>  <Genealogy>  (80) 
Oc1ccccc1-c1nc(=NC2CCCNC2)nc(N2CCc3ccccc3C2)[nH]1 (tautomer)
Oc1ccccc1-c1nc(=N[C@@H]2CCCNC2)nc(N2CCc3ccccc3C2)[nH]1 (chirality)
Oc1ccccc1-c1n/c(=N\[C@@H]2CCCNC2)nc(N2CCc3ccccc3C2)[nH]1 (cis-trans isomerization)
Oc1ccccc1-c1n/c(=N\[C@@H]2CCCNC2)nc(N2CCc3ccccc3C2)[nH]1 (3D coordinates assigned)
Oc1ccccc1-c1n/c(=N\[C@@H]2CCCNC2)nc(N2CCc3ccccc3C2)[nH]1 (nonaromatic ring conformer: 74.54154189360749 kcal/mol)

>  <smiles>  (80) 
Oc1ccccc1-c1nc(NC2CCCNC2)nc(N2CCc3ccccc3C2)n1

>  <score_type>  (80) 
oracle

>  <origin>  (80) 
autodockgpu

>  <m_score__min__energy>  (80) 
-8.4900000000000002

>  <m_primary>  (80) 
energy

>  <meeko>  (80) 
{"free_energy": -8.24, "intermolecular_energy": -9.73, "internal_energy": -1.43, "cluster_size": 11, "cluster_id": 2, "rank_in_cluster": 10}

>  <energy>  (80) 
-7.63

>  <cluster_rmsd>  (80) 
0.0

>  <rmsd>  (80) 
271.02

>  <cluster>  (80) 
6

$$$$
