@<TRIPOS>MOLECULE
*****
 60 62 0 0 0
SMALL
GASTEIGER

@<TRIPOS>ATOM
      1 C         140.9580   68.1110  228.1930 C.3     1  UNL1       -0.0570
      2 C         141.1240   67.7000  226.7100 C.3     1  UNL1        0.0217
      3 C         139.9180   68.0950  225.9600 C.2     1  UNL1        0.2198
      4 O         139.2240   67.1190  225.5050 O.2     1  UNL1       -0.2753
      5 N         139.4880   69.4150  225.7110 N.am    1  UNL1       -0.2683
      6 C         140.1390   70.5010  226.4080 C.ar    1  UNL1        0.0366
      7 C         139.8280   70.8570  227.6940 C.ar    1  UNL1       -0.0403
      8 C         140.4820   71.8800  228.3710 C.ar    1  UNL1       -0.0600
      9 C         141.4880   72.5910  227.7560 C.ar    1  UNL1       -0.0616
     10 C         141.8190   72.2550  226.4630 C.ar    1  UNL1       -0.0600
     11 C         141.1590   71.2270  225.7950 C.ar    1  UNL1       -0.0403
     12 C         138.4350   69.7990  224.8070 C.3     1  UNL1        0.0339
     13 C         137.0730   69.2690  225.1340 C.3     1  UNL1       -0.0180
     14 C         136.0540   70.2100  224.4770 C.3     1  UNL1        0.0164
     15 N         136.7390   70.9360  223.4390 N.am    1  UNL1       -0.3001
     16 C         136.4510   72.3140  223.2380 C.2     1  UNL1        0.2327
     17 O         137.0590   72.9850  222.3290 O.2     1  UNL1       -0.2739
     18 C         135.4580   73.0820  224.0280 C.3     1  UNL1        0.0865
     19 N         135.6770   74.5040  223.7760 N.3     1  UNL1       -0.3197
     20 C         134.0210   72.7580  223.6230 C.3     1  UNL1       -0.0039
     21 C         133.2730   72.4640  224.8960 C.ar    1  UNL1       -0.0452
     22 C         133.4630   73.3590  225.9370 C.ar    1  UNL1       -0.0585
     23 C         132.8160   73.1680  227.1430 C.ar    1  UNL1       -0.0613
     24 C         131.9860   72.0720  227.2730 C.ar    1  UNL1       -0.0588
     25 C         131.7950   71.1730  226.2270 C.ar    1  UNL1       -0.0502
     26 C         130.8940   70.0260  226.4370 C.3     1  UNL1       -0.0397
     27 C         132.4470   71.3710  225.0230 C.ar    1  UNL1       -0.0556
     28 C         137.7290   70.3230  222.5650 C.3     1  UNL1        0.0164
     29 C         138.6900   69.4220  223.3610 C.3     1  UNL1       -0.0180
     30 H         141.2908   67.2870  228.8413 H       1  UNL1        0.0234
     31 H         141.5654   69.0054  228.3958 H       1  UNL1        0.0234
     32 H         139.8998   68.3327  228.3958 H       1  UNL1        0.0234
     33 H         142.0038   68.2049  226.2845 H       1  UNL1        0.0356
     34 H         141.2618   66.6108  226.6414 H       1  UNL1        0.0356
     35 H         139.0269   70.3102  228.2128 H       1  UNL1        0.0636
     36 H         140.1940   72.1230  229.4045 H       1  UNL1        0.0618
     37 H         142.0113   73.4030  228.2821 H       1  UNL1        0.0618
     38 H         142.6187   72.8081  225.9485 H       1  UNL1        0.0618
     39 H         141.4484   70.9827  224.7623 H       1  UNL1        0.0636
     40 H         138.4475   70.8906  224.9423 H       1  UNL1        0.0505
     41 H         136.9584   68.2504  224.7347 H       1  UNL1        0.0298
     42 H         136.9206   69.2247  226.2225 H       1  UNL1        0.0298
     43 H         135.2285   69.6259  224.0442 H       1  UNL1        0.0465
     44 H         135.6326   70.9031  225.2200 H       1  UNL1        0.0465
     45 H         135.5903   72.8160  225.0871 H       1  UNL1        0.0558
     46 H         136.5570   74.8310  224.2290 H       1  UNL1        0.1189
     47 H         135.7510   74.6940  222.7580 H       1  UNL1        0.1189
     48 H         133.5689   73.6177  223.1067 H       1  UNL1        0.0333
     49 H         133.9858   71.9009  222.9344 H       1  UNL1        0.0333
     50 H         134.1302   74.2232  225.8029 H       1  UNL1        0.0620
     51 H         132.9583   73.8704  227.9775 H       1  UNL1        0.0618
     52 H         131.4629   71.9051  228.2262 H       1  UNL1        0.0620
     53 H         130.7611   69.8568  227.5158 H       1  UNL1        0.0278
     54 H         129.9179   70.2373  225.9760 H       1  UNL1        0.0278
     55 H         131.3304   69.1277  225.9760 H       1  UNL1        0.0278
     56 H         132.3082   70.6706  224.1863 H       1  UNL1        0.0623
     57 H         137.2122   69.7158  221.8073 H       1  UNL1        0.0465
     58 H         138.3150   71.1219  222.0870 H       1  UNL1        0.0465
     59 H         138.4630   68.3596  223.1882 H       1  UNL1        0.0298
     60 H         139.7409   69.5605  223.0668 H       1  UNL1        0.0298
@<TRIPOS>BOND
     1     1     2    1
     2     2     3    1
     3     3     4    2
     4     3     5   am
     5     5     6    1
     6     6     7   ar
     7     7     8   ar
     8     8     9   ar
     9     9    10   ar
    10    10    11   ar
    11     5    12    1
    12    12    13    1
    13    13    14    1
    14    14    15    1
    15    15    16   am
    16    16    17    2
    17    16    18    1
    18    18    19    1
    19    18    20    1
    20    20    21    1
    21    21    22   ar
    22    22    23   ar
    23    23    24   ar
    24    24    25   ar
    25    25    26    1
    26    25    27   ar
    27    15    28    1
    28    28    29    1
    29    11     6   ar
    30    29    12    1
    31    27    21   ar
    32     1    30    1
    33     1    31    1
    34     1    32    1
    35     2    33    1
    36     2    34    1
    37     7    35    1
    38     8    36    1
    39     9    37    1
    40    10    38    1
    41    11    39    1
    42    12    40    1
    43    13    41    1
    44    13    42    1
    45    14    43    1
    46    14    44    1
    47    18    45    1
    48    19    46    1
    49    19    47    1
    50    20    48    1
    51    20    49    1
    52    22    50    1
    53    23    51    1
    54    24    52    1
    55    26    53    1
    56    26    54    1
    57    26    55    1
    58    27    56    1
    59    28    57    1
    60    28    58    1
    61    29    59    1
    62    29    60    1
