
     RDKit          3D

 70 74  0  0  1  0  0  0  0  0999 V2000
  133.3650   69.9240  226.8300 O   0  0  0  0  0  0  0  0  0  0  0  0
  133.7020   70.9910  226.3050 C   0  0  0  0  0  0  0  0  0  0  0  0
  134.7030   70.9480  225.2900 N   0  0  0  0  0  0  0  0  0  0  0  0
  135.3680   69.8110  224.8100 C   0  0  0  0  0  0  0  0  0  0  0  0
  135.2520   69.3240  223.4550 C   0  0  0  0  0  0  0  0  0  0  0  0
  134.7010   68.1270  223.4000 O   0  0  0  0  0  0  0  0  0  0  0  0
  135.5900   69.8520  222.2170 N   0  0  0  0  0  0  0  0  0  0  0  0
  134.7920   70.1550  221.0060 C   0  0  0  0  0  0  0  0  0  0  0  0
  135.0770   71.6550  220.8930 C   0  0  0  0  0  0  0  0  0  0  0  0
  136.5080   71.7570  221.4170 C   0  0  0  0  0  0  0  0  0  0  0  0
  136.9070   70.3300  221.7110 C   0  0  1  0  0  0  0  0  0  0  0  0
  138.0750   70.1820  222.5430 C   0  0  2  0  0  0  0  0  0  0  0  0
  138.0690   68.7080  223.0450 C   0  0  0  0  0  0  0  0  0  0  0  0
  138.6040   68.6240  224.4480 C   0  0  0  0  0  0  0  0  0  0  0  0
  139.7490   69.6030  224.5770 C   0  0  2  0  0  0  0  0  0  0  0  0
  140.6760   69.3230  225.7070 C   0  0  0  0  0  0  0  0  0  0  0  0
  140.9940   70.5120  226.5740 C   0  0  0  0  0  0  0  0  0  0  0  0
  140.3820   70.3570  227.9670 C   0  0  0  0  0  0  0  0  0  0  0  0
  141.0500   69.2160  228.6920 C   0  0  0  0  0  0  0  0  0  0  0  0
  141.2820   68.0930  227.6990 C   0  0  0  0  0  0  0  0  0  0  0  0
  140.2410   68.1830  226.5800 C   0  0  0  0  0  0  0  0  0  0  0  0
  139.1160   70.9860  224.6610 C   0  0  0  0  0  0  0  0  0  0  0  0
  137.8890   71.0480  223.7910 C   0  0  0  0  0  0  0  0  0  0  0  0
  133.0920   72.2750  226.7090 C   0  0  0  0  0  0  0  0  0  0  0  0
  131.8630   72.2430  227.3300 C   0  0  0  0  0  0  0  0  0  0  0  0
  131.3050   73.4620  227.7040 C   0  0  0  0  0  0  0  0  0  0  0  0
  131.9850   74.6490  227.4480 C   0  0  0  0  0  0  0  0  0  0  0  0
  131.4550   75.8750  227.8080 C   0  0  0  0  0  0  0  0  0  0  0  0
  132.1210   77.0620  227.5580 C   0  0  0  0  0  0  0  0  0  0  0  0
  131.6130   78.2700  227.9060 F   0  0  0  0  0  0  0  0  0  0  0  0
  133.3640   77.0330  226.9250 C   0  0  0  0  0  0  0  0  0  0  0  0
  133.9000   75.8160  226.5630 C   0  0  0  0  0  0  0  0  0  0  0  0
  133.2190   74.6420  226.8200 C   0  0  0  0  0  0  0  0  0  0  0  0
  133.7250   73.4420  226.4750 N   0  0  0  0  0  0  0  0  0  0  0  0
  134.9430   71.9030  224.8770 H   0  0  0  0  0  0  0  0  0  0  0  0
  136.4396   70.0021  224.9684 H   0  0  0  0  0  0  0  0  0  0  0  0
  134.8518   69.0142  225.3656 H   0  0  0  0  0  0  0  0  0  0  0  0
  135.1518   69.6004  220.1268 H   0  0  0  0  0  0  0  0  0  0  0  0
  133.7282   69.8808  221.0624 H   0  0  0  0  0  0  0  0  0  0  0  0
  135.0102   71.9953  219.8491 H   0  0  0  0  0  0  0  0  0  0  0  0
  134.3609   72.2814  221.4452 H   0  0  0  0  0  0  0  0  0  0  0  0
  137.1699   72.1968  220.6564 H   0  0  0  0  0  0  0  0  0  0  0  0
  136.5830   72.4030  222.3041 H   0  0  0  0  0  0  0  0  0  0  0  0
  137.2974   69.7282  220.8770 H   0  0  0  0  0  0  0  0  0  0  0  0
  138.9893   70.4537  221.9950 H   0  0  0  0  0  0  0  0  0  0  0  0
  137.0382   68.3245  223.0277 H   0  0  0  0  0  0  0  0  0  0  0  0
  138.7103   68.1060  222.3845 H   0  0  0  0  0  0  0  0  0  0  0  0
  137.8108   68.8823  225.1650 H   0  0  0  0  0  0  0  0  0  0  0  0
  138.9520   67.6025  224.6612 H   0  0  0  0  0  0  0  0  0  0  0  0
  140.4093   69.5162  223.7015 H   0  0  0  0  0  0  0  0  0  0  0  0
  141.5994   69.0360  225.1826 H   0  0  0  0  0  0  0  0  0  0  0  0
  142.0859   70.6051  226.6696 H   0  0  0  0  0  0  0  0  0  0  0  0
  140.5690   71.4110  226.1037 H   0  0  0  0  0  0  0  0  0  0  0  0
  140.5279   71.2871  228.5359 H   0  0  0  0  0  0  0  0  0  0  0  0
  139.3064   70.1474  227.8709 H   0  0  0  0  0  0  0  0  0  0  0  0
  142.0123   69.5509  229.1065 H   0  0  0  0  0  0  0  0  0  0  0  0
  140.4132   68.8666  229.5181 H   0  0  0  0  0  0  0  0  0  0  0  0
  142.2909   68.1843  227.2703 H   0  0  0  0  0  0  0  0  0  0  0  0
  141.1894   67.1238  228.2110 H   0  0  0  0  0  0  0  0  0  0  0  0
  140.2168   67.2466  226.0033 H   0  0  0  0  0  0  0  0  0  0  0  0
  139.2292   68.3433  226.9806 H   0  0  0  0  0  0  0  0  0  0  0  0
  138.8335   71.1939  225.7036 H   0  0  0  0  0  0  0  0  0  0  0  0
  139.8420   71.7355  224.3129 H   0  0  0  0  0  0  0  0  0  0  0  0
  137.0222   70.6815  224.3604 H   0  0  0  0  0  0  0  0  0  0  0  0
  137.7243   72.0903  223.4805 H   0  0  0  0  0  0  0  0  0  0  0  0
  131.3436   71.2927  227.5226 H   0  0  0  0  0  0  0  0  0  0  0  0
  130.3249   73.4873  228.2027 H   0  0  0  0  0  0  0  0  0  0  0  0
  130.4755   75.9073  228.3076 H   0  0  0  0  0  0  0  0  0  0  0  0
  133.9076   77.9667  226.7181 H   0  0  0  0  0  0  0  0  0  0  0  0
  134.8798   75.7792  226.0645 H   0  0  0  0  0  0  0  0  0  0  0  0
  1  2  2  0
  2  3  1  0
  3  4  1  0
  4  5  1  0
  5  6  2  0
  5  7  1  0
  7  8  1  0
  8  9  1  0
  9 10  1  0
 10 11  1  0
 11 12  1  0
 12 13  1  0
 13 14  1  0
 14 15  1  0
 15 16  1  0
 16 17  1  0
 17 18  1  0
 18 19  1  0
 19 20  1  0
 20 21  1  0
 15 22  1  0
 22 23  1  0
  2 24  1  0
 24 25  2  0
 25 26  1  0
 26 27  2  0
 27 28  1  0
 28 29  2  0
 29 30  1  0
 29 31  1  0
 31 32  2  0
 32 33  1  0
 33 34  2  0
 11  7  1  0
 23 12  1  0
 34 24  1  0
 21 16  1  0
 33 27  1  0
  3 35  1  0
  4 36  1  0
  4 37  1  0
  8 38  1  0
  8 39  1  0
  9 40  1  0
  9 41  1  0
 10 42  1  0
 10 43  1  0
 11 44  1  6
 12 45  1  6
 13 46  1  0
 13 47  1  0
 14 48  1  0
 14 49  1  0
 15 50  1  6
 16 51  1  0
 17 52  1  0
 17 53  1  0
 18 54  1  0
 18 55  1  0
 19 56  1  0
 19 57  1  0
 20 58  1  0
 20 59  1  0
 21 60  1  0
 21 61  1  0
 22 62  1  0
 22 63  1  0
 23 64  1  0
 23 65  1  0
 25 66  1  0
 26 67  1  0
 28 68  1  0
 31 69  1  0
 32 70  1  0
M  END
