@<TRIPOS>MOLECULE
*****
 66 71 0 0 0
SMALL
GASTEIGER

@<TRIPOS>ATOM
      1 O         141.5270   71.0700  224.8040 O.2     1  UNL1       -0.2750
      2 C         140.2760   70.9570  224.7790 C.2     1  UNL1        0.2237
      3 N         139.5880   71.6430  223.7420 N.am    1  UNL1       -0.2541
      4 C         140.2440   72.4300  222.7560 C.ar    1  UNL1        0.2274
      5 N         141.1500   71.8780  221.9290 N.ar    1  UNL1       -0.1805
      6 C         141.7570   72.6670  220.9950 C.ar    1  UNL1        0.2240
      7 N         142.7130   72.1030  220.1160 N.pl3   1  UNL1       -0.2948
      8 C         143.7930   72.9310  219.6130 C.3     1  UNL1        0.0192
      9 C         145.0950   72.2680  220.0450 C.3     1  UNL1       -0.0115
     10 C         145.0720   70.9000  219.4420 C.ar    1  UNL1       -0.0412
     11 C         146.2950   70.3710  219.0230 C.ar    1  UNL1       -0.0582
     12 C         146.2800   69.1100  218.4680 C.ar    1  UNL1       -0.0615
     13 C         145.1200   68.3810  218.3200 C.ar    1  UNL1       -0.0614
     14 C         143.9050   68.9060  218.7370 C.ar    1  UNL1       -0.0568
     15 C         143.9120   70.1740  219.2970 C.ar    1  UNL1       -0.0269
     16 C         142.6020   70.7170  219.7350 C.3     1  UNL1        0.0402
     17 N         141.4380   73.9810  220.9190 N.ar    1  UNL1       -0.1807
     18 C         140.5340   74.5430  221.7420 C.ar    1  UNL1        0.2240
     19 N         140.2600   75.9310  221.5910 N.pl3   1  UNL1       -0.2948
     20 C         138.8810   76.3560  221.4410 C.3     1  UNL1        0.0192
     21 C         138.5750   77.1390  222.7190 C.3     1  UNL1       -0.0115
     22 C         139.4930   78.3240  222.6860 C.ar    1  UNL1       -0.0412
     23 C         139.0130   79.5060  223.2130 C.ar    1  UNL1       -0.0582
     24 C         139.8640   80.6130  223.1860 C.ar    1  UNL1       -0.0615
     25 C         141.1440   80.5250  222.6480 C.ar    1  UNL1       -0.0614
     26 C         141.6060   79.3310  222.1250 C.ar    1  UNL1       -0.0568
     27 C         140.7640   78.2410  222.1540 C.ar    1  UNL1       -0.0269
     28 C         141.2840   76.9490  221.5790 C.3     1  UNL1        0.0402
     29 N         139.9520   73.7600  222.6460 N.ar    1  UNL1       -0.1805
     30 C         139.5070   70.1550  225.7700 C.3     1  UNL1        0.0484
     31 C         140.4020   69.6200  226.8650 C.3     1  UNL1       -0.0396
     32 C         139.6020   68.5890  227.6350 C.3     1  UNL1       -0.0397
     33 C         139.4620   67.3750  226.7260 C.3     1  UNL1       -0.0041
     34 N         139.2290   67.7340  225.3560 N.3     1  UNL1       -0.3153
     35 C         138.7000   69.0550  225.1680 C.3     1  UNL1        0.0070
     36 H         138.5460   71.5880  223.6680 H       1  UNL1        0.1577
     37 H         143.7446   72.9908  218.5157 H       1  UNL1        0.0468
     38 H         143.7218   73.9550  220.0084 H       1  UNL1        0.0468
     39 H         145.9582   72.8378  219.6705 H       1  UNL1        0.0328
     40 H         145.1859   72.2273  221.1405 H       1  UNL1        0.0328
     41 H         147.2315   70.9378  219.1316 H       1  UNL1        0.0620
     42 H         147.2294   68.6687  218.1305 H       1  UNL1        0.0618
     43 H         145.1573   67.3783  217.8692 H       1  UNL1        0.0618
     44 H         142.9703   68.3366  218.6271 H       1  UNL1        0.0621
     45 H         141.8824   70.6289  218.9077 H       1  UNL1        0.0514
     46 H         142.2612   70.1419  220.6086 H       1  UNL1        0.0514
     47 H         138.7673   76.9988  220.5556 H       1  UNL1        0.0468
     48 H         138.1967   75.5065  221.2993 H       1  UNL1        0.0468
     49 H         137.5246   77.4654  222.7287 H       1  UNL1        0.0328
     50 H         138.7265   76.5277  223.6208 H       1  UNL1        0.0328
     51 H         138.0004   79.5734  223.6374 H       1  UNL1        0.0620
     52 H         139.5159   81.5719  223.5976 H       1  UNL1        0.0618
     53 H         141.7939   81.4124  222.6385 H       1  UNL1        0.0618
     54 H         142.6168   79.2538  221.6981 H       1  UNL1        0.0621
     55 H         141.6087   77.1210  220.5422 H       1  UNL1        0.0514
     56 H         142.1288   76.6052  222.1940 H       1  UNL1        0.0514
     57 H         138.7848   70.8588  226.2094 H       1  UNL1        0.0407
     58 H         141.2958   69.1524  226.4262 H       1  UNL1        0.0273
     59 H         140.7339   70.4317  227.5290 H       1  UNL1        0.0273
     60 H         140.1307   68.3118  228.5589 H       1  UNL1        0.0278
     61 H         138.6163   68.9854  227.9200 H       1  UNL1        0.0278
     62 H         140.3881   66.7841  226.7825 H       1  UNL1        0.0424
     63 H         138.5909   66.7991  227.0718 H       1  UNL1        0.0424
     64 H         140.0350   67.5830  224.7340 H       1  UNL1        0.1220
     65 H         138.6254   69.2407  224.0864 H       1  UNL1        0.0431
     66 H         137.7293   69.0710  225.6852 H       1  UNL1        0.0431
@<TRIPOS>BOND
     1     1     2    2
     2     2     3   am
     3     3     4    1
     4     4     5   ar
     5     5     6   ar
     6     6     7    1
     7     7     8    1
     8     8     9    1
     9     9    10    1
    10    10    11   ar
    11    11    12   ar
    12    12    13   ar
    13    13    14   ar
    14    14    15   ar
    15    15    16    1
    16     6    17   ar
    17    17    18   ar
    18    18    19    1
    19    19    20    1
    20    20    21    1
    21    21    22    1
    22    22    23   ar
    23    23    24   ar
    24    24    25   ar
    25    25    26   ar
    26    26    27   ar
    27    27    28    1
    28    18    29   ar
    29     2    30    1
    30    30    31    1
    31    31    32    1
    32    32    33    1
    33    33    34    1
    34    34    35    1
    35    29     4   ar
    36    35    30    1
    37    16     7    1
    38    28    19    1
    39    15    10   ar
    40    27    22   ar
    41     3    36    1
    42     8    37    1
    43     8    38    1
    44     9    39    1
    45     9    40    1
    46    11    41    1
    47    12    42    1
    48    13    43    1
    49    14    44    1
    50    16    45    1
    51    16    46    1
    52    20    47    1
    53    20    48    1
    54    21    49    1
    55    21    50    1
    56    23    51    1
    57    24    52    1
    58    25    53    1
    59    26    54    1
    60    28    55    1
    61    28    56    1
    62    30    57    1
    63    31    58    1
    64    31    59    1
    65    32    60    1
    66    32    61    1
    67    33    62    1
    68    33    63    1
    69    34    64    1
    70    35    65    1
    71    35    66    1
