
 67 70  0  0  1  0  0  0  0  0999 V2000
  137.7280   78.8010  222.6540 C   0  0  0  0  0  0  0  0  0  0  0  0
  138.0700   78.8270  221.1920 C   0  0  0  0  0  0  0  0  0  0  0  0
  139.2110   77.9150  220.9070 C   0  0  0  0  0  0  0  0  0  0  0  0
  139.1780   77.3190  219.7910 O   0  0  0  0  0  0  0  0  0  0  0  0
  140.2620   77.7420  221.8470 N   0  0  0  0  0  0  0  0  0  0  0  0
  141.0220   78.8490  222.2350 C   0  0  0  0  0  0  0  0  0  0  0  0
  141.4110   79.8750  221.3870 C   0  0  0  0  0  0  0  0  0  0  0  0
  142.1550   80.9520  221.7980 C   0  0  0  0  0  0  0  0  0  0  0  0
  142.5670   81.0760  223.1080 C   0  0  0  0  0  0  0  0  0  0  0  0
  142.1960   80.0710  223.9750 C   0  0  0  0  0  0  0  0  0  0  0  0
  141.4460   78.9870  223.5620 C   0  0  0  0  0  0  0  0  0  0  0  0
  140.4700   76.3760  222.3500 C   0  0  0  0  0  0  0  0  0  0  0  0
  139.1850   75.7170  222.7140 C   0  0  0  0  0  0  0  0  0  0  0  0
  138.6890   74.7440  221.6680 C   0  0  0  0  0  0  0  0  0  0  0  0
  139.7400   73.9290  221.1390 N   0  0  0  0  0  0  0  0  0  0  0  0
  139.8820   72.5410  221.1750 C   0  0  0  0  0  0  0  0  0  0  0  0
  140.9430   72.0650  220.5900 O   0  0  0  0  0  0  0  0  0  0  0  0
  139.0260   71.5160  221.7690 C   0  0  2  0  0  0  0  0  0  0  0  0
  137.8040   72.0340  222.2980 N   0  0  0  0  0  0  0  0  0  0  0  0
  139.7090   70.7960  222.9230 C   0  0  1  0  0  0  0  0  0  0  0  0
  140.2810   71.8880  223.8030 C   0  0  0  0  0  0  0  0  0  0  0  0
  140.3410   71.2070  225.1180 C   0  0  0  0  0  0  0  0  0  0  0  0
  141.1790   71.4680  226.1910 C   0  0  0  0  0  0  0  0  0  0  0  0
  141.0670   70.7010  227.3420 C   0  0  0  0  0  0  0  0  0  0  0  0
  140.1170   69.6770  227.4130 C   0  0  0  0  0  0  0  0  0  0  0  0
  140.0250   68.8690  228.6730 C   0  0  0  0  0  0  0  0  0  0  0  0
  141.3720   68.1570  228.7850 C   0  0  0  0  0  0  0  0  0  0  0  0
  139.3040   69.4490  226.3270 C   0  0  0  0  0  0  0  0  0  0  0  0
  139.3960   70.2030  225.1630 C   0  0  0  0  0  0  0  0  0  0  0  0
  138.6730   70.1890  223.8640 C   0  0  0  0  0  0  0  0  0  0  0  0
  140.8180   74.7060  220.4790 C   0  0  0  0  0  0  0  0  0  0  0  0
  141.4190   75.5810  221.5300 C   0  0  0  0  0  0  0  0  0  0  0  0
  138.6513   78.8712  223.2479 H   0  0  0  0  0  0  0  0  0  0  0  0
  137.0730   79.6519  222.8925 H   0  0  0  0  0  0  0  0  0  0  0  0
  137.2092   77.8608  222.8925 H   0  0  0  0  0  0  0  0  0  0  0  0
  137.1944   78.5042  220.6097 H   0  0  0  0  0  0  0  0  0  0  0  0
  138.3552   79.8517  220.9117 H   0  0  0  0  0  0  0  0  0  0  0  0
  141.1076   79.8227  220.3310 H   0  0  0  0  0  0  0  0  0  0  0  0
  142.4276   81.7301  221.0698 H   0  0  0  0  0  0  0  0  0  0  0  0
  143.1636   81.9364  223.4452 H   0  0  0  0  0  0  0  0  0  0  0  0
  142.5067   80.1340  225.0283 H   0  0  0  0  0  0  0  0  0  0  0  0
  141.1750   78.2124  224.2945 H   0  0  0  0  0  0  0  0  0  0  0  0
  141.0077   76.4480  223.3069 H   0  0  0  0  0  0  0  0  0  0  0  0
  139.3290   75.1704  223.6576 H   0  0  0  0  0  0  0  0  0  0  0  0
  138.4282   76.5103  222.8029 H   0  0  0  0  0  0  0  0  0  0  0  0
  137.9310   74.0906  222.1245 H   0  0  0  0  0  0  0  0  0  0  0  0
  138.2685   75.3299  220.8374 H   0  0  0  0  0  0  0  0  0  0  0  0
  138.8186   70.8319  220.9329 H   0  0  0  0  0  0  0  0  0  0  0  0
  137.0880   71.2990  222.4950 H   0  0  0  0  0  0  0  0  0  0  0  0
  137.9950   72.6430  223.1220 H   0  0  0  0  0  0  0  0  0  0  0  0
  140.4090   70.0532  222.5128 H   0  0  0  0  0  0  0  0  0  0  0  0
  141.2813   72.1949  223.4635 H   0  0  0  0  0  0  0  0  0  0  0  0
  139.6915   72.8167  223.8055 H   0  0  0  0  0  0  0  0  0  0  0  0
  141.9247   72.2744  226.1307 H   0  0  0  0  0  0  0  0  0  0  0  0
  141.7265   70.8987  228.1999 H   0  0  0  0  0  0  0  0  0  0  0  0
  139.8605   69.5240  229.5413 H   0  0  0  0  0  0  0  0  0  0  0  0
  139.1838   68.1606  228.6492 H   0  0  0  0  0  0  0  0  0  0  0  0
  141.6281   68.0216  229.8462 H   0  0  0  0  0  0  0  0  0  0  0  0
  141.3092   67.1743  228.2947 H   0  0  0  0  0  0  0  0  0  0  0  0
  142.1486   68.7624  228.2947 H   0  0  0  0  0  0  0  0  0  0  0  0
  138.5567   68.6437  226.3816 H   0  0  0  0  0  0  0  0  0  0  0  0
  138.4104   69.1641  223.5629 H   0  0  0  0  0  0  0  0  0  0  0  0
  137.7158   70.7307  223.8814 H   0  0  0  0  0  0  0  0  0  0  0  0
  141.5799   74.0261  220.0700 H   0  0  0  0  0  0  0  0  0  0  0  0
  140.4221   75.3034  219.6445 H   0  0  0  0  0  0  0  0  0  0  0  0
  141.9934   74.9376  222.2127 H   0  0  0  0  0  0  0  0  0  0  0  0
  142.0233   76.3203  220.9839 H   0  0  0  0  0  0  0  0  0  0  0  0
  1  2  1  0
  2  3  1  0
  3  4  2  0
  3  5  1  0
  5  6  1  0
  6  7  2  0
  7  8  1  0
  8  9  2  0
  9 10  1  0
 10 11  2  0
  5 12  1  0
 12 13  1  0
 13 14  1  0
 14 15  1  0
 15 16  1  0
 16 17  2  0
 16 18  1  0
 18 19  1  0
 18 20  1  0
 20 21  1  0
 21 22  1  0
 22 23  2  0
 23 24  1  0
 24 25  2  0
 25 26  1  0
 26 27  1  0
 25 28  1  0
 28 29  2  0
 29 30  1  0
 15 31  1  0
 31 32  1  0
 11  6  1  0
 32 12  1  0
 30 20  1  0
 29 22  1  0
  1 33  1  0
  1 34  1  0
  1 35  1  0
  2 36  1  0
  2 37  1  0
  7 38  1  0
  8 39  1  0
  9 40  1  0
 10 41  1  0
 11 42  1  0
 12 43  1  0
 13 44  1  0
 13 45  1  0
 14 46  1  0
 14 47  1  0
 18 48  1  6
 19 49  1  0
 19 50  1  0
 20 51  1  6
 21 52  1  0
 21 53  1  0
 23 54  1  0
 24 55  1  0
 26 56  1  0
 26 57  1  0
 27 58  1  0
 27 59  1  0
 27 60  1  0
 28 61  1  0
 30 62  1  0
 30 63  1  0
 31 64  1  0
 31 65  1  0
 32 66  1  0
 32 67  1  0
M  END
