
     RDKit          3D

 77 83  0  0  0  0  0  0  0  0999 V2000
  139.9720   80.8170  223.0060 C   0  0  0  0  0  0  0  0  0  0  0  0
  141.1710   80.3830  223.5440 C   0  0  0  0  0  0  0  0  0  0  0  0
  141.4590   79.0410  223.4000 C   0  0  0  0  0  0  0  0  0  0  0  0
  140.6190   78.1590  222.7620 C   0  0  0  0  0  0  0  0  0  0  0  0
  139.4410   78.5940  222.2350 C   0  0  0  0  0  0  0  0  0  0  0  0
  139.1310   79.9320  222.3670 C   0  0  0  0  0  0  0  0  0  0  0  0
  138.5640   77.6120  221.5560 C   0  0  0  0  0  0  0  0  0  0  0  0
  138.5970   76.3590  222.4440 C   0  0  0  0  0  0  0  0  0  0  0  0
  139.9510   75.8540  222.3300 N   0  0  0  0  0  0  0  0  0  0  0  0
  140.2260   74.5380  221.9030 C   0  0  0  0  0  0  0  0  0  0  0  0
  140.7490   74.2510  220.7020 N   0  0  0  0  0  0  0  0  0  0  0  0
  141.0120   73.0140  220.2980 C   0  0  0  0  0  0  0  0  0  0  0  0
  141.5620   72.7110  219.0290 N   0  0  0  0  0  0  0  0  0  0  0  0
  142.8690   73.1050  218.5850 C   0  0  1  0  0  0  0  0  0  0  0  0
  142.8240   74.0110  217.3750 C   0  0  0  0  0  0  0  0  0  0  0  0
  143.5370   75.3220  217.6340 C   0  0  0  0  0  0  0  0  0  0  0  0
  142.8020   76.0080  218.7450 C   0  0  2  0  0  0  0  0  0  0  0  0
  142.9770   77.3890  218.8990 N   0  0  0  0  0  0  0  0  0  0  0  0
  142.9590   78.2510  217.7880 C   0  0  0  0  0  0  0  0  0  0  0  0
  141.5430   78.6850  217.6610 C   0  0  0  0  0  0  0  0  0  0  0  0
  141.0770   78.7050  219.1030 C   0  0  0  0  0  0  0  0  0  0  0  0
  142.1890   78.0560  219.8660 C   0  0  0  0  0  0  0  0  0  0  0  0
  143.0130   75.1840  219.9860 C   0  0  0  0  0  0  0  0  0  0  0  0
  143.6130   73.8110  219.6860 C   0  0  0  0  0  0  0  0  0  0  0  0
  140.7300   72.0060  221.1530 N   0  0  0  0  0  0  0  0  0  0  0  0
  140.2110   72.2270  222.3570 C   0  0  0  0  0  0  0  0  0  0  0  0
  139.8990   71.1950  223.2940 N   0  0  0  0  0  0  0  0  0  0  0  0
  139.4820   69.8750  222.8480 C   0  0  0  0  0  0  0  0  0  0  0  0
  138.6390   69.2270  223.9450 C   0  0  0  0  0  0  0  0  0  0  0  0
  139.4740   69.1340  225.1750 C   0  0  0  0  0  0  0  0  0  0  0  0
  139.5600   67.9710  225.8970 C   0  0  0  0  0  0  0  0  0  0  0  0
  140.3580   67.9730  227.0210 C   0  0  0  0  0  0  0  0  0  0  0  0
  141.0420   69.1110  227.4020 C   0  0  0  0  0  0  0  0  0  0  0  0
  140.9600   70.3010  226.6720 C   0  0  0  0  0  0  0  0  0  0  0  0
  140.1530   70.2940  225.5350 C   0  0  0  0  0  0  0  0  0  0  0  0
  140.0210   71.5290  224.7130 C   0  0  0  0  0  0  0  0  0  0  0  0
  139.9660   73.4960  222.7140 N   0  0  0  0  0  0  0  0  0  0  0  0
  141.0400   76.7470  222.6720 C   0  0  0  0  0  0  0  0  0  0  0  0
  139.6882   81.8765  223.0891 H   0  0  0  0  0  0  0  0  0  0  0  0
  141.8577   81.0710  224.0589 H   0  0  0  0  0  0  0  0  0  0  0  0
  142.4038   78.6595  223.8146 H   0  0  0  0  0  0  0  0  0  0  0  0
  138.1836   80.3036  221.9494 H   0  0  0  0  0  0  0  0  0  0  0  0
  137.5383   78.0014  221.4766 H   0  0  0  0  0  0  0  0  0  0  0  0
  138.9029   77.3983  220.5316 H   0  0  0  0  0  0  0  0  0  0  0  0
  138.3679   76.6189  223.4880 H   0  0  0  0  0  0  0  0  0  0  0  0
  137.8503   75.6131  222.1340 H   0  0  0  0  0  0  0  0  0  0  0  0
  140.9840   72.1520  218.3380 H   0  0  0  0  0  0  0  0  0  0  0  0
  143.3897   72.1778  218.3037 H   0  0  0  0  0  0  0  0  0  0  0  0
  141.7735   74.2194  217.1238 H   0  0  0  0  0  0  0  0  0  0  0  0
  143.3326   73.5008  216.5437 H   0  0  0  0  0  0  0  0  0  0  0  0
  143.5209   75.9462  216.7284 H   0  0  0  0  0  0  0  0  0  0  0  0
  144.5887   75.1499  217.9065 H   0  0  0  0  0  0  0  0  0  0  0  0
  141.7367   76.0354  218.4724 H   0  0  0  0  0  0  0  0  0  0  0  0
  143.6149   79.1171  217.9599 H   0  0  0  0  0  0  0  0  0  0  0  0
  143.3231   77.7566  216.8753 H   0  0  0  0  0  0  0  0  0  0  0  0
  141.4725   79.6841  217.2063 H   0  0  0  0  0  0  0  0  0  0  0  0
  140.9398   78.0314  217.0137 H   0  0  0  0  0  0  0  0  0  0  0  0
  140.9210   79.7382  219.4468 H   0  0  0  0  0  0  0  0  0  0  0  0
  140.1173   78.1849  219.2394 H   0  0  0  0  0  0  0  0  0  0  0  0
  142.7874   78.8146  220.3917 H   0  0  0  0  0  0  0  0  0  0  0  0
  141.8073   77.3613  220.6287 H   0  0  0  0  0  0  0  0  0  0  0  0
  142.0425   75.0429  220.4842 H   0  0  0  0  0  0  0  0  0  0  0  0
  143.7242   75.7249  220.6276 H   0  0  0  0  0  0  0  0  0  0  0  0
  143.5686   73.1961  220.5970 H   0  0  0  0  0  0  0  0  0  0  0  0
  144.6528   73.9563  219.3577 H   0  0  0  0  0  0  0  0  0  0  0  0
  138.8847   69.9671  221.9289 H   0  0  0  0  0  0  0  0  0  0  0  0
  140.3662   69.2543  222.6410 H   0  0  0  0  0  0  0  0  0  0  0  0
  137.7491   69.8421  224.1440 H   0  0  0  0  0  0  0  0  0  0  0  0
  138.3092   68.2256  223.6313 H   0  0  0  0  0  0  0  0  0  0  0  0
  139.0114   67.0684  225.5899 H   0  0  0  0  0  0  0  0  0  0  0  0
  140.4513   67.0566  227.6222 H   0  0  0  0  0  0  0  0  0  0  0  0
  141.6690   69.0803  228.3053 H   0  0  0  0  0  0  0  0  0  0  0  0
  141.5082   71.2031  226.9813 H   0  0  0  0  0  0  0  0  0  0  0  0
  139.1249   72.0812  225.0323 H   0  0  0  0  0  0  0  0  0  0  0  0
  140.9204   72.1462  224.8550 H   0  0  0  0  0  0  0  0  0  0  0  0
  141.4523   76.4411  223.6448 H   0  0  0  0  0  0  0  0  0  0  0  0
  141.7888   76.6766  221.8693 H   0  0  0  0  0  0  0  0  0  0  0  0
  1  2  2  0
  2  3  1  0
  3  4  2  0
  4  5  1  0
  5  6  2  0
  5  7  1  0
  7  8  1  0
  8  9  1  0
  9 10  1  0
 10 11  2  0
 11 12  1  0
 12 13  1  0
 13 14  1  0
 14 15  1  0
 15 16  1  0
 16 17  1  0
 17 18  1  0
 18 19  1  0
 19 20  1  0
 20 21  1  0
 21 22  1  0
 17 23  1  0
 23 24  1  0
 12 25  2  0
 25 26  1  0
 26 27  1  0
 27 28  1  0
 28 29  1  0
 29 30  1  0
 30 31  2  0
 31 32  1  0
 32 33  2  0
 33 34  1  0
 34 35  2  0
 35 36  1  0
 26 37  2  0
  9 38  1  0
  6  1  1  0
 37 10  1  0
 38  4  1  0
 24 14  1  0
 36 27  1  0
 22 18  1  0
 35 30  1  0
  1 39  1  0
  2 40  1  0
  3 41  1  0
  6 42  1  0
  7 43  1  0
  7 44  1  0
  8 45  1  0
  8 46  1  0
 13 47  1  0
 14 48  1  6
 15 49  1  0
 15 50  1  0
 16 51  1  0
 16 52  1  0
 17 53  1  6
 19 54  1  0
 19 55  1  0
 20 56  1  0
 20 57  1  0
 21 58  1  0
 21 59  1  0
 22 60  1  0
 22 61  1  0
 23 62  1  0
 23 63  1  0
 24 64  1  0
 24 65  1  0
 28 66  1  0
 28 67  1  0
 29 68  1  0
 29 69  1  0
 31 70  1  0
 32 71  1  0
 33 72  1  0
 34 73  1  0
 36 74  1  0
 36 75  1  0
 38 76  1  0
 38 77  1  0
M  END
>  <smiles>  (1) 
c1ccc2c(c1)CCN(c1nc(N[C@H]3CC[C@H](N4CCCC4)CC3)nc(N3CCc4ccccc4C3)n1)C2

>  <score_type>  (1) 
oracle

>  <origin>  (1) 
autodockgpu

>  <m_score__min__energy>  (1) 
-11.02

>  <m_primary>  (1) 
energy

>  <rmsd>  (1) 
6.426450420754999

>  <m_score__min__rmsd>  (1) 
6.426450420754999

>  <meeko>  (1) 
{"free_energy": -9.6, "intermolecular_energy": -11.09, "internal_energy": -1.82, "cluster_size": 32, "cluster_id": 2, "rank_in_cluster": 12}

>  <energy>  (1) 
-11.02

>  <cluster_rmsd>  (1) 
0.0

>  <cluster>  (1) 
1

$$$$

     RDKit          3D

 77 83  0  0  0  0  0  0  0  0999 V2000
  140.0200   80.4960  222.0820 C   0  0  0  0  0  0  0  0  0  0  0  0
  141.1060   80.1390  222.8610 C   0  0  0  0  0  0  0  0  0  0  0  0
  141.3990   78.7920  222.9280 C   0  0  0  0  0  0  0  0  0  0  0  0
  140.6670   77.8330  222.2670 C   0  0  0  0  0  0  0  0  0  0  0  0
  139.5990   78.1930  221.5020 C   0  0  0  0  0  0  0  0  0  0  0  0
  139.2880   79.5350  221.4200 C   0  0  0  0  0  0  0  0  0  0  0  0
  138.8370   77.1310  220.8060 C   0  0  0  0  0  0  0  0  0  0  0  0
  138.7060   75.9920  221.8290 C   0  0  0  0  0  0  0  0  0  0  0  0
  140.0540   75.4890  222.0040 N   0  0  0  0  0  0  0  0  0  0  0  0
  140.3800   74.1330  221.7890 C   0  0  0  0  0  0  0  0  0  0  0  0
  141.0030   73.6960  220.6840 N   0  0  0  0  0  0  0  0  0  0  0  0
  141.3140   72.4210  220.4800 C   0  0  0  0  0  0  0  0  0  0  0  0
  141.9700   71.9600  219.3120 N   0  0  0  0  0  0  0  0  0  0  0  0
  143.2770   72.3730  218.8860 C   0  0  1  0  0  0  0  0  0  0  0  0
  144.3080   72.2660  219.9860 C   0  0  0  0  0  0  0  0  0  0  0  0
  145.4720   71.3870  219.5770 C   0  0  0  0  0  0  0  0  0  0  0  0
  144.9200   70.0150  219.3350 C   0  0  2  0  0  0  0  0  0  0  0  0
  145.8090   68.9320  219.3590 N   0  0  0  0  0  0  0  0  0  0  0  0
  145.5190   67.7720  220.0980 C   0  0  0  0  0  0  0  0  0  0  0  0
  144.8210   66.8720  219.1440 C   0  0  0  0  0  0  0  0  0  0  0  0
  145.4760   67.2260  217.8230 C   0  0  0  0  0  0  0  0  0  0  0  0
  146.2930   68.4430  218.1240 C   0  0  0  0  0  0  0  0  0  0  0  0
  144.0370   70.1040  218.1210 C   0  0  0  0  0  0  0  0  0  0  0  0
  143.7380   71.5470  217.7140 C   0  0  0  0  0  0  0  0  0  0  0  0
  140.9790   71.5350  221.4420 N   0  0  0  0  0  0  0  0  0  0  0  0
  140.3610   71.9070  222.5590 C   0  0  0  0  0  0  0  0  0  0  0  0
  139.9890   71.0070  223.6040 N   0  0  0  0  0  0  0  0  0  0  0  0
  139.4740   69.6800  223.3050 C   0  0  0  0  0  0  0  0  0  0  0  0
  138.6010   69.2160  224.4710 C   0  0  0  0  0  0  0  0  0  0  0  0
  139.4420   69.1960  225.6990 C   0  0  0  0  0  0  0  0  0  0  0  0
  139.4550   68.1150  226.5420 C   0  0  0  0  0  0  0  0  0  0  0  0
  140.2650   68.1820  227.6560 C   0  0  0  0  0  0  0  0  0  0  0  0
  141.0320   69.3030  227.9080 C   0  0  0  0  0  0  0  0  0  0  0  0
  141.0250   70.4090  227.0540 C   0  0  0  0  0  0  0  0  0  0  0  0
  140.2060   70.3380  225.9280 C   0  0  0  0  0  0  0  0  0  0  0  0
  140.1510   71.4830  224.9780 C   0  0  0  0  0  0  0  0  0  0  0  0
  140.0700   73.2070  222.7150 N   0  0  0  0  0  0  0  0  0  0  0  0
  141.0800   76.4240  222.4160 C   0  0  0  0  0  0  0  0  0  0  0  0
  139.7388   81.5555  221.9905 H   0  0  0  0  0  0  0  0  0  0  0  0
  141.7045   80.8892  223.3987 H   0  0  0  0  0  0  0  0  0  0  0  0
  142.2565   78.4707  223.5374 H   0  0  0  0  0  0  0  0  0  0  0  0
  138.4293   79.8469  220.8073 H   0  0  0  0  0  0  0  0  0  0  0  0
  137.8438   77.4998  220.5102 H   0  0  0  0  0  0  0  0  0  0  0  0
  139.3401   76.8005  219.8853 H   0  0  0  0  0  0  0  0  0  0  0  0
  138.3082   76.3717  222.7817 H   0  0  0  0  0  0  0  0  0  0  0  0
  138.0132   75.2083  221.4887 H   0  0  0  0  0  0  0  0  0  0  0  0
  141.4780   71.2560  218.6900 H   0  0  0  0  0  0  0  0  0  0  0  0
  143.1864   73.4309  218.5986 H   0  0  0  0  0  0  0  0  0  0  0  0
  143.8327   71.8357  220.8798 H   0  0  0  0  0  0  0  0  0  0  0  0
  144.6952   73.2745  220.1934 H   0  0  0  0  0  0  0  0  0  0  0  0
  146.2227   71.3560  220.3804 H   0  0  0  0  0  0  0  0  0  0  0  0
  145.9615   71.7786  218.6731 H   0  0  0  0  0  0  0  0  0  0  0  0
  144.3341   69.7303  220.2214 H   0  0  0  0  0  0  0  0  0  0  0  0
  146.4454   67.3046  220.4631 H   0  0  0  0  0  0  0  0  0  0  0  0
  144.9053   67.9899  220.9845 H   0  0  0  0  0  0  0  0  0  0  0  0
  144.9871   65.8151  219.3999 H   0  0  0  0  0  0  0  0  0  0  0  0
  143.7283   66.9982  219.1403 H   0  0  0  0  0  0  0  0  0  0  0  0
  146.1177   66.4034  217.4744 H   0  0  0  0  0  0  0  0  0  0  0  0
  144.7396   67.4034  217.0253 H   0  0  0  0  0  0  0  0  0  0  0  0
  147.3578   68.1795  218.2064 H   0  0  0  0  0  0  0  0  0  0  0  0
  146.2081   69.1966  217.3272 H   0  0  0  0  0  0  0  0  0  0  0  0
  143.0863   69.5956  218.3392 H   0  0  0  0  0  0  0  0  0  0  0  0
  144.5708   69.6268  217.2859 H   0  0  0  0  0  0  0  0  0  0  0  0
  142.9492   71.5448  216.9473 H   0  0  0  0  0  0  0  0  0  0  0  0
  144.6654   71.9923  217.3247 H   0  0  0  0  0  0  0  0  0  0  0  0
  138.8729   69.7155  222.3844 H   0  0  0  0  0  0  0  0  0  0  0  0
  140.3091   68.9787  223.1612 H   0  0  0  0  0  0  0  0  0  0  0  0
  137.7596   69.9115  224.6066 H   0  0  0  0  0  0  0  0  0  0  0  0
  138.1973   68.2129  224.2692 H   0  0  0  0  0  0  0  0  0  0  0  0
  138.8410   67.2256  226.3370 H   0  0  0  0  0  0  0  0  0  0  0  0
  140.3009   67.3318  228.3530 H   0  0  0  0  0  0  0  0  0  0  0  0
  141.6663   69.3256  228.8065 H   0  0  0  0  0  0  0  0  0  0  0  0
  141.6394   71.2976  227.2613 H   0  0  0  0  0  0  0  0  0  0  0  0
  139.2996   72.1286  225.2393 H   0  0  0  0  0  0  0  0  0  0  0  0
  141.0929   72.0468  225.0484 H   0  0  0  0  0  0  0  0  0  0  0  0
  141.3196   76.2385  223.4734 H   0  0  0  0  0  0  0  0  0  0  0  0
  141.9519   76.2652  221.7645 H   0  0  0  0  0  0  0  0  0  0  0  0
  1  2  2  0
  2  3  1  0
  3  4  2  0
  4  5  1  0
  5  6  2  0
  5  7  1  0
  7  8  1  0
  8  9  1  0
  9 10  1  0
 10 11  2  0
 11 12  1  0
 12 13  1  0
 13 14  1  0
 14 15  1  0
 15 16  1  0
 16 17  1  0
 17 18  1  0
 18 19  1  0
 19 20  1  0
 20 21  1  0
 21 22  1  0
 17 23  1  0
 23 24  1  0
 12 25  2  0
 25 26  1  0
 26 27  1  0
 27 28  1  0
 28 29  1  0
 29 30  1  0
 30 31  2  0
 31 32  1  0
 32 33  2  0
 33 34  1  0
 34 35  2  0
 35 36  1  0
 26 37  2  0
  9 38  1  0
  6  1  1  0
 37 10  1  0
 38  4  1  0
 24 14  1  0
 36 27  1  0
 22 18  1  0
 35 30  1  0
  1 39  1  0
  2 40  1  0
  3 41  1  0
  6 42  1  0
  7 43  1  0
  7 44  1  0
  8 45  1  0
  8 46  1  0
 13 47  1  0
 14 48  1  6
 15 49  1  0
 15 50  1  0
 16 51  1  0
 16 52  1  0
 17 53  1  1
 19 54  1  0
 19 55  1  0
 20 56  1  0
 20 57  1  0
 21 58  1  0
 21 59  1  0
 22 60  1  0
 22 61  1  0
 23 62  1  0
 23 63  1  0
 24 64  1  0
 24 65  1  0
 28 66  1  0
 28 67  1  0
 29 68  1  0
 29 69  1  0
 31 70  1  0
 32 71  1  0
 33 72  1  0
 34 73  1  0
 36 74  1  0
 36 75  1  0
 38 76  1  0
 38 77  1  0
M  END
>  <smiles>  (2) 
c1ccc2c(c1)CCN(c1nc(N[C@H]3CC[C@H](N4CCCC4)CC3)nc(N3CCc4ccccc4C3)n1)C2

>  <score_type>  (2) 
oracle

>  <origin>  (2) 
autodockgpu

>  <m_score__min__energy>  (2) 
-11.02

>  <m_primary>  (2) 
energy

>  <rmsd>  (2) 
10.669012572018126

>  <m_score__min__rmsd>  (2) 
10.669012572018126

>  <meeko>  (2) 
{"free_energy": -10.28, "intermolecular_energy": -11.77, "internal_energy": -1.32, "cluster_size": 32, "cluster_id": 2, "rank_in_cluster": 7}

>  <energy>  (2) 
-10.97

>  <cluster_rmsd>  (2) 
0.09

>  <cluster>  (2) 
1

$$$$

     RDKit          3D

 77 83  0  0  0  0  0  0  0  0999 V2000
  142.0450   81.3590  222.2670 C   0  0  0  0  0  0  0  0  0  0  0  0
  141.6670   80.9090  223.5190 C   0  0  0  0  0  0  0  0  0  0  0  0
  141.3620   79.5670  223.6240 C   0  0  0  0  0  0  0  0  0  0  0  0
  141.4220   78.7000  222.5580 C   0  0  0  0  0  0  0  0  0  0  0  0
  141.7940   79.1510  221.3280 C   0  0  0  0  0  0  0  0  0  0  0  0
  142.1040   80.4900  221.1990 C   0  0  0  0  0  0  0  0  0  0  0  0
  141.8450   78.1870  220.2060 C   0  0  0  0  0  0  0  0  0  0  0  0
  140.5870   77.3190  220.3620 C   0  0  0  0  0  0  0  0  0  0  0  0
  140.8060   76.5560  221.5740 N   0  0  0  0  0  0  0  0  0  0  0  0
  140.7620   75.1460  221.5900 C   0  0  0  0  0  0  0  0  0  0  0  0
  139.7510   74.4500  222.1300 N   0  0  0  0  0  0  0  0  0  0  0  0
  139.7050   73.1230  222.1440 C   0  0  0  0  0  0  0  0  0  0  0  0
  138.6380   72.3890  222.7160 N   0  0  0  0  0  0  0  0  0  0  0  0
  138.2960   71.0370  222.3780 C   0  0  1  0  0  0  0  0  0  0  0  0
  139.5130   70.1740  222.1280 C   0  0  0  0  0  0  0  0  0  0  0  0
  139.5290   68.9580  223.0320 C   0  0  0  0  0  0  0  0  0  0  0  0
  139.6090   69.4620  224.4410 C   0  0  2  0  0  0  0  0  0  0  0  0
  140.0570   68.5790  225.4330 N   0  0  0  0  0  0  0  0  0  0  0  0
  141.2880   68.7800  226.0800 C   0  0  0  0  0  0  0  0  0  0  0  0
  140.9640   69.5910  227.2830 C   0  0  0  0  0  0  0  0  0  0  0  0
  139.5750   69.1000  227.6420 C   0  0  0  0  0  0  0  0  0  0  0  0
  139.1660   68.2500  226.4800 C   0  0  0  0  0  0  0  0  0  0  0  0
  138.3090   70.1600  224.7320 C   0  0  0  0  0  0  0  0  0  0  0  0
  137.4780   70.4060  223.4740 C   0  0  0  0  0  0  0  0  0  0  0  0
  140.7380   72.4580  221.5810 N   0  0  0  0  0  0  0  0  0  0  0  0
  141.7680   73.0920  221.0300 C   0  0  0  0  0  0  0  0  0  0  0  0
  142.8800   72.4310  220.4230 N   0  0  0  0  0  0  0  0  0  0  0  0
  144.2220   72.9850  220.5100 C   0  0  0  0  0  0  0  0  0  0  0  0
  145.0400   72.4870  219.3190 C   0  0  0  0  0  0  0  0  0  0  0  0
  145.0730   70.9990  219.3710 C   0  0  0  0  0  0  0  0  0  0  0  0
  146.2460   70.3020  219.2310 C   0  0  0  0  0  0  0  0  0  0  0  0
  146.1850   68.9270  219.2930 C   0  0  0  0  0  0  0  0  0  0  0  0
  144.9810   68.2790  219.4900 C   0  0  0  0  0  0  0  0  0  0  0  0
  143.7800   68.9810  219.6350 C   0  0  0  0  0  0  0  0  0  0  0  0
  143.8460   70.3720  219.5710 C   0  0  0  0  0  0  0  0  0  0  0  0
  142.6030   71.1810  219.7170 C   0  0  0  0  0  0  0  0  0  0  0  0
  141.7640   74.4330  221.0430 N   0  0  0  0  0  0  0  0  0  0  0  0
  141.0730   77.2860  222.7970 C   0  0  0  0  0  0  0  0  0  0  0  0
  142.3006   82.4191  222.1225 H   0  0  0  0  0  0  0  0  0  0  0  0
  141.6124   81.5848  224.3852 H   0  0  0  0  0  0  0  0  0  0  0  0
  141.0571   79.1730  224.6047 H   0  0  0  0  0  0  0  0  0  0  0  0
  142.4072   80.8749  220.2142 H   0  0  0  0  0  0  0  0  0  0  0  0
  141.8311   78.7164  219.2419 H   0  0  0  0  0  0  0  0  0  0  0  0
  142.7649   77.5841  220.2239 H   0  0  0  0  0  0  0  0  0  0  0  0
  139.6913   77.9502  220.4590 H   0  0  0  0  0  0  0  0  0  0  0  0
  140.4219   76.6700  219.4893 H   0  0  0  0  0  0  0  0  0  0  0  0
  138.0330   72.8520  223.4540 H   0  0  0  0  0  0  0  0  0  0  0  0
  137.7129   71.0921  221.4469 H   0  0  0  0  0  0  0  0  0  0  0  0
  140.4182   70.7703  222.3155 H   0  0  0  0  0  0  0  0  0  0  0  0
  139.4806   69.8270  221.0847 H   0  0  0  0  0  0  0  0  0  0  0  0
  140.4030   68.3298  222.8051 H   0  0  0  0  0  0  0  0  0  0  0  0
  138.6268   68.3463  222.8840 H   0  0  0  0  0  0  0  0  0  0  0  0
  140.4504   70.1685  224.4958 H   0  0  0  0  0  0  0  0  0  0  0  0
  141.7330   67.8172  226.3715 H   0  0  0  0  0  0  0  0  0  0  0  0
  142.0193   69.2815  225.4290 H   0  0  0  0  0  0  0  0  0  0  0  0
  141.6775   69.3973  228.0975 H   0  0  0  0  0  0  0  0  0  0  0  0
  141.0154   70.6759  227.1087 H   0  0  0  0  0  0  0  0  0  0  0  0
  139.5996   68.5068  228.5680 H   0  0  0  0  0  0  0  0  0  0  0  0
  138.8728   69.9271  227.8229 H   0  0  0  0  0  0  0  0  0  0  0  0
  139.2519   67.1836  226.7358 H   0  0  0  0  0  0  0  0  0  0  0  0
  138.1192   68.4300  226.1939 H   0  0  0  0  0  0  0  0  0  0  0  0
  138.5278   71.1290  225.2044 H   0  0  0  0  0  0  0  0  0  0  0  0
  137.7225   69.5075  225.3955 H   0  0  0  0  0  0  0  0  0  0  0  0
  136.6420   71.0754  223.7248 H   0  0  0  0  0  0  0  0  0  0  0  0
  137.1113   69.4345  223.1110 H   0  0  0  0  0  0  0  0  0  0  0  0
  144.1703   74.0836  220.4892 H   0  0  0  0  0  0  0  0  0  0  0  0
  144.6975   72.6655  221.4490 H   0  0  0  0  0  0  0  0  0  0  0  0
  144.5710   72.8171  218.3803 H   0  0  0  0  0  0  0  0  0  0  0  0
  146.0615   72.8928  219.3615 H   0  0  0  0  0  0  0  0  0  0  0  0
  147.2022   70.8228  219.0747 H   0  0  0  0  0  0  0  0  0  0  0  0
  147.1072   68.3374  219.1842 H   0  0  0  0  0  0  0  0  0  0  0  0
  144.9664   67.1800  219.5341 H   0  0  0  0  0  0  0  0  0  0  0  0
  142.8250   68.4583  219.7926 H   0  0  0  0  0  0  0  0  0  0  0  0
  142.2026   71.4112  218.7186 H   0  0  0  0  0  0  0  0  0  0  0  0
  141.8701   70.6017  220.2978 H   0  0  0  0  0  0  0  0  0  0  0  0
  140.1750   77.2486  223.4311 H   0  0  0  0  0  0  0  0  0  0  0  0
  141.9377   76.8104  223.2829 H   0  0  0  0  0  0  0  0  0  0  0  0
  1  2  2  0
  2  3  1  0
  3  4  2  0
  4  5  1  0
  5  6  2  0
  5  7  1  0
  7  8  1  0
  8  9  1  0
  9 10  1  0
 10 11  2  0
 11 12  1  0
 12 13  1  0
 13 14  1  0
 14 15  1  0
 15 16  1  0
 16 17  1  0
 17 18  1  0
 18 19  1  0
 19 20  1  0
 20 21  1  0
 21 22  1  0
 17 23  1  0
 23 24  1  0
 12 25  2  0
 25 26  1  0
 26 27  1  0
 27 28  1  0
 28 29  1  0
 29 30  1  0
 30 31  2  0
 31 32  1  0
 32 33  2  0
 33 34  1  0
 34 35  2  0
 35 36  1  0
 26 37  2  0
  9 38  1  0
  6  1  1  0
 37 10  1  0
 38  4  1  0
 24 14  1  0
 36 27  1  0
 22 18  1  0
 35 30  1  0
  1 39  1  0
  2 40  1  0
  3 41  1  0
  6 42  1  0
  7 43  1  0
  7 44  1  0
  8 45  1  0
  8 46  1  0
 13 47  1  0
 14 48  1  6
 15 49  1  0
 15 50  1  0
 16 51  1  0
 16 52  1  0
 17 53  1  6
 19 54  1  0
 19 55  1  0
 20 56  1  0
 20 57  1  0
 21 58  1  0
 21 59  1  0
 22 60  1  0
 22 61  1  0
 23 62  1  0
 23 63  1  0
 24 64  1  0
 24 65  1  0
 28 66  1  0
 28 67  1  0
 29 68  1  0
 29 69  1  0
 31 70  1  0
 32 71  1  0
 33 72  1  0
 34 73  1  0
 36 74  1  0
 36 75  1  0
 38 76  1  0
 38 77  1  0
M  END
>  <smiles>  (3) 
c1ccc2c(c1)CCN(c1nc(N[C@H]3CC[C@H](N4CCCC4)CC3)nc(N3CCc4ccccc4C3)n1)C2

>  <score_type>  (3) 
oracle

>  <origin>  (3) 
autodockgpu

>  <m_score__min__energy>  (3) 
-11.02

>  <m_primary>  (3) 
energy

>  <rmsd>  (3) 
11.629342257585387

>  <m_score__min__rmsd>  (3) 
11.629342257585387

>  <meeko>  (3) 
{"free_energy": -10.44, "intermolecular_energy": -11.93, "internal_energy": -1.24, "cluster_size": 7, "cluster_id": 1, "rank_in_cluster": 4}

>  <energy>  (3) 
-10.95

>  <cluster_rmsd>  (3) 
0.15

>  <cluster>  (3) 
1

$$$$

     RDKit          3D

 77 83  0  0  0  0  0  0  0  0999 V2000
  139.5320   69.1880  228.1170 C   0  0  0  0  0  0  0  0  0  0  0  0
  140.7140   69.8840  228.2940 C   0  0  0  0  0  0  0  0  0  0  0  0
  141.1590   70.6230  227.2160 C   0  0  0  0  0  0  0  0  0  0  0  0
  140.4850   70.6820  226.0190 C   0  0  0  0  0  0  0  0  0  0  0  0
  139.3220   69.9940  225.8530 C   0  0  0  0  0  0  0  0  0  0  0  0
  138.8570   69.2480  226.9170 C   0  0  0  0  0  0  0  0  0  0  0  0
  138.6260   70.0830  224.5490 C   0  0  0  0  0  0  0  0  0  0  0  0
  139.7360   69.9890  223.4920 C   0  0  0  0  0  0  0  0  0  0  0  0
  140.4990   71.2130  223.6400 N   0  0  0  0  0  0  0  0  0  0  0  0
  140.7030   72.1030  222.5640 C   0  0  0  0  0  0  0  0  0  0  0  0
  141.2550   71.7300  221.3990 N   0  0  0  0  0  0  0  0  0  0  0  0
  141.4450   72.5640  220.3840 C   0  0  0  0  0  0  0  0  0  0  0  0
  142.0300   72.1710  219.1550 N   0  0  0  0  0  0  0  0  0  0  0  0
  143.3680   72.4880  218.7430 C   0  0  1  0  0  0  0  0  0  0  0  0
  144.3710   72.3450  219.8650 C   0  0  0  0  0  0  0  0  0  0  0  0
  145.4840   71.3830  219.4990 C   0  0  0  0  0  0  0  0  0  0  0  0
  144.8480   70.0430  219.2820 C   0  0  2  0  0  0  0  0  0  0  0  0
  145.6650   68.9070  219.3490 N   0  0  0  0  0  0  0  0  0  0  0  0
  145.2670   67.7690  220.0720 C   0  0  0  0  0  0  0  0  0  0  0  0
  144.5620   66.9110  219.0830 C   0  0  0  0  0  0  0  0  0  0  0  0
  145.3030   67.2210  217.7970 C   0  0  0  0  0  0  0  0  0  0  0  0
  146.1780   68.3850  218.1390 C   0  0  0  0  0  0  0  0  0  0  0  0
  143.9940   70.1570  218.0490 C   0  0  0  0  0  0  0  0  0  0  0  0
  143.7950   71.6040  217.6010 C   0  0  0  0  0  0  0  0  0  0  0  0
  141.0580   73.8470  220.5490 N   0  0  0  0  0  0  0  0  0  0  0  0
  140.5040   74.2770  221.6800 C   0  0  0  0  0  0  0  0  0  0  0  0
  140.0780   75.6230  221.9000 N   0  0  0  0  0  0  0  0  0  0  0  0
  138.7130   75.9230  222.3000 C   0  0  0  0  0  0  0  0  0  0  0  0
  138.3700   77.3440  221.8560 C   0  0  0  0  0  0  0  0  0  0  0  0
  139.3320   78.2760  222.5050 C   0  0  0  0  0  0  0  0  0  0  0  0
  138.9100   79.4120  223.1480 C   0  0  0  0  0  0  0  0  0  0  0  0
  139.8690   80.2170  223.7230 C   0  0  0  0  0  0  0  0  0  0  0  0
  141.2080   79.8870  223.6500 C   0  0  0  0  0  0  0  0  0  0  0  0
  141.6480   78.7310  222.9980 C   0  0  0  0  0  0  0  0  0  0  0  0
  140.6750   77.9190  222.4180 C   0  0  0  0  0  0  0  0  0  0  0  0
  141.0770   76.6730  221.7060 C   0  0  0  0  0  0  0  0  0  0  0  0
  140.3350   73.3920  222.6740 N   0  0  0  0  0  0  0  0  0  0  0  0
  141.0620   71.5090  224.9410 C   0  0  0  0  0  0  0  0  0  0  0  0
  139.1274   68.5816  228.9408 H   0  0  0  0  0  0  0  0  0  0  0  0
  141.2697   69.8506  229.2427 H   0  0  0  0  0  0  0  0  0  0  0  0
  142.0956   71.1905  227.3195 H   0  0  0  0  0  0  0  0  0  0  0  0
  137.9192   68.6843  226.8038 H   0  0  0  0  0  0  0  0  0  0  0  0
  137.9135   69.2528  224.4348 H   0  0  0  0  0  0  0  0  0  0  0  0
  138.0470   71.0136  224.4550 H   0  0  0  0  0  0  0  0  0  0  0  0
  140.3729   69.1115  223.6771 H   0  0  0  0  0  0  0  0  0  0  0  0
  139.3306   69.8749  222.4758 H   0  0  0  0  0  0  0  0  0  0  0  0
  141.4560   71.5970  218.4730 H   0  0  0  0  0  0  0  0  0  0  0  0
  143.3506   73.5414  218.4268 H   0  0  0  0  0  0  0  0  0  0  0  0
  143.8541   71.9690  220.7602 H   0  0  0  0  0  0  0  0  0  0  0  0
  144.8178   73.3320  220.0551 H   0  0  0  0  0  0  0  0  0  0  0  0
  146.2181   71.3254  220.3162 H   0  0  0  0  0  0  0  0  0  0  0  0
  146.0129   71.7187  218.5948 H   0  0  0  0  0  0  0  0  0  0  0  0
  144.2297   69.8197  220.1639 H   0  0  0  0  0  0  0  0  0  0  0  0
  146.1433   67.2458  220.4824 H   0  0  0  0  0  0  0  0  0  0  0  0
  144.6248   68.0268  220.9270 H   0  0  0  0  0  0  0  0  0  0  0  0
  144.6492   65.8464  219.3459 H   0  0  0  0  0  0  0  0  0  0  0  0
  143.4807   67.1044  219.0249 H   0  0  0  0  0  0  0  0  0  0  0  0
  145.9088   66.3593  217.4801 H   0  0  0  0  0  0  0  0  0  0  0  0
  144.6196   67.4425  216.9639 H   0  0  0  0  0  0  0  0  0  0  0  0
  147.2188   68.0557  218.2741 H   0  0  0  0  0  0  0  0  0  0  0  0
  146.1796   69.1404  217.3394 H   0  0  0  0  0  0  0  0  0  0  0  0
  143.0090   69.7157  218.2612 H   0  0  0  0  0  0  0  0  0  0  0  0
  144.5113   69.6259  217.2364 H   0  0  0  0  0  0  0  0  0  0  0  0
  143.0208   71.6319  216.8201 H   0  0  0  0  0  0  0  0  0  0  0  0
  144.7556   71.9792  217.2181 H   0  0  0  0  0  0  0  0  0  0  0  0
  138.0233   75.2105  221.8239 H   0  0  0  0  0  0  0  0  0  0  0  0
  138.6173   75.8398  223.3927 H   0  0  0  0  0  0  0  0  0  0  0  0
  138.4542   77.4234  220.7621 H   0  0  0  0  0  0  0  0  0  0  0  0
  137.3396   77.5961  222.1472 H   0  0  0  0  0  0  0  0  0  0  0  0
  137.8424   79.6713  223.2026 H   0  0  0  0  0  0  0  0  0  0  0  0
  139.5640   81.1347  224.2472 H   0  0  0  0  0  0  0  0  0  0  0  0
  141.9489   80.5520  224.1177 H   0  0  0  0  0  0  0  0  0  0  0  0
  142.7161   78.4735  222.9451 H   0  0  0  0  0  0  0  0  0  0  0  0
  141.1731   76.8861  220.6311 H   0  0  0  0  0  0  0  0  0  0  0  0
  142.0384   76.3268  222.1133 H   0  0  0  0  0  0  0  0  0  0  0  0
  142.1465   71.3292  224.9031 H   0  0  0  0  0  0  0  0  0  0  0  0
  140.8286   72.5592  225.1702 H   0  0  0  0  0  0  0  0  0  0  0  0
  1  2  2  0
  2  3  1  0
  3  4  2  0
  4  5  1  0
  5  6  2  0
  5  7  1  0
  7  8  1  0
  8  9  1  0
  9 10  1  0
 10 11  2  0
 11 12  1  0
 12 13  1  0
 13 14  1  0
 14 15  1  0
 15 16  1  0
 16 17  1  0
 17 18  1  0
 18 19  1  0
 19 20  1  0
 20 21  1  0
 21 22  1  0
 17 23  1  0
 23 24  1  0
 12 25  2  0
 25 26  1  0
 26 27  1  0
 27 28  1  0
 28 29  1  0
 29 30  1  0
 30 31  2  0
 31 32  1  0
 32 33  2  0
 33 34  1  0
 34 35  2  0
 35 36  1  0
 26 37  2  0
  9 38  1  0
  6  1  1  0
 37 10  1  0
 38  4  1  0
 24 14  1  0
 36 27  1  0
 22 18  1  0
 35 30  1  0
  1 39  1  0
  2 40  1  0
  3 41  1  0
  6 42  1  0
  7 43  1  0
  7 44  1  0
  8 45  1  0
  8 46  1  0
 13 47  1  0
 14 48  1  6
 15 49  1  0
 15 50  1  0
 16 51  1  0
 16 52  1  0
 17 53  1  1
 19 54  1  0
 19 55  1  0
 20 56  1  0
 20 57  1  0
 21 58  1  0
 21 59  1  0
 22 60  1  0
 22 61  1  0
 23 62  1  0
 23 63  1  0
 24 64  1  0
 24 65  1  0
 28 66  1  0
 28 67  1  0
 29 68  1  0
 29 69  1  0
 31 70  1  0
 32 71  1  0
 33 72  1  0
 34 73  1  0
 36 74  1  0
 36 75  1  0
 38 76  1  0
 38 77  1  0
M  END
>  <smiles>  (4) 
c1ccc2c(c1)CCN(c1nc(N[C@H]3CC[C@H](N4CCCC4)CC3)nc(N3CCc4ccccc4C3)n1)C2

>  <score_type>  (4) 
oracle

>  <origin>  (4) 
autodockgpu

>  <m_score__min__energy>  (4) 
-11.02

>  <m_primary>  (4) 
energy

>  <rmsd>  (4) 
10.628430806818333

>  <m_score__min__rmsd>  (4) 
10.628430806818333

>  <meeko>  (4) 
{"free_energy": -10.43, "intermolecular_energy": -11.93, "internal_energy": -1.36, "cluster_size": 32, "cluster_id": 2, "rank_in_cluster": 3}

>  <energy>  (4) 
-10.44

>  <cluster_rmsd>  (4) 
0.46

>  <cluster>  (4) 
1

$$$$

     RDKit          3D

 77 83  0  0  0  0  0  0  0  0999 V2000
  146.1450   70.3470  217.2020 C   0  0  0  0  0  0  0  0  0  0  0  0
  146.1050   69.4960  218.2920 C   0  0  0  0  0  0  0  0  0  0  0  0
  145.1890   69.8030  219.2780 C   0  0  0  0  0  0  0  0  0  0  0  0
  144.3490   70.8890  219.2080 C   0  0  0  0  0  0  0  0  0  0  0  0
  144.3940   71.7220  218.1320 C   0  0  0  0  0  0  0  0  0  0  0  0
  145.3020   71.4360  217.1330 C   0  0  0  0  0  0  0  0  0  0  0  0
  143.4730   72.8810  218.0940 C   0  0  0  0  0  0  0  0  0  0  0  0
  143.4920   73.4570  219.5180 C   0  0  0  0  0  0  0  0  0  0  0  0
  142.8540   72.4470  220.3400 N   0  0  0  0  0  0  0  0  0  0  0  0
  141.7260   72.7340  221.1370 C   0  0  0  0  0  0  0  0  0  0  0  0
  140.9930   73.8480  220.9960 N   0  0  0  0  0  0  0  0  0  0  0  0
  139.9290   74.1190  221.7430 C   0  0  0  0  0  0  0  0  0  0  0  0
  139.1560   75.2970  221.5940 N   0  0  0  0  0  0  0  0  0  0  0  0
  139.5150   76.4180  220.7740 C   0  0  1  0  0  0  0  0  0  0  0  0
  138.6170   77.6140  220.9970 C   0  0  0  0  0  0  0  0  0  0  0  0
  139.4120   78.8410  221.3960 C   0  0  0  0  0  0  0  0  0  0  0  0
  140.0810   78.5230  222.7000 C   0  0  2  0  0  0  0  0  0  0  0  0
  140.5210   79.5910  223.4920 N   0  0  0  0  0  0  0  0  0  0  0  0
  141.8650   79.6890  223.8940 C   0  0  0  0  0  0  0  0  0  0  0  0
  142.5230   80.5090  222.8430 C   0  0  0  0  0  0  0  0  0  0  0  0
  141.4090   81.4440  222.4140 C   0  0  0  0  0  0  0  0  0  0  0  0
  140.1860   80.9030  223.0850 C   0  0  0  0  0  0  0  0  0  0  0  0
  141.1040   77.4570  222.4190 C   0  0  0  0  0  0  0  0  0  0  0  0
  140.9390   76.8320  221.0340 C   0  0  0  0  0  0  0  0  0  0  0  0
  139.5840   73.2170  222.6870 N   0  0  0  0  0  0  0  0  0  0  0  0
  140.2710   72.0940  222.8750 C   0  0  0  0  0  0  0  0  0  0  0  0
  139.9430   71.1120  223.8590 N   0  0  0  0  0  0  0  0  0  0  0  0
  139.5310   69.7710  223.4750 C   0  0  0  0  0  0  0  0  0  0  0  0
  138.6700   69.1810  224.5910 C   0  0  0  0  0  0  0  0  0  0  0  0
  139.4860   69.1510  225.8360 C   0  0  0  0  0  0  0  0  0  0  0  0
  139.5600   68.0270  226.6190 C   0  0  0  0  0  0  0  0  0  0  0  0
  140.3400   68.0870  227.7540 C   0  0  0  0  0  0  0  0  0  0  0  0
  141.0190   69.2430  228.0860 C   0  0  0  0  0  0  0  0  0  0  0  0
  140.9500   70.3930  227.2940 C   0  0  0  0  0  0  0  0  0  0  0  0
  140.1610   70.3280  226.1470 C   0  0  0  0  0  0  0  0  0  0  0  0
  140.0430   71.5190  225.2600 C   0  0  0  0  0  0  0  0  0  0  0  0
  141.3370   71.8700  222.0930 N   0  0  0  0  0  0  0  0  0  0  0  0
  143.4120   71.1110  220.3260 C   0  0  0  0  0  0  0  0  0  0  0  0
  146.8547   70.1534  216.3842 H   0  0  0  0  0  0  0  0  0  0  0  0
  146.7677   68.6214  218.3689 H   0  0  0  0  0  0  0  0  0  0  0  0
  145.1284   69.1487  220.1602 H   0  0  0  0  0  0  0  0  0  0  0  0
  145.3549   72.0967  216.2551 H   0  0  0  0  0  0  0  0  0  0  0  0
  143.8256   73.6303  217.3700 H   0  0  0  0  0  0  0  0  0  0  0  0
  142.4592   72.5906  217.7813 H   0  0  0  0  0  0  0  0  0  0  0  0
  144.5259   73.6302  219.8512 H   0  0  0  0  0  0  0  0  0  0  0  0
  142.9751   74.4261  219.5786 H   0  0  0  0  0  0  0  0  0  0  0  0
  138.2380   75.3780  222.1190 H   0  0  0  0  0  0  0  0  0  0  0  0
  139.3962   76.0856  219.7322 H   0  0  0  0  0  0  0  0  0  0  0  0
  137.8996   77.3777  221.7967 H   0  0  0  0  0  0  0  0  0  0  0  0
  138.0952   77.8335  220.0538 H   0  0  0  0  0  0  0  0  0  0  0  0
  138.7405   79.7040  221.5161 H   0  0  0  0  0  0  0  0  0  0  0  0
  140.1541   79.0965  220.6253 H   0  0  0  0  0  0  0  0  0  0  0  0
  139.3102   78.1493  223.3901 H   0  0  0  0  0  0  0  0  0  0  0  0
  141.9403   80.1836  224.8737 H   0  0  0  0  0  0  0  0  0  0  0  0
  142.3366   78.7011  224.0024 H   0  0  0  0  0  0  0  0  0  0  0  0
  143.3771   81.0689  223.2517 H   0  0  0  0  0  0  0  0  0  0  0  0
  142.9390   79.9132  222.0172 H   0  0  0  0  0  0  0  0  0  0  0  0
  141.6136   82.4717  222.7486 H   0  0  0  0  0  0  0  0  0  0  0  0
  141.3000   81.4904  221.3204 H   0  0  0  0  0  0  0  0  0  0  0  0
  139.9227   81.5195  223.9571 H   0  0  0  0  0  0  0  0  0  0  0  0
  139.3169   80.9092  222.4108 H   0  0  0  0  0  0  0  0  0  0  0  0
  141.0047   76.6655  223.1764 H   0  0  0  0  0  0  0  0  0  0  0  0
  142.0961   77.9309  222.4538 H   0  0  0  0  0  0  0  0  0  0  0  0
  141.5861   75.9453  220.9640 H   0  0  0  0  0  0  0  0  0  0  0  0
  141.2187   77.5856  220.2831 H   0  0  0  0  0  0  0  0  0  0  0  0
  138.9482   69.8161  222.5432 H   0  0  0  0  0  0  0  0  0  0  0  0
  140.4174   69.1398  223.3139 H   0  0  0  0  0  0  0  0  0  0  0  0
  137.7781   69.8063  224.7444 H   0  0  0  0  0  0  0  0  0  0  0  0
  138.3430   68.1651  224.3243 H   0  0  0  0  0  0  0  0  0  0  0  0
  139.0157   67.1096  226.3504 H   0  0  0  0  0  0  0  0  0  0  0  0
  140.4227   67.2031  228.4035 H   0  0  0  0  0  0  0  0  0  0  0  0
  141.6315   69.2593  228.9996 H   0  0  0  0  0  0  0  0  0  0  0  0
  141.4949   71.3095  227.5645 H   0  0  0  0  0  0  0  0  0  0  0  0
  139.1425   72.0871  225.5362 H   0  0  0  0  0  0  0  0  0  0  0  0
  140.9406   72.1427  225.3840 H   0  0  0  0  0  0  0  0  0  0  0  0
  143.9491   70.9456  221.2716 H   0  0  0  0  0  0  0  0  0  0  0  0
  142.5764   70.4068  220.1997 H   0  0  0  0  0  0  0  0  0  0  0  0
  1  2  2  0
  2  3  1  0
  3  4  2  0
  4  5  1  0
  5  6  2  0
  5  7  1  0
  7  8  1  0
  8  9  1  0
  9 10  1  0
 10 11  2  0
 11 12  1  0
 12 13  1  0
 13 14  1  0
 14 15  1  0
 15 16  1  0
 16 17  1  0
 17 18  1  0
 18 19  1  0
 19 20  1  0
 20 21  1  0
 21 22  1  0
 17 23  1  0
 23 24  1  0
 12 25  2  0
 25 26  1  0
 26 27  1  0
 27 28  1  0
 28 29  1  0
 29 30  1  0
 30 31  2  0
 31 32  1  0
 32 33  2  0
 33 34  1  0
 34 35  2  0
 35 36  1  0
 26 37  2  0
  9 38  1  0
  6  1  1  0
 37 10  1  0
 38  4  1  0
 24 14  1  0
 36 27  1  0
 22 18  1  0
 35 30  1  0
  1 39  1  0
  2 40  1  0
  3 41  1  0
  6 42  1  0
  7 43  1  0
  7 44  1  0
  8 45  1  0
  8 46  1  0
 13 47  1  0
 14 48  1  6
 15 49  1  0
 15 50  1  0
 16 51  1  0
 16 52  1  0
 17 53  1  1
 19 54  1  0
 19 55  1  0
 20 56  1  0
 20 57  1  0
 21 58  1  0
 21 59  1  0
 22 60  1  0
 22 61  1  0
 23 62  1  0
 23 63  1  0
 24 64  1  0
 24 65  1  0
 28 66  1  0
 28 67  1  0
 29 68  1  0
 29 69  1  0
 31 70  1  0
 32 71  1  0
 33 72  1  0
 34 73  1  0
 36 74  1  0
 36 75  1  0
 38 76  1  0
 38 77  1  0
M  END
>  <smiles>  (5) 
c1ccc2c(c1)CCN(c1nc(N[C@H]3CC[C@H](N4CCCC4)CC3)nc(N3CCc4ccccc4C3)n1)C2

>  <score_type>  (5) 
oracle

>  <origin>  (5) 
autodockgpu

>  <m_score__min__energy>  (5) 
-11.02

>  <m_primary>  (5) 
energy

>  <rmsd>  (5) 
5.2343930389226685

>  <m_score__min__rmsd>  (5) 
5.2343930389226685

>  <meeko>  (5) 
{"free_energy": -10.11, "intermolecular_energy": -11.6, "internal_energy": -1.39, "cluster_size": 5, "cluster_id": 3, "rank_in_cluster": 1}

>  <energy>  (5) 
-10.26

>  <cluster_rmsd>  (5) 
1.04

>  <cluster>  (5) 
1

$$$$

     RDKit          3D

 77 83  0  0  0  0  0  0  0  0999 V2000
  140.1040   69.2870  228.0970 C   0  0  0  0  0  0  0  0  0  0  0  0
  141.0460   70.2980  228.1640 C   0  0  0  0  0  0  0  0  0  0  0  0
  141.1650   71.1020  227.0480 C   0  0  0  0  0  0  0  0  0  0  0  0
  140.4040   70.9290  225.9160 C   0  0  0  0  0  0  0  0  0  0  0  0
  139.4790   69.9310  225.8580 C   0  0  0  0  0  0  0  0  0  0  0  0
  139.3410   69.1140  226.9630 C   0  0  0  0  0  0  0  0  0  0  0  0
  138.6790   69.7770  224.6220 C   0  0  0  0  0  0  0  0  0  0  0  0
  139.6760   69.9750  223.4690 C   0  0  0  0  0  0  0  0  0  0  0  0
  140.0630   71.3700  223.5430 N   0  0  0  0  0  0  0  0  0  0  0  0
  139.9090   72.2480  222.4490 C   0  0  0  0  0  0  0  0  0  0  0  0
  139.8660   71.8310  221.1750 N   0  0  0  0  0  0  0  0  0  0  0  0
  139.7180   72.6550  220.1440 C   0  0  0  0  0  0  0  0  0  0  0  0
  139.6760   72.2140  218.7990 N   0  0  0  0  0  0  0  0  0  0  0  0
  140.7410   72.3680  217.8490 C   0  0  1  0  0  0  0  0  0  0  0  0
  141.6280   73.5530  218.1580 C   0  0  0  0  0  0  0  0  0  0  0  0
  143.0780   73.1380  218.3110 C   0  0  0  0  0  0  0  0  0  0  0  0
  143.1430   72.2020  219.4800 C   0  0  2  0  0  0  0  0  0  0  0  0
  144.3850   72.0040  220.0980 N   0  0  0  0  0  0  0  0  0  0  0  0
  145.5730   71.9890  219.3480 C   0  0  0  0  0  0  0  0  0  0  0  0
  146.0570   73.3940  219.3640 C   0  0  0  0  0  0  0  0  0  0  0  0
  145.5940   73.8820  220.7230 C   0  0  0  0  0  0  0  0  0  0  0  0
  144.6990   72.7950  221.2270 C   0  0  0  0  0  0  0  0  0  0  0  0
  142.4080   70.9520  219.0830 C   0  0  0  0  0  0  0  0  0  0  0  0
  141.5930   71.1290  217.8020 C   0  0  0  0  0  0  0  0  0  0  0  0
  139.6080   73.9740  220.4110 N   0  0  0  0  0  0  0  0  0  0  0  0
  139.6420   74.4480  221.6520 C   0  0  0  0  0  0  0  0  0  0  0  0
  139.5280   75.8340  221.9820 N   0  0  0  0  0  0  0  0  0  0  0  0
  138.3780   76.3400  222.7140 C   0  0  0  0  0  0  0  0  0  0  0  0
  138.1930   77.8200  222.3800 C   0  0  0  0  0  0  0  0  0  0  0  0
  139.4340   78.5410  222.7740 C   0  0  0  0  0  0  0  0  0  0  0  0
  139.3900   79.6970  223.5110 C   0  0  0  0  0  0  0  0  0  0  0  0
  140.5870   80.2980  223.8330 C   0  0  0  0  0  0  0  0  0  0  0  0
  141.7880   79.7500  223.4240 C   0  0  0  0  0  0  0  0  0  0  0  0
  141.8430   78.5720  222.6730 C   0  0  0  0  0  0  0  0  0  0  0  0
  140.6300   77.9660  222.3500 C   0  0  0  0  0  0  0  0  0  0  0  0
  140.6180   76.7090  221.5510 C   0  0  0  0  0  0  0  0  0  0  0  0
  139.7930   73.5730  222.6570 N   0  0  0  0  0  0  0  0  0  0  0  0
  140.6240   71.8540  224.7880 C   0  0  0  0  0  0  0  0  0  0  0  0
  139.9630   68.6154  228.9567 H   0  0  0  0  0  0  0  0  0  0  0  0
  141.6670   70.4530  229.0586 H   0  0  0  0  0  0  0  0  0  0  0  0
  141.9022   71.9182  227.0652 H   0  0  0  0  0  0  0  0  0  0  0  0
  138.6001   68.3013  226.9369 H   0  0  0  0  0  0  0  0  0  0  0  0
  138.2300   68.7739  224.5757 H   0  0  0  0  0  0  0  0  0  0  0  0
  137.8497   70.4982  224.5767 H   0  0  0  0  0  0  0  0  0  0  0  0
  140.5524   69.3232  223.5995 H   0  0  0  0  0  0  0  0  0  0  0  0
  139.2359   69.7195  222.4938 H   0  0  0  0  0  0  0  0  0  0  0  0
  138.8010   71.7300  218.4440 H   0  0  0  0  0  0  0  0  0  0  0  0
  140.2612   72.5398  216.8742 H   0  0  0  0  0  0  0  0  0  0  0  0
  141.2888   74.0184  219.0952 H   0  0  0  0  0  0  0  0  0  0  0  0
  141.5592   74.2628  217.3204 H   0  0  0  0  0  0  0  0  0  0  0  0
  143.7063   74.0212  218.4984 H   0  0  0  0  0  0  0  0  0  0  0  0
  143.4463   72.6508  217.3961 H   0  0  0  0  0  0  0  0  0  0  0  0
  142.6444   72.6925  220.3290 H   0  0  0  0  0  0  0  0  0  0  0  0
  146.3135   71.3199  219.8105 H   0  0  0  0  0  0  0  0  0  0  0  0
  145.4103   71.6201  218.3245 H   0  0  0  0  0  0  0  0  0  0  0  0
  147.1527   73.4385  219.2772 H   0  0  0  0  0  0  0  0  0  0  0  0
  145.6782   73.9991  218.5271 H   0  0  0  0  0  0  0  0  0  0  0  0
  146.4511   74.0239  221.3977 H   0  0  0  0  0  0  0  0  0  0  0  0
  145.0807   74.8532  220.6658 H   0  0  0  0  0  0  0  0  0  0  0  0
  145.2185   72.1914  221.9858 H   0  0  0  0  0  0  0  0  0  0  0  0
  143.7942   73.2017  221.7023 H   0  0  0  0  0  0  0  0  0  0  0  0
  141.7253   70.6711  219.8985 H   0  0  0  0  0  0  0  0  0  0  0  0
  143.1589   70.1707  218.8939 H   0  0  0  0  0  0  0  0  0  0  0  0
  140.9407   70.2530  217.6710 H   0  0  0  0  0  0  0  0  0  0  0  0
  142.2950   71.2283  216.9609 H   0  0  0  0  0  0  0  0  0  0  0  0
  137.4778   75.7797  222.4212 H   0  0  0  0  0  0  0  0  0  0  0  0
  138.5405   76.2186  223.7951 H   0  0  0  0  0  0  0  0  0  0  0  0
  138.0188   77.9398  221.3005 H   0  0  0  0  0  0  0  0  0  0  0  0
  137.3268   78.2278  222.9217 H   0  0  0  0  0  0  0  0  0  0  0  0
  138.4315   80.1294  223.8339 H   0  0  0  0  0  0  0  0  0  0  0  0
  140.5869   81.2262  224.4233 H   0  0  0  0  0  0  0  0  0  0  0  0
  142.7266   80.2546  223.6969 H   0  0  0  0  0  0  0  0  0  0  0  0
  142.8027   78.1417  222.3508 H   0  0  0  0  0  0  0  0  0  0  0  0
  140.4828   76.9578  220.4881 H   0  0  0  0  0  0  0  0  0  0  0  0
  141.5733   76.1848  221.7012 H   0  0  0  0  0  0  0  0  0  0  0  0
  141.7070   71.9928  224.6542 H   0  0  0  0  0  0  0  0  0  0  0  0
  140.1168   72.7989  225.0328 H   0  0  0  0  0  0  0  0  0  0  0  0
  1  2  2  0
  2  3  1  0
  3  4  2  0
  4  5  1  0
  5  6  2  0
  5  7  1  0
  7  8  1  0
  8  9  1  0
  9 10  1  0
 10 11  2  0
 11 12  1  0
 12 13  1  0
 13 14  1  0
 14 15  1  0
 15 16  1  0
 16 17  1  0
 17 18  1  0
 18 19  1  0
 19 20  1  0
 20 21  1  0
 21 22  1  0
 17 23  1  0
 23 24  1  0
 12 25  2  0
 25 26  1  0
 26 27  1  0
 27 28  1  0
 28 29  1  0
 29 30  1  0
 30 31  2  0
 31 32  1  0
 32 33  2  0
 33 34  1  0
 34 35  2  0
 35 36  1  0
 26 37  2  0
  9 38  1  0
  6  1  1  0
 37 10  1  0
 38  4  1  0
 24 14  1  0
 36 27  1  0
 22 18  1  0
 35 30  1  0
  1 39  1  0
  2 40  1  0
  3 41  1  0
  6 42  1  0
  7 43  1  0
  7 44  1  0
  8 45  1  0
  8 46  1  0
 13 47  1  0
 14 48  1  6
 15 49  1  0
 15 50  1  0
 16 51  1  0
 16 52  1  0
 17 53  1  1
 19 54  1  0
 19 55  1  0
 20 56  1  0
 20 57  1  0
 21 58  1  0
 21 59  1  0
 22 60  1  0
 22 61  1  0
 23 62  1  0
 23 63  1  0
 24 64  1  0
 24 65  1  0
 28 66  1  0
 28 67  1  0
 29 68  1  0
 29 69  1  0
 31 70  1  0
 32 71  1  0
 33 72  1  0
 34 73  1  0
 36 74  1  0
 36 75  1  0
 38 76  1  0
 38 77  1  0
M  END
>  <smiles>  (6) 
c1ccc2c(c1)CCN(c1nc(N[C@H]3CC[C@H](N4CCCC4)CC3)nc(N3CCc4ccccc4C3)n1)C2

>  <score_type>  (6) 
oracle

>  <origin>  (6) 
autodockgpu

>  <m_score__min__energy>  (6) 
-11.02

>  <m_primary>  (6) 
energy

>  <rmsd>  (6) 
8.397513617887165

>  <m_score__min__rmsd>  (6) 
8.397513617887165

>  <meeko>  (6) 
{"free_energy": -9.57, "intermolecular_energy": -11.06, "internal_energy": -1.86, "cluster_size": 32, "cluster_id": 2, "rank_in_cluster": 14}

>  <energy>  (6) 
-10.25

>  <cluster_rmsd>  (6) 
1.06

>  <cluster>  (6) 
1

$$$$

     RDKit          3D

 77 83  0  0  0  0  0  0  0  0999 V2000
  139.7790   80.8470  223.0640 C   0  0  0  0  0  0  0  0  0  0  0  0
  141.0490   80.4710  223.4610 C   0  0  0  0  0  0  0  0  0  0  0  0
  141.3820   79.1440  223.2820 C   0  0  0  0  0  0  0  0  0  0  0  0
  140.5170   78.2220  222.7410 C   0  0  0  0  0  0  0  0  0  0  0  0
  139.2670   78.6000  222.3520 C   0  0  0  0  0  0  0  0  0  0  0  0
  138.9120   79.9230  222.5220 C   0  0  0  0  0  0  0  0  0  0  0  0
  138.3660   77.5770  221.7740 C   0  0  0  0  0  0  0  0  0  0  0  0
  138.5580   76.3290  222.6490 C   0  0  0  0  0  0  0  0  0  0  0  0
  139.9120   75.8880  222.3800 N   0  0  0  0  0  0  0  0  0  0  0  0
  140.1970   74.5840  221.9210 C   0  0  0  0  0  0  0  0  0  0  0  0
  140.7230   74.3310  220.7130 N   0  0  0  0  0  0  0  0  0  0  0  0
  140.9950   73.1060  220.2800 C   0  0  0  0  0  0  0  0  0  0  0  0
  141.5480   72.8400  219.0030 N   0  0  0  0  0  0  0  0  0  0  0  0
  142.8690   73.2110  218.5860 C   0  0  1  0  0  0  0  0  0  0  0  0
  142.8680   74.0440  217.3240 C   0  0  0  0  0  0  0  0  0  0  0  0
  143.5700   75.3710  217.5300 C   0  0  0  0  0  0  0  0  0  0  0  0
  142.7910   76.1190  218.5700 C   0  0  2  0  0  0  0  0  0  0  0  0
  142.9590   77.5070  218.6480 N   0  0  0  0  0  0  0  0  0  0  0  0
  142.8920   78.3110  217.4970 C   0  0  0  0  0  0  0  0  0  0  0  0
  141.4690   78.7270  217.3990 C   0  0  0  0  0  0  0  0  0  0  0  0
  141.0540   78.8170  218.8540 C   0  0  0  0  0  0  0  0  0  0  0  0
  142.1990   78.2150  219.6080 C   0  0  0  0  0  0  0  0  0  0  0  0
  142.9580   75.3710  219.8650 C   0  0  0  0  0  0  0  0  0  0  0  0
  143.5710   73.9850  219.6710 C   0  0  0  0  0  0  0  0  0  0  0  0
  140.7220   72.0760  221.1100 N   0  0  0  0  0  0  0  0  0  0  0  0
  140.2020   72.2630  222.3190 C   0  0  0  0  0  0  0  0  0  0  0  0
  139.8980   71.2060  223.2300 N   0  0  0  0  0  0  0  0  0  0  0  0
  139.5120   69.8880  222.7510 C   0  0  0  0  0  0  0  0  0  0  0  0
  138.6690   69.2010  223.8250 C   0  0  0  0  0  0  0  0  0  0  0  0
  139.4900   69.0980  225.0620 C   0  0  0  0  0  0  0  0  0  0  0  0
  139.5910   67.9220  225.7610 C   0  0  0  0  0  0  0  0  0  0  0  0
  140.3740   67.9160  226.8950 C   0  0  0  0  0  0  0  0  0  0  0  0
  141.0320   69.0580  227.3080 C   0  0  0  0  0  0  0  0  0  0  0  0
  140.9360   70.2610  226.6020 C   0  0  0  0  0  0  0  0  0  0  0  0
  140.1430   70.2630  225.4550 C   0  0  0  0  0  0  0  0  0  0  0  0
  139.9960   71.5130  224.6570 C   0  0  0  0  0  0  0  0  0  0  0  0
  139.9460   73.5210  222.7070 N   0  0  0  0  0  0  0  0  0  0  0  0
  140.9890   76.8310  222.5990 C   0  0  0  0  0  0  0  0  0  0  0  0
  139.4580   81.8925  223.1818 H   0  0  0  0  0  0  0  0  0  0  0  0
  141.7566   81.1918  223.8966 H   0  0  0  0  0  0  0  0  0  0  0  0
  142.3846   78.8085  223.5857 H   0  0  0  0  0  0  0  0  0  0  0  0
  137.9072   80.2495  222.2158 H   0  0  0  0  0  0  0  0  0  0  0  0
  137.3208   77.9178  221.8125 H   0  0  0  0  0  0  0  0  0  0  0  0
  138.5962   77.3770  220.7171 H   0  0  0  0  0  0  0  0  0  0  0  0
  138.4373   76.5804  223.7131 H   0  0  0  0  0  0  0  0  0  0  0  0
  137.8165   75.5483  222.4242 H   0  0  0  0  0  0  0  0  0  0  0  0
  140.9590   72.3270  218.2850 H   0  0  0  0  0  0  0  0  0  0  0  0
  143.4009   72.2704  218.3800 H   0  0  0  0  0  0  0  0  0  0  0  0
  141.8273   74.2339  217.0226 H   0  0  0  0  0  0  0  0  0  0  0  0
  143.4079   73.4870  216.5441 H   0  0  0  0  0  0  0  0  0  0  0  0
  143.5875   75.9398  216.5887 H   0  0  0  0  0  0  0  0  0  0  0  0
  144.6112   75.2199  217.8510 H   0  0  0  0  0  0  0  0  0  0  0  0
  141.7364   76.1257  218.2572 H   0  0  0  0  0  0  0  0  0  0  0  0
  143.5452   79.1899  217.6011 H   0  0  0  0  0  0  0  0  0  0  0  0
  143.2275   77.7732  216.5980 H   0  0  0  0  0  0  0  0  0  0  0  0
  141.3730   79.7011  216.8970 H   0  0  0  0  0  0  0  0  0  0  0  0
  140.8495   78.0367  216.8077 H   0  0  0  0  0  0  0  0  0  0  0  0
  140.9012   79.8652  219.1507 H   0  0  0  0  0  0  0  0  0  0  0  0
  140.1043   78.2982  219.0511 H   0  0  0  0  0  0  0  0  0  0  0  0
  142.8083   79.0034  220.0740 H   0  0  0  0  0  0  0  0  0  0  0  0
  141.8509   77.5558  220.4169 H   0  0  0  0  0  0  0  0  0  0  0  0
  141.9701   75.2561  220.3349 H   0  0  0  0  0  0  0  0  0  0  0  0
  143.6447   75.9522  220.4980 H   0  0  0  0  0  0  0  0  0  0  0  0
  143.4931   73.4257  220.6150 H   0  0  0  0  0  0  0  0  0  0  0  0
  144.6223   74.1141  219.3742 H   0  0  0  0  0  0  0  0  0  0  0  0
  138.9235   69.9881  221.8271 H   0  0  0  0  0  0  0  0  0  0  0  0
  140.4103   69.2888  222.5409 H   0  0  0  0  0  0  0  0  0  0  0  0
  137.7651   69.7948  224.0259 H   0  0  0  0  0  0  0  0  0  0  0  0
  138.3628   68.2001  223.4866 H   0  0  0  0  0  0  0  0  0  0  0  0
  139.0652   67.0151  225.4278 H   0  0  0  0  0  0  0  0  0  0  0  0
  140.4763   66.9895  227.4790 H   0  0  0  0  0  0  0  0  0  0  0  0
  141.6489   69.0200  228.2179 H   0  0  0  0  0  0  0  0  0  0  0  0
  141.4631   71.1666  226.9368 H   0  0  0  0  0  0  0  0  0  0  0  0
  139.0851   72.0405  224.9764 H   0  0  0  0  0  0  0  0  0  0  0  0
  140.8807   72.1452  224.8232 H   0  0  0  0  0  0  0  0  0  0  0  0
  141.5228   76.5464  223.5177 H   0  0  0  0  0  0  0  0  0  0  0  0
  141.6436   76.7940  221.7158 H   0  0  0  0  0  0  0  0  0  0  0  0
  1  2  2  0
  2  3  1  0
  3  4  2  0
  4  5  1  0
  5  6  2  0
  5  7  1  0
  7  8  1  0
  8  9  1  0
  9 10  1  0
 10 11  2  0
 11 12  1  0
 12 13  1  0
 13 14  1  0
 14 15  1  0
 15 16  1  0
 16 17  1  0
 17 18  1  0
 18 19  1  0
 19 20  1  0
 20 21  1  0
 21 22  1  0
 17 23  1  0
 23 24  1  0
 12 25  2  0
 25 26  1  0
 26 27  1  0
 27 28  1  0
 28 29  1  0
 29 30  1  0
 30 31  2  0
 31 32  1  0
 32 33  2  0
 33 34  1  0
 34 35  2  0
 35 36  1  0
 26 37  2  0
  9 38  1  0
  6  1  1  0
 37 10  1  0
 38  4  1  0
 24 14  1  0
 36 27  1  0
 22 18  1  0
 35 30  1  0
  1 39  1  0
  2 40  1  0
  3 41  1  0
  6 42  1  0
  7 43  1  0
  7 44  1  0
  8 45  1  0
  8 46  1  0
 13 47  1  0
 14 48  1  6
 15 49  1  0
 15 50  1  0
 16 51  1  0
 16 52  1  0
 17 53  1  6
 19 54  1  0
 19 55  1  0
 20 56  1  0
 20 57  1  0
 21 58  1  0
 21 59  1  0
 22 60  1  0
 22 61  1  0
 23 62  1  0
 23 63  1  0
 24 64  1  0
 24 65  1  0
 28 66  1  0
 28 67  1  0
 29 68  1  0
 29 69  1  0
 31 70  1  0
 32 71  1  0
 33 72  1  0
 34 73  1  0
 36 74  1  0
 36 75  1  0
 38 76  1  0
 38 77  1  0
M  END
>  <smiles>  (7) 
c1ccc2c(c1)CCN(c1nc(N[C@H]3CC[C@H](N4CCCC4)CC3)nc(N3CCc4ccccc4C3)n1)C2

>  <score_type>  (7) 
oracle

>  <origin>  (7) 
autodockgpu

>  <m_score__min__energy>  (7) 
-11.02

>  <m_primary>  (7) 
energy

>  <rmsd>  (7) 
6.416091641452696

>  <m_score__min__rmsd>  (7) 
6.416091641452696

>  <meeko>  (7) 
{"free_energy": -9.55, "intermolecular_energy": -11.04, "internal_energy": -1.91, "cluster_size": 32, "cluster_id": 2, "rank_in_cluster": 16}

>  <energy>  (7) 
-10.0

>  <cluster_rmsd>  (7) 
1.44

>  <cluster>  (7) 
1

$$$$

     RDKit          3D

 77 83  0  0  0  0  0  0  0  0999 V2000
  139.8340   69.2950  228.2490 C   0  0  0  0  0  0  0  0  0  0  0  0
  140.8670   70.2110  228.3450 C   0  0  0  0  0  0  0  0  0  0  0  0
  141.1210   70.9710  227.2220 C   0  0  0  0  0  0  0  0  0  0  0  0
  140.4040   70.8460  226.0540 C   0  0  0  0  0  0  0  0  0  0  0  0
  139.3890   69.9420  225.9680 C   0  0  0  0  0  0  0  0  0  0  0  0
  139.1150   69.1710  227.0790 C   0  0  0  0  0  0  0  0  0  0  0  0
  138.6410   69.8370  224.6940 C   0  0  0  0  0  0  0  0  0  0  0  0
  139.7090   69.9070  223.5920 C   0  0  0  0  0  0  0  0  0  0  0  0
  140.2280   71.2590  223.6590 N   0  0  0  0  0  0  0  0  0  0  0  0
  140.2180   72.1210  222.5410 C   0  0  0  0  0  0  0  0  0  0  0  0
  140.4130   71.6940  221.2850 N   0  0  0  0  0  0  0  0  0  0  0  0
  140.4000   72.5020  220.2310 C   0  0  0  0  0  0  0  0  0  0  0  0
  140.6080   72.0510  218.9050 N   0  0  0  0  0  0  0  0  0  0  0  0
  141.8860   71.9630  218.2570 C   0  0  1  0  0  0  0  0  0  0  0  0
  141.9590   72.7970  216.9990 C   0  0  0  0  0  0  0  0  0  0  0  0
  143.1000   73.7930  217.0550 C   0  0  0  0  0  0  0  0  0  0  0  0
  142.8160   74.7180  218.2000 C   0  0  2  0  0  0  0  0  0  0  0  0
  143.4640   75.9600  218.2200 N   0  0  0  0  0  0  0  0  0  0  0  0
  143.3330   76.8640  217.1520 C   0  0  0  0  0  0  0  0  0  0  0  0
  142.1790   77.7270  217.5170 C   0  0  0  0  0  0  0  0  0  0  0  0
  142.2790   77.7840  219.0280 C   0  0  0  0  0  0  0  0  0  0  0  0
  143.3200   76.7650  219.3740 C   0  0  0  0  0  0  0  0  0  0  0  0
  142.9310   73.9050  219.4600 C   0  0  0  0  0  0  0  0  0  0  0  0
  142.9840   72.4020  219.1890 C   0  0  0  0  0  0  0  0  0  0  0  0
  140.1800   73.8150  220.4550 N   0  0  0  0  0  0  0  0  0  0  0  0
  139.9790   74.2990  221.6770 C   0  0  0  0  0  0  0  0  0  0  0  0
  139.7410   75.6780  221.9620 N   0  0  0  0  0  0  0  0  0  0  0  0
  138.4790   76.1210  222.5330 C   0  0  0  0  0  0  0  0  0  0  0  0
  138.2490   77.5820  222.1480 C   0  0  0  0  0  0  0  0  0  0  0  0
  139.3850   78.3840  222.6800 C   0  0  0  0  0  0  0  0  0  0  0  0
  139.1770   79.5440  223.3810 C   0  0  0  0  0  0  0  0  0  0  0  0
  140.2860   80.2230  223.8390 C   0  0  0  0  0  0  0  0  0  0  0  0
  141.5600   79.7460  223.5950 C   0  0  0  0  0  0  0  0  0  0  0  0
  141.7800   78.5640  222.8810 C   0  0  0  0  0  0  0  0  0  0  0  0
  140.6560   77.8800  222.4210 C   0  0  0  0  0  0  0  0  0  0  0  0
  140.8220   76.6140  221.6530 C   0  0  0  0  0  0  0  0  0  0  0  0
  140.0020   73.4390  222.7060 N   0  0  0  0  0  0  0  0  0  0  0  0
  140.7720   71.7160  224.9210 C   0  0  0  0  0  0  0  0  0  0  0  0
  139.5846   68.6610  229.1127 H   0  0  0  0  0  0  0  0  0  0  0  0
  141.4544   70.3269  229.2678 H   0  0  0  0  0  0  0  0  0  0  0  0
  141.9340   71.7109  227.2620 H   0  0  0  0  0  0  0  0  0  0  0  0
  138.2986   68.4354  227.0298 H   0  0  0  0  0  0  0  0  0  0  0  0
  138.0971   68.8822  224.6438 H   0  0  0  0  0  0  0  0  0  0  0  0
  137.8913   70.6353  224.5908 H   0  0  0  0  0  0  0  0  0  0  0  0
  140.5087   69.1759  223.7814 H   0  0  0  0  0  0  0  0  0  0  0  0
  139.2958   69.6713  222.6001 H   0  0  0  0  0  0  0  0  0  0  0  0
  139.7720   71.7490  218.3270 H   0  0  0  0  0  0  0  0  0  0  0  0
  142.0175   70.9068  217.9793 H   0  0  0  0  0  0  0  0  0  0  0  0
  141.0127   73.3447  216.8785 H   0  0  0  0  0  0  0  0  0  0  0  0
  142.1333   72.1217  216.1483 H   0  0  0  0  0  0  0  0  0  0  0  0
  143.1528   74.3608  216.1143 H   0  0  0  0  0  0  0  0  0  0  0  0
  144.0633   73.2802  217.1932 H   0  0  0  0  0  0  0  0  0  0  0  0
  141.7917   75.0993  218.0758 H   0  0  0  0  0  0  0  0  0  0  0  0
  144.2466   77.4666  217.0414 H   0  0  0  0  0  0  0  0  0  0  0  0
  143.1767   76.3495  216.1924 H   0  0  0  0  0  0  0  0  0  0  0  0
  142.2759   78.7291  217.0739 H   0  0  0  0  0  0  0  0  0  0  0  0
  141.2131   77.3449  217.1550 H   0  0  0  0  0  0  0  0  0  0  0  0
  142.5902   78.7856  219.3595 H   0  0  0  0  0  0  0  0  0  0  0  0
  141.3157   77.5808  219.5187 H   0  0  0  0  0  0  0  0  0  0  0  0
  144.2724   77.2575  219.6197 H   0  0  0  0  0  0  0  0  0  0  0  0
  143.0297   76.1691  220.2518 H   0  0  0  0  0  0  0  0  0  0  0  0
  142.0594   74.1173  220.0966 H   0  0  0  0  0  0  0  0  0  0  0  0
  143.8730   74.1873  219.9529 H   0  0  0  0  0  0  0  0  0  0  0  0
  142.8778   71.8642  220.1427 H   0  0  0  0  0  0  0  0  0  0  0  0
  143.9487   72.1743  218.7121 H   0  0  0  0  0  0  0  0  0  0  0  0
  137.6585   75.5020  222.1410 H   0  0  0  0  0  0  0  0  0  0  0  0
  138.5103   76.0240  223.6283 H   0  0  0  0  0  0  0  0  0  0  0  0
  138.2060   77.6768  221.0529 H   0  0  0  0  0  0  0  0  0  0  0  0
  137.2982   77.9420  222.5680 H   0  0  0  0  0  0  0  0  0  0  0  0
  138.1608   79.9197  223.5713 H   0  0  0  0  0  0  0  0  0  0  0  0
  140.1552   81.1565  224.4060 H   0  0  0  0  0  0  0  0  0  0  0  0
  142.4245   80.3116  223.9728 H   0  0  0  0  0  0  0  0  0  0  0  0
  142.7967   78.1899  222.6905 H   0  0  0  0  0  0  0  0  0  0  0  0
  140.8078   76.8398  220.5765 H   0  0  0  0  0  0  0  0  0  0  0  0
  141.7807   76.1529  221.9328 H   0  0  0  0  0  0  0  0  0  0  0  0
  141.8688   71.7430  224.8411 H   0  0  0  0  0  0  0  0  0  0  0  0
  140.3511   72.7126  225.1201 H   0  0  0  0  0  0  0  0  0  0  0  0
  1  2  2  0
  2  3  1  0
  3  4  2  0
  4  5  1  0
  5  6  2  0
  5  7  1  0
  7  8  1  0
  8  9  1  0
  9 10  1  0
 10 11  2  0
 11 12  1  0
 12 13  1  0
 13 14  1  0
 14 15  1  0
 15 16  1  0
 16 17  1  0
 17 18  1  0
 18 19  1  0
 19 20  1  0
 20 21  1  0
 21 22  1  0
 17 23  1  0
 23 24  1  0
 12 25  2  0
 25 26  1  0
 26 27  1  0
 27 28  1  0
 28 29  1  0
 29 30  1  0
 30 31  2  0
 31 32  1  0
 32 33  2  0
 33 34  1  0
 34 35  2  0
 35 36  1  0
 26 37  2  0
  9 38  1  0
  6  1  1  0
 37 10  1  0
 38  4  1  0
 24 14  1  0
 36 27  1  0
 22 18  1  0
 35 30  1  0
  1 39  1  0
  2 40  1  0
  3 41  1  0
  6 42  1  0
  7 43  1  0
  7 44  1  0
  8 45  1  0
  8 46  1  0
 13 47  1  0
 14 48  1  6
 15 49  1  0
 15 50  1  0
 16 51  1  0
 16 52  1  0
 17 53  1  6
 19 54  1  0
 19 55  1  0
 20 56  1  0
 20 57  1  0
 21 58  1  0
 21 59  1  0
 22 60  1  0
 22 61  1  0
 23 62  1  0
 23 63  1  0
 24 64  1  0
 24 65  1  0
 28 66  1  0
 28 67  1  0
 29 68  1  0
 29 69  1  0
 31 70  1  0
 32 71  1  0
 33 72  1  0
 34 73  1  0
 36 74  1  0
 36 75  1  0
 38 76  1  0
 38 77  1  0
M  END
>  <smiles>  (8) 
c1ccc2c(c1)CCN(c1nc(N[C@H]3CC[C@H](N4CCCC4)CC3)nc(N3CCc4ccccc4C3)n1)C2

>  <score_type>  (8) 
oracle

>  <origin>  (8) 
autodockgpu

>  <m_score__min__energy>  (8) 
-11.02

>  <m_primary>  (8) 
energy

>  <rmsd>  (8) 
7.265358302703947

>  <m_score__min__rmsd>  (8) 
7.265358302703947

>  <meeko>  (8) 
{"free_energy": -9.38, "intermolecular_energy": -10.87, "internal_energy": -2.03, "cluster_size": 32, "cluster_id": 2, "rank_in_cluster": 19}

>  <energy>  (8) 
-10.45

>  <cluster_rmsd>  (8) 
0.0

>  <cluster>  (8) 
2

$$$$

     RDKit          3D

 77 83  0  0  0  0  0  0  0  0999 V2000
  145.9800   70.3800  217.8470 C   0  0  0  0  0  0  0  0  0  0  0  0
  145.4760   69.4600  218.7490 C   0  0  0  0  0  0  0  0  0  0  0  0
  144.4680   69.9040  219.5810 C   0  0  0  0  0  0  0  0  0  0  0  0
  143.9710   71.1860  219.5380 C   0  0  0  0  0  0  0  0  0  0  0  0
  144.4730   72.0850  218.6460 C   0  0  0  0  0  0  0  0  0  0  0  0
  145.4820   71.6640  217.8040 C   0  0  0  0  0  0  0  0  0  0  0  0
  143.9110   73.4550  218.6310 C   0  0  0  0  0  0  0  0  0  0  0  0
  143.7490   73.8410  220.1090 C   0  0  0  0  0  0  0  0  0  0  0  0
  142.7050   72.9710  220.6110 N   0  0  0  0  0  0  0  0  0  0  0  0
  141.5350   73.4770  221.2170 C   0  0  0  0  0  0  0  0  0  0  0  0
  140.5240   72.6950  221.6250 N   0  0  0  0  0  0  0  0  0  0  0  0
  139.4240   73.1680  222.1980 C   0  0  0  0  0  0  0  0  0  0  0  0
  138.3550   72.3430  222.6260 N   0  0  0  0  0  0  0  0  0  0  0  0
  138.2540   70.9330  222.3750 C   0  0  1  0  0  0  0  0  0  0  0  0
  139.5300   70.1910  222.7040 C   0  0  0  0  0  0  0  0  0  0  0  0
  139.2870   69.0830  223.7100 C   0  0  0  0  0  0  0  0  0  0  0  0
  138.8020   69.7350  224.9690 C   0  0  2  0  0  0  0  0  0  0  0  0
  138.9030   69.0150  226.1660 N   0  0  0  0  0  0  0  0  0  0  0  0
  139.4610   67.7250  226.1910 C   0  0  0  0  0  0  0  0  0  0  0  0
  140.9060   67.9350  226.4720 C   0  0  0  0  0  0  0  0  0  0  0  0
  140.8900   69.1680  227.3540 C   0  0  0  0  0  0  0  0  0  0  0  0
  139.4800   69.6620  227.2830 C   0  0  0  0  0  0  0  0  0  0  0  0
  137.4440   70.3100  224.6700 C   0  0  0  0  0  0  0  0  0  0  0  0
  137.1290   70.3320  223.1750 C   0  0  0  0  0  0  0  0  0  0  0  0
  139.3350   74.5050  222.3700 N   0  0  0  0  0  0  0  0  0  0  0  0
  140.3040   75.3310  221.9870 C   0  0  0  0  0  0  0  0  0  0  0  0
  140.2550   76.7500  222.1500 N   0  0  0  0  0  0  0  0  0  0  0  0
  139.0790   77.4030  222.7020 C   0  0  0  0  0  0  0  0  0  0  0  0
  139.0290   78.8420  222.1900 C   0  0  0  0  0  0  0  0  0  0  0  0
  140.2750   79.5310  222.6270 C   0  0  0  0  0  0  0  0  0  0  0  0
  140.2410   80.7660  223.2230 C   0  0  0  0  0  0  0  0  0  0  0  0
  141.4420   81.3300  223.5970 C   0  0  0  0  0  0  0  0  0  0  0  0
  142.6340   80.6690  223.3750 C   0  0  0  0  0  0  0  0  0  0  0  0
  142.6790   79.4100  222.7680 C   0  0  0  0  0  0  0  0  0  0  0  0
  141.4620   78.8430  222.3910 C   0  0  0  0  0  0  0  0  0  0  0  0
  141.4390   77.5040  221.7380 C   0  0  0  0  0  0  0  0  0  0  0  0
  141.3940   74.8000  221.4140 N   0  0  0  0  0  0  0  0  0  0  0  0
  142.8910   71.5400  220.4780 C   0  0  0  0  0  0  0  0  0  0  0  0
  146.7851   70.0839  217.1584 H   0  0  0  0  0  0  0  0  0  0  0  0
  145.8581   68.4298  218.8004 H   0  0  0  0  0  0  0  0  0  0  0  0
  144.0427   69.2005  220.3119 H   0  0  0  0  0  0  0  0  0  0  0  0
  145.9013   72.3748  217.0767 H   0  0  0  0  0  0  0  0  0  0  0  0
  144.5986   74.1483  218.1245 H   0  0  0  0  0  0  0  0  0  0  0  0
  142.9559   73.5013  218.0873 H   0  0  0  0  0  0  0  0  0  0  0  0
  144.6880   73.6746  220.6573 H   0  0  0  0  0  0  0  0  0  0  0  0
  143.4962   74.9043  220.2332 H   0  0  0  0  0  0  0  0  0  0  0  0
  137.5590   72.7770  223.1760 H   0  0  0  0  0  0  0  0  0  0  0  0
  138.0594   70.8254  221.2977 H   0  0  0  0  0  0  0  0  0  0  0  0
  140.2579   70.9010  223.1236 H   0  0  0  0  0  0  0  0  0  0  0  0
  139.9131   69.7374  221.7780 H   0  0  0  0  0  0  0  0  0  0  0  0
  140.2217   68.5362  223.9033 H   0  0  0  0  0  0  0  0  0  0  0  0
  138.5476   68.3625  223.3304 H   0  0  0  0  0  0  0  0  0  0  0  0
  139.5143   70.5322  225.2279 H   0  0  0  0  0  0  0  0  0  0  0  0
  138.9974   67.1187  226.9831 H   0  0  0  0  0  0  0  0  0  0  0  0
  139.2983   67.1865  225.2457 H   0  0  0  0  0  0  0  0  0  0  0  0
  141.3380   67.0728  227.0011 H   0  0  0  0  0  0  0  0  0  0  0  0
  141.5179   68.0510  225.5653 H   0  0  0  0  0  0  0  0  0  0  0  0
  141.1596   68.9093  228.3886 H   0  0  0  0  0  0  0  0  0  0  0  0
  141.6156   69.9265  227.0252 H   0  0  0  0  0  0  0  0  0  0  0  0
  138.9351   69.3996  228.2018 H   0  0  0  0  0  0  0  0  0  0  0  0
  139.4382   70.7567  227.1841 H   0  0  0  0  0  0  0  0  0  0  0  0
  137.4062   71.3405  225.0528 H   0  0  0  0  0  0  0  0  0  0  0  0
  136.6963   69.6672  225.1576 H   0  0  0  0  0  0  0  0  0  0  0  0
  136.2185   70.9273  223.0118 H   0  0  0  0  0  0  0  0  0  0  0  0
  136.9881   69.2937  222.8401 H   0  0  0  0  0  0  0  0  0  0  0  0
  138.1738   76.8655  222.3832 H   0  0  0  0  0  0  0  0  0  0  0  0
  139.1302   77.3988  223.8008 H   0  0  0  0  0  0  0  0  0  0  0  0
  138.9665   78.8453  221.0918 H   0  0  0  0  0  0  0  0  0  0  0  0
  138.1457   79.3596  222.5922 H   0  0  0  0  0  0  0  0  0  0  0  0
  139.2885   81.2882  223.3965 H   0  0  0  0  0  0  0  0  0  0  0  0
  141.4510   82.3191  224.0783 H   0  0  0  0  0  0  0  0  0  0  0  0
  143.5753   81.1466  223.6846 H   0  0  0  0  0  0  0  0  0  0  0  0
  143.6327   78.8897  222.5955 H   0  0  0  0  0  0  0  0  0  0  0  0
  141.4223   77.6347  220.6459 H   0  0  0  0  0  0  0  0  0  0  0  0
  142.3375   76.9464  222.0411 H   0  0  0  0  0  0  0  0  0  0  0  0
  143.1362   71.1246  221.4666 H   0  0  0  0  0  0  0  0  0  0  0  0
  141.9555   71.1215  220.0784 H   0  0  0  0  0  0  0  0  0  0  0  0
  1  2  2  0
  2  3  1  0
  3  4  2  0
  4  5  1  0
  5  6  2  0
  5  7  1  0
  7  8  1  0
  8  9  1  0
  9 10  1  0
 10 11  2  0
 11 12  1  0
 12 13  1  0
 13 14  1  0
 14 15  1  0
 15 16  1  0
 16 17  1  0
 17 18  1  0
 18 19  1  0
 19 20  1  0
 20 21  1  0
 21 22  1  0
 17 23  1  0
 23 24  1  0
 12 25  2  0
 25 26  1  0
 26 27  1  0
 27 28  1  0
 28 29  1  0
 29 30  1  0
 30 31  2  0
 31 32  1  0
 32 33  2  0
 33 34  1  0
 34 35  2  0
 35 36  1  0
 26 37  2  0
  9 38  1  0
  6  1  1  0
 37 10  1  0
 38  4  1  0
 24 14  1  0
 36 27  1  0
 22 18  1  0
 35 30  1  0
  1 39  1  0
  2 40  1  0
  3 41  1  0
  6 42  1  0
  7 43  1  0
  7 44  1  0
  8 45  1  0
  8 46  1  0
 13 47  1  0
 14 48  1  6
 15 49  1  0
 15 50  1  0
 16 51  1  0
 16 52  1  0
 17 53  1  1
 19 54  1  0
 19 55  1  0
 20 56  1  0
 20 57  1  0
 21 58  1  0
 21 59  1  0
 22 60  1  0
 22 61  1  0
 23 62  1  0
 23 63  1  0
 24 64  1  0
 24 65  1  0
 28 66  1  0
 28 67  1  0
 29 68  1  0
 29 69  1  0
 31 70  1  0
 32 71  1  0
 33 72  1  0
 34 73  1  0
 36 74  1  0
 36 75  1  0
 38 76  1  0
 38 77  1  0
M  END
>  <smiles>  (9) 
c1ccc2c(c1)CCN(c1nc(N[C@H]3CC[C@H](N4CCCC4)CC3)nc(N3CCc4ccccc4C3)n1)C2

>  <score_type>  (9) 
oracle

>  <origin>  (9) 
autodockgpu

>  <m_score__min__energy>  (9) 
-11.02

>  <m_primary>  (9) 
energy

>  <rmsd>  (9) 
11.663584721048872

>  <m_score__min__rmsd>  (9) 
11.663584721048872

>  <meeko>  (9) 
{"free_energy": -10.26, "intermolecular_energy": -11.75, "internal_energy": -1.38, "cluster_size": 7, "cluster_id": 1, "rank_in_cluster": 5}

>  <energy>  (9) 
-10.44

>  <cluster_rmsd>  (9) 
0.14

>  <cluster>  (9) 
2

$$$$

     RDKit          3D

 77 83  0  0  0  0  0  0  0  0999 V2000
  141.6310   80.8900  222.6590 C   0  0  0  0  0  0  0  0  0  0  0  0
  141.2810   80.2550  223.8370 C   0  0  0  0  0  0  0  0  0  0  0  0
  141.1150   78.8870  223.7730 C   0  0  0  0  0  0  0  0  0  0  0  0
  141.2820   78.1660  222.6130 C   0  0  0  0  0  0  0  0  0  0  0  0
  141.6270   78.7980  221.4580 C   0  0  0  0  0  0  0  0  0  0  0  0
  141.7980   80.1670  221.4970 C   0  0  0  0  0  0  0  0  0  0  0  0
  141.7970   77.9870  220.2310 C   0  0  0  0  0  0  0  0  0  0  0  0
  140.6330   76.9840  220.2450 C   0  0  0  0  0  0  0  0  0  0  0  0
  140.9090   76.1060  221.3640 N   0  0  0  0  0  0  0  0  0  0  0  0
  141.0110   74.7070  221.2110 C   0  0  0  0  0  0  0  0  0  0  0  0
  141.5950   74.1270  220.1510 N   0  0  0  0  0  0  0  0  0  0  0  0
  141.6960   72.8110  220.0050 C   0  0  0  0  0  0  0  0  0  0  0  0
  142.3110   72.2000  218.8850 N   0  0  0  0  0  0  0  0  0  0  0  0
  142.0620   70.8580  218.4420 C   0  0  1  0  0  0  0  0  0  0  0  0
  142.8610   70.4940  217.2120 C   0  0  0  0  0  0  0  0  0  0  0  0
  143.7160   69.2640  217.4450 C   0  0  0  0  0  0  0  0  0  0  0  0
  144.6860   69.6080  218.5340 C   0  0  2  0  0  0  0  0  0  0  0  0
  145.8440   68.8280  218.6560 N   0  0  0  0  0  0  0  0  0  0  0  0
  146.0140   67.9480  219.7400 C   0  0  0  0  0  0  0  0  0  0  0  0
  145.4730   66.6460  219.2680 C   0  0  0  0  0  0  0  0  0  0  0  0
  145.7950   66.6770  217.7870 C   0  0  0  0  0  0  0  0  0  0  0  0
  146.2600   68.0760  217.5330 C   0  0  0  0  0  0  0  0  0  0  0  0
  143.8860   69.7860  219.7950 C   0  0  0  0  0  0  0  0  0  0  0  0
  142.3830   69.8700  219.5330 C   0  0  0  0  0  0  0  0  0  0  0  0
  141.1800   72.0340  220.9810 N   0  0  0  0  0  0  0  0  0  0  0  0
  140.5900   72.5490  222.0560 C   0  0  0  0  0  0  0  0  0  0  0  0
  140.0310   71.7680  223.1130 N   0  0  0  0  0  0  0  0  0  0  0  0
  138.8550   70.9400  222.8950 C   0  0  0  0  0  0  0  0  0  0  0  0
  138.1310   70.7510  224.2280 C   0  0  0  0  0  0  0  0  0  0  0  0
  139.0730   70.0980  225.1770 C   0  0  0  0  0  0  0  0  0  0  0  0
  138.7000   69.0120  225.9260 C   0  0  0  0  0  0  0  0  0  0  0  0
  139.6370   68.4690  226.7790 C   0  0  0  0  0  0  0  0  0  0  0  0
  140.9060   69.0060  226.8720 C   0  0  0  0  0  0  0  0  0  0  0  0
  141.2960   70.1140  226.1120 C   0  0  0  0  0  0  0  0  0  0  0  0
  140.3460   70.6590  225.2510 C   0  0  0  0  0  0  0  0  0  0  0  0
  140.6960   71.8410  224.4140 C   0  0  0  0  0  0  0  0  0  0  0  0
  140.5150   73.8850  222.1530 N   0  0  0  0  0  0  0  0  0  0  0  0
  141.0780   76.7050  222.6720 C   0  0  0  0  0  0  0  0  0  0  0  0
  141.7772   81.9802  222.6492 H   0  0  0  0  0  0  0  0  0  0  0  0
  141.1423   80.8116  224.7756 H   0  0  0  0  0  0  0  0  0  0  0  0
  140.8366   78.3483  224.6907 H   0  0  0  0  0  0  0  0  0  0  0  0
  142.0757   80.6968  220.5739 H   0  0  0  0  0  0  0  0  0  0  0  0
  141.7451   78.6254  219.3367 H   0  0  0  0  0  0  0  0  0  0  0  0
  142.7739   77.4820  220.2046 H   0  0  0  0  0  0  0  0  0  0  0  0
  139.6751   77.5052  220.3894 H   0  0  0  0  0  0  0  0  0  0  0  0
  140.5512   76.4323  219.2969 H   0  0  0  0  0  0  0  0  0  0  0  0
  143.0100   72.7570  218.3150 H   0  0  0  0  0  0  0  0  0  0  0  0
  140.9931   70.8130  218.1862 H   0  0  0  0  0  0  0  0  0  0  0  0
  143.5148   71.3384  216.9484 H   0  0  0  0  0  0  0  0  0  0  0  0
  142.1560   70.2733  216.3970 H   0  0  0  0  0  0  0  0  0  0  0  0
  144.2582   69.0004  216.5249 H   0  0  0  0  0  0  0  0  0  0  0  0
  143.0955   68.4011  217.7286 H   0  0  0  0  0  0  0  0  0  0  0  0
  145.1832   70.5484  218.2541 H   0  0  0  0  0  0  0  0  0  0  0  0
  147.0792   67.8534  219.9976 H   0  0  0  0  0  0  0  0  0  0  0  0
  145.5011   68.3044  220.6455 H   0  0  0  0  0  0  0  0  0  0  0  0
  145.9737   65.8029  219.7665 H   0  0  0  0  0  0  0  0  0  0  0  0
  144.4025   66.5114  219.4822 H   0  0  0  0  0  0  0  0  0  0  0  0
  146.5884   65.9540  217.5466 H   0  0  0  0  0  0  0  0  0  0  0  0
  144.9292   66.4050  217.1653 H   0  0  0  0  0  0  0  0  0  0  0  0
  147.3554   68.1044  217.4369 H   0  0  0  0  0  0  0  0  0  0  0  0
  145.8431   68.4786  216.5981 H   0  0  0  0  0  0  0  0  0  0  0  0
  144.2095   70.7141  220.2889 H   0  0  0  0  0  0  0  0  0  0  0  0
  144.0640   68.9046  220.4286 H   0  0  0  0  0  0  0  0  0  0  0  0
  141.8769   70.1834  220.4580 H   0  0  0  0  0  0  0  0  0  0  0  0
  142.0352   68.8776  219.2102 H   0  0  0  0  0  0  0  0  0  0  0  0
  138.1838   71.4332  222.1765 H   0  0  0  0  0  0  0  0  0  0  0  0
  139.1563   69.9620  222.4916 H   0  0  0  0  0  0  0  0  0  0  0  0
  137.8195   71.7284  224.6250 H   0  0  0  0  0  0  0  0  0  0  0  0
  137.2354   70.1274  224.0902 H   0  0  0  0  0  0  0  0  0  0  0  0
  137.6877   68.5884  225.8490 H   0  0  0  0  0  0  0  0  0  0  0  0
  139.3704   67.5966  227.3937 H   0  0  0  0  0  0  0  0  0  0  0  0
  141.6303   68.5498  227.5629 H   0  0  0  0  0  0  0  0  0  0  0  0
  142.3086   70.5364  226.1908 H   0  0  0  0  0  0  0  0  0  0  0  0
  140.3768   72.7575  224.9318 H   0  0  0  0  0  0  0  0  0  0  0  0
  141.7844   71.8521  224.2549 H   0  0  0  0  0  0  0  0  0  0  0  0
  140.1782   76.5002  223.2707 H   0  0  0  0  0  0  0  0  0  0  0  0
  141.9791   76.2639  223.1230 H   0  0  0  0  0  0  0  0  0  0  0  0
  1  2  2  0
  2  3  1  0
  3  4  2  0
  4  5  1  0
  5  6  2  0
  5  7  1  0
  7  8  1  0
  8  9  1  0
  9 10  1  0
 10 11  2  0
 11 12  1  0
 12 13  1  0
 13 14  1  0
 14 15  1  0
 15 16  1  0
 16 17  1  0
 17 18  1  0
 18 19  1  0
 19 20  1  0
 20 21  1  0
 21 22  1  0
 17 23  1  0
 23 24  1  0
 12 25  2  0
 25 26  1  0
 26 27  1  0
 27 28  1  0
 28 29  1  0
 29 30  1  0
 30 31  2  0
 31 32  1  0
 32 33  2  0
 33 34  1  0
 34 35  2  0
 35 36  1  0
 26 37  2  0
  9 38  1  0
  6  1  1  0
 37 10  1  0
 38  4  1  0
 24 14  1  0
 36 27  1  0
 22 18  1  0
 35 30  1  0
  1 39  1  0
  2 40  1  0
  3 41  1  0
  6 42  1  0
  7 43  1  0
  7 44  1  0
  8 45  1  0
  8 46  1  0
 13 47  1  0
 14 48  1  6
 15 49  1  0
 15 50  1  0
 16 51  1  0
 16 52  1  0
 17 53  1  6
 19 54  1  0
 19 55  1  0
 20 56  1  0
 20 57  1  0
 21 58  1  0
 21 59  1  0
 22 60  1  0
 22 61  1  0
 23 62  1  0
 23 63  1  0
 24 64  1  0
 24 65  1  0
 28 66  1  0
 28 67  1  0
 29 68  1  0
 29 69  1  0
 31 70  1  0
 32 71  1  0
 33 72  1  0
 34 73  1  0
 36 74  1  0
 36 75  1  0
 38 76  1  0
 38 77  1  0
M  END
>  <smiles>  (10) 
c1ccc2c(c1)CCN(c1nc(N[C@H]3CC[C@H](N4CCCC4)CC3)nc(N3CCc4ccccc4C3)n1)C2

>  <score_type>  (10) 
oracle

>  <origin>  (10) 
autodockgpu

>  <m_score__min__energy>  (10) 
-11.02

>  <m_primary>  (10) 
energy

>  <rmsd>  (10) 
11.663790682202643

>  <m_score__min__rmsd>  (10) 
11.663790682202643

>  <meeko>  (10) 
{"free_energy": -9.87, "intermolecular_energy": -11.36, "internal_energy": -1.31, "cluster_size": 32, "cluster_id": 2, "rank_in_cluster": 10}

>  <energy>  (10) 
-10.43

>  <cluster_rmsd>  (10) 
1.12

>  <cluster>  (10) 
2

$$$$

     RDKit          3D

 77 83  0  0  0  0  0  0  0  0999 V2000
  140.1260   69.4170  228.3210 C   0  0  0  0  0  0  0  0  0  0  0  0
  141.0680   70.4300  228.3480 C   0  0  0  0  0  0  0  0  0  0  0  0
  141.1990   71.1790  227.1960 C   0  0  0  0  0  0  0  0  0  0  0  0
  140.4480   70.9530  226.0660 C   0  0  0  0  0  0  0  0  0  0  0  0
  139.5230   69.9540  226.0480 C   0  0  0  0  0  0  0  0  0  0  0  0
  139.3740   69.1910  227.1890 C   0  0  0  0  0  0  0  0  0  0  0  0
  138.7340   69.7420  224.8120 C   0  0  0  0  0  0  0  0  0  0  0  0
  139.7420   69.8840  223.6610 C   0  0  0  0  0  0  0  0  0  0  0  0
  140.1290   71.2810  223.6720 N   0  0  0  0  0  0  0  0  0  0  0  0
  139.9860   72.1060  222.5360 C   0  0  0  0  0  0  0  0  0  0  0  0
  139.9630   71.6290  221.2820 N   0  0  0  0  0  0  0  0  0  0  0  0
  139.8260   72.4030  220.2120 C   0  0  0  0  0  0  0  0  0  0  0  0
  139.8040   71.8990  218.8880 N   0  0  0  0  0  0  0  0  0  0  0  0
  140.9410   71.3680  218.1920 C   0  0  1  0  0  0  0  0  0  0  0  0
  141.5310   72.3520  217.2080 C   0  0  0  0  0  0  0  0  0  0  0  0
  142.9980   72.6110  217.4890 C   0  0  0  0  0  0  0  0  0  0  0  0
  143.0790   73.2260  218.8530 C   0  0  2  0  0  0  0  0  0  0  0  0
  144.2370   73.9410  219.1870 N   0  0  0  0  0  0  0  0  0  0  0  0
  144.4220   74.4570  220.4810 C   0  0  0  0  0  0  0  0  0  0  0  0
  145.1520   73.3930  221.2200 C   0  0  0  0  0  0  0  0  0  0  0  0
  145.9990   72.7630  220.1310 C   0  0  0  0  0  0  0  0  0  0  0  0
  145.4870   73.3670  218.8610 C   0  0  0  0  0  0  0  0  0  0  0  0
  142.6610   72.1680  219.8380 C   0  0  0  0  0  0  0  0  0  0  0  0
  142.0150   70.9590  219.1640 C   0  0  0  0  0  0  0  0  0  0  0  0
  139.7060   73.7320  220.4150 N   0  0  0  0  0  0  0  0  0  0  0  0
  139.7210   74.2650  221.6330 C   0  0  0  0  0  0  0  0  0  0  0  0
  139.5950   75.6630  221.8960 N   0  0  0  0  0  0  0  0  0  0  0  0
  138.3310   76.2370  222.3300 C   0  0  0  0  0  0  0  0  0  0  0  0
  138.2950   77.7110  221.9280 C   0  0  0  0  0  0  0  0  0  0  0  0
  139.4430   78.3960  222.5830 C   0  0  0  0  0  0  0  0  0  0  0  0
  139.2810   79.5770  223.2620 C   0  0  0  0  0  0  0  0  0  0  0  0
  140.3980   80.1420  223.8390 C   0  0  0  0  0  0  0  0  0  0  0  0
  141.6340   79.5350  223.7320 C   0  0  0  0  0  0  0  0  0  0  0  0
  141.8090   78.3320  223.0420 C   0  0  0  0  0  0  0  0  0  0  0  0
  140.6770   77.7630  222.4600 C   0  0  0  0  0  0  0  0  0  0  0  0
  140.7930   76.4820  221.7090 C   0  0  0  0  0  0  0  0  0  0  0  0
  139.8620   73.4380  222.6800 N   0  0  0  0  0  0  0  0  0  0  0  0
  140.6790   71.8230  224.8970 C   0  0  0  0  0  0  0  0  0  0  0  0
  139.9763   68.7871  229.2103 H   0  0  0  0  0  0  0  0  0  0  0  0
  141.6801   70.6280  229.2403 H   0  0  0  0  0  0  0  0  0  0  0  0
  141.9378   71.9939  227.1809 H   0  0  0  0  0  0  0  0  0  0  0  0
  138.6327   68.3783  227.1944 H   0  0  0  0  0  0  0  0  0  0  0  0
  138.2841   68.7382  224.8090 H   0  0  0  0  0  0  0  0  0  0  0  0
  137.9061   70.4610  224.7244 H   0  0  0  0  0  0  0  0  0  0  0  0
  140.6167   69.2391  223.8312 H   0  0  0  0  0  0  0  0  0  0  0  0
  139.3115   69.5819  222.6949 H   0  0  0  0  0  0  0  0  0  0  0  0
  138.8890   71.9040  218.3520 H   0  0  0  0  0  0  0  0  0  0  0  0
  140.5775   70.4937  217.6322 H   0  0  0  0  0  0  0  0  0  0  0  0
  140.9808   73.3018  217.2796 H   0  0  0  0  0  0  0  0  0  0  0  0
  141.4447   71.9229  216.1988 H   0  0  0  0  0  0  0  0  0  0  0  0
  143.4108   73.3008  216.7381 H   0  0  0  0  0  0  0  0  0  0  0  0
  143.5780   71.6774  217.4434 H   0  0  0  0  0  0  0  0  0  0  0  0
  142.3818   74.0765  218.8775 H   0  0  0  0  0  0  0  0  0  0  0  0
  145.0170   75.3816  220.4469 H   0  0  0  0  0  0  0  0  0  0  0  0
  143.4673   74.7139  220.9633 H   0  0  0  0  0  0  0  0  0  0  0  0
  145.7801   73.8203  222.0156 H   0  0  0  0  0  0  0  0  0  0  0  0
  144.4894   72.6784  221.7303 H   0  0  0  0  0  0  0  0  0  0  0  0
  147.0620   73.0057  220.2760 H   0  0  0  0  0  0  0  0  0  0  0  0
  145.9295   71.6652  220.1297 H   0  0  0  0  0  0  0  0  0  0  0  0
  146.1804   74.1394  218.4968 H   0  0  0  0  0  0  0  0  0  0  0  0
  145.3929   72.6156  218.0632 H   0  0  0  0  0  0  0  0  0  0  0  0
  141.9380   72.6073  220.5410 H   0  0  0  0  0  0  0  0  0  0  0  0
  143.5670   71.8169  220.3537 H   0  0  0  0  0  0  0  0  0  0  0  0
  141.5692   70.3163  219.9374 H   0  0  0  0  0  0  0  0  0  0  0  0
  142.7954   70.4219  218.6049 H   0  0  0  0  0  0  0  0  0  0  0  0
  137.4981   75.7025  221.8498 H   0  0  0  0  0  0  0  0  0  0  0  0
  138.2344   76.1452  223.4219 H   0  0  0  0  0  0  0  0  0  0  0  0
  138.3806   77.8018  220.8351 H   0  0  0  0  0  0  0  0  0  0  0  0
  137.3463   78.1696  222.2438 H   0  0  0  0  0  0  0  0  0  0  0  0
  138.2942   80.0563  223.3431 H   0  0  0  0  0  0  0  0  0  0  0  0
  140.3038   81.0884  224.3917 H   0  0  0  0  0  0  0  0  0  0  0  0
  142.5059   80.0121  224.2034 H   0  0  0  0  0  0  0  0  0  0  0  0
  142.7969   77.8550  222.9617 H   0  0  0  0  0  0  0  0  0  0  0  0
  140.9172   76.7011  220.6382 H   0  0  0  0  0  0  0  0  0  0  0  0
  141.6637   75.9271  222.0883 H   0  0  0  0  0  0  0  0  0  0  0  0
  141.7633   71.9546  224.7665 H   0  0  0  0  0  0  0  0  0  0  0  0
  140.1704   72.7787  225.0919 H   0  0  0  0  0  0  0  0  0  0  0  0
  1  2  2  0
  2  3  1  0
  3  4  2  0
  4  5  1  0
  5  6  2  0
  5  7  1  0
  7  8  1  0
  8  9  1  0
  9 10  1  0
 10 11  2  0
 11 12  1  0
 12 13  1  0
 13 14  1  0
 14 15  1  0
 15 16  1  0
 16 17  1  0
 17 18  1  0
 18 19  1  0
 19 20  1  0
 20 21  1  0
 21 22  1  0
 17 23  1  0
 23 24  1  0
 12 25  2  0
 25 26  1  0
 26 27  1  0
 27 28  1  0
 28 29  1  0
 29 30  1  0
 30 31  2  0
 31 32  1  0
 32 33  2  0
 33 34  1  0
 34 35  2  0
 35 36  1  0
 26 37  2  0
  9 38  1  0
  6  1  1  0
 37 10  1  0
 38  4  1  0
 24 14  1  0
 36 27  1  0
 22 18  1  0
 35 30  1  0
  1 39  1  0
  2 40  1  0
  3 41  1  0
  6 42  1  0
  7 43  1  0
  7 44  1  0
  8 45  1  0
  8 46  1  0
 13 47  1  0
 14 48  1  6
 15 49  1  0
 15 50  1  0
 16 51  1  0
 16 52  1  0
 17 53  1  6
 19 54  1  0
 19 55  1  0
 20 56  1  0
 20 57  1  0
 21 58  1  0
 21 59  1  0
 22 60  1  0
 22 61  1  0
 23 62  1  0
 23 63  1  0
 24 64  1  0
 24 65  1  0
 28 66  1  0
 28 67  1  0
 29 68  1  0
 29 69  1  0
 31 70  1  0
 32 71  1  0
 33 72  1  0
 34 73  1  0
 36 74  1  0
 36 75  1  0
 38 76  1  0
 38 77  1  0
M  END
>  <smiles>  (11) 
c1ccc2c(c1)CCN(c1nc(N[C@H]3CC[C@H](N4CCCC4)CC3)nc(N3CCc4ccccc4C3)n1)C2

>  <score_type>  (11) 
oracle

>  <origin>  (11) 
autodockgpu

>  <m_score__min__energy>  (11) 
-11.02

>  <m_primary>  (11) 
energy

>  <rmsd>  (11) 
8.543699732013506

>  <m_score__min__rmsd>  (11) 
8.543699732013506

>  <meeko>  (11) 
{"free_energy": -9.8, "intermolecular_energy": -11.3, "internal_energy": -1.62, "cluster_size": 32, "cluster_id": 2, "rank_in_cluster": 11}

>  <energy>  (11) 
-10.32

>  <cluster_rmsd>  (11) 
1.28

>  <cluster>  (11) 
2

$$$$

     RDKit          3D

 77 83  0  0  0  0  0  0  0  0999 V2000
  140.2160   67.7550  227.3790 C   0  0  0  0  0  0  0  0  0  0  0  0
  139.2440   67.3930  226.4640 C   0  0  0  0  0  0  0  0  0  0  0  0
  139.1290   68.1890  225.3420 C   0  0  0  0  0  0  0  0  0  0  0  0
  139.9230   69.2910  225.1210 C   0  0  0  0  0  0  0  0  0  0  0  0
  140.8770   69.6400  226.0280 C   0  0  0  0  0  0  0  0  0  0  0  0
  141.0110   68.8580  227.1580 C   0  0  0  0  0  0  0  0  0  0  0  0
  141.7110   70.8320  225.7540 C   0  0  0  0  0  0  0  0  0  0  0  0
  140.7380   71.8890  225.2100 C   0  0  0  0  0  0  0  0  0  0  0  0
  140.3100   71.3780  223.9230 N   0  0  0  0  0  0  0  0  0  0  0  0
  140.4660   72.1200  222.7330 C   0  0  0  0  0  0  0  0  0  0  0  0
  140.8990   71.5800  221.5840 N   0  0  0  0  0  0  0  0  0  0  0  0
  141.0440   72.2750  220.4620 C   0  0  0  0  0  0  0  0  0  0  0  0
  141.5040   71.7050  219.2500 N   0  0  0  0  0  0  0  0  0  0  0  0
  142.7200   72.0680  218.5800 C   0  0  1  0  0  0  0  0  0  0  0  0
  143.8730   72.2680  219.5370 C   0  0  0  0  0  0  0  0  0  0  0  0
  145.0470   71.3740  219.1910 C   0  0  0  0  0  0  0  0  0  0  0  0
  144.5750   69.9590  219.3370 C   0  0  2  0  0  0  0  0  0  0  0  0
  145.5390   68.9550  219.4910 N   0  0  0  0  0  0  0  0  0  0  0  0
  145.2150   67.7230  220.0870 C   0  0  0  0  0  0  0  0  0  0  0  0
  144.8200   66.8410  218.9580 C   0  0  0  0  0  0  0  0  0  0  0  0
  145.6970   67.3430  217.8290 C   0  0  0  0  0  0  0  0  0  0  0  0
  146.3130   68.5980  218.3620 C   0  0  0  0  0  0  0  0  0  0  0  0
  143.5580   69.7220  218.2540 C   0  0  0  0  0  0  0  0  0  0  0  0
  143.1070   71.0150  217.5760 C   0  0  0  0  0  0  0  0  0  0  0  0
  140.7350   73.5890  220.4980 N   0  0  0  0  0  0  0  0  0  0  0  0
  140.3000   74.1810  221.6060 C   0  0  0  0  0  0  0  0  0  0  0  0
  139.9600   75.5660  221.6920 N   0  0  0  0  0  0  0  0  0  0  0  0
  138.5720   75.9990  221.7280 C   0  0  0  0  0  0  0  0  0  0  0  0
  138.4870   77.4270  221.1900 C   0  0  0  0  0  0  0  0  0  0  0  0
  139.3370   78.2960  222.0490 C   0  0  0  0  0  0  0  0  0  0  0  0
  138.8740   79.4870  222.5460 C   0  0  0  0  0  0  0  0  0  0  0  0
  139.7290   80.2280  223.3340 C   0  0  0  0  0  0  0  0  0  0  0  0
  141.0070   79.7800  223.6080 C   0  0  0  0  0  0  0  0  0  0  0  0
  141.4870   78.5660  223.1060 C   0  0  0  0  0  0  0  0  0  0  0  0
  140.6190   77.8200  222.3100 C   0  0  0  0  0  0  0  0  0  0  0  0
  141.0690   76.5180  221.7420 C   0  0  0  0  0  0  0  0  0  0  0  0
  140.1720   73.4330  222.7120 N   0  0  0  0  0  0  0  0  0  0  0  0
  139.7040   70.0630  223.8830 C   0  0  0  0  0  0  0  0  0  0  0  0
  140.3554   67.1567  228.2914 H   0  0  0  0  0  0  0  0  0  0  0  0
  138.5971   66.5175  226.6219 H   0  0  0  0  0  0  0  0  0  0  0  0
  138.3683   67.9307  224.5906 H   0  0  0  0  0  0  0  0  0  0  0  0
  141.7749   69.1236  227.9036 H   0  0  0  0  0  0  0  0  0  0  0  0
  142.1900   71.1881  226.6780 H   0  0  0  0  0  0  0  0  0  0  0  0
  142.5196   70.6126  225.0413 H   0  0  0  0  0  0  0  0  0  0  0  0
  139.8774   72.0061  225.8851 H   0  0  0  0  0  0  0  0  0  0  0  0
  141.2090   72.8794  225.1254 H   0  0  0  0  0  0  0  0  0  0  0  0
  140.9230   70.9490  218.7840 H   0  0  0  0  0  0  0  0  0  0  0  0
  142.5190   73.0243  218.0750 H   0  0  0  0  0  0  0  0  0  0  0  0
  143.5348   72.0341  220.5572 H   0  0  0  0  0  0  0  0  0  0  0  0
  144.2039   73.3144  219.4630 H   0  0  0  0  0  0  0  0  0  0  0  0
  145.8842   71.5662  219.8781 H   0  0  0  0  0  0  0  0  0  0  0  0
  145.4007   71.5673  218.1675 H   0  0  0  0  0  0  0  0  0  0  0  0
  144.1149   69.8611  220.3313 H   0  0  0  0  0  0  0  0  0  0  0  0
  146.0862   67.3081  220.6151 H   0  0  0  0  0  0  0  0  0  0  0  0
  144.4127   67.8234  220.8329 H   0  0  0  0  0  0  0  0  0  0  0  0
  145.0300   65.7855  219.1856 H   0  0  0  0  0  0  0  0  0  0  0  0
  143.7449   66.8771  218.7281 H   0  0  0  0  0  0  0  0  0  0  0  0
  146.4731   66.6038  217.5815 H   0  0  0  0  0  0  0  0  0  0  0  0
  145.1284   67.5168  216.9035 H   0  0  0  0  0  0  0  0  0  0  0  0
  147.3579   68.4180  218.6548 H   0  0  0  0  0  0  0  0  0  0  0  0
  146.3225   69.3979  217.6070 H   0  0  0  0  0  0  0  0  0  0  0  0
  142.6788   69.2321  218.6978 H   0  0  0  0  0  0  0  0  0  0  0  0
  144.0305   69.0915  217.4864 H   0  0  0  0  0  0  0  0  0  0  0  0
  142.2392   70.7974  216.9360 H   0  0  0  0  0  0  0  0  0  0  0  0
  143.9490   71.4015  216.9830 H   0  0  0  0  0  0  0  0  0  0  0  0
  137.9603   75.3316  221.1032 H   0  0  0  0  0  0  0  0  0  0  0  0
  138.1972   75.9663  222.7616 H   0  0  0  0  0  0  0  0  0  0  0  0
  138.8517   77.4570  220.1527 H   0  0  0  0  0  0  0  0  0  0  0  0
  137.4448   77.7786  221.2052 H   0  0  0  0  0  0  0  0  0  0  0  0
  137.8558   79.8391  222.3238 H   0  0  0  0  0  0  0  0  0  0  0  0
  139.3894   81.1881  223.7498 H   0  0  0  0  0  0  0  0  0  0  0  0
  141.6654   80.3954  224.2387 H   0  0  0  0  0  0  0  0  0  0  0  0
  142.5053   78.2150  223.3296 H   0  0  0  0  0  0  0  0  0  0  0  0
  141.4514   76.6810  220.7236 H   0  0  0  0  0  0  0  0  0  0  0  0
  141.8607   76.1059  222.3850 H   0  0  0  0  0  0  0  0  0  0  0  0
  138.6211   70.1803  223.7297 H   0  0  0  0  0  0  0  0  0  0  0  0
  140.1766   69.5071  223.0599 H   0  0  0  0  0  0  0  0  0  0  0  0
  1  2  2  0
  2  3  1  0
  3  4  2  0
  4  5  1  0
  5  6  2  0
  5  7  1  0
  7  8  1  0
  8  9  1  0
  9 10  1  0
 10 11  2  0
 11 12  1  0
 12 13  1  0
 13 14  1  0
 14 15  1  0
 15 16  1  0
 16 17  1  0
 17 18  1  0
 18 19  1  0
 19 20  1  0
 20 21  1  0
 21 22  1  0
 17 23  1  0
 23 24  1  0
 12 25  2  0
 25 26  1  0
 26 27  1  0
 27 28  1  0
 28 29  1  0
 29 30  1  0
 30 31  2  0
 31 32  1  0
 32 33  2  0
 33 34  1  0
 34 35  2  0
 35 36  1  0
 26 37  2  0
  9 38  1  0
  6  1  1  0
 37 10  1  0
 38  4  1  0
 24 14  1  0
 36 27  1  0
 22 18  1  0
 35 30  1  0
  1 39  1  0
  2 40  1  0
  3 41  1  0
  6 42  1  0
  7 43  1  0
  7 44  1  0
  8 45  1  0
  8 46  1  0
 13 47  1  0
 14 48  1  6
 15 49  1  0
 15 50  1  0
 16 51  1  0
 16 52  1  0
 17 53  1  1
 19 54  1  0
 19 55  1  0
 20 56  1  0
 20 57  1  0
 21 58  1  0
 21 59  1  0
 22 60  1  0
 22 61  1  0
 23 62  1  0
 23 63  1  0
 24 64  1  0
 24 65  1  0
 28 66  1  0
 28 67  1  0
 29 68  1  0
 29 69  1  0
 31 70  1  0
 32 71  1  0
 33 72  1  0
 34 73  1  0
 36 74  1  0
 36 75  1  0
 38 76  1  0
 38 77  1  0
M  END
>  <smiles>  (12) 
c1ccc2c(c1)CCN(c1nc(N[C@H]3CC[C@H](N4CCCC4)CC3)nc(N3CCc4ccccc4C3)n1)C2

>  <score_type>  (12) 
oracle

>  <origin>  (12) 
autodockgpu

>  <m_score__min__energy>  (12) 
-11.02

>  <m_primary>  (12) 
energy

>  <rmsd>  (12) 
10.717776954110603

>  <m_score__min__rmsd>  (12) 
10.717776954110603

>  <meeko>  (12) 
{"free_energy": -10.31, "intermolecular_energy": -11.8, "internal_energy": -1.34, "cluster_size": 32, "cluster_id": 2, "rank_in_cluster": 5}

>  <energy>  (12) 
-10.31

>  <cluster_rmsd>  (12) 
1.24

>  <cluster>  (12) 
2

$$$$

     RDKit          3D

 77 83  0  0  0  0  0  0  0  0999 V2000
  141.1450   81.0410  222.6230 C   0  0  0  0  0  0  0  0  0  0  0  0
  141.0630   80.3930  223.8430 C   0  0  0  0  0  0  0  0  0  0  0  0
  141.0410   79.0140  223.8050 C   0  0  0  0  0  0  0  0  0  0  0  0
  141.0950   78.2950  222.6340 C   0  0  0  0  0  0  0  0  0  0  0  0
  141.1750   78.9410  221.4380 C   0  0  0  0  0  0  0  0  0  0  0  0
  141.1990   80.3210  221.4500 C   0  0  0  0  0  0  0  0  0  0  0  0
  141.2320   78.1320  220.1990 C   0  0  0  0  0  0  0  0  0  0  0  0
  140.2030   77.0090  220.4030 C   0  0  0  0  0  0  0  0  0  0  0  0
  140.7530   76.1850  221.4620 N   0  0  0  0  0  0  0  0  0  0  0  0
  140.9830   74.8040  221.2920 C   0  0  0  0  0  0  0  0  0  0  0  0
  141.6900   74.2980  220.2710 N   0  0  0  0  0  0  0  0  0  0  0  0
  141.9110   72.9990  220.1100 C   0  0  0  0  0  0  0  0  0  0  0  0
  142.6560   72.4660  219.0300 N   0  0  0  0  0  0  0  0  0  0  0  0
  144.0550   72.6940  218.8040 C   0  0  1  0  0  0  0  0  0  0  0  0
  144.9010   72.3620  220.0120 C   0  0  0  0  0  0  0  0  0  0  0  0
  145.9680   71.3380  219.6820 C   0  0  0  0  0  0  0  0  0  0  0  0
  145.2580   70.0860  219.2640 C   0  0  2  0  0  0  0  0  0  0  0  0
  145.9660   68.8790  219.3120 N   0  0  0  0  0  0  0  0  0  0  0  0
  145.5290   67.8120  220.1160 C   0  0  0  0  0  0  0  0  0  0  0  0
  144.6600   66.9930  219.2310 C   0  0  0  0  0  0  0  0  0  0  0  0
  145.3080   67.1810  217.8730 C   0  0  0  0  0  0  0  0  0  0  0  0
  146.3160   68.2660  218.0860 C   0  0  0  0  0  0  0  0  0  0  0  0
  144.5710   70.3850  217.9600 C   0  0  0  0  0  0  0  0  0  0  0  0
  144.5440   71.8790  217.6370 C   0  0  0  0  0  0  0  0  0  0  0  0
  141.3900   72.1590  221.0300 N   0  0  0  0  0  0  0  0  0  0  0  0
  140.6800   72.6000  222.0650 C   0  0  0  0  0  0  0  0  0  0  0  0
  140.1110   71.7500  223.0630 N   0  0  0  0  0  0  0  0  0  0  0  0
  139.0370   70.8250  222.7390 C   0  0  0  0  0  0  0  0  0  0  0  0
  138.2280   70.5460  224.0050 C   0  0  0  0  0  0  0  0  0  0  0  0
  139.1460   69.9620  225.0210 C   0  0  0  0  0  0  0  0  0  0  0  0
  138.8130   68.8320  225.7230 C   0  0  0  0  0  0  0  0  0  0  0  0
  139.7230   68.3580  226.6440 C   0  0  0  0  0  0  0  0  0  0  0  0
  140.9260   69.0060  226.8480 C   0  0  0  0  0  0  0  0  0  0  0  0
  141.2740   70.1580  226.1370 C   0  0  0  0  0  0  0  0  0  0  0  0
  140.3510   70.6330  225.2060 C   0  0  0  0  0  0  0  0  0  0  0  0
  140.6590   71.8580  224.4150 C   0  0  0  0  0  0  0  0  0  0  0  0
  140.4870   73.9220  222.1800 N   0  0  0  0  0  0  0  0  0  0  0  0
  141.0660   76.8230  222.7240 C   0  0  0  0  0  0  0  0  0  0  0  0
  141.1672   82.1403  222.5897 H   0  0  0  0  0  0  0  0  0  0  0  0
  141.0178   80.9475  224.7920 H   0  0  0  0  0  0  0  0  0  0  0  0
  140.9773   78.4641  224.7556 H   0  0  0  0  0  0  0  0  0  0  0  0
  141.2632   80.8619  220.4943 H   0  0  0  0  0  0  0  0  0  0  0  0
  140.9656   78.7451  219.3254 H   0  0  0  0  0  0  0  0  0  0  0  0
  142.2412   77.7359  220.0128 H   0  0  0  0  0  0  0  0  0  0  0  0
  139.2301   77.4256  220.7028 H   0  0  0  0  0  0  0  0  0  0  0  0
  140.0287   76.4353  219.4808 H   0  0  0  0  0  0  0  0  0  0  0  0
  142.1650   71.8470  218.3220 H   0  0  0  0  0  0  0  0  0  0  0  0
  144.1602   73.7683  218.5924 H   0  0  0  0  0  0  0  0  0  0  0  0
  144.2514   71.9584  220.8026 H   0  0  0  0  0  0  0  0  0  0  0  0
  145.4004   73.2835  220.3458 H   0  0  0  0  0  0  0  0  0  0  0  0
  146.5904   71.1419  220.5676 H   0  0  0  0  0  0  0  0  0  0  0  0
  146.6275   71.7020  218.8805 H   0  0  0  0  0  0  0  0  0  0  0  0
  144.5217   69.8435  220.0444 H   0  0  0  0  0  0  0  0  0  0  0  0
  146.3853   67.2203  220.4718 H   0  0  0  0  0  0  0  0  0  0  0  0
  144.9938   68.1618  221.0111 H   0  0  0  0  0  0  0  0  0  0  0  0
  144.6688   65.9353  219.5330 H   0  0  0  0  0  0  0  0  0  0  0  0
  143.6013   67.2904  219.2575 H   0  0  0  0  0  0  0  0  0  0  0  0
  145.7990   66.2531  217.5447 H   0  0  0  0  0  0  0  0  0  0  0  0
  144.5766   67.4369  217.0923 H   0  0  0  0  0  0  0  0  0  0  0  0
  147.3292   67.8419  218.1448 H   0  0  0  0  0  0  0  0  0  0  0  0
  146.3160   68.9885  217.2565 H   0  0  0  0  0  0  0  0  0  0  0  0
  143.5355   70.0181  218.0154 H   0  0  0  0  0  0  0  0  0  0  0  0
  145.1382   69.8826  217.1625 H   0  0  0  0  0  0  0  0  0  0  0  0
  143.8744   72.0461  216.7804 H   0  0  0  0  0  0  0  0  0  0  0  0
  145.5708   72.1972  217.4039 H   0  0  0  0  0  0  0  0  0  0  0  0
  138.3841   71.2701  221.9738 H   0  0  0  0  0  0  0  0  0  0  0  0
  139.4575   69.8860  222.3499 H   0  0  0  0  0  0  0  0  0  0  0  0
  137.7975   71.4836  224.3866 H   0  0  0  0  0  0  0  0  0  0  0  0
  137.4072   69.8471  223.7865 H   0  0  0  0  0  0  0  0  0  0  0  0
  137.8530   68.3213  225.5570 H   0  0  0  0  0  0  0  0  0  0  0  0
  139.4883   67.4529  227.2234 H   0  0  0  0  0  0  0  0  0  0  0  0
  141.6301   68.6038  227.5913 H   0  0  0  0  0  0  0  0  0  0  0  0
  142.2343   70.6677  226.3046 H   0  0  0  0  0  0  0  0  0  0  0  0
  140.2167   72.7320  224.9155 H   0  0  0  0  0  0  0  0  0  0  0  0
  141.7511   71.9704  224.3467 H   0  0  0  0  0  0  0  0  0  0  0  0
  140.3044   76.5319  223.4624 H   0  0  0  0  0  0  0  0  0  0  0  0
  142.0723   76.4915  223.0196 H   0  0  0  0  0  0  0  0  0  0  0  0
  1  2  2  0
  2  3  1  0
  3  4  2  0
  4  5  1  0
  5  6  2  0
  5  7  1  0
  7  8  1  0
  8  9  1  0
  9 10  1  0
 10 11  2  0
 11 12  1  0
 12 13  1  0
 13 14  1  0
 14 15  1  0
 15 16  1  0
 16 17  1  0
 17 18  1  0
 18 19  1  0
 19 20  1  0
 20 21  1  0
 21 22  1  0
 17 23  1  0
 23 24  1  0
 12 25  2  0
 25 26  1  0
 26 27  1  0
 27 28  1  0
 28 29  1  0
 29 30  1  0
 30 31  2  0
 31 32  1  0
 32 33  2  0
 33 34  1  0
 34 35  2  0
 35 36  1  0
 26 37  2  0
  9 38  1  0
  6  1  1  0
 37 10  1  0
 38  4  1  0
 24 14  1  0
 36 27  1  0
 22 18  1  0
 35 30  1  0
  1 39  1  0
  2 40  1  0
  3 41  1  0
  6 42  1  0
  7 43  1  0
  7 44  1  0
  8 45  1  0
  8 46  1  0
 13 47  1  0
 14 48  1  6
 15 49  1  0
 15 50  1  0
 16 51  1  0
 16 52  1  0
 17 53  1  1
 19 54  1  0
 19 55  1  0
 20 56  1  0
 20 57  1  0
 21 58  1  0
 21 59  1  0
 22 60  1  0
 22 61  1  0
 23 62  1  0
 23 63  1  0
 24 64  1  0
 24 65  1  0
 28 66  1  0
 28 67  1  0
 29 68  1  0
 29 69  1  0
 31 70  1  0
 32 71  1  0
 33 72  1  0
 34 73  1  0
 36 74  1  0
 36 75  1  0
 38 76  1  0
 38 77  1  0
M  END
>  <smiles>  (13) 
c1ccc2c(c1)CCN(c1nc(N[C@H]3CC[C@H](N4CCCC4)CC3)nc(N3CCc4ccccc4C3)n1)C2

>  <score_type>  (13) 
oracle

>  <origin>  (13) 
autodockgpu

>  <m_score__min__energy>  (13) 
-11.02

>  <m_primary>  (13) 
energy

>  <rmsd>  (13) 
10.695039490457056

>  <m_score__min__rmsd>  (13) 
10.695039490457056

>  <meeko>  (13) 
{"free_energy": -10.44, "intermolecular_energy": -11.93, "internal_energy": -1.33, "cluster_size": 32, "cluster_id": 2, "rank_in_cluster": 2}

>  <energy>  (13) 
-10.29

>  <cluster_rmsd>  (13) 
1.16

>  <cluster>  (13) 
2

$$$$

     RDKit          3D

 77 83  0  0  0  0  0  0  0  0999 V2000
  140.0260   69.1490  227.5490 C   0  0  0  0  0  0  0  0  0  0  0  0
  141.0060   70.1170  227.6730 C   0  0  0  0  0  0  0  0  0  0  0  0
  141.1540   70.9820  226.6070 C   0  0  0  0  0  0  0  0  0  0  0  0
  140.3840   70.9080  225.4700 C   0  0  0  0  0  0  0  0  0  0  0  0
  139.4220   69.9510  225.3560 C   0  0  0  0  0  0  0  0  0  0  0  0
  139.2550   69.0750  226.4090 C   0  0  0  0  0  0  0  0  0  0  0  0
  138.6140   69.9040  224.1150 C   0  0  0  0  0  0  0  0  0  0  0  0
  139.6150   70.1330  222.9730 C   0  0  0  0  0  0  0  0  0  0  0  0
  140.0560   71.5050  223.1300 N   0  0  0  0  0  0  0  0  0  0  0  0
  139.9340   72.4530  222.0920 C   0  0  0  0  0  0  0  0  0  0  0  0
  139.8550   72.1160  220.7960 N   0  0  0  0  0  0  0  0  0  0  0  0
  139.7380   73.0050  219.8180 C   0  0  0  0  0  0  0  0  0  0  0  0
  139.6570   72.6480  218.4490 N   0  0  0  0  0  0  0  0  0  0  0  0
  140.7830   72.4770  217.5770 C   0  0  1  0  0  0  0  0  0  0  0  0
  141.8010   73.5860  217.7160 C   0  0  0  0  0  0  0  0  0  0  0  0
  143.1730   73.0430  218.0650 C   0  0  0  0  0  0  0  0  0  0  0  0
  143.0490   72.3680  219.3970 C   0  0  2  0  0  0  0  0  0  0  0  0
  144.2180   72.1550  220.1400 N   0  0  0  0  0  0  0  0  0  0  0  0
  145.4600   71.9820  219.5040 C   0  0  0  0  0  0  0  0  0  0  0  0
  146.0440   73.3470  219.4220 C   0  0  0  0  0  0  0  0  0  0  0  0
  145.5090   74.0070  220.6770 C   0  0  0  0  0  0  0  0  0  0  0  0
  144.4970   73.0410  221.2070 C   0  0  0  0  0  0  0  0  0  0  0  0
  142.1790   71.1580  219.1970 C   0  0  0  0  0  0  0  0  0  0  0  0
  141.4660   71.1620  217.8450 C   0  0  0  0  0  0  0  0  0  0  0  0
  139.6970   74.3100  220.1630 N   0  0  0  0  0  0  0  0  0  0  0  0
  139.7700   74.7080  221.4300 C   0  0  0  0  0  0  0  0  0  0  0  0
  139.7300   76.0750  221.8420 N   0  0  0  0  0  0  0  0  0  0  0  0
  138.6780   76.5650  222.7190 C   0  0  0  0  0  0  0  0  0  0  0  0
  138.5000   78.0650  222.4850 C   0  0  0  0  0  0  0  0  0  0  0  0
  139.7960   78.7360  222.7810 C   0  0  0  0  0  0  0  0  0  0  0  0
  139.8610   79.8500  223.5780 C   0  0  0  0  0  0  0  0  0  0  0  0
  141.1030   80.4060  223.8010 C   0  0  0  0  0  0  0  0  0  0  0  0
  142.2370   79.8550  223.2370 C   0  0  0  0  0  0  0  0  0  0  0  0
  142.1800   78.7190  222.4240 C   0  0  0  0  0  0  0  0  0  0  0  0
  140.9230   78.1590  222.2020 C   0  0  0  0  0  0  0  0  0  0  0  0
  140.7920   76.9480  221.3440 C   0  0  0  0  0  0  0  0  0  0  0  0
  139.8880   73.7670  222.3790 N   0  0  0  0  0  0  0  0  0  0  0  0
  140.6380   71.8900  224.3990 C   0  0  0  0  0  0  0  0  0  0  0  0
  139.8606   68.4323  228.3669 H   0  0  0  0  0  0  0  0  0  0  0  0
  141.6340   70.1937  228.5729 H   0  0  0  0  0  0  0  0  0  0  0  0
  141.9229   71.7661  226.6701 H   0  0  0  0  0  0  0  0  0  0  0  0
  138.4835   68.2943  226.3364 H   0  0  0  0  0  0  0  0  0  0  0  0
  138.1261   68.9238  224.0094 H   0  0  0  0  0  0  0  0  0  0  0  0
  137.8135   70.6584  224.1171 H   0  0  0  0  0  0  0  0  0  0  0  0
  140.4657   69.4411  223.0600 H   0  0  0  0  0  0  0  0  0  0  0  0
  139.1636   69.9545  221.9859 H   0  0  0  0  0  0  0  0  0  0  0  0
  138.7020   72.4900  218.0150 H   0  0  0  0  0  0  0  0  0  0  0  0
  140.3838   72.5009  216.5523 H   0  0  0  0  0  0  0  0  0  0  0  0
  141.4754   74.2719  218.5119 H   0  0  0  0  0  0  0  0  0  0  0  0
  141.8732   74.1099  216.7515 H   0  0  0  0  0  0  0  0  0  0  0  0
  143.9013   73.8653  218.1241 H   0  0  0  0  0  0  0  0  0  0  0  0
  143.5237   72.3373  217.2975 H   0  0  0  0  0  0  0  0  0  0  0  0
  142.5735   73.0795  220.0882 H   0  0  0  0  0  0  0  0  0  0  0  0
  146.1083   71.3190  220.0957 H   0  0  0  0  0  0  0  0  0  0  0  0
  145.3552   71.5173  218.5125 H   0  0  0  0  0  0  0  0  0  0  0  0
  147.1434   73.3104  219.4296 H   0  0  0  0  0  0  0  0  0  0  0  0
  145.7807   73.8825  218.4979 H   0  0  0  0  0  0  0  0  0  0  0  0
  146.3161   74.1643  221.4077 H   0  0  0  0  0  0  0  0  0  0  0  0
  145.0757   74.9979  220.4759 H   0  0  0  0  0  0  0  0  0  0  0  0
  144.9064   72.4896  222.0663 H   0  0  0  0  0  0  0  0  0  0  0  0
  143.5891   73.5548  221.5560 H   0  0  0  0  0  0  0  0  0  0  0  0
  141.4216   71.1333  219.9944 H   0  0  0  0  0  0  0  0  0  0  0  0
  142.8299   70.2717  219.2271 H   0  0  0  0  0  0  0  0  0  0  0  0
  140.7120   70.3611  217.8377 H   0  0  0  0  0  0  0  0  0  0  0  0
  142.2201   71.0021  217.0603 H   0  0  0  0  0  0  0  0  0  0  0  0
  137.7366   76.0417  222.4953 H   0  0  0  0  0  0  0  0  0  0  0  0
  138.9504   76.3804  223.7686 H   0  0  0  0  0  0  0  0  0  0  0  0
  138.2159   78.2480  221.4382 H   0  0  0  0  0  0  0  0  0  0  0  0
  137.7078   78.4613  223.1372 H   0  0  0  0  0  0  0  0  0  0  0  0
  138.9542   80.2848  224.0238 H   0  0  0  0  0  0  0  0  0  0  0  0
  141.1918   81.2997  224.4361 H   0  0  0  0  0  0  0  0  0  0  0  0
  143.2128   80.3233  223.4331 H   0  0  0  0  0  0  0  0  0  0  0  0
  143.0879   78.2859  221.9788 H   0  0  0  0  0  0  0  0  0  0  0  0
  140.5526   77.2578  220.3160 H   0  0  0  0  0  0  0  0  0  0  0  0
  141.7429   76.3954  221.3641 H   0  0  0  0  0  0  0  0  0  0  0  0
  141.7253   71.9939  224.2691 H   0  0  0  0  0  0  0  0  0  0  0  0
  140.1689   72.8375  224.7027 H   0  0  0  0  0  0  0  0  0  0  0  0
  1  2  2  0
  2  3  1  0
  3  4  2  0
  4  5  1  0
  5  6  2  0
  5  7  1  0
  7  8  1  0
  8  9  1  0
  9 10  1  0
 10 11  2  0
 11 12  1  0
 12 13  1  0
 13 14  1  0
 14 15  1  0
 15 16  1  0
 16 17  1  0
 17 18  1  0
 18 19  1  0
 19 20  1  0
 20 21  1  0
 21 22  1  0
 17 23  1  0
 23 24  1  0
 12 25  2  0
 25 26  1  0
 26 27  1  0
 27 28  1  0
 28 29  1  0
 29 30  1  0
 30 31  2  0
 31 32  1  0
 32 33  2  0
 33 34  1  0
 34 35  2  0
 35 36  1  0
 26 37  2  0
  9 38  1  0
  6  1  1  0
 37 10  1  0
 38  4  1  0
 24 14  1  0
 36 27  1  0
 22 18  1  0
 35 30  1  0
  1 39  1  0
  2 40  1  0
  3 41  1  0
  6 42  1  0
  7 43  1  0
  7 44  1  0
  8 45  1  0
  8 46  1  0
 13 47  1  0
 14 48  1  6
 15 49  1  0
 15 50  1  0
 16 51  1  0
 16 52  1  0
 17 53  1  1
 19 54  1  0
 19 55  1  0
 20 56  1  0
 20 57  1  0
 21 58  1  0
 21 59  1  0
 22 60  1  0
 22 61  1  0
 23 62  1  0
 23 63  1  0
 24 64  1  0
 24 65  1  0
 28 66  1  0
 28 67  1  0
 29 68  1  0
 29 69  1  0
 31 70  1  0
 32 71  1  0
 33 72  1  0
 34 73  1  0
 36 74  1  0
 36 75  1  0
 38 76  1  0
 38 77  1  0
M  END
>  <smiles>  (14) 
c1ccc2c(c1)CCN(c1nc(N[C@H]3CC[C@H](N4CCCC4)CC3)nc(N3CCc4ccccc4C3)n1)C2

>  <score_type>  (14) 
oracle

>  <origin>  (14) 
autodockgpu

>  <m_score__min__energy>  (14) 
-11.02

>  <m_primary>  (14) 
energy

>  <rmsd>  (14) 
8.35709953335021

>  <m_score__min__rmsd>  (14) 
8.35709953335021

>  <meeko>  (14) 
{"free_energy": -9.47, "intermolecular_energy": -10.96, "internal_energy": -1.92, "cluster_size": 32, "cluster_id": 2, "rank_in_cluster": 18}

>  <energy>  (14) 
-10.28

>  <cluster_rmsd>  (14) 
1.09

>  <cluster>  (14) 
2

$$$$

     RDKit          3D

 77 83  0  0  0  0  0  0  0  0999 V2000
  137.9860   79.7290  223.2160 C   0  0  0  0  0  0  0  0  0  0  0  0
  136.8980   78.8830  223.0890 C   0  0  0  0  0  0  0  0  0  0  0  0
  137.1770   77.5640  222.7920 C   0  0  0  0  0  0  0  0  0  0  0  0
  138.4560   77.0880  222.6260 C   0  0  0  0  0  0  0  0  0  0  0  0
  139.5210   77.9270  222.7540 C   0  0  0  0  0  0  0  0  0  0  0  0
  139.2670   79.2510  223.0500 C   0  0  0  0  0  0  0  0  0  0  0  0
  140.8830   77.3750  222.5680 C   0  0  0  0  0  0  0  0  0  0  0  0
  140.7770   76.4400  221.3540 C   0  0  0  0  0  0  0  0  0  0  0  0
  139.9420   75.3420  221.7980 N   0  0  0  0  0  0  0  0  0  0  0  0
  140.3750   74.0000  221.7390 C   0  0  0  0  0  0  0  0  0  0  0  0
  141.1280   73.5170  220.7390 N   0  0  0  0  0  0  0  0  0  0  0  0
  141.5400   72.2560  220.6820 C   0  0  0  0  0  0  0  0  0  0  0  0
  142.3320   71.7450  219.6250 N   0  0  0  0  0  0  0  0  0  0  0  0
  143.7040   72.0900  219.3850 C   0  0  1  0  0  0  0  0  0  0  0  0
  143.9590   72.5020  217.9530 C   0  0  0  0  0  0  0  0  0  0  0  0
  144.5680   73.8870  217.8710 C   0  0  0  0  0  0  0  0  0  0  0  0
  143.5660   74.8400  218.4490 C   0  0  2  0  0  0  0  0  0  0  0  0
  143.6810   76.1970  218.1210 N   0  0  0  0  0  0  0  0  0  0  0  0
  143.3780   76.6600  216.8290 C   0  0  0  0  0  0  0  0  0  0  0  0
  141.9420   77.0400  216.8830 C   0  0  0  0  0  0  0  0  0  0  0  0
  141.7860   77.5210  218.3120 C   0  0  0  0  0  0  0  0  0  0  0  0
  143.0710   77.1420  218.9780 C   0  0  0  0  0  0  0  0  0  0  0  0
  143.4640   74.5330  219.9170 C   0  0  0  0  0  0  0  0  0  0  0  0
  144.1350   73.2120  220.2910 C   0  0  0  0  0  0  0  0  0  0  0  0
  141.1730   71.4340  221.6890 N   0  0  0  0  0  0  0  0  0  0  0  0
  140.4290   71.8540  222.7080 C   0  0  0  0  0  0  0  0  0  0  0  0
  140.0190   71.0230  223.7940 N   0  0  0  0  0  0  0  0  0  0  0  0
  139.4220   69.7180  223.5590 C   0  0  0  0  0  0  0  0  0  0  0  0
  138.5390   69.3560  224.7530 C   0  0  0  0  0  0  0  0  0  0  0  0
  139.3960   69.3380  225.9710 C   0  0  0  0  0  0  0  0  0  0  0  0
  139.3570   68.2940  226.8590 C   0  0  0  0  0  0  0  0  0  0  0  0
  140.1850   68.3580  227.9600 C   0  0  0  0  0  0  0  0  0  0  0  0
  141.0220   69.4400  228.1540 C   0  0  0  0  0  0  0  0  0  0  0  0
  141.0680   70.5080  227.2540 C   0  0  0  0  0  0  0  0  0  0  0  0
  140.2300   70.4390  226.1420 C   0  0  0  0  0  0  0  0  0  0  0  0
  140.2290   71.5450  225.1440 C   0  0  0  0  0  0  0  0  0  0  0  0
  140.0400   73.1380  222.7160 N   0  0  0  0  0  0  0  0  0  0  0  0
  138.6250   75.6560  222.3120 C   0  0  0  0  0  0  0  0  0  0  0  0
  137.8264   80.7916  223.4514 H   0  0  0  0  0  0  0  0  0  0  0  0
  135.8663   79.2423  223.2178 H   0  0  0  0  0  0  0  0  0  0  0  0
  136.3374   76.8617  222.6832 H   0  0  0  0  0  0  0  0  0  0  0  0
  140.1134   79.9455  223.1566 H   0  0  0  0  0  0  0  0  0  0  0  0
  141.6029   78.1830  222.3708 H   0  0  0  0  0  0  0  0  0  0  0  0
  141.2377   76.8456  223.4646 H   0  0  0  0  0  0  0  0  0  0  0  0
  140.3113   76.9608  220.5044 H   0  0  0  0  0  0  0  0  0  0  0  0
  141.7636   76.0960  221.0101 H   0  0  0  0  0  0  0  0  0  0  0  0
  141.9000   71.0530  218.9470 H   0  0  0  0  0  0  0  0  0  0  0  0
  144.2892   71.1821  219.5929 H   0  0  0  0  0  0  0  0  0  0  0  0
  143.0051   72.4985  217.4053 H   0  0  0  0  0  0  0  0  0  0  0  0
  144.6687   71.7874  217.5106 H   0  0  0  0  0  0  0  0  0  0  0  0
  144.7759   74.1470  216.8226 H   0  0  0  0  0  0  0  0  0  0  0  0
  145.5178   73.9321  218.4241 H   0  0  0  0  0  0  0  0  0  0  0  0
  142.6044   74.6588  217.9466 H   0  0  0  0  0  0  0  0  0  0  0  0
  143.9992   77.5316  216.5751 H   0  0  0  0  0  0  0  0  0  0  0  0
  143.5750   75.8981  216.0605 H   0  0  0  0  0  0  0  0  0  0  0  0
  141.7156   77.8428  216.1659 H   0  0  0  0  0  0  0  0  0  0  0  0
  141.2598   76.2185  216.6189 H   0  0  0  0  0  0  0  0  0  0  0  0
  141.6396   78.6108  218.3415 H   0  0  0  0  0  0  0  0  0  0  0  0
  140.9108   77.0773  218.8092 H   0  0  0  0  0  0  0  0  0  0  0  0
  143.7164   78.0248  219.0970 H   0  0  0  0  0  0  0  0  0  0  0  0
  142.9013   76.7289  219.9832 H   0  0  0  0  0  0  0  0  0  0  0  0
  142.4004   74.4777  220.1919 H   0  0  0  0  0  0  0  0  0  0  0  0
  143.9835   75.3354  220.4612 H   0  0  0  0  0  0  0  0  0  0  0  0
  143.8661   72.9567  221.3266 H   0  0  0  0  0  0  0  0  0  0  0  0
  145.2225   73.3388  220.1847 H   0  0  0  0  0  0  0  0  0  0  0  0
  138.8115   69.7503  222.6445 H   0  0  0  0  0  0  0  0  0  0  0  0
  140.2124   68.9628  223.4371 H   0  0  0  0  0  0  0  0  0  0  0  0
  137.7419   70.1052  224.8685 H   0  0  0  0  0  0  0  0  0  0  0  0
  138.0733   68.3714  224.5991 H   0  0  0  0  0  0  0  0  0  0  0  0
  138.6885   67.4352  226.6988 H   0  0  0  0  0  0  0  0  0  0  0  0
  140.1790   67.5376  228.6927 H   0  0  0  0  0  0  0  0  0  0  0  0
  141.6706   69.4613  229.0422 H   0  0  0  0  0  0  0  0  0  0  0  0
  141.7367   71.3663  227.4160 H   0  0  0  0  0  0  0  0  0  0  0  0
  139.4213   72.2508  225.3879 H   0  0  0  0  0  0  0  0  0  0  0  0
  141.2037   72.0536  225.1788 H   0  0  0  0  0  0  0  0  0  0  0  0
  137.8770   75.3718  221.5572 H   0  0  0  0  0  0  0  0  0  0  0  0
  138.4950   75.0955  223.2495 H   0  0  0  0  0  0  0  0  0  0  0  0
  1  2  2  0
  2  3  1  0
  3  4  2  0
  4  5  1  0
  5  6  2  0
  5  7  1  0
  7  8  1  0
  8  9  1  0
  9 10  1  0
 10 11  2  0
 11 12  1  0
 12 13  1  0
 13 14  1  0
 14 15  1  0
 15 16  1  0
 16 17  1  0
 17 18  1  0
 18 19  1  0
 19 20  1  0
 20 21  1  0
 21 22  1  0
 17 23  1  0
 23 24  1  0
 12 25  2  0
 25 26  1  0
 26 27  1  0
 27 28  1  0
 28 29  1  0
 29 30  1  0
 30 31  2  0
 31 32  1  0
 32 33  2  0
 33 34  1  0
 34 35  2  0
 35 36  1  0
 26 37  2  0
  9 38  1  0
  6  1  1  0
 37 10  1  0
 38  4  1  0
 24 14  1  0
 36 27  1  0
 22 18  1  0
 35 30  1  0
  1 39  1  0
  2 40  1  0
  3 41  1  0
  6 42  1  0
  7 43  1  0
  7 44  1  0
  8 45  1  0
  8 46  1  0
 13 47  1  0
 14 48  1  1
 15 49  1  0
 15 50  1  0
 16 51  1  0
 16 52  1  0
 17 53  1  6
 19 54  1  0
 19 55  1  0
 20 56  1  0
 20 57  1  0
 21 58  1  0
 21 59  1  0
 22 60  1  0
 22 61  1  0
 23 62  1  0
 23 63  1  0
 24 64  1  0
 24 65  1  0
 28 66  1  0
 28 67  1  0
 29 68  1  0
 29 69  1  0
 31 70  1  0
 32 71  1  0
 33 72  1  0
 34 73  1  0
 36 74  1  0
 36 75  1  0
 38 76  1  0
 38 77  1  0
M  END
>  <smiles>  (15) 
c1ccc2c(c1)CCN(c1nc(N[C@H]3CC[C@H](N4CCCC4)CC3)nc(N3CCc4ccccc4C3)n1)C2

>  <score_type>  (15) 
oracle

>  <origin>  (15) 
autodockgpu

>  <m_score__min__energy>  (15) 
-11.02

>  <m_primary>  (15) 
energy

>  <rmsd>  (15) 
7.162100565862076

>  <m_score__min__rmsd>  (15) 
7.162100565862076

>  <meeko>  (15) 
{"free_energy": -9.44, "intermolecular_energy": -10.94, "internal_energy": -1.69, "cluster_size": 1, "cluster_id": 5, "rank_in_cluster": 1}

>  <energy>  (15) 
-9.96

>  <cluster_rmsd>  (15) 
1.35

>  <cluster>  (15) 
2

$$$$

     RDKit          3D

 77 83  0  0  0  0  0  0  0  0999 V2000
  140.0480   69.0860  227.5160 C   0  0  0  0  0  0  0  0  0  0  0  0
  141.0060   70.0760  227.6470 C   0  0  0  0  0  0  0  0  0  0  0  0
  141.1330   70.9500  226.5860 C   0  0  0  0  0  0  0  0  0  0  0  0
  140.3640   70.8660  225.4490 C   0  0  0  0  0  0  0  0  0  0  0  0
  139.4240   69.8880  225.3290 C   0  0  0  0  0  0  0  0  0  0  0  0
  139.2780   69.0020  226.3760 C   0  0  0  0  0  0  0  0  0  0  0  0
  138.6170   69.8310  224.0890 C   0  0  0  0  0  0  0  0  0  0  0  0
  139.6120   70.0900  222.9470 C   0  0  0  0  0  0  0  0  0  0  0  0
  140.0210   71.4710  223.1130 N   0  0  0  0  0  0  0  0  0  0  0  0
  139.8760   72.4230  222.0820 C   0  0  0  0  0  0  0  0  0  0  0  0
  139.7570   72.0900  220.7880 N   0  0  0  0  0  0  0  0  0  0  0  0
  139.6180   72.9830  219.8150 C   0  0  0  0  0  0  0  0  0  0  0  0
  139.4940   72.6310  218.4490 N   0  0  0  0  0  0  0  0  0  0  0  0
  140.4290   72.9870  217.4210 C   0  0  1  0  0  0  0  0  0  0  0  0
  140.9050   74.4170  217.5370 C   0  0  0  0  0  0  0  0  0  0  0  0
  142.4150   74.4960  217.6400 C   0  0  0  0  0  0  0  0  0  0  0  0
  142.8040   73.7830  218.8990 C   0  0  2  0  0  0  0  0  0  0  0  0
  144.0610   74.0590  219.4520 N   0  0  0  0  0  0  0  0  0  0  0  0
  144.2660   74.0210  220.8420 C   0  0  0  0  0  0  0  0  0  0  0  0
  144.7100   72.6320  221.1290 C   0  0  0  0  0  0  0  0  0  0  0  0
  145.4760   72.2690  219.8720 C   0  0  0  0  0  0  0  0  0  0  0  0
  145.1840   73.3860  218.9190 C   0  0  0  0  0  0  0  0  0  0  0  0
  142.4920   72.3260  218.6930 C   0  0  0  0  0  0  0  0  0  0  0  0
  141.6290   72.0780  217.4560 C   0  0  0  0  0  0  0  0  0  0  0  0
  139.5980   74.2880  220.1650 N   0  0  0  0  0  0  0  0  0  0  0  0
  139.7110   74.6810  221.4300 C   0  0  0  0  0  0  0  0  0  0  0  0
  139.6950   76.0470  221.8470 N   0  0  0  0  0  0  0  0  0  0  0  0
  138.6710   76.5440  222.7530 C   0  0  0  0  0  0  0  0  0  0  0  0
  138.5010   78.0460  222.5280 C   0  0  0  0  0  0  0  0  0  0  0  0
  139.8100   78.7040  222.7910 C   0  0  0  0  0  0  0  0  0  0  0  0
  139.9070   79.8160  223.5880 C   0  0  0  0  0  0  0  0  0  0  0  0
  141.1590   80.3600  223.7790 C   0  0  0  0  0  0  0  0  0  0  0  0
  142.2720   79.8010  223.1840 C   0  0  0  0  0  0  0  0  0  0  0  0
  142.1830   78.6670  222.3700 C   0  0  0  0  0  0  0  0  0  0  0  0
  140.9160   78.1200  222.1800 C   0  0  0  0  0  0  0  0  0  0  0  0
  140.7510   76.9120  221.3230 C   0  0  0  0  0  0  0  0  0  0  0  0
  139.8490   73.7370  222.3730 N   0  0  0  0  0  0  0  0  0  0  0  0
  140.5940   71.8620  224.3840 C   0  0  0  0  0  0  0  0  0  0  0  0
  139.8998   68.3598  228.3288 H   0  0  0  0  0  0  0  0  0  0  0  0
  141.6321   70.1618  228.5474 H   0  0  0  0  0  0  0  0  0  0  0  0
  141.8842   71.7508  226.6531 H   0  0  0  0  0  0  0  0  0  0  0  0
  138.5244   68.2044  226.2988 H   0  0  0  0  0  0  0  0  0  0  0  0
  138.1512   68.8408  223.9773 H   0  0  0  0  0  0  0  0  0  0  0  0
  137.7999   70.5674  224.0966 H   0  0  0  0  0  0  0  0  0  0  0  0
  140.4786   69.4174  223.0290 H   0  0  0  0  0  0  0  0  0  0  0  0
  139.1644   69.9071  221.9590 H   0  0  0  0  0  0  0  0  0  0  0  0
  138.6550   72.0600  218.1400 H   0  0  0  0  0  0  0  0  0  0  0  0
  139.8918   72.8770  216.4674 H   0  0  0  0  0  0  0  0  0  0  0  0
  140.4617   74.8689  218.4366 H   0  0  0  0  0  0  0  0  0  0  0  0
  140.5933   74.9578  216.6313 H   0  0  0  0  0  0  0  0  0  0  0  0
  142.7364   75.5470  217.6859 H   0  0  0  0  0  0  0  0  0  0  0  0
  142.8938   74.0356  216.7632 H   0  0  0  0  0  0  0  0  0  0  0  0
  142.1989   74.1988  219.7181 H   0  0  0  0  0  0  0  0  0  0  0  0
  145.0410   74.7433  221.1381 H   0  0  0  0  0  0  0  0  0  0  0  0
  143.3565   74.2872  221.4006 H   0  0  0  0  0  0  0  0  0  0  0  0
  145.3604   72.5972  222.0154 H   0  0  0  0  0  0  0  0  0  0  0  0
  143.8821   71.9434  221.3535 H   0  0  0  0  0  0  0  0  0  0  0  0
  146.5546   72.2061  220.0785 H   0  0  0  0  0  0  0  0  0  0  0  0
  145.1800   71.2886  219.4704 H   0  0  0  0  0  0  0  0  0  0  0  0
  146.0443   74.0683  218.8525 H   0  0  0  0  0  0  0  0  0  0  0  0
  144.9893   73.0126  217.9028 H   0  0  0  0  0  0  0  0  0  0  0  0
  141.9553   71.9523  219.5775 H   0  0  0  0  0  0  0  0  0  0  0  0
  143.4461   71.7991  218.5442 H   0  0  0  0  0  0  0  0  0  0  0  0
  141.2844   71.0334  217.4656 H   0  0  0  0  0  0  0  0  0  0  0  0
  142.2405   72.2840  216.5651 H   0  0  0  0  0  0  0  0  0  0  0  0
  137.7192   76.0301  222.5528 H   0  0  0  0  0  0  0  0  0  0  0  0
  138.9692   76.3536  223.7945 H   0  0  0  0  0  0  0  0  0  0  0  0
  138.1908   78.2347  221.4897 H   0  0  0  0  0  0  0  0  0  0  0  0
  137.7303   78.4476  223.2024 H   0  0  0  0  0  0  0  0  0  0  0  0
  139.0165   80.2584  224.0585 H   0  0  0  0  0  0  0  0  0  0  0  0
  141.2726   81.2511  224.4138 H   0  0  0  0  0  0  0  0  0  0  0  0
  143.2568   80.2603  223.3548 H   0  0  0  0  0  0  0  0  0  0  0  0
  143.0747   78.2263  221.9003 H   0  0  0  0  0  0  0  0  0  0  0  0
  140.4870   77.2265  220.3025 H   0  0  0  0  0  0  0  0  0  0  0  0
  141.6971   76.3510  221.3166 H   0  0  0  0  0  0  0  0  0  0  0  0
  141.6784   71.9932  224.2545 H   0  0  0  0  0  0  0  0  0  0  0  0
  140.1026   72.7960  224.6941 H   0  0  0  0  0  0  0  0  0  0  0  0
  1  2  2  0
  2  3  1  0
  3  4  2  0
  4  5  1  0
  5  6  2  0
  5  7  1  0
  7  8  1  0
  8  9  1  0
  9 10  1  0
 10 11  2  0
 11 12  1  0
 12 13  1  0
 13 14  1  0
 14 15  1  0
 15 16  1  0
 16 17  1  0
 17 18  1  0
 18 19  1  0
 19 20  1  0
 20 21  1  0
 21 22  1  0
 17 23  1  0
 23 24  1  0
 12 25  2  0
 25 26  1  0
 26 27  1  0
 27 28  1  0
 28 29  1  0
 29 30  1  0
 30 31  2  0
 31 32  1  0
 32 33  2  0
 33 34  1  0
 34 35  2  0
 35 36  1  0
 26 37  2  0
  9 38  1  0
  6  1  1  0
 37 10  1  0
 38  4  1  0
 24 14  1  0
 36 27  1  0
 22 18  1  0
 35 30  1  0
  1 39  1  0
  2 40  1  0
  3 41  1  0
  6 42  1  0
  7 43  1  0
  7 44  1  0
  8 45  1  0
  8 46  1  0
 13 47  1  0
 14 48  1  6
 15 49  1  0
 15 50  1  0
 16 51  1  0
 16 52  1  0
 17 53  1  1
 19 54  1  0
 19 55  1  0
 20 56  1  0
 20 57  1  0
 21 58  1  0
 21 59  1  0
 22 60  1  0
 22 61  1  0
 23 62  1  0
 23 63  1  0
 24 64  1  0
 24 65  1  0
 28 66  1  0
 28 67  1  0
 29 68  1  0
 29 69  1  0
 31 70  1  0
 32 71  1  0
 33 72  1  0
 34 73  1  0
 36 74  1  0
 36 75  1  0
 38 76  1  0
 38 77  1  0
M  END
>  <smiles>  (16) 
c1ccc2c(c1)CCN(c1nc(N[C@H]3CC[C@H](N4CCCC4)CC3)nc(N3CCc4ccccc4C3)n1)C2

>  <score_type>  (16) 
oracle

>  <origin>  (16) 
autodockgpu

>  <m_score__min__energy>  (16) 
-11.02

>  <m_primary>  (16) 
energy

>  <rmsd>  (16) 
7.779012014803786

>  <m_score__min__rmsd>  (16) 
7.779012014803786

>  <meeko>  (16) 
{"free_energy": -9.25, "intermolecular_energy": -10.74, "internal_energy": -2.06, "cluster_size": 32, "cluster_id": 2, "rank_in_cluster": 25}

>  <energy>  (16) 
-9.89

>  <cluster_rmsd>  (16) 
0.83

>  <cluster>  (16) 
2

$$$$

     RDKit          3D

 77 83  0  0  0  0  0  0  0  0999 V2000
  139.9450   80.9300  222.9370 C   0  0  0  0  0  0  0  0  0  0  0  0
  141.1050   80.5090  223.5630 C   0  0  0  0  0  0  0  0  0  0  0  0
  141.4100   79.1670  223.4530 C   0  0  0  0  0  0  0  0  0  0  0  0
  140.6220   78.2740  222.7660 C   0  0  0  0  0  0  0  0  0  0  0  0
  139.4820   78.6970  222.1530 C   0  0  0  0  0  0  0  0  0  0  0  0
  139.1560   80.0350  222.2480 C   0  0  0  0  0  0  0  0  0  0  0  0
  138.6610   77.7040  221.4220 C   0  0  0  0  0  0  0  0  0  0  0  0
  138.6380   76.4600  222.3220 C   0  0  0  0  0  0  0  0  0  0  0  0
  139.9990   75.9620  222.3100 N   0  0  0  0  0  0  0  0  0  0  0  0
  140.3100   74.6430  221.9170 C   0  0  0  0  0  0  0  0  0  0  0  0
  140.9420   74.3500  220.7700 N   0  0  0  0  0  0  0  0  0  0  0  0
  141.2390   73.1100  220.3980 C   0  0  0  0  0  0  0  0  0  0  0  0
  141.9030   72.8010  219.1870 N   0  0  0  0  0  0  0  0  0  0  0  0
  141.7790   73.5480  217.9670 C   0  0  1  0  0  0  0  0  0  0  0  0
  140.7080   74.6120  218.0440 C   0  0  0  0  0  0  0  0  0  0  0  0
  141.2650   75.9870  217.7340 C   0  0  0  0  0  0  0  0  0  0  0  0
  142.2860   76.2910  218.7880 C   0  0  2  0  0  0  0  0  0  0  0  0
  142.6440   77.6300  218.9930 N   0  0  0  0  0  0  0  0  0  0  0  0
  142.9140   78.4830  217.9090 C   0  0  0  0  0  0  0  0  0  0  0  0
  141.6120   79.1270  217.5920 C   0  0  0  0  0  0  0  0  0  0  0  0
  140.9540   79.2190  218.9550 C   0  0  0  0  0  0  0  0  0  0  0  0
  141.8350   78.4090  219.8530 C   0  0  0  0  0  0  0  0  0  0  0  0
  143.4310   75.3380  218.5780 C   0  0  0  0  0  0  0  0  0  0  0  0
  143.0850   74.2060  217.6120 C   0  0  0  0  0  0  0  0  0  0  0  0
  140.8790   72.1070  221.2280 N   0  0  0  0  0  0  0  0  0  0  0  0
  140.2520   72.3340  222.3790 C   0  0  0  0  0  0  0  0  0  0  0  0
  139.8530   71.3070  223.2880 N   0  0  0  0  0  0  0  0  0  0  0  0
  139.1800   70.1070  222.8180 C   0  0  0  0  0  0  0  0  0  0  0  0
  138.3400   69.5340  223.9600 C   0  0  0  0  0  0  0  0  0  0  0  0
  139.2540   69.2220  225.0940 C   0  0  0  0  0  0  0  0  0  0  0  0
  139.2060   68.0160  225.7430 C   0  0  0  0  0  0  0  0  0  0  0  0
  140.0890   67.8110  226.7820 C   0  0  0  0  0  0  0  0  0  0  0  0
  140.9880   68.7930  227.1500 C   0  0  0  0  0  0  0  0  0  0  0  0
  141.0440   70.0270  226.4940 C   0  0  0  0  0  0  0  0  0  0  0  0
  140.1500   70.2290  225.4440 C   0  0  0  0  0  0  0  0  0  0  0  0
  140.1560   71.5210  224.7030 C   0  0  0  0  0  0  0  0  0  0  0  0
  139.9760   73.6060  222.7050 N   0  0  0  0  0  0  0  0  0  0  0  0
  141.0550   76.8640  222.7190 C   0  0  0  0  0  0  0  0  0  0  0  0
  139.6502   81.9884  222.9899 H   0  0  0  0  0  0  0  0  0  0  0  0
  141.7495   81.2062  224.1185 H   0  0  0  0  0  0  0  0  0  0  0  0
  142.3252   78.7953  223.9370 H   0  0  0  0  0  0  0  0  0  0  0  0
  138.2395   80.3972  221.7593 H   0  0  0  0  0  0  0  0  0  0  0  0
  137.6414   78.0863  221.2661 H   0  0  0  0  0  0  0  0  0  0  0  0
  139.0727   77.4834  220.4261 H   0  0  0  0  0  0  0  0  0  0  0  0
  138.3337   76.7283  223.3445 H   0  0  0  0  0  0  0  0  0  0  0  0
  137.9196   75.7066  221.9666 H   0  0  0  0  0  0  0  0  0  0  0  0
  142.5480   71.9600  219.1540 H   0  0  0  0  0  0  0  0  0  0  0  0
  141.4921   72.8231  217.1910 H   0  0  0  0  0  0  0  0  0  0  0  0
  140.2840   74.6190  219.0590 H   0  0  0  0  0  0  0  0  0  0  0  0
  139.9351   74.3772  217.2973 H   0  0  0  0  0  0  0  0  0  0  0  0
  140.4598   76.7360  217.7601 H   0  0  0  0  0  0  0  0  0  0  0  0
  141.7153   76.0123  216.7307 H   0  0  0  0  0  0  0  0  0  0  0  0
  141.8145   76.1232  219.7676 H   0  0  0  0  0  0  0  0  0  0  0  0
  143.6614   79.2398  218.1895 H   0  0  0  0  0  0  0  0  0  0  0  0
  143.3258   77.9377  217.0470 H   0  0  0  0  0  0  0  0  0  0  0  0
  141.7581   80.1247  217.1524 H   0  0  0  0  0  0  0  0  0  0  0  0
  141.0157   78.5723  216.8526 H   0  0  0  0  0  0  0  0  0  0  0  0
  140.9086   80.2642  219.2948 H   0  0  0  0  0  0  0  0  0  0  0  0
  139.9173   78.8513  218.9442 H   0  0  0  0  0  0  0  0  0  0  0  0
  142.4592   79.0680  220.4743 H   0  0  0  0  0  0  0  0  0  0  0  0
  141.2481   77.7803  220.5388 H   0  0  0  0  0  0  0  0  0  0  0  0
  143.7075   74.9004  219.5486 H   0  0  0  0  0  0  0  0  0  0  0  0
  144.2623   75.9085  218.1380 H   0  0  0  0  0  0  0  0  0  0  0  0
  143.8848   73.4516  217.6465 H   0  0  0  0  0  0  0  0  0  0  0  0
  142.9890   74.6345  216.6035 H   0  0  0  0  0  0  0  0  0  0  0  0
  138.5274   70.3577  221.9687 H   0  0  0  0  0  0  0  0  0  0  0  0
  139.9235   69.3648  222.4920 H   0  0  0  0  0  0  0  0  0  0  0  0
  137.5895   70.2727  224.2781 H   0  0  0  0  0  0  0  0  0  0  0  0
  137.8173   68.6242  223.6299 H   0  0  0  0  0  0  0  0  0  0  0  0
  138.4876   67.2381  225.4452 H   0  0  0  0  0  0  0  0  0  0  0  0
  140.0774   66.8540  227.3243 H   0  0  0  0  0  0  0  0  0  0  0  0
  141.6798   68.5989  227.9829 H   0  0  0  0  0  0  0  0  0  0  0  0
  141.7624   70.8043  226.7937 H   0  0  0  0  0  0  0  0  0  0  0  0
  139.3984   72.1899  225.1374 H   0  0  0  0  0  0  0  0  0  0  0  0
  141.1559   71.9718  224.7863 H   0  0  0  0  0  0  0  0  0  0  0  0
  141.3993   76.5693  223.7213 H   0  0  0  0  0  0  0  0  0  0  0  0
  141.8585   76.7910  221.9713 H   0  0  0  0  0  0  0  0  0  0  0  0
  1  2  2  0
  2  3  1  0
  3  4  2  0
  4  5  1  0
  5  6  2  0
  5  7  1  0
  7  8  1  0
  8  9  1  0
  9 10  1  0
 10 11  2  0
 11 12  1  0
 12 13  1  0
 13 14  1  0
 14 15  1  0
 15 16  1  0
 16 17  1  0
 17 18  1  0
 18 19  1  0
 19 20  1  0
 20 21  1  0
 21 22  1  0
 17 23  1  0
 23 24  1  0
 12 25  2  0
 25 26  1  0
 26 27  1  0
 27 28  1  0
 28 29  1  0
 29 30  1  0
 30 31  2  0
 31 32  1  0
 32 33  2  0
 33 34  1  0
 34 35  2  0
 35 36  1  0
 26 37  2  0
  9 38  1  0
  6  1  1  0
 37 10  1  0
 38  4  1  0
 24 14  1  0
 36 27  1  0
 22 18  1  0
 35 30  1  0
  1 39  1  0
  2 40  1  0
  3 41  1  0
  6 42  1  0
  7 43  1  0
  7 44  1  0
  8 45  1  0
  8 46  1  0
 13 47  1  0
 14 48  1  6
 15 49  1  0
 15 50  1  0
 16 51  1  0
 16 52  1  0
 17 53  1  1
 19 54  1  0
 19 55  1  0
 20 56  1  0
 20 57  1  0
 21 58  1  0
 21 59  1  0
 22 60  1  0
 22 61  1  0
 23 62  1  0
 23 63  1  0
 24 64  1  0
 24 65  1  0
 28 66  1  0
 28 67  1  0
 29 68  1  0
 29 69  1  0
 31 70  1  0
 32 71  1  0
 33 72  1  0
 34 73  1  0
 36 74  1  0
 36 75  1  0
 38 76  1  0
 38 77  1  0
M  END
>  <smiles>  (17) 
c1ccc2c(c1)CCN(c1nc(N[C@H]3CC[C@H](N4CCCC4)CC3)nc(N3CCc4ccccc4C3)n1)C2

>  <score_type>  (17) 
oracle

>  <origin>  (17) 
autodockgpu

>  <m_score__min__energy>  (17) 
-11.02

>  <m_primary>  (17) 
energy

>  <rmsd>  (17) 
6.168579618680454

>  <m_score__min__rmsd>  (17) 
6.168579618680454

>  <meeko>  (17) 
{"free_energy": -9.08, "intermolecular_energy": -10.57, "internal_energy": -2.35, "cluster_size": 32, "cluster_id": 2, "rank_in_cluster": 28}

>  <energy>  (17) 
-9.87

>  <cluster_rmsd>  (17) 
0.83

>  <cluster>  (17) 
2

$$$$

     RDKit          3D

 77 83  0  0  0  0  0  0  0  0999 V2000
  145.8560   70.4080  218.4070 C   0  0  0  0  0  0  0  0  0  0  0  0
  145.1390   69.5100  219.1780 C   0  0  0  0  0  0  0  0  0  0  0  0
  144.0740   70.0240  219.8900 C   0  0  0  0  0  0  0  0  0  0  0  0
  143.7220   71.3530  219.8550 C   0  0  0  0  0  0  0  0  0  0  0  0
  144.4330   72.2300  219.0940 C   0  0  0  0  0  0  0  0  0  0  0  0
  145.5030   71.7390  218.3730 C   0  0  0  0  0  0  0  0  0  0  0  0
  144.0230   73.6530  219.0840 C   0  0  0  0  0  0  0  0  0  0  0  0
  143.6940   73.9890  220.5460 C   0  0  0  0  0  0  0  0  0  0  0  0
  142.5060   73.2160  220.8510 N   0  0  0  0  0  0  0  0  0  0  0  0
  141.3210   73.8200  221.3210 C   0  0  0  0  0  0  0  0  0  0  0  0
  140.1970   73.1310  221.5730 N   0  0  0  0  0  0  0  0  0  0  0  0
  139.0810   73.6960  222.0180 C   0  0  0  0  0  0  0  0  0  0  0  0
  137.8950   72.9680  222.2810 N   0  0  0  0  0  0  0  0  0  0  0  0
  137.7760   71.5390  222.2210 C   0  0  1  0  0  0  0  0  0  0  0  0
  139.0530   70.8690  221.7660 C   0  0  0  0  0  0  0  0  0  0  0  0
  139.5400   69.8520  222.7780 C   0  0  0  0  0  0  0  0  0  0  0  0
  139.8450   70.6030  224.0390 C   0  0  2  0  0  0  0  0  0  0  0  0
  140.6910   69.9990  224.9780 N   0  0  0  0  0  0  0  0  0  0  0  0
  141.5390   70.7710  225.7920 C   0  0  0  0  0  0  0  0  0  0  0  0
  140.7520   71.0350  227.0250 C   0  0  0  0  0  0  0  0  0  0  0  0
  139.9130   69.7790  227.1520 C   0  0  0  0  0  0  0  0  0  0  0  0
  140.1310   69.0500  225.8640 C   0  0  0  0  0  0  0  0  0  0  0  0
  138.5340   71.1070  224.5760 C   0  0  0  0  0  0  0  0  0  0  0  0
  137.3940   70.9810  223.5660 C   0  0  0  0  0  0  0  0  0  0  0  0
  139.0960   75.0310  222.2220 N   0  0  0  0  0  0  0  0  0  0  0  0
  140.1790   75.7680  221.9920 C   0  0  0  0  0  0  0  0  0  0  0  0
  140.2420   77.1810  222.1930 N   0  0  0  0  0  0  0  0  0  0  0  0
  139.1310   77.9050  222.7900 C   0  0  0  0  0  0  0  0  0  0  0  0
  139.1790   79.3580  222.3190 C   0  0  0  0  0  0  0  0  0  0  0  0
  140.4830   79.9380  222.7440 C   0  0  0  0  0  0  0  0  0  0  0  0
  140.5560   81.1540  223.3750 C   0  0  0  0  0  0  0  0  0  0  0  0
  141.8040   81.6150  223.7350 C   0  0  0  0  0  0  0  0  0  0  0  0
  142.9370   80.8730  223.4670 C   0  0  0  0  0  0  0  0  0  0  0  0
  142.8730   79.6320  222.8250 C   0  0  0  0  0  0  0  0  0  0  0  0
  141.6090   79.1700  222.4630 C   0  0  0  0  0  0  0  0  0  0  0  0
  141.4700   77.8550  221.7750 C   0  0  0  0  0  0  0  0  0  0  0  0
  141.2790   75.1470  221.5420 N   0  0  0  0  0  0  0  0  0  0  0  0
  142.5620   71.7820  220.6600 C   0  0  0  0  0  0  0  0  0  0  0  0
  146.7148   70.0561  217.8165 H   0  0  0  0  0  0  0  0  0  0  0  0
  145.4037   68.4432  219.2212 H   0  0  0  0  0  0  0  0  0  0  0  0
  143.4800   69.3397  220.5136 H   0  0  0  0  0  0  0  0  0  0  0  0
  146.0913   72.4314  217.7528 H   0  0  0  0  0  0  0  0  0  0  0  0
  144.8432   74.2879  218.7177 H   0  0  0  0  0  0  0  0  0  0  0  0
  143.1643   73.8282  218.4192 H   0  0  0  0  0  0  0  0  0  0  0  0
  144.5246   73.6978  221.2059 H   0  0  0  0  0  0  0  0  0  0  0  0
  143.5351   75.0670  220.6963 H   0  0  0  0  0  0  0  0  0  0  0  0
  137.0150   73.4980  222.5460 H   0  0  0  0  0  0  0  0  0  0  0  0
  136.9902   71.3268  221.4810 H   0  0  0  0  0  0  0  0  0  0  0  0
  139.8293   71.6361  221.6287 H   0  0  0  0  0  0  0  0  0  0  0  0
  138.8485   70.3439  220.8213 H   0  0  0  0  0  0  0  0  0  0  0  0
  140.4471   69.3531  222.4062 H   0  0  0  0  0  0  0  0  0  0  0  0
  138.7788   69.0779  222.9554 H   0  0  0  0  0  0  0  0  0  0  0  0
  140.5071   71.4415  223.7774 H   0  0  0  0  0  0  0  0  0  0  0  0
  142.4573   70.2147  226.0311 H   0  0  0  0  0  0  0  0  0  0  0  0
  141.8545   71.7007  225.2959 H   0  0  0  0  0  0  0  0  0  0  0  0
  141.4101   71.1636  227.8970 H   0  0  0  0  0  0  0  0  0  0  0  0
  140.1559   71.9582  226.9762 H   0  0  0  0  0  0  0  0  0  0  0  0
  140.2500   69.1710  228.0045 H   0  0  0  0  0  0  0  0  0  0  0  0
  138.8509   70.0022  227.3313 H   0  0  0  0  0  0  0  0  0  0  0  0
  140.8233   68.2081  226.0121 H   0  0  0  0  0  0  0  0  0  0  0  0
  139.1931   68.6309  225.4706 H   0  0  0  0  0  0  0  0  0  0  0  0
  138.6489   72.1671  224.8463 H   0  0  0  0  0  0  0  0  0  0  0  0
  138.2737   70.4900  225.4487 H   0  0  0  0  0  0  0  0  0  0  0  0
  136.5200   71.5312  223.9448 H   0  0  0  0  0  0  0  0  0  0  0  0
  137.1641   69.9126  223.4407 H   0  0  0  0  0  0  0  0  0  0  0  0
  138.1810   77.4466  222.4781 H   0  0  0  0  0  0  0  0  0  0  0  0
  139.2057   77.8653  223.8867 H   0  0  0  0  0  0  0  0  0  0  0  0
  139.0923   79.3980  221.2231 H   0  0  0  0  0  0  0  0  0  0  0  0
  138.3467   79.9287  222.7567 H   0  0  0  0  0  0  0  0  0  0  0  0
  139.6499   81.7408  223.5863 H   0  0  0  0  0  0  0  0  0  0  0  0
  141.8985   82.5864  224.2423 H   0  0  0  0  0  0  0  0  0  0  0  0
  143.9183   81.2692  223.7670 H   0  0  0  0  0  0  0  0  0  0  0  0
  143.7803   79.0465  222.6151 H   0  0  0  0  0  0  0  0  0  0  0  0
  141.4405   78.0177  220.6875 H   0  0  0  0  0  0  0  0  0  0  0  0
  142.3294   77.2229  222.0429 H   0  0  0  0  0  0  0  0  0  0  0  0
  142.6218   71.2989  221.6465 H   0  0  0  0  0  0  0  0  0  0  0  0
  141.6544   71.4869  220.1130 H   0  0  0  0  0  0  0  0  0  0  0  0
  1  2  2  0
  2  3  1  0
  3  4  2  0
  4  5  1  0
  5  6  2  0
  5  7  1  0
  7  8  1  0
  8  9  1  0
  9 10  1  0
 10 11  2  0
 11 12  1  0
 12 13  1  0
 13 14  1  0
 14 15  1  0
 15 16  1  0
 16 17  1  0
 17 18  1  0
 18 19  1  0
 19 20  1  0
 20 21  1  0
 21 22  1  0
 17 23  1  0
 23 24  1  0
 12 25  2  0
 25 26  1  0
 26 27  1  0
 27 28  1  0
 28 29  1  0
 29 30  1  0
 30 31  2  0
 31 32  1  0
 32 33  2  0
 33 34  1  0
 34 35  2  0
 35 36  1  0
 26 37  2  0
  9 38  1  0
  6  1  1  0
 37 10  1  0
 38  4  1  0
 24 14  1  0
 36 27  1  0
 22 18  1  0
 35 30  1  0
  1 39  1  0
  2 40  1  0
  3 41  1  0
  6 42  1  0
  7 43  1  0
  7 44  1  0
  8 45  1  0
  8 46  1  0
 13 47  1  0
 14 48  1  6
 15 49  1  0
 15 50  1  0
 16 51  1  0
 16 52  1  0
 17 53  1  6
 19 54  1  0
 19 55  1  0
 20 56  1  0
 20 57  1  0
 21 58  1  0
 21 59  1  0
 22 60  1  0
 22 61  1  0
 23 62  1  0
 23 63  1  0
 24 64  1  0
 24 65  1  0
 28 66  1  0
 28 67  1  0
 29 68  1  0
 29 69  1  0
 31 70  1  0
 32 71  1  0
 33 72  1  0
 34 73  1  0
 36 74  1  0
 36 75  1  0
 38 76  1  0
 38 77  1  0
M  END
>  <smiles>  (18) 
c1ccc2c(c1)CCN(c1nc(N[C@H]3CC[C@H](N4CCCC4)CC3)nc(N3CCc4ccccc4C3)n1)C2

>  <score_type>  (18) 
oracle

>  <origin>  (18) 
autodockgpu

>  <m_score__min__energy>  (18) 
-11.02

>  <m_primary>  (18) 
energy

>  <rmsd>  (18) 
10.764306784151977

>  <m_score__min__rmsd>  (18) 
10.764306784151977

>  <meeko>  (18) 
{"free_energy": -10.0, "intermolecular_energy": -11.49, "internal_energy": -1.24, "cluster_size": 7, "cluster_id": 1, "rank_in_cluster": 7}

>  <energy>  (18) 
-9.8

>  <cluster_rmsd>  (18) 
1.84

>  <cluster>  (18) 
2

$$$$

     RDKit          3D

 77 83  0  0  0  0  0  0  0  0999 V2000
  140.1160   80.4610  222.1840 C   0  0  0  0  0  0  0  0  0  0  0  0
  141.2630   80.0530  222.8410 C   0  0  0  0  0  0  0  0  0  0  0  0
  141.5100   78.6960  222.8620 C   0  0  0  0  0  0  0  0  0  0  0  0
  140.6770   77.7740  222.2720 C   0  0  0  0  0  0  0  0  0  0  0  0
  139.5500   78.1830  221.6270 C   0  0  0  0  0  0  0  0  0  0  0  0
  139.2820   79.5370  221.5920 C   0  0  0  0  0  0  0  0  0  0  0  0
  138.6790   77.1600  221.0040 C   0  0  0  0  0  0  0  0  0  0  0  0
  138.6130   76.0120  222.0230 C   0  0  0  0  0  0  0  0  0  0  0  0
  139.9510   75.4570  222.0500 N   0  0  0  0  0  0  0  0  0  0  0  0
  140.2020   74.0940  221.7870 C   0  0  0  0  0  0  0  0  0  0  0  0
  140.6850   73.6500  220.6170 N   0  0  0  0  0  0  0  0  0  0  0  0
  140.9250   72.3680  220.3680 C   0  0  0  0  0  0  0  0  0  0  0  0
  141.4330   71.9000  219.1310 N   0  0  0  0  0  0  0  0  0  0  0  0
  142.7860   72.0660  218.6820 C   0  0  1  0  0  0  0  0  0  0  0  0
  142.8760   72.8220  217.3760 C   0  0  0  0  0  0  0  0  0  0  0  0
  143.7530   74.0510  217.5030 C   0  0  0  0  0  0  0  0  0  0  0  0
  143.0990   74.9520  218.5070 C   0  0  2  0  0  0  0  0  0  0  0  0
  143.4530   76.3080  218.5060 N   0  0  0  0  0  0  0  0  0  0  0  0
  143.3030   77.0960  217.3510 C   0  0  0  0  0  0  0  0  0  0  0  0
  141.9480   77.6950  217.4670 C   0  0  0  0  0  0  0  0  0  0  0  0
  141.7910   77.8600  218.9650 C   0  0  0  0  0  0  0  0  0  0  0  0
  142.9570   77.1240  219.5480 C   0  0  0  0  0  0  0  0  0  0  0  0
  143.1840   74.2590  219.8390 C   0  0  0  0  0  0  0  0  0  0  0  0
  143.6020   72.7950  219.7160 C   0  0  0  0  0  0  0  0  0  0  0  0
  140.6630   71.4810  221.3520 N   0  0  0  0  0  0  0  0  0  0  0  0
  140.1840   71.8600  222.5340 C   0  0  0  0  0  0  0  0  0  0  0  0
  139.8940   70.9590  223.6040 N   0  0  0  0  0  0  0  0  0  0  0  0
  139.5010   69.5830  223.3430 C   0  0  0  0  0  0  0  0  0  0  0  0
  138.6730   69.0750  224.5230 C   0  0  0  0  0  0  0  0  0  0  0  0
  139.5110   69.1660  225.7500 C   0  0  0  0  0  0  0  0  0  0  0  0
  139.6220   68.1150  226.6230 C   0  0  0  0  0  0  0  0  0  0  0  0
  140.4210   68.2860  227.7340 C   0  0  0  0  0  0  0  0  0  0  0  0
  141.0830   69.4780  227.9530 C   0  0  0  0  0  0  0  0  0  0  0  0
  140.9770   70.5550  227.0670 C   0  0  0  0  0  0  0  0  0  0  0  0
  140.1680   70.3780  225.9460 C   0  0  0  0  0  0  0  0  0  0  0  0
  140.0110   71.4870  224.9630 C   0  0  0  0  0  0  0  0  0  0  0  0
  139.9600   73.1670  222.7330 N   0  0  0  0  0  0  0  0  0  0  0  0
  141.0500   76.3490  222.3620 C   0  0  0  0  0  0  0  0  0  0  0  0
  139.8675   81.5314  222.1336 H   0  0  0  0  0  0  0  0  0  0  0  0
  141.9422   80.7727  223.3213 H   0  0  0  0  0  0  0  0  0  0  0  0
  142.4142   78.3348  223.3738 H   0  0  0  0  0  0  0  0  0  0  0  0
  138.3762   79.8887  221.0764 H   0  0  0  0  0  0  0  0  0  0  0  0
  137.6750   77.5694  220.8186 H   0  0  0  0  0  0  0  0  0  0  0  0
  139.0694   76.8247  220.0318 H   0  0  0  0  0  0  0  0  0  0  0  0
  138.3321   76.3923  223.0162 H   0  0  0  0  0  0  0  0  0  0  0  0
  137.8590   75.2593  221.7491 H   0  0  0  0  0  0  0  0  0  0  0  0
  140.7830   71.3830  218.4710 H   0  0  0  0  0  0  0  0  0  0  0  0
  143.1839   71.0528  218.5237 H   0  0  0  0  0  0  0  0  0  0  0  0
  141.8655   73.1341  217.0737 H   0  0  0  0  0  0  0  0  0  0  0  0
  143.3230   72.1564  216.6229 H   0  0  0  0  0  0  0  0  0  0  0  0
  143.8317   74.5613  216.5317 H   0  0  0  0  0  0  0  0  0  0  0  0
  144.7693   73.7776  217.8230 H   0  0  0  0  0  0  0  0  0  0  0  0
  142.0499   75.0846  218.2040 H   0  0  0  0  0  0  0  0  0  0  0  0
  144.0716   77.8822  217.3169 H   0  0  0  0  0  0  0  0  0  0  0  0
  143.4159   76.5049  216.4302 H   0  0  0  0  0  0  0  0  0  0  0  0
  141.8969   78.6659  216.9524 H   0  0  0  0  0  0  0  0  0  0  0  0
  141.1571   77.0841  217.0073 H   0  0  0  0  0  0  0  0  0  0  0  0
  141.8235   78.9234  219.2444 H   0  0  0  0  0  0  0  0  0  0  0  0
  140.8279   77.4733  219.3295 H   0  0  0  0  0  0  0  0  0  0  0  0
  143.7298   77.8322  219.8817 H   0  0  0  0  0  0  0  0  0  0  0  0
  142.6643   76.5291  220.4257 H   0  0  0  0  0  0  0  0  0  0  0  0
  142.1970   74.3038  220.3226 H   0  0  0  0  0  0  0  0  0  0  0  0
  143.9521   74.7751  220.4337 H   0  0  0  0  0  0  0  0  0  0  0  0
  143.4649   72.3025  220.6900 H   0  0  0  0  0  0  0  0  0  0  0  0
  144.6561   72.7653  219.4031 H   0  0  0  0  0  0  0  0  0  0  0  0
  138.8997   69.5384  222.4230 H   0  0  0  0  0  0  0  0  0  0  0  0
  140.3961   68.9561  223.2171 H   0  0  0  0  0  0  0  0  0  0  0  0
  137.7718   69.6948  224.6403 H   0  0  0  0  0  0  0  0  0  0  0  0
  138.3625   68.0340  224.3502 H   0  0  0  0  0  0  0  0  0  0  0  0
  139.0921   67.1679  226.4436 H   0  0  0  0  0  0  0  0  0  0  0  0
  140.5324   67.4625  228.4548 H   0  0  0  0  0  0  0  0  0  0  0  0
  141.7114   69.5834  228.8496 H   0  0  0  0  0  0  0  0  0  0  0  0
  141.5091   71.5007  227.2471 H   0  0  0  0  0  0  0  0  0  0  0  0
  139.1046   72.0605  225.2071 H   0  0  0  0  0  0  0  0  0  0  0  0
  140.8980   72.1354  225.0159 H   0  0  0  0  0  0  0  0  0  0  0  0
  141.3918   76.1398  223.3864 H   0  0  0  0  0  0  0  0  0  0  0  0
  141.8424   76.1680  221.6208 H   0  0  0  0  0  0  0  0  0  0  0  0
  1  2  2  0
  2  3  1  0
  3  4  2  0
  4  5  1  0
  5  6  2  0
  5  7  1  0
  7  8  1  0
  8  9  1  0
  9 10  1  0
 10 11  2  0
 11 12  1  0
 12 13  1  0
 13 14  1  0
 14 15  1  0
 15 16  1  0
 16 17  1  0
 17 18  1  0
 18 19  1  0
 19 20  1  0
 20 21  1  0
 21 22  1  0
 17 23  1  0
 23 24  1  0
 12 25  2  0
 25 26  1  0
 26 27  1  0
 27 28  1  0
 28 29  1  0
 29 30  1  0
 30 31  2  0
 31 32  1  0
 32 33  2  0
 33 34  1  0
 34 35  2  0
 35 36  1  0
 26 37  2  0
  9 38  1  0
  6  1  1  0
 37 10  1  0
 38  4  1  0
 24 14  1  0
 36 27  1  0
 22 18  1  0
 35 30  1  0
  1 39  1  0
  2 40  1  0
  3 41  1  0
  6 42  1  0
  7 43  1  0
  7 44  1  0
  8 45  1  0
  8 46  1  0
 13 47  1  0
 14 48  1  6
 15 49  1  0
 15 50  1  0
 16 51  1  0
 16 52  1  0
 17 53  1  6
 19 54  1  0
 19 55  1  0
 20 56  1  0
 20 57  1  0
 21 58  1  0
 21 59  1  0
 22 60  1  0
 22 61  1  0
 23 62  1  0
 23 63  1  0
 24 64  1  0
 24 65  1  0
 28 66  1  0
 28 67  1  0
 29 68  1  0
 29 69  1  0
 31 70  1  0
 32 71  1  0
 33 72  1  0
 34 73  1  0
 36 74  1  0
 36 75  1  0
 38 76  1  0
 38 77  1  0
M  END
>  <smiles>  (19) 
c1ccc2c(c1)CCN(c1nc(N[C@H]3CC[C@H](N4CCCC4)CC3)nc(N3CCc4ccccc4C3)n1)C2

>  <score_type>  (19) 
oracle

>  <origin>  (19) 
autodockgpu

>  <m_score__min__energy>  (19) 
-11.02

>  <m_primary>  (19) 
energy

>  <rmsd>  (19) 
7.082638222935671

>  <m_score__min__rmsd>  (19) 
7.082638222935671

>  <meeko>  (19) 
{"free_energy": -9.23, "intermolecular_energy": -10.72, "internal_energy": -2.13, "cluster_size": 32, "cluster_id": 2, "rank_in_cluster": 26}

>  <energy>  (19) 
-9.6

>  <cluster_rmsd>  (19) 
1.65

>  <cluster>  (19) 
2

$$$$

     RDKit          3D

 77 83  0  0  0  0  0  0  0  0999 V2000
  139.8310   80.9540  222.9970 C   0  0  0  0  0  0  0  0  0  0  0  0
  141.0540   80.5740  223.5180 C   0  0  0  0  0  0  0  0  0  0  0  0
  141.3930   79.2420  223.3830 C   0  0  0  0  0  0  0  0  0  0  0  0
  140.5770   78.3210  222.7680 C   0  0  0  0  0  0  0  0  0  0  0  0
  139.3740   78.7040  222.2580 C   0  0  0  0  0  0  0  0  0  0  0  0
  139.0140   80.0300  222.3810 C   0  0  0  0  0  0  0  0  0  0  0  0
  138.5250   77.6820  221.6040 C   0  0  0  0  0  0  0  0  0  0  0  0
  138.6230   76.4400  222.5040 C   0  0  0  0  0  0  0  0  0  0  0  0
  139.9930   75.9880  222.3710 N   0  0  0  0  0  0  0  0  0  0  0  0
  140.3120   74.6780  221.9520 C   0  0  0  0  0  0  0  0  0  0  0  0
  140.9530   74.4120  220.8040 N   0  0  0  0  0  0  0  0  0  0  0  0
  141.2570   73.1810  220.4100 C   0  0  0  0  0  0  0  0  0  0  0  0
  141.9320   72.9000  219.1960 N   0  0  0  0  0  0  0  0  0  0  0  0
  141.8090   73.6680  217.9900 C   0  0  1  0  0  0  0  0  0  0  0  0
  140.6540   74.6420  218.0360 C   0  0  0  0  0  0  0  0  0  0  0  0
  141.1130   76.0640  217.7890 C   0  0  0  0  0  0  0  0  0  0  0  0
  142.0530   76.4190  218.9020 C   0  0  2  0  0  0  0  0  0  0  0  0
  142.2910   77.7750  219.1570 N   0  0  0  0  0  0  0  0  0  0  0  0
  142.9410   78.5880  218.2120 C   0  0  0  0  0  0  0  0  0  0  0  0
  141.8480   79.1780  217.3950 C   0  0  0  0  0  0  0  0  0  0  0  0
  140.7220   79.3090  218.4020 C   0  0  0  0  0  0  0  0  0  0  0  0
  141.2080   78.5670  219.6070 C   0  0  0  0  0  0  0  0  0  0  0  0
  143.2790   75.5650  218.7300 C   0  0  0  0  0  0  0  0  0  0  0  0
  143.0750   74.4370  217.7200 C   0  0  0  0  0  0  0  0  0  0  0  0
  140.8950   72.1600  221.2160 N   0  0  0  0  0  0  0  0  0  0  0  0
  140.2580   72.3600  222.3660 C   0  0  0  0  0  0  0  0  0  0  0  0
  139.8570   71.3130  223.2500 N   0  0  0  0  0  0  0  0  0  0  0  0
  139.2060   70.1130  222.7490 C   0  0  0  0  0  0  0  0  0  0  0  0
  138.3540   69.5110  223.8650 C   0  0  0  0  0  0  0  0  0  0  0  0
  139.2510   69.1910  225.0090 C   0  0  0  0  0  0  0  0  0  0  0  0
  139.2060   67.9720  225.6370 C   0  0  0  0  0  0  0  0  0  0  0  0
  140.0740   67.7600  226.6870 C   0  0  0  0  0  0  0  0  0  0  0  0
  140.9540   68.7460  227.0880 C   0  0  0  0  0  0  0  0  0  0  0  0
  141.0070   69.9910  226.4540 C   0  0  0  0  0  0  0  0  0  0  0  0
  140.1290   70.2010  225.3920 C   0  0  0  0  0  0  0  0  0  0  0  0
  140.1320   71.5060  224.6740 C   0  0  0  0  0  0  0  0  0  0  0  0
  139.9750   73.6240  222.7170 N   0  0  0  0  0  0  0  0  0  0  0  0
  141.0510   76.9260  222.6840 C   0  0  0  0  0  0  0  0  0  0  0  0
  139.5071   82.0024  223.0746 H   0  0  0  0  0  0  0  0  0  0  0  0
  141.7215   81.2942  224.0137 H   0  0  0  0  0  0  0  0  0  0  0  0
  142.3588   78.9023  223.7853 H   0  0  0  0  0  0  0  0  0  0  0  0
  138.0462   80.3600  221.9755 H   0  0  0  0  0  0  0  0  0  0  0  0
  137.4835   78.0300  221.5390 H   0  0  0  0  0  0  0  0  0  0  0  0
  138.8540   77.4713  220.5757 H   0  0  0  0  0  0  0  0  0  0  0  0
  138.4019   76.7016  223.5493 H   0  0  0  0  0  0  0  0  0  0  0  0
  137.9012   75.6620  222.2147 H   0  0  0  0  0  0  0  0  0  0  0  0
  142.5830   72.0640  219.1530 H   0  0  0  0  0  0  0  0  0  0  0  0
  141.6195   72.9447  217.1832 H   0  0  0  0  0  0  0  0  0  0  0  0
  140.1801   74.5870  219.0271 H   0  0  0  0  0  0  0  0  0  0  0  0
  139.9416   74.3682  217.2439 H   0  0  0  0  0  0  0  0  0  0  0  0
  140.2497   76.7457  217.7913 H   0  0  0  0  0  0  0  0  0  0  0  0
  141.6096   76.1528  216.8115 H   0  0  0  0  0  0  0  0  0  0  0  0
  141.5485   76.1882  219.8518 H   0  0  0  0  0  0  0  0  0  0  0  0
  143.5183   79.3784  218.7140 H   0  0  0  0  0  0  0  0  0  0  0  0
  143.6543   78.0185  217.5981 H   0  0  0  0  0  0  0  0  0  0  0  0
  142.1378   80.1598  216.9924 H   0  0  0  0  0  0  0  0  0  0  0  0
  141.5822   78.5738  216.5151 H   0  0  0  0  0  0  0  0  0  0  0  0
  140.5383   80.3661  218.6444 H   0  0  0  0  0  0  0  0  0  0  0  0
  139.7711   78.9090  218.0202 H   0  0  0  0  0  0  0  0  0  0  0  0
  141.5440   79.2718  220.3819 H   0  0  0  0  0  0  0  0  0  0  0  0
  140.4128   77.9520  220.0536 H   0  0  0  0  0  0  0  0  0  0  0  0
  143.5394   75.1232  219.7031 H   0  0  0  0  0  0  0  0  0  0  0  0
  144.0832   76.2113  218.3483 H   0  0  0  0  0  0  0  0  0  0  0  0
  143.9300   73.7474  217.7786 H   0  0  0  0  0  0  0  0  0  0  0  0
  142.9965   74.8846  216.7182 H   0  0  0  0  0  0  0  0  0  0  0  0
  138.5651   70.3704  221.8928 H   0  0  0  0  0  0  0  0  0  0  0  0
  139.9641   69.3851  222.4243 H   0  0  0  0  0  0  0  0  0  0  0  0
  137.5889   70.2350  224.1821 H   0  0  0  0  0  0  0  0  0  0  0  0
  137.8486   68.6006  223.5103 H   0  0  0  0  0  0  0  0  0  0  0  0
  138.5019   67.1910  225.3140 H   0  0  0  0  0  0  0  0  0  0  0  0
  140.0655   66.7934  227.2119 H   0  0  0  0  0  0  0  0  0  0  0  0
  141.6326   68.5461  227.9303 H   0  0  0  0  0  0  0  0  0  0  0  0
  141.7111   70.7710  226.7792 H   0  0  0  0  0  0  0  0  0  0  0  0
  139.3584   72.1578  225.1061 H   0  0  0  0  0  0  0  0  0  0  0  0
  141.1244   71.9677  224.7833 H   0  0  0  0  0  0  0  0  0  0  0  0
  141.4924   76.6466  223.6521 H   0  0  0  0  0  0  0  0  0  0  0  0
  141.7872   76.8766  221.8682 H   0  0  0  0  0  0  0  0  0  0  0  0
  1  2  2  0
  2  3  1  0
  3  4  2  0
  4  5  1  0
  5  6  2  0
  5  7  1  0
  7  8  1  0
  8  9  1  0
  9 10  1  0
 10 11  2  0
 11 12  1  0
 12 13  1  0
 13 14  1  0
 14 15  1  0
 15 16  1  0
 16 17  1  0
 17 18  1  0
 18 19  1  0
 19 20  1  0
 20 21  1  0
 21 22  1  0
 17 23  1  0
 23 24  1  0
 12 25  2  0
 25 26  1  0
 26 27  1  0
 27 28  1  0
 28 29  1  0
 29 30  1  0
 30 31  2  0
 31 32  1  0
 32 33  2  0
 33 34  1  0
 34 35  2  0
 35 36  1  0
 26 37  2  0
  9 38  1  0
  6  1  1  0
 37 10  1  0
 38  4  1  0
 24 14  1  0
 36 27  1  0
 22 18  1  0
 35 30  1  0
  1 39  1  0
  2 40  1  0
  3 41  1  0
  6 42  1  0
  7 43  1  0
  7 44  1  0
  8 45  1  0
  8 46  1  0
 13 47  1  0
 14 48  1  6
 15 49  1  0
 15 50  1  0
 16 51  1  0
 16 52  1  0
 17 53  1  1
 19 54  1  0
 19 55  1  0
 20 56  1  0
 20 57  1  0
 21 58  1  0
 21 59  1  0
 22 60  1  0
 22 61  1  0
 23 62  1  0
 23 63  1  0
 24 64  1  0
 24 65  1  0
 28 66  1  0
 28 67  1  0
 29 68  1  0
 29 69  1  0
 31 70  1  0
 32 71  1  0
 33 72  1  0
 34 73  1  0
 36 74  1  0
 36 75  1  0
 38 76  1  0
 38 77  1  0
M  END
>  <smiles>  (20) 
c1ccc2c(c1)CCN(c1nc(N[C@H]3CC[C@H](N4CCCC4)CC3)nc(N3CCc4ccccc4C3)n1)C2

>  <score_type>  (20) 
oracle

>  <origin>  (20) 
autodockgpu

>  <m_score__min__energy>  (20) 
-11.02

>  <m_primary>  (20) 
energy

>  <rmsd>  (20) 
6.047093407852744

>  <m_score__min__rmsd>  (20) 
6.047093407852744

>  <meeko>  (20) 
{"free_energy": -8.96, "intermolecular_energy": -10.45, "internal_energy": -2.38, "cluster_size": 32, "cluster_id": 2, "rank_in_cluster": 30}

>  <energy>  (20) 
-9.57

>  <cluster_rmsd>  (20) 
1.75

>  <cluster>  (20) 
2

$$$$

     RDKit          3D

 77 83  0  0  0  0  0  0  0  0999 V2000
  132.7350   72.6270  227.2200 C   0  0  0  0  0  0  0  0  0  0  0  0
  133.4980   71.7600  226.4580 C   0  0  0  0  0  0  0  0  0  0  0  0
  134.3240   72.3360  225.5140 C   0  0  0  0  0  0  0  0  0  0  0  0
  134.4060   73.6950  225.3200 C   0  0  0  0  0  0  0  0  0  0  0  0
  133.6520   74.5410  226.0750 C   0  0  0  0  0  0  0  0  0  0  0  0
  132.8180   73.9890  227.0250 C   0  0  0  0  0  0  0  0  0  0  0  0
  133.7690   75.9980  225.8350 C   0  0  0  0  0  0  0  0  0  0  0  0
  133.8090   76.1540  224.3070 C   0  0  0  0  0  0  0  0  0  0  0  0
  135.0700   75.5650  223.9030 N   0  0  0  0  0  0  0  0  0  0  0  0
  136.0310   76.2860  223.1640 C   0  0  0  0  0  0  0  0  0  0  0  0
  135.8530   77.5590  222.7770 N   0  0  0  0  0  0  0  0  0  0  0  0
  136.7570   78.2420  222.0840 C   0  0  0  0  0  0  0  0  0  0  0  0
  136.5680   79.5840  221.6740 N   0  0  0  0  0  0  0  0  0  0  0  0
  136.8710   80.7380  222.4720 C   0  0  1  0  0  0  0  0  0  0  0  0
  137.1720   80.3870  223.9110 C   0  0  0  0  0  0  0  0  0  0  0  0
  138.5360   80.8920  224.3350 C   0  0  0  0  0  0  0  0  0  0  0  0
  139.5460   80.1950  223.4740 C   0  0  2  0  0  0  0  0  0  0  0  0
  140.8740   80.1490  223.9200 N   0  0  0  0  0  0  0  0  0  0  0  0
  141.6310   78.9690  223.8240 C   0  0  0  0  0  0  0  0  0  0  0  0
  142.3250   79.0620  222.5120 C   0  0  0  0  0  0  0  0  0  0  0  0
  142.5510   80.5540  222.3690 C   0  0  0  0  0  0  0  0  0  0  0  0
  141.7570   81.1630  223.4820 C   0  0  0  0  0  0  0  0  0  0  0  0
  139.3500   80.6990  222.0710 C   0  0  0  0  0  0  0  0  0  0  0  0
  138.0490   81.4820  221.9030 C   0  0  0  0  0  0  0  0  0  0  0  0
  137.9050   77.6080  221.7610 N   0  0  0  0  0  0  0  0  0  0  0  0
  138.1390   76.3480  222.1160 C   0  0  0  0  0  0  0  0  0  0  0  0
  139.3380   75.6380  221.7980 N   0  0  0  0  0  0  0  0  0  0  0  0
  139.3220   74.2020  221.5660 C   0  0  0  0  0  0  0  0  0  0  0  0
  140.7060   73.6370  221.8810 C   0  0  0  0  0  0  0  0  0  0  0  0
  141.6930   74.3090  220.9910 C   0  0  0  0  0  0  0  0  0  0  0  0
  142.6250   73.5940  220.2840 C   0  0  0  0  0  0  0  0  0  0  0  0
  143.4990   74.2970  219.4820 C   0  0  0  0  0  0  0  0  0  0  0  0
  143.4330   75.6740  219.4000 C   0  0  0  0  0  0  0  0  0  0  0  0
  142.4850   76.4110  220.1170 C   0  0  0  0  0  0  0  0  0  0  0  0
  141.6030   75.6970  220.9260 C   0  0  0  0  0  0  0  0  0  0  0  0
  140.5700   76.4220  221.7170 C   0  0  0  0  0  0  0  0  0  0  0  0
  137.1930   75.7050  222.8150 N   0  0  0  0  0  0  0  0  0  0  0  0
  135.3290   74.1900  224.2800 C   0  0  0  0  0  0  0  0  0  0  0  0
  132.0567   72.2261  227.9876 H   0  0  0  0  0  0  0  0  0  0  0  0
  133.4489   70.6699  226.5971 H   0  0  0  0  0  0  0  0  0  0  0  0
  134.9450   71.6780  224.8884 H   0  0  0  0  0  0  0  0  0  0  0  0
  132.2008   74.6555  227.6454 H   0  0  0  0  0  0  0  0  0  0  0  0
  132.9014   76.5286  226.2541 H   0  0  0  0  0  0  0  0  0  0  0  0
  134.6632   76.4226  226.3146 H   0  0  0  0  0  0  0  0  0  0  0  0
  132.9667   75.6211  223.8417 H   0  0  0  0  0  0  0  0  0  0  0  0
  133.7260   77.2060  223.9967 H   0  0  0  0  0  0  0  0  0  0  0  0
  136.1750   79.7760  220.7070 H   0  0  0  0  0  0  0  0  0  0  0  0
  135.9713   81.3705  222.4510 H   0  0  0  0  0  0  0  0  0  0  0  0
  137.1452   79.2932  224.0247 H   0  0  0  0  0  0  0  0  0  0  0  0
  136.4143   80.8670  224.5478 H   0  0  0  0  0  0  0  0  0  0  0  0
  138.7144   80.6553  225.3943 H   0  0  0  0  0  0  0  0  0  0  0  0
  138.6054   81.9835  224.2178 H   0  0  0  0  0  0  0  0  0  0  0  0
  139.3443   79.1152  223.5310 H   0  0  0  0  0  0  0  0  0  0  0  0
  142.3615   78.9106  224.6444 H   0  0  0  0  0  0  0  0  0  0  0  0
  141.0032   78.0686  223.8962 H   0  0  0  0  0  0  0  0  0  0  0  0
  143.2790   78.5145  222.5266 H   0  0  0  0  0  0  0  0  0  0  0  0
  141.7546   78.6220  221.6807 H   0  0  0  0  0  0  0  0  0  0  0  0
  143.6185   80.7972  222.4749 H   0  0  0  0  0  0  0  0  0  0  0  0
  142.2437   80.9304  221.3821 H   0  0  0  0  0  0  0  0  0  0  0  0
  142.4213   81.4738  224.3018 H   0  0  0  0  0  0  0  0  0  0  0  0
  141.2134   82.0599  223.1501 H   0  0  0  0  0  0  0  0  0  0  0  0
  139.3335   79.8379  221.3867 H   0  0  0  0  0  0  0  0  0  0  0  0
  140.1813   81.3827  221.8440 H   0  0  0  0  0  0  0  0  0  0  0  0
  137.8751   81.6577  220.8311 H   0  0  0  0  0  0  0  0  0  0  0  0
  138.1490   82.4320  222.4484 H   0  0  0  0  0  0  0  0  0  0  0  0
  138.5728   73.7303  222.2188 H   0  0  0  0  0  0  0  0  0  0  0  0
  139.0641   73.9958  220.5167 H   0  0  0  0  0  0  0  0  0  0  0  0
  140.9584   73.8336  222.9334 H   0  0  0  0  0  0  0  0  0  0  0  0
  140.7209   72.5498  221.7147 H   0  0  0  0  0  0  0  0  0  0  0  0
  142.6739   72.4973  220.3541 H   0  0  0  0  0  0  0  0  0  0  0  0
  144.2584   73.7541  218.9001 H   0  0  0  0  0  0  0  0  0  0  0  0
  144.1459   76.2059  218.7528 H   0  0  0  0  0  0  0  0  0  0  0  0
  142.4376   77.5076  220.0454 H   0  0  0  0  0  0  0  0  0  0  0  0
  140.9522   76.6004  222.7329 H   0  0  0  0  0  0  0  0  0  0  0  0
  140.3494   77.3779  221.2195 H   0  0  0  0  0  0  0  0  0  0  0  0
  135.2243   73.5558  223.3873 H   0  0  0  0  0  0  0  0  0  0  0  0
  136.3467   74.1482  224.6954 H   0  0  0  0  0  0  0  0  0  0  0  0
  1  2  2  0
  2  3  1  0
  3  4  2  0
  4  5  1  0
  5  6  2  0
  5  7  1  0
  7  8  1  0
  8  9  1  0
  9 10  1  0
 10 11  2  0
 11 12  1  0
 12 13  1  0
 13 14  1  0
 14 15  1  0
 15 16  1  0
 16 17  1  0
 17 18  1  0
 18 19  1  0
 19 20  1  0
 20 21  1  0
 21 22  1  0
 17 23  1  0
 23 24  1  0
 12 25  2  0
 25 26  1  0
 26 27  1  0
 27 28  1  0
 28 29  1  0
 29 30  1  0
 30 31  2  0
 31 32  1  0
 32 33  2  0
 33 34  1  0
 34 35  2  0
 35 36  1  0
 26 37  2  0
  9 38  1  0
  6  1  1  0
 37 10  1  0
 38  4  1  0
 24 14  1  0
 36 27  1  0
 22 18  1  0
 35 30  1  0
  1 39  1  0
  2 40  1  0
  3 41  1  0
  6 42  1  0
  7 43  1  0
  7 44  1  0
  8 45  1  0
  8 46  1  0
 13 47  1  0
 14 48  1  1
 15 49  1  0
 15 50  1  0
 16 51  1  0
 16 52  1  0
 17 53  1  6
 19 54  1  0
 19 55  1  0
 20 56  1  0
 20 57  1  0
 21 58  1  0
 21 59  1  0
 22 60  1  0
 22 61  1  0
 23 62  1  0
 23 63  1  0
 24 64  1  0
 24 65  1  0
 28 66  1  0
 28 67  1  0
 29 68  1  0
 29 69  1  0
 31 70  1  0
 32 71  1  0
 33 72  1  0
 34 73  1  0
 36 74  1  0
 36 75  1  0
 38 76  1  0
 38 77  1  0
M  END
>  <smiles>  (21) 
c1ccc2c(c1)CCN(c1nc(N[C@H]3CC[C@H](N4CCCC4)CC3)nc(N3CCc4ccccc4C3)n1)C2

>  <score_type>  (21) 
oracle

>  <origin>  (21) 
autodockgpu

>  <m_score__min__energy>  (21) 
-11.02

>  <m_primary>  (21) 
energy

>  <rmsd>  (21) 
4.879328493827945

>  <m_score__min__rmsd>  (21) 
4.879328493827945

>  <meeko>  (21) 
{"free_energy": -8.78, "intermolecular_energy": -10.27, "internal_energy": -2.25, "cluster_size": 3, "cluster_id": 6, "rank_in_cluster": 2}

>  <energy>  (21) 
-9.57

>  <cluster_rmsd>  (21) 
1.84

>  <cluster>  (21) 
2

$$$$

     RDKit          3D

 77 83  0  0  0  0  0  0  0  0999 V2000
  132.7300   72.4940  227.2300 C   0  0  0  0  0  0  0  0  0  0  0  0
  133.4900   71.6550  226.4340 C   0  0  0  0  0  0  0  0  0  0  0  0
  134.3000   72.2660  225.4970 C   0  0  0  0  0  0  0  0  0  0  0  0
  134.3660   73.6310  225.3390 C   0  0  0  0  0  0  0  0  0  0  0  0
  133.6130   74.4480  226.1270 C   0  0  0  0  0  0  0  0  0  0  0  0
  132.7970   73.8610  227.0720 C   0  0  0  0  0  0  0  0  0  0  0  0
  133.7130   75.9120  225.9260 C   0  0  0  0  0  0  0  0  0  0  0  0
  133.7320   76.1100  224.4030 C   0  0  0  0  0  0  0  0  0  0  0  0
  134.9940   75.5450  223.9670 N   0  0  0  0  0  0  0  0  0  0  0  0
  135.9380   76.2970  223.2360 C   0  0  0  0  0  0  0  0  0  0  0  0
  135.7380   77.5740  222.8770 N   0  0  0  0  0  0  0  0  0  0  0  0
  136.6250   78.2850  222.1920 C   0  0  0  0  0  0  0  0  0  0  0  0
  136.4130   79.6320  221.8100 N   0  0  0  0  0  0  0  0  0  0  0  0
  136.7810   80.7760  222.5940 C   0  0  1  0  0  0  0  0  0  0  0  0
  137.1140   80.4180  224.0250 C   0  0  0  0  0  0  0  0  0  0  0  0
  138.5070   80.8760  224.4040 C   0  0  0  0  0  0  0  0  0  0  0  0
  139.4650   80.1400  223.5160 C   0  0  2  0  0  0  0  0  0  0  0  0
  140.8030   80.0480  223.9210 N   0  0  0  0  0  0  0  0  0  0  0  0
  141.5490   78.8780  223.7000 C   0  0  0  0  0  0  0  0  0  0  0  0
  142.2100   79.0850  222.3840 C   0  0  0  0  0  0  0  0  0  0  0  0
  142.4420   80.5830  222.3690 C   0  0  0  0  0  0  0  0  0  0  0  0
  141.6820   81.0930  223.5530 C   0  0  0  0  0  0  0  0  0  0  0  0
  139.2430   80.6470  222.1170 C   0  0  0  0  0  0  0  0  0  0  0  0
  137.9670   81.4760  221.9860 C   0  0  0  0  0  0  0  0  0  0  0  0
  137.7810   77.6760  221.8480 N   0  0  0  0  0  0  0  0  0  0  0  0
  138.0380   76.4130  222.1760 C   0  0  0  0  0  0  0  0  0  0  0  0
  139.2450   75.7280  221.8360 N   0  0  0  0  0  0  0  0  0  0  0  0
  139.2520   74.2950  221.5890 C   0  0  0  0  0  0  0  0  0  0  0  0
  140.6510   73.7520  221.8810 C   0  0  0  0  0  0  0  0  0  0  0  0
  141.6130   74.4510  220.9860 C   0  0  0  0  0  0  0  0  0  0  0  0
  142.5500   73.7610  220.2600 C   0  0  0  0  0  0  0  0  0  0  0  0
  143.4010   74.4880  219.4560 C   0  0  0  0  0  0  0  0  0  0  0  0
  143.3080   75.8650  219.3890 C   0  0  0  0  0  0  0  0  0  0  0  0
  142.3570   76.5770  220.1250 C   0  0  0  0  0  0  0  0  0  0  0  0
  141.4980   75.8380  220.9370 C   0  0  0  0  0  0  0  0  0  0  0  0
  140.4610   76.5350  221.7490 C   0  0  0  0  0  0  0  0  0  0  0  0
  137.1060   75.7400  222.8690 N   0  0  0  0  0  0  0  0  0  0  0  0
  135.2700   74.1630  224.3020 C   0  0  0  0  0  0  0  0  0  0  0  0
  132.0665   72.0656  227.9957 H   0  0  0  0  0  0  0  0  0  0  0  0
  133.4511   70.5610  226.5417 H   0  0  0  0  0  0  0  0  0  0  0  0
  134.9210   71.6320  224.8471 H   0  0  0  0  0  0  0  0  0  0  0  0
  132.1815   74.5036  227.7187 H   0  0  0  0  0  0  0  0  0  0  0  0
  132.8458   76.4223  226.3704 H   0  0  0  0  0  0  0  0  0  0  0  0
  134.6091   76.3322  226.4060 H   0  0  0  0  0  0  0  0  0  0  0  0
  132.8891   75.5814  223.9338 H   0  0  0  0  0  0  0  0  0  0  0  0
  133.6347   77.1692  224.1228 H   0  0  0  0  0  0  0  0  0  0  0  0
  135.9490   79.8350  220.8780 H   0  0  0  0  0  0  0  0  0  0  0  0
  135.9040   81.4400  222.5986 H   0  0  0  0  0  0  0  0  0  0  0  0
  137.0525   79.3261  224.1435 H   0  0  0  0  0  0  0  0  0  0  0  0
  136.3936   80.9255  224.6834 H   0  0  0  0  0  0  0  0  0  0  0  0
  138.7096   80.6376  225.4586 H   0  0  0  0  0  0  0  0  0  0  0  0
  138.6111   81.9639  224.2789 H   0  0  0  0  0  0  0  0  0  0  0  0
  139.2280   79.0680  223.5843 H   0  0  0  0  0  0  0  0  0  0  0  0
  142.2997   78.7428  224.4926 H   0  0  0  0  0  0  0  0  0  0  0  0
  140.9170   77.9777  223.7075 H   0  0  0  0  0  0  0  0  0  0  0  0
  143.1605   78.5344  222.3250 H   0  0  0  0  0  0  0  0  0  0  0  0
  141.6159   78.7235  221.5318 H   0  0  0  0  0  0  0  0  0  0  0  0
  143.5136   80.8113  222.4673 H   0  0  0  0  0  0  0  0  0  0  0  0
  142.1111   81.0476  221.4284 H   0  0  0  0  0  0  0  0  0  0  0  0
  142.3697   81.3250  224.3796 H   0  0  0  0  0  0  0  0  0  0  0  0
  141.1368   82.0190  223.3180 H   0  0  0  0  0  0  0  0  0  0  0  0
  139.1740   79.7850  221.4371 H   0  0  0  0  0  0  0  0  0  0  0  0
  140.0909   81.2996  221.8617 H   0  0  0  0  0  0  0  0  0  0  0  0
  137.7665   81.6550  220.9193 H   0  0  0  0  0  0  0  0  0  0  0  0
  138.1179   82.4234  222.5242 H   0  0  0  0  0  0  0  0  0  0  0  0
  138.5198   73.8029  222.2461 H   0  0  0  0  0  0  0  0  0  0  0  0
  138.9844   74.0949  220.5410 H   0  0  0  0  0  0  0  0  0  0  0  0
  140.9133   73.9426  222.9321 H   0  0  0  0  0  0  0  0  0  0  0  0
  140.6839   72.6669  221.7035 H   0  0  0  0  0  0  0  0  0  0  0  0
  142.6198   72.6647  220.3175 H   0  0  0  0  0  0  0  0  0  0  0  0
  144.1639   73.9655  218.8601 H   0  0  0  0  0  0  0  0  0  0  0  0
  144.0022   76.4164  218.7379 H   0  0  0  0  0  0  0  0  0  0  0  0
  142.2892   77.6733  220.0661 H   0  0  0  0  0  0  0  0  0  0  0  0
  140.8523   76.7090  222.7622 H   0  0  0  0  0  0  0  0  0  0  0  0
  140.2167   77.4921  221.2650 H   0  0  0  0  0  0  0  0  0  0  0  0
  135.1591   73.5529  223.3934 H   0  0  0  0  0  0  0  0  0  0  0  0
  136.2934   74.1191  224.7029 H   0  0  0  0  0  0  0  0  0  0  0  0
  1  2  2  0
  2  3  1  0
  3  4  2  0
  4  5  1  0
  5  6  2  0
  5  7  1  0
  7  8  1  0
  8  9  1  0
  9 10  1  0
 10 11  2  0
 11 12  1  0
 12 13  1  0
 13 14  1  0
 14 15  1  0
 15 16  1  0
 16 17  1  0
 17 18  1  0
 18 19  1  0
 19 20  1  0
 20 21  1  0
 21 22  1  0
 17 23  1  0
 23 24  1  0
 12 25  2  0
 25 26  1  0
 26 27  1  0
 27 28  1  0
 28 29  1  0
 29 30  1  0
 30 31  2  0
 31 32  1  0
 32 33  2  0
 33 34  1  0
 34 35  2  0
 35 36  1  0
 26 37  2  0
  9 38  1  0
  6  1  1  0
 37 10  1  0
 38  4  1  0
 24 14  1  0
 36 27  1  0
 22 18  1  0
 35 30  1  0
  1 39  1  0
  2 40  1  0
  3 41  1  0
  6 42  1  0
  7 43  1  0
  7 44  1  0
  8 45  1  0
  8 46  1  0
 13 47  1  0
 14 48  1  1
 15 49  1  0
 15 50  1  0
 16 51  1  0
 16 52  1  0
 17 53  1  6
 19 54  1  0
 19 55  1  0
 20 56  1  0
 20 57  1  0
 21 58  1  0
 21 59  1  0
 22 60  1  0
 22 61  1  0
 23 62  1  0
 23 63  1  0
 24 64  1  0
 24 65  1  0
 28 66  1  0
 28 67  1  0
 29 68  1  0
 29 69  1  0
 31 70  1  0
 32 71  1  0
 33 72  1  0
 34 73  1  0
 36 74  1  0
 36 75  1  0
 38 76  1  0
 38 77  1  0
M  END
>  <smiles>  (22) 
c1ccc2c(c1)CCN(c1nc(N[C@H]3CC[C@H](N4CCCC4)CC3)nc(N3CCc4ccccc4C3)n1)C2

>  <score_type>  (22) 
oracle

>  <origin>  (22) 
autodockgpu

>  <m_score__min__energy>  (22) 
-11.02

>  <m_primary>  (22) 
energy

>  <rmsd>  (22) 
4.891974343555736

>  <m_score__min__rmsd>  (22) 
4.891974343555736

>  <meeko>  (22) 
{"free_energy": -8.78, "intermolecular_energy": -10.27, "internal_energy": -2.25, "cluster_size": 3, "cluster_id": 6, "rank_in_cluster": 3}

>  <energy>  (22) 
-9.55

>  <cluster_rmsd>  (22) 
1.76

>  <cluster>  (22) 
2

$$$$

     RDKit          3D

 77 83  0  0  0  0  0  0  0  0999 V2000
  145.2860   67.1800  217.1840 C   0  0  0  0  0  0  0  0  0  0  0  0
  146.2510   67.8530  217.9120 C   0  0  0  0  0  0  0  0  0  0  0  0
  145.8050   68.8730  218.7280 C   0  0  0  0  0  0  0  0  0  0  0  0
  144.4790   69.2240  218.8310 C   0  0  0  0  0  0  0  0  0  0  0  0
  143.5360   68.5560  218.1100 C   0  0  0  0  0  0  0  0  0  0  0  0
  143.9580   67.5320  217.2870 C   0  0  0  0  0  0  0  0  0  0  0  0
  142.1190   68.9650  218.2480 C   0  0  0  0  0  0  0  0  0  0  0  0
  142.1410   70.5010  218.2560 C   0  0  0  0  0  0  0  0  0  0  0  0
  142.7990   70.8600  219.4970 N   0  0  0  0  0  0  0  0  0  0  0  0
  142.1870   71.6970  220.4540 C   0  0  0  0  0  0  0  0  0  0  0  0
  142.1670   73.0340  220.3510 N   0  0  0  0  0  0  0  0  0  0  0  0
  141.5890   73.8240  221.2480 C   0  0  0  0  0  0  0  0  0  0  0  0
  141.5700   75.2370  221.1410 N   0  0  0  0  0  0  0  0  0  0  0  0
  140.3950   76.0280  220.9120 C   0  0  1  0  0  0  0  0  0  0  0  0
  139.5840   76.2420  222.1700 C   0  0  0  0  0  0  0  0  0  0  0  0
  139.3850   77.7160  222.4620 C   0  0  0  0  0  0  0  0  0  0  0  0
  140.7450   78.3030  222.6910 C   0  0  2  0  0  0  0  0  0  0  0  0
  140.8300   79.5200  223.3800 N   0  0  0  0  0  0  0  0  0  0  0  0
  141.9800   79.8580  224.1140 C   0  0  0  0  0  0  0  0  0  0  0  0
  142.8380   80.6110  223.1610 C   0  0  0  0  0  0  0  0  0  0  0  0
  141.8170   81.3140  222.2890 C   0  0  0  0  0  0  0  0  0  0  0  0
  140.5070   80.7040  222.6790 C   0  0  0  0  0  0  0  0  0  0  0  0
  141.4730   78.2490  221.3760 C   0  0  0  0  0  0  0  0  0  0  0  0
  140.7630   77.3730  220.3440 C   0  0  0  0  0  0  0  0  0  0  0  0
  140.9980   73.2350  222.3100 N   0  0  0  0  0  0  0  0  0  0  0  0
  140.9840   71.9150  222.4670 C   0  0  0  0  0  0  0  0  0  0  0  0
  140.3710   71.2470  223.5710 N   0  0  0  0  0  0  0  0  0  0  0  0
  139.5760   70.0450  223.3760 C   0  0  0  0  0  0  0  0  0  0  0  0
  138.5730   69.9270  224.5230 C   0  0  0  0  0  0  0  0  0  0  0  0
  139.3360   69.8580  225.7990 C   0  0  0  0  0  0  0  0  0  0  0  0
  139.0640   68.9060  226.7480 C   0  0  0  0  0  0  0  0  0  0  0  0
  139.8210   68.9150  227.9000 C   0  0  0  0  0  0  0  0  0  0  0  0
  140.8150   69.8550  228.0860 C   0  0  0  0  0  0  0  0  0  0  0  0
  141.1000   70.8300  227.1250 C   0  0  0  0  0  0  0  0  0  0  0  0
  140.3330   70.8170  225.9610 C   0  0  0  0  0  0  0  0  0  0  0  0
  140.5830   71.8290  224.8970 C   0  0  0  0  0  0  0  0  0  0  0  0
  141.5820   71.1630  221.5310 N   0  0  0  0  0  0  0  0  0  0  0  0
  144.1260   70.3320  219.7380 C   0  0  0  0  0  0  0  0  0  0  0  0
  145.5816   66.3567  216.5171 H   0  0  0  0  0  0  0  0  0  0  0  0
  147.3168   67.5893  217.8441 H   0  0  0  0  0  0  0  0  0  0  0  0
  146.5434   69.4305  219.3229 H   0  0  0  0  0  0  0  0  0  0  0  0
  143.2122   66.9805  216.6958 H   0  0  0  0  0  0  0  0  0  0  0  0
  141.5258   68.5923  217.3999 H   0  0  0  0  0  0  0  0  0  0  0  0
  141.6605   68.5561  219.1604 H   0  0  0  0  0  0  0  0  0  0  0  0
  142.7063   70.8841  217.3937 H   0  0  0  0  0  0  0  0  0  0  0  0
  141.1303   70.9292  218.1851 H   0  0  0  0  0  0  0  0  0  0  0  0
  142.4820   75.7710  221.2350 H   0  0  0  0  0  0  0  0  0  0  0  0
  139.7802   75.4639  220.1952 H   0  0  0  0  0  0  0  0  0  0  0  0
  140.1104   75.7782  223.0172 H   0  0  0  0  0  0  0  0  0  0  0  0
  138.5948   75.7838  222.0235 H   0  0  0  0  0  0  0  0  0  0  0  0
  138.7624   77.8429  223.3599 H   0  0  0  0  0  0  0  0  0  0  0  0
  138.8759   78.2174  221.6257 H   0  0  0  0  0  0  0  0  0  0  0  0
  141.2546   77.6831  223.4433 H   0  0  0  0  0  0  0  0  0  0  0  0
  141.7166   80.4871  224.9771 H   0  0  0  0  0  0  0  0  0  0  0  0
  142.4897   78.9696  224.5153 H   0  0  0  0  0  0  0  0  0  0  0  0
  143.4773   81.3349  223.6876 H   0  0  0  0  0  0  0  0  0  0  0  0
  143.5328   79.9721  222.5961 H   0  0  0  0  0  0  0  0  0  0  0  0
  141.8162   82.3961  222.4867 H   0  0  0  0  0  0  0  0  0  0  0  0
  142.0307   81.1954  221.2165 H   0  0  0  0  0  0  0  0  0  0  0  0
  139.9417   81.3907  223.3261 H   0  0  0  0  0  0  0  0  0  0  0  0
  139.8780   80.4970  221.8006 H   0  0  0  0  0  0  0  0  0  0  0  0
  142.4809   77.8433  221.5482 H   0  0  0  0  0  0  0  0  0  0  0  0
  141.5095   79.2724  220.9743 H   0  0  0  0  0  0  0  0  0  0  0  0
  141.4307   77.2252  219.4824 H   0  0  0  0  0  0  0  0  0  0  0  0
  139.8359   77.8825  220.0423 H   0  0  0  0  0  0  0  0  0  0  0  0
  139.0375   70.1090  222.4190 H   0  0  0  0  0  0  0  0  0  0  0  0
  140.2314   69.1617  223.3600 H   0  0  0  0  0  0  0  0  0  0  0  0
  137.9111   70.8055  224.5314 H   0  0  0  0  0  0  0  0  0  0  0  0
  137.9561   69.0248  224.3985 H   0  0  0  0  0  0  0  0  0  0  0  0
  138.2692   68.1610  226.5952 H   0  0  0  0  0  0  0  0  0  0  0  0
  139.6308   68.1639  228.6808 H   0  0  0  0  0  0  0  0  0  0  0  0
  141.3999   69.8364  229.0174 H   0  0  0  0  0  0  0  0  0  0  0  0
  141.8946   71.5746  227.2807 H   0  0  0  0  0  0  0  0  0  0  0  0
  139.8940   72.6755  225.0344 H   0  0  0  0  0  0  0  0  0  0  0  0
  141.6260   72.1706  224.9712 H   0  0  0  0  0  0  0  0  0  0  0  0
  144.8562   71.1432  219.6011 H   0  0  0  0  0  0  0  0  0  0  0  0
  144.1408   69.9349  220.7637 H   0  0  0  0  0  0  0  0  0  0  0  0
  1  2  2  0
  2  3  1  0
  3  4  2  0
  4  5  1  0
  5  6  2  0
  5  7  1  0
  7  8  1  0
  8  9  1  0
  9 10  1  0
 10 11  2  0
 11 12  1  0
 12 13  1  0
 13 14  1  0
 14 15  1  0
 15 16  1  0
 16 17  1  0
 17 18  1  0
 18 19  1  0
 19 20  1  0
 20 21  1  0
 21 22  1  0
 17 23  1  0
 23 24  1  0
 12 25  2  0
 25 26  1  0
 26 27  1  0
 27 28  1  0
 28 29  1  0
 29 30  1  0
 30 31  2  0
 31 32  1  0
 32 33  2  0
 33 34  1  0
 34 35  2  0
 35 36  1  0
 26 37  2  0
  9 38  1  0
  6  1  1  0
 37 10  1  0
 38  4  1  0
 24 14  1  0
 36 27  1  0
 22 18  1  0
 35 30  1  0
  1 39  1  0
  2 40  1  0
  3 41  1  0
  6 42  1  0
  7 43  1  0
  7 44  1  0
  8 45  1  0
  8 46  1  0
 13 47  1  0
 14 48  1  6
 15 49  1  0
 15 50  1  0
 16 51  1  0
 16 52  1  0
 17 53  1  1
 19 54  1  0
 19 55  1  0
 20 56  1  0
 20 57  1  0
 21 58  1  0
 21 59  1  0
 22 60  1  0
 22 61  1  0
 23 62  1  0
 23 63  1  0
 24 64  1  0
 24 65  1  0
 28 66  1  0
 28 67  1  0
 29 68  1  0
 29 69  1  0
 31 70  1  0
 32 71  1  0
 33 72  1  0
 34 73  1  0
 36 74  1  0
 36 75  1  0
 38 76  1  0
 38 77  1  0
M  END
>  <smiles>  (23) 
c1ccc2c(c1)CCN(c1nc(N[C@H]3CC[C@H](N4CCCC4)CC3)nc(N3CCc4ccccc4C3)n1)C2

>  <score_type>  (23) 
oracle

>  <origin>  (23) 
autodockgpu

>  <m_score__min__energy>  (23) 
-11.02

>  <m_primary>  (23) 
energy

>  <rmsd>  (23) 
5.2784527186538694

>  <m_score__min__rmsd>  (23) 
5.2784527186538694

>  <meeko>  (23) 
{"free_energy": -10.07, "intermolecular_energy": -11.56, "internal_energy": -1.23, "cluster_size": 5, "cluster_id": 3, "rank_in_cluster": 2}

>  <energy>  (23) 
-9.55

>  <cluster_rmsd>  (23) 
1.74

>  <cluster>  (23) 
2

$$$$

     RDKit          3D

 77 83  0  0  0  0  0  0  0  0999 V2000
  139.9950   80.5200  222.0280 C   0  0  0  0  0  0  0  0  0  0  0  0
  141.0300   80.1760  222.8790 C   0  0  0  0  0  0  0  0  0  0  0  0
  141.3280   78.8320  222.9720 C   0  0  0  0  0  0  0  0  0  0  0  0
  140.6490   77.8640  222.2700 C   0  0  0  0  0  0  0  0  0  0  0  0
  139.6310   78.2110  221.4350 C   0  0  0  0  0  0  0  0  0  0  0  0
  139.3150   79.5500  221.3250 C   0  0  0  0  0  0  0  0  0  0  0  0
  138.9240   77.1390  220.6970 C   0  0  0  0  0  0  0  0  0  0  0  0
  138.7350   76.0050  221.7150 C   0  0  0  0  0  0  0  0  0  0  0  0
  140.0720   75.5130  221.9810 N   0  0  0  0  0  0  0  0  0  0  0  0
  140.4230   74.1590  221.7950 C   0  0  0  0  0  0  0  0  0  0  0  0
  141.0940   73.7160  220.7210 N   0  0  0  0  0  0  0  0  0  0  0  0
  141.4280   72.4440  220.5440 C   0  0  0  0  0  0  0  0  0  0  0  0
  142.1350   71.9770  219.4090 N   0  0  0  0  0  0  0  0  0  0  0  0
  143.5020   72.2910  219.1060 C   0  0  1  0  0  0  0  0  0  0  0  0
  143.6840   72.7930  217.6910 C   0  0  0  0  0  0  0  0  0  0  0  0
  144.3400   74.1590  217.6640 C   0  0  0  0  0  0  0  0  0  0  0  0
  143.4120   75.1030  218.3670 C   0  0  2  0  0  0  0  0  0  0  0  0
  143.5590   76.4750  218.1250 N   0  0  0  0  0  0  0  0  0  0  0  0
  143.2870   77.0210  216.8590 C   0  0  0  0  0  0  0  0  0  0  0  0
  141.8580   77.4250  216.9120 C   0  0  0  0  0  0  0  0  0  0  0  0
  141.6850   77.8220  218.3650 C   0  0  0  0  0  0  0  0  0  0  0  0
  142.9510   77.3770  219.0280 C   0  0  0  0  0  0  0  0  0  0  0  0
  143.3890   74.6970  219.8160 C   0  0  0  0  0  0  0  0  0  0  0  0
  144.0310   73.3320  220.0560 C   0  0  0  0  0  0  0  0  0  0  0  0
  141.0650   71.5650  221.5030 N   0  0  0  0  0  0  0  0  0  0  0  0
  140.3990   71.9420  222.5900 C   0  0  0  0  0  0  0  0  0  0  0  0
  139.9950   71.0500  223.6300 N   0  0  0  0  0  0  0  0  0  0  0  0
  139.3900   69.7630  223.3240 C   0  0  0  0  0  0  0  0  0  0  0  0
  138.5180   69.3350  224.5040 C   0  0  0  0  0  0  0  0  0  0  0  0
  139.3850   69.2420  225.7100 C   0  0  0  0  0  0  0  0  0  0  0  0
  139.3510   68.1480  226.5360 C   0  0  0  0  0  0  0  0  0  0  0  0
  140.1890   68.1440  227.6310 C   0  0  0  0  0  0  0  0  0  0  0  0
  141.0320   69.2100  227.8800 C   0  0  0  0  0  0  0  0  0  0  0  0
  141.0740   70.3300  227.0430 C   0  0  0  0  0  0  0  0  0  0  0  0
  140.2250   70.3290  225.9380 C   0  0  0  0  0  0  0  0  0  0  0  0
  140.2200   71.4920  225.0060 C   0  0  0  0  0  0  0  0  0  0  0  0
  140.0870   73.2400  222.7190 N   0  0  0  0  0  0  0  0  0  0  0  0
  141.0620   76.4590  222.4530 C   0  0  0  0  0  0  0  0  0  0  0  0
  139.7127   81.5768  221.9118 H   0  0  0  0  0  0  0  0  0  0  0  0
  141.5858   80.9336  223.4510 H   0  0  0  0  0  0  0  0  0  0  0  0
  142.1461   78.5207  223.6381 H   0  0  0  0  0  0  0  0  0  0  0  0
  138.4956   79.8516  220.6559 H   0  0  0  0  0  0  0  0  0  0  0  0
  137.9495   77.4984  220.3348 H   0  0  0  0  0  0  0  0  0  0  0  0
  139.4888   76.8076  219.8132 H   0  0  0  0  0  0  0  0  0  0  0  0
  138.2728   76.3865  222.6374 H   0  0  0  0  0  0  0  0  0  0  0  0
  138.0719   75.2142  221.3342 H   0  0  0  0  0  0  0  0  0  0  0  0
  141.6370   71.3450  218.7170 H   0  0  0  0  0  0  0  0  0  0  0  0
  144.0635   71.3514  219.2150 H   0  0  0  0  0  0  0  0  0  0  0  0
  142.6987   72.8605  217.2066 H   0  0  0  0  0  0  0  0  0  0  0  0
  144.3368   72.0871  217.1566 H   0  0  0  0  0  0  0  0  0  0  0  0
  144.4937   74.4841  216.6244 H   0  0  0  0  0  0  0  0  0  0  0  0
  145.3227   74.1331  218.1576 H   0  0  0  0  0  0  0  0  0  0  0  0
  142.4152   74.9908  217.9155 H   0  0  0  0  0  0  0  0  0  0  0  0
  143.9286   77.8940  216.6688 H   0  0  0  0  0  0  0  0  0  0  0  0
  143.4831   76.3029  216.0491 H   0  0  0  0  0  0  0  0  0  0  0  0
  141.6594   78.2739  216.2413 H   0  0  0  0  0  0  0  0  0  0  0  0
  141.1656   76.6344  216.5872 H   0  0  0  0  0  0  0  0  0  0  0  0
  141.5591   78.9108  218.4583 H   0  0  0  0  0  0  0  0  0  0  0  0
  140.7924   77.3673  218.8196 H   0  0  0  0  0  0  0  0  0  0  0  0
  143.6104   78.2379  219.2126 H   0  0  0  0  0  0  0  0  0  0  0  0
  142.7551   76.9058  220.0025 H   0  0  0  0  0  0  0  0  0  0  0  0
  142.3430   74.6582  220.1540 H   0  0  0  0  0  0  0  0  0  0  0  0
  143.9711   75.4415  220.3789 H   0  0  0  0  0  0  0  0  0  0  0  0
  143.8174   73.0144  221.0873 H   0  0  0  0  0  0  0  0  0  0  0  0
  145.1139   73.4291  219.8886 H   0  0  0  0  0  0  0  0  0  0  0  0
  138.7703   69.8516  222.4195 H   0  0  0  0  0  0  0  0  0  0  0  0
  140.1756   69.0132  223.1488 H   0  0  0  0  0  0  0  0  0  0  0  0
  137.7254   70.0792  224.6711 H   0  0  0  0  0  0  0  0  0  0  0  0
  138.0475   68.3625  224.2971 H   0  0  0  0  0  0  0  0  0  0  0  0
  138.6780   67.3022  226.3320 H   0  0  0  0  0  0  0  0  0  0  0  0
  140.1863   67.2820  228.3143 H   0  0  0  0  0  0  0  0  0  0  0  0
  141.6889   69.1770  228.7617 H   0  0  0  0  0  0  0  0  0  0  0  0
  141.7479   71.1748  227.2482 H   0  0  0  0  0  0  0  0  0  0  0  0
  139.4179   72.1857  225.2983 H   0  0  0  0  0  0  0  0  0  0  0  0
  141.1972   71.9940  225.0612 H   0  0  0  0  0  0  0  0  0  0  0  0
  141.2343   76.2809  223.5247 H   0  0  0  0  0  0  0  0  0  0  0  0
  141.9751   76.3040  221.8594 H   0  0  0  0  0  0  0  0  0  0  0  0
  1  2  2  0
  2  3  1  0
  3  4  2  0
  4  5  1  0
  5  6  2  0
  5  7  1  0
  7  8  1  0
  8  9  1  0
  9 10  1  0
 10 11  2  0
 11 12  1  0
 12 13  1  0
 13 14  1  0
 14 15  1  0
 15 16  1  0
 16 17  1  0
 17 18  1  0
 18 19  1  0
 19 20  1  0
 20 21  1  0
 21 22  1  0
 17 23  1  0
 23 24  1  0
 12 25  2  0
 25 26  1  0
 26 27  1  0
 27 28  1  0
 28 29  1  0
 29 30  1  0
 30 31  2  0
 31 32  1  0
 32 33  2  0
 33 34  1  0
 34 35  2  0
 35 36  1  0
 26 37  2  0
  9 38  1  0
  6  1  1  0
 37 10  1  0
 38  4  1  0
 24 14  1  0
 36 27  1  0
 22 18  1  0
 35 30  1  0
  1 39  1  0
  2 40  1  0
  3 41  1  0
  6 42  1  0
  7 43  1  0
  7 44  1  0
  8 45  1  0
  8 46  1  0
 13 47  1  0
 14 48  1  6
 15 49  1  0
 15 50  1  0
 16 51  1  0
 16 52  1  0
 17 53  1  6
 19 54  1  0
 19 55  1  0
 20 56  1  0
 20 57  1  0
 21 58  1  0
 21 59  1  0
 22 60  1  0
 22 61  1  0
 23 62  1  0
 23 63  1  0
 24 64  1  0
 24 65  1  0
 28 66  1  0
 28 67  1  0
 29 68  1  0
 29 69  1  0
 31 70  1  0
 32 71  1  0
 33 72  1  0
 34 73  1  0
 36 74  1  0
 36 75  1  0
 38 76  1  0
 38 77  1  0
M  END
>  <smiles>  (24) 
c1ccc2c(c1)CCN(c1nc(N[C@H]3CC[C@H](N4CCCC4)CC3)nc(N3CCc4ccccc4C3)n1)C2

>  <score_type>  (24) 
oracle

>  <origin>  (24) 
autodockgpu

>  <m_score__min__energy>  (24) 
-11.02

>  <m_primary>  (24) 
energy

>  <rmsd>  (24) 
7.038204428721436

>  <m_score__min__rmsd>  (24) 
7.038204428721436

>  <meeko>  (24) 
{"free_energy": -9.32, "intermolecular_energy": -10.81, "internal_energy": -1.95, "cluster_size": 32, "cluster_id": 2, "rank_in_cluster": 21}

>  <energy>  (24) 
-9.48

>  <cluster_rmsd>  (24) 
1.27

>  <cluster>  (24) 
2

$$$$

     RDKit          3D

 77 83  0  0  0  0  0  0  0  0999 V2000
  142.0510   81.1700  222.3170 C   0  0  0  0  0  0  0  0  0  0  0  0
  141.6450   80.7110  223.5570 C   0  0  0  0  0  0  0  0  0  0  0  0
  141.3410   79.3680  223.6470 C   0  0  0  0  0  0  0  0  0  0  0  0
  141.4270   78.5080  222.5770 C   0  0  0  0  0  0  0  0  0  0  0  0
  141.8270   78.9670  221.3590 C   0  0  0  0  0  0  0  0  0  0  0  0
  142.1370   80.3080  221.2450 C   0  0  0  0  0  0  0  0  0  0  0  0
  141.9060   78.0100  220.2320 C   0  0  0  0  0  0  0  0  0  0  0  0
  140.6460   77.1390  220.3540 C   0  0  0  0  0  0  0  0  0  0  0  0
  140.8380   76.3690  221.5660 N   0  0  0  0  0  0  0  0  0  0  0  0
  140.7970   74.9590  221.5720 C   0  0  0  0  0  0  0  0  0  0  0  0
  139.7830   74.2570  222.1010 N   0  0  0  0  0  0  0  0  0  0  0  0
  139.7410   72.9300  222.1050 C   0  0  0  0  0  0  0  0  0  0  0  0
  138.6710   72.1900  222.6660 N   0  0  0  0  0  0  0  0  0  0  0  0
  138.3700   70.8200  222.3600 C   0  0  1  0  0  0  0  0  0  0  0  0
  139.5450   69.8990  222.6000 C   0  0  0  0  0  0  0  0  0  0  0  0
  139.1940   68.7870  223.5670 C   0  0  0  0  0  0  0  0  0  0  0  0
  138.8500   69.4370  224.8730 C   0  0  2  0  0  0  0  0  0  0  0  0
  138.9000   68.6520  226.0330 N   0  0  0  0  0  0  0  0  0  0  0  0
  139.5970   67.4320  226.0540 C   0  0  0  0  0  0  0  0  0  0  0  0
  140.9670   67.7780  226.5160 C   0  0  0  0  0  0  0  0  0  0  0  0
  140.7100   68.9400  227.4560 C   0  0  0  0  0  0  0  0  0  0  0  0
  139.2680   69.2810  227.2450 C   0  0  0  0  0  0  0  0  0  0  0  0
  137.5730   70.2010  224.6600 C   0  0  0  0  0  0  0  0  0  0  0  0
  137.2060   70.3360  223.1830 C   0  0  0  0  0  0  0  0  0  0  0  0
  140.7780   72.2710  221.5450 N   0  0  0  0  0  0  0  0  0  0  0  0
  141.8110   72.9100  221.0050 C   0  0  0  0  0  0  0  0  0  0  0  0
  142.9290   72.2560  220.4010 N   0  0  0  0  0  0  0  0  0  0  0  0
  144.2640   72.8280  220.4740 C   0  0  0  0  0  0  0  0  0  0  0  0
  145.0810   72.3240  219.2850 C   0  0  0  0  0  0  0  0  0  0  0  0
  145.1340   70.8380  219.3570 C   0  0  0  0  0  0  0  0  0  0  0  0
  146.3150   70.1540  219.2200 C   0  0  0  0  0  0  0  0  0  0  0  0
  146.2730   68.7790  219.3020 C   0  0  0  0  0  0  0  0  0  0  0  0
  145.0780   68.1190  219.5140 C   0  0  0  0  0  0  0  0  0  0  0  0
  143.8690   68.8070  219.6550 C   0  0  0  0  0  0  0  0  0  0  0  0
  143.9170   70.1980  219.5720 C   0  0  0  0  0  0  0  0  0  0  0  0
  142.6640   70.9920  219.7130 C   0  0  0  0  0  0  0  0  0  0  0  0
  141.8040   74.2510  221.0270 N   0  0  0  0  0  0  0  0  0  0  0  0
  141.0750   77.0920  222.7990 C   0  0  0  0  0  0  0  0  0  0  0  0
  142.3073   82.2316  222.1853 H   0  0  0  0  0  0  0  0  0  0  0  0
  141.5685   81.3813  224.4258 H   0  0  0  0  0  0  0  0  0  0  0  0
  141.0152   78.9671  224.6182 H   0  0  0  0  0  0  0  0  0  0  0  0
  142.4621   80.6997  220.2699 H   0  0  0  0  0  0  0  0  0  0  0  0
  141.9133   78.5454  219.2711 H   0  0  0  0  0  0  0  0  0  0  0  0
  142.8264   77.4087  220.2670 H   0  0  0  0  0  0  0  0  0  0  0  0
  139.7473   77.7683  220.4341 H   0  0  0  0  0  0  0  0  0  0  0  0
  140.5023   76.4950  219.4739 H   0  0  0  0  0  0  0  0  0  0  0  0
  138.0310   72.6620  223.3670 H   0  0  0  0  0  0  0  0  0  0  0  0
  138.1210   70.7924  221.2889 H   0  0  0  0  0  0  0  0  0  0  0  0
  140.3781   70.4844  223.0164 H   0  0  0  0  0  0  0  0  0  0  0  0
  139.8265   69.4432  221.6393 H   0  0  0  0  0  0  0  0  0  0  0  0
  140.0532   68.1122  223.6952 H   0  0  0  0  0  0  0  0  0  0  0  0
  138.3503   68.1900  223.1905 H   0  0  0  0  0  0  0  0  0  0  0  0
  139.6719   70.1200  225.1338 H   0  0  0  0  0  0  0  0  0  0  0  0
  139.1207   66.7268  226.7511 H   0  0  0  0  0  0  0  0  0  0  0  0
  139.6049   66.9442  225.0681 H   0  0  0  0  0  0  0  0  0  0  0  0
  141.4336   66.9339  227.0450 H   0  0  0  0  0  0  0  0  0  0  0  0
  141.6591   68.0207  225.6962 H   0  0  0  0  0  0  0  0  0  0  0  0
  140.8906   68.6431  228.4997 H   0  0  0  0  0  0  0  0  0  0  0  0
  141.3750   69.7935  227.2575 H   0  0  0  0  0  0  0  0  0  0  0  0
  138.6577   68.8986  228.0764 H   0  0  0  0  0  0  0  0  0  0  0  0
  139.1098   70.3687  227.2025 H   0  0  0  0  0  0  0  0  0  0  0  0
  137.6900   71.2080  225.0870 H   0  0  0  0  0  0  0  0  0  0  0  0
  136.7647   69.6413  225.1534 H   0  0  0  0  0  0  0  0  0  0  0  0
  136.3782   71.0539  223.0859 H   0  0  0  0  0  0  0  0  0  0  0  0
  136.9135   69.3430  222.8111 H   0  0  0  0  0  0  0  0  0  0  0  0
  144.1985   73.9255  220.4390 H   0  0  0  0  0  0  0  0  0  0  0  0
  144.7485   72.5277  221.4148 H   0  0  0  0  0  0  0  0  0  0  0  0
  144.6020   72.6349  218.3449 H   0  0  0  0  0  0  0  0  0  0  0  0
  146.0974   72.7435  219.3157 H   0  0  0  0  0  0  0  0  0  0  0  0
  147.2634   70.6849  219.0505 H   0  0  0  0  0  0  0  0  0  0  0  0
  147.2023   68.1999  219.1974 H   0  0  0  0  0  0  0  0  0  0  0  0
  145.0777   67.0206  219.5736 H   0  0  0  0  0  0  0  0  0  0  0  0
  142.9216   68.2743  219.8240 H   0  0  0  0  0  0  0  0  0  0  0  0
  142.2557   71.2032  218.7137 H   0  0  0  0  0  0  0  0  0  0  0  0
  141.9412   70.4112  220.3049 H   0  0  0  0  0  0  0  0  0  0  0  0
  140.1624   77.0493  223.4117 H   0  0  0  0  0  0  0  0  0  0  0  0
  141.9291   76.6149  223.3020 H   0  0  0  0  0  0  0  0  0  0  0  0
  1  2  2  0
  2  3  1  0
  3  4  2  0
  4  5  1  0
  5  6  2  0
  5  7  1  0
  7  8  1  0
  8  9  1  0
  9 10  1  0
 10 11  2  0
 11 12  1  0
 12 13  1  0
 13 14  1  0
 14 15  1  0
 15 16  1  0
 16 17  1  0
 17 18  1  0
 18 19  1  0
 19 20  1  0
 20 21  1  0
 21 22  1  0
 17 23  1  0
 23 24  1  0
 12 25  2  0
 25 26  1  0
 26 27  1  0
 27 28  1  0
 28 29  1  0
 29 30  1  0
 30 31  2  0
 31 32  1  0
 32 33  2  0
 33 34  1  0
 34 35  2  0
 35 36  1  0
 26 37  2  0
  9 38  1  0
  6  1  1  0
 37 10  1  0
 38  4  1  0
 24 14  1  0
 36 27  1  0
 22 18  1  0
 35 30  1  0
  1 39  1  0
  2 40  1  0
  3 41  1  0
  6 42  1  0
  7 43  1  0
  7 44  1  0
  8 45  1  0
  8 46  1  0
 13 47  1  0
 14 48  1  6
 15 49  1  0
 15 50  1  0
 16 51  1  0
 16 52  1  0
 17 53  1  1
 19 54  1  0
 19 55  1  0
 20 56  1  0
 20 57  1  0
 21 58  1  0
 21 59  1  0
 22 60  1  0
 22 61  1  0
 23 62  1  0
 23 63  1  0
 24 64  1  0
 24 65  1  0
 28 66  1  0
 28 67  1  0
 29 68  1  0
 29 69  1  0
 31 70  1  0
 32 71  1  0
 33 72  1  0
 34 73  1  0
 36 74  1  0
 36 75  1  0
 38 76  1  0
 38 77  1  0
M  END
>  <smiles>  (25) 
c1ccc2c(c1)CCN(c1nc(N[C@H]3CC[C@H](N4CCCC4)CC3)nc(N3CCc4ccccc4C3)n1)C2

>  <score_type>  (25) 
oracle

>  <origin>  (25) 
autodockgpu

>  <m_score__min__energy>  (25) 
-11.02

>  <m_primary>  (25) 
energy

>  <rmsd>  (25) 
11.845629608032377

>  <m_score__min__rmsd>  (25) 
11.845629608032377

>  <meeko>  (25) 
{"free_energy": -11.02, "intermolecular_energy": -12.51, "internal_energy": -1.36, "cluster_size": 7, "cluster_id": 1, "rank_in_cluster": 1}

>  <energy>  (25) 
-9.47

>  <cluster_rmsd>  (25) 
1.76

>  <cluster>  (25) 
2

$$$$

     RDKit          3D

 77 83  0  0  0  0  0  0  0  0999 V2000
  139.9880   69.1750  227.7280 C   0  0  0  0  0  0  0  0  0  0  0  0
  140.9710   70.1420  227.8350 C   0  0  0  0  0  0  0  0  0  0  0  0
  141.1260   70.9840  226.7530 C   0  0  0  0  0  0  0  0  0  0  0  0
  140.3590   70.8900  225.6150 C   0  0  0  0  0  0  0  0  0  0  0  0
  139.3940   69.9350  225.5170 C   0  0  0  0  0  0  0  0  0  0  0  0
  139.2200   69.0810  226.5880 C   0  0  0  0  0  0  0  0  0  0  0  0
  138.5900   69.8660  224.2750 C   0  0  0  0  0  0  0  0  0  0  0  0
  139.5950   70.0680  223.1320 C   0  0  0  0  0  0  0  0  0  0  0  0
  140.0400   71.4410  223.2620 N   0  0  0  0  0  0  0  0  0  0  0  0
  139.9250   72.3690  222.2050 C   0  0  0  0  0  0  0  0  0  0  0  0
  139.8770   72.0070  220.9140 N   0  0  0  0  0  0  0  0  0  0  0  0
  139.7660   72.8770  219.9170 C   0  0  0  0  0  0  0  0  0  0  0  0
  139.7180   72.4940  218.5550 N   0  0  0  0  0  0  0  0  0  0  0  0
  140.8270   72.5480  217.6460 C   0  0  1  0  0  0  0  0  0  0  0  0
  141.7820   73.6770  217.9610 C   0  0  0  0  0  0  0  0  0  0  0  0
  143.1920   73.1690  218.1840 C   0  0  0  0  0  0  0  0  0  0  0  0
  143.1470   72.2640  219.3780 C   0  0  2  0  0  0  0  0  0  0  0  0
  144.3460   71.9990  220.0510 N   0  0  0  0  0  0  0  0  0  0  0  0
  145.5720   71.9640  219.3620 C   0  0  0  0  0  0  0  0  0  0  0  0
  146.1040   73.3490  219.4530 C   0  0  0  0  0  0  0  0  0  0  0  0
  145.5880   73.8090  220.8020 C   0  0  0  0  0  0  0  0  0  0  0  0
  144.6290   72.7400  221.2210 C   0  0  0  0  0  0  0  0  0  0  0  0
  142.3420   71.0560  218.9820 C   0  0  0  0  0  0  0  0  0  0  0  0
  141.5930   71.2520  217.6650 C   0  0  0  0  0  0  0  0  0  0  0  0
  139.7000   74.1870  220.2380 N   0  0  0  0  0  0  0  0  0  0  0  0
  139.7420   74.6080  221.4990 C   0  0  0  0  0  0  0  0  0  0  0  0
  139.6740   75.9820  221.8850 N   0  0  0  0  0  0  0  0  0  0  0  0
  138.5990   76.4720  222.7340 C   0  0  0  0  0  0  0  0  0  0  0  0
  138.4030   77.9640  222.4680 C   0  0  0  0  0  0  0  0  0  0  0  0
  139.6830   78.6600  222.7760 C   0  0  0  0  0  0  0  0  0  0  0  0
  139.7170   79.7890  223.5530 C   0  0  0  0  0  0  0  0  0  0  0  0
  140.9450   80.3680  223.7890 C   0  0  0  0  0  0  0  0  0  0  0  0
  142.0980   79.8240  223.2560 C   0  0  0  0  0  0  0  0  0  0  0  0
  142.0730   78.6730  222.4630 C   0  0  0  0  0  0  0  0  0  0  0  0
  140.8290   78.0900  222.2280 C   0  0  0  0  0  0  0  0  0  0  0  0
  140.7320   76.8620  221.3900 C   0  0  0  0  0  0  0  0  0  0  0  0
  139.8550   73.6870  222.4670 N   0  0  0  0  0  0  0  0  0  0  0  0
  140.6200   71.8500  224.5250 C   0  0  0  0  0  0  0  0  0  0  0  0
  139.8180   68.4754  228.5597 H   0  0  0  0  0  0  0  0  0  0  0  0
  141.5962   70.2349  228.7352 H   0  0  0  0  0  0  0  0  0  0  0  0
  141.8980   71.7660  226.8027 H   0  0  0  0  0  0  0  0  0  0  0  0
  138.4451   68.3024  226.5293 H   0  0  0  0  0  0  0  0  0  0  0  0
  138.0987   68.8857  224.1877 H   0  0  0  0  0  0  0  0  0  0  0  0
  137.7925   70.6234  224.2594 H   0  0  0  0  0  0  0  0  0  0  0  0
  140.4431   69.3752  223.2360 H   0  0  0  0  0  0  0  0  0  0  0  0
  139.1460   69.8707  222.1474 H   0  0  0  0  0  0  0  0  0  0  0  0
  138.8040   72.1360  218.1530 H   0  0  0  0  0  0  0  0  0  0  0  0
  140.3980   72.7251  216.6487 H   0  0  0  0  0  0  0  0  0  0  0  0
  141.4395   74.1908  218.8713 H   0  0  0  0  0  0  0  0  0  0  0  0
  141.7959   74.3653  217.1031 H   0  0  0  0  0  0  0  0  0  0  0  0
  143.8719   74.0125  218.3745 H   0  0  0  0  0  0  0  0  0  0  0  0
  143.5610   72.6321  217.2977 H   0  0  0  0  0  0  0  0  0  0  0  0
  142.6521   72.8111  220.1940 H   0  0  0  0  0  0  0  0  0  0  0  0
  146.2628   71.2524  219.8379 H   0  0  0  0  0  0  0  0  0  0  0  0
  145.4507   71.6356  218.3192 H   0  0  0  0  0  0  0  0  0  0  0  0
  147.2036   73.3554  219.4245 H   0  0  0  0  0  0  0  0  0  0  0  0
  145.7912   73.9952  218.6196 H   0  0  0  0  0  0  0  0  0  0  0  0
  146.4128   73.8963  221.5245 H   0  0  0  0  0  0  0  0  0  0  0  0
  145.1137   74.8002  220.7524 H   0  0  0  0  0  0  0  0  0  0  0  0
  145.0860   72.0924  221.9838 H   0  0  0  0  0  0  0  0  0  0  0  0
  143.7157   73.1649  221.6630 H   0  0  0  0  0  0  0  0  0  0  0  0
  141.6096   70.8457  219.7753 H   0  0  0  0  0  0  0  0  0  0  0  0
  143.0436   70.2201  218.8438 H   0  0  0  0  0  0  0  0  0  0  0  0
  140.8874   70.4191  217.5291 H   0  0  0  0  0  0  0  0  0  0  0  0
  142.3327   71.2796  216.8513 H   0  0  0  0  0  0  0  0  0  0  0  0
  137.6698   75.9302  222.5038 H   0  0  0  0  0  0  0  0  0  0  0  0
  138.8550   76.3112  223.7916 H   0  0  0  0  0  0  0  0  0  0  0  0
  138.1366   78.1229  221.4127 H   0  0  0  0  0  0  0  0  0  0  0  0
  137.5923   78.3603  223.0970 H   0  0  0  0  0  0  0  0  0  0  0  0
  138.7956   80.2180  223.9736 H   0  0  0  0  0  0  0  0  0  0  0  0
  141.0082   81.2743  224.4092 H   0  0  0  0  0  0  0  0  0  0  0  0
  143.0630   80.3105  223.4615 H   0  0  0  0  0  0  0  0  0  0  0  0
  142.9954   78.2458  222.0426 H   0  0  0  0  0  0  0  0  0  0  0  0
  140.5068   77.1495  220.3524 H   0  0  0  0  0  0  0  0  0  0  0  0
  141.6906   76.3245  221.4370 H   0  0  0  0  0  0  0  0  0  0  0  0
  141.7081   71.9474  224.3963 H   0  0  0  0  0  0  0  0  0  0  0  0
  140.1539   72.8053  224.8081 H   0  0  0  0  0  0  0  0  0  0  0  0
  1  2  2  0
  2  3  1  0
  3  4  2  0
  4  5  1  0
  5  6  2  0
  5  7  1  0
  7  8  1  0
  8  9  1  0
  9 10  1  0
 10 11  2  0
 11 12  1  0
 12 13  1  0
 13 14  1  0
 14 15  1  0
 15 16  1  0
 16 17  1  0
 17 18  1  0
 18 19  1  0
 19 20  1  0
 20 21  1  0
 21 22  1  0
 17 23  1  0
 23 24  1  0
 12 25  2  0
 25 26  1  0
 26 27  1  0
 27 28  1  0
 28 29  1  0
 29 30  1  0
 30 31  2  0
 31 32  1  0
 32 33  2  0
 33 34  1  0
 34 35  2  0
 35 36  1  0
 26 37  2  0
  9 38  1  0
  6  1  1  0
 37 10  1  0
 38  4  1  0
 24 14  1  0
 36 27  1  0
 22 18  1  0
 35 30  1  0
  1 39  1  0
  2 40  1  0
  3 41  1  0
  6 42  1  0
  7 43  1  0
  7 44  1  0
  8 45  1  0
  8 46  1  0
 13 47  1  0
 14 48  1  6
 15 49  1  0
 15 50  1  0
 16 51  1  0
 16 52  1  0
 17 53  1  1
 19 54  1  0
 19 55  1  0
 20 56  1  0
 20 57  1  0
 21 58  1  0
 21 59  1  0
 22 60  1  0
 22 61  1  0
 23 62  1  0
 23 63  1  0
 24 64  1  0
 24 65  1  0
 28 66  1  0
 28 67  1  0
 29 68  1  0
 29 69  1  0
 31 70  1  0
 32 71  1  0
 33 72  1  0
 34 73  1  0
 36 74  1  0
 36 75  1  0
 38 76  1  0
 38 77  1  0
M  END
>  <smiles>  (26) 
c1ccc2c(c1)CCN(c1nc(N[C@H]3CC[C@H](N4CCCC4)CC3)nc(N3CCc4ccccc4C3)n1)C2

>  <score_type>  (26) 
oracle

>  <origin>  (26) 
autodockgpu

>  <m_score__min__energy>  (26) 
-11.02

>  <m_primary>  (26) 
energy

>  <rmsd>  (26) 
8.382911398426925

>  <m_score__min__rmsd>  (26) 
8.382911398426925

>  <meeko>  (26) 
{"free_energy": -9.55, "intermolecular_energy": -11.05, "internal_energy": -1.91, "cluster_size": 32, "cluster_id": 2, "rank_in_cluster": 15}

>  <energy>  (26) 
-9.38

>  <cluster_rmsd>  (26) 
1.84

>  <cluster>  (26) 
2

$$$$

     RDKit          3D

 77 83  0  0  0  0  0  0  0  0999 V2000
  138.8330   68.3170  226.2500 C   0  0  0  0  0  0  0  0  0  0  0  0
  140.0640   68.7110  226.7440 C   0  0  0  0  0  0  0  0  0  0  0  0
  140.7470   69.6570  226.0080 C   0  0  0  0  0  0  0  0  0  0  0  0
  140.2570   70.1970  224.8420 C   0  0  0  0  0  0  0  0  0  0  0  0
  139.0440   69.8030  224.3620 C   0  0  0  0  0  0  0  0  0  0  0  0
  138.3420   68.8580  225.0820 C   0  0  0  0  0  0  0  0  0  0  0  0
  138.5510   70.4080  223.1040 C   0  0  0  0  0  0  0  0  0  0  0  0
  139.7720   70.4540  222.1730 C   0  0  0  0  0  0  0  0  0  0  0  0
  140.6670   71.4220  222.7750 N   0  0  0  0  0  0  0  0  0  0  0  0
  141.1340   72.5510  222.0680 C   0  0  0  0  0  0  0  0  0  0  0  0
  142.1270   72.4920  221.1680 N   0  0  0  0  0  0  0  0  0  0  0  0
  142.5670   73.5520  220.5000 C   0  0  0  0  0  0  0  0  0  0  0  0
  143.6170   73.4900  219.5520 N   0  0  0  0  0  0  0  0  0  0  0  0
  143.6160   72.6660  218.3760 C   0  0  1  0  0  0  0  0  0  0  0  0
  145.0120   72.3330  217.8990 C   0  0  0  0  0  0  0  0  0  0  0  0
  145.2290   70.8360  217.8130 C   0  0  0  0  0  0  0  0  0  0  0  0
  145.0800   70.2920  219.2020 C   0  0  2  0  0  0  0  0  0  0  0  0
  145.6340   69.0370  219.4820 N   0  0  0  0  0  0  0  0  0  0  0  0
  144.8720   68.0290  220.0980 C   0  0  0  0  0  0  0  0  0  0  0  0
  144.2800   67.2530  218.9770 C   0  0  0  0  0  0  0  0  0  0  0  0
  145.3510   67.3550  217.9090 C   0  0  0  0  0  0  0  0  0  0  0  0
  146.3170   68.3650  218.4420 C   0  0  0  0  0  0  0  0  0  0  0  0
  143.6370   70.4670  219.5900 C   0  0  0  0  0  0  0  0  0  0  0  0
  142.8760   71.3800  218.6300 C   0  0  0  0  0  0  0  0  0  0  0  0
  141.9730   74.7380  220.7510 N   0  0  0  0  0  0  0  0  0  0  0  0
  140.9840   74.8600  221.6310 C   0  0  0  0  0  0  0  0  0  0  0  0
  140.3260   76.0930  221.9280 N   0  0  0  0  0  0  0  0  0  0  0  0
  138.9870   76.1120  222.4960 C   0  0  0  0  0  0  0  0  0  0  0  0
  138.3130   77.4330  222.1250 C   0  0  0  0  0  0  0  0  0  0  0  0
  139.1400   78.5430  222.6730 C   0  0  0  0  0  0  0  0  0  0  0  0
  138.5790   79.5720  223.3840 C   0  0  0  0  0  0  0  0  0  0  0  0
  139.4190   80.5580  223.8560 C   0  0  0  0  0  0  0  0  0  0  0  0
  140.7780   80.5050  223.6150 C   0  0  0  0  0  0  0  0  0  0  0  0
  141.3590   79.4600  222.8910 C   0  0  0  0  0  0  0  0  0  0  0  0
  140.5060   78.4650  222.4170 C   0  0  0  0  0  0  0  0  0  0  0  0
  141.0610   77.3230  221.6360 C   0  0  0  0  0  0  0  0  0  0  0  0
  140.5780   73.7580  222.2790 N   0  0  0  0  0  0  0  0  0  0  0  0
  141.0820   71.2020  224.1450 C   0  0  0  0  0  0  0  0  0  0  0  0
  138.2417   67.5658  226.7942 H   0  0  0  0  0  0  0  0  0  0  0  0
  140.4760   68.2922  227.6740 H   0  0  0  0  0  0  0  0  0  0  0  0
  141.7290   69.9950  226.3706 H   0  0  0  0  0  0  0  0  0  0  0  0
  137.3605   68.5266  224.7121 H   0  0  0  0  0  0  0  0  0  0  0  0
  137.7543   69.7895  222.6649 H   0  0  0  0  0  0  0  0  0  0  0  0
  138.1223   71.4075  223.2691 H   0  0  0  0  0  0  0  0  0  0  0  0
  140.2525   69.4661  222.1166 H   0  0  0  0  0  0  0  0  0  0  0  0
  139.4968   70.7298  221.1443 H   0  0  0  0  0  0  0  0  0  0  0  0
  144.4800   74.0900  219.7000 H   0  0  0  0  0  0  0  0  0  0  0  0
  143.1119   73.2500  217.5919 H   0  0  0  0  0  0  0  0  0  0  0  0
  145.7413   72.7597  218.6033 H   0  0  0  0  0  0  0  0  0  0  0  0
  145.1427   72.7583  216.8930 H   0  0  0  0  0  0  0  0  0  0  0  0
  146.2374   70.6217  217.4293 H   0  0  0  0  0  0  0  0  0  0  0  0
  144.5027   70.3723  217.1293 H   0  0  0  0  0  0  0  0  0  0  0  0
  145.7341   70.8800  219.8626 H   0  0  0  0  0  0  0  0  0  0  0  0
  145.5127   67.3847  220.7180 H   0  0  0  0  0  0  0  0  0  0  0  0
  144.1017   68.4435  220.7650 H   0  0  0  0  0  0  0  0  0  0  0  0
  144.1050   66.2063  219.2664 H   0  0  0  0  0  0  0  0  0  0  0  0
  143.2985   67.6289  218.6524 H   0  0  0  0  0  0  0  0  0  0  0  0
  145.8461   66.3839  217.7609 H   0  0  0  0  0  0  0  0  0  0  0  0
  144.9398   67.6452  216.9309 H   0  0  0  0  0  0  0  0  0  0  0  0
  147.2161   67.8664  218.8333 H   0  0  0  0  0  0  0  0  0  0  0  0
  146.6492   69.0617  217.6583 H   0  0  0  0  0  0  0  0  0  0  0  0
  143.5941   70.9029  220.5990 H   0  0  0  0  0  0  0  0  0  0  0  0
  143.1605   69.4762  219.5549 H   0  0  0  0  0  0  0  0  0  0  0  0
  141.8935   71.6147  219.0655 H   0  0  0  0  0  0  0  0  0  0  0  0
  142.7678   70.8528  217.6706 H   0  0  0  0  0  0  0  0  0  0  0  0
  138.4022   75.2724  222.0922 H   0  0  0  0  0  0  0  0  0  0  0  0
  139.0439   76.0159  223.5903 H   0  0  0  0  0  0  0  0  0  0  0  0
  138.2458   77.5230  221.0308 H   0  0  0  0  0  0  0  0  0  0  0  0
  137.2961   77.4729  222.5425 H   0  0  0  0  0  0  0  0  0  0  0  0
  137.4957   79.6097  223.5715 H   0  0  0  0  0  0  0  0  0  0  0  0
  139.0018   81.3973  224.4317 H   0  0  0  0  0  0  0  0  0  0  0  0
  141.4214   81.3080  224.0039 H   0  0  0  0  0  0  0  0  0  0  0  0
  142.4423   79.4245  222.7035 H   0  0  0  0  0  0  0  0  0  0  0  0
  140.9796   77.5463  220.5620 H   0  0  0  0  0  0  0  0  0  0  0  0
  142.1150   77.1809  221.9168 H   0  0  0  0  0  0  0  0  0  0  0  0
  142.1269   70.8583  224.1440 H   0  0  0  0  0  0  0  0  0  0  0  0
  140.9641   72.1548  224.6820 H   0  0  0  0  0  0  0  0  0  0  0  0
  1  2  2  0
  2  3  1  0
  3  4  2  0
  4  5  1  0
  5  6  2  0
  5  7  1  0
  7  8  1  0
  8  9  1  0
  9 10  1  0
 10 11  2  0
 11 12  1  0
 12 13  1  0
 13 14  1  0
 14 15  1  0
 15 16  1  0
 16 17  1  0
 17 18  1  0
 18 19  1  0
 19 20  1  0
 20 21  1  0
 21 22  1  0
 17 23  1  0
 23 24  1  0
 12 25  2  0
 25 26  1  0
 26 27  1  0
 27 28  1  0
 28 29  1  0
 29 30  1  0
 30 31  2  0
 31 32  1  0
 32 33  2  0
 33 34  1  0
 34 35  2  0
 35 36  1  0
 26 37  2  0
  9 38  1  0
  6  1  1  0
 37 10  1  0
 38  4  1  0
 24 14  1  0
 36 27  1  0
 22 18  1  0
 35 30  1  0
  1 39  1  0
  2 40  1  0
  3 41  1  0
  6 42  1  0
  7 43  1  0
  7 44  1  0
  8 45  1  0
  8 46  1  0
 13 47  1  0
 14 48  1  6
 15 49  1  0
 15 50  1  0
 16 51  1  0
 16 52  1  0
 17 53  1  1
 19 54  1  0
 19 55  1  0
 20 56  1  0
 20 57  1  0
 21 58  1  0
 21 59  1  0
 22 60  1  0
 22 61  1  0
 23 62  1  0
 23 63  1  0
 24 64  1  0
 24 65  1  0
 28 66  1  0
 28 67  1  0
 29 68  1  0
 29 69  1  0
 31 70  1  0
 32 71  1  0
 33 72  1  0
 34 73  1  0
 36 74  1  0
 36 75  1  0
 38 76  1  0
 38 77  1  0
M  END
>  <smiles>  (27) 
c1ccc2c(c1)CCN(c1nc(N[C@H]3CC[C@H](N4CCCC4)CC3)nc(N3CCc4ccccc4C3)n1)C2

>  <score_type>  (27) 
oracle

>  <origin>  (27) 
autodockgpu

>  <m_score__min__energy>  (27) 
-11.02

>  <m_primary>  (27) 
energy

>  <rmsd>  (27) 
10.736084738574672

>  <m_score__min__rmsd>  (27) 
10.736084738574672

>  <meeko>  (27) 
{"free_energy": -9.48, "intermolecular_energy": -10.98, "internal_energy": -1.42, "cluster_size": 32, "cluster_id": 2, "rank_in_cluster": 17}

>  <energy>  (27) 
-9.38

>  <cluster_rmsd>  (27) 
1.96

>  <cluster>  (27) 
2

$$$$

     RDKit          3D

 77 83  0  0  0  0  0  0  0  0999 V2000
  140.3770   67.7650  227.4640 C   0  0  0  0  0  0  0  0  0  0  0  0
  139.3850   67.3320  226.6020 C   0  0  0  0  0  0  0  0  0  0  0  0
  139.1710   68.1010  225.4760 C   0  0  0  0  0  0  0  0  0  0  0  0
  139.8900   69.2410  225.2000 C   0  0  0  0  0  0  0  0  0  0  0  0
  140.8650   69.6590  226.0530 C   0  0  0  0  0  0  0  0  0  0  0  0
  141.0970   68.9060  227.1870 C   0  0  0  0  0  0  0  0  0  0  0  0
  141.6160   70.8910  225.7200 C   0  0  0  0  0  0  0  0  0  0  0  0
  140.5600   71.8820  225.2080 C   0  0  0  0  0  0  0  0  0  0  0  0
  140.1010   71.3240  223.9520 N   0  0  0  0  0  0  0  0  0  0  0  0
  140.1570   72.0520  222.7450 C   0  0  0  0  0  0  0  0  0  0  0  0
  140.3770   71.4780  221.5520 N   0  0  0  0  0  0  0  0  0  0  0  0
  140.4270   72.1600  220.4140 C   0  0  0  0  0  0  0  0  0  0  0  0
  140.6620   71.5530  219.1560 N   0  0  0  0  0  0  0  0  0  0  0  0
  141.9540   71.3790  218.5560 C   0  0  1  0  0  0  0  0  0  0  0  0
  142.1130   72.1730  217.2790 C   0  0  0  0  0  0  0  0  0  0  0  0
  143.3040   73.1080  217.3480 C   0  0  0  0  0  0  0  0  0  0  0  0
  143.0330   74.0780  218.4570 C   0  0  2  0  0  0  0  0  0  0  0  0
  143.7450   75.2840  218.4670 N   0  0  0  0  0  0  0  0  0  0  0  0
  143.6660   76.1830  217.3890 C   0  0  0  0  0  0  0  0  0  0  0  0
  142.5580   77.1100  217.7400 C   0  0  0  0  0  0  0  0  0  0  0  0
  142.6570   77.1770  219.2520 C   0  0  0  0  0  0  0  0  0  0  0  0
  143.6400   76.1080  219.6120 C   0  0  0  0  0  0  0  0  0  0  0  0
  143.0610   73.2960  219.7420 C   0  0  0  0  0  0  0  0  0  0  0  0
  143.0430   71.7860  219.5120 C   0  0  0  0  0  0  0  0  0  0  0  0
  140.2460   73.4960  220.4790 N   0  0  0  0  0  0  0  0  0  0  0  0
  140.0230   74.1230  221.6310 C   0  0  0  0  0  0  0  0  0  0  0  0
  139.8250   75.5330  221.7480 N   0  0  0  0  0  0  0  0  0  0  0  0
  138.4890   76.1070  221.7470 C   0  0  0  0  0  0  0  0  0  0  0  0
  138.5730   77.5510  221.2530 C   0  0  0  0  0  0  0  0  0  0  0  0
  139.4740   78.3010  222.1700 C   0  0  0  0  0  0  0  0  0  0  0  0
  139.1170   79.5200  222.6880 C   0  0  0  0  0  0  0  0  0  0  0  0
  140.0110   80.1450  223.5310 C   0  0  0  0  0  0  0  0  0  0  0  0
  141.2230   79.5580  223.8370 C   0  0  0  0  0  0  0  0  0  0  0  0
  141.5960   78.3160  223.3140 C   0  0  0  0  0  0  0  0  0  0  0  0
  140.6880   77.6870  222.4630 C   0  0  0  0  0  0  0  0  0  0  0  0
  141.0240   76.3620  221.8700 C   0  0  0  0  0  0  0  0  0  0  0  0
  139.9820   73.3860  222.7510 N   0  0  0  0  0  0  0  0  0  0  0  0
  139.5690   69.9770  223.9620 C   0  0  0  0  0  0  0  0  0  0  0  0
  140.5925   67.1930  228.3785 H   0  0  0  0  0  0  0  0  0  0  0  0
  138.7983   66.4235  226.8033 H   0  0  0  0  0  0  0  0  0  0  0  0
  138.3902   67.7882  224.7671 H   0  0  0  0  0  0  0  0  0  0  0  0
  141.8799   69.2269  227.8899 H   0  0  0  0  0  0  0  0  0  0  0  0
  142.1178   71.2900  226.6138 H   0  0  0  0  0  0  0  0  0  0  0  0
  142.4005   70.7041  224.9719 H   0  0  0  0  0  0  0  0  0  0  0  0
  139.7274   71.9634  225.9223 H   0  0  0  0  0  0  0  0  0  0  0  0
  140.9693   72.8956  225.0852 H   0  0  0  0  0  0  0  0  0  0  0  0
  139.8360   71.1920  218.5980 H   0  0  0  0  0  0  0  0  0  0  0  0
  142.0375   70.3095  218.3125 H   0  0  0  0  0  0  0  0  0  0  0  0
  141.2022   72.7668  217.1121 H   0  0  0  0  0  0  0  0  0  0  0  0
  142.2780   71.4660  216.4526 H   0  0  0  0  0  0  0  0  0  0  0  0
  143.4185   73.6455  216.3951 H   0  0  0  0  0  0  0  0  0  0  0  0
  144.2330   72.5487  217.5327 H   0  0  0  0  0  0  0  0  0  0  0  0
  142.0356   74.5094  218.2866 H   0  0  0  0  0  0  0  0  0  0  0  0
  144.6107   76.7351  217.2763 H   0  0  0  0  0  0  0  0  0  0  0  0
  143.4860   75.6675  216.4341 H   0  0  0  0  0  0  0  0  0  0  0  0
  142.7093   78.1008  217.2869 H   0  0  0  0  0  0  0  0  0  0  0  0
  141.5742   76.7765  217.3780 H   0  0  0  0  0  0  0  0  0  0  0  0
  143.0207   78.1639  219.5743 H   0  0  0  0  0  0  0  0  0  0  0  0
  141.6828   77.0307  219.7414 H   0  0  0  0  0  0  0  0  0  0  0  0
  144.6166   76.5514  219.8564 H   0  0  0  0  0  0  0  0  0  0  0  0
  143.3148   75.5376  220.4946 H   0  0  0  0  0  0  0  0  0  0  0  0
  142.1806   73.5715  220.3412 H   0  0  0  0  0  0  0  0  0  0  0  0
  143.9989   73.5425  220.2613 H   0  0  0  0  0  0  0  0  0  0  0  0
  142.8782   71.2811  220.4753 H   0  0  0  0  0  0  0  0  0  0  0  0
  144.0091   71.4955  219.0734 H   0  0  0  0  0  0  0  0  0  0  0  0
  137.8372   75.5251  221.0787 H   0  0  0  0  0  0  0  0  0  0  0  0
  138.0719   76.0840  222.7646 H   0  0  0  0  0  0  0  0  0  0  0  0
  138.9792   77.5725  220.2310 H   0  0  0  0  0  0  0  0  0  0  0  0
  137.5730   78.0091  221.2419 H   0  0  0  0  0  0  0  0  0  0  0  0
  138.1506   79.9829  222.4393 H   0  0  0  0  0  0  0  0  0  0  0  0
  139.7559   81.1230  223.9651 H   0  0  0  0  0  0  0  0  0  0  0  0
  141.9152   80.0828  224.5119 H   0  0  0  0  0  0  0  0  0  0  0  0
  142.5634   77.8553  223.5630 H   0  0  0  0  0  0  0  0  0  0  0  0
  141.4619   76.5131  220.8723 H   0  0  0  0  0  0  0  0  0  0  0  0
  141.7426   75.8512  222.5279 H   0  0  0  0  0  0  0  0  0  0  0  0
  138.4751   70.0311  223.8597 H   0  0  0  0  0  0  0  0  0  0  0  0
  140.0325   69.4333  223.1256 H   0  0  0  0  0  0  0  0  0  0  0  0
  1  2  2  0
  2  3  1  0
  3  4  2  0
  4  5  1  0
  5  6  2  0
  5  7  1  0
  7  8  1  0
  8  9  1  0
  9 10  1  0
 10 11  2  0
 11 12  1  0
 12 13  1  0
 13 14  1  0
 14 15  1  0
 15 16  1  0
 16 17  1  0
 17 18  1  0
 18 19  1  0
 19 20  1  0
 20 21  1  0
 21 22  1  0
 17 23  1  0
 23 24  1  0
 12 25  2  0
 25 26  1  0
 26 27  1  0
 27 28  1  0
 28 29  1  0
 29 30  1  0
 30 31  2  0
 31 32  1  0
 32 33  2  0
 33 34  1  0
 34 35  2  0
 35 36  1  0
 26 37  2  0
  9 38  1  0
  6  1  1  0
 37 10  1  0
 38  4  1  0
 24 14  1  0
 36 27  1  0
 22 18  1  0
 35 30  1  0
  1 39  1  0
  2 40  1  0
  3 41  1  0
  6 42  1  0
  7 43  1  0
  7 44  1  0
  8 45  1  0
  8 46  1  0
 13 47  1  0
 14 48  1  6
 15 49  1  0
 15 50  1  0
 16 51  1  0
 16 52  1  0
 17 53  1  6
 19 54  1  0
 19 55  1  0
 20 56  1  0
 20 57  1  0
 21 58  1  0
 21 59  1  0
 22 60  1  0
 22 61  1  0
 23 62  1  0
 23 63  1  0
 24 64  1  0
 24 65  1  0
 28 66  1  0
 28 67  1  0
 29 68  1  0
 29 69  1  0
 31 70  1  0
 32 71  1  0
 33 72  1  0
 34 73  1  0
 36 74  1  0
 36 75  1  0
 38 76  1  0
 38 77  1  0
M  END
>  <smiles>  (28) 
c1ccc2c(c1)CCN(c1nc(N[C@H]3CC[C@H](N4CCCC4)CC3)nc(N3CCc4ccccc4C3)n1)C2

>  <score_type>  (28) 
oracle

>  <origin>  (28) 
autodockgpu

>  <m_score__min__energy>  (28) 
-11.02

>  <m_primary>  (28) 
energy

>  <rmsd>  (28) 
7.613580772748323

>  <m_score__min__rmsd>  (28) 
7.613580772748323

>  <meeko>  (28) 
{"free_energy": -9.27, "intermolecular_energy": -10.76, "internal_energy": -2.06, "cluster_size": 32, "cluster_id": 2, "rank_in_cluster": 24}

>  <energy>  (28) 
-9.32

>  <cluster_rmsd>  (28) 
1.66

>  <cluster>  (28) 
2

$$$$

     RDKit          3D

 77 83  0  0  0  0  0  0  0  0999 V2000
  141.3450   81.0630  222.6230 C   0  0  0  0  0  0  0  0  0  0  0  0
  141.1660   80.4110  223.8300 C   0  0  0  0  0  0  0  0  0  0  0  0
  141.0910   79.0330  223.7780 C   0  0  0  0  0  0  0  0  0  0  0  0
  141.1850   78.3210  222.6050 C   0  0  0  0  0  0  0  0  0  0  0  0
  141.3610   78.9720  221.4220 C   0  0  0  0  0  0  0  0  0  0  0  0
  141.4390   80.3490  221.4480 C   0  0  0  0  0  0  0  0  0  0  0  0
  141.4580   78.1690  220.1810 C   0  0  0  0  0  0  0  0  0  0  0  0
  140.3750   77.0880  220.3140 C   0  0  0  0  0  0  0  0  0  0  0  0
  140.8280   76.2350  221.3950 N   0  0  0  0  0  0  0  0  0  0  0  0
  141.0120   74.8470  221.2270 C   0  0  0  0  0  0  0  0  0  0  0  0
  141.6860   74.3170  220.1940 N   0  0  0  0  0  0  0  0  0  0  0  0
  141.8630   73.0110  220.0350 C   0  0  0  0  0  0  0  0  0  0  0  0
  142.5720   72.4520  218.9440 N   0  0  0  0  0  0  0  0  0  0  0  0
  143.9700   72.6500  218.6830 C   0  0  1  0  0  0  0  0  0  0  0  0
  144.8320   72.3720  219.8930 C   0  0  0  0  0  0  0  0  0  0  0  0
  145.8810   71.3180  219.6010 C   0  0  0  0  0  0  0  0  0  0  0  0
  145.1490   70.0550  219.2630 C   0  0  2  0  0  0  0  0  0  0  0  0
  145.8440   68.8430  219.3630 N   0  0  0  0  0  0  0  0  0  0  0  0
  145.3280   67.7710  220.1110 C   0  0  0  0  0  0  0  0  0  0  0  0
  144.5420   66.9660  219.1390 C   0  0  0  0  0  0  0  0  0  0  0  0
  145.3160   67.1650  217.8510 C   0  0  0  0  0  0  0  0  0  0  0  0
  146.3060   68.2410  218.1700 C   0  0  0  0  0  0  0  0  0  0  0  0
  144.4440   70.2930  217.9560 C   0  0  0  0  0  0  0  0  0  0  0  0
  144.4290   71.7670  217.5530 C   0  0  0  0  0  0  0  0  0  0  0  0
  141.3330   72.1900  220.9670 N   0  0  0  0  0  0  0  0  0  0  0  0
  140.6550   72.6550  222.0130 C   0  0  0  0  0  0  0  0  0  0  0  0
  140.0780   71.8270  223.0230 N   0  0  0  0  0  0  0  0  0  0  0  0
  138.9250   70.9880  222.7390 C   0  0  0  0  0  0  0  0  0  0  0  0
  138.1630   70.7400  224.0410 C   0  0  0  0  0  0  0  0  0  0  0  0
  139.0870   70.0690  224.9960 C   0  0  0  0  0  0  0  0  0  0  0  0
  138.7100   68.9500  225.6940 C   0  0  0  0  0  0  0  0  0  0  0  0
  139.6290   68.3930  226.5570 C   0  0  0  0  0  0  0  0  0  0  0  0
  140.8840   68.9490  226.7090 C   0  0  0  0  0  0  0  0  0  0  0  0
  141.2780   70.0890  226.0020 C   0  0  0  0  0  0  0  0  0  0  0  0
  140.3450   70.6490  225.1300 C   0  0  0  0  0  0  0  0  0  0  0  0
  140.7000   71.8650  224.3460 C   0  0  0  0  0  0  0  0  0  0  0  0
  140.5050   73.9830  222.1260 N   0  0  0  0  0  0  0  0  0  0  0  0
  141.0920   76.8510  222.6800 C   0  0  0  0  0  0  0  0  0  0  0  0
  141.4129   82.1607  222.6010 H   0  0  0  0  0  0  0  0  0  0  0  0
  141.0877   80.9605  224.7797 H   0  0  0  0  0  0  0  0  0  0  0  0
  140.9496   78.4794  224.7179 H   0  0  0  0  0  0  0  0  0  0  0  0
  141.5804   80.8934  220.5027 H   0  0  0  0  0  0  0  0  0  0  0  0
  141.2685   78.7982  219.2988 H   0  0  0  0  0  0  0  0  0  0  0  0
  142.4596   77.7332  220.0510 H   0  0  0  0  0  0  0  0  0  0  0  0
  139.4038   77.5418  220.5605 H   0  0  0  0  0  0  0  0  0  0  0  0
  140.2323   76.5284  219.3778 H   0  0  0  0  0  0  0  0  0  0  0  0
  142.0520   71.8360  218.2540 H   0  0  0  0  0  0  0  0  0  0  0  0
  144.0849   73.7100  218.4124 H   0  0  0  0  0  0  0  0  0  0  0  0
  144.1910   72.0195  220.7145 H   0  0  0  0  0  0  0  0  0  0  0  0
  145.3480   73.3035  220.1689 H   0  0  0  0  0  0  0  0  0  0  0  0
  146.5161   71.1616  220.4854 H   0  0  0  0  0  0  0  0  0  0  0  0
  146.5310   71.6299  218.7702 H   0  0  0  0  0  0  0  0  0  0  0  0
  144.4235   69.8640  220.0674 H   0  0  0  0  0  0  0  0  0  0  0  0
  146.1440   67.1706  220.5396 H   0  0  0  0  0  0  0  0  0  0  0  0
  144.7127   68.1150  220.9554 H   0  0  0  0  0  0  0  0  0  0  0  0
  144.5174   65.9051  219.4287 H   0  0  0  0  0  0  0  0  0  0  0  0
  143.4868   67.2687  219.0691 H   0  0  0  0  0  0  0  0  0  0  0  0
  145.8305   66.2375  217.5595 H   0  0  0  0  0  0  0  0  0  0  0  0
  144.6626   67.4349  217.0083 H   0  0  0  0  0  0  0  0  0  0  0  0
  147.3066   67.8095  218.3204 H   0  0  0  0  0  0  0  0  0  0  0  0
  146.3899   68.9717  217.3520 H   0  0  0  0  0  0  0  0  0  0  0  0
  143.4053   69.9428  218.0477 H   0  0  0  0  0  0  0  0  0  0  0  0
  144.9923   69.7417  217.1779 H   0  0  0  0  0  0  0  0  0  0  0  0
  143.7465   71.8962  216.7001 H   0  0  0  0  0  0  0  0  0  0  0  0
  145.4552   72.0592  217.2853 H   0  0  0  0  0  0  0  0  0  0  0  0
  138.2679   71.4948  222.0169 H   0  0  0  0  0  0  0  0  0  0  0  0
  139.2562   70.0300  222.3117 H   0  0  0  0  0  0  0  0  0  0  0  0
  137.8223   71.6974  224.4620 H   0  0  0  0  0  0  0  0  0  0  0  0
  137.2829   70.1073  223.8533 H   0  0  0  0  0  0  0  0  0  0  0  0
  137.7086   68.5122  225.5693 H   0  0  0  0  0  0  0  0  0  0  0  0
  139.3596   67.4946  227.1317 H   0  0  0  0  0  0  0  0  0  0  0  0
  141.5943   68.4813  227.4066 H   0  0  0  0  0  0  0  0  0  0  0  0
  142.2800   70.5250  226.1281 H   0  0  0  0  0  0  0  0  0  0  0  0
  140.3485   72.7573  224.8847 H   0  0  0  0  0  0  0  0  0  0  0  0
  141.7925   71.8995  224.2222 H   0  0  0  0  0  0  0  0  0  0  0  0
  140.2774   76.5859  223.3700 H   0  0  0  0  0  0  0  0  0  0  0  0
  142.0650   76.4768  223.0311 H   0  0  0  0  0  0  0  0  0  0  0  0
  1  2  2  0
  2  3  1  0
  3  4  2  0
  4  5  1  0
  5  6  2  0
  5  7  1  0
  7  8  1  0
  8  9  1  0
  9 10  1  0
 10 11  2  0
 11 12  1  0
 12 13  1  0
 13 14  1  0
 14 15  1  0
 15 16  1  0
 16 17  1  0
 17 18  1  0
 18 19  1  0
 19 20  1  0
 20 21  1  0
 21 22  1  0
 17 23  1  0
 23 24  1  0
 12 25  2  0
 25 26  1  0
 26 27  1  0
 27 28  1  0
 28 29  1  0
 29 30  1  0
 30 31  2  0
 31 32  1  0
 32 33  2  0
 33 34  1  0
 34 35  2  0
 35 36  1  0
 26 37  2  0
  9 38  1  0
  6  1  1  0
 37 10  1  0
 38  4  1  0
 24 14  1  0
 36 27  1  0
 22 18  1  0
 35 30  1  0
  1 39  1  0
  2 40  1  0
  3 41  1  0
  6 42  1  0
  7 43  1  0
  7 44  1  0
  8 45  1  0
  8 46  1  0
 13 47  1  0
 14 48  1  6
 15 49  1  0
 15 50  1  0
 16 51  1  0
 16 52  1  0
 17 53  1  1
 19 54  1  0
 19 55  1  0
 20 56  1  0
 20 57  1  0
 21 58  1  0
 21 59  1  0
 22 60  1  0
 22 61  1  0
 23 62  1  0
 23 63  1  0
 24 64  1  0
 24 65  1  0
 28 66  1  0
 28 67  1  0
 29 68  1  0
 29 69  1  0
 31 70  1  0
 32 71  1  0
 33 72  1  0
 34 73  1  0
 36 74  1  0
 36 75  1  0
 38 76  1  0
 38 77  1  0
M  END
>  <smiles>  (29) 
c1ccc2c(c1)CCN(c1nc(N[C@H]3CC[C@H](N4CCCC4)CC3)nc(N3CCc4ccccc4C3)n1)C2

>  <score_type>  (29) 
oracle

>  <origin>  (29) 
autodockgpu

>  <m_score__min__energy>  (29) 
-11.02

>  <m_primary>  (29) 
energy

>  <rmsd>  (29) 
10.709016013696605

>  <m_score__min__rmsd>  (29) 
10.709016013696605

>  <meeko>  (29) 
{"free_energy": -10.45, "intermolecular_energy": -11.94, "internal_energy": -1.33, "cluster_size": 32, "cluster_id": 2, "rank_in_cluster": 1}

>  <energy>  (29) 
-9.31

>  <cluster_rmsd>  (29) 
1.81

>  <cluster>  (29) 
2

$$$$

     RDKit          3D

 77 83  0  0  0  0  0  0  0  0999 V2000
  145.9700   70.3860  217.8220 C   0  0  0  0  0  0  0  0  0  0  0  0
  145.4810   69.4730  218.7400 C   0  0  0  0  0  0  0  0  0  0  0  0
  144.4770   69.9190  219.5750 C   0  0  0  0  0  0  0  0  0  0  0  0
  143.9700   71.1970  219.5210 C   0  0  0  0  0  0  0  0  0  0  0  0
  144.4570   72.0890  218.6150 C   0  0  0  0  0  0  0  0  0  0  0  0
  145.4620   71.6650  217.7690 C   0  0  0  0  0  0  0  0  0  0  0  0
  143.8850   73.4550  218.5890 C   0  0  0  0  0  0  0  0  0  0  0  0
  143.7330   73.8570  220.0630 C   0  0  0  0  0  0  0  0  0  0  0  0
  142.7000   72.9840  220.5850 N   0  0  0  0  0  0  0  0  0  0  0  0
  141.5320   73.4890  221.1950 C   0  0  0  0  0  0  0  0  0  0  0  0
  140.5210   72.7060  221.6020 N   0  0  0  0  0  0  0  0  0  0  0  0
  139.4220   73.1780  222.1790 C   0  0  0  0  0  0  0  0  0  0  0  0
  138.3540   72.3510  222.6070 N   0  0  0  0  0  0  0  0  0  0  0  0
  138.2700   70.9360  222.3830 C   0  0  1  0  0  0  0  0  0  0  0  0
  139.5460   70.2120  222.7470 C   0  0  0  0  0  0  0  0  0  0  0  0
  139.2960   69.1220  223.7700 C   0  0  0  0  0  0  0  0  0  0  0  0
  138.7840   69.7950  225.0080 C   0  0  2  0  0  0  0  0  0  0  0  0
  138.8720   69.0990  226.2210 N   0  0  0  0  0  0  0  0  0  0  0  0
  139.2850   67.7560  226.2580 C   0  0  0  0  0  0  0  0  0  0  0  0
  140.7570   67.8110  226.4570 C   0  0  0  0  0  0  0  0  0  0  0  0
  140.9260   69.0610  227.2990 C   0  0  0  0  0  0  0  0  0  0  0  0
  139.5760   69.7070  227.2850 C   0  0  0  0  0  0  0  0  0  0  0  0
  137.4270   70.3510  224.6750 C   0  0  0  0  0  0  0  0  0  0  0  0
  137.1370   70.3400  223.1750 C   0  0  0  0  0  0  0  0  0  0  0  0
  139.3350   74.5140  222.3560 N   0  0  0  0  0  0  0  0  0  0  0  0
  140.3030   75.3410  221.9740 C   0  0  0  0  0  0  0  0  0  0  0  0
  140.2550   76.7590  222.1420 N   0  0  0  0  0  0  0  0  0  0  0  0
  139.0820   77.4110  222.7010 C   0  0  0  0  0  0  0  0  0  0  0  0
  139.0300   78.8520  222.1950 C   0  0  0  0  0  0  0  0  0  0  0  0
  140.2770   79.5390  222.6280 C   0  0  0  0  0  0  0  0  0  0  0  0
  140.2460   80.7710  223.2290 C   0  0  0  0  0  0  0  0  0  0  0  0
  141.4490   81.3340  223.5990 C   0  0  0  0  0  0  0  0  0  0  0  0
  142.6400   80.6740  223.3690 C   0  0  0  0  0  0  0  0  0  0  0  0
  142.6820   79.4170  222.7580 C   0  0  0  0  0  0  0  0  0  0  0  0
  141.4630   78.8520  222.3850 C   0  0  0  0  0  0  0  0  0  0  0  0
  141.4370   77.5150  221.7280 C   0  0  0  0  0  0  0  0  0  0  0  0
  141.3920   74.8120  221.3970 N   0  0  0  0  0  0  0  0  0  0  0  0
  142.8950   71.5540  220.4670 C   0  0  0  0  0  0  0  0  0  0  0  0
  146.7707   70.0878  217.1293 H   0  0  0  0  0  0  0  0  0  0  0  0
  145.8718   68.4466  218.8008 H   0  0  0  0  0  0  0  0  0  0  0  0
  144.0631   69.2210  220.3176 H   0  0  0  0  0  0  0  0  0  0  0  0
  145.8696   72.3703  217.0298 H   0  0  0  0  0  0  0  0  0  0  0  0
  144.5632   74.1472  218.0685 H   0  0  0  0  0  0  0  0  0  0  0  0
  142.9249   73.4881  218.0531 H   0  0  0  0  0  0  0  0  0  0  0  0
  144.6781   73.7047  220.6048 H   0  0  0  0  0  0  0  0  0  0  0  0
  143.4726   74.9196  220.1769 H   0  0  0  0  0  0  0  0  0  0  0  0
  137.5460   72.7890  223.1350 H   0  0  0  0  0  0  0  0  0  0  0  0
  138.0947   70.8062  221.3048 H   0  0  0  0  0  0  0  0  0  0  0  0
  140.2609   70.9363  223.1644 H   0  0  0  0  0  0  0  0  0  0  0  0
  139.9480   69.7439  221.8364 H   0  0  0  0  0  0  0  0  0  0  0  0
  140.2321   68.5876  223.9897 H   0  0  0  0  0  0  0  0  0  0  0  0
  138.5697   68.3872  223.3925 H   0  0  0  0  0  0  0  0  0  0  0  0
  139.4840   70.6043  225.2631 H   0  0  0  0  0  0  0  0  0  0  0  0
  138.8018   67.2258  227.0919 H   0  0  0  0  0  0  0  0  0  0  0  0
  139.0123   67.2146  225.3401 H   0  0  0  0  0  0  0  0  0  0  0  0
  141.1199   66.9200  226.9903 H   0  0  0  0  0  0  0  0  0  0  0  0
  141.3268   67.8346  225.5164 H   0  0  0  0  0  0  0  0  0  0  0  0
  141.2221   68.8010  228.3260 H   0  0  0  0  0  0  0  0  0  0  0  0
  141.7117   69.7250  226.9093 H   0  0  0  0  0  0  0  0  0  0  0  0
  139.0567   69.5310  228.2386 H   0  0  0  0  0  0  0  0  0  0  0  0
  139.6488   70.7967  227.1534 H   0  0  0  0  0  0  0  0  0  0  0  0
  137.3736   71.3887  225.0361 H   0  0  0  0  0  0  0  0  0  0  0  0
  136.6770   69.7112  225.1630 H   0  0  0  0  0  0  0  0  0  0  0  0
  136.2238   70.9230  222.9845 H   0  0  0  0  0  0  0  0  0  0  0  0
  137.0111   69.2941  222.8584 H   0  0  0  0  0  0  0  0  0  0  0  0
  138.1752   76.8751  222.3840 H   0  0  0  0  0  0  0  0  0  0  0  0
  139.1385   77.4030  223.7995 H   0  0  0  0  0  0  0  0  0  0  0  0
  138.9621   78.8595  221.0971 H   0  0  0  0  0  0  0  0  0  0  0  0
  138.1488   79.3680  222.6039 H   0  0  0  0  0  0  0  0  0  0  0  0
  139.2943   81.2922  223.4097 H   0  0  0  0  0  0  0  0  0  0  0  0
  141.4602   82.3215  224.0836 H   0  0  0  0  0  0  0  0  0  0  0  0
  143.5828   81.1509  223.6753 H   0  0  0  0  0  0  0  0  0  0  0  0
  143.6346   78.8968  222.5795 H   0  0  0  0  0  0  0  0  0  0  0  0
  141.4158   77.6493  220.6364 H   0  0  0  0  0  0  0  0  0  0  0  0
  142.3366   76.9566  222.0261 H   0  0  0  0  0  0  0  0  0  0  0  0
  143.1518   71.1518  221.4581 H   0  0  0  0  0  0  0  0  0  0  0  0
  141.9591   71.1241  220.0806 H   0  0  0  0  0  0  0  0  0  0  0  0
  1  2  2  0
  2  3  1  0
  3  4  2  0
  4  5  1  0
  5  6  2  0
  5  7  1  0
  7  8  1  0
  8  9  1  0
  9 10  1  0
 10 11  2  0
 11 12  1  0
 12 13  1  0
 13 14  1  0
 14 15  1  0
 15 16  1  0
 16 17  1  0
 17 18  1  0
 18 19  1  0
 19 20  1  0
 20 21  1  0
 21 22  1  0
 17 23  1  0
 23 24  1  0
 12 25  2  0
 25 26  1  0
 26 27  1  0
 27 28  1  0
 28 29  1  0
 29 30  1  0
 30 31  2  0
 31 32  1  0
 32 33  2  0
 33 34  1  0
 34 35  2  0
 35 36  1  0
 26 37  2  0
  9 38  1  0
  6  1  1  0
 37 10  1  0
 38  4  1  0
 24 14  1  0
 36 27  1  0
 22 18  1  0
 35 30  1  0
  1 39  1  0
  2 40  1  0
  3 41  1  0
  6 42  1  0
  7 43  1  0
  7 44  1  0
  8 45  1  0
  8 46  1  0
 13 47  1  0
 14 48  1  6
 15 49  1  0
 15 50  1  0
 16 51  1  0
 16 52  1  0
 17 53  1  1
 19 54  1  0
 19 55  1  0
 20 56  1  0
 20 57  1  0
 21 58  1  0
 21 59  1  0
 22 60  1  0
 22 61  1  0
 23 62  1  0
 23 63  1  0
 24 64  1  0
 24 65  1  0
 28 66  1  0
 28 67  1  0
 29 68  1  0
 29 69  1  0
 31 70  1  0
 32 71  1  0
 33 72  1  0
 34 73  1  0
 36 74  1  0
 36 75  1  0
 38 76  1  0
 38 77  1  0
M  END
>  <smiles>  (30) 
c1ccc2c(c1)CCN(c1nc(N[C@H]3CC[C@H](N4CCCC4)CC3)nc(N3CCc4ccccc4C3)n1)C2

>  <score_type>  (30) 
oracle

>  <origin>  (30) 
autodockgpu

>  <m_score__min__energy>  (30) 
-11.02

>  <m_primary>  (30) 
energy

>  <rmsd>  (30) 
11.66237013058327

>  <m_score__min__rmsd>  (30) 
11.66237013058327

>  <meeko>  (30) 
{"free_energy": -10.25, "intermolecular_energy": -11.74, "internal_energy": -1.37, "cluster_size": 7, "cluster_id": 1, "rank_in_cluster": 6}

>  <energy>  (30) 
-9.3

>  <cluster_rmsd>  (30) 
1.8

>  <cluster>  (30) 
2

$$$$

     RDKit          3D

 77 83  0  0  0  0  0  0  0  0999 V2000
  139.9620   69.3400  228.2100 C   0  0  0  0  0  0  0  0  0  0  0  0
  140.9240   70.3300  228.3040 C   0  0  0  0  0  0  0  0  0  0  0  0
  141.1070   71.1180  227.1860 C   0  0  0  0  0  0  0  0  0  0  0  0
  140.3860   70.9510  226.0260 C   0  0  0  0  0  0  0  0  0  0  0  0
  139.4420   69.9740  225.9420 C   0  0  0  0  0  0  0  0  0  0  0  0
  139.2410   69.1740  227.0480 C   0  0  0  0  0  0  0  0  0  0  0  0
  138.6880   69.8260  224.6760 C   0  0  0  0  0  0  0  0  0  0  0  0
  139.7330   69.9880  223.5620 C   0  0  0  0  0  0  0  0  0  0  0  0
  140.1490   71.3740  223.6370 N   0  0  0  0  0  0  0  0  0  0  0  0
  140.0600   72.2440  222.5300 C   0  0  0  0  0  0  0  0  0  0  0  0
  140.1240   71.8210  221.2580 N   0  0  0  0  0  0  0  0  0  0  0  0
  140.0370   72.6360  220.2140 C   0  0  0  0  0  0  0  0  0  0  0  0
  140.1070   72.1890  218.8720 N   0  0  0  0  0  0  0  0  0  0  0  0
  141.3220   71.9750  218.1390 C   0  0  1  0  0  0  0  0  0  0  0  0
  141.4220   72.8510  216.9110 C   0  0  0  0  0  0  0  0  0  0  0  0
  142.6790   73.6960  216.9300 C   0  0  0  0  0  0  0  0  0  0  0  0
  142.5830   74.5960  218.1250 C   0  0  2  0  0  0  0  0  0  0  0  0
  143.3810   75.7470  218.1500 N   0  0  0  0  0  0  0  0  0  0  0  0
  143.3460   76.6760  217.0950 C   0  0  0  0  0  0  0  0  0  0  0  0
  142.3150   77.6700  217.4910 C   0  0  0  0  0  0  0  0  0  0  0  0
  142.4460   77.6920  219.0010 C   0  0  0  0  0  0  0  0  0  0  0  0
  143.3560   76.5470  219.3150 C   0  0  0  0  0  0  0  0  0  0  0  0
  142.6710   73.7180  219.3430 C   0  0  0  0  0  0  0  0  0  0  0  0
  142.5210   72.2340  219.0130 C   0  0  0  0  0  0  0  0  0  0  0  0
  139.8760   73.9540  220.4640 N   0  0  0  0  0  0  0  0  0  0  0  0
  139.8050   74.4340  221.7010 C   0  0  0  0  0  0  0  0  0  0  0  0
  139.6350   75.8180  222.0130 N   0  0  0  0  0  0  0  0  0  0  0  0
  138.4470   76.2920  222.7050 C   0  0  0  0  0  0  0  0  0  0  0  0
  138.2230   77.7610  222.3500 C   0  0  0  0  0  0  0  0  0  0  0  0
  139.4270   78.5280  222.7740 C   0  0  0  0  0  0  0  0  0  0  0  0
  139.3210   79.6890  223.4960 C   0  0  0  0  0  0  0  0  0  0  0  0
  140.4880   80.3330  223.8470 C   0  0  0  0  0  0  0  0  0  0  0  0
  141.7180   79.8220  223.4800 C   0  0  0  0  0  0  0  0  0  0  0  0
  141.8350   78.6390  222.7440 C   0  0  0  0  0  0  0  0  0  0  0  0
  140.6530   77.9900  222.3910 C   0  0  0  0  0  0  0  0  0  0  0  0
  140.7070   76.7250  221.6060 C   0  0  0  0  0  0  0  0  0  0  0  0
  139.8990   73.5660  222.7200 N   0  0  0  0  0  0  0  0  0  0  0  0
  140.6730   71.8590  224.8980 C   0  0  0  0  0  0  0  0  0  0  0  0
  139.7715   68.6805  229.0696 H   0  0  0  0  0  0  0  0  0  0  0  0
  141.5119   70.4810  229.2214 H   0  0  0  0  0  0  0  0  0  0  0  0
  141.8635   71.9157  227.2239 H   0  0  0  0  0  0  0  0  0  0  0  0
  138.4818   68.3794  227.0004 H   0  0  0  0  0  0  0  0  0  0  0  0
  138.2172   68.8334  224.6215 H   0  0  0  0  0  0  0  0  0  0  0  0
  137.8790   70.5665  224.5909 H   0  0  0  0  0  0  0  0  0  0  0  0
  140.5882   69.3178  223.7336 H   0  0  0  0  0  0  0  0  0  0  0  0
  139.3257   69.7317  222.5728 H   0  0  0  0  0  0  0  0  0  0  0  0
  139.2060   71.9890  218.3490 H   0  0  0  0  0  0  0  0  0  0  0  0
  141.3039   70.9243  217.8138 H   0  0  0  0  0  0  0  0  0  0  0  0
  140.5459   73.5151  216.8739 H   0  0  0  0  0  0  0  0  0  0  0  0
  141.4587   72.1994  216.0255 H   0  0  0  0  0  0  0  0  0  0  0  0
  142.7455   74.2952  216.0099 H   0  0  0  0  0  0  0  0  0  0  0  0
  143.5770   73.0632  216.9858 H   0  0  0  0  0  0  0  0  0  0  0  0
  141.6092   75.1059  218.0821 H   0  0  0  0  0  0  0  0  0  0  0  0
  144.3255   77.1620  216.9753 H   0  0  0  0  0  0  0  0  0  0  0  0
  143.1111   76.1987  216.1322 H   0  0  0  0  0  0  0  0  0  0  0  0
  142.5288   78.6586  217.0587 H   0  0  0  0  0  0  0  0  0  0  0  0
  141.3033   77.4164  217.1416 H   0  0  0  0  0  0  0  0  0  0  0  0
  142.8855   78.6420  219.3393 H   0  0  0  0  0  0  0  0  0  0  0  0
  141.4730   77.6037  219.5065 H   0  0  0  0  0  0  0  0  0  0  0  0
  144.3661   76.9134  219.5503 H   0  0  0  0  0  0  0  0  0  0  0  0
  143.0065   75.9790  220.1898 H   0  0  0  0  0  0  0  0  0  0  0  0
  141.8720   74.0054  220.0423 H   0  0  0  0  0  0  0  0  0  0  0  0
  143.6687   73.8608  219.7838 H   0  0  0  0  0  0  0  0  0  0  0  0
  142.4068   71.6703  219.9506 H   0  0  0  0  0  0  0  0  0  0  0  0
  143.4194   71.9123  218.4659 H   0  0  0  0  0  0  0  0  0  0  0  0
  137.5753   75.6989  222.3914 H   0  0  0  0  0  0  0  0  0  0  0  0
  138.5807   76.1865  223.7917 H   0  0  0  0  0  0  0  0  0  0  0  0
  138.0782   77.8644  221.2645 H   0  0  0  0  0  0  0  0  0  0  0  0
  137.3274   78.1443  222.8609 H   0  0  0  0  0  0  0  0  0  0  0  0
  138.3392   80.0922  223.7849 H   0  0  0  0  0  0  0  0  0  0  0  0
  140.4394   81.2663  224.4271 H   0  0  0  0  0  0  0  0  0  0  0  0
  142.6305   80.3608  223.7750 H   0  0  0  0  0  0  0  0  0  0  0  0
  142.8178   78.2376  222.4559 H   0  0  0  0  0  0  0  0  0  0  0  0
  140.5959   76.9585  220.5368 H   0  0  0  0  0  0  0  0  0  0  0  0
  141.6742   76.2349  221.7912 H   0  0  0  0  0  0  0  0  0  0  0  0
  141.7634   71.9703  224.8055 H   0  0  0  0  0  0  0  0  0  0  0  0
  140.1806   72.8189  225.1130 H   0  0  0  0  0  0  0  0  0  0  0  0
  1  2  2  0
  2  3  1  0
  3  4  2  0
  4  5  1  0
  5  6  2  0
  5  7  1  0
  7  8  1  0
  8  9  1  0
  9 10  1  0
 10 11  2  0
 11 12  1  0
 12 13  1  0
 13 14  1  0
 14 15  1  0
 15 16  1  0
 16 17  1  0
 17 18  1  0
 18 19  1  0
 19 20  1  0
 20 21  1  0
 21 22  1  0
 17 23  1  0
 23 24  1  0
 12 25  2  0
 25 26  1  0
 26 27  1  0
 27 28  1  0
 28 29  1  0
 29 30  1  0
 30 31  2  0
 31 32  1  0
 32 33  2  0
 33 34  1  0
 34 35  2  0
 35 36  1  0
 26 37  2  0
  9 38  1  0
  6  1  1  0
 37 10  1  0
 38  4  1  0
 24 14  1  0
 36 27  1  0
 22 18  1  0
 35 30  1  0
  1 39  1  0
  2 40  1  0
  3 41  1  0
  6 42  1  0
  7 43  1  0
  7 44  1  0
  8 45  1  0
  8 46  1  0
 13 47  1  0
 14 48  1  6
 15 49  1  0
 15 50  1  0
 16 51  1  0
 16 52  1  0
 17 53  1  6
 19 54  1  0
 19 55  1  0
 20 56  1  0
 20 57  1  0
 21 58  1  0
 21 59  1  0
 22 60  1  0
 22 61  1  0
 23 62  1  0
 23 63  1  0
 24 64  1  0
 24 65  1  0
 28 66  1  0
 28 67  1  0
 29 68  1  0
 29 69  1  0
 31 70  1  0
 32 71  1  0
 33 72  1  0
 34 73  1  0
 36 74  1  0
 36 75  1  0
 38 76  1  0
 38 77  1  0
M  END
>  <smiles>  (31) 
c1ccc2c(c1)CCN(c1nc(N[C@H]3CC[C@H](N4CCCC4)CC3)nc(N3CCc4ccccc4C3)n1)C2

>  <score_type>  (31) 
oracle

>  <origin>  (31) 
autodockgpu

>  <m_score__min__energy>  (31) 
-11.02

>  <m_primary>  (31) 
energy

>  <rmsd>  (31) 
7.308841895168244

>  <m_score__min__rmsd>  (31) 
7.308841895168244

>  <meeko>  (31) 
{"free_energy": -9.38, "intermolecular_energy": -10.87, "internal_energy": -2.03, "cluster_size": 32, "cluster_id": 2, "rank_in_cluster": 20}

>  <energy>  (31) 
-9.27

>  <cluster_rmsd>  (31) 
1.79

>  <cluster>  (31) 
2

$$$$

     RDKit          3D

 77 83  0  0  0  0  0  0  0  0999 V2000
  139.5690   69.2350  228.2150 C   0  0  0  0  0  0  0  0  0  0  0  0
  140.7310   69.9760  228.3400 C   0  0  0  0  0  0  0  0  0  0  0  0
  141.1180   70.7020  227.2320 C   0  0  0  0  0  0  0  0  0  0  0  0
  140.4070   70.7080  226.0540 C   0  0  0  0  0  0  0  0  0  0  0  0
  139.2650   69.9760  225.9400 C   0  0  0  0  0  0  0  0  0  0  0  0
  138.8580   69.2410  227.0350 C   0  0  0  0  0  0  0  0  0  0  0  0
  138.5290   70.0080  224.6560 C   0  0  0  0  0  0  0  0  0  0  0  0
  139.6100   69.9270  223.5680 C   0  0  0  0  0  0  0  0  0  0  0  0
  140.3330   71.1790  223.6640 N   0  0  0  0  0  0  0  0  0  0  0  0
  140.4740   72.0480  222.5610 C   0  0  0  0  0  0  0  0  0  0  0  0
  140.8750   71.6350  221.3490 N   0  0  0  0  0  0  0  0  0  0  0  0
  141.0050   72.4500  220.3090 C   0  0  0  0  0  0  0  0  0  0  0  0
  141.4300   72.0140  219.0300 N   0  0  0  0  0  0  0  0  0  0  0  0
  142.7980   71.9180  218.6070 C   0  0  1  0  0  0  0  0  0  0  0  0
  143.7440   71.6410  219.7540 C   0  0  0  0  0  0  0  0  0  0  0  0
  144.5570   70.3850  219.5150 C   0  0  0  0  0  0  0  0  0  0  0  0
  143.5870   69.2440  219.4380 C   0  0  2  0  0  0  0  0  0  0  0  0
  144.0750   67.9480  219.6450 N   0  0  0  0  0  0  0  0  0  0  0  0
  143.9130   66.9480  218.6700 C   0  0  0  0  0  0  0  0  0  0  0  0
  145.1410   67.0210  217.8350 C   0  0  0  0  0  0  0  0  0  0  0  0
  146.1930   67.4490  218.8390 C   0  0  0  0  0  0  0  0  0  0  0  0
  145.4160   67.8030  220.0680 C   0  0  0  0  0  0  0  0  0  0  0  0
  142.7760   69.4420  218.1870 C   0  0  0  0  0  0  0  0  0  0  0  0
  142.9610   70.8310  217.5780 C   0  0  0  0  0  0  0  0  0  0  0  0
  140.7160   73.7550  220.4990 N   0  0  0  0  0  0  0  0  0  0  0  0
  140.3140   74.2250  221.6760 C   0  0  0  0  0  0  0  0  0  0  0  0
  139.9960   75.5960  221.9240 N   0  0  0  0  0  0  0  0  0  0  0  0
  138.6630   75.9940  222.3460 C   0  0  0  0  0  0  0  0  0  0  0  0
  138.4270   77.4450  221.9290 C   0  0  0  0  0  0  0  0  0  0  0  0
  139.4660   78.2880  222.5810 C   0  0  0  0  0  0  0  0  0  0  0  0
  139.1400   79.4420  223.2470 C   0  0  0  0  0  0  0  0  0  0  0  0
  140.1650   80.1610  223.8230 C   0  0  0  0  0  0  0  0  0  0  0  0
  141.4740   79.7290  223.7270 C   0  0  0  0  0  0  0  0  0  0  0  0
  141.8160   78.5540  223.0510 C   0  0  0  0  0  0  0  0  0  0  0  0
  140.7760   77.8300  222.4700 C   0  0  0  0  0  0  0  0  0  0  0  0
  141.0710   76.5690  221.7330 C   0  0  0  0  0  0  0  0  0  0  0  0
  140.1990   73.3580  222.6930 N   0  0  0  0  0  0  0  0  0  0  0  0
  140.9230   71.5270  224.9400 C   0  0  0  0  0  0  0  0  0  0  0  0
  139.2100   68.6361  229.0650 H   0  0  0  0  0  0  0  0  0  0  0  0
  141.3148   69.9858  229.2723 H   0  0  0  0  0  0  0  0  0  0  0  0
  142.0370   71.3034  227.2934 H   0  0  0  0  0  0  0  0  0  0  0  0
  137.9382   68.6419  226.9634 H   0  0  0  0  0  0  0  0  0  0  0  0
  137.8437   69.1506  224.5831 H   0  0  0  0  0  0  0  0  0  0  0  0
  137.9148   70.9152  224.5575 H   0  0  0  0  0  0  0  0  0  0  0  0
  140.2827   69.0768  223.7539 H   0  0  0  0  0  0  0  0  0  0  0  0
  139.1788   69.7745  222.5676 H   0  0  0  0  0  0  0  0  0  0  0  0
  140.7000   71.7300  218.3150 H   0  0  0  0  0  0  0  0  0  0  0  0
  143.0543   72.8967  218.1753 H   0  0  0  0  0  0  0  0  0  0  0  0
  143.1591   71.5174  220.6774 H   0  0  0  0  0  0  0  0  0  0  0  0
  144.4387   72.4896  219.8399 H   0  0  0  0  0  0  0  0  0  0  0  0
  145.2612   70.2270  220.3451 H   0  0  0  0  0  0  0  0  0  0  0  0
  145.1423   70.4664  218.5872 H   0  0  0  0  0  0  0  0  0  0  0  0
  142.9443   69.2906  220.3295 H   0  0  0  0  0  0  0  0  0  0  0  0
  143.8250   65.9584  219.1422 H   0  0  0  0  0  0  0  0  0  0  0  0
  142.9997   67.0957  218.0749 H   0  0  0  0  0  0  0  0  0  0  0  0
  145.3836   66.0412  217.3977 H   0  0  0  0  0  0  0  0  0  0  0  0
  145.0490   67.7034  216.9772 H   0  0  0  0  0  0  0  0  0  0  0  0
  146.8920   66.6250  219.0449 H   0  0  0  0  0  0  0  0  0  0  0  0
  146.8030   68.2883  218.4736 H   0  0  0  0  0  0  0  0  0  0  0  0
  145.4972   67.0016  220.8171 H   0  0  0  0  0  0  0  0  0  0  0  0
  145.7953   68.7230  220.5368 H   0  0  0  0  0  0  0  0  0  0  0  0
  141.7125   69.3038  218.4315 H   0  0  0  0  0  0  0  0  0  0  0  0
  143.1222   68.7058  217.4466 H   0  0  0  0  0  0  0  0  0  0  0  0
  142.2117   70.9753  216.7857 H   0  0  0  0  0  0  0  0  0  0  0  0
  143.9816   70.8938  217.1725 H   0  0  0  0  0  0  0  0  0  0  0  0
  137.9146   75.3454  221.8672 H   0  0  0  0  0  0  0  0  0  0  0  0
  138.5731   75.8998  223.4383 H   0  0  0  0  0  0  0  0  0  0  0  0
  138.5050   77.5362  220.8356 H   0  0  0  0  0  0  0  0  0  0  0  0
  137.4227   77.7716  222.2369 H   0  0  0  0  0  0  0  0  0  0  0  0
  138.0963   79.7819  223.3189 H   0  0  0  0  0  0  0  0  0  0  0  0
  139.9382   81.0904  224.3659 H   0  0  0  0  0  0  0  0  0  0  0  0
  142.2696   80.3266  224.1958 H   0  0  0  0  0  0  0  0  0  0  0  0
  142.8603   78.2155  222.9806 H   0  0  0  0  0  0  0  0  0  0  0  0
  141.1699   76.7921  220.6604 H   0  0  0  0  0  0  0  0  0  0  0  0
  142.0076   76.1426  222.1217 H   0  0  0  0  0  0  0  0  0  0  0  0
  142.0116   71.3838  224.8740 H   0  0  0  0  0  0  0  0  0  0  0  0
  140.6598   72.5741  225.1507 H   0  0  0  0  0  0  0  0  0  0  0  0
  1  2  2  0
  2  3  1  0
  3  4  2  0
  4  5  1  0
  5  6  2  0
  5  7  1  0
  7  8  1  0
  8  9  1  0
  9 10  1  0
 10 11  2  0
 11 12  1  0
 12 13  1  0
 13 14  1  0
 14 15  1  0
 15 16  1  0
 16 17  1  0
 17 18  1  0
 18 19  1  0
 19 20  1  0
 20 21  1  0
 21 22  1  0
 17 23  1  0
 23 24  1  0
 12 25  2  0
 25 26  1  0
 26 27  1  0
 27 28  1  0
 28 29  1  0
 29 30  1  0
 30 31  2  0
 31 32  1  0
 32 33  2  0
 33 34  1  0
 34 35  2  0
 35 36  1  0
 26 37  2  0
  9 38  1  0
  6  1  1  0
 37 10  1  0
 38  4  1  0
 24 14  1  0
 36 27  1  0
 22 18  1  0
 35 30  1  0
  1 39  1  0
  2 40  1  0
  3 41  1  0
  6 42  1  0
  7 43  1  0
  7 44  1  0
  8 45  1  0
  8 46  1  0
 13 47  1  0
 14 48  1  6
 15 49  1  0
 15 50  1  0
 16 51  1  0
 16 52  1  0
 17 53  1  1
 19 54  1  0
 19 55  1  0
 20 56  1  0
 20 57  1  0
 21 58  1  0
 21 59  1  0
 22 60  1  0
 22 61  1  0
 23 62  1  0
 23 63  1  0
 24 64  1  0
 24 65  1  0
 28 66  1  0
 28 67  1  0
 29 68  1  0
 29 69  1  0
 31 70  1  0
 32 71  1  0
 33 72  1  0
 34 73  1  0
 36 74  1  0
 36 75  1  0
 38 76  1  0
 38 77  1  0
M  END
>  <smiles>  (32) 
c1ccc2c(c1)CCN(c1nc(N[C@H]3CC[C@H](N4CCCC4)CC3)nc(N3CCc4ccccc4C3)n1)C2

>  <score_type>  (32) 
oracle

>  <origin>  (32) 
autodockgpu

>  <m_score__min__energy>  (32) 
-11.02

>  <m_primary>  (32) 
energy

>  <rmsd>  (32) 
11.015489182632058

>  <m_score__min__rmsd>  (32) 
11.015489182632058

>  <meeko>  (32) 
{"free_energy": -9.96, "intermolecular_energy": -11.45, "internal_energy": -1.48, "cluster_size": 32, "cluster_id": 2, "rank_in_cluster": 8}

>  <energy>  (32) 
-9.25

>  <cluster_rmsd>  (32) 
1.83

>  <cluster>  (32) 
2

$$$$

     RDKit          3D

 77 83  0  0  0  0  0  0  0  0999 V2000
  141.6240   80.9210  222.6550 C   0  0  0  0  0  0  0  0  0  0  0  0
  141.2670   80.2860  223.8310 C   0  0  0  0  0  0  0  0  0  0  0  0
  141.1020   78.9180  223.7660 C   0  0  0  0  0  0  0  0  0  0  0  0
  141.2760   78.1970  222.6070 C   0  0  0  0  0  0  0  0  0  0  0  0
  141.6270   78.8290  221.4530 C   0  0  0  0  0  0  0  0  0  0  0  0
  141.7980   80.1980  221.4940 C   0  0  0  0  0  0  0  0  0  0  0  0
  141.8040   78.0180  220.2270 C   0  0  0  0  0  0  0  0  0  0  0  0
  140.6400   77.0150  220.2350 C   0  0  0  0  0  0  0  0  0  0  0  0
  140.9100   76.1370  221.3560 N   0  0  0  0  0  0  0  0  0  0  0  0
  141.0140   74.7380  221.2030 C   0  0  0  0  0  0  0  0  0  0  0  0
  141.5940   74.1580  220.1410 N   0  0  0  0  0  0  0  0  0  0  0  0
  141.6960   72.8430  219.9950 C   0  0  0  0  0  0  0  0  0  0  0  0
  142.3060   72.2310  218.8730 N   0  0  0  0  0  0  0  0  0  0  0  0
  142.0430   70.8950  218.4210 C   0  0  1  0  0  0  0  0  0  0  0  0
  142.8810   70.5110  217.2220 C   0  0  0  0  0  0  0  0  0  0  0  0
  143.6980   69.2620  217.4890 C   0  0  0  0  0  0  0  0  0  0  0  0
  144.6330   69.5850  218.6140 C   0  0  2  0  0  0  0  0  0  0  0  0
  145.7670   68.7790  218.7820 N   0  0  0  0  0  0  0  0  0  0  0  0
  145.8160   67.7970  219.7860 C   0  0  0  0  0  0  0  0  0  0  0  0
  145.3210   66.5550  219.1360 C   0  0  0  0  0  0  0  0  0  0  0  0
  145.7990   66.7230  217.7070 C   0  0  0  0  0  0  0  0  0  0  0  0
  146.2960   68.1330  217.6410 C   0  0  0  0  0  0  0  0  0  0  0  0
  143.7900   69.7830  219.8440 C   0  0  0  0  0  0  0  0  0  0  0  0
  142.3000   69.9020  219.5240 C   0  0  0  0  0  0  0  0  0  0  0  0
  141.1850   72.0650  220.9740 N   0  0  0  0  0  0  0  0  0  0  0  0
  140.6000   72.5810  222.0510 C   0  0  0  0  0  0  0  0  0  0  0  0
  140.0470   71.7990  223.1120 N   0  0  0  0  0  0  0  0  0  0  0  0
  138.8910   70.9440  222.8920 C   0  0  0  0  0  0  0  0  0  0  0  0
  138.1580   70.7550  224.2190 C   0  0  0  0  0  0  0  0  0  0  0  0
  139.1050   70.1320  225.1850 C   0  0  0  0  0  0  0  0  0  0  0  0
  138.7470   69.0460  225.9420 C   0  0  0  0  0  0  0  0  0  0  0  0
  139.6870   68.5320  226.8100 C   0  0  0  0  0  0  0  0  0  0  0  0
  140.9430   69.0980  226.9090 C   0  0  0  0  0  0  0  0  0  0  0  0
  141.3170   70.2050  226.1410 C   0  0  0  0  0  0  0  0  0  0  0  0
  140.3640   70.7210  225.2640 C   0  0  0  0  0  0  0  0  0  0  0  0
  140.6980   71.9000  224.4180 C   0  0  0  0  0  0  0  0  0  0  0  0
  140.5230   73.9160  222.1480 N   0  0  0  0  0  0  0  0  0  0  0  0
  141.0720   76.7370  222.6650 C   0  0  0  0  0  0  0  0  0  0  0  0
  141.7702   82.0112  222.6461 H   0  0  0  0  0  0  0  0  0  0  0  0
  141.1223   80.8427  224.7686 H   0  0  0  0  0  0  0  0  0  0  0  0
  140.8185   78.3791  224.6821 H   0  0  0  0  0  0  0  0  0  0  0  0
  142.0816   80.7281  220.5728 H   0  0  0  0  0  0  0  0  0  0  0  0
  141.7569   78.6562  219.3323 H   0  0  0  0  0  0  0  0  0  0  0  0
  142.7811   77.5132  220.2059 H   0  0  0  0  0  0  0  0  0  0  0  0
  139.6813   77.5362  220.3741 H   0  0  0  0  0  0  0  0  0  0  0  0
  140.5633   76.4630  219.2866 H   0  0  0  0  0  0  0  0  0  0  0  0
  143.0120   72.7840  218.3070 H   0  0  0  0  0  0  0  0  0  0  0  0
  140.9840   70.8740  218.1241 H   0  0  0  0  0  0  0  0  0  0  0  0
  143.5637   71.3399  216.9834 H   0  0  0  0  0  0  0  0  0  0  0  0
  142.2034   70.3054  216.3803 H   0  0  0  0  0  0  0  0  0  0  0  0
  144.2689   68.9844  216.5907 H   0  0  0  0  0  0  0  0  0  0  0  0
  143.0471   68.4143  217.7494 H   0  0  0  0  0  0  0  0  0  0  0  0
  145.1616   70.5132  218.3512 H   0  0  0  0  0  0  0  0  0  0  0  0
  146.8473   67.6612  220.1436 H   0  0  0  0  0  0  0  0  0  0  0  0
  145.2116   68.0728  220.6627 H   0  0  0  0  0  0  0  0  0  0  0  0
  145.7612   65.6602  219.6003 H   0  0  0  0  0  0  0  0  0  0  0  0
  144.2331   66.4172  219.2223 H   0  0  0  0  0  0  0  0  0  0  0  0
  146.6096   66.0142  217.4824 H   0  0  0  0  0  0  0  0  0  0  0  0
  145.0030   66.5255  216.9739 H   0  0  0  0  0  0  0  0  0  0  0  0
  147.3956   68.1535  217.6639 H   0  0  0  0  0  0  0  0  0  0  0  0
  145.9832   68.6306  216.7112 H   0  0  0  0  0  0  0  0  0  0  0  0
  144.1161   70.7037  220.3499 H   0  0  0  0  0  0  0  0  0  0  0  0
  143.9231   68.8986  220.4844 H   0  0  0  0  0  0  0  0  0  0  0  0
  141.7664   70.2286  220.4288 H   0  0  0  0  0  0  0  0  0  0  0  0
  141.9424   68.9174  219.1882 H   0  0  0  0  0  0  0  0  0  0  0  0
  138.2169   71.4147  222.1612 H   0  0  0  0  0  0  0  0  0  0  0  0
  139.2169   69.9680  222.5030 H   0  0  0  0  0  0  0  0  0  0  0  0
  137.8223   71.7300  224.6019 H   0  0  0  0  0  0  0  0  0  0  0  0
  137.2768   70.1115  224.0797 H   0  0  0  0  0  0  0  0  0  0  0  0
  137.7447   68.6004  225.8596 H   0  0  0  0  0  0  0  0  0  0  0  0
  139.4335   67.6604  227.4313 H   0  0  0  0  0  0  0  0  0  0  0  0
  141.6699   68.6655  227.6122 H   0  0  0  0  0  0  0  0  0  0  0  0
  142.3197   70.6495  226.2252 H   0  0  0  0  0  0  0  0  0  0  0  0
  140.3554   72.8154  224.9226 H   0  0  0  0  0  0  0  0  0  0  0  0
  141.7874   71.9318  224.2691 H   0  0  0  0  0  0  0  0  0  0  0  0
  140.1691   76.5323  223.2589 H   0  0  0  0  0  0  0  0  0  0  0  0
  141.9710   76.2963  223.1207 H   0  0  0  0  0  0  0  0  0  0  0  0
  1  2  2  0
  2  3  1  0
  3  4  2  0
  4  5  1  0
  5  6  2  0
  5  7  1  0
  7  8  1  0
  8  9  1  0
  9 10  1  0
 10 11  2  0
 11 12  1  0
 12 13  1  0
 13 14  1  0
 14 15  1  0
 15 16  1  0
 16 17  1  0
 17 18  1  0
 18 19  1  0
 19 20  1  0
 20 21  1  0
 21 22  1  0
 17 23  1  0
 23 24  1  0
 12 25  2  0
 25 26  1  0
 26 27  1  0
 27 28  1  0
 28 29  1  0
 29 30  1  0
 30 31  2  0
 31 32  1  0
 32 33  2  0
 33 34  1  0
 34 35  2  0
 35 36  1  0
 26 37  2  0
  9 38  1  0
  6  1  1  0
 37 10  1  0
 38  4  1  0
 24 14  1  0
 36 27  1  0
 22 18  1  0
 35 30  1  0
  1 39  1  0
  2 40  1  0
  3 41  1  0
  6 42  1  0
  7 43  1  0
  7 44  1  0
  8 45  1  0
  8 46  1  0
 13 47  1  0
 14 48  1  6
 15 49  1  0
 15 50  1  0
 16 51  1  0
 16 52  1  0
 17 53  1  6
 19 54  1  0
 19 55  1  0
 20 56  1  0
 20 57  1  0
 21 58  1  0
 21 59  1  0
 22 60  1  0
 22 61  1  0
 23 62  1  0
 23 63  1  0
 24 64  1  0
 24 65  1  0
 28 66  1  0
 28 67  1  0
 29 68  1  0
 29 69  1  0
 31 70  1  0
 32 71  1  0
 33 72  1  0
 34 73  1  0
 36 74  1  0
 36 75  1  0
 38 76  1  0
 38 77  1  0
M  END
>  <smiles>  (33) 
c1ccc2c(c1)CCN(c1nc(N[C@H]3CC[C@H](N4CCCC4)CC3)nc(N3CCc4ccccc4C3)n1)C2

>  <score_type>  (33) 
oracle

>  <origin>  (33) 
autodockgpu

>  <m_score__min__energy>  (33) 
-11.02

>  <m_primary>  (33) 
energy

>  <rmsd>  (33) 
11.643468216120434

>  <m_score__min__rmsd>  (33) 
11.643468216120434

>  <meeko>  (33) 
{"free_energy": -9.89, "intermolecular_energy": -11.38, "internal_energy": -1.3, "cluster_size": 32, "cluster_id": 2, "rank_in_cluster": 9}

>  <energy>  (33) 
-9.23

>  <cluster_rmsd>  (33) 
1.66

>  <cluster>  (33) 
2

$$$$

     RDKit          3D

 77 83  0  0  0  0  0  0  0  0999 V2000
  139.6690   69.0860  226.7610 C   0  0  0  0  0  0  0  0  0  0  0  0
  140.8620   69.7780  226.8750 C   0  0  0  0  0  0  0  0  0  0  0  0
  141.1470   70.6790  225.8690 C   0  0  0  0  0  0  0  0  0  0  0  0
  140.3110   70.8970  224.7990 C   0  0  0  0  0  0  0  0  0  0  0  0
  139.1390   70.2110  224.6950 C   0  0  0  0  0  0  0  0  0  0  0  0
  138.8320   69.3050  225.6890 C   0  0  0  0  0  0  0  0  0  0  0  0
  138.2660   70.4740  223.5280 C   0  0  0  0  0  0  0  0  0  0  0  0
  139.2170   70.5650  222.3250 C   0  0  0  0  0  0  0  0  0  0  0  0
  139.9880   71.7730  222.5470 N   0  0  0  0  0  0  0  0  0  0  0  0
  140.0350   72.8160  221.5980 C   0  0  0  0  0  0  0  0  0  0  0  0
  140.0710   72.6020  220.2740 N   0  0  0  0  0  0  0  0  0  0  0  0
  140.1120   73.5810  219.3790 C   0  0  0  0  0  0  0  0  0  0  0  0
  140.1530   73.3550  217.9820 N   0  0  0  0  0  0  0  0  0  0  0  0
  141.2440   73.7140  217.1220 C   0  0  1  0  0  0  0  0  0  0  0  0
  142.1910   74.7000  217.7660 C   0  0  0  0  0  0  0  0  0  0  0  0
  143.6110   74.1720  217.7970 C   0  0  0  0  0  0  0  0  0  0  0  0
  143.5980   72.9350  218.6420 C   0  0  2  0  0  0  0  0  0  0  0  0
  144.8130   72.4900  219.1800 N   0  0  0  0  0  0  0  0  0  0  0  0
  145.9530   73.3140  219.1760 C   0  0  0  0  0  0  0  0  0  0  0  0
  145.9130   74.0310  220.4770 C   0  0  0  0  0  0  0  0  0  0  0  0
  145.2710   73.0090  221.3940 C   0  0  0  0  0  0  0  0  0  0  0  0
  144.7990   71.9260  220.4760 C   0  0  0  0  0  0  0  0  0  0  0  0
  142.8020   71.9010  217.8950 C   0  0  0  0  0  0  0  0  0  0  0  0
  142.0260   72.4920  216.7180 C   0  0  0  0  0  0  0  0  0  0  0  0
  140.1170   74.8500  219.8420 N   0  0  0  0  0  0  0  0  0  0  0  0
  140.0810   75.1260  221.1430 C   0  0  0  0  0  0  0  0  0  0  0  0
  140.0840   76.4510  221.6790 N   0  0  0  0  0  0  0  0  0  0  0  0
  139.0970   76.8640  222.6640 C   0  0  0  0  0  0  0  0  0  0  0  0
  138.9210   78.3800  222.5790 C   0  0  0  0  0  0  0  0  0  0  0  0
  140.2400   79.0150  222.8470 C   0  0  0  0  0  0  0  0  0  0  0  0
  140.3700   80.0520  223.7350 C   0  0  0  0  0  0  0  0  0  0  0  0
  141.6300   80.5790  223.9240 C   0  0  0  0  0  0  0  0  0  0  0  0
  142.7190   80.0760  223.2390 C   0  0  0  0  0  0  0  0  0  0  0  0
  142.5960   79.0190  222.3320 C   0  0  0  0  0  0  0  0  0  0  0  0
  141.3210   78.4880  222.1440 C   0  0  0  0  0  0  0  0  0  0  0  0
  141.1200   77.3600  221.1910 C   0  0  0  0  0  0  0  0  0  0  0  0
  140.0410   74.0990  222.0040 N   0  0  0  0  0  0  0  0  0  0  0  0
  140.7270   71.8880  223.7870 C   0  0  0  0  0  0  0  0  0  0  0  0
  139.3867   68.3549  227.5329 H   0  0  0  0  0  0  0  0  0  0  0  0
  141.5461   69.6186  227.7215 H   0  0  0  0  0  0  0  0  0  0  0  0
  142.0861   71.2490  225.9257 H   0  0  0  0  0  0  0  0  0  0  0  0
  137.8903   68.7403  225.6236 H   0  0  0  0  0  0  0  0  0  0  0  0
  137.5479   69.6521  223.3906 H   0  0  0  0  0  0  0  0  0  0  0  0
  137.6757   71.3934  223.6555 H   0  0  0  0  0  0  0  0  0  0  0  0
  139.8775   69.6862  222.2869 H   0  0  0  0  0  0  0  0  0  0  0  0
  138.6731   70.5916  221.3693 H   0  0  0  0  0  0  0  0  0  0  0  0
  139.3260   72.8840  217.5130 H   0  0  0  0  0  0  0  0  0  0  0  0
  140.7943   74.1912  216.2388 H   0  0  0  0  0  0  0  0  0  0  0  0
  141.8592   74.8922  218.7970 H   0  0  0  0  0  0  0  0  0  0  0  0
  142.1811   75.6250  217.1708 H   0  0  0  0  0  0  0  0  0  0  0  0
  144.2841   74.9229  218.2363 H   0  0  0  0  0  0  0  0  0  0  0  0
  143.9706   73.9507  216.7813 H   0  0  0  0  0  0  0  0  0  0  0  0
  143.1104   73.1878  219.5951 H   0  0  0  0  0  0  0  0  0  0  0  0
  146.8677   72.7083  219.0962 H   0  0  0  0  0  0  0  0  0  0  0  0
  145.9591   74.0072  218.3219 H   0  0  0  0  0  0  0  0  0  0  0  0
  146.9256   74.2915  220.8188 H   0  0  0  0  0  0  0  0  0  0  0  0
  145.3690   74.9862  220.4352 H   0  0  0  0  0  0  0  0  0  0  0  0
  146.0050   72.6166  222.1132 H   0  0  0  0  0  0  0  0  0  0  0  0
  144.4523   73.4381  221.9903 H   0  0  0  0  0  0  0  0  0  0  0  0
  145.4755   71.0600  220.5247 H   0  0  0  0  0  0  0  0  0  0  0  0
  143.7962   71.5681  220.7522 H   0  0  0  0  0  0  0  0  0  0  0  0
  142.0872   71.4369  218.5905 H   0  0  0  0  0  0  0  0  0  0  0  0
  143.5112   71.1643  217.4895 H   0  0  0  0  0  0  0  0  0  0  0  0
  141.3281   71.7332  216.3345 H   0  0  0  0  0  0  0  0  0  0  0  0
  142.7502   72.7891  215.9451 H   0  0  0  0  0  0  0  0  0  0  0  0
  138.1373   76.3681  222.4562 H   0  0  0  0  0  0  0  0  0  0  0  0
  139.4349   76.5828  223.6724 H   0  0  0  0  0  0  0  0  0  0  0  0
  138.5704   78.6588  221.5743 H   0  0  0  0  0  0  0  0  0  0  0  0
  138.1783   78.7191  223.3162 H   0  0  0  0  0  0  0  0  0  0  0  0
  139.4995   80.4494  224.2775 H   0  0  0  0  0  0  0  0  0  0  0  0
  141.7699   81.4111  224.6297 H   0  0  0  0  0  0  0  0  0  0  0  0
  143.7107   80.5194  223.4119 H   0  0  0  0  0  0  0  0  0  0  0  0
  143.4678   78.6235  221.7902 H   0  0  0  0  0  0  0  0  0  0  0  0
  140.8161   77.7627  220.2135 H   0  0  0  0  0  0  0  0  0  0  0  0
  142.0640   76.8033  221.0970 H   0  0  0  0  0  0  0  0  0  0  0  0
  141.7962   71.7430  223.5729 H   0  0  0  0  0  0  0  0  0  0  0  0
  140.5235   72.8868  224.2006 H   0  0  0  0  0  0  0  0  0  0  0  0
  1  2  2  0
  2  3  1  0
  3  4  2  0
  4  5  1  0
  5  6  2  0
  5  7  1  0
  7  8  1  0
  8  9  1  0
  9 10  1  0
 10 11  2  0
 11 12  1  0
 12 13  1  0
 13 14  1  0
 14 15  1  0
 15 16  1  0
 16 17  1  0
 17 18  1  0
 18 19  1  0
 19 20  1  0
 20 21  1  0
 21 22  1  0
 17 23  1  0
 23 24  1  0
 12 25  2  0
 25 26  1  0
 26 27  1  0
 27 28  1  0
 28 29  1  0
 29 30  1  0
 30 31  2  0
 31 32  1  0
 32 33  2  0
 33 34  1  0
 34 35  2  0
 35 36  1  0
 26 37  2  0
  9 38  1  0
  6  1  1  0
 37 10  1  0
 38  4  1  0
 24 14  1  0
 36 27  1  0
 22 18  1  0
 35 30  1  0
  1 39  1  0
  2 40  1  0
  3 41  1  0
  6 42  1  0
  7 43  1  0
  7 44  1  0
  8 45  1  0
  8 46  1  0
 13 47  1  0
 14 48  1  6
 15 49  1  0
 15 50  1  0
 16 51  1  0
 16 52  1  0
 17 53  1  1
 19 54  1  0
 19 55  1  0
 20 56  1  0
 20 57  1  0
 21 58  1  0
 21 59  1  0
 22 60  1  0
 22 61  1  0
 23 62  1  0
 23 63  1  0
 24 64  1  0
 24 65  1  0
 28 66  1  0
 28 67  1  0
 29 68  1  0
 29 69  1  0
 31 70  1  0
 32 71  1  0
 33 72  1  0
 34 73  1  0
 36 74  1  0
 36 75  1  0
 38 76  1  0
 38 77  1  0
M  END
>  <smiles>  (34) 
c1ccc2c(c1)CCN(c1nc(N[C@H]3CC[C@H](N4CCCC4)CC3)nc(N3CCc4ccccc4C3)n1)C2

>  <score_type>  (34) 
oracle

>  <origin>  (34) 
autodockgpu

>  <m_score__min__energy>  (34) 
-11.02

>  <m_primary>  (34) 
energy

>  <rmsd>  (34) 
8.04016498984737

>  <m_score__min__rmsd>  (34) 
8.04016498984737

>  <meeko>  (34) 
{"free_energy": -9.08, "intermolecular_energy": -10.57, "internal_energy": -1.92, "cluster_size": 32, "cluster_id": 2, "rank_in_cluster": 27}

>  <energy>  (34) 
-9.08

>  <cluster_rmsd>  (34) 
1.67

>  <cluster>  (34) 
2

$$$$

     RDKit          3D

 77 83  0  0  0  0  0  0  0  0999 V2000
  140.0400   69.0190  226.7040 C   0  0  0  0  0  0  0  0  0  0  0  0
  140.8990   70.0600  227.0110 C   0  0  0  0  0  0  0  0  0  0  0  0
  141.0320   71.0480  226.0570 C   0  0  0  0  0  0  0  0  0  0  0  0
  140.3610   71.0260  224.8560 C   0  0  0  0  0  0  0  0  0  0  0  0
  139.5180   69.9980  224.5620 C   0  0  0  0  0  0  0  0  0  0  0  0
  139.3680   68.9980  225.5010 C   0  0  0  0  0  0  0  0  0  0  0  0
  138.8140   70.0110  223.2590 C   0  0  0  0  0  0  0  0  0  0  0  0
  139.8670   70.4640  222.2360 C   0  0  0  0  0  0  0  0  0  0  0  0
  140.1440   71.8460  222.5710 N   0  0  0  0  0  0  0  0  0  0  0  0
  139.9990   72.8880  221.6310 C   0  0  0  0  0  0  0  0  0  0  0  0
  139.8220   72.6710  220.3190 N   0  0  0  0  0  0  0  0  0  0  0  0
  139.6810   73.6490  219.4320 C   0  0  0  0  0  0  0  0  0  0  0  0
  139.4960   73.4200  218.0460 N   0  0  0  0  0  0  0  0  0  0  0  0
  140.5550   73.2430  217.0940 C   0  0  1  0  0  0  0  0  0  0  0  0
  141.7390   74.1440  217.3660 C   0  0  0  0  0  0  0  0  0  0  0  0
  143.0180   73.3490  217.5360 C   0  0  0  0  0  0  0  0  0  0  0  0
  142.8290   72.4700  218.7350 C   0  0  2  0  0  0  0  0  0  0  0  0
  143.9720   71.9550  219.3610 N   0  0  0  0  0  0  0  0  0  0  0  0
  145.2550   72.4180  219.0230 C   0  0  0  0  0  0  0  0  0  0  0  0
  145.5270   73.5300  219.9710 C   0  0  0  0  0  0  0  0  0  0  0  0
  144.7880   73.0820  221.2180 C   0  0  0  0  0  0  0  0  0  0  0  0
  143.9860   71.8990  220.7740 C   0  0  0  0  0  0  0  0  0  0  0  0
  141.7740   71.4600  218.3770 C   0  0  0  0  0  0  0  0  0  0  0  0
  141.0310   71.8140  217.0900 C   0  0  0  0  0  0  0  0  0  0  0  0
  139.7210   74.9190  219.8910 N   0  0  0  0  0  0  0  0  0  0  0  0
  139.8930   75.1970  221.1800 C   0  0  0  0  0  0  0  0  0  0  0  0
  139.9410   76.5220  221.7120 N   0  0  0  0  0  0  0  0  0  0  0  0
  138.9750   76.9710  222.7020 C   0  0  0  0  0  0  0  0  0  0  0  0
  138.8470   78.4910  222.6120 C   0  0  0  0  0  0  0  0  0  0  0  0
  140.1880   79.0840  222.8710 C   0  0  0  0  0  0  0  0  0  0  0  0
  140.3560   80.1190  223.7550 C   0  0  0  0  0  0  0  0  0  0  0  0
  141.6330   80.6060  223.9350 C   0  0  0  0  0  0  0  0  0  0  0  0
  142.7010   80.0660  223.2450 C   0  0  0  0  0  0  0  0  0  0  0  0
  142.5390   79.0100  222.3430 C   0  0  0  0  0  0  0  0  0  0  0  0
  141.2460   78.5200  222.1640 C   0  0  0  0  0  0  0  0  0  0  0  0
  141.0040   77.3970  221.2160 C   0  0  0  0  0  0  0  0  0  0  0  0
  140.0300   74.1720  222.0330 N   0  0  0  0  0  0  0  0  0  0  0  0
  140.5860   72.1430  223.9180 C   0  0  0  0  0  0  0  0  0  0  0  0
  139.8926   68.2021  227.4258 H   0  0  0  0  0  0  0  0  0  0  0  0
  141.4463   70.0977  227.9644 H   0  0  0  0  0  0  0  0  0  0  0  0
  141.7055   71.8921  226.2663 H   0  0  0  0  0  0  0  0  0  0  0  0
  138.6915   68.1586  225.2827 H   0  0  0  0  0  0  0  0  0  0  0  0
  138.4430   69.0056  223.0111 H   0  0  0  0  0  0  0  0  0  0  0  0
  137.9394   70.6780  223.2712 H   0  0  0  0  0  0  0  0  0  0  0  0
  140.7786   69.8546  222.3236 H   0  0  0  0  0  0  0  0  0  0  0  0
  139.5124   70.3526  221.2007 H   0  0  0  0  0  0  0  0  0  0  0  0
  138.5100   73.3710  217.6610 H   0  0  0  0  0  0  0  0  0  0  0  0
  140.1341   73.5109  216.1136 H   0  0  0  0  0  0  0  0  0  0  0  0
  141.5488   74.7152  218.2866 H   0  0  0  0  0  0  0  0  0  0  0  0
  141.8642   74.8168  216.5048 H   0  0  0  0  0  0  0  0  0  0  0  0
  143.8676   74.0292  217.6959 H   0  0  0  0  0  0  0  0  0  0  0  0
  143.2310   72.7497  216.6385 H   0  0  0  0  0  0  0  0  0  0  0  0
  142.4913   73.1063  219.5663 H   0  0  0  0  0  0  0  0  0  0  0  0
  145.9990   71.6168  219.1437 H   0  0  0  0  0  0  0  0  0  0  0  0
  145.3119   72.7465  217.9748 H   0  0  0  0  0  0  0  0  0  0  0  0
  146.6050   73.6346  220.1631 H   0  0  0  0  0  0  0  0  0  0  0  0
  145.2054   74.5139  219.5988 H   0  0  0  0  0  0  0  0  0  0  0  0
  145.4973   72.7962  222.0087 H   0  0  0  0  0  0  0  0  0  0  0  0
  144.1586   73.8793  221.6402 H   0  0  0  0  0  0  0  0  0  0  0  0
  144.4572   70.9658  221.1162 H   0  0  0  0  0  0  0  0  0  0  0  0
  142.9684   71.9185  221.1913 H   0  0  0  0  0  0  0  0  0  0  0  0
  141.0460   71.4050  219.1998 H   0  0  0  0  0  0  0  0  0  0  0  0
  142.2785   70.4961  218.2148 H   0  0  0  0  0  0  0  0  0  0  0  0
  140.1608   71.1491  216.9868 H   0  0  0  0  0  0  0  0  0  0  0  0
  141.7270   71.6878  216.2476 H   0  0  0  0  0  0  0  0  0  0  0  0
  137.9984   76.5054  222.5031 H   0  0  0  0  0  0  0  0  0  0  0  0
  139.3113   76.6835  223.7091 H   0  0  0  0  0  0  0  0  0  0  0  0
  138.5003   78.7772  221.6081 H   0  0  0  0  0  0  0  0  0  0  0  0
  138.1192   78.8567  223.3513 H   0  0  0  0  0  0  0  0  0  0  0  0
  139.5018   80.5455  224.3012 H   0  0  0  0  0  0  0  0  0  0  0  0
  141.8038   81.4353  224.6372 H   0  0  0  0  0  0  0  0  0  0  0  0
  143.7073   80.4785  223.4098 H   0  0  0  0  0  0  0  0  0  0  0  0
  143.3946   78.5843  221.7982 H   0  0  0  0  0  0  0  0  0  0  0  0
  140.7082   77.8066  220.2389 H   0  0  0  0  0  0  0  0  0  0  0  0
  141.9292   76.8100  221.1192 H   0  0  0  0  0  0  0  0  0  0  0  0
  141.6624   72.3684  223.8925 H   0  0  0  0  0  0  0  0  0  0  0  0
  139.9966   72.9995  224.2774 H   0  0  0  0  0  0  0  0  0  0  0  0
  1  2  2  0
  2  3  1  0
  3  4  2  0
  4  5  1  0
  5  6  2  0
  5  7  1  0
  7  8  1  0
  8  9  1  0
  9 10  1  0
 10 11  2  0
 11 12  1  0
 12 13  1  0
 13 14  1  0
 14 15  1  0
 15 16  1  0
 16 17  1  0
 17 18  1  0
 18 19  1  0
 19 20  1  0
 20 21  1  0
 21 22  1  0
 17 23  1  0
 23 24  1  0
 12 25  2  0
 25 26  1  0
 26 27  1  0
 27 28  1  0
 28 29  1  0
 29 30  1  0
 30 31  2  0
 31 32  1  0
 32 33  2  0
 33 34  1  0
 34 35  2  0
 35 36  1  0
 26 37  2  0
  9 38  1  0
  6  1  1  0
 37 10  1  0
 38  4  1  0
 24 14  1  0
 36 27  1  0
 22 18  1  0
 35 30  1  0
  1 39  1  0
  2 40  1  0
  3 41  1  0
  6 42  1  0
  7 43  1  0
  7 44  1  0
  8 45  1  0
  8 46  1  0
 13 47  1  0
 14 48  1  6
 15 49  1  0
 15 50  1  0
 16 51  1  0
 16 52  1  0
 17 53  1  1
 19 54  1  0
 19 55  1  0
 20 56  1  0
 20 57  1  0
 21 58  1  0
 21 59  1  0
 22 60  1  0
 22 61  1  0
 23 62  1  0
 23 63  1  0
 24 64  1  0
 24 65  1  0
 28 66  1  0
 28 67  1  0
 29 68  1  0
 29 69  1  0
 31 70  1  0
 32 71  1  0
 33 72  1  0
 34 73  1  0
 36 74  1  0
 36 75  1  0
 38 76  1  0
 38 77  1  0
M  END
>  <smiles>  (35) 
c1ccc2c(c1)CCN(c1nc(N[C@H]3CC[C@H](N4CCCC4)CC3)nc(N3CCc4ccccc4C3)n1)C2

>  <score_type>  (35) 
oracle

>  <origin>  (35) 
autodockgpu

>  <m_score__min__energy>  (35) 
-11.02

>  <m_primary>  (35) 
energy

>  <rmsd>  (35) 
8.223713277386564

>  <m_score__min__rmsd>  (35) 
8.223713277386564

>  <meeko>  (35) 
{"free_energy": -8.69, "intermolecular_energy": -10.19, "internal_energy": -2.15, "cluster_size": 32, "cluster_id": 2, "rank_in_cluster": 32}

>  <energy>  (35) 
-9.08

>  <cluster_rmsd>  (35) 
1.7

>  <cluster>  (35) 
2

$$$$

     RDKit          3D

 77 83  0  0  0  0  0  0  0  0999 V2000
  142.0600   81.2150  222.4120 C   0  0  0  0  0  0  0  0  0  0  0  0
  141.6560   80.7470  223.6500 C   0  0  0  0  0  0  0  0  0  0  0  0
  141.3440   79.4040  223.7270 C   0  0  0  0  0  0  0  0  0  0  0  0
  141.4220   78.5540  222.6490 C   0  0  0  0  0  0  0  0  0  0  0  0
  141.8200   79.0230  221.4340 C   0  0  0  0  0  0  0  0  0  0  0  0
  142.1370   80.3630  221.3320 C   0  0  0  0  0  0  0  0  0  0  0  0
  141.8900   78.0760  220.2980 C   0  0  0  0  0  0  0  0  0  0  0  0
  140.6260   77.2110  220.4150 C   0  0  0  0  0  0  0  0  0  0  0  0
  140.8180   76.4280  221.6200 N   0  0  0  0  0  0  0  0  0  0  0  0
  140.7690   75.0180  221.6120 C   0  0  0  0  0  0  0  0  0  0  0  0
  139.7490   74.3170  222.1290 N   0  0  0  0  0  0  0  0  0  0  0  0
  139.6990   72.9900  222.1210 C   0  0  0  0  0  0  0  0  0  0  0  0
  138.6230   72.2510  222.6690 N   0  0  0  0  0  0  0  0  0  0  0  0
  138.3410   70.8730  222.3810 C   0  0  1  0  0  0  0  0  0  0  0  0
  139.5300   69.9720  222.6290 C   0  0  0  0  0  0  0  0  0  0  0  0
  139.1970   68.8670  223.6110 C   0  0  0  0  0  0  0  0  0  0  0  0
  138.8470   69.5280  224.9100 C   0  0  2  0  0  0  0  0  0  0  0  0
  138.9110   68.7590  226.0790 N   0  0  0  0  0  0  0  0  0  0  0  0
  139.5880   67.5280  226.1020 C   0  0  0  0  0  0  0  0  0  0  0  0
  140.9740   67.8580  226.5270 C   0  0  0  0  0  0  0  0  0  0  0  0
  140.7580   69.0360  227.4560 C   0  0  0  0  0  0  0  0  0  0  0  0
  139.3180   69.3990  227.2730 C   0  0  0  0  0  0  0  0  0  0  0  0
  137.5580   70.2720  224.6910 C   0  0  0  0  0  0  0  0  0  0  0  0
  137.1860   70.3830  223.2130 C   0  0  0  0  0  0  0  0  0  0  0  0
  140.7350   72.3310  221.5600 N   0  0  0  0  0  0  0  0  0  0  0  0
  141.7750   72.9690  221.0300 C   0  0  0  0  0  0  0  0  0  0  0  0
  142.8920   72.3150  220.4260 N   0  0  0  0  0  0  0  0  0  0  0  0
  144.2280   72.8830  220.5020 C   0  0  0  0  0  0  0  0  0  0  0  0
  145.0460   72.3820  219.3130 C   0  0  0  0  0  0  0  0  0  0  0  0
  145.0950   70.8950  219.3800 C   0  0  0  0  0  0  0  0  0  0  0  0
  146.2750   70.2100  219.2420 C   0  0  0  0  0  0  0  0  0  0  0  0
  146.2290   68.8340  219.3180 C   0  0  0  0  0  0  0  0  0  0  0  0
  145.0320   68.1760  219.5260 C   0  0  0  0  0  0  0  0  0  0  0  0
  143.8250   68.8670  219.6690 C   0  0  0  0  0  0  0  0  0  0  0  0
  143.8760   70.2580  219.5910 C   0  0  0  0  0  0  0  0  0  0  0  0
  142.6250   71.0540  219.7330 C   0  0  0  0  0  0  0  0  0  0  0  0
  141.7740   74.3100  221.0650 N   0  0  0  0  0  0  0  0  0  0  0  0
  141.0630   77.1380  222.8580 C   0  0  0  0  0  0  0  0  0  0  0  0
  142.3219   82.2763  222.2891 H   0  0  0  0  0  0  0  0  0  0  0  0
  141.5871   81.4092  224.5257 H   0  0  0  0  0  0  0  0  0  0  0  0
  141.0182   78.9955  224.6950 H   0  0  0  0  0  0  0  0  0  0  0  0
  142.4607   80.7622  220.3594 H   0  0  0  0  0  0  0  0  0  0  0  0
  141.8976   78.6203  219.3422 H   0  0  0  0  0  0  0  0  0  0  0  0
  142.8070   77.4691  220.3251 H   0  0  0  0  0  0  0  0  0  0  0  0
  139.7309   77.8442  220.5038 H   0  0  0  0  0  0  0  0  0  0  0  0
  140.4759   76.5764  219.5291 H   0  0  0  0  0  0  0  0  0  0  0  0
  137.9630   72.7300  223.3470 H   0  0  0  0  0  0  0  0  0  0  0  0
  138.0897   70.8281  221.3110 H   0  0  0  0  0  0  0  0  0  0  0  0
  140.3557   70.5743  223.0358 H   0  0  0  0  0  0  0  0  0  0  0  0
  139.8158   69.5085  221.6733 H   0  0  0  0  0  0  0  0  0  0  0  0
  140.0660   68.2060  223.7452 H   0  0  0  0  0  0  0  0  0  0  0  0
  138.3608   68.2537  223.2441 H   0  0  0  0  0  0  0  0  0  0  0  0
  139.6601   70.2253  225.1600 H   0  0  0  0  0  0  0  0  0  0  0  0
  139.1167   66.8411  226.8204 H   0  0  0  0  0  0  0  0  0  0  0  0
  139.5647   67.0257  225.1237 H   0  0  0  0  0  0  0  0  0  0  0  0
  141.4395   67.0137  227.0566 H   0  0  0  0  0  0  0  0  0  0  0  0
  141.6502   68.0784  225.6879 H   0  0  0  0  0  0  0  0  0  0  0  0
  140.9572   68.7499  228.4993 H   0  0  0  0  0  0  0  0  0  0  0  0
  141.4326   69.8752  227.2308 H   0  0  0  0  0  0  0  0  0  0  0  0
  138.7206   69.0394  228.1238 H   0  0  0  0  0  0  0  0  0  0  0  0
  139.1777   70.4886  227.2179 H   0  0  0  0  0  0  0  0  0  0  0  0
  137.6619   71.2858  225.1050 H   0  0  0  0  0  0  0  0  0  0  0  0
  136.7587   69.7078  225.1937 H   0  0  0  0  0  0  0  0  0  0  0  0
  136.3479   71.0877  223.1088 H   0  0  0  0  0  0  0  0  0  0  0  0
  136.9071   69.3812  222.8545 H   0  0  0  0  0  0  0  0  0  0  0  0
  144.1650   73.9808  220.4708 H   0  0  0  0  0  0  0  0  0  0  0  0
  144.7105   72.5773  221.4421 H   0  0  0  0  0  0  0  0  0  0  0  0
  144.5697   72.6976  218.3730 H   0  0  0  0  0  0  0  0  0  0  0  0
  146.0633   72.7991  219.3470 H   0  0  0  0  0  0  0  0  0  0  0  0
  147.2248   70.7396  219.0765 H   0  0  0  0  0  0  0  0  0  0  0  0
  147.1569   68.2529  219.2117 H   0  0  0  0  0  0  0  0  0  0  0  0
  145.0286   67.0774  219.5806 H   0  0  0  0  0  0  0  0  0  0  0  0
  142.8762   68.3361  219.8358 H   0  0  0  0  0  0  0  0  0  0  0  0
  142.2186   71.2697  218.7339 H   0  0  0  0  0  0  0  0  0  0  0  0
  141.9000   70.4727  220.3217 H   0  0  0  0  0  0  0  0  0  0  0  0
  140.1522   77.0944  223.4733 H   0  0  0  0  0  0  0  0  0  0  0  0
  141.9165   76.6517  223.3530 H   0  0  0  0  0  0  0  0  0  0  0  0
  1  2  2  0
  2  3  1  0
  3  4  2  0
  4  5  1  0
  5  6  2  0
  5  7  1  0
  7  8  1  0
  8  9  1  0
  9 10  1  0
 10 11  2  0
 11 12  1  0
 12 13  1  0
 13 14  1  0
 14 15  1  0
 15 16  1  0
 16 17  1  0
 17 18  1  0
 18 19  1  0
 19 20  1  0
 20 21  1  0
 21 22  1  0
 17 23  1  0
 23 24  1  0
 12 25  2  0
 25 26  1  0
 26 27  1  0
 27 28  1  0
 28 29  1  0
 29 30  1  0
 30 31  2  0
 31 32  1  0
 32 33  2  0
 33 34  1  0
 34 35  2  0
 35 36  1  0
 26 37  2  0
  9 38  1  0
  6  1  1  0
 37 10  1  0
 38  4  1  0
 24 14  1  0
 36 27  1  0
 22 18  1  0
 35 30  1  0
  1 39  1  0
  2 40  1  0
  3 41  1  0
  6 42  1  0
  7 43  1  0
  7 44  1  0
  8 45  1  0
  8 46  1  0
 13 47  1  0
 14 48  1  6
 15 49  1  0
 15 50  1  0
 16 51  1  0
 16 52  1  0
 17 53  1  1
 19 54  1  0
 19 55  1  0
 20 56  1  0
 20 57  1  0
 21 58  1  0
 21 59  1  0
 22 60  1  0
 22 61  1  0
 23 62  1  0
 23 63  1  0
 24 64  1  0
 24 65  1  0
 28 66  1  0
 28 67  1  0
 29 68  1  0
 29 69  1  0
 31 70  1  0
 32 71  1  0
 33 72  1  0
 34 73  1  0
 36 74  1  0
 36 75  1  0
 38 76  1  0
 38 77  1  0
M  END
>  <smiles>  (36) 
c1ccc2c(c1)CCN(c1nc(N[C@H]3CC[C@H](N4CCCC4)CC3)nc(N3CCc4ccccc4C3)n1)C2

>  <score_type>  (36) 
oracle

>  <origin>  (36) 
autodockgpu

>  <m_score__min__energy>  (36) 
-11.02

>  <m_primary>  (36) 
energy

>  <rmsd>  (36) 
11.787510222272909

>  <m_score__min__rmsd>  (36) 
11.787510222272909

>  <meeko>  (36) 
{"free_energy": -10.97, "intermolecular_energy": -12.47, "internal_energy": -1.36, "cluster_size": 7, "cluster_id": 1, "rank_in_cluster": 2}

>  <energy>  (36) 
-9.07

>  <cluster_rmsd>  (36) 
1.69

>  <cluster>  (36) 
2

$$$$

     RDKit          3D

 77 83  0  0  0  0  0  0  0  0999 V2000
  139.5820   69.2380  228.2090 C   0  0  0  0  0  0  0  0  0  0  0  0
  140.7360   69.9900  228.3400 C   0  0  0  0  0  0  0  0  0  0  0  0
  141.1210   70.7230  227.2360 C   0  0  0  0  0  0  0  0  0  0  0  0
  140.4150   70.7250  226.0550 C   0  0  0  0  0  0  0  0  0  0  0  0
  139.2810   69.9820  225.9340 C   0  0  0  0  0  0  0  0  0  0  0  0
  138.8760   69.2410  227.0250 C   0  0  0  0  0  0  0  0  0  0  0  0
  138.5500   70.0110  224.6470 C   0  0  0  0  0  0  0  0  0  0  0  0
  139.6370   69.9430  223.5640 C   0  0  0  0  0  0  0  0  0  0  0  0
  140.3470   71.2020  223.6660 N   0  0  0  0  0  0  0  0  0  0  0  0
  140.4850   72.0750  222.5660 C   0  0  0  0  0  0  0  0  0  0  0  0
  140.8840   71.6670  221.3520 N   0  0  0  0  0  0  0  0  0  0  0  0
  141.0110   72.4860  220.3140 C   0  0  0  0  0  0  0  0  0  0  0  0
  141.4350   72.0560  219.0330 N   0  0  0  0  0  0  0  0  0  0  0  0
  142.7580   72.2290  218.5040 C   0  0  1  0  0  0  0  0  0  0  0  0
  143.8080   72.3340  219.5860 C   0  0  0  0  0  0  0  0  0  0  0  0
  144.8880   71.2830  219.4190 C   0  0  0  0  0  0  0  0  0  0  0  0
  144.2220   69.9480  219.5570 C   0  0  2  0  0  0  0  0  0  0  0  0
  145.0230   68.8400  219.8640 N   0  0  0  0  0  0  0  0  0  0  0  0
  144.5350   67.5300  219.7230 C   0  0  0  0  0  0  0  0  0  0  0  0
  144.9150   67.1230  218.3440 C   0  0  0  0  0  0  0  0  0  0  0  0
  146.2230   67.8610  218.1360 C   0  0  0  0  0  0  0  0  0  0  0  0
  146.3230   68.7860  219.3090 C   0  0  0  0  0  0  0  0  0  0  0  0
  143.3160   69.7840  218.3680 C   0  0  0  0  0  0  0  0  0  0  0  0
  143.1190   71.0860  217.5930 C   0  0  0  0  0  0  0  0  0  0  0  0
  140.7200   73.7900  220.5090 N   0  0  0  0  0  0  0  0  0  0  0  0
  140.3190   74.2550  221.6890 C   0  0  0  0  0  0  0  0  0  0  0  0
  139.9990   75.6240  221.9420 N   0  0  0  0  0  0  0  0  0  0  0  0
  138.6660   76.0170  222.3730 C   0  0  0  0  0  0  0  0  0  0  0  0
  138.4240   77.4690  221.9600 C   0  0  0  0  0  0  0  0  0  0  0  0
  139.4640   78.3130  222.6100 C   0  0  0  0  0  0  0  0  0  0  0  0
  139.1380   79.4640  223.2810 C   0  0  0  0  0  0  0  0  0  0  0  0
  140.1650   80.1850  223.8530 C   0  0  0  0  0  0  0  0  0  0  0  0
  141.4740   79.7560  223.7500 C   0  0  0  0  0  0  0  0  0  0  0  0
  141.8150   78.5840  223.0680 C   0  0  0  0  0  0  0  0  0  0  0  0
  140.7740   77.8590  222.4910 C   0  0  0  0  0  0  0  0  0  0  0  0
  141.0700   76.6010  221.7490 C   0  0  0  0  0  0  0  0  0  0  0  0
  140.2070   73.3850  222.7030 N   0  0  0  0  0  0  0  0  0  0  0  0
  140.9280   71.5520  224.9460 C   0  0  0  0  0  0  0  0  0  0  0  0
  139.2253   68.6333  229.0558 H   0  0  0  0  0  0  0  0  0  0  0  0
  141.3158   70.0029  229.2747 H   0  0  0  0  0  0  0  0  0  0  0  0
  142.0337   71.3333  227.3032 H   0  0  0  0  0  0  0  0  0  0  0  0
  137.9619   68.6341  226.9477 H   0  0  0  0  0  0  0  0  0  0  0  0
  137.8730   69.1476  224.5686 H   0  0  0  0  0  0  0  0  0  0  0  0
  137.9276   70.9126  224.5483 H   0  0  0  0  0  0  0  0  0  0  0  0
  140.3173   69.0992  223.7514 H   0  0  0  0  0  0  0  0  0  0  0  0
  139.2122   69.7882  222.5612 H   0  0  0  0  0  0  0  0  0  0  0  0
  140.7410   71.5640  218.4000 H   0  0  0  0  0  0  0  0  0  0  0  0
  142.7431   73.1756  217.9439 H   0  0  0  0  0  0  0  0  0  0  0  0
  143.3262   72.1983  220.5655 H   0  0  0  0  0  0  0  0  0  0  0  0
  144.2786   73.3256  219.5139 H   0  0  0  0  0  0  0  0  0  0  0  0
  145.6570   71.4041  220.1962 H   0  0  0  0  0  0  0  0  0  0  0  0
  145.3810   71.3775  218.4402 H   0  0  0  0  0  0  0  0  0  0  0  0
  143.6402   69.9603  220.4905 H   0  0  0  0  0  0  0  0  0  0  0  0
  144.9989   66.8629  220.4645 H   0  0  0  0  0  0  0  0  0  0  0  0
  143.4484   67.4746  219.8851 H   0  0  0  0  0  0  0  0  0  0  0  0
  145.0569   66.0344  218.2751 H   0  0  0  0  0  0  0  0  0  0  0  0
  144.1511   67.3609  217.5891 H   0  0  0  0  0  0  0  0  0  0  0  0
  147.0684   67.1574  218.1227 H   0  0  0  0  0  0  0  0  0  0  0  0
  146.2519   68.3981  217.1765 H   0  0  0  0  0  0  0  0  0  0  0  0
  147.0392   68.3946  220.0465 H   0  0  0  0  0  0  0  0  0  0  0  0
  146.6798   69.7831  219.0113 H   0  0  0  0  0  0  0  0  0  0  0  0
  142.3349   69.4315  218.7190 H   0  0  0  0  0  0  0  0  0  0  0  0
  143.7885   69.0604  217.6874 H   0  0  0  0  0  0  0  0  0  0  0  0
  142.3107   70.9455  216.8603 H   0  0  0  0  0  0  0  0  0  0  0  0
  144.0670   71.3333  217.0928 H   0  0  0  0  0  0  0  0  0  0  0  0
  137.9168   75.3673  221.8970 H   0  0  0  0  0  0  0  0  0  0  0  0
  138.5821   75.9197  223.4655 H   0  0  0  0  0  0  0  0  0  0  0  0
  138.4972   77.5630  220.8665 H   0  0  0  0  0  0  0  0  0  0  0  0
  137.4201   77.7923  222.2725 H   0  0  0  0  0  0  0  0  0  0  0  0
  138.0937   79.8003  223.3601 H   0  0  0  0  0  0  0  0  0  0  0  0
  139.9390   81.1133  224.3981 H   0  0  0  0  0  0  0  0  0  0  0  0
  142.2706   80.3532  224.2177 H   0  0  0  0  0  0  0  0  0  0  0  0
  142.8598   78.2487  222.9902 H   0  0  0  0  0  0  0  0  0  0  0  0
  141.1635   76.8275  220.6766 H   0  0  0  0  0  0  0  0  0  0  0  0
  142.0097   76.1766  222.1322 H   0  0  0  0  0  0  0  0  0  0  0  0
  142.0182   71.4194  224.8846 H   0  0  0  0  0  0  0  0  0  0  0  0
  140.6538   72.5959  225.1585 H   0  0  0  0  0  0  0  0  0  0  0  0
  1  2  2  0
  2  3  1  0
  3  4  2  0
  4  5  1  0
  5  6  2  0
  5  7  1  0
  7  8  1  0
  8  9  1  0
  9 10  1  0
 10 11  2  0
 11 12  1  0
 12 13  1  0
 13 14  1  0
 14 15  1  0
 15 16  1  0
 16 17  1  0
 17 18  1  0
 18 19  1  0
 19 20  1  0
 20 21  1  0
 21 22  1  0
 17 23  1  0
 23 24  1  0
 12 25  2  0
 25 26  1  0
 26 27  1  0
 27 28  1  0
 28 29  1  0
 29 30  1  0
 30 31  2  0
 31 32  1  0
 32 33  2  0
 33 34  1  0
 34 35  2  0
 35 36  1  0
 26 37  2  0
  9 38  1  0
  6  1  1  0
 37 10  1  0
 38  4  1  0
 24 14  1  0
 36 27  1  0
 22 18  1  0
 35 30  1  0
  1 39  1  0
  2 40  1  0
  3 41  1  0
  6 42  1  0
  7 43  1  0
  7 44  1  0
  8 45  1  0
  8 46  1  0
 13 47  1  0
 14 48  1  6
 15 49  1  0
 15 50  1  0
 16 51  1  0
 16 52  1  0
 17 53  1  1
 19 54  1  0
 19 55  1  0
 20 56  1  0
 20 57  1  0
 21 58  1  0
 21 59  1  0
 22 60  1  0
 22 61  1  0
 23 62  1  0
 23 63  1  0
 24 64  1  0
 24 65  1  0
 28 66  1  0
 28 67  1  0
 29 68  1  0
 29 69  1  0
 31 70  1  0
 32 71  1  0
 33 72  1  0
 34 73  1  0
 36 74  1  0
 36 75  1  0
 38 76  1  0
 38 77  1  0
M  END
>  <smiles>  (37) 
c1ccc2c(c1)CCN(c1nc(N[C@H]3CC[C@H](N4CCCC4)CC3)nc(N3CCc4ccccc4C3)n1)C2

>  <score_type>  (37) 
oracle

>  <origin>  (37) 
autodockgpu

>  <m_score__min__energy>  (37) 
-11.02

>  <m_primary>  (37) 
energy

>  <rmsd>  (37) 
10.600091468143889

>  <m_score__min__rmsd>  (37) 
10.600091468143889

>  <meeko>  (37) 
{"free_energy": -10.32, "intermolecular_energy": -11.81, "internal_energy": -1.42, "cluster_size": 32, "cluster_id": 2, "rank_in_cluster": 4}

>  <energy>  (37) 
-8.96

>  <cluster_rmsd>  (37) 
1.74

>  <cluster>  (37) 
2

$$$$

     RDKit          3D

 77 83  0  0  0  0  0  0  0  0999 V2000
  139.7450   80.8750  223.0260 C   0  0  0  0  0  0  0  0  0  0  0  0
  141.0050   80.5140  223.4670 C   0  0  0  0  0  0  0  0  0  0  0  0
  141.3560   79.1880  223.3080 C   0  0  0  0  0  0  0  0  0  0  0  0
  140.5180   78.2540  222.7440 C   0  0  0  0  0  0  0  0  0  0  0  0
  139.2780   78.6180  222.3130 C   0  0  0  0  0  0  0  0  0  0  0  0
  138.9050   79.9390  222.4620 C   0  0  0  0  0  0  0  0  0  0  0  0
  138.4060   77.5830  221.7130 C   0  0  0  0  0  0  0  0  0  0  0  0
  138.5810   76.3430  222.6010 C   0  0  0  0  0  0  0  0  0  0  0  0
  139.9470   75.9130  222.3800 N   0  0  0  0  0  0  0  0  0  0  0  0
  140.2600   74.6090  221.9390 C   0  0  0  0  0  0  0  0  0  0  0  0
  140.8330   74.3540  220.7540 N   0  0  0  0  0  0  0  0  0  0  0  0
  141.1310   73.1290  220.3370 C   0  0  0  0  0  0  0  0  0  0  0  0
  141.7350   72.8610  219.0850 N   0  0  0  0  0  0  0  0  0  0  0  0
  143.0560   73.2720  218.7040 C   0  0  1  0  0  0  0  0  0  0  0  0
  143.0800   73.9910  217.3740 C   0  0  0  0  0  0  0  0  0  0  0  0
  143.6960   75.3710  217.4970 C   0  0  0  0  0  0  0  0  0  0  0  0
  142.8220   76.1580  218.4250 C   0  0  2  0  0  0  0  0  0  0  0  0
  142.9090   77.5550  218.3880 N   0  0  0  0  0  0  0  0  0  0  0  0
  142.6890   78.2640  217.1930 C   0  0  0  0  0  0  0  0  0  0  0  0
  141.2390   78.5920  217.2010 C   0  0  0  0  0  0  0  0  0  0  0  0
  140.9530   78.7700  218.6790 C   0  0  0  0  0  0  0  0  0  0  0  0
  142.1970   78.2920  219.3620 C   0  0  0  0  0  0  0  0  0  0  0  0
  142.9560   75.5350  219.7880 C   0  0  0  0  0  0  0  0  0  0  0  0
  143.6530   74.1760  219.7490 C   0  0  0  0  0  0  0  0  0  0  0  0
  140.8350   72.1010  221.1610 N   0  0  0  0  0  0  0  0  0  0  0  0
  140.2660   72.2900  222.3480 C   0  0  0  0  0  0  0  0  0  0  0  0
  139.9350   71.2350  223.2530 N   0  0  0  0  0  0  0  0  0  0  0  0
  139.4740   69.9440  222.7660 C   0  0  0  0  0  0  0  0  0  0  0  0
  138.6260   69.2820  223.8520 C   0  0  0  0  0  0  0  0  0  0  0  0
  139.4730   69.1210  225.0660 C   0  0  0  0  0  0  0  0  0  0  0  0
  139.5340   67.9320  225.7450 C   0  0  0  0  0  0  0  0  0  0  0  0
  140.3460   67.8710  226.8580 C   0  0  0  0  0  0  0  0  0  0  0  0
  141.0680   68.9740  227.2690 C   0  0  0  0  0  0  0  0  0  0  0  0
  141.0120   70.1910  226.5820 C   0  0  0  0  0  0  0  0  0  0  0  0
  140.1910   70.2480  225.4570 C   0  0  0  0  0  0  0  0  0  0  0  0
  140.0850   71.5150  224.6810 C   0  0  0  0  0  0  0  0  0  0  0  0
  139.9860   73.5480  222.7200 N   0  0  0  0  0  0  0  0  0  0  0  0
  141.0080   76.8670  222.6270 C   0  0  0  0  0  0  0  0  0  0  0  0
  139.4103   81.9180  223.1262 H   0  0  0  0  0  0  0  0  0  0  0  0
  141.6912   81.2444  223.9204 H   0  0  0  0  0  0  0  0  0  0  0  0
  142.3507   78.8638  223.6477 H   0  0  0  0  0  0  0  0  0  0  0  0
  137.9079   80.2538  222.1205 H   0  0  0  0  0  0  0  0  0  0  0  0
  137.3570   77.9140  221.7155 H   0  0  0  0  0  0  0  0  0  0  0  0
  138.6723   77.3787  220.6655 H   0  0  0  0  0  0  0  0  0  0  0  0
  138.4228   76.5997  223.6589 H   0  0  0  0  0  0  0  0  0  0  0  0
  137.8548   75.5539  222.3563 H   0  0  0  0  0  0  0  0  0  0  0  0
  141.1890   72.3150  218.3570 H   0  0  0  0  0  0  0  0  0  0  0  0
  143.6490   72.3503  218.6104 H   0  0  0  0  0  0  0  0  0  0  0  0
  142.0490   74.0919  217.0040 H   0  0  0  0  0  0  0  0  0  0  0  0
  143.6921   73.4019  216.6752 H   0  0  0  0  0  0  0  0  0  0  0  0
  143.7346   75.8570  216.5109 H   0  0  0  0  0  0  0  0  0  0  0  0
  144.7243   75.3096  217.8828 H   0  0  0  0  0  0  0  0  0  0  0  0
  141.7879   76.0759  218.0590 H   0  0  0  0  0  0  0  0  0  0  0  0
  143.2931   79.1830  217.1720 H   0  0  0  0  0  0  0  0  0  0  0  0
  142.9751   77.6785  216.3068 H   0  0  0  0  0  0  0  0  0  0  0  0
  141.0375   79.5180  216.6425 H   0  0  0  0  0  0  0  0  0  0  0  0
  140.6126   77.8253  216.7216 H   0  0  0  0  0  0  0  0  0  0  0  0
  140.7626   79.8277  218.9135 H   0  0  0  0  0  0  0  0  0  0  0  0
  140.0594   78.2157  219.0018 H   0  0  0  0  0  0  0  0  0  0  0  0
  142.7960   79.1465  219.7100 H   0  0  0  0  0  0  0  0  0  0  0  0
  141.9652   77.6792  220.2456 H   0  0  0  0  0  0  0  0  0  0  0  0
  141.9509   75.4029  220.2149 H   0  0  0  0  0  0  0  0  0  0  0  0
  143.5733   76.2076  220.4016 H   0  0  0  0  0  0  0  0  0  0  0  0
  143.5535   73.6963  220.7339 H   0  0  0  0  0  0  0  0  0  0  0  0
  144.7105   74.3410  219.4950 H   0  0  0  0  0  0  0  0  0  0  0  0
  138.8680   70.0859  221.8590 H   0  0  0  0  0  0  0  0  0  0  0  0
  140.3368   69.3058  222.5246 H   0  0  0  0  0  0  0  0  0  0  0  0
  137.7573   69.9154  224.0847 H   0  0  0  0  0  0  0  0  0  0  0  0
  138.2629   68.3023  223.5079 H   0  0  0  0  0  0  0  0  0  0  0  0
  138.9555   67.0570  225.4138 H   0  0  0  0  0  0  0  0  0  0  0  0
  140.4195   66.9317  227.4257 H   0  0  0  0  0  0  0  0  0  0  0  0
  141.7052   68.8932  228.1620 H   0  0  0  0  0  0  0  0  0  0  0  0
  141.5907   71.0652  226.9150 H   0  0  0  0  0  0  0  0  0  0  0  0
  139.2098   72.0814  225.0319 H   0  0  0  0  0  0  0  0  0  0  0  0
  141.0038   72.1006  224.8322 H   0  0  0  0  0  0  0  0  0  0  0  0
  141.5145   76.5936  223.5644 H   0  0  0  0  0  0  0  0  0  0  0  0
  141.6917   76.8302  221.7661 H   0  0  0  0  0  0  0  0  0  0  0  0
  1  2  2  0
  2  3  1  0
  3  4  2  0
  4  5  1  0
  5  6  2  0
  5  7  1  0
  7  8  1  0
  8  9  1  0
  9 10  1  0
 10 11  2  0
 11 12  1  0
 12 13  1  0
 13 14  1  0
 14 15  1  0
 15 16  1  0
 16 17  1  0
 17 18  1  0
 18 19  1  0
 19 20  1  0
 20 21  1  0
 21 22  1  0
 17 23  1  0
 23 24  1  0
 12 25  2  0
 25 26  1  0
 26 27  1  0
 27 28  1  0
 28 29  1  0
 29 30  1  0
 30 31  2  0
 31 32  1  0
 32 33  2  0
 33 34  1  0
 34 35  2  0
 35 36  1  0
 26 37  2  0
  9 38  1  0
  6  1  1  0
 37 10  1  0
 38  4  1  0
 24 14  1  0
 36 27  1  0
 22 18  1  0
 35 30  1  0
  1 39  1  0
  2 40  1  0
  3 41  1  0
  6 42  1  0
  7 43  1  0
  7 44  1  0
  8 45  1  0
  8 46  1  0
 13 47  1  0
 14 48  1  6
 15 49  1  0
 15 50  1  0
 16 51  1  0
 16 52  1  0
 17 53  1  6
 19 54  1  0
 19 55  1  0
 20 56  1  0
 20 57  1  0
 21 58  1  0
 21 59  1  0
 22 60  1  0
 22 61  1  0
 23 62  1  0
 23 63  1  0
 24 64  1  0
 24 65  1  0
 28 66  1  0
 28 67  1  0
 29 68  1  0
 29 69  1  0
 31 70  1  0
 32 71  1  0
 33 72  1  0
 34 73  1  0
 36 74  1  0
 36 75  1  0
 38 76  1  0
 38 77  1  0
M  END
>  <smiles>  (38) 
c1ccc2c(c1)CCN(c1nc(N[C@H]3CC[C@H](N4CCCC4)CC3)nc(N3CCc4ccccc4C3)n1)C2

>  <score_type>  (38) 
oracle

>  <origin>  (38) 
autodockgpu

>  <m_score__min__energy>  (38) 
-11.02

>  <m_primary>  (38) 
energy

>  <rmsd>  (38) 
6.41519805737843

>  <m_score__min__rmsd>  (38) 
6.41519805737843

>  <meeko>  (38) 
{"free_energy": -9.57, "intermolecular_energy": -11.07, "internal_energy": -1.86, "cluster_size": 32, "cluster_id": 2, "rank_in_cluster": 13}

>  <energy>  (38) 
-8.91

>  <cluster_rmsd>  (38) 
1.53

>  <cluster>  (38) 
2

$$$$

     RDKit          3D

 77 83  0  0  0  0  0  0  0  0999 V2000
  139.7630   69.3070  228.2080 C   0  0  0  0  0  0  0  0  0  0  0  0
  140.8190   70.1940  228.3180 C   0  0  0  0  0  0  0  0  0  0  0  0
  141.1070   70.9480  227.1990 C   0  0  0  0  0  0  0  0  0  0  0  0
  140.4000   70.8450  226.0240 C   0  0  0  0  0  0  0  0  0  0  0  0
  139.3620   69.9690  225.9240 C   0  0  0  0  0  0  0  0  0  0  0  0
  139.0550   69.2040  227.0310 C   0  0  0  0  0  0  0  0  0  0  0  0
  138.6260   69.8870  224.6420 C   0  0  0  0  0  0  0  0  0  0  0  0
  139.7070   69.9310  223.5520 C   0  0  0  0  0  0  0  0  0  0  0  0
  140.2620   71.2670  223.6270 N   0  0  0  0  0  0  0  0  0  0  0  0
  140.2870   72.1310  222.5110 C   0  0  0  0  0  0  0  0  0  0  0  0
  140.5770   71.7160  221.2690 N   0  0  0  0  0  0  0  0  0  0  0  0
  140.5990   72.5250  220.2170 C   0  0  0  0  0  0  0  0  0  0  0  0
  140.9070   72.0870  218.9060 N   0  0  0  0  0  0  0  0  0  0  0  0
  142.2100   72.1380  218.3070 C   0  0  1  0  0  0  0  0  0  0  0  0
  142.2380   72.9700  217.0460 C   0  0  0  0  0  0  0  0  0  0  0  0
  143.2590   74.0870  217.1360 C   0  0  0  0  0  0  0  0  0  0  0  0
  142.8310   74.9790  218.2610 C   0  0  2  0  0  0  0  0  0  0  0  0
  143.3360   76.2850  218.2960 N   0  0  0  0  0  0  0  0  0  0  0  0
  143.2520   77.1250  217.1710 C   0  0  0  0  0  0  0  0  0  0  0  0
  141.9750   77.8690  217.3410 C   0  0  0  0  0  0  0  0  0  0  0  0
  141.8710   77.9970  218.8480 C   0  0  0  0  0  0  0  0  0  0  0  0
  142.9580   77.1160  219.3760 C   0  0  0  0  0  0  0  0  0  0  0  0
  142.9870   74.1890  219.5320 C   0  0  0  0  0  0  0  0  0  0  0  0
  143.2170   72.7000  219.2750 C   0  0  0  0  0  0  0  0  0  0  0  0
  140.3120   73.8280  220.4270 N   0  0  0  0  0  0  0  0  0  0  0  0
  140.0170   74.3000  221.6350 C   0  0  0  0  0  0  0  0  0  0  0  0
  139.7070   75.6690  221.9040 N   0  0  0  0  0  0  0  0  0  0  0  0
  138.3840   76.0640  222.3620 C   0  0  0  0  0  0  0  0  0  0  0  0
  138.1400   77.5200  221.9650 C   0  0  0  0  0  0  0  0  0  0  0  0
  139.1950   78.3550  222.6030 C   0  0  0  0  0  0  0  0  0  0  0  0
  138.8860   79.5010  223.2890 C   0  0  0  0  0  0  0  0  0  0  0  0
  139.9250   80.2130  223.8480 C   0  0  0  0  0  0  0  0  0  0  0  0
  141.2310   79.7810  223.7180 C   0  0  0  0  0  0  0  0  0  0  0  0
  141.5560   78.6130  223.0210 C   0  0  0  0  0  0  0  0  0  0  0  0
  140.5020   77.8960  222.4570 C   0  0  0  0  0  0  0  0  0  0  0  0
  140.7790   76.6430  221.7000 C   0  0  0  0  0  0  0  0  0  0  0  0
  140.0090   73.4390  222.6630 N   0  0  0  0  0  0  0  0  0  0  0  0
  140.8030   71.7070  224.8960 C   0  0  0  0  0  0  0  0  0  0  0  0
  139.4865   68.6788  229.0676 H   0  0  0  0  0  0  0  0  0  0  0  0
  141.3981   70.2928  229.2480 H   0  0  0  0  0  0  0  0  0  0  0  0
  141.9403   71.6643  227.2490 H   0  0  0  0  0  0  0  0  0  0  0  0
  138.2198   68.4906  226.9715 H   0  0  0  0  0  0  0  0  0  0  0  0
  138.0574   68.9472  224.5833 H   0  0  0  0  0  0  0  0  0  0  0  0
  137.8992   70.7054  224.5327 H   0  0  0  0  0  0  0  0  0  0  0  0
  140.4845   69.1780  223.7481 H   0  0  0  0  0  0  0  0  0  0  0  0
  139.2976   69.7093  222.5554 H   0  0  0  0  0  0  0  0  0  0  0  0
  140.1320   71.6850  218.3030 H   0  0  0  0  0  0  0  0  0  0  0  0
  142.4675   71.1015  218.0436 H   0  0  0  0  0  0  0  0  0  0  0  0
  141.2421   73.4089  216.8859 H   0  0  0  0  0  0  0  0  0  0  0  0
  142.5183   72.3148  216.2081 H   0  0  0  0  0  0  0  0  0  0  0  0
  143.2843   74.6531  216.1932 H   0  0  0  0  0  0  0  0  0  0  0  0
  144.2673   73.6850  217.3143 H   0  0  0  0  0  0  0  0  0  0  0  0
  141.7764   75.2434  218.0939 H   0  0  0  0  0  0  0  0  0  0  0  0
  144.1039   77.8203  217.1431 H   0  0  0  0  0  0  0  0  0  0  0  0
  143.2777   76.5578  216.2288 H   0  0  0  0  0  0  0  0  0  0  0  0
  142.0231   78.8571  216.8601 H   0  0  0  0  0  0  0  0  0  0  0  0
  141.1100   77.3682  216.8817 H   0  0  0  0  0  0  0  0  0  0  0  0
  142.0292   79.0395  219.1613 H   0  0  0  0  0  0  0  0  0  0  0  0
  140.8788   77.7073  219.2243 H   0  0  0  0  0  0  0  0  0  0  0  0
  143.8130   77.7212  219.7117 H   0  0  0  0  0  0  0  0  0  0  0  0
  142.6191   76.5277  220.2415 H   0  0  0  0  0  0  0  0  0  0  0  0
  142.0734   74.3056  220.1335 H   0  0  0  0  0  0  0  0  0  0  0  0
  143.8718   74.5765  220.0582 H   0  0  0  0  0  0  0  0  0  0  0  0
  143.1359   72.1573  220.2284 H   0  0  0  0  0  0  0  0  0  0  0  0
  144.2182   72.5793  218.8356 H   0  0  0  0  0  0  0  0  0  0  0  0
  137.6237   75.4209  221.8947 H   0  0  0  0  0  0  0  0  0  0  0  0
  138.3198   75.9587  223.4551 H   0  0  0  0  0  0  0  0  0  0  0  0
  138.1938   77.6225  220.8711 H   0  0  0  0  0  0  0  0  0  0  0  0
  137.1431   77.8445  222.2980 H   0  0  0  0  0  0  0  0  0  0  0  0
  137.8446   79.8405  223.3897 H   0  0  0  0  0  0  0  0  0  0  0  0
  139.7119   81.1373  224.4050 H   0  0  0  0  0  0  0  0  0  0  0  0
  142.0377   80.3724  224.1756 H   0  0  0  0  0  0  0  0  0  0  0  0
  142.5980   78.2748  222.9221 H   0  0  0  0  0  0  0  0  0  0  0  0
  140.8546   76.8778  220.6280 H   0  0  0  0  0  0  0  0  0  0  0  0
  141.7233   76.2114  222.0632 H   0  0  0  0  0  0  0  0  0  0  0  0
  141.9009   71.7057  224.8285 H   0  0  0  0  0  0  0  0  0  0  0  0
  140.4052   72.7136  225.0923 H   0  0  0  0  0  0  0  0  0  0  0  0
  1  2  2  0
  2  3  1  0
  3  4  2  0
  4  5  1  0
  5  6  2  0
  5  7  1  0
  7  8  1  0
  8  9  1  0
  9 10  1  0
 10 11  2  0
 11 12  1  0
 12 13  1  0
 13 14  1  0
 14 15  1  0
 15 16  1  0
 16 17  1  0
 17 18  1  0
 18 19  1  0
 19 20  1  0
 20 21  1  0
 21 22  1  0
 17 23  1  0
 23 24  1  0
 12 25  2  0
 25 26  1  0
 26 27  1  0
 27 28  1  0
 28 29  1  0
 29 30  1  0
 30 31  2  0
 31 32  1  0
 32 33  2  0
 33 34  1  0
 34 35  2  0
 35 36  1  0
 26 37  2  0
  9 38  1  0
  6  1  1  0
 37 10  1  0
 38  4  1  0
 24 14  1  0
 36 27  1  0
 22 18  1  0
 35 30  1  0
  1 39  1  0
  2 40  1  0
  3 41  1  0
  6 42  1  0
  7 43  1  0
  7 44  1  0
  8 45  1  0
  8 46  1  0
 13 47  1  0
 14 48  1  6
 15 49  1  0
 15 50  1  0
 16 51  1  0
 16 52  1  0
 17 53  1  6
 19 54  1  0
 19 55  1  0
 20 56  1  0
 20 57  1  0
 21 58  1  0
 21 59  1  0
 22 60  1  0
 22 61  1  0
 23 62  1  0
 23 63  1  0
 24 64  1  0
 24 65  1  0
 28 66  1  0
 28 67  1  0
 29 68  1  0
 29 69  1  0
 31 70  1  0
 32 71  1  0
 33 72  1  0
 34 73  1  0
 36 74  1  0
 36 75  1  0
 38 76  1  0
 38 77  1  0
M  END
>  <smiles>  (39) 
c1ccc2c(c1)CCN(c1nc(N[C@H]3CC[C@H](N4CCCC4)CC3)nc(N3CCc4ccccc4C3)n1)C2

>  <score_type>  (39) 
oracle

>  <origin>  (39) 
autodockgpu

>  <m_score__min__energy>  (39) 
-11.02

>  <m_primary>  (39) 
energy

>  <rmsd>  (39) 
7.102307510295363

>  <m_score__min__rmsd>  (39) 
7.102307510295363

>  <meeko>  (39) 
{"free_energy": -9.31, "intermolecular_energy": -10.8, "internal_energy": -2.0, "cluster_size": 32, "cluster_id": 2, "rank_in_cluster": 22}

>  <energy>  (39) 
-8.69

>  <cluster_rmsd>  (39) 
1.85

>  <cluster>  (39) 
2

$$$$

     RDKit          3D

 77 83  0  0  0  0  0  0  0  0999 V2000
  139.5870   69.0770  227.9260 C   0  0  0  0  0  0  0  0  0  0  0  0
  140.7670   69.7820  228.0900 C   0  0  0  0  0  0  0  0  0  0  0  0
  141.1800   70.5450  227.0170 C   0  0  0  0  0  0  0  0  0  0  0  0
  140.4790   70.6190  225.8360 C   0  0  0  0  0  0  0  0  0  0  0  0
  139.3190   69.9220  225.6830 C   0  0  0  0  0  0  0  0  0  0  0  0
  138.8850   69.1520  226.7430 C   0  0  0  0  0  0  0  0  0  0  0  0
  138.5940   70.0280  224.3970 C   0  0  0  0  0  0  0  0  0  0  0  0
  139.6810   69.9650  223.3140 C   0  0  0  0  0  0  0  0  0  0  0  0
  140.4350   71.1940  223.4670 N   0  0  0  0  0  0  0  0  0  0  0  0
  140.6060   72.1050  222.4040 C   0  0  0  0  0  0  0  0  0  0  0  0
  141.0740   71.7460  221.1990 N   0  0  0  0  0  0  0  0  0  0  0  0
  141.2330   72.6000  220.1950 C   0  0  0  0  0  0  0  0  0  0  0  0
  141.7300   72.2210  218.9240 N   0  0  0  0  0  0  0  0  0  0  0  0
  143.1060   72.2930  218.5240 C   0  0  1  0  0  0  0  0  0  0  0  0
  144.0580   72.1850  219.6940 C   0  0  0  0  0  0  0  0  0  0  0  0
  145.0350   71.0410  219.5150 C   0  0  0  0  0  0  0  0  0  0  0  0
  144.2260   69.7800  219.4670 C   0  0  2  0  0  0  0  0  0  0  0  0
  144.8780   68.5680  219.7300 N   0  0  0  0  0  0  0  0  0  0  0  0
  144.3040   67.3400  219.3580 C   0  0  0  0  0  0  0  0  0  0  0  0
  144.8390   67.0600  218.0000 C   0  0  0  0  0  0  0  0  0  0  0  0
  146.2220   67.6790  218.0600 C   0  0  0  0  0  0  0  0  0  0  0  0
  146.2330   68.4460  219.3450 C   0  0  0  0  0  0  0  0  0  0  0  0
  143.4210   69.8230  218.1980 C   0  0  0  0  0  0  0  0  0  0  0  0
  143.4310   71.2010  217.5400 C   0  0  0  0  0  0  0  0  0  0  0  0
  140.9030   73.8910  220.4170 N   0  0  0  0  0  0  0  0  0  0  0  0
  140.4330   74.3080  221.5890 C   0  0  0  0  0  0  0  0  0  0  0  0
  140.0700   75.6610  221.8680 N   0  0  0  0  0  0  0  0  0  0  0  0
  138.7460   75.9960  222.3690 C   0  0  0  0  0  0  0  0  0  0  0  0
  138.4220   77.4380  221.9810 C   0  0  0  0  0  0  0  0  0  0  0  0
  139.4580   78.3220  222.5840 C   0  0  0  0  0  0  0  0  0  0  0  0
  139.1190   79.4540  223.2790 C   0  0  0  0  0  0  0  0  0  0  0  0
  140.1420   80.2130  223.8050 C   0  0  0  0  0  0  0  0  0  0  0  0
  141.4610   79.8410  223.6320 C   0  0  0  0  0  0  0  0  0  0  0  0
  141.8160   78.6880  222.9250 C   0  0  0  0  0  0  0  0  0  0  0  0
  140.7790   77.9230  222.3950 C   0  0  0  0  0  0  0  0  0  0  0  0
  141.0880   76.6830  221.6290 C   0  0  0  0  0  0  0  0  0  0  0  0
  140.2920   73.4030  222.5680 N   0  0  0  0  0  0  0  0  0  0  0  0
  141.0230   71.4720  224.7610 C   0  0  0  0  0  0  0  0  0  0  0  0
  139.2067   68.4517  228.7472 H   0  0  0  0  0  0  0  0  0  0  0  0
  141.3443   69.7364  229.0252 H   0  0  0  0  0  0  0  0  0  0  0  0
  142.1128   71.1205  227.1105 H   0  0  0  0  0  0  0  0  0  0  0  0
  137.9504   68.5810  226.6402 H   0  0  0  0  0  0  0  0  0  0  0  0
  137.8873   69.1928  224.2829 H   0  0  0  0  0  0  0  0  0  0  0  0
  138.0042   70.9543  224.3333 H   0  0  0  0  0  0  0  0  0  0  0  0
  140.3307   69.0910  223.4688 H   0  0  0  0  0  0  0  0  0  0  0  0
  139.2538   69.8652  222.3052 H   0  0  0  0  0  0  0  0  0  0  0  0
  141.0520   71.8510  218.1970 H   0  0  0  0  0  0  0  0  0  0  0  0
  143.2385   73.2809  218.0588 H   0  0  0  0  0  0  0  0  0  0  0  0
  143.4768   72.0175  220.6127 H   0  0  0  0  0  0  0  0  0  0  0  0
  144.6324   73.1210  219.7574 H   0  0  0  0  0  0  0  0  0  0  0  0
  145.7374   71.0077  220.3609 H   0  0  0  0  0  0  0  0  0  0  0  0
  145.6232   71.1664  218.5939 H   0  0  0  0  0  0  0  0  0  0  0  0
  143.5648   69.7732  220.3461 H   0  0  0  0  0  0  0  0  0  0  0  0
  144.5991   66.5468  220.0607 H   0  0  0  0  0  0  0  0  0  0  0  0
  143.2047   67.3780  219.3689 H   0  0  0  0  0  0  0  0  0  0  0  0
  144.8953   65.9780  217.8099 H   0  0  0  0  0  0  0  0  0  0  0  0
  144.2128   67.4617  217.1898 H   0  0  0  0  0  0  0  0  0  0  0  0
  146.9974   66.8988  218.0661 H   0  0  0  0  0  0  0  0  0  0  0  0
  146.4329   68.3176  217.1895 H   0  0  0  0  0  0  0  0  0  0  0  0
  146.8020   67.9005  220.1123 H   0  0  0  0  0  0  0  0  0  0  0  0
  146.7113   69.4295  219.2264 H   0  0  0  0  0  0  0  0  0  0  0  0
  142.3808   69.5522  218.4318 H   0  0  0  0  0  0  0  0  0  0  0  0
  143.8769   69.1141  217.4912 H   0  0  0  0  0  0  0  0  0  0  0  0
  142.6841   71.2154  216.7326 H   0  0  0  0  0  0  0  0  0  0  0  0
  144.4418   71.3848  217.1469 H   0  0  0  0  0  0  0  0  0  0  0  0
  138.0011   75.3181  221.9268 H   0  0  0  0  0  0  0  0  0  0  0  0
  138.7231   75.8897  223.4636 H   0  0  0  0  0  0  0  0  0  0  0  0
  138.4347   77.5415  220.8860 H   0  0  0  0  0  0  0  0  0  0  0  0
  137.4227   77.7164  222.3471 H   0  0  0  0  0  0  0  0  0  0  0  0
  138.0670   79.7464  223.4122 H   0  0  0  0  0  0  0  0  0  0  0  0
  139.9051   81.1267  224.3698 H   0  0  0  0  0  0  0  0  0  0  0  0
  142.2545   80.4695  224.0626 H   0  0  0  0  0  0  0  0  0  0  0  0
  142.8687   78.3974  222.7929 H   0  0  0  0  0  0  0  0  0  0  0  0
  141.1170   76.9197  220.5552 H   0  0  0  0  0  0  0  0  0  0  0  0
  142.0627   76.2958  221.9608 H   0  0  0  0  0  0  0  0  0  0  0  0
  142.1083   71.3051  224.6962 H   0  0  0  0  0  0  0  0  0  0  0  0
  140.7829   72.5150  225.0147 H   0  0  0  0  0  0  0  0  0  0  0  0
  1  2  2  0
  2  3  1  0
  3  4  2  0
  4  5  1  0
  5  6  2  0
  5  7  1  0
  7  8  1  0
  8  9  1  0
  9 10  1  0
 10 11  2  0
 11 12  1  0
 12 13  1  0
 13 14  1  0
 14 15  1  0
 15 16  1  0
 16 17  1  0
 17 18  1  0
 18 19  1  0
 19 20  1  0
 20 21  1  0
 21 22  1  0
 17 23  1  0
 23 24  1  0
 12 25  2  0
 25 26  1  0
 26 27  1  0
 27 28  1  0
 28 29  1  0
 29 30  1  0
 30 31  2  0
 31 32  1  0
 32 33  2  0
 33 34  1  0
 34 35  2  0
 35 36  1  0
 26 37  2  0
  9 38  1  0
  6  1  1  0
 37 10  1  0
 38  4  1  0
 24 14  1  0
 36 27  1  0
 22 18  1  0
 35 30  1  0
  1 39  1  0
  2 40  1  0
  3 41  1  0
  6 42  1  0
  7 43  1  0
  7 44  1  0
  8 45  1  0
  8 46  1  0
 13 47  1  0
 14 48  1  6
 15 49  1  0
 15 50  1  0
 16 51  1  0
 16 52  1  0
 17 53  1  1
 19 54  1  0
 19 55  1  0
 20 56  1  0
 20 57  1  0
 21 58  1  0
 21 59  1  0
 22 60  1  0
 22 61  1  0
 23 62  1  0
 23 63  1  0
 24 64  1  0
 24 65  1  0
 28 66  1  0
 28 67  1  0
 29 68  1  0
 29 69  1  0
 31 70  1  0
 32 71  1  0
 33 72  1  0
 34 73  1  0
 36 74  1  0
 36 75  1  0
 38 76  1  0
 38 77  1  0
M  END
>  <smiles>  (40) 
c1ccc2c(c1)CCN(c1nc(N[C@H]3CC[C@H](N4CCCC4)CC3)nc(N3CCc4ccccc4C3)n1)C2

>  <score_type>  (40) 
oracle

>  <origin>  (40) 
autodockgpu

>  <m_score__min__energy>  (40) 
-11.02

>  <m_primary>  (40) 
energy

>  <rmsd>  (40) 
10.730832887483952

>  <m_score__min__rmsd>  (40) 
10.730832887483952

>  <meeko>  (40) 
{"free_energy": -10.29, "intermolecular_energy": -11.79, "internal_energy": -1.43, "cluster_size": 32, "cluster_id": 2, "rank_in_cluster": 6}

>  <energy>  (40) 
-10.11

>  <cluster_rmsd>  (40) 
0.0

>  <cluster>  (40) 
3

$$$$

     RDKit          3D

 77 83  0  0  0  0  0  0  0  0999 V2000
  145.9810   71.9710  216.5460 C   0  0  0  0  0  0  0  0  0  0  0  0
  145.2020   70.8280  216.5830 C   0  0  0  0  0  0  0  0  0  0  0  0
  144.1720   70.8160  217.5010 C   0  0  0  0  0  0  0  0  0  0  0  0
  143.9100   71.8690  218.3470 C   0  0  0  0  0  0  0  0  0  0  0  0
  144.6810   72.9900  218.3030 C   0  0  0  0  0  0  0  0  0  0  0  0
  145.7180   73.0250  217.3930 C   0  0  0  0  0  0  0  0  0  0  0  0
  144.3670   74.1020  219.2300 C   0  0  0  0  0  0  0  0  0  0  0  0
  144.0560   73.4300  220.5760 C   0  0  0  0  0  0  0  0  0  0  0  0
  142.8170   72.7100  220.3570 N   0  0  0  0  0  0  0  0  0  0  0  0
  141.6730   72.9290  221.1530 C   0  0  0  0  0  0  0  0  0  0  0  0
  140.8960   74.0160  221.0360 N   0  0  0  0  0  0  0  0  0  0  0  0
  139.8170   74.2240  221.7810 C   0  0  0  0  0  0  0  0  0  0  0  0
  138.9990   75.3740  221.6590 N   0  0  0  0  0  0  0  0  0  0  0  0
  139.3300   76.5410  220.8920 C   0  0  1  0  0  0  0  0  0  0  0  0
  138.5020   77.7450  221.2790 C   0  0  0  0  0  0  0  0  0  0  0  0
  139.3740   78.9120  221.6940 C   0  0  0  0  0  0  0  0  0  0  0  0
  140.1380   78.4770  222.9070 C   0  0  2  0  0  0  0  0  0  0  0  0
  140.6850   79.4670  223.7330 N   0  0  0  0  0  0  0  0  0  0  0  0
  142.0490   79.4560  224.0740 C   0  0  0  0  0  0  0  0  0  0  0  0
  142.7130   80.2880  223.0370 C   0  0  0  0  0  0  0  0  0  0  0  0
  141.6460   81.3160  222.7130 C   0  0  0  0  0  0  0  0  0  0  0  0
  140.4210   80.8190  223.4130 C   0  0  0  0  0  0  0  0  0  0  0  0
  141.0910   77.4020  222.4630 C   0  0  0  0  0  0  0  0  0  0  0  0
  140.7860   76.8880  221.0570 C   0  0  0  0  0  0  0  0  0  0  0  0
  139.5020   73.2840  222.6980 N   0  0  0  0  0  0  0  0  0  0  0  0
  140.2320   72.1850  222.8610 C   0  0  0  0  0  0  0  0  0  0  0  0
  139.9370   71.1630  223.8160 N   0  0  0  0  0  0  0  0  0  0  0  0
  139.5490   69.8280  223.3920 C   0  0  0  0  0  0  0  0  0  0  0  0
  138.7140   69.1830  224.4980 C   0  0  0  0  0  0  0  0  0  0  0  0
  139.5460   69.1280  225.7320 C   0  0  0  0  0  0  0  0  0  0  0  0
  139.6530   67.9810  226.4750 C   0  0  0  0  0  0  0  0  0  0  0  0
  140.4460   68.0200  227.6020 C   0  0  0  0  0  0  0  0  0  0  0  0
  141.1050   69.1780  227.9650 C   0  0  0  0  0  0  0  0  0  0  0  0
  141.0020   70.3520  227.2130 C   0  0  0  0  0  0  0  0  0  0  0  0
  140.2000   70.3090  226.0740 C   0  0  0  0  0  0  0  0  0  0  0  0
  140.0460   71.5260  225.2290 C   0  0  0  0  0  0  0  0  0  0  0  0
  141.3120   72.0250  222.0820 N   0  0  0  0  0  0  0  0  0  0  0  0
  142.7770   71.7380  219.2840 C   0  0  0  0  0  0  0  0  0  0  0  0
  146.8171   72.0385  215.8344 H   0  0  0  0  0  0  0  0  0  0  0  0
  145.3936   69.9745  215.9161 H   0  0  0  0  0  0  0  0  0  0  0  0
  143.5311   69.9239  217.5592 H   0  0  0  0  0  0  0  0  0  0  0  0
  146.3535   73.9214  217.3426 H   0  0  0  0  0  0  0  0  0  0  0  0
  145.2291   74.7784  219.3268 H   0  0  0  0  0  0  0  0  0  0  0  0
  143.5244   74.7109  218.8705 H   0  0  0  0  0  0  0  0  0  0  0  0
  144.8620   72.7363  220.8574 H   0  0  0  0  0  0  0  0  0  0  0  0
  143.9707   74.1611  221.3935 H   0  0  0  0  0  0  0  0  0  0  0  0
  138.0650   75.3960  222.1620 H   0  0  0  0  0  0  0  0  0  0  0  0
  139.1104   76.2919  219.8433 H   0  0  0  0  0  0  0  0  0  0  0  0
  137.8469   77.4724  222.1196 H   0  0  0  0  0  0  0  0  0  0  0  0
  137.9110   78.0517  220.4034 H   0  0  0  0  0  0  0  0  0  0  0  0
  138.7486   79.7845  221.9340 H   0  0  0  0  0  0  0  0  0  0  0  0
  140.0573   79.2003  220.8817 H   0  0  0  0  0  0  0  0  0  0  0  0
  139.4134   78.0793  223.6328 H   0  0  0  0  0  0  0  0  0  0  0  0
  142.2009   79.8901  225.0732 H   0  0  0  0  0  0  0  0  0  0  0  0
  142.4576   78.4353  224.1079 H   0  0  0  0  0  0  0  0  0  0  0  0
  143.6207   80.7674  223.4323 H   0  0  0  0  0  0  0  0  0  0  0  0
  143.0504   79.7134  222.1618 H   0  0  0  0  0  0  0  0  0  0  0  0
  141.9343   82.3079  223.0912 H   0  0  0  0  0  0  0  0  0  0  0  0
  141.4911   81.4304  221.6300 H   0  0  0  0  0  0  0  0  0  0  0  0
  140.2395   81.4014  224.3284 H   0  0  0  0  0  0  0  0  0  0  0  0
  139.5247   80.9196  222.7833 H   0  0  0  0  0  0  0  0  0  0  0  0
  141.0248   76.5599  223.1677 H   0  0  0  0  0  0  0  0  0  0  0  0
  142.1003   77.8391  222.4454 H   0  0  0  0  0  0  0  0  0  0  0  0
  141.3901   75.9883  220.8680 H   0  0  0  0  0  0  0  0  0  0  0  0
  141.0305   77.6862  220.3407 H   0  0  0  0  0  0  0  0  0  0  0  0
  138.9540   69.8916  222.4690 H   0  0  0  0  0  0  0  0  0  0  0  0
  140.4463   69.2216  223.1993 H   0  0  0  0  0  0  0  0  0  0  0  0
  137.8116   69.7843  224.6830 H   0  0  0  0  0  0  0  0  0  0  0  0
  138.4046   68.1701  224.2010 H   0  0  0  0  0  0  0  0  0  0  0  0
  139.1246   67.0617  226.1822 H   0  0  0  0  0  0  0  0  0  0  0  0
  140.5553   67.1168  228.2203 H   0  0  0  0  0  0  0  0  0  0  0  0
  141.7284   69.1766  228.8713 H   0  0  0  0  0  0  0  0  0  0  0  0
  141.5312   71.2702  227.5076 H   0  0  0  0  0  0  0  0  0  0  0  0
  139.1373   72.0653  225.5346 H   0  0  0  0  0  0  0  0  0  0  0  0
  140.9316   72.1645  225.3632 H   0  0  0  0  0  0  0  0  0  0  0  0
  142.7995   70.7296  219.7230 H   0  0  0  0  0  0  0  0  0  0  0  0
  141.8541   71.9155  218.7124 H   0  0  0  0  0  0  0  0  0  0  0  0
  1  2  2  0
  2  3  1  0
  3  4  2  0
  4  5  1  0
  5  6  2  0
  5  7  1  0
  7  8  1  0
  8  9  1  0
  9 10  1  0
 10 11  2  0
 11 12  1  0
 12 13  1  0
 13 14  1  0
 14 15  1  0
 15 16  1  0
 16 17  1  0
 17 18  1  0
 18 19  1  0
 19 20  1  0
 20 21  1  0
 21 22  1  0
 17 23  1  0
 23 24  1  0
 12 25  2  0
 25 26  1  0
 26 27  1  0
 27 28  1  0
 28 29  1  0
 29 30  1  0
 30 31  2  0
 31 32  1  0
 32 33  2  0
 33 34  1  0
 34 35  2  0
 35 36  1  0
 26 37  2  0
  9 38  1  0
  6  1  1  0
 37 10  1  0
 38  4  1  0
 24 14  1  0
 36 27  1  0
 22 18  1  0
 35 30  1  0
  1 39  1  0
  2 40  1  0
  3 41  1  0
  6 42  1  0
  7 43  1  0
  7 44  1  0
  8 45  1  0
  8 46  1  0
 13 47  1  0
 14 48  1  6
 15 49  1  0
 15 50  1  0
 16 51  1  0
 16 52  1  0
 17 53  1  1
 19 54  1  0
 19 55  1  0
 20 56  1  0
 20 57  1  0
 21 58  1  0
 21 59  1  0
 22 60  1  0
 22 61  1  0
 23 62  1  0
 23 63  1  0
 24 64  1  0
 24 65  1  0
 28 66  1  0
 28 67  1  0
 29 68  1  0
 29 69  1  0
 31 70  1  0
 32 71  1  0
 33 72  1  0
 34 73  1  0
 36 74  1  0
 36 75  1  0
 38 76  1  0
 38 77  1  0
M  END
>  <smiles>  (41) 
c1ccc2c(c1)CCN(c1nc(N[C@H]3CC[C@H](N4CCCC4)CC3)nc(N3CCc4ccccc4C3)n1)C2

>  <score_type>  (41) 
oracle

>  <origin>  (41) 
autodockgpu

>  <m_score__min__energy>  (41) 
-11.02

>  <m_primary>  (41) 
energy

>  <rmsd>  (41) 
5.26638188855414

>  <m_score__min__rmsd>  (41) 
5.26638188855414

>  <meeko>  (41) 
{"free_energy": -9.85, "intermolecular_energy": -11.34, "internal_energy": -1.38, "cluster_size": 5, "cluster_id": 3, "rank_in_cluster": 5}

>  <energy>  (41) 
-10.07

>  <cluster_rmsd>  (41) 
1.57

>  <cluster>  (41) 
3

$$$$

     RDKit          3D

 77 83  0  0  0  0  0  0  0  0999 V2000
  140.0470   67.8310  227.8680 C   0  0  0  0  0  0  0  0  0  0  0  0
  139.2600   67.3140  226.8540 C   0  0  0  0  0  0  0  0  0  0  0  0
  139.2240   68.0340  225.6770 C   0  0  0  0  0  0  0  0  0  0  0  0
  139.9220   69.2050  225.4940 C   0  0  0  0  0  0  0  0  0  0  0  0
  140.6940   69.7070  226.4970 C   0  0  0  0  0  0  0  0  0  0  0  0
  140.7460   69.0040  227.6840 C   0  0  0  0  0  0  0  0  0  0  0  0
  141.4290   70.9700  226.2600 C   0  0  0  0  0  0  0  0  0  0  0  0
  140.4390   71.8810  225.5190 C   0  0  0  0  0  0  0  0  0  0  0  0
  140.2550   71.2590  224.2230 N   0  0  0  0  0  0  0  0  0  0  0  0
  140.5010   71.9510  223.0190 C   0  0  0  0  0  0  0  0  0  0  0  0
  139.8060   73.0360  222.6420 N   0  0  0  0  0  0  0  0  0  0  0  0
  140.0370   73.6910  221.5110 C   0  0  0  0  0  0  0  0  0  0  0  0
  139.3020   74.8350  221.1130 N   0  0  0  0  0  0  0  0  0  0  0  0
  139.8630   75.9950  220.4820 C   0  0  1  0  0  0  0  0  0  0  0  0
  138.9580   77.2030  220.5740 C   0  0  0  0  0  0  0  0  0  0  0  0
  139.6560   78.3740  221.2360 C   0  0  0  0  0  0  0  0  0  0  0  0
  139.9930   77.9480  222.6330 C   0  0  2  0  0  0  0  0  0  0  0  0
  140.2520   78.9460  223.5820 N   0  0  0  0  0  0  0  0  0  0  0  0
  141.5220   79.0770  224.1690 C   0  0  0  0  0  0  0  0  0  0  0  0
  142.2490   80.0430  223.3040 C   0  0  0  0  0  0  0  0  0  0  0  0
  141.1350   80.9540  222.8260 C   0  0  0  0  0  0  0  0  0  0  0  0
  139.8780   80.2730  223.2690 C   0  0  0  0  0  0  0  0  0  0  0  0
  141.0350   76.8690  222.5250 C   0  0  0  0  0  0  0  0  0  0  0  0
  141.1920   76.3430  221.0990 C   0  0  0  0  0  0  0  0  0  0  0  0
  141.0230   73.2300  220.7120 N   0  0  0  0  0  0  0  0  0  0  0  0
  141.7470   72.1610  221.0310 C   0  0  0  0  0  0  0  0  0  0  0  0
  142.7990   71.6370  220.2190 N   0  0  0  0  0  0  0  0  0  0  0  0
  144.0180   72.3960  219.9860 C   0  0  0  0  0  0  0  0  0  0  0  0
  144.6350   71.9430  218.6640 C   0  0  0  0  0  0  0  0  0  0  0  0
  144.9270   70.4870  218.7650 C   0  0  0  0  0  0  0  0  0  0  0  0
  146.1430   69.9710  218.3950 C   0  0  0  0  0  0  0  0  0  0  0  0
  146.3270   68.6110  218.5230 C   0  0  0  0  0  0  0  0  0  0  0  0
  145.3170   67.8020  219.0060 C   0  0  0  0  0  0  0  0  0  0  0  0
  144.0750   68.3190  219.3860 C   0  0  0  0  0  0  0  0  0  0  0  0
  143.8930   69.6950  219.2550 C   0  0  0  0  0  0  0  0  0  0  0  0
  142.5920   70.3100  219.6410 C   0  0  0  0  0  0  0  0  0  0  0  0
  141.4720   71.5360  222.1850 N   0  0  0  0  0  0  0  0  0  0  0  0
  139.8030   69.8830  224.1880 C   0  0  0  0  0  0  0  0  0  0  0  0
  140.1151   67.3008  228.8294 H   0  0  0  0  0  0  0  0  0  0  0  0
  138.6935   66.3794  226.9793 H   0  0  0  0  0  0  0  0  0  0  0  0
  138.6092   67.6541  224.8477 H   0  0  0  0  0  0  0  0  0  0  0  0
  141.3638   69.3918  228.5073 H   0  0  0  0  0  0  0  0  0  0  0  0
  141.7312   71.4251  227.2147 H   0  0  0  0  0  0  0  0  0  0  0  0
  142.3495   70.8067  225.6803 H   0  0  0  0  0  0  0  0  0  0  0  0
  139.4833   71.9352  226.0610 H   0  0  0  0  0  0  0  0  0  0  0  0
  140.8113   72.9125  225.4332 H   0  0  0  0  0  0  0  0  0  0  0  0
  138.2550   74.8570  221.2820 H   0  0  0  0  0  0  0  0  0  0  0  0
  139.9878   75.7367  219.4201 H   0  0  0  0  0  0  0  0  0  0  0  0
  138.0680   76.9382  221.1637 H   0  0  0  0  0  0  0  0  0  0  0  0
  138.6782   77.5018  219.5530 H   0  0  0  0  0  0  0  0  0  0  0  0
  138.9891   79.2485  221.2579 H   0  0  0  0  0  0  0  0  0  0  0  0
  140.5630   78.6561  220.6812 H   0  0  0  0  0  0  0  0  0  0  0  0
  139.0740   77.5554  223.0927 H   0  0  0  0  0  0  0  0  0  0  0  0
  141.4355   79.4656  225.1944 H   0  0  0  0  0  0  0  0  0  0  0  0
  142.0452   78.1120  224.2405 H   0  0  0  0  0  0  0  0  0  0  0  0
  143.0021   80.6027  223.8780 H   0  0  0  0  0  0  0  0  0  0  0  0
  142.8083   79.5659  222.4858 H   0  0  0  0  0  0  0  0  0  0  0  0
  141.2215   81.9489  223.2872 H   0  0  0  0  0  0  0  0  0  0  0  0
  141.1631   81.1138  221.7380 H   0  0  0  0  0  0  0  0  0  0  0  0
  139.4626   80.7738  224.1559 H   0  0  0  0  0  0  0  0  0  0  0  0
  139.1031   80.3032  222.4888 H   0  0  0  0  0  0  0  0  0  0  0  0
  140.7454   76.0331  223.1787 H   0  0  0  0  0  0  0  0  0  0  0  0
  141.9986   77.3056  222.8266 H   0  0  0  0  0  0  0  0  0  0  0  0
  141.8221   75.4416  221.1193 H   0  0  0  0  0  0  0  0  0  0  0  0
  141.6543   77.1348  220.4913 H   0  0  0  0  0  0  0  0  0  0  0  0
  143.7813   73.4690  219.9350 H   0  0  0  0  0  0  0  0  0  0  0  0
  144.7282   72.2240  220.8082 H   0  0  0  0  0  0  0  0  0  0  0  0
  143.9284   72.1254  217.8409 H   0  0  0  0  0  0  0  0  0  0  0  0
  145.5595   72.5041  218.4628 H   0  0  0  0  0  0  0  0  0  0  0  0
  146.9433   70.6199  218.0096 H   0  0  0  0  0  0  0  0  0  0  0  0
  147.2906   68.1642  218.2368 H   0  0  0  0  0  0  0  0  0  0  0  0
  145.4950   66.7201  219.0941 H   0  0  0  0  0  0  0  0  0  0  0  0
  143.2761   67.6685  219.7716 H   0  0  0  0  0  0  0  0  0  0  0  0
  141.9562   70.4003  218.7479 H   0  0  0  0  0  0  0  0  0  0  0  0
  142.1067   69.6690  220.3917 H   0  0  0  0  0  0  0  0  0  0  0  0
  138.7471   69.8683  223.8800 H   0  0  0  0  0  0  0  0  0  0  0  0
  140.4450   69.3430  223.4764 H   0  0  0  0  0  0  0  0  0  0  0  0
  1  2  2  0
  2  3  1  0
  3  4  2  0
  4  5  1  0
  5  6  2  0
  5  7  1  0
  7  8  1  0
  8  9  1  0
  9 10  1  0
 10 11  2  0
 11 12  1  0
 12 13  1  0
 13 14  1  0
 14 15  1  0
 15 16  1  0
 16 17  1  0
 17 18  1  0
 18 19  1  0
 19 20  1  0
 20 21  1  0
 21 22  1  0
 17 23  1  0
 23 24  1  0
 12 25  2  0
 25 26  1  0
 26 27  1  0
 27 28  1  0
 28 29  1  0
 29 30  1  0
 30 31  2  0
 31 32  1  0
 32 33  2  0
 33 34  1  0
 34 35  2  0
 35 36  1  0
 26 37  2  0
  9 38  1  0
  6  1  1  0
 37 10  1  0
 38  4  1  0
 24 14  1  0
 36 27  1  0
 22 18  1  0
 35 30  1  0
  1 39  1  0
  2 40  1  0
  3 41  1  0
  6 42  1  0
  7 43  1  0
  7 44  1  0
  8 45  1  0
  8 46  1  0
 13 47  1  0
 14 48  1  6
 15 49  1  0
 15 50  1  0
 16 51  1  0
 16 52  1  0
 17 53  1  1
 19 54  1  0
 19 55  1  0
 20 56  1  0
 20 57  1  0
 21 58  1  0
 21 59  1  0
 22 60  1  0
 22 61  1  0
 23 62  1  0
 23 63  1  0
 24 64  1  0
 24 65  1  0
 28 66  1  0
 28 67  1  0
 29 68  1  0
 29 69  1  0
 31 70  1  0
 32 71  1  0
 33 72  1  0
 34 73  1  0
 36 74  1  0
 36 75  1  0
 38 76  1  0
 38 77  1  0
M  END
>  <smiles>  (42) 
c1ccc2c(c1)CCN(c1nc(N[C@H]3CC[C@H](N4CCCC4)CC3)nc(N3CCc4ccccc4C3)n1)C2

>  <score_type>  (42) 
oracle

>  <origin>  (42) 
autodockgpu

>  <m_score__min__energy>  (42) 
-11.02

>  <m_primary>  (42) 
energy

>  <rmsd>  (42) 
5.303561241465837

>  <m_score__min__rmsd>  (42) 
5.303561241465837

>  <meeko>  (42) 
{"free_energy": -9.97, "intermolecular_energy": -11.46, "internal_energy": -1.46, "cluster_size": 5, "cluster_id": 3, "rank_in_cluster": 3}

>  <energy>  (42) 
-9.97

>  <cluster_rmsd>  (42) 
0.92

>  <cluster>  (42) 
3

$$$$

     RDKit          3D

 77 83  0  0  0  0  0  0  0  0999 V2000
  146.2920   67.6880  217.3200 C   0  0  0  0  0  0  0  0  0  0  0  0
  145.9570   67.1060  218.5300 C   0  0  0  0  0  0  0  0  0  0  0  0
  145.1920   67.8690  219.3880 C   0  0  0  0  0  0  0  0  0  0  0  0
  144.7710   69.1430  219.0840 C   0  0  0  0  0  0  0  0  0  0  0  0
  145.1050   69.7080  217.8910 C   0  0  0  0  0  0  0  0  0  0  0  0
  145.8700   68.9640  217.0160 C   0  0  0  0  0  0  0  0  0  0  0  0
  144.6330   71.0820  217.6020 C   0  0  0  0  0  0  0  0  0  0  0  0
  144.8340   71.8620  218.9090 C   0  0  0  0  0  0  0  0  0  0  0  0
  143.8850   71.2840  219.8410 N   0  0  0  0  0  0  0  0  0  0  0  0
  142.9150   72.0670  220.5020 C   0  0  0  0  0  0  0  0  0  0  0  0
  142.7190   73.3680  220.2390 N   0  0  0  0  0  0  0  0  0  0  0  0
  141.8050   74.1060  220.8580 C   0  0  0  0  0  0  0  0  0  0  0  0
  141.5990   75.4790  220.5810 N   0  0  0  0  0  0  0  0  0  0  0  0
  140.5080   76.2650  221.0830 C   0  0  1  0  0  0  0  0  0  0  0  0
  140.7350   76.7370  222.5010 C   0  0  0  0  0  0  0  0  0  0  0  0
  140.6480   78.2460  222.6070 C   0  0  0  0  0  0  0  0  0  0  0  0
  141.7480   78.8080  221.7570 C   0  0  2  0  0  0  0  0  0  0  0  0
  142.1610   80.1250  221.9980 N   0  0  0  0  0  0  0  0  0  0  0  0
  141.2360   81.1200  222.3590 C   0  0  0  0  0  0  0  0  0  0  0  0
  141.2160   81.1070  223.8460 C   0  0  0  0  0  0  0  0  0  0  0  0
  142.6420   80.7240  224.1880 C   0  0  0  0  0  0  0  0  0  0  0  0
  143.2490   80.3290  222.8780 C   0  0  0  0  0  0  0  0  0  0  0  0
  141.4070   78.4850  220.3280 C   0  0  0  0  0  0  0  0  0  0  0  0
  140.2740   77.4670  220.2080 C   0  0  0  0  0  0  0  0  0  0  0  0
  141.0450   73.5000  221.7950 N   0  0  0  0  0  0  0  0  0  0  0  0
  141.1910   72.2140  222.1000 C   0  0  0  0  0  0  0  0  0  0  0  0
  140.4110   71.5310  223.0830 N   0  0  0  0  0  0  0  0  0  0  0  0
  139.3780   70.5830  222.6970 C   0  0  0  0  0  0  0  0  0  0  0  0
  138.3360   70.5080  223.8120 C   0  0  0  0  0  0  0  0  0  0  0  0
  139.0230   70.0680  225.0570 C   0  0  0  0  0  0  0  0  0  0  0  0
  138.5180   69.0610  225.8380 C   0  0  0  0  0  0  0  0  0  0  0  0
  139.2190   68.7170  226.9740 C   0  0  0  0  0  0  0  0  0  0  0  0
  140.3890   69.3710  227.3080 C   0  0  0  0  0  0  0  0  0  0  0  0
  140.9120   70.3990  226.5180 C   0  0  0  0  0  0  0  0  0  0  0  0
  140.2000   70.7430  225.3700 C   0  0  0  0  0  0  0  0  0  0  0  0
  140.7010   71.8310  224.4850 C   0  0  0  0  0  0  0  0  0  0  0  0
  142.1300   71.5150  221.4450 N   0  0  0  0  0  0  0  0  0  0  0  0
  143.9560   69.8580  220.0850 C   0  0  0  0  0  0  0  0  0  0  0  0
  146.9002   67.1274  216.5949 H   0  0  0  0  0  0  0  0  0  0  0  0
  146.2833   66.0891  218.7937 H   0  0  0  0  0  0  0  0  0  0  0  0
  144.9057   67.4392  220.3592 H   0  0  0  0  0  0  0  0  0  0  0  0
  146.1512   69.4026  216.0472 H   0  0  0  0  0  0  0  0  0  0  0  0
  145.2252   71.5303  216.7907 H   0  0  0  0  0  0  0  0  0  0  0  0
  143.5832   71.0947  217.2738 H   0  0  0  0  0  0  0  0  0  0  0  0
  145.8627   71.7387  219.2785 H   0  0  0  0  0  0  0  0  0  0  0  0
  144.6750   72.9421  218.7741 H   0  0  0  0  0  0  0  0  0  0  0  0
  142.2920   75.9880  219.9590 H   0  0  0  0  0  0  0  0  0  0  0  0
  139.6264   75.6071  221.0749 H   0  0  0  0  0  0  0  0  0  0  0  0
  141.7335   76.4130  222.8296 H   0  0  0  0  0  0  0  0  0  0  0  0
  139.9513   76.3015  223.1383 H   0  0  0  0  0  0  0  0  0  0  0  0
  140.7806   78.5597  223.6529 H   0  0  0  0  0  0  0  0  0  0  0  0
  139.6659   78.6079  222.2687 H   0  0  0  0  0  0  0  0  0  0  0  0
  142.6851   78.3146  222.0543 H   0  0  0  0  0  0  0  0  0  0  0  0
  141.5599   82.1026  221.9854 H   0  0  0  0  0  0  0  0  0  0  0  0
  140.2401   80.9326  221.9311 H   0  0  0  0  0  0  0  0  0  0  0  0
  140.9628   82.0987  224.2491 H   0  0  0  0  0  0  0  0  0  0  0  0
  140.4643   80.4245  224.2692 H   0  0  0  0  0  0  0  0  0  0  0  0
  143.1802   81.5786  224.6238 H   0  0  0  0  0  0  0  0  0  0  0  0
  142.6907   79.9153  224.9321 H   0  0  0  0  0  0  0  0  0  0  0  0
  143.9022   81.1297  222.5010 H   0  0  0  0  0  0  0  0  0  0  0  0
  143.8686   79.4252  222.9738 H   0  0  0  0  0  0  0  0  0  0  0  0
  142.3018   78.0753  219.8366 H   0  0  0  0  0  0  0  0  0  0  0  0
  141.0698   79.4157  219.8483 H   0  0  0  0  0  0  0  0  0  0  0  0
  140.2014   77.1368  219.1612 H   0  0  0  0  0  0  0  0  0  0  0  0
  139.3424   77.9520  220.5350 H   0  0  0  0  0  0  0  0  0  0  0  0
  138.8987   70.9177  221.7652 H   0  0  0  0  0  0  0  0  0  0  0  0
  139.8237   69.5905  222.5350 H   0  0  0  0  0  0  0  0  0  0  0  0
  137.8827   71.4984  223.9662 H   0  0  0  0  0  0  0  0  0  0  0  0
  137.5407   69.7971  223.5436 H   0  0  0  0  0  0  0  0  0  0  0  0
  137.5850   68.5449  225.5674 H   0  0  0  0  0  0  0  0  0  0  0  0
  138.8422   67.9121  227.6222 H   0  0  0  0  0  0  0  0  0  0  0  0
  140.9246   69.0744  228.2219 H   0  0  0  0  0  0  0  0  0  0  0  0
  141.8450   70.9141  226.7905 H   0  0  0  0  0  0  0  0  0  0  0  0
  140.2104   72.7760  224.7612 H   0  0  0  0  0  0  0  0  0  0  0  0
  141.7905   71.9161  224.6107 H   0  0  0  0  0  0  0  0  0  0  0  0
  144.3976   69.6938  221.0790 H   0  0  0  0  0  0  0  0  0  0  0  0
  142.9321   69.4612  220.0207 H   0  0  0  0  0  0  0  0  0  0  0  0
  1  2  2  0
  2  3  1  0
  3  4  2  0
  4  5  1  0
  5  6  2  0
  5  7  1  0
  7  8  1  0
  8  9  1  0
  9 10  1  0
 10 11  2  0
 11 12  1  0
 12 13  1  0
 13 14  1  0
 14 15  1  0
 15 16  1  0
 16 17  1  0
 17 18  1  0
 18 19  1  0
 19 20  1  0
 20 21  1  0
 21 22  1  0
 17 23  1  0
 23 24  1  0
 12 25  2  0
 25 26  1  0
 26 27  1  0
 27 28  1  0
 28 29  1  0
 29 30  1  0
 30 31  2  0
 31 32  1  0
 32 33  2  0
 33 34  1  0
 34 35  2  0
 35 36  1  0
 26 37  2  0
  9 38  1  0
  6  1  1  0
 37 10  1  0
 38  4  1  0
 24 14  1  0
 36 27  1  0
 22 18  1  0
 35 30  1  0
  1 39  1  0
  2 40  1  0
  3 41  1  0
  6 42  1  0
  7 43  1  0
  7 44  1  0
  8 45  1  0
  8 46  1  0
 13 47  1  0
 14 48  1  1
 15 49  1  0
 15 50  1  0
 16 51  1  0
 16 52  1  0
 17 53  1  1
 19 54  1  0
 19 55  1  0
 20 56  1  0
 20 57  1  0
 21 58  1  0
 21 59  1  0
 22 60  1  0
 22 61  1  0
 23 62  1  0
 23 63  1  0
 24 64  1  0
 24 65  1  0
 28 66  1  0
 28 67  1  0
 29 68  1  0
 29 69  1  0
 31 70  1  0
 32 71  1  0
 33 72  1  0
 34 73  1  0
 36 74  1  0
 36 75  1  0
 38 76  1  0
 38 77  1  0
M  END
>  <smiles>  (43) 
c1ccc2c(c1)CCN(c1nc(N[C@H]3CC[C@H](N4CCCC4)CC3)nc(N3CCc4ccccc4C3)n1)C2

>  <score_type>  (43) 
oracle

>  <origin>  (43) 
autodockgpu

>  <m_score__min__energy>  (43) 
-11.02

>  <m_primary>  (43) 
energy

>  <rmsd>  (43) 
5.577152070177785

>  <m_score__min__rmsd>  (43) 
5.577152070177785

>  <meeko>  (43) 
{"free_energy": -9.86, "intermolecular_energy": -11.35, "internal_energy": -1.24, "cluster_size": 5, "cluster_id": 3, "rank_in_cluster": 4}

>  <energy>  (43) 
-9.86

>  <cluster_rmsd>  (43) 
1.6

>  <cluster>  (43) 
3

$$$$

     RDKit          3D

 77 83  0  0  0  0  0  0  0  0999 V2000
  139.9640   80.9250  222.9150 C   0  0  0  0  0  0  0  0  0  0  0  0
  141.1190   80.5040  223.5500 C   0  0  0  0  0  0  0  0  0  0  0  0
  141.4240   79.1620  223.4450 C   0  0  0  0  0  0  0  0  0  0  0  0
  140.6400   78.2680  222.7540 C   0  0  0  0  0  0  0  0  0  0  0  0
  139.5050   78.6900  222.1320 C   0  0  0  0  0  0  0  0  0  0  0  0
  139.1790   80.0290  222.2230 C   0  0  0  0  0  0  0  0  0  0  0  0
  138.6880   77.6970  221.3990 C   0  0  0  0  0  0  0  0  0  0  0  0
  138.6580   76.4540  222.3010 C   0  0  0  0  0  0  0  0  0  0  0  0
  140.0190   75.9550  222.2980 N   0  0  0  0  0  0  0  0  0  0  0  0
  140.3320   74.6360  221.9090 C   0  0  0  0  0  0  0  0  0  0  0  0
  140.9700   74.3400  220.7670 N   0  0  0  0  0  0  0  0  0  0  0  0
  141.2690   73.0990  220.4000 C   0  0  0  0  0  0  0  0  0  0  0  0
  141.9410   72.7880  219.1930 N   0  0  0  0  0  0  0  0  0  0  0  0
  141.8160   73.5260  217.9680 C   0  0  1  0  0  0  0  0  0  0  0  0
  140.7380   74.5830  218.0340 C   0  0  0  0  0  0  0  0  0  0  0  0
  141.2870   75.9600  217.7190 C   0  0  0  0  0  0  0  0  0  0  0  0
  142.3010   76.2780  218.7750 C   0  0  2  0  0  0  0  0  0  0  0  0
  142.6490   77.6200  218.9740 N   0  0  0  0  0  0  0  0  0  0  0  0
  142.9110   78.4700  217.8850 C   0  0  0  0  0  0  0  0  0  0  0  0
  141.6050   79.1030  217.5660 C   0  0  0  0  0  0  0  0  0  0  0  0
  140.9460   79.1960  218.9280 C   0  0  0  0  0  0  0  0  0  0  0  0
  141.8340   78.3970  219.8300 C   0  0  0  0  0  0  0  0  0  0  0  0
  143.4530   75.3310  218.5760 C   0  0  0  0  0  0  0  0  0  0  0  0
  143.1200   74.1910  217.6150 C   0  0  0  0  0  0  0  0  0  0  0  0
  140.9040   72.0980  221.2300 N   0  0  0  0  0  0  0  0  0  0  0  0
  140.2700   72.3280  222.3760 C   0  0  0  0  0  0  0  0  0  0  0  0
  139.8660   71.3030  223.2850 N   0  0  0  0  0  0  0  0  0  0  0  0
  139.1810   70.1080  222.8150 C   0  0  0  0  0  0  0  0  0  0  0  0
  138.3400   69.5410  223.9580 C   0  0  0  0  0  0  0  0  0  0  0  0
  139.2530   69.2200  225.0890 C   0  0  0  0  0  0  0  0  0  0  0  0
  139.1970   68.0130  225.7370 C   0  0  0  0  0  0  0  0  0  0  0  0
  140.0820   67.8000  226.7730 C   0  0  0  0  0  0  0  0  0  0  0  0
  140.9890   68.7750  227.1410 C   0  0  0  0  0  0  0  0  0  0  0  0
  141.0540   70.0080  226.4860 C   0  0  0  0  0  0  0  0  0  0  0  0
  140.1590   70.2190  225.4390 C   0  0  0  0  0  0  0  0  0  0  0  0
  140.1740   71.5120  224.6990 C   0  0  0  0  0  0  0  0  0  0  0  0
  139.9930   73.6000  222.6980 N   0  0  0  0  0  0  0  0  0  0  0  0
  141.0730   76.8580  222.7130 C   0  0  0  0  0  0  0  0  0  0  0  0
  139.6701   81.9839  222.9631 H   0  0  0  0  0  0  0  0  0  0  0  0
  141.7600   81.2017  224.1088 H   0  0  0  0  0  0  0  0  0  0  0  0
  142.3355   78.7907  223.9363 H   0  0  0  0  0  0  0  0  0  0  0  0
  138.2655   80.3907  221.7283 H   0  0  0  0  0  0  0  0  0  0  0  0
  137.6698   78.0801  221.2364 H   0  0  0  0  0  0  0  0  0  0  0  0
  139.1057   77.4740  220.4061 H   0  0  0  0  0  0  0  0  0  0  0  0
  138.3475   76.7241  223.3211 H   0  0  0  0  0  0  0  0  0  0  0  0
  137.9411   75.7007  221.9425 H   0  0  0  0  0  0  0  0  0  0  0  0
  142.5910   71.9500  219.1680 H   0  0  0  0  0  0  0  0  0  0  0  0
  141.5364   72.7947  217.1953 H   0  0  0  0  0  0  0  0  0  0  0  0
  140.3092   74.5928  219.0469 H   0  0  0  0  0  0  0  0  0  0  0  0
  139.9704   74.3389  217.2848 H   0  0  0  0  0  0  0  0  0  0  0  0
  140.4764   76.7034  217.7372 H   0  0  0  0  0  0  0  0  0  0  0  0
  141.7420   75.9822  216.7178 H   0  0  0  0  0  0  0  0  0  0  0  0
  141.8261   76.1140  219.7535 H   0  0  0  0  0  0  0  0  0  0  0  0
  143.6533   79.2336  218.1608 H   0  0  0  0  0  0  0  0  0  0  0  0
  143.3252   77.9230  217.0252 H   0  0  0  0  0  0  0  0  0  0  0  0
  141.7439   80.1000  217.1224 H   0  0  0  0  0  0  0  0  0  0  0  0
  141.0128   78.5407  216.8291 H   0  0  0  0  0  0  0  0  0  0  0  0
  140.8919   80.2423  219.2630 H   0  0  0  0  0  0  0  0  0  0  0  0
  139.9123   78.8200  218.9188 H   0  0  0  0  0  0  0  0  0  0  0  0
  142.4531   79.0640  220.4479 H   0  0  0  0  0  0  0  0  0  0  0  0
  141.2521   77.7671  220.5189 H   0  0  0  0  0  0  0  0  0  0  0  0
  143.7274   74.9009  219.5506 H   0  0  0  0  0  0  0  0  0  0  0  0
  144.2824   75.9045  218.1364 H   0  0  0  0  0  0  0  0  0  0  0  0
  143.9247   73.4423  217.6580 H   0  0  0  0  0  0  0  0  0  0  0  0
  143.0263   74.6125  216.6033 H   0  0  0  0  0  0  0  0  0  0  0  0
  138.5281   70.3651  221.9679 H   0  0  0  0  0  0  0  0  0  0  0  0
  139.9174   69.3600  222.4860 H   0  0  0  0  0  0  0  0  0  0  0  0
  137.5965   70.2856  224.2788 H   0  0  0  0  0  0  0  0  0  0  0  0
  137.8094   68.6357  223.6279 H   0  0  0  0  0  0  0  0  0  0  0  0
  138.4713   67.2412  225.4408 H   0  0  0  0  0  0  0  0  0  0  0  0
  140.0655   66.8419  227.3131 H   0  0  0  0  0  0  0  0  0  0  0  0
  141.6798   68.5752  227.9734 H   0  0  0  0  0  0  0  0  0  0  0  0
  141.7803   70.7785  226.7841 H   0  0  0  0  0  0  0  0  0  0  0  0
  139.4231   72.1867  225.1360 H   0  0  0  0  0  0  0  0  0  0  0  0
  141.1781   71.9538  224.7802 H   0  0  0  0  0  0  0  0  0  0  0  0
  141.4100   76.5652  223.7183 H   0  0  0  0  0  0  0  0  0  0  0  0
  141.8819   76.7832  221.9713 H   0  0  0  0  0  0  0  0  0  0  0  0
  1  2  2  0
  2  3  1  0
  3  4  2  0
  4  5  1  0
  5  6  2  0
  5  7  1  0
  7  8  1  0
  8  9  1  0
  9 10  1  0
 10 11  2  0
 11 12  1  0
 12 13  1  0
 13 14  1  0
 14 15  1  0
 15 16  1  0
 16 17  1  0
 17 18  1  0
 18 19  1  0
 19 20  1  0
 20 21  1  0
 21 22  1  0
 17 23  1  0
 23 24  1  0
 12 25  2  0
 25 26  1  0
 26 27  1  0
 27 28  1  0
 28 29  1  0
 29 30  1  0
 30 31  2  0
 31 32  1  0
 32 33  2  0
 33 34  1  0
 34 35  2  0
 35 36  1  0
 26 37  2  0
  9 38  1  0
  6  1  1  0
 37 10  1  0
 38  4  1  0
 24 14  1  0
 36 27  1  0
 22 18  1  0
 35 30  1  0
  1 39  1  0
  2 40  1  0
  3 41  1  0
  6 42  1  0
  7 43  1  0
  7 44  1  0
  8 45  1  0
  8 46  1  0
 13 47  1  0
 14 48  1  6
 15 49  1  0
 15 50  1  0
 16 51  1  0
 16 52  1  0
 17 53  1  1
 19 54  1  0
 19 55  1  0
 20 56  1  0
 20 57  1  0
 21 58  1  0
 21 59  1  0
 22 60  1  0
 22 61  1  0
 23 62  1  0
 23 63  1  0
 24 64  1  0
 24 65  1  0
 28 66  1  0
 28 67  1  0
 29 68  1  0
 29 69  1  0
 31 70  1  0
 32 71  1  0
 33 72  1  0
 34 73  1  0
 36 74  1  0
 36 75  1  0
 38 76  1  0
 38 77  1  0
M  END
>  <smiles>  (44) 
c1ccc2c(c1)CCN(c1nc(N[C@H]3CC[C@H](N4CCCC4)CC3)nc(N3CCc4ccccc4C3)n1)C2

>  <score_type>  (44) 
oracle

>  <origin>  (44) 
autodockgpu

>  <m_score__min__energy>  (44) 
-11.02

>  <m_primary>  (44) 
energy

>  <rmsd>  (44) 
6.182212420693677

>  <m_score__min__rmsd>  (44) 
6.182212420693677

>  <meeko>  (44) 
{"free_energy": -9.07, "intermolecular_energy": -10.56, "internal_energy": -2.35, "cluster_size": 32, "cluster_id": 2, "rank_in_cluster": 29}

>  <energy>  (44) 
-9.85

>  <cluster_rmsd>  (44) 
0.6

>  <cluster>  (44) 
3

$$$$

     RDKit          3D

 77 83  0  0  0  0  0  0  0  0999 V2000
  132.3410   72.4430  227.5630 C   0  0  0  0  0  0  0  0  0  0  0  0
  133.1420   71.6030  226.8090 C   0  0  0  0  0  0  0  0  0  0  0  0
  133.9740   72.2100  225.8900 C   0  0  0  0  0  0  0  0  0  0  0  0
  134.0250   73.5730  225.7110 C   0  0  0  0  0  0  0  0  0  0  0  0
  133.2330   74.3920  226.4580 C   0  0  0  0  0  0  0  0  0  0  0  0
  132.3930   73.8080  227.3840 C   0  0  0  0  0  0  0  0  0  0  0  0
  133.3180   75.8530  226.2350 C   0  0  0  0  0  0  0  0  0  0  0  0
  133.3870   76.0260  224.7110 C   0  0  0  0  0  0  0  0  0  0  0  0
  134.6710   75.4740  224.3290 N   0  0  0  0  0  0  0  0  0  0  0  0
  135.6290   76.2280  223.6180 C   0  0  0  0  0  0  0  0  0  0  0  0
  135.4720   77.5290  223.3330 N   0  0  0  0  0  0  0  0  0  0  0  0
  136.3730   78.2420  222.6670 C   0  0  0  0  0  0  0  0  0  0  0  0
  136.2060   79.6160  222.3640 N   0  0  0  0  0  0  0  0  0  0  0  0
  137.0460   80.6730  222.8500 C   0  0  1  0  0  0  0  0  0  0  0  0
  137.8050   80.2850  224.0990 C   0  0  0  0  0  0  0  0  0  0  0  0
  139.3010   80.4430  223.9140 C   0  0  0  0  0  0  0  0  0  0  0  0
  139.7080   79.5000  222.8230 C   0  0  2  0  0  0  0  0  0  0  0  0
  141.0570   79.1340  222.7360 N   0  0  0  0  0  0  0  0  0  0  0  0
  141.8950   79.6800  221.7490 C   0  0  0  0  0  0  0  0  0  0  0  0
  142.5070   80.8780  222.3820 C   0  0  0  0  0  0  0  0  0  0  0  0
  142.6110   80.4610  223.8360 C   0  0  0  0  0  0  0  0  0  0  0  0
  141.8360   79.1830  223.9160 C   0  0  0  0  0  0  0  0  0  0  0  0
  139.0900   80.0100  221.5490 C   0  0  0  0  0  0  0  0  0  0  0  0
  138.0380   81.0900  221.7960 C   0  0  0  0  0  0  0  0  0  0  0  0
  137.4960   77.6090  222.2640 N   0  0  0  0  0  0  0  0  0  0  0  0
  137.7090   76.3210  222.5170 C   0  0  0  0  0  0  0  0  0  0  0  0
  138.8810   75.6110  222.1130 N   0  0  0  0  0  0  0  0  0  0  0  0
  138.8160   74.2080  221.7350 C   0  0  0  0  0  0  0  0  0  0  0  0
  140.1850   73.5700  221.9720 C   0  0  0  0  0  0  0  0  0  0  0  0
  141.1840   74.2990  221.1430 C   0  0  0  0  0  0  0  0  0  0  0  0
  142.0850   73.6310  220.3540 C   0  0  0  0  0  0  0  0  0  0  0  0
  142.9740   74.3860  219.6180 C   0  0  0  0  0  0  0  0  0  0  0  0
  142.9520   75.7650  219.6790 C   0  0  0  0  0  0  0  0  0  0  0  0
  142.0360   76.4540  220.4800 C   0  0  0  0  0  0  0  0  0  0  0  0
  141.1390   75.6880  221.2220 C   0  0  0  0  0  0  0  0  0  0  0  0
  140.1370   76.3590  222.0970 C   0  0  0  0  0  0  0  0  0  0  0  0
  136.7670   75.6480  223.1930 N   0  0  0  0  0  0  0  0  0  0  0  0
  134.9570   74.1020  224.6970 C   0  0  0  0  0  0  0  0  0  0  0  0
  131.6569   72.0170  228.3117 H   0  0  0  0  0  0  0  0  0  0  0  0
  133.1169   70.5106  226.9353 H   0  0  0  0  0  0  0  0  0  0  0  0
  134.6261   71.5748  225.2725 H   0  0  0  0  0  0  0  0  0  0  0  0
  131.7455   74.4516  227.9976 H   0  0  0  0  0  0  0  0  0  0  0  0
  132.4283   76.3572  226.6403 H   0  0  0  0  0  0  0  0  0  0  0  0
  134.1906   76.2949  226.7382 H   0  0  0  0  0  0  0  0  0  0  0  0
  132.5690   75.4766  224.2220 H   0  0  0  0  0  0  0  0  0  0  0  0
  133.2835   77.0788  224.4094 H   0  0  0  0  0  0  0  0  0  0  0  0
  135.4070   79.9090  221.7310 H   0  0  0  0  0  0  0  0  0  0  0  0
  136.3751   81.5087  223.0979 H   0  0  0  0  0  0  0  0  0  0  0  0
  137.5839   79.2346  224.3393 H   0  0  0  0  0  0  0  0  0  0  0  0
  137.4870   80.9499  224.9155 H   0  0  0  0  0  0  0  0  0  0  0  0
  139.8260   80.1907  224.8471 H   0  0  0  0  0  0  0  0  0  0  0  0
  139.5575   81.4804  223.6531 H   0  0  0  0  0  0  0  0  0  0  0  0
  139.3126   78.5054  223.0770 H   0  0  0  0  0  0  0  0  0  0  0  0
  142.6716   78.9572  221.4584 H   0  0  0  0  0  0  0  0  0  0  0  0
  141.3421   79.9344  220.8327 H   0  0  0  0  0  0  0  0  0  0  0  0
  143.4992   81.0896  221.9568 H   0  0  0  0  0  0  0  0  0  0  0  0
  141.9269   81.8001  222.2298 H   0  0  0  0  0  0  0  0  0  0  0  0
  143.6612   80.2972  224.1193 H   0  0  0  0  0  0  0  0  0  0  0  0
  142.2220   81.2294  224.5202 H   0  0  0  0  0  0  0  0  0  0  0  0
  142.5193   78.3221  223.9607 H   0  0  0  0  0  0  0  0  0  0  0  0
  141.2088   79.1440  224.8188 H   0  0  0  0  0  0  0  0  0  0  0  0
  138.6134   79.1672  221.0269 H   0  0  0  0  0  0  0  0  0  0  0  0
  139.8931   80.4596  220.9465 H   0  0  0  0  0  0  0  0  0  0  0  0
  137.4993   81.2840  220.8567 H   0  0  0  0  0  0  0  0  0  0  0  0
  138.5533   81.9951  222.1500 H   0  0  0  0  0  0  0  0  0  0  0  0
  138.0584   73.6952  222.3459 H   0  0  0  0  0  0  0  0  0  0  0  0
  138.5410   74.1192  220.6736 H   0  0  0  0  0  0  0  0  0  0  0  0
  140.4542   73.6489  223.0356 H   0  0  0  0  0  0  0  0  0  0  0  0
  140.1630   72.5058  221.6946 H   0  0  0  0  0  0  0  0  0  0  0  0
  142.0982   72.5320  220.3097 H   0  0  0  0  0  0  0  0  0  0  0  0
  143.7102   73.8828  218.9739 H   0  0  0  0  0  0  0  0  0  0  0  0
  143.6755   76.3380  219.0806 H   0  0  0  0  0  0  0  0  0  0  0  0
  142.0240   77.5531  220.5225 H   0  0  0  0  0  0  0  0  0  0  0  0
  140.5345   76.4190  223.1209 H   0  0  0  0  0  0  0  0  0  0  0  0
  139.9428   77.3675  221.7030 H   0  0  0  0  0  0  0  0  0  0  0  0
  134.8877   73.4752  223.7957 H   0  0  0  0  0  0  0  0  0  0  0  0
  135.9664   74.0811  225.1338 H   0  0  0  0  0  0  0  0  0  0  0  0
  1  2  2  0
  2  3  1  0
  3  4  2  0
  4  5  1  0
  5  6  2  0
  5  7  1  0
  7  8  1  0
  8  9  1  0
  9 10  1  0
 10 11  2  0
 11 12  1  0
 12 13  1  0
 13 14  1  0
 14 15  1  0
 15 16  1  0
 16 17  1  0
 17 18  1  0
 18 19  1  0
 19 20  1  0
 20 21  1  0
 21 22  1  0
 17 23  1  0
 23 24  1  0
 12 25  2  0
 25 26  1  0
 26 27  1  0
 27 28  1  0
 28 29  1  0
 29 30  1  0
 30 31  2  0
 31 32  1  0
 32 33  2  0
 33 34  1  0
 34 35  2  0
 35 36  1  0
 26 37  2  0
  9 38  1  0
  6  1  1  0
 37 10  1  0
 38  4  1  0
 24 14  1  0
 36 27  1  0
 22 18  1  0
 35 30  1  0
  1 39  1  0
  2 40  1  0
  3 41  1  0
  6 42  1  0
  7 43  1  0
  7 44  1  0
  8 45  1  0
  8 46  1  0
 13 47  1  0
 14 48  1  1
 15 49  1  0
 15 50  1  0
 16 51  1  0
 16 52  1  0
 17 53  1  1
 19 54  1  0
 19 55  1  0
 20 56  1  0
 20 57  1  0
 21 58  1  0
 21 59  1  0
 22 60  1  0
 22 61  1  0
 23 62  1  0
 23 63  1  0
 24 64  1  0
 24 65  1  0
 28 66  1  0
 28 67  1  0
 29 68  1  0
 29 69  1  0
 31 70  1  0
 32 71  1  0
 33 72  1  0
 34 73  1  0
 36 74  1  0
 36 75  1  0
 38 76  1  0
 38 77  1  0
M  END
>  <smiles>  (45) 
c1ccc2c(c1)CCN(c1nc(N[C@H]3CC[C@H](N4CCCC4)CC3)nc(N3CCc4ccccc4C3)n1)C2

>  <score_type>  (45) 
oracle

>  <origin>  (45) 
autodockgpu

>  <m_score__min__energy>  (45) 
-11.02

>  <m_primary>  (45) 
energy

>  <rmsd>  (45) 
4.9517065714824

>  <m_score__min__rmsd>  (45) 
4.9517065714824

>  <meeko>  (45) 
{"free_energy": -8.81, "intermolecular_energy": -10.3, "internal_energy": -2.32, "cluster_size": 3, "cluster_id": 6, "rank_in_cluster": 1}

>  <energy>  (45) 
-9.5

>  <cluster_rmsd>  (45) 
0.0

>  <cluster>  (45) 
4

$$$$

     RDKit          3D

 77 83  0  0  0  0  0  0  0  0999 V2000
  140.0600   69.1380  227.4980 C   0  0  0  0  0  0  0  0  0  0  0  0
  141.0310   70.1160  227.6300 C   0  0  0  0  0  0  0  0  0  0  0  0
  141.1690   70.9900  226.5710 C   0  0  0  0  0  0  0  0  0  0  0  0
  140.4000   70.9170  225.4330 C   0  0  0  0  0  0  0  0  0  0  0  0
  139.4470   69.9520  225.3120 C   0  0  0  0  0  0  0  0  0  0  0  0
  139.2890   69.0660  226.3590 C   0  0  0  0  0  0  0  0  0  0  0  0
  138.6390   69.9070  224.0720 C   0  0  0  0  0  0  0  0  0  0  0  0
  139.6370   70.1550  222.9310 C   0  0  0  0  0  0  0  0  0  0  0  0
  140.0640   71.5300  223.0980 N   0  0  0  0  0  0  0  0  0  0  0  0
  139.9320   72.4850  222.0680 C   0  0  0  0  0  0  0  0  0  0  0  0
  139.8340   72.1560  220.7710 N   0  0  0  0  0  0  0  0  0  0  0  0
  139.7070   73.0520  219.8000 C   0  0  0  0  0  0  0  0  0  0  0  0
  139.6070   72.7040  218.4310 N   0  0  0  0  0  0  0  0  0  0  0  0
  140.5220   73.1200  217.4070 C   0  0  1  0  0  0  0  0  0  0  0  0
  140.9880   74.5470  217.5890 C   0  0  0  0  0  0  0  0  0  0  0  0
  142.4980   74.6350  217.6730 C   0  0  0  0  0  0  0  0  0  0  0  0
  142.9140   73.8610  218.8880 C   0  0  2  0  0  0  0  0  0  0  0  0
  144.1770   74.1210  219.4350 N   0  0  0  0  0  0  0  0  0  0  0  0
  144.3780   74.1220  220.8260 C   0  0  0  0  0  0  0  0  0  0  0  0
  144.7830   72.7310  221.1590 C   0  0  0  0  0  0  0  0  0  0  0  0
  145.5410   72.3060  219.9160 C   0  0  0  0  0  0  0  0  0  0  0  0
  145.2820   73.3990  218.9270 C   0  0  0  0  0  0  0  0  0  0  0  0
  142.6100   72.4140  218.6120 C   0  0  0  0  0  0  0  0  0  0  0  0
  141.7300   72.2220  217.3780 C   0  0  0  0  0  0  0  0  0  0  0  0
  139.6760   74.3550  220.1540 N   0  0  0  0  0  0  0  0  0  0  0  0
  139.7680   74.7440  221.4220 C   0  0  0  0  0  0  0  0  0  0  0  0
  139.7390   76.1090  221.8440 N   0  0  0  0  0  0  0  0  0  0  0  0
  138.7140   76.5930  222.7540 C   0  0  0  0  0  0  0  0  0  0  0  0
  138.5270   78.0930  222.5340 C   0  0  0  0  0  0  0  0  0  0  0  0
  139.8300   78.7640  222.7950 C   0  0  0  0  0  0  0  0  0  0  0  0
  139.9190   79.8740  223.5960 C   0  0  0  0  0  0  0  0  0  0  0  0
  141.1660   80.4300  223.7850 C   0  0  0  0  0  0  0  0  0  0  0  0
  142.2830   79.8840  223.1840 C   0  0  0  0  0  0  0  0  0  0  0  0
  142.2030   78.7520  222.3660 C   0  0  0  0  0  0  0  0  0  0  0  0
  140.9400   78.1930  222.1790 C   0  0  0  0  0  0  0  0  0  0  0  0
  140.7840   76.9860  221.3180 C   0  0  0  0  0  0  0  0  0  0  0  0
  139.8950   73.7970  222.3630 N   0  0  0  0  0  0  0  0  0  0  0  0
  140.6430   71.9110  224.3700 C   0  0  0  0  0  0  0  0  0  0  0  0
  139.9029   68.4123  228.3096 H   0  0  0  0  0  0  0  0  0  0  0  0
  141.6585   70.1922  228.5302 H   0  0  0  0  0  0  0  0  0  0  0  0
  141.9294   71.7819  226.6402 H   0  0  0  0  0  0  0  0  0  0  0  0
  138.5244   68.2790  226.2812 H   0  0  0  0  0  0  0  0  0  0  0  0
  138.1607   68.9229  223.9589 H   0  0  0  0  0  0  0  0  0  0  0  0
  137.8311   70.6535  224.0807 H   0  0  0  0  0  0  0  0  0  0  0  0
  140.4948   69.4712  223.0123 H   0  0  0  0  0  0  0  0  0  0  0  0
  139.1867   69.9794  221.9429 H   0  0  0  0  0  0  0  0  0  0  0  0
  138.8030   72.0880  218.1140 H   0  0  0  0  0  0  0  0  0  0  0  0
  139.9709   73.0532  216.4574 H   0  0  0  0  0  0  0  0  0  0  0  0
  140.5550   74.9481  218.5172 H   0  0  0  0  0  0  0  0  0  0  0  0
  140.6577   75.1303  216.7168 H   0  0  0  0  0  0  0  0  0  0  0  0
  142.8107   75.6853  217.7685 H   0  0  0  0  0  0  0  0  0  0  0  0
  142.9667   74.2250  216.7662 H   0  0  0  0  0  0  0  0  0  0  0  0
  142.3194   74.2275  219.7378 H   0  0  0  0  0  0  0  0  0  0  0  0
  145.1720   74.8319  221.1011 H   0  0  0  0  0  0  0  0  0  0  0  0
  143.4750   74.4308  221.3730 H   0  0  0  0  0  0  0  0  0  0  0  0
  145.4308   72.7071  222.0477 H   0  0  0  0  0  0  0  0  0  0  0  0
  143.9359   72.0733  221.4036 H   0  0  0  0  0  0  0  0  0  0  0  0
  146.6171   72.2198  220.1273 H   0  0  0  0  0  0  0  0  0  0  0  0
  145.2185   71.3217  219.5456 H   0  0  0  0  0  0  0  0  0  0  0  0
  146.1613   74.0543  218.8406 H   0  0  0  0  0  0  0  0  0  0  0  0
  145.0782   72.9982  217.9231 H   0  0  0  0  0  0  0  0  0  0  0  0
  142.0903   71.9909  219.4843 H   0  0  0  0  0  0  0  0  0  0  0  0
  143.5658   71.9039  218.4214 H   0  0  0  0  0  0  0  0  0  0  0  0
  141.3945   71.1751  217.3395 H   0  0  0  0  0  0  0  0  0  0  0  0
  142.3259   72.4794  216.4899 H   0  0  0  0  0  0  0  0  0  0  0  0
  137.7670   76.0696  222.5559 H   0  0  0  0  0  0  0  0  0  0  0  0
  139.0185   76.4034  223.7939 H   0  0  0  0  0  0  0  0  0  0  0  0
  138.2115   78.2814  221.4972 H   0  0  0  0  0  0  0  0  0  0  0  0
  137.7540   78.4844  223.2117 H   0  0  0  0  0  0  0  0  0  0  0  0
  139.0258   80.3056  224.0712 H   0  0  0  0  0  0  0  0  0  0  0  0
  141.2728   81.3199  224.4227 H   0  0  0  0  0  0  0  0  0  0  0  0
  143.2637   80.3526  223.3533 H   0  0  0  0  0  0  0  0  0  0  0  0
  143.0973   78.3221  221.8913 H   0  0  0  0  0  0  0  0  0  0  0  0
  140.5125   77.3012  220.2997 H   0  0  0  0  0  0  0  0  0  0  0  0
  141.7358   76.4347  221.3051 H   0  0  0  0  0  0  0  0  0  0  0  0
  141.7291   72.0275  224.2403 H   0  0  0  0  0  0  0  0  0  0  0  0
  140.1644   72.8511  224.6819 H   0  0  0  0  0  0  0  0  0  0  0  0
  1  2  2  0
  2  3  1  0
  3  4  2  0
  4  5  1  0
  5  6  2  0
  5  7  1  0
  7  8  1  0
  8  9  1  0
  9 10  1  0
 10 11  2  0
 11 12  1  0
 12 13  1  0
 13 14  1  0
 14 15  1  0
 15 16  1  0
 16 17  1  0
 17 18  1  0
 18 19  1  0
 19 20  1  0
 20 21  1  0
 21 22  1  0
 17 23  1  0
 23 24  1  0
 12 25  2  0
 25 26  1  0
 26 27  1  0
 27 28  1  0
 28 29  1  0
 29 30  1  0
 30 31  2  0
 31 32  1  0
 32 33  2  0
 33 34  1  0
 34 35  2  0
 35 36  1  0
 26 37  2  0
  9 38  1  0
  6  1  1  0
 37 10  1  0
 38  4  1  0
 24 14  1  0
 36 27  1  0
 22 18  1  0
 35 30  1  0
  1 39  1  0
  2 40  1  0
  3 41  1  0
  6 42  1  0
  7 43  1  0
  7 44  1  0
  8 45  1  0
  8 46  1  0
 13 47  1  0
 14 48  1  6
 15 49  1  0
 15 50  1  0
 16 51  1  0
 16 52  1  0
 17 53  1  1
 19 54  1  0
 19 55  1  0
 20 56  1  0
 20 57  1  0
 21 58  1  0
 21 59  1  0
 22 60  1  0
 22 61  1  0
 23 62  1  0
 23 63  1  0
 24 64  1  0
 24 65  1  0
 28 66  1  0
 28 67  1  0
 29 68  1  0
 29 69  1  0
 31 70  1  0
 32 71  1  0
 33 72  1  0
 34 73  1  0
 36 74  1  0
 36 75  1  0
 38 76  1  0
 38 77  1  0
M  END
>  <smiles>  (46) 
c1ccc2c(c1)CCN(c1nc(N[C@H]3CC[C@H](N4CCCC4)CC3)nc(N3CCc4ccccc4C3)n1)C2

>  <score_type>  (46) 
oracle

>  <origin>  (46) 
autodockgpu

>  <m_score__min__energy>  (46) 
-11.02

>  <m_primary>  (46) 
energy

>  <rmsd>  (46) 
7.729753085353016

>  <m_score__min__rmsd>  (46) 
7.729753085353016

>  <meeko>  (46) 
{"free_energy": -9.3, "intermolecular_energy": -10.79, "internal_energy": -2.04, "cluster_size": 32, "cluster_id": 2, "rank_in_cluster": 23}

>  <energy>  (46) 
-8.98

>  <cluster_rmsd>  (46) 
0.54

>  <cluster>  (46) 
4

$$$$

     RDKit          3D

 77 83  0  0  0  0  0  0  0  0999 V2000
  132.1770   73.6210  227.5470 C   0  0  0  0  0  0  0  0  0  0  0  0
  132.6120   72.3940  227.0790 C   0  0  0  0  0  0  0  0  0  0  0  0
  133.5970   72.4190  226.1120 C   0  0  0  0  0  0  0  0  0  0  0  0
  134.1350   73.5860  225.6220 C   0  0  0  0  0  0  0  0  0  0  0  0
  133.7010   74.7890  226.0880 C   0  0  0  0  0  0  0  0  0  0  0  0
  132.7170   74.7890  227.0560 C   0  0  0  0  0  0  0  0  0  0  0  0
  134.3060   76.0230  225.5350 C   0  0  0  0  0  0  0  0  0  0  0  0
  134.4160   75.7750  224.0230 C   0  0  0  0  0  0  0  0  0  0  0  0
  135.4100   74.7290  223.8860 N   0  0  0  0  0  0  0  0  0  0  0  0
  136.5670   74.8950  223.0960 C   0  0  0  0  0  0  0  0  0  0  0  0
  137.0750   73.9210  222.3260 N   0  0  0  0  0  0  0  0  0  0  0  0
  138.1620   74.0740  221.5800 C   0  0  0  0  0  0  0  0  0  0  0  0
  138.6980   73.0450  220.7690 N   0  0  0  0  0  0  0  0  0  0  0  0
  139.8290   72.2320  221.1140 C   0  0  1  0  0  0  0  0  0  0  0  0
  140.5980   72.7760  222.2960 C   0  0  0  0  0  0  0  0  0  0  0  0
  140.7030   71.7550  223.4110 C   0  0  0  0  0  0  0  0  0  0  0  0
  139.3060   71.4640  223.8700 C   0  0  2  0  0  0  0  0  0  0  0  0
  139.1340   70.8950  225.1390 N   0  0  0  0  0  0  0  0  0  0  0  0
  138.5530   69.6240  225.2910 C   0  0  0  0  0  0  0  0  0  0  0  0
  139.6970   68.6750  225.2820 C   0  0  0  0  0  0  0  0  0  0  0  0
  140.8010   69.4880  225.9290 C   0  0  0  0  0  0  0  0  0  0  0  0
  140.2440   70.8750  226.0140 C   0  0  0  0  0  0  0  0  0  0  0  0
  138.6120   70.7550  222.7400 C   0  0  0  0  0  0  0  0  0  0  0  0
  139.3950   70.8250  221.4300 C   0  0  0  0  0  0  0  0  0  0  0  0
  138.7740   75.2780  221.6100 N   0  0  0  0  0  0  0  0  0  0  0  0
  138.3190   76.2820  222.3530 C   0  0  0  0  0  0  0  0  0  0  0  0
  138.9320   77.5710  222.4160 N   0  0  0  0  0  0  0  0  0  0  0  0
  138.1440   78.7670  222.6720 C   0  0  0  0  0  0  0  0  0  0  0  0
  138.8700   79.9720  222.0750 C   0  0  0  0  0  0  0  0  0  0  0  0
  140.2090   80.0700  222.7180 C   0  0  0  0  0  0  0  0  0  0  0  0
  140.6800   81.2570  223.2190 C   0  0  0  0  0  0  0  0  0  0  0  0
  141.9300   81.2560  223.7990 C   0  0  0  0  0  0  0  0  0  0  0  0
  142.6780   80.0970  223.8680 C   0  0  0  0  0  0  0  0  0  0  0  0
  142.2060   78.8830  223.3610 C   0  0  0  0  0  0  0  0  0  0  0  0
  140.9410   78.8870  222.7760 C   0  0  0  0  0  0  0  0  0  0  0  0
  140.3800   77.6270  222.2140 C   0  0  0  0  0  0  0  0  0  0  0  0
  137.2170   76.0730  223.0880 N   0  0  0  0  0  0  0  0  0  0  0  0
  135.1850   73.4830  224.5890 C   0  0  0  0  0  0  0  0  0  0  0  0
  131.3933   73.6642  228.3177 H   0  0  0  0  0  0  0  0  0  0  0  0
  132.1953   71.4488  227.4572 H   0  0  0  0  0  0  0  0  0  0  0  0
  133.9682   71.4624  225.7156 H   0  0  0  0  0  0  0  0  0  0  0  0
  132.3532   75.7507  227.4470 H   0  0  0  0  0  0  0  0  0  0  0  0
  133.6629   76.8921  225.7376 H   0  0  0  0  0  0  0  0  0  0  0  0
  135.2845   76.2400  225.9883 H   0  0  0  0  0  0  0  0  0  0  0  0
  133.4494   75.4459  223.6138 H   0  0  0  0  0  0  0  0  0  0  0  0
  134.6964   76.6861  223.4741 H   0  0  0  0  0  0  0  0  0  0  0  0
  138.2460   72.8400  219.8320 H   0  0  0  0  0  0  0  0  0  0  0  0
  140.4919   72.2411  220.2363 H   0  0  0  0  0  0  0  0  0  0  0  0
  140.0816   73.6692  222.6774 H   0  0  0  0  0  0  0  0  0  0  0  0
  141.6155   73.0241  221.9597 H   0  0  0  0  0  0  0  0  0  0  0  0
  141.2968   72.1628  224.2423 H   0  0  0  0  0  0  0  0  0  0  0  0
  141.2002   70.8389  223.0595 H   0  0  0  0  0  0  0  0  0  0  0  0
  138.8167   72.4257  224.0840 H   0  0  0  0  0  0  0  0  0  0  0  0
  138.0053   69.5605  226.2429 H   0  0  0  0  0  0  0  0  0  0  0  0
  137.8268   69.4036  224.4948 H   0  0  0  0  0  0  0  0  0  0  0  0
  139.4704   67.7732  225.8698 H   0  0  0  0  0  0  0  0  0  0  0  0
  139.9539   68.3065  224.2779 H   0  0  0  0  0  0  0  0  0  0  0  0
  141.0330   69.1000  226.9318 H   0  0  0  0  0  0  0  0  0  0  0  0
  141.7399   69.4484  225.3572 H   0  0  0  0  0  0  0  0  0  0  0  0
  139.9255   71.0981  227.0430 H   0  0  0  0  0  0  0  0  0  0  0  0
  140.9932   71.6314  225.7372 H   0  0  0  0  0  0  0  0  0  0  0  0
  137.6265   71.2188  222.5861 H   0  0  0  0  0  0  0  0  0  0  0  0
  138.5237   69.6943  223.0178 H   0  0  0  0  0  0  0  0  0  0  0  0
  138.7566   70.4571  220.6132 H   0  0  0  0  0  0  0  0  0  0  0  0
  140.2968   70.2041  221.5363 H   0  0  0  0  0  0  0  0  0  0  0  0
  137.1532   78.6639  222.2054 H   0  0  0  0  0  0  0  0  0  0  0  0
  138.0172   78.9062  223.7558 H   0  0  0  0  0  0  0  0  0  0  0  0
  138.9866   79.8369  220.9896 H   0  0  0  0  0  0  0  0  0  0  0  0
  138.2932   80.8915  222.2535 H   0  0  0  0  0  0  0  0  0  0  0  0
  140.0807   82.1775  223.1598 H   0  0  0  0  0  0  0  0  0  0  0  0
  142.3374   82.1904  224.2124 H   0  0  0  0  0  0  0  0  0  0  0  0
  143.6733   80.1303  224.3352 H   0  0  0  0  0  0  0  0  0  0  0  0
  142.8072   77.9638  223.4211 H   0  0  0  0  0  0  0  0  0  0  0  0
  140.5963   77.5844  221.1363 H   0  0  0  0  0  0  0  0  0  0  0  0
  140.8426   76.7726  222.7298 H   0  0  0  0  0  0  0  0  0  0  0  0
  134.8844   72.7175  223.8585 H   0  0  0  0  0  0  0  0  0  0  0  0
  136.1233   73.2179  225.0982 H   0  0  0  0  0  0  0  0  0  0  0  0
  1  2  2  0
  2  3  1  0
  3  4  2  0
  4  5  1  0
  5  6  2  0
  5  7  1  0
  7  8  1  0
  8  9  1  0
  9 10  1  0
 10 11  2  0
 11 12  1  0
 12 13  1  0
 13 14  1  0
 14 15  1  0
 15 16  1  0
 16 17  1  0
 17 18  1  0
 18 19  1  0
 19 20  1  0
 20 21  1  0
 21 22  1  0
 17 23  1  0
 23 24  1  0
 12 25  2  0
 25 26  1  0
 26 27  1  0
 27 28  1  0
 28 29  1  0
 29 30  1  0
 30 31  2  0
 31 32  1  0
 32 33  2  0
 33 34  1  0
 34 35  2  0
 35 36  1  0
 26 37  2  0
  9 38  1  0
  6  1  1  0
 37 10  1  0
 38  4  1  0
 24 14  1  0
 36 27  1  0
 22 18  1  0
 35 30  1  0
  1 39  1  0
  2 40  1  0
  3 41  1  0
  6 42  1  0
  7 43  1  0
  7 44  1  0
  8 45  1  0
  8 46  1  0
 13 47  1  0
 14 48  1  6
 15 49  1  0
 15 50  1  0
 16 51  1  0
 16 52  1  0
 17 53  1  1
 19 54  1  0
 19 55  1  0
 20 56  1  0
 20 57  1  0
 21 58  1  0
 21 59  1  0
 22 60  1  0
 22 61  1  0
 23 62  1  0
 23 63  1  0
 24 64  1  0
 24 65  1  0
 28 66  1  0
 28 67  1  0
 29 68  1  0
 29 69  1  0
 31 70  1  0
 32 71  1  0
 33 72  1  0
 34 73  1  0
 36 74  1  0
 36 75  1  0
 38 76  1  0
 38 77  1  0
M  END
>  <smiles>  (47) 
c1ccc2c(c1)CCN(c1nc(N[C@H]3CC[C@H](N4CCCC4)CC3)nc(N3CCc4ccccc4C3)n1)C2

>  <score_type>  (47) 
oracle

>  <origin>  (47) 
autodockgpu

>  <m_score__min__energy>  (47) 
-11.02

>  <m_primary>  (47) 
energy

>  <rmsd>  (47) 
9.891259513981485

>  <m_score__min__rmsd>  (47) 
9.891259513981485

>  <meeko>  (47) 
{"free_energy": -9.5, "intermolecular_energy": -10.99, "internal_energy": -1.87, "cluster_size": 2, "cluster_id": 4, "rank_in_cluster": 1}

>  <energy>  (47) 
-9.44

>  <cluster_rmsd>  (47) 
0.0

>  <cluster>  (47) 
5

$$$$

     RDKit          3D

 77 83  0  0  0  0  0  0  0  0999 V2000
  132.5370   73.0400  227.1110 C   0  0  0  0  0  0  0  0  0  0  0  0
  133.0330   71.8730  226.5580 C   0  0  0  0  0  0  0  0  0  0  0  0
  134.0230   72.0170  225.6070 C   0  0  0  0  0  0  0  0  0  0  0  0
  134.5100   73.2410  225.2110 C   0  0  0  0  0  0  0  0  0  0  0  0
  134.0150   74.3850  225.7610 C   0  0  0  0  0  0  0  0  0  0  0  0
  133.0240   74.2660  226.7140 C   0  0  0  0  0  0  0  0  0  0  0  0
  134.5640   75.6830  225.3070 C   0  0  0  0  0  0  0  0  0  0  0  0
  134.6980   75.5540  223.7830 C   0  0  0  0  0  0  0  0  0  0  0  0
  135.7420   74.5690  223.5800 N   0  0  0  0  0  0  0  0  0  0  0  0
  136.8970   74.8470  222.8180 C   0  0  0  0  0  0  0  0  0  0  0  0
  137.4430   73.9660  221.9670 N   0  0  0  0  0  0  0  0  0  0  0  0
  138.5280   74.2260  221.2470 C   0  0  0  0  0  0  0  0  0  0  0  0
  139.1060   73.2940  220.3510 N   0  0  0  0  0  0  0  0  0  0  0  0
  140.0450   72.2730  220.7180 C   0  0  1  0  0  0  0  0  0  0  0  0
  140.8490   72.6380  221.9460 C   0  0  0  0  0  0  0  0  0  0  0  0
  140.7080   71.5940  223.0350 C   0  0  0  0  0  0  0  0  0  0  0  0
  139.2620   71.5650  223.4280 C   0  0  2  0  0  0  0  0  0  0  0  0
  138.9270   71.0150  224.6720 N   0  0  0  0  0  0  0  0  0  0  0  0
  138.2070   69.8100  224.7630 C   0  0  0  0  0  0  0  0  0  0  0  0
  139.2440   68.7470  224.8380 C   0  0  0  0  0  0  0  0  0  0  0  0
  140.3680   69.4400  225.5810 C   0  0  0  0  0  0  0  0  0  0  0  0
  139.9530   70.8770  225.6350 C   0  0  0  0  0  0  0  0  0  0  0  0
  138.4970   71.0240  222.2510 C   0  0  0  0  0  0  0  0  0  0  0  0
  139.3390   70.9700  220.9770 C   0  0  0  0  0  0  0  0  0  0  0  0
  139.0960   75.4430  221.3910 N   0  0  0  0  0  0  0  0  0  0  0  0
  138.6000   76.3590  222.2180 C   0  0  0  0  0  0  0  0  0  0  0  0
  139.1650   77.6580  222.4030 N   0  0  0  0  0  0  0  0  0  0  0  0
  138.4190   78.7150  223.0670 C   0  0  0  0  0  0  0  0  0  0  0  0
  138.9400   80.0670  222.5800 C   0  0  0  0  0  0  0  0  0  0  0  0
  140.3890   80.1500  222.9110 C   0  0  0  0  0  0  0  0  0  0  0  0
  140.9230   81.2540  223.5240 C   0  0  0  0  0  0  0  0  0  0  0  0
  142.2750   81.2460  223.7940 C   0  0  0  0  0  0  0  0  0  0  0  0
  143.0580   80.1590  223.4560 C   0  0  0  0  0  0  0  0  0  0  0  0
  142.5220   79.0290  222.8310 C   0  0  0  0  0  0  0  0  0  0  0  0
  141.1550   79.0410  222.5600 C   0  0  0  0  0  0  0  0  0  0  0  0
  140.5210   77.8690  221.8950 C   0  0  0  0  0  0  0  0  0  0  0  0
  137.5030   76.0440  222.9220 N   0  0  0  0  0  0  0  0  0  0  0  0
  135.5710   73.2640  224.1860 C   0  0  0  0  0  0  0  0  0  0  0  0
  131.7468   72.9886  227.8744 H   0  0  0  0  0  0  0  0  0  0  0  0
  132.6587   70.8837  226.8599 H   0  0  0  0  0  0  0  0  0  0  0  0
  134.4418   71.1111  225.1444 H   0  0  0  0  0  0  0  0  0  0  0  0
  132.6105   75.1775  227.1704 H   0  0  0  0  0  0  0  0  0  0  0  0
  133.8782   76.5033  225.5656 H   0  0  0  0  0  0  0  0  0  0  0  0
  135.5275   75.9114  225.7860 H   0  0  0  0  0  0  0  0  0  0  0  0
  133.7516   75.2113  223.3394 H   0  0  0  0  0  0  0  0  0  0  0  0
  134.9392   76.5157  223.3067 H   0  0  0  0  0  0  0  0  0  0  0  0
  138.8380   73.3330  219.3250 H   0  0  0  0  0  0  0  0  0  0  0  0
  140.7360   72.1717  219.8681 H   0  0  0  0  0  0  0  0  0  0  0  0
  140.4939   73.6054  222.3307 H   0  0  0  0  0  0  0  0  0  0  0  0
  141.9093   72.6949  221.6589 H   0  0  0  0  0  0  0  0  0  0  0  0
  141.3297   71.8649  223.9011 H   0  0  0  0  0  0  0  0  0  0  0  0
  141.0383   70.6072  222.6786 H   0  0  0  0  0  0  0  0  0  0  0  0
  138.9558   72.5982  223.6487 H   0  0  0  0  0  0  0  0  0  0  0  0
  137.5791   69.8020  225.6662 H   0  0  0  0  0  0  0  0  0  0  0  0
  137.5302   69.6674  223.9077 H   0  0  0  0  0  0  0  0  0  0  0  0
  138.8779   67.8727  225.3961 H   0  0  0  0  0  0  0  0  0  0  0  0
  139.5434   68.3552  223.8547 H   0  0  0  0  0  0  0  0  0  0  0  0
  140.4753   69.0281  226.5953 H   0  0  0  0  0  0  0  0  0  0  0  0
  141.3414   69.3045  225.0869 H   0  0  0  0  0  0  0  0  0  0  0  0
  139.5754   71.1298  226.6367 H   0  0  0  0  0  0  0  0  0  0  0  0
  140.7971   71.5515  225.4287 H   0  0  0  0  0  0  0  0  0  0  0  0
  137.6255   71.6704  222.0701 H   0  0  0  0  0  0  0  0  0  0  0  0
  138.1953   69.9946  222.4946 H   0  0  0  0  0  0  0  0  0  0  0  0
  138.6809   70.7461  220.1245 H   0  0  0  0  0  0  0  0  0  0  0  0
  140.1015   70.1875  221.1042 H   0  0  0  0  0  0  0  0  0  0  0  0
  137.3502   78.6216  222.8244 H   0  0  0  0  0  0  0  0  0  0  0  0
  138.5479   78.6354  224.1565 H   0  0  0  0  0  0  0  0  0  0  0  0
  138.8006   80.1505  221.4921 H   0  0  0  0  0  0  0  0  0  0  0  0
  138.3900   80.8856  223.0672 H   0  0  0  0  0  0  0  0  0  0  0  0
  140.2945   82.1163  223.7912 H   0  0  0  0  0  0  0  0  0  0  0  0
  142.7360   82.1159  224.2847 H   0  0  0  0  0  0  0  0  0  0  0  0
  144.1336   80.1833  223.6851 H   0  0  0  0  0  0  0  0  0  0  0  0
  143.1521   78.1676  222.5646 H   0  0  0  0  0  0  0  0  0  0  0  0
  140.4766   78.0492  220.8108 H   0  0  0  0  0  0  0  0  0  0  0  0
  141.1223   76.9729  222.1083 H   0  0  0  0  0  0  0  0  0  0  0  0
  135.3127   72.5420  223.3973 H   0  0  0  0  0  0  0  0  0  0  0  0
  136.5168   73.0052  224.6844 H   0  0  0  0  0  0  0  0  0  0  0  0
  1  2  2  0
  2  3  1  0
  3  4  2  0
  4  5  1  0
  5  6  2  0
  5  7  1  0
  7  8  1  0
  8  9  1  0
  9 10  1  0
 10 11  2  0
 11 12  1  0
 12 13  1  0
 13 14  1  0
 14 15  1  0
 15 16  1  0
 16 17  1  0
 17 18  1  0
 18 19  1  0
 19 20  1  0
 20 21  1  0
 21 22  1  0
 17 23  1  0
 23 24  1  0
 12 25  2  0
 25 26  1  0
 26 27  1  0
 27 28  1  0
 28 29  1  0
 29 30  1  0
 30 31  2  0
 31 32  1  0
 32 33  2  0
 33 34  1  0
 34 35  2  0
 35 36  1  0
 26 37  2  0
  9 38  1  0
  6  1  1  0
 37 10  1  0
 38  4  1  0
 24 14  1  0
 36 27  1  0
 22 18  1  0
 35 30  1  0
  1 39  1  0
  2 40  1  0
  3 41  1  0
  6 42  1  0
  7 43  1  0
  7 44  1  0
  8 45  1  0
  8 46  1  0
 13 47  1  0
 14 48  1  6
 15 49  1  0
 15 50  1  0
 16 51  1  0
 16 52  1  0
 17 53  1  1
 19 54  1  0
 19 55  1  0
 20 56  1  0
 20 57  1  0
 21 58  1  0
 21 59  1  0
 22 60  1  0
 22 61  1  0
 23 62  1  0
 23 63  1  0
 24 64  1  0
 24 65  1  0
 28 66  1  0
 28 67  1  0
 29 68  1  0
 29 69  1  0
 31 70  1  0
 32 71  1  0
 33 72  1  0
 34 73  1  0
 36 74  1  0
 36 75  1  0
 38 76  1  0
 38 77  1  0
M  END
>  <smiles>  (48) 
c1ccc2c(c1)CCN(c1nc(N[C@H]3CC[C@H](N4CCCC4)CC3)nc(N3CCc4ccccc4C3)n1)C2

>  <score_type>  (48) 
oracle

>  <origin>  (48) 
autodockgpu

>  <m_score__min__energy>  (48) 
-11.02

>  <m_primary>  (48) 
energy

>  <rmsd>  (48) 
9.761667665161864

>  <m_score__min__rmsd>  (48) 
9.761667665161864

>  <meeko>  (48) 
{"free_energy": -8.98, "intermolecular_energy": -10.47, "internal_energy": -2.09, "cluster_size": 2, "cluster_id": 4, "rank_in_cluster": 2}

>  <energy>  (48) 
-8.81

>  <cluster_rmsd>  (48) 
0.0

>  <cluster>  (48) 
6

$$$$

     RDKit          3D

 77 83  0  0  0  0  0  0  0  0999 V2000
  142.3470   80.4410  222.7360 C   0  0  0  0  0  0  0  0  0  0  0  0
  142.0180   79.7800  223.9060 C   0  0  0  0  0  0  0  0  0  0  0  0
  141.5440   78.4910  223.7710 C   0  0  0  0  0  0  0  0  0  0  0  0
  141.3940   77.8710  222.5520 C   0  0  0  0  0  0  0  0  0  0  0  0
  141.7200   78.5290  221.4050 C   0  0  0  0  0  0  0  0  0  0  0  0
  142.1980   79.8200  221.5150 C   0  0  0  0  0  0  0  0  0  0  0  0
  141.5450   77.8280  220.1130 C   0  0  0  0  0  0  0  0  0  0  0  0
  140.1990   77.0980  220.2290 C   0  0  0  0  0  0  0  0  0  0  0  0
  140.4120   76.0740  221.2310 N   0  0  0  0  0  0  0  0  0  0  0  0
  140.1790   74.7070  220.9660 C   0  0  0  0  0  0  0  0  0  0  0  0
  140.1760   74.1910  219.7280 N   0  0  0  0  0  0  0  0  0  0  0  0
  139.9600   72.9050  219.4760 C   0  0  0  0  0  0  0  0  0  0  0  0
  139.9550   72.3610  218.1690 N   0  0  0  0  0  0  0  0  0  0  0  0
  140.8890   72.7000  217.1340 C   0  0  1  0  0  0  0  0  0  0  0  0
  141.2790   74.1600  217.1580 C   0  0  0  0  0  0  0  0  0  0  0  0
  142.7800   74.3350  217.2800 C   0  0  0  0  0  0  0  0  0  0  0  0
  143.1830   73.7340  218.5930 C   0  0  2  0  0  0  0  0  0  0  0  0
  144.4100   74.1210  219.1460 N   0  0  0  0  0  0  0  0  0  0  0  0
  144.5200   74.4510  220.5080 C   0  0  0  0  0  0  0  0  0  0  0  0
  144.8870   73.1790  221.1840 C   0  0  0  0  0  0  0  0  0  0  0  0
  145.7200   72.4780  220.1300 C   0  0  0  0  0  0  0  0  0  0  0  0
  145.5380   73.3060  218.8970 C   0  0  0  0  0  0  0  0  0  0  0  0
  142.9590   72.2500  218.4830 C   0  0  0  0  0  0  0  0  0  0  0  0
  142.1380   71.8670  217.2530 C   0  0  0  0  0  0  0  0  0  0  0  0
  139.7330   72.0930  220.5310 N   0  0  0  0  0  0  0  0  0  0  0  0
  139.7230   72.5450  221.7810 C   0  0  0  0  0  0  0  0  0  0  0  0
  139.4890   71.7240  222.9270 N   0  0  0  0  0  0  0  0  0  0  0  0
  138.4170   70.7410  222.9400 C   0  0  0  0  0  0  0  0  0  0  0  0
  137.9950   70.4930  224.3880 C   0  0  0  0  0  0  0  0  0  0  0  0
  139.1820   69.9970  225.1370 C   0  0  0  0  0  0  0  0  0  0  0  0
  139.1100   68.8900  225.9440 C   0  0  0  0  0  0  0  0  0  0  0  0
  140.2580   68.5000  226.6000 C   0  0  0  0  0  0  0  0  0  0  0  0
  141.4360   69.2040  226.4450 C   0  0  0  0  0  0  0  0  0  0  0  0
  141.5190   70.3330  225.6240 C   0  0  0  0  0  0  0  0  0  0  0  0
  140.3560   70.7240  224.9630 C   0  0  0  0  0  0  0  0  0  0  0  0
  140.3750   71.9200  224.0740 C   0  0  0  0  0  0  0  0  0  0  0  0
  139.9470   73.8520  221.9790 N   0  0  0  0  0  0  0  0  0  0  0  0
  140.8780   76.4890  222.5380 C   0  0  0  0  0  0  0  0  0  0  0  0
  142.7307   81.4709  222.7808 H   0  0  0  0  0  0  0  0  0  0  0  0
  142.1284   80.2565  224.8913 H   0  0  0  0  0  0  0  0  0  0  0  0
  141.2737   77.9335  224.6799 H   0  0  0  0  0  0  0  0  0  0  0  0
  142.4678   80.3689  220.6007 H   0  0  0  0  0  0  0  0  0  0  0  0
  141.5221   78.5494  219.2829 H   0  0  0  0  0  0  0  0  0  0  0  0
  142.3727   77.1333  219.9072 H   0  0  0  0  0  0  0  0  0  0  0  0
  139.4087   77.7931  220.5487 H   0  0  0  0  0  0  0  0  0  0  0  0
  139.8754   76.6734  219.2672 H   0  0  0  0  0  0  0  0  0  0  0  0
  139.2150   71.6460  217.9130 H   0  0  0  0  0  0  0  0  0  0  0  0
  140.3796   72.4938  216.1811 H   0  0  0  0  0  0  0  0  0  0  0  0
  140.7921   74.6454  218.0166 H   0  0  0  0  0  0  0  0  0  0  0  0
  140.9551   74.6182  216.2119 H   0  0  0  0  0  0  0  0  0  0  0  0
  143.0393   75.4038  217.2577 H   0  0  0  0  0  0  0  0  0  0  0  0
  143.3028   73.8448  216.4455 H   0  0  0  0  0  0  0  0  0  0  0  0
  142.5386   74.1682  219.3716 H   0  0  0  0  0  0  0  0  0  0  0  0
  145.3023   75.2092  220.6601 H   0  0  0  0  0  0  0  0  0  0  0  0
  143.5871   74.8763  220.9066 H   0  0  0  0  0  0  0  0  0  0  0  0
  145.4744   73.3676  222.0947 H   0  0  0  0  0  0  0  0  0  0  0  0
  144.0183   72.5930  221.5187 H   0  0  0  0  0  0  0  0  0  0  0  0
  146.7789   72.4498  220.4266 H   0  0  0  0  0  0  0  0  0  0  0  0
  145.4125   71.4324  219.9809 H   0  0  0  0  0  0  0  0  0  0  0  0
  146.4278   73.9273  218.7175 H   0  0  0  0  0  0  0  0  0  0  0  0
  145.3965   72.6790  218.0044 H   0  0  0  0  0  0  0  0  0  0  0  0
  142.4265   71.9069  219.3823 H   0  0  0  0  0  0  0  0  0  0  0  0
  143.9448   71.7716  218.3865 H   0  0  0  0  0  0  0  0  0  0  0  0
  141.8534   70.8073  217.3305 H   0  0  0  0  0  0  0  0  0  0  0  0
  142.7552   72.0458  216.3602 H   0  0  0  0  0  0  0  0  0  0  0  0
  137.5598   71.1209  222.3648 H   0  0  0  0  0  0  0  0  0  0  0  0
  138.7652   69.8017  222.4856 H   0  0  0  0  0  0  0  0  0  0  0  0
  137.6355   71.4304  224.8374 H   0  0  0  0  0  0  0  0  0  0  0  0
  137.1829   69.7520  224.4268 H   0  0  0  0  0  0  0  0  0  0  0  0
  138.1690   68.3330  226.0635 H   0  0  0  0  0  0  0  0  0  0  0  0
  140.2355   67.6168  227.2553 H   0  0  0  0  0  0  0  0  0  0  0  0
  142.3346   68.8671  226.9827 H   0  0  0  0  0  0  0  0  0  0  0  0
  142.4611   70.8882  225.5051 H   0  0  0  0  0  0  0  0  0  0  0  0
  140.0394   72.7991  224.6437 H   0  0  0  0  0  0  0  0  0  0  0  0
  141.4008   72.0725  223.7073 H   0  0  0  0  0  0  0  0  0  0  0  0
  140.0402   76.4201  223.2474 H   0  0  0  0  0  0  0  0  0  0  0  0
  141.7082   75.8241  222.8186 H   0  0  0  0  0  0  0  0  0  0  0  0
  1  2  2  0
  2  3  1  0
  3  4  2  0
  4  5  1  0
  5  6  2  0
  5  7  1  0
  7  8  1  0
  8  9  1  0
  9 10  1  0
 10 11  2  0
 11 12  1  0
 12 13  1  0
 13 14  1  0
 14 15  1  0
 15 16  1  0
 16 17  1  0
 17 18  1  0
 18 19  1  0
 19 20  1  0
 20 21  1  0
 21 22  1  0
 17 23  1  0
 23 24  1  0
 12 25  2  0
 25 26  1  0
 26 27  1  0
 27 28  1  0
 28 29  1  0
 29 30  1  0
 30 31  2  0
 31 32  1  0
 32 33  2  0
 33 34  1  0
 34 35  2  0
 35 36  1  0
 26 37  2  0
  9 38  1  0
  6  1  1  0
 37 10  1  0
 38  4  1  0
 24 14  1  0
 36 27  1  0
 22 18  1  0
 35 30  1  0
  1 39  1  0
  2 40  1  0
  3 41  1  0
  6 42  1  0
  7 43  1  0
  7 44  1  0
  8 45  1  0
  8 46  1  0
 13 47  1  0
 14 48  1  6
 15 49  1  0
 15 50  1  0
 16 51  1  0
 16 52  1  0
 17 53  1  1
 19 54  1  0
 19 55  1  0
 20 56  1  0
 20 57  1  0
 21 58  1  0
 21 59  1  0
 22 60  1  0
 22 61  1  0
 23 62  1  0
 23 63  1  0
 24 64  1  0
 24 65  1  0
 28 66  1  0
 28 67  1  0
 29 68  1  0
 29 69  1  0
 31 70  1  0
 32 71  1  0
 33 72  1  0
 34 73  1  0
 36 74  1  0
 36 75  1  0
 38 76  1  0
 38 77  1  0
M  END
>  <smiles>  (49) 
c1ccc2c(c1)CCN(c1nc(N[C@H]3CC[C@H](N4CCCC4)CC3)nc(N3CCc4ccccc4C3)n1)C2

>  <score_type>  (49) 
oracle

>  <origin>  (49) 
autodockgpu

>  <m_score__min__energy>  (49) 
-11.02

>  <m_primary>  (49) 
energy

>  <rmsd>  (49) 
8.023727591085905

>  <m_score__min__rmsd>  (49) 
8.023727591085905

>  <meeko>  (49) 
{"free_energy": -8.91, "intermolecular_energy": -10.4, "internal_energy": -2.15, "cluster_size": 32, "cluster_id": 2, "rank_in_cluster": 31}

>  <energy>  (49) 
-8.78

>  <cluster_rmsd>  (49) 
0.7

>  <cluster>  (49) 
6

$$$$

     RDKit          3D

 77 83  0  0  0  0  0  0  0  0999 V2000
  142.0790   81.2260  222.5040 C   0  0  0  0  0  0  0  0  0  0  0  0
  141.6700   80.7400  223.7330 C   0  0  0  0  0  0  0  0  0  0  0  0
  141.3570   79.3960  223.7890 C   0  0  0  0  0  0  0  0  0  0  0  0
  141.4370   78.5630  222.6980 C   0  0  0  0  0  0  0  0  0  0  0  0
  141.8410   79.0500  221.4920 C   0  0  0  0  0  0  0  0  0  0  0  0
  142.1600   80.3900  221.4120 C   0  0  0  0  0  0  0  0  0  0  0  0
  141.9140   78.1200  220.3420 C   0  0  0  0  0  0  0  0  0  0  0  0
  140.6490   77.2550  220.4410 C   0  0  0  0  0  0  0  0  0  0  0  0
  140.8350   76.4540  221.6340 N   0  0  0  0  0  0  0  0  0  0  0  0
  140.7850   75.0440  221.6040 C   0  0  0  0  0  0  0  0  0  0  0  0
  139.7560   74.3360  222.0950 N   0  0  0  0  0  0  0  0  0  0  0  0
  139.7050   73.0100  222.0660 C   0  0  0  0  0  0  0  0  0  0  0  0
  138.6200   72.2640  222.5870 N   0  0  0  0  0  0  0  0  0  0  0  0
  138.3830   70.8710  222.3330 C   0  0  1  0  0  0  0  0  0  0  0  0
  139.5850   70.0100  222.6470 C   0  0  0  0  0  0  0  0  0  0  0  0
  139.2490   68.9270  223.6510 C   0  0  0  0  0  0  0  0  0  0  0  0
  138.8400   69.6170  224.9170 C   0  0  2  0  0  0  0  0  0  0  0  0
  138.8850   68.8860  226.1110 N   0  0  0  0  0  0  0  0  0  0  0  0
  139.4980   67.6220  226.1650 C   0  0  0  0  0  0  0  0  0  0  0  0
  140.9060   67.8930  226.5570 C   0  0  0  0  0  0  0  0  0  0  0  0
  140.7680   69.1120  227.4480 C   0  0  0  0  0  0  0  0  0  0  0  0
  139.3450   69.5430  227.2760 C   0  0  0  0  0  0  0  0  0  0  0  0
  137.5400   70.3190  224.6340 C   0  0  0  0  0  0  0  0  0  0  0  0
  137.2140   70.3760  223.1430 C   0  0  0  0  0  0  0  0  0  0  0  0
  140.7490   72.3570  221.5120 N   0  0  0  0  0  0  0  0  0  0  0  0
  141.7970   73.0020  221.0080 C   0  0  0  0  0  0  0  0  0  0  0  0
  142.9220   72.3550  220.4110 N   0  0  0  0  0  0  0  0  0  0  0  0
  144.2510   72.9430  220.4790 C   0  0  0  0  0  0  0  0  0  0  0  0
  145.0750   72.4380  219.2960 C   0  0  0  0  0  0  0  0  0  0  0  0
  145.1450   70.9530  219.3820 C   0  0  0  0  0  0  0  0  0  0  0  0
  146.3330   70.2810  219.2510 C   0  0  0  0  0  0  0  0  0  0  0  0
  146.3060   68.9060  219.3460 C   0  0  0  0  0  0  0  0  0  0  0  0
  145.1190   68.2350  219.5630 C   0  0  0  0  0  0  0  0  0  0  0  0
  143.9020   68.9110  219.6970 C   0  0  0  0  0  0  0  0  0  0  0  0
  143.9340   70.3010  219.6020 C   0  0  0  0  0  0  0  0  0  0  0  0
  142.6730   71.0830  219.7350 C   0  0  0  0  0  0  0  0  0  0  0  0
  141.7980   74.3420  221.0630 N   0  0  0  0  0  0  0  0  0  0  0  0
  141.0770   77.1440  222.8840 C   0  0  0  0  0  0  0  0  0  0  0  0
  142.3417   82.2889  222.3978 H   0  0  0  0  0  0  0  0  0  0  0  0
  141.5980   81.3892  224.6181 H   0  0  0  0  0  0  0  0  0  0  0  0
  141.0289   78.9728  224.7499 H   0  0  0  0  0  0  0  0  0  0  0  0
  142.4890   80.8033  220.4471 H   0  0  0  0  0  0  0  0  0  0  0  0
  141.9258   78.6787  219.3945 H   0  0  0  0  0  0  0  0  0  0  0  0
  142.8302   77.5116  220.3635 H   0  0  0  0  0  0  0  0  0  0  0  0
  139.7543   77.8879  220.5358 H   0  0  0  0  0  0  0  0  0  0  0  0
  140.5019   76.6340  219.5451 H   0  0  0  0  0  0  0  0  0  0  0  0
  137.9160   72.7500  223.2150 H   0  0  0  0  0  0  0  0  0  0  0  0
  138.1684   70.7871  221.2574 H   0  0  0  0  0  0  0  0  0  0  0  0
  140.3811   70.6461  223.0613 H   0  0  0  0  0  0  0  0  0  0  0  0
  139.9134   69.5254  221.7157 H   0  0  0  0  0  0  0  0  0  0  0  0
  140.1299   68.2938  223.8331 H   0  0  0  0  0  0  0  0  0  0  0  0
  138.4413   68.2808  223.2768 H   0  0  0  0  0  0  0  0  0  0  0  0
  139.6268   70.3425  225.1709 H   0  0  0  0  0  0  0  0  0  0  0  0
  139.0043   66.9846  226.9133 H   0  0  0  0  0  0  0  0  0  0  0  0
  139.4319   67.0897  225.2047 H   0  0  0  0  0  0  0  0  0  0  0  0
  141.3359   67.0438  227.1085 H   0  0  0  0  0  0  0  0  0  0  0  0
  141.5781   68.0490  225.7003 H   0  0  0  0  0  0  0  0  0  0  0  0
  140.9713   68.8517  228.4972 H   0  0  0  0  0  0  0  0  0  0  0  0
  141.4807   69.9068  227.1826 H   0  0  0  0  0  0  0  0  0  0  0  0
  138.7452   69.2429  228.1479 H   0  0  0  0  0  0  0  0  0  0  0  0
  139.2595   70.6360  227.1866 H   0  0  0  0  0  0  0  0  0  0  0  0
  137.6038   71.3471  225.0199 H   0  0  0  0  0  0  0  0  0  0  0  0
  136.7396   69.7484  225.1278 H   0  0  0  0  0  0  0  0  0  0  0  0
  136.3622   71.0552  222.9906 H   0  0  0  0  0  0  0  0  0  0  0  0
  136.9725   69.3569  222.8068 H   0  0  0  0  0  0  0  0  0  0  0  0
  144.1728   74.0393  220.4337 H   0  0  0  0  0  0  0  0  0  0  0  0
  144.7382   72.6564  221.4227 H   0  0  0  0  0  0  0  0  0  0  0  0
  144.5936   72.7347  218.3525 H   0  0  0  0  0  0  0  0  0  0  0  0
  146.0864   72.8697  219.3238 H   0  0  0  0  0  0  0  0  0  0  0  0
  147.2754   70.8206  219.0761 H   0  0  0  0  0  0  0  0  0  0  0  0
  147.2418   68.3363  219.2477 H   0  0  0  0  0  0  0  0  0  0  0  0
  145.1308   67.1373  219.6325 H   0  0  0  0  0  0  0  0  0  0  0  0
  142.9605   68.3691  219.8699 H   0  0  0  0  0  0  0  0  0  0  0  0
  142.2635   71.2806  218.7334 H   0  0  0  0  0  0  0  0  0  0  0  0
  141.9568   70.4997  220.3323 H   0  0  0  0  0  0  0  0  0  0  0  0
  140.1646   77.0910  223.4962 H   0  0  0  0  0  0  0  0  0  0  0  0
  141.9288   76.6495  223.3737 H   0  0  0  0  0  0  0  0  0  0  0  0
  1  2  2  0
  2  3  1  0
  3  4  2  0
  4  5  1  0
  5  6  2  0
  5  7  1  0
  7  8  1  0
  8  9  1  0
  9 10  1  0
 10 11  2  0
 11 12  1  0
 12 13  1  0
 13 14  1  0
 14 15  1  0
 15 16  1  0
 16 17  1  0
 17 18  1  0
 18 19  1  0
 19 20  1  0
 20 21  1  0
 21 22  1  0
 17 23  1  0
 23 24  1  0
 12 25  2  0
 25 26  1  0
 26 27  1  0
 27 28  1  0
 28 29  1  0
 29 30  1  0
 30 31  2  0
 31 32  1  0
 32 33  2  0
 33 34  1  0
 34 35  2  0
 35 36  1  0
 26 37  2  0
  9 38  1  0
  6  1  1  0
 37 10  1  0
 38  4  1  0
 24 14  1  0
 36 27  1  0
 22 18  1  0
 35 30  1  0
  1 39  1  0
  2 40  1  0
  3 41  1  0
  6 42  1  0
  7 43  1  0
  7 44  1  0
  8 45  1  0
  8 46  1  0
 13 47  1  0
 14 48  1  6
 15 49  1  0
 15 50  1  0
 16 51  1  0
 16 52  1  0
 17 53  1  1
 19 54  1  0
 19 55  1  0
 20 56  1  0
 20 57  1  0
 21 58  1  0
 21 59  1  0
 22 60  1  0
 22 61  1  0
 23 62  1  0
 23 63  1  0
 24 64  1  0
 24 65  1  0
 28 66  1  0
 28 67  1  0
 29 68  1  0
 29 69  1  0
 31 70  1  0
 32 71  1  0
 33 72  1  0
 34 73  1  0
 36 74  1  0
 36 75  1  0
 38 76  1  0
 38 77  1  0
M  END
>  <smiles>  (50) 
c1ccc2c(c1)CCN(c1nc(N[C@H]3CC[C@H](N4CCCC4)CC3)nc(N3CCc4ccccc4C3)n1)C2

>  <score_type>  (50) 
oracle

>  <origin>  (50) 
autodockgpu

>  <m_score__min__energy>  (50) 
-11.02

>  <m_primary>  (50) 
energy

>  <rmsd>  (50) 
11.73763082716238

>  <m_score__min__rmsd>  (50) 
11.73763082716238

>  <meeko>  (50) 
{"free_energy": -10.95, "intermolecular_energy": -12.44, "internal_energy": -1.36, "cluster_size": 7, "cluster_id": 1, "rank_in_cluster": 3}

>  <energy>  (50) 
-8.78

>  <cluster_rmsd>  (50) 
0.63

>  <cluster>  (50) 
6

$$$$
