@<TRIPOS>MOLECULE
*****
 73 79 0 0 0
SMALL
GASTEIGER

@<TRIPOS>ATOM
      1 C         141.9560   81.3430  223.5230 C.ar    1  UNL1       -0.0615
      2 C         142.8770   80.4140  223.1140 C.ar    1  UNL1       -0.0583
      3 C         142.5330   79.0940  222.9360 C.ar    1  UNL1       -0.0199
      4 C         141.2230   78.6340  223.1620 C.ar    1  UNL1        0.1206
      5 O         140.9980   77.3170  222.9530 O.3     1  UNL1       -0.4901
      6 C         141.0930   76.5080  221.8320 C.3     1  UNL1        0.1081
      7 C         139.7900   76.3850  221.1410 C.3     1  UNL1        0.0603
      8 C         138.6580   77.0750  221.9220 C.3     1  UNL1       -0.0297
      9 C         137.4450   76.4610  221.2640 C.3     1  UNL1       -0.0353
     10 C         137.8880   75.1090  220.6980 C.3     1  UNL1        0.0154
     11 N         139.2490   75.0190  221.1950 N.pl3   1  UNL1       -0.2932
     12 C         139.8820   73.8290  221.6340 C.ar    1  UNL1        0.2240
     13 N         140.9110   73.3770  220.8990 N.ar    1  UNL1       -0.1807
     14 C         141.5950   72.2510  221.2170 C.ar    1  UNL1        0.2240
     15 N         142.6850   71.7730  220.4380 N.pl3   1  UNL1       -0.2948
     16 C         143.9500   72.5080  220.4710 C.3     1  UNL1        0.0192
     17 C         144.8600   72.1030  219.3460 C.3     1  UNL1       -0.0115
     18 C         145.0110   70.6130  219.3680 C.ar    1  UNL1       -0.0412
     19 C         146.2420   69.9970  219.2520 C.ar    1  UNL1       -0.0582
     20 C         146.3270   68.6170  219.2790 C.ar    1  UNL1       -0.0615
     21 C         145.1940   67.8720  219.4210 C.ar    1  UNL1       -0.0614
     22 C         143.9450   68.4860  219.5390 C.ar    1  UNL1       -0.0568
     23 C         143.8590   69.8630  219.5130 C.ar    1  UNL1       -0.0269
     24 C         142.5790   70.6010  219.6310 C.3     1  UNL1        0.0402
     25 N         141.1930   71.5950  222.3200 N.ar    1  UNL1       -0.1807
     26 C         140.1820   72.0120  223.0700 C.ar    1  UNL1        0.2240
     27 N         139.8100   71.2690  224.2250 N.pl3   1  UNL1       -0.2948
     28 C         138.8890   70.1610  224.0690 C.3     1  UNL1        0.0192
     29 C         139.3860   68.8780  224.6760 C.3     1  UNL1       -0.0115
     30 C         140.0420   69.1120  225.9840 C.ar    1  UNL1       -0.0412
     31 C         140.2290   68.0380  226.8260 C.ar    1  UNL1       -0.0582
     32 C         140.8280   68.1470  228.0600 C.ar    1  UNL1       -0.0615
     33 C         141.2480   69.4100  228.4390 C.ar    1  UNL1       -0.0614
     34 C         141.0750   70.5200  227.6120 C.ar    1  UNL1       -0.0568
     35 C         140.4680   70.3610  226.3810 C.ar    1  UNL1       -0.0269
     36 C         140.3140   71.5790  225.5480 C.3     1  UNL1        0.0402
     37 N         139.5300   73.1360  222.7170 N.ar    1  UNL1       -0.1807
     38 C         140.3280   79.5890  223.5690 C.ar    1  UNL1       -0.0199
     39 C         140.6680   80.9220  223.7520 C.ar    1  UNL1       -0.0583
     40 H         142.2399   82.3963  223.6640 H       1  UNL1        0.0618
     41 H         143.9132   80.7306  222.9241 H       1  UNL1        0.0619
     42 H         143.3025   78.3795  222.6084 H       1  UNL1        0.0654
     43 H         141.8263   76.9439  221.1375 H       1  UNL1        0.0715
     44 H         141.4087   75.5051  222.1554 H       1  UNL1        0.0715
     45 H         140.0114   76.7793  220.1382 H       1  UNL1        0.0534
     46 H         138.7016   76.8351  222.9946 H       1  UNL1        0.0285
     47 H         138.6864   78.1741  221.8893 H       1  UNL1        0.0285
     48 H         136.6440   76.3179  222.0042 H       1  UNL1        0.0281
     49 H         137.0534   77.1132  220.4695 H       1  UNL1        0.0281
     50 H         137.2646   74.2885  221.0829 H       1  UNL1        0.0465
     51 H         137.8041   75.0316  219.6039 H       1  UNL1        0.0465
     52 H         143.7387   73.5843  220.3882 H       1  UNL1        0.0468
     53 H         144.4555   72.2763  221.4201 H       1  UNL1        0.0468
     54 H         144.4252   72.4175  218.3858 H       1  UNL1        0.0328
     55 H         145.8427   72.5826  219.4656 H       1  UNL1        0.0328
     56 H         147.1529   70.6031  219.1384 H       1  UNL1        0.0620
     57 H         147.3050   68.1222  219.1863 H       1  UNL1        0.0618
     58 H         145.2644   66.7745  219.4429 H       1  UNL1        0.0618
     59 H         143.0364   67.8763  219.6518 H       1  UNL1        0.0621
     60 H         142.2507   70.8972  218.6238 H       1  UNL1        0.0514
     61 H         141.8554   69.9303  220.1173 H       1  UNL1        0.0514
     62 H         137.9373   70.4287  224.5514 H       1  UNL1        0.0468
     63 H         138.7744   69.9851  222.9892 H       1  UNL1        0.0468
     64 H         138.5337   68.1978  224.8206 H       1  UNL1        0.0328
     65 H         140.1276   68.4385  223.9927 H       1  UNL1        0.0328
     66 H         139.8834   67.0470  226.4966 H       1  UNL1        0.0620
     67 H         140.9663   67.2729  228.7133 H       1  UNL1        0.0618
     68 H         141.7311   69.5421  229.4184 H       1  UNL1        0.0618
     69 H         141.4188   71.5131  227.9370 H       1  UNL1        0.0621
     70 H         139.6106   72.2632  226.0452 H       1  UNL1        0.0514
     71 H         141.3053   72.0423  225.4352 H       1  UNL1        0.0514
     72 H         139.2886   79.2837  223.7601 H       1  UNL1        0.0654
     73 H         139.9051   81.6429  224.0810 H       1  UNL1        0.0619
@<TRIPOS>BOND
     1     1     2   ar
     2     2     3   ar
     3     3     4   ar
     4     4     5    1
     5     5     6    1
     6     6     7    1
     7     7     8    1
     8     8     9    1
     9     9    10    1
    10    10    11    1
    11    11    12    1
    12    12    13   ar
    13    13    14   ar
    14    14    15    1
    15    15    16    1
    16    16    17    1
    17    17    18    1
    18    18    19   ar
    19    19    20   ar
    20    20    21   ar
    21    21    22   ar
    22    22    23   ar
    23    23    24    1
    24    14    25   ar
    25    25    26   ar
    26    26    27    1
    27    27    28    1
    28    28    29    1
    29    29    30    1
    30    30    31   ar
    31    31    32   ar
    32    32    33   ar
    33    33    34   ar
    34    34    35   ar
    35    35    36    1
    36    26    37   ar
    37     4    38   ar
    38    38    39   ar
    39    39     1   ar
    40    11     7    1
    41    37    12   ar
    42    24    15    1
    43    36    27    1
    44    23    18   ar
    45    35    30   ar
    46     1    40    1
    47     2    41    1
    48     3    42    1
    49     6    43    1
    50     6    44    1
    51     7    45    1
    52     8    46    1
    53     8    47    1
    54     9    48    1
    55     9    49    1
    56    10    50    1
    57    10    51    1
    58    16    52    1
    59    16    53    1
    60    17    54    1
    61    17    55    1
    62    19    56    1
    63    20    57    1
    64    21    58    1
    65    22    59    1
    66    24    60    1
    67    24    61    1
    68    28    62    1
    69    28    63    1
    70    29    64    1
    71    29    65    1
    72    31    66    1
    73    32    67    1
    74    33    68    1
    75    34    69    1
    76    36    70    1
    77    36    71    1
    78    38    72    1
    79    39    73    1
