@<TRIPOS>MOLECULE
*****
 59 64 0 0 0
SMALL
GASTEIGER

@<TRIPOS>ATOM
      1 O         141.7600   72.1340  221.3200 O.2     1  UNL1       -0.2680
      2 C         140.7200   72.3910  222.0100 C.2     1  UNL1        0.2672
      3 C         140.4310   71.5550  223.1870 C.ar    1  UNL1        0.1034
      4 C         140.7080   71.9160  224.5130 C.ar    1  UNL1       -0.0214
      5 C         140.2840   70.8730  225.3070 C.ar    1  UNL1        0.0356
      6 C         140.2840   70.6410  226.6880 C.ar    1  UNL1        0.1325
      7 F         140.8110   71.6300  227.4590 F       1  UNL1       -0.2048
      8 C         139.7830   69.4880  227.2270 C.ar    1  UNL1       -0.0257
      9 C         139.2570   68.5060  226.4220 C.ar    1  UNL1       -0.0571
     10 C         139.2500   68.7200  225.0530 C.ar    1  UNL1       -0.0376
     11 C         139.7530   69.8800  224.4810 C.ar    1  UNL1        0.0498
     12 N         139.8650   70.3390  223.2110 N.ar    1  UNL1       -0.3505
     13 N         139.9000   73.4630  221.6170 N.am    1  UNL1       -0.2651
     14 C         140.2370   74.6460  220.8360 C.3     1  UNL1        0.0310
     15 C         139.3470   75.6720  221.5210 C.3     1  UNL1        0.0275
     16 C         138.9030   76.7710  220.5800 C.3     1  UNL1       -0.0278
     17 C         138.9930   78.0040  221.4710 C.3     1  UNL1       -0.0002
     18 N         140.2240   77.7900  222.2030 N.3     1  UNL1       -0.3011
     19 C         141.3770   78.0640  221.4060 C.3     1  UNL1        0.0017
     20 C         142.1440   79.2360  221.9530 C.3     1  UNL1       -0.0282
     21 C         141.5820   80.5710  221.6210 C.3     1  UNL1       -0.0490
     22 C         141.8060   81.4830  222.7980 C.3     1  UNL1       -0.0528
     23 C         142.6020   80.6490  223.8010 C.3     1  UNL1       -0.0528
     24 C         142.1890   79.2150  223.4720 C.3     1  UNL1       -0.0490
     25 C         140.1310   76.3780  222.5640 C.3     1  UNL1        0.0101
     26 C         138.1580   74.9420  221.9610 C.ar    1  UNL1       -0.0170
     27 C         136.8570   75.2620  222.3030 C.ar    1  UNL1       -0.0562
     28 C         135.9090   74.3230  222.6430 C.ar    1  UNL1       -0.0614
     29 C         136.2500   73.0000  222.6480 C.ar    1  UNL1       -0.0600
     30 C         137.5400   72.6460  222.3130 C.ar    1  UNL1       -0.0400
     31 C         138.5070   73.5920  221.9690 C.ar    1  UNL1        0.0404
     32 H         141.1743   72.8521  224.8540 H       1  UNL1        0.0647
     33 H         139.8013   69.3450  228.3175 H       1  UNL1        0.0646
     34 H         138.8534   67.5774  226.8519 H       1  UNL1        0.0619
     35 H         138.8310   67.9431  224.3966 H       1  UNL1        0.0638
     36 H         139.5410   69.7950  222.3850 H       1  UNL1        0.1660
     37 H         141.3025   74.9047  220.9248 H       1  UNL1        0.0478
     38 H         140.0823   74.5466  219.7515 H       1  UNL1        0.0478
     39 H         139.5769   76.8529  219.7144 H       1  UNL1        0.0287
     40 H         137.9053   76.6083  220.1462 H       1  UNL1        0.0287
     41 H         139.0460   78.9232  220.8692 H       1  UNL1        0.0427
     42 H         138.1173   78.1305  222.1245 H       1  UNL1        0.0427
     43 H         142.0292   77.1782  221.4004 H       1  UNL1        0.0429
     44 H         141.0476   78.3065  220.3849 H       1  UNL1        0.0429
     45 H         143.1296   79.1153  221.4798 H       1  UNL1        0.0313
     46 H         142.0886   80.9777  220.7333 H       1  UNL1        0.0268
     47 H         140.5066   80.4870  221.4052 H       1  UNL1        0.0268
     48 H         142.3783   82.3720  222.4945 H       1  UNL1        0.0265
     49 H         140.8593   81.8471  223.2237 H       1  UNL1        0.0265
     50 H         143.6838   80.7897  223.6598 H       1  UNL1        0.0265
     51 H         142.4010   80.9257  224.8465 H       1  UNL1        0.0265
     52 H         142.9317   78.4915  223.8393 H       1  UNL1        0.0268
     53 H         141.2405   78.9100  223.9383 H       1  UNL1        0.0268
     54 H         141.1400   75.9443  222.6258 H       1  UNL1        0.0436
     55 H         139.6365   76.2723  223.5409 H       1  UNL1        0.0436
     56 H         136.5640   76.3223  222.3035 H       1  UNL1        0.0621
     57 H         134.8879   74.6348  222.9078 H       1  UNL1        0.0618
     58 H         135.5094   72.2315  222.9143 H       1  UNL1        0.0618
     59 H         137.8165   71.5813  222.3170 H       1  UNL1        0.0636
@<TRIPOS>BOND
     1     1     2    2
     2     2     3    1
     3     3     4   ar
     4     4     5   ar
     5     5     6   ar
     6     6     7    1
     7     6     8   ar
     8     8     9   ar
     9     9    10   ar
    10    10    11   ar
    11    11    12   ar
    12     2    13   am
    13    13    14    1
    14    15    14    1
    15    15    16    1
    16    16    17    1
    17    17    18    1
    18    18    19    1
    19    19    20    1
    20    20    21    1
    21    21    22    1
    22    22    23    1
    23    23    24    1
    24    18    25    1
    25    15    26    1
    26    26    27   ar
    27    27    28   ar
    28    28    29   ar
    29    29    30   ar
    30    30    31   ar
    31    12     3   ar
    32    31    13    1
    33    11     5   ar
    34    25    15    1
    35    31    26   ar
    36    24    20    1
    37     4    32    1
    38     8    33    1
    39     9    34    1
    40    10    35    1
    41    12    36    1
    42    14    37    1
    43    14    38    1
    44    16    39    1
    45    16    40    1
    46    17    41    1
    47    17    42    1
    48    19    43    1
    49    19    44    1
    50    20    45    1
    51    21    46    1
    52    21    47    1
    53    22    48    1
    54    22    49    1
    55    23    50    1
    56    23    51    1
    57    24    52    1
    58    24    53    1
    59    25    54    1
    60    25    55    1
    61    27    56    1
    62    28    57    1
    63    29    58    1
    64    30    59    1
