
 78 84  0  0  0  0  0  0  0  0999 V2000
  142.8960   80.0030  222.2630 O   0  0  0  0  0  0  0  0  0  0  0  0
  141.7450   79.9790  221.2680 S   0  0  0  0  0  0  0  0  0  0  0  0
  142.3180   80.2210  219.8840 O   0  0  0  0  0  0  0  0  0  0  0  0
  140.7050   81.3470  221.6350 C   0  0  0  0  0  0  0  0  0  0  0  0
  139.5590   80.9370  222.4590 C   0  0  0  0  0  0  0  0  0  0  0  0
  138.3800   80.6240  221.7920 C   0  0  0  0  0  0  0  0  0  0  0  0
  137.2260   80.2640  222.4810 C   0  0  0  0  0  0  0  0  0  0  0  0
  137.2240   80.2090  223.8640 C   0  0  0  0  0  0  0  0  0  0  0  0
  138.3940   80.5200  224.5190 C   0  0  0  0  0  0  0  0  0  0  0  0
  139.5310   80.8750  223.8210 C   0  0  0  0  0  0  0  0  0  0  0  0
  140.9280   78.5230  221.2850 N   0  0  0  0  0  0  0  0  0  0  0  0
  140.6520   77.8230  220.1110 C   0  0  0  0  0  0  0  0  0  0  0  0
  140.9820   76.3350  220.1810 C   0  0  0  0  0  0  0  0  0  0  0  0
  140.4010   75.7610  221.4540 C   0  0  0  0  0  0  0  0  0  0  0  0
  140.6710   74.3250  221.5630 C   0  0  0  0  0  0  0  0  0  0  0  0
  141.4830   73.6430  220.7110 N   0  0  0  0  0  0  0  0  0  0  0  0
  141.7080   72.3310  220.8360 C   0  0  0  0  0  0  0  0  0  0  0  0
  142.5750   71.7210  219.8900 N   0  0  0  0  0  0  0  0  0  0  0  0
  143.5850   72.5300  219.2550 C   0  0  0  0  0  0  0  0  0  0  0  0
  144.9460   71.9850  219.7000 C   0  0  0  0  0  0  0  0  0  0  0  0
  144.9770   70.5510  219.3100 C   0  0  0  0  0  0  0  0  0  0  0  0
  146.2170   70.0080  219.0280 C   0  0  0  0  0  0  0  0  0  0  0  0
  146.3160   68.6780  218.6600 C   0  0  0  0  0  0  0  0  0  0  0  0
  145.1720   67.9110  218.5800 C   0  0  0  0  0  0  0  0  0  0  0  0
  143.9140   68.4370  218.8600 C   0  0  0  0  0  0  0  0  0  0  0  0
  143.8480   69.7650  219.2240 C   0  0  0  0  0  0  0  0  0  0  0  0
  142.5050   70.3230  219.5230 C   0  0  0  0  0  0  0  0  0  0  0  0
  141.1120   71.6650  221.8370 N   0  0  0  0  0  0  0  0  0  0  0  0
  140.2910   72.2810  222.7230 C   0  0  0  0  0  0  0  0  0  0  0  0
  139.6540   71.5850  223.7890 N   0  0  0  0  0  0  0  0  0  0  0  0
  138.3630   70.9880  223.5260 C   0  0  0  0  0  0  0  0  0  0  0  0
  137.9460   69.9510  224.5140 C   0  0  0  0  0  0  0  0  0  0  0  0
  139.0860   69.3950  225.2820 C   0  0  0  0  0  0  0  0  0  0  0  0
  139.0250   68.1000  225.7530 C   0  0  0  0  0  0  0  0  0  0  0  0
  140.0870   67.5540  226.4790 C   0  0  0  0  0  0  0  0  0  0  0  0
  141.2220   68.2970  226.7420 C   0  0  0  0  0  0  0  0  0  0  0  0
  141.2950   69.6080  226.2700 C   0  0  0  0  0  0  0  0  0  0  0  0
  140.2270   70.1150  225.5560 C   0  0  0  0  0  0  0  0  0  0  0  0
  140.3050   71.5020  225.0600 C   0  0  0  0  0  0  0  0  0  0  0  0
  140.1040   73.6010  222.5450 N   0  0  0  0  0  0  0  0  0  0  0  0
  141.0430   76.4970  222.6080 C   0  0  0  0  0  0  0  0  0  0  0  0
  140.6340   77.9290  222.5380 C   0  0  0  0  0  0  0  0  0  0  0  0
  141.2871   82.1040  222.1810 H   0  0  0  0  0  0  0  0  0  0  0  0
  140.3242   81.7590  220.6888 H   0  0  0  0  0  0  0  0  0  0  0  0
  138.3590   80.6619  220.6929 H   0  0  0  0  0  0  0  0  0  0  0  0
  136.3095   80.0216  221.9231 H   0  0  0  0  0  0  0  0  0  0  0  0
  136.3183   79.9264  224.4207 H   0  0  0  0  0  0  0  0  0  0  0  0
  138.4236   80.4851  225.6180 H   0  0  0  0  0  0  0  0  0  0  0  0
  140.4456   81.1161  224.3827 H   0  0  0  0  0  0  0  0  0  0  0  0
  139.5798   77.9290  219.8895 H   0  0  0  0  0  0  0  0  0  0  0  0
  141.2923   78.2535  219.3269 H   0  0  0  0  0  0  0  0  0  0  0  0
  140.5471   75.8195  219.3120 H   0  0  0  0  0  0  0  0  0  0  0  0
  142.0731   76.1957  220.1747 H   0  0  0  0  0  0  0  0  0  0  0  0
  139.3082   75.8861  221.4583 H   0  0  0  0  0  0  0  0  0  0  0  0
  143.4906   72.4613  218.1612 H   0  0  0  0  0  0  0  0  0  0  0  0
  143.4751   73.5870  219.5392 H   0  0  0  0  0  0  0  0  0  0  0  0
  145.7569   72.5327  219.1975 H   0  0  0  0  0  0  0  0  0  0  0  0
  145.0859   72.1044  220.7845 H   0  0  0  0  0  0  0  0  0  0  0  0
  147.1211   70.6309  219.0960 H   0  0  0  0  0  0  0  0  0  0  0  0
  147.2976   68.2363  218.4333 H   0  0  0  0  0  0  0  0  0  0  0  0
  145.2564   66.8542  218.2867 H   0  0  0  0  0  0  0  0  0  0  0  0
  143.0078   67.8171  218.7934 H   0  0  0  0  0  0  0  0  0  0  0  0
  141.8697   70.2202  218.6309 H   0  0  0  0  0  0  0  0  0  0  0  0
  142.0843   69.7663  220.3733 H   0  0  0  0  0  0  0  0  0  0  0  0
  137.6080   71.7880  223.5288 H   0  0  0  0  0  0  0  0  0  0  0  0
  138.4472   70.4779  222.5551 H   0  0  0  0  0  0  0  0  0  0  0  0
  137.2349   70.4046  225.2201 H   0  0  0  0  0  0  0  0  0  0  0  0
  137.4914   69.1224  223.9512 H   0  0  0  0  0  0  0  0  0  0  0  0
  138.1309   67.4905  225.5551 H   0  0  0  0  0  0  0  0  0  0  0  0
  140.0185   66.5192  226.8459 H   0  0  0  0  0  0  0  0  0  0  0  0
  142.0546   67.8619  227.3143 H   0  0  0  0  0  0  0  0  0  0  0  0
  142.1850   70.2251  226.4626 H   0  0  0  0  0  0  0  0  0  0  0  0
  139.8074   72.1760  225.7728 H   0  0  0  0  0  0  0  0  0  0  0  0
  141.3592   71.7979  224.9549 H   0  0  0  0  0  0  0  0  0  0  0  0
  140.7068   76.0606  223.5601 H   0  0  0  0  0  0  0  0  0  0  0  0
  142.1381   76.4131  222.5477 H   0  0  0  0  0  0  0  0  0  0  0  0
  139.5498   77.9939  222.7121 H   0  0  0  0  0  0  0  0  0  0  0  0
  141.2035   78.4742  223.3051 H   0  0  0  0  0  0  0  0  0  0  0  0
  1  2  2  0
  2  3  2  0
  2  4  1  0
  4  5  1  0
  5  6  2  0
  6  7  1  0
  7  8  2  0
  8  9  1  0
  9 10  2  0
  2 11  1  0
 11 12  1  0
 12 13  1  0
 13 14  1  0
 14 15  1  0
 15 16  2  0
 16 17  1  0
 17 18  1  0
 18 19  1  0
 19 20  1  0
 20 21  1  0
 21 22  2  0
 22 23  1  0
 23 24  2  0
 24 25  1  0
 25 26  2  0
 26 27  1  0
 17 28  2  0
 28 29  1  0
 29 30  1  0
 30 31  1  0
 31 32  1  0
 32 33  1  0
 33 34  2  0
 34 35  1  0
 35 36  2  0
 36 37  1  0
 37 38  2  0
 38 39  1  0
 29 40  2  0
 14 41  1  0
 41 42  1  0
 10  5  1  0
 42 11  1  0
 40 15  1  0
 27 18  1  0
 39 30  1  0
 26 21  1  0
 38 33  1  0
  4 43  1  0
  4 44  1  0
  6 45  1  0
  7 46  1  0
  8 47  1  0
  9 48  1  0
 10 49  1  0
 12 50  1  0
 12 51  1  0
 13 52  1  0
 13 53  1  0
 14 54  1  0
 19 55  1  0
 19 56  1  0
 20 57  1  0
 20 58  1  0
 22 59  1  0
 23 60  1  0
 24 61  1  0
 25 62  1  0
 27 63  1  0
 27 64  1  0
 31 65  1  0
 31 66  1  0
 32 67  1  0
 32 68  1  0
 34 69  1  0
 35 70  1  0
 36 71  1  0
 37 72  1  0
 39 73  1  0
 39 74  1  0
 41 75  1  0
 41 76  1  0
 42 77  1  0
 42 78  1  0
M  END
