@<TRIPOS>MOLECULE
*****
 61 66 0 0 0
SMALL
GASTEIGER

@<TRIPOS>ATOM
      1 O         136.8700   78.4460  223.1380 O.2     1  UNL1       -0.2680
      2 C         137.7680   79.3610  223.1800 C.2     1  UNL1        0.2672
      3 C         137.4500   80.5290  223.9530 C.ar    1  UNL1        0.1033
      4 C         137.5070   80.6750  225.3360 C.ar    1  UNL1       -0.0241
      5 C         137.1220   81.9630  225.6710 C.ar    1  UNL1        0.0004
      6 C         136.9970   82.6380  226.8730 C.ar    1  UNL1       -0.0526
      7 C         136.5800   83.9470  226.8810 C.ar    1  UNL1       -0.0611
      8 C         136.2910   84.5750  225.6810 C.ar    1  UNL1       -0.0598
      9 C         136.4160   83.8980  224.4680 C.ar    1  UNL1       -0.0378
     10 C         136.8320   82.5940  224.4660 C.ar    1  UNL1        0.0470
     11 N         137.0320   81.7230  223.4450 N.ar    1  UNL1       -0.3506
     12 N         138.9790   79.1530  222.4730 N.am    1  UNL1       -0.2651
     13 C         139.1310   78.4080  221.2410 C.3     1  UNL1        0.0310
     14 C         140.5270   77.8060  221.4450 C.3     1  UNL1        0.0275
     15 C         140.3740   76.5260  222.1790 C.3     1  UNL1       -0.0278
     16 C         140.5760   75.4650  221.1380 C.3     1  UNL1       -0.0002
     17 N         141.0720   76.0670  219.9520 N.3     1  UNL1       -0.3014
     18 C         142.1740   75.4250  219.3200 C.3     1  UNL1       -0.0008
     19 C         143.4570   75.4940  220.0750 C.3     1  UNL1       -0.0362
     20 C         144.1470   74.1530  220.0490 C.3     1  UNL1       -0.0262
     21 C         145.4370   74.1460  220.8460 C.3     1  UNL1       -0.0364
     22 C         146.0390   72.8290  220.3290 C.3     1  UNL1       -0.0038
     23 N         145.9230   73.0810  218.8860 N.3     1  UNL1       -0.3157
     24 C         144.6450   73.7510  218.6890 C.3     1  UNL1       -0.0012
     25 C         141.1800   77.4730  220.1530 C.3     1  UNL1        0.0101
     26 C         141.2500   78.8460  222.2170 C.ar    1  UNL1       -0.0170
     27 C         142.6060   79.0550  222.3620 C.ar    1  UNL1       -0.0562
     28 C         143.0230   80.1110  223.1540 C.ar    1  UNL1       -0.0614
     29 C         142.0730   80.9050  223.7620 C.ar    1  UNL1       -0.0600
     30 C         140.7120   80.6660  223.5960 C.ar    1  UNL1       -0.0400
     31 C         140.2910   79.6290  222.8170 C.ar    1  UNL1        0.0404
     32 H         137.8092   79.8933  226.0485 H       1  UNL1        0.0646
     33 H         137.2309   82.1278  227.8190 H       1  UNL1        0.0624
     34 H         136.4767   84.4911  227.8314 H       1  UNL1        0.0618
     35 H         135.9579   85.6233  225.6846 H       1  UNL1        0.0618
     36 H         136.1824   84.4074  223.5215 H       1  UNL1        0.0638
     37 H         136.8750   81.9810  222.4460 H       1  UNL1        0.1660
     38 H         138.3629   77.6268  221.1420 H       1  UNL1        0.0478
     39 H         139.0217   79.0095  220.3265 H       1  UNL1        0.0478
     40 H         141.1312   76.4406  222.9723 H       1  UNL1        0.0287
     41 H         139.3948   76.4436  222.6734 H       1  UNL1        0.0287
     42 H         141.2998   74.7222  221.5046 H       1  UNL1        0.0427
     43 H         139.6191   74.9649  220.9277 H       1  UNL1        0.0427
     44 H         141.9170   74.3648  219.1790 H       1  UNL1        0.0427
     45 H         142.3429   75.9612  218.3745 H       1  UNL1        0.0427
     46 H         144.1108   76.2485  219.6131 H       1  UNL1        0.0281
     47 H         143.2459   75.7699  221.1187 H       1  UNL1        0.0281
     48 H         143.3642   73.4864  220.4401 H       1  UNL1        0.0314
     49 H         146.0731   75.0110  220.6070 H       1  UNL1        0.0281
     50 H         145.3166   74.2123  221.9374 H       1  UNL1        0.0281
     51 H         147.0853   72.7011  220.6436 H       1  UNL1        0.0424
     52 H         145.5547   71.9103  220.6915 H       1  UNL1        0.0424
     53 H         146.7190   73.7490  218.6700 H       1  UNL1        0.1219
     54 H         144.7784   74.6413  218.0569 H       1  UNL1        0.0427
     55 H         143.9259   73.0865  218.1876 H       1  UNL1        0.0427
     56 H         142.2401   77.7647  220.1849 H       1  UNL1        0.0436
     57 H         140.6923   78.0143  219.3289 H       1  UNL1        0.0436
     58 H         143.3355   78.4007  221.8622 H       1  UNL1        0.0621
     59 H         144.0948   80.3137  223.2962 H       1  UNL1        0.0618
     60 H         142.3983   81.7459  224.3921 H       1  UNL1        0.0618
     61 H         139.9755   81.3141  224.0935 H       1  UNL1        0.0636
@<TRIPOS>BOND
     1     1     2    2
     2     2     3    1
     3     3     4   ar
     4     4     5   ar
     5     5     6   ar
     6     6     7   ar
     7     7     8   ar
     8     8     9   ar
     9     9    10   ar
    10    10    11   ar
    11     2    12   am
    12    12    13    1
    13    14    13    1
    14    14    15    1
    15    15    16    1
    16    16    17    1
    17    17    18    1
    18    18    19    1
    19    19    20    1
    20    20    21    1
    21    21    22    1
    22    22    23    1
    23    23    24    1
    24    17    25    1
    25    14    26    1
    26    26    27   ar
    27    27    28   ar
    28    28    29   ar
    29    29    30   ar
    30    30    31   ar
    31    11     3   ar
    32    31    12    1
    33    10     5   ar
    34    25    14    1
    35    31    26   ar
    36    24    20    1
    37     4    32    1
    38     6    33    1
    39     7    34    1
    40     8    35    1
    41     9    36    1
    42    11    37    1
    43    13    38    1
    44    13    39    1
    45    15    40    1
    46    15    41    1
    47    16    42    1
    48    16    43    1
    49    18    44    1
    50    18    45    1
    51    19    46    1
    52    19    47    1
    53    20    48    1
    54    21    49    1
    55    21    50    1
    56    22    51    1
    57    22    52    1
    58    23    53    1
    59    24    54    1
    60    24    55    1
    61    25    56    1
    62    25    57    1
    63    27    58    1
    64    28    59    1
    65    29    60    1
    66    30    61    1
