
 61 64  0  0  0  0  0  0  0  0999 V2000
  142.5630   80.0340  222.3690 C   0  0  0  0  0  0  0  0  0  0  0  0
  141.4950   79.0900  222.9280 C   0  0  2  0  0  0  0  0  0  0  0  0
  141.4680   77.9180  222.0750 N   0  0  0  0  0  0  0  0  0  0  0  0
  141.0320   78.0480  220.7270 C   0  0  0  0  0  0  0  0  0  0  0  0
  140.6590   79.1440  220.2270 O   0  0  0  0  0  0  0  0  0  0  0  0
  141.0200   76.8340  219.8920 C   0  0  1  0  0  0  0  0  0  0  0  0
  141.8800   76.8980  218.6740 C   0  0  0  0  0  0  0  0  0  0  0  0
  143.3180   76.6870  219.1180 C   0  0  0  0  0  0  0  0  0  0  0  0
  143.4290   75.2620  219.5500 C   0  0  0  0  0  0  0  0  0  0  0  0
  142.4660   74.8560  220.6090 C   0  0  0  0  0  0  0  0  0  0  0  0
  141.2620   75.6350  220.6670 N   0  0  0  0  0  0  0  0  0  0  0  0
  140.2240   75.2120  221.5430 C   0  0  0  0  0  0  0  0  0  0  0  0
  139.9740   75.7760  222.6390 O   0  0  0  0  0  0  0  0  0  0  0  0
  139.3460   74.0430  221.2010 C   0  0  0  0  0  0  0  0  0  0  0  0
  139.1800   73.1870  222.3510 N   0  0  0  0  0  0  0  0  0  0  0  0
  140.2310   72.2820  222.6560 C   0  0  0  0  0  0  0  0  0  0  0  0
  141.2340   72.3090  221.8810 O   0  0  0  0  0  0  0  0  0  0  0  0
  140.1580   71.3750  223.7990 C   0  0  0  0  0  0  0  0  0  0  0  0
  139.5680   70.1450  223.6100 C   0  0  0  0  0  0  0  0  0  0  0  0
  139.4520   69.2260  224.6180 C   0  0  0  0  0  0  0  0  0  0  0  0
  139.9620   69.5950  225.8600 C   0  0  0  0  0  0  0  0  0  0  0  0
  139.8610   68.6950  226.8970 C   0  0  0  0  0  0  0  0  0  0  0  0
  140.3720   69.0740  228.1230 C   0  0  0  0  0  0  0  0  0  0  0  0
  140.2620   68.1680  229.1390 F   0  0  0  0  0  0  0  0  0  0  0  0
  140.9610   70.3010  228.3200 C   0  0  0  0  0  0  0  0  0  0  0  0
  141.0710   71.2190  227.2850 C   0  0  0  0  0  0  0  0  0  0  0  0
  140.5580   70.8330  226.0630 C   0  0  0  0  0  0  0  0  0  0  0  0
  140.6340   71.6840  225.0160 N   0  0  0  0  0  0  0  0  0  0  0  0
  140.1750   79.7540  223.0160 C   0  0  0  0  0  0  0  0  0  0  0  0
  139.0310   79.0780  223.4530 C   0  0  0  0  0  0  0  0  0  0  0  0
  137.8180   79.7710  223.5100 C   0  0  0  0  0  0  0  0  0  0  0  0
  137.7560   81.1060  223.1400 C   0  0  0  0  0  0  0  0  0  0  0  0
  138.8970   81.7830  222.7040 C   0  0  0  0  0  0  0  0  0  0  0  0
  140.1070   81.0830  222.6490 C   0  0  0  0  0  0  0  0  0  0  0  0
  143.1025   80.5108  223.2006 H   0  0  0  0  0  0  0  0  0  0  0  0
  143.2717   79.4617  221.7524 H   0  0  0  0  0  0  0  0  0  0  0  0
  142.0821   80.8076  221.7524 H   0  0  0  0  0  0  0  0  0  0  0  0
  141.7404   78.7940  223.9586 H   0  0  0  0  0  0  0  0  0  0  0  0
  141.7710   76.9730  222.4490 H   0  0  0  0  0  0  0  0  0  0  0  0
  139.9930   76.7810  219.5015 H   0  0  0  0  0  0  0  0  0  0  0  0
  141.5864   76.1097  217.9652 H   0  0  0  0  0  0  0  0  0  0  0  0
  141.7685   77.8703  218.1719 H   0  0  0  0  0  0  0  0  0  0  0  0
  144.0056   76.8845  218.2824 H   0  0  0  0  0  0  0  0  0  0  0  0
  143.5833   77.3708  219.9378 H   0  0  0  0  0  0  0  0  0  0  0  0
  143.2603   74.6233  218.6705 H   0  0  0  0  0  0  0  0  0  0  0  0
  144.4336   75.1462  219.9830 H   0  0  0  0  0  0  0  0  0  0  0  0
  142.1854   73.8074  220.4308 H   0  0  0  0  0  0  0  0  0  0  0  0
  142.9803   75.0144  221.5684 H   0  0  0  0  0  0  0  0  0  0  0  0
  138.3612   74.4113  220.8778 H   0  0  0  0  0  0  0  0  0  0  0  0
  139.8174   73.4666  220.3914 H   0  0  0  0  0  0  0  0  0  0  0  0
  138.3300   73.2000  222.9660 H   0  0  0  0  0  0  0  0  0  0  0  0
  139.1761   69.8921  222.6138 H   0  0  0  0  0  0  0  0  0  0  0  0
  138.9799   68.2459  224.4551 H   0  0  0  0  0  0  0  0  0  0  0  0
  139.3909   67.7108  226.7545 H   0  0  0  0  0  0  0  0  0  0  0  0
  141.3517   70.5593  229.3153 H   0  0  0  0  0  0  0  0  0  0  0  0
  141.5421   72.2023  227.4307 H   0  0  0  0  0  0  0  0  0  0  0  0
  139.0848   78.0193  223.7468 H   0  0  0  0  0  0  0  0  0  0  0  0
  136.9082   79.2546  223.8501 H   0  0  0  0  0  0  0  0  0  0  0  0
  136.7951   81.6390  223.1906 H   0  0  0  0  0  0  0  0  0  0  0  0
  138.8455   82.8419  222.4107 H   0  0  0  0  0  0  0  0  0  0  0  0
  141.0169   81.5988  222.3085 H   0  0  0  0  0  0  0  0  0  0  0  0
  1  2  1  0
  2  3  1  0
  3  4  1  0
  4  5  2  0
  4  6  1  0
  6  7  1  0
  7  8  1  0
  8  9  1  0
  9 10  1  0
 10 11  1  0
 11 12  1  0
 12 13  2  0
 12 14  1  0
 14 15  1  0
 15 16  1  0
 16 17  2  0
 16 18  1  0
 18 19  2  0
 19 20  1  0
 20 21  2  0
 21 22  1  0
 22 23  2  0
 23 24  1  0
 23 25  1  0
 25 26  2  0
 26 27  1  0
 27 28  2  0
  2 29  1  0
 29 30  2  0
 30 31  1  0
 31 32  2  0
 32 33  1  0
 33 34  2  0
 11  6  1  0
 28 18  1  0
 34 29  1  0
 27 21  1  0
  1 35  1  0
  1 36  1  0
  1 37  1  0
  2 38  1  1
  3 39  1  0
  6 40  1  6
  7 41  1  0
  7 42  1  0
  8 43  1  0
  8 44  1  0
  9 45  1  0
  9 46  1  0
 10 47  1  0
 10 48  1  0
 14 49  1  0
 14 50  1  0
 15 51  1  0
 19 52  1  0
 20 53  1  0
 22 54  1  0
 25 55  1  0
 26 56  1  0
 30 57  1  0
 31 58  1  0
 32 59  1  0
 33 60  1  0
 34 61  1  0
M  END
