@<TRIPOS>MOLECULE
*****
 67 72 0 0 0
SMALL
GASTEIGER

@<TRIPOS>ATOM
      1 C         137.8270   74.7560  221.9910 C.3     1  UNL1       -0.0464
      2 C         138.6240   75.6780  221.0940 C.3     1  UNL1        0.0235
      3 C         138.2420   77.0990  221.4340 C.3     1  UNL1       -0.0331
      4 C         139.0960   77.4930  222.6220 C.3     1  UNL1       -0.0346
      5 C         140.5030   77.7040  222.1040 C.3     1  UNL1        0.0208
      6 N         141.4560   77.8450  223.1920 N.3     1  UNL1       -0.3259
      7 C         140.9050   76.6180  221.1600 C.3     1  UNL1        0.0304
      8 N         140.0480   75.4560  221.2300 N.pl3   1  UNL1       -0.2952
      9 C         140.5980   74.1590  221.4220 C.ar    1  UNL1        0.2240
     10 N         141.5130   73.6060  220.6170 N.ar    1  UNL1       -0.1807
     11 C         142.0140   72.3630  220.8370 C.ar    1  UNL1        0.2240
     12 N         142.9810   71.7620  219.9950 N.pl3   1  UNL1       -0.2948
     13 C         144.2580   72.4090  219.7720 C.3     1  UNL1        0.0192
     14 C         145.0290   71.7490  218.6600 C.3     1  UNL1       -0.0115
     15 C         145.1360   70.3040  219.0170 C.ar    1  UNL1       -0.0412
     16 C         146.3160   69.6090  219.0100 C.ar    1  UNL1       -0.0582
     17 C         146.3150   68.2740  219.3560 C.ar    1  UNL1       -0.0615
     18 C         145.1400   67.6260  219.7090 C.ar    1  UNL1       -0.0614
     19 C         143.9500   68.3400  219.7130 C.ar    1  UNL1       -0.0568
     20 C         143.9320   69.6860  219.3670 C.ar    1  UNL1       -0.0269
     21 C         142.6790   70.4880  219.3580 C.3     1  UNL1        0.0402
     22 N         141.5560   71.6800  221.9170 N.ar    1  UNL1       -0.1807
     23 C         140.6380   72.1980  222.7520 C.ar    1  UNL1        0.2240
     24 N         140.1370   71.5080  223.8910 N.pl3   1  UNL1       -0.2948
     25 C         138.9700   70.6430  223.8430 C.3     1  UNL1        0.0192
     26 C         139.5200   69.2640  224.2340 C.3     1  UNL1       -0.0115
     27 C         139.8210   69.3770  225.6920 C.ar    1  UNL1       -0.0412
     28 C         139.4960   68.3590  226.5700 C.ar    1  UNL1       -0.0582
     29 C         139.8010   68.5190  227.9260 C.ar    1  UNL1       -0.0615
     30 C         140.4180   69.6950  228.3420 C.ar    1  UNL1       -0.0614
     31 C         140.7310   70.6960  227.4440 C.ar    1  UNL1       -0.0568
     32 C         140.4340   70.5450  226.1050 C.ar    1  UNL1       -0.0269
     33 C         140.7900   71.6450  225.1830 C.3     1  UNL1        0.0402
     34 N         140.1860   73.4280  222.4740 N.ar    1  UNL1       -0.1807
     35 H         138.0359   74.9977  223.0436 H       1  UNL1        0.0248
     36 H         136.7534   74.8874  221.7907 H       1  UNL1        0.0248
     37 H         138.1123   73.7127  221.7907 H       1  UNL1        0.0248
     38 H         138.3880   75.4719  220.0396 H       1  UNL1        0.0498
     39 H         138.4454   77.7631  220.5810 H       1  UNL1        0.0284
     40 H         137.1699   77.1816  221.6658 H       1  UNL1        0.0284
     41 H         138.7147   78.4226  223.0698 H       1  UNL1        0.0281
     42 H         139.0755   76.7124  223.3968 H       1  UNL1        0.0281
     43 H         140.5084   78.6486  221.5404 H       1  UNL1        0.0474
     44 H         142.0590   77.0050  223.3270 H       1  UNL1        0.1185
     45 H         141.0010   78.1570  224.0760 H       1  UNL1        0.1185
     46 H         140.8715   77.0158  220.1350 H       1  UNL1        0.0480
     47 H         141.9171   76.2952  221.4453 H       1  UNL1        0.0480
     48 H         144.0828   73.4624  219.5082 H       1  UNL1        0.0468
     49 H         144.8500   72.3276  220.6955 H       1  UNL1        0.0468
     50 H         144.4945   71.8660  217.7057 H       1  UNL1        0.0328
     51 H         146.0236   72.2038  218.5416 H       1  UNL1        0.0328
     52 H         147.2547   70.1103  218.7313 H       1  UNL1        0.0620
     53 H         147.2615   67.7136  219.3521 H       1  UNL1        0.0618
     54 H         145.1515   66.5605  219.9821 H       1  UNL1        0.0618
     55 H         143.0129   67.8363  219.9924 H       1  UNL1        0.0621
     56 H         142.3445   70.6535  218.3233 H       1  UNL1        0.0514
     57 H         141.8747   69.9633  219.8944 H       1  UNL1        0.0514
     58 H         138.2048   70.9771  224.5591 H       1  UNL1        0.0468
     59 H         138.4813   70.6423  222.8575 H       1  UNL1        0.0468
     60 H         138.7692   68.4809  224.0522 H       1  UNL1        0.0328
     61 H         140.4072   68.9870  223.6456 H       1  UNL1        0.0328
     62 H         139.0074   67.4418  226.2094 H       1  UNL1        0.0620
     63 H         139.5572   67.7286  228.6511 H       1  UNL1        0.0618
     64 H         140.6609   69.8296  229.4064 H       1  UNL1        0.0618
     65 H         141.2186   71.6166  227.7971 H       1  UNL1        0.0621
     66 H         140.4846   72.6000  225.6354 H       1  UNL1        0.0514
     67 H         141.8771   71.6111  225.0187 H       1  UNL1        0.0514
@<TRIPOS>BOND
     1     1     2    1
     2     2     3    1
     3     3     4    1
     4     4     5    1
     5     5     6    1
     6     5     7    1
     7     7     8    1
     8     8     9    1
     9     9    10   ar
    10    10    11   ar
    11    11    12    1
    12    12    13    1
    13    13    14    1
    14    14    15    1
    15    15    16   ar
    16    16    17   ar
    17    17    18   ar
    18    18    19   ar
    19    19    20   ar
    20    20    21    1
    21    11    22   ar
    22    22    23   ar
    23    23    24    1
    24    24    25    1
    25    25    26    1
    26    26    27    1
    27    27    28   ar
    28    28    29   ar
    29    29    30   ar
    30    30    31   ar
    31    31    32   ar
    32    32    33    1
    33    23    34   ar
    34     8     2    1
    35    34     9   ar
    36    21    12    1
    37    33    24    1
    38    20    15   ar
    39    32    27   ar
    40     1    35    1
    41     1    36    1
    42     1    37    1
    43     2    38    1
    44     3    39    1
    45     3    40    1
    46     4    41    1
    47     4    42    1
    48     5    43    1
    49     6    44    1
    50     6    45    1
    51     7    46    1
    52     7    47    1
    53    13    48    1
    54    13    49    1
    55    14    50    1
    56    14    51    1
    57    16    52    1
    58    17    53    1
    59    18    54    1
    60    19    55    1
    61    21    56    1
    62    21    57    1
    63    25    58    1
    64    25    59    1
    65    26    60    1
    66    26    61    1
    67    28    62    1
    68    29    63    1
    69    30    64    1
    70    31    65    1
    71    33    66    1
    72    33    67    1
