@<TRIPOS>MOLECULE
*****
 53 57 0 0 0
SMALL
GASTEIGER

@<TRIPOS>ATOM
      1 O         136.1200   71.7710  220.4040 O.3     1  UNL1       -0.4783
      2 C         137.2210   72.2110  221.1470 C.ar    1  UNL1        0.3214
      3 N         137.5890   73.5140  220.9960 N.ar    1  UNL1       -0.1611
      4 C         138.6480   74.0180  221.6830 C.ar    1  UNL1        0.2252
      5 N         139.0530   75.3730  221.5440 N.pl3   1  UNL1       -0.2965
      6 C         140.2730   75.7780  220.8730 C.3     1  UNL1        0.0306
      7 C         141.0480   76.5680  221.9370 C.3     1  UNL1        0.0280
      8 N         140.2710   77.7610  222.1950 N.pl3   1  UNL1       -0.3269
      9 C         140.9160   78.9130  222.7290 C.ar    1  UNL1        0.0298
     10 C         140.2300   79.9550  223.3260 C.ar    1  UNL1       -0.0407
     11 C         140.8660   81.0640  223.8440 C.ar    1  UNL1       -0.0600
     12 C         142.2250   81.1850  223.7880 C.ar    1  UNL1       -0.0616
     13 C         142.9350   80.1610  223.1980 C.ar    1  UNL1       -0.0600
     14 C         142.2890   79.0370  222.6730 C.ar    1  UNL1       -0.0407
     15 C         138.8440   77.7890  221.9160 C.3     1  UNL1        0.0280
     16 C         138.2210   76.4210  222.0930 C.3     1  UNL1        0.0306
     17 N         139.3060   73.1820  222.5080 N.ar    1  UNL1       -0.1806
     18 C         138.9430   71.8880  222.6600 C.ar    1  UNL1        0.2254
     19 N         139.6890   71.0670  223.5510 N.pl3   1  UNL1       -0.2948
     20 C         139.4760   69.6510  223.5850 C.3     1  UNL1        0.0192
     21 C         138.8240   69.3260  224.9060 C.3     1  UNL1       -0.0115
     22 C         139.5820   69.9860  226.0010 C.ar    1  UNL1       -0.0412
     23 C         139.4140   69.4990  227.2910 C.ar    1  UNL1       -0.0582
     24 C         140.0900   70.0720  228.3410 C.ar    1  UNL1       -0.0615
     25 C         140.9540   71.1410  228.1650 C.ar    1  UNL1       -0.0614
     26 C         141.1210   71.6290  226.8670 C.ar    1  UNL1       -0.0568
     27 C         140.4350   71.0490  225.7980 C.ar    1  UNL1       -0.0269
     28 C         140.6750   71.6370  224.4400 C.3     1  UNL1        0.0402
     29 N         137.8920   71.3880  221.9790 N.ar    1  UNL1       -0.1611
     30 H         135.3510   72.4040  220.1470 H       1  UNL1        0.2953
     31 H         140.8474   74.8990  220.5452 H       1  UNL1        0.0480
     32 H         140.0772   76.3725  219.9684 H       1  UNL1        0.0480
     33 H         141.1498   75.9723  222.8561 H       1  UNL1        0.0479
     34 H         142.0633   76.8157  221.5938 H       1  UNL1        0.0479
     35 H         139.1334   79.8971  223.3903 H       1  UNL1        0.0636
     36 H         140.2696   81.8628  224.3091 H       1  UNL1        0.0618
     37 H         142.7353   82.0684  224.1992 H       1  UNL1        0.0618
     38 H         144.0313   80.2293  223.1390 H       1  UNL1        0.0618
     39 H         142.8856   78.2385  222.2077 H       1  UNL1        0.0636
     40 H         138.3582   78.4956  222.6050 H       1  UNL1        0.0479
     41 H         138.7010   78.1026  220.8714 H       1  UNL1        0.0479
     42 H         138.0752   76.2331  223.1670 H       1  UNL1        0.0480
     43 H         137.2619   76.4115  221.5544 H       1  UNL1        0.0480
     44 H         138.8182   69.3495  222.7565 H       1  UNL1        0.0468
     45 H         140.4287   69.1116  223.4783 H       1  UNL1        0.0468
     46 H         137.7867   69.6920  224.9042 H       1  UNL1        0.0328
     47 H         138.8249   68.2369  225.0604 H       1  UNL1        0.0328
     48 H         138.7371   68.6512  227.4726 H       1  UNL1        0.0620
     49 H         139.9406   69.6693  229.3537 H       1  UNL1        0.0618
     50 H         141.4884   71.5886  229.0159 H       1  UNL1        0.0618
     51 H         141.7981   72.4767  226.6855 H       1  UNL1        0.0621
     52 H         140.5626   72.7306  224.4769 H       1  UNL1        0.0514
     53 H         141.6937   71.4133  224.0905 H       1  UNL1        0.0514
@<TRIPOS>BOND
     1     1     2    1
     2     2     3   ar
     3     3     4   ar
     4     4     5    1
     5     5     6    1
     6     6     7    1
     7     7     8    1
     8     8     9    1
     9     9    10   ar
    10    10    11   ar
    11    11    12   ar
    12    12    13   ar
    13    13    14   ar
    14     8    15    1
    15    15    16    1
    16     4    17   ar
    17    17    18   ar
    18    18    19    1
    19    19    20    1
    20    20    21    1
    21    21    22    1
    22    22    23   ar
    23    23    24   ar
    24    24    25   ar
    25    25    26   ar
    26    26    27   ar
    27    27    28    1
    28    18    29   ar
    29    29     2   ar
    30    16     5    1
    31    28    19    1
    32    14     9   ar
    33    27    22   ar
    34     1    30    1
    35     6    31    1
    36     6    32    1
    37     7    33    1
    38     7    34    1
    39    10    35    1
    40    11    36    1
    41    12    37    1
    42    13    38    1
    43    14    39    1
    44    15    40    1
    45    15    41    1
    46    16    42    1
    47    16    43    1
    48    20    44    1
    49    20    45    1
    50    21    46    1
    51    21    47    1
    52    23    48    1
    53    24    49    1
    54    25    50    1
    55    26    51    1
    56    28    52    1
    57    28    53    1
