
     RDKit          3D

 49 52  0  0  0  0  0  0  0  0999 V2000
  142.8730   76.4340  219.8340 O   0  0  0  0  0  0  0  0  0  0  0  0
  141.9710   75.9010  220.5180 C   0  0  0  0  0  0  0  0  0  0  0  0
  142.0740   74.5460  220.7280 C   0  0  0  0  0  0  0  0  0  0  0  0
  143.1190   73.8200  220.2000 C   0  0  0  0  0  0  0  0  0  0  0  0
  143.1620   72.4830  220.4420 C   0  0  0  0  0  0  0  0  0  0  0  0
  142.1730   71.8960  221.1980 C   0  0  0  0  0  0  0  0  0  0  0  0
  141.1120   72.6130  221.7390 C   0  0  0  0  0  0  0  0  0  0  0  0
  141.0950   73.9600  221.4770 C   0  0  0  0  0  0  0  0  0  0  0  0
  140.1190   74.6970  221.9560 N   0  0  0  0  0  0  0  0  0  0  0  0
  139.9780   76.0530  221.7710 C   0  0  0  0  0  0  0  0  0  0  0  0
  138.8470   76.6350  222.4140 C   0  0  0  0  0  0  0  0  0  0  0  0
  137.9680   77.5070  222.0360 C   0  0  0  0  0  0  0  0  0  0  0  0
  138.0980   78.9630  222.2520 C   0  0  0  0  0  0  0  0  0  0  0  0
  138.0340   79.8830  221.2400 C   0  0  0  0  0  0  0  0  0  0  0  0
  138.1670   81.2450  221.5240 C   0  0  0  0  0  0  0  0  0  0  0  0
  138.3640   81.7050  222.8110 C   0  0  0  0  0  0  0  0  0  0  0  0
  138.4230   80.7700  223.7940 N   0  0  0  0  0  0  0  0  0  0  0  0
  138.2960   79.4580  223.5310 C   0  0  0  0  0  0  0  0  0  0  0  0
  140.9260   76.6330  221.0410 N   0  0  0  0  0  0  0  0  0  0  0  0
  140.9810   78.0400  220.7430 C   0  0  0  0  0  0  0  0  0  0  0  0
  141.7220   78.8950  221.7110 C   0  0  0  0  0  0  0  0  0  0  0  0
  141.4920   80.3620  221.3750 C   0  0  0  0  0  0  0  0  0  0  0  0
  141.9270   81.2650  222.4860 C   0  0  0  0  0  0  0  0  0  0  0  0
  142.8590   80.5740  223.4580 C   0  0  0  0  0  0  0  0  0  0  0  0
  142.1960   79.3860  224.1150 C   0  0  0  0  0  0  0  0  0  0  0  0
  141.3410   78.5970  223.1360 C   0  0  0  0  0  0  0  0  0  0  0  0
  143.8986   74.3096  219.5980 H   0  0  0  0  0  0  0  0  0  0  0  0
  143.9828   71.8736  220.0358 H   0  0  0  0  0  0  0  0  0  0  0  0
  142.2243   70.8127  221.3821 H   0  0  0  0  0  0  0  0  0  0  0  0
  140.3306   72.1283  222.3427 H   0  0  0  0  0  0  0  0  0  0  0  0
  138.6890   76.2691  223.4392 H   0  0  0  0  0  0  0  0  0  0  0  0
  137.0673   77.1409  221.5214 H   0  0  0  0  0  0  0  0  0  0  0  0
  137.8779   79.5501  220.2033 H   0  0  0  0  0  0  0  0  0  0  0  0
  138.1133   81.9708  220.6992 H   0  0  0  0  0  0  0  0  0  0  0  0
  138.4682   82.7780  223.0296 H   0  0  0  0  0  0  0  0  0  0  0  0
  138.3517   78.7461  224.3677 H   0  0  0  0  0  0  0  0  0  0  0  0
  141.4608   78.1550  219.7599 H   0  0  0  0  0  0  0  0  0  0  0  0
  139.9383   78.3879  220.7856 H   0  0  0  0  0  0  0  0  0  0  0  0
  142.7944   78.6675  221.6205 H   0  0  0  0  0  0  0  0  0  0  0  0
  142.0630   80.6128  220.4689 H   0  0  0  0  0  0  0  0  0  0  0  0
  140.4133   80.5103  221.2184 H   0  0  0  0  0  0  0  0  0  0  0  0
  142.4471   82.1324  222.0534 H   0  0  0  0  0  0  0  0  0  0  0  0
  141.0284   81.5708  223.0418 H   0  0  0  0  0  0  0  0  0  0  0  0
  143.7507   80.2294  222.9139 H   0  0  0  0  0  0  0  0  0  0  0  0
  143.1320   81.2938  224.2437 H   0  0  0  0  0  0  0  0  0  0  0  0
  142.9752   78.7235  224.5199 H   0  0  0  0  0  0  0  0  0  0  0  0
  141.5391   79.7621  224.9131 H   0  0  0  0  0  0  0  0  0  0  0  0
  141.4785   77.5223  223.3261 H   0  0  0  0  0  0  0  0  0  0  0  0
  140.2901   78.8876  223.2816 H   0  0  0  0  0  0  0  0  0  0  0  0
  1  2  2  0
  2  3  1  0
  3  4  2  0
  4  5  1  0
  5  6  2  0
  6  7  1  0
  7  8  2  0
  8  9  1  0
  9 10  2  0
 10 11  1  0
 11 12  2  0
 12 13  1  0
 13 14  2  0
 14 15  1  0
 15 16  2  0
 16 17  1  0
 17 18  2  0
 10 19  1  0
 19 20  1  0
 20 21  1  0
 21 22  1  0
 22 23  1  0
 23 24  1  0
 24 25  1  0
 25 26  1  0
 19  2  1  0
 26 21  1  0
  8  3  1  0
 18 13  1  0
  4 27  1  0
  5 28  1  0
  6 29  1  0
  7 30  1  0
 11 31  1  0
 12 32  1  0
 14 33  1  0
 15 34  1  0
 16 35  1  0
 18 36  1  0
 20 37  1  0
 20 38  1  0
 21 39  1  0
 22 40  1  0
 22 41  1  0
 23 42  1  0
 23 43  1  0
 24 44  1  0
 24 45  1  0
 25 46  1  0
 25 47  1  0
 26 48  1  0
 26 49  1  0
M  END
>  <smiles>  (1) 
O=c1c2ccccc2nc(/C=C/c2cccnc2)n1CC1CCCCC1

>  <score_type>  (1) 
oracle

>  <origin>  (1) 
autodockgpu

>  <m_score__min__energy>  (1) 
-7.3099999999999996

>  <m_primary>  (1) 
energy

>  <rmsd>  (1) 
4.450052670848786

>  <m_score__min__rmsd>  (1) 
4.450052670848786

>  <meeko>  (1) 
{"free_energy": -6.44, "intermolecular_energy": -7.94, "internal_energy": -1.94, "cluster_size": 16, "cluster_id": 5, "rank_in_cluster": 13}

>  <energy>  (1) 
-7.31

>  <cluster_rmsd>  (1) 
0.0

>  <cluster>  (1) 
1

$$$$

     RDKit          3D

 49 52  0  0  0  0  0  0  0  0999 V2000
  139.0810   67.7280  225.4360 O   0  0  0  0  0  0  0  0  0  0  0  0
  139.3380   68.9330  225.2140 C   0  0  0  0  0  0  0  0  0  0  0  0
  139.9890   69.6200  226.2110 C   0  0  0  0  0  0  0  0  0  0  0  0
  140.3280   69.0040  227.3960 C   0  0  0  0  0  0  0  0  0  0  0  0
  140.9690   69.7390  228.3440 C   0  0  0  0  0  0  0  0  0  0  0  0
  141.2570   71.0630  228.0990 C   0  0  0  0  0  0  0  0  0  0  0  0
  140.9220   71.6990  226.9090 C   0  0  0  0  0  0  0  0  0  0  0  0
  140.2760   70.9330  225.9720 C   0  0  0  0  0  0  0  0  0  0  0  0
  139.9290   71.4720  224.8260 N   0  0  0  0  0  0  0  0  0  0  0  0
  139.2790   70.8230  223.8030 C   0  0  0  0  0  0  0  0  0  0  0  0
  139.0340   71.6160  222.6450 C   0  0  0  0  0  0  0  0  0  0  0  0
  139.5060   72.7490  222.2350 C   0  0  0  0  0  0  0  0  0  0  0  0
  140.8400   72.9200  221.6230 C   0  0  0  0  0  0  0  0  0  0  0  0
  141.7090   71.8840  221.4110 C   0  0  0  0  0  0  0  0  0  0  0  0
  142.9560   72.1260  220.8280 C   0  0  0  0  0  0  0  0  0  0  0  0
  143.3520   73.3940  220.4520 C   0  0  0  0  0  0  0  0  0  0  0  0
  142.4690   74.4030  220.6760 N   0  0  0  0  0  0  0  0  0  0  0  0
  141.2670   74.1790  221.2350 C   0  0  0  0  0  0  0  0  0  0  0  0
  138.9930   69.5440  224.0260 N   0  0  0  0  0  0  0  0  0  0  0  0
  138.3350   68.6770  223.0840 C   0  0  0  0  0  0  0  0  0  0  0  0
  139.1990   68.0510  222.0440 C   0  0  0  0  0  0  0  0  0  0  0  0
  138.8930   66.5630  221.9560 C   0  0  0  0  0  0  0  0  0  0  0  0
  139.4750   65.9440  220.7240 C   0  0  0  0  0  0  0  0  0  0  0  0
  140.5560   66.8020  220.1050 C   0  0  0  0  0  0  0  0  0  0  0  0
  140.0240   68.1530  219.6880 C   0  0  0  0  0  0  0  0  0  0  0  0
  139.0450   68.7190  220.7040 C   0  0  0  0  0  0  0  0  0  0  0  0
  140.0865   67.9452  227.5708 H   0  0  0  0  0  0  0  0  0  0  0  0
  141.2557   69.2784  229.3009 H   0  0  0  0  0  0  0  0  0  0  0  0
  141.7742   71.6422  228.8781 H   0  0  0  0  0  0  0  0  0  0  0  0
  141.1615   72.7574  226.7288 H   0  0  0  0  0  0  0  0  0  0  0  0
  138.2936   71.1760  221.9608 H   0  0  0  0  0  0  0  0  0  0  0  0
  138.8737   73.6418  222.3494 H   0  0  0  0  0  0  0  0  0  0  0  0
  141.4260   70.8609  221.6995 H   0  0  0  0  0  0  0  0  0  0  0  0
  143.6418   71.2817  220.6640 H   0  0  0  0  0  0  0  0  0  0  0  0
  144.3346   73.5789  219.9933 H   0  0  0  0  0  0  0  0  0  0  0  0
  140.5926   75.0339  221.3912 H   0  0  0  0  0  0  0  0  0  0  0  0
  137.8559   67.8667  223.6531 H   0  0  0  0  0  0  0  0  0  0  0  0
  137.6352   69.3222  222.5327 H   0  0  0  0  0  0  0  0  0  0  0  0
  140.2493   68.1865  222.3414 H   0  0  0  0  0  0  0  0  0  0  0  0
  139.3145   66.0607  222.8392 H   0  0  0  0  0  0  0  0  0  0  0  0
  137.8005   66.4422  221.9139 H   0  0  0  0  0  0  0  0  0  0  0  0
  139.9070   64.9677  220.9891 H   0  0  0  0  0  0  0  0  0  0  0  0
  138.6658   65.8389  219.9863 H   0  0  0  0  0  0  0  0  0  0  0  0
  141.3612   66.9470  220.8402 H   0  0  0  0  0  0  0  0  0  0  0  0
  140.9309   66.2882  219.2075 H   0  0  0  0  0  0  0  0  0  0  0  0
  140.8685   68.8499  219.5825 H   0  0  0  0  0  0  0  0  0  0  0  0
  139.4893   68.0277  218.7349 H   0  0  0  0  0  0  0  0  0  0  0  0
  139.2304   69.7973  220.8179 H   0  0  0  0  0  0  0  0  0  0  0  0
  138.0231   68.5357  220.3404 H   0  0  0  0  0  0  0  0  0  0  0  0
  1  2  2  0
  2  3  1  0
  3  4  2  0
  4  5  1  0
  5  6  2  0
  6  7  1  0
  7  8  2  0
  8  9  1  0
  9 10  2  0
 10 11  1  0
 11 12  2  0
 12 13  1  0
 13 14  2  0
 14 15  1  0
 15 16  2  0
 16 17  1  0
 17 18  2  0
 10 19  1  0
 19 20  1  0
 20 21  1  0
 21 22  1  0
 22 23  1  0
 23 24  1  0
 24 25  1  0
 25 26  1  0
 19  2  1  0
 26 21  1  0
  8  3  1  0
 18 13  1  0
  4 27  1  0
  5 28  1  0
  6 29  1  0
  7 30  1  0
 11 31  1  0
 12 32  1  0
 14 33  1  0
 15 34  1  0
 16 35  1  0
 18 36  1  0
 20 37  1  0
 20 38  1  0
 21 39  1  0
 22 40  1  0
 22 41  1  0
 23 42  1  0
 23 43  1  0
 24 44  1  0
 24 45  1  0
 25 46  1  0
 25 47  1  0
 26 48  1  0
 26 49  1  0
M  END
>  <smiles>  (2) 
O=c1c2ccccc2nc(/C=C/c2cccnc2)n1CC1CCCCC1

>  <score_type>  (2) 
oracle

>  <origin>  (2) 
autodockgpu

>  <m_score__min__energy>  (2) 
-7.3099999999999996

>  <m_primary>  (2) 
energy

>  <rmsd>  (2) 
12.859166592077182

>  <m_score__min__rmsd>  (2) 
12.859166592077182

>  <meeko>  (2) 
{"free_energy": -7.05, "intermolecular_energy": -8.54, "internal_energy": -1.44, "cluster_size": 9, "cluster_id": 1, "rank_in_cluster": 8}

>  <energy>  (2) 
-7.28

>  <cluster_rmsd>  (2) 
0.12

>  <cluster>  (2) 
1

$$$$

     RDKit          3D

 49 52  0  0  0  0  0  0  0  0999 V2000
  143.2470   77.2230  219.1210 O   0  0  0  0  0  0  0  0  0  0  0  0
  142.5100   76.6170  219.9310 C   0  0  0  0  0  0  0  0  0  0  0  0
  142.7500   75.2740  220.0990 C   0  0  0  0  0  0  0  0  0  0  0  0
  143.7490   74.6350  219.3980 C   0  0  0  0  0  0  0  0  0  0  0  0
  143.9340   73.3040  219.6070 C   0  0  0  0  0  0  0  0  0  0  0  0
  143.1270   72.6380  220.5020 C   0  0  0  0  0  0  0  0  0  0  0  0
  142.1140   73.2670  221.2170 C   0  0  0  0  0  0  0  0  0  0  0  0
  141.9520   74.6090  220.9850 C   0  0  0  0  0  0  0  0  0  0  0  0
  141.0110   75.2650  221.6250 N   0  0  0  0  0  0  0  0  0  0  0  0
  140.7380   76.6060  221.4890 C   0  0  0  0  0  0  0  0  0  0  0  0
  139.6840   77.0950  222.3140 C   0  0  0  0  0  0  0  0  0  0  0  0
  138.6060   77.7660  222.0640 C   0  0  0  0  0  0  0  0  0  0  0  0
  138.3110   79.1000  222.6260 C   0  0  0  0  0  0  0  0  0  0  0  0
  138.8070   79.5390  223.8240 C   0  0  0  0  0  0  0  0  0  0  0  0
  138.4800   80.8160  224.2910 C   0  0  0  0  0  0  0  0  0  0  0  0
  137.6600   81.6660  223.5750 C   0  0  0  0  0  0  0  0  0  0  0  0
  137.1820   81.2030  222.3900 N   0  0  0  0  0  0  0  0  0  0  0  0
  137.4920   79.9770  221.9330 C   0  0  0  0  0  0  0  0  0  0  0  0
  141.5090   77.2630  220.6270 N   0  0  0  0  0  0  0  0  0  0  0  0
  141.4070   78.6710  220.3470 C   0  0  0  0  0  0  0  0  0  0  0  0
  141.4310   79.5840  221.5240 C   0  0  0  0  0  0  0  0  0  0  0  0
  142.5760   79.1930  222.4480 C   0  0  0  0  0  0  0  0  0  0  0  0
  142.8610   80.2540  223.4640 C   0  0  0  0  0  0  0  0  0  0  0  0
  141.7140   81.2290  223.6160 C   0  0  0  0  0  0  0  0  0  0  0  0
  141.4240   81.9520  222.3220 C   0  0  0  0  0  0  0  0  0  0  0  0
  141.5280   81.0300  221.1180 C   0  0  0  0  0  0  0  0  0  0  0  0
  144.3811   75.1874  218.6871 H   0  0  0  0  0  0  0  0  0  0  0  0
  144.7233   72.7630  219.0645 H   0  0  0  0  0  0  0  0  0  0  0  0
  143.2909   71.5615  220.6581 H   0  0  0  0  0  0  0  0  0  0  0  0
  141.4785   72.7193  221.9284 H   0  0  0  0  0  0  0  0  0  0  0  0
  139.8128   76.8531  223.3793 H   0  0  0  0  0  0  0  0  0  0  0  0
  137.8625   77.3146  221.3906 H   0  0  0  0  0  0  0  0  0  0  0  0
  139.4630   78.8871  224.4195 H   0  0  0  0  0  0  0  0  0  0  0  0
  138.8873   81.1529  225.2557 H   0  0  0  0  0  0  0  0  0  0  0  0
  137.4059   82.6698  223.9461 H   0  0  0  0  0  0  0  0  0  0  0  0
  137.0771   79.6560  220.9662 H   0  0  0  0  0  0  0  0  0  0  0  0
  142.2492   78.9443  219.6943 H   0  0  0  0  0  0  0  0  0  0  0  0
  140.4149   78.8072  219.8918 H   0  0  0  0  0  0  0  0  0  0  0  0
  140.4783   79.4756  222.0630 H   0  0  0  0  0  0  0  0  0  0  0  0
  142.3092   78.2627  222.9708 H   0  0  0  0  0  0  0  0  0  0  0  0
  143.4786   79.0582  221.8338 H   0  0  0  0  0  0  0  0  0  0  0  0
  143.0465   79.7724  224.4354 H   0  0  0  0  0  0  0  0  0  0  0  0
  143.7395   80.8201  223.1209 H   0  0  0  0  0  0  0  0  0  0  0  0
  140.8146   80.6766  223.9257 H   0  0  0  0  0  0  0  0  0  0  0  0
  141.9956   81.9765  224.3722 H   0  0  0  0  0  0  0  0  0  0  0  0
  140.4052   82.3644  222.3664 H   0  0  0  0  0  0  0  0  0  0  0  0
  142.1719   82.7500  222.2041 H   0  0  0  0  0  0  0  0  0  0  0  0
  140.7110   81.2610  220.4186 H   0  0  0  0  0  0  0  0  0  0  0  0
  142.5065   81.1911  220.6419 H   0  0  0  0  0  0  0  0  0  0  0  0
  1  2  2  0
  2  3  1  0
  3  4  2  0
  4  5  1  0
  5  6  2  0
  6  7  1  0
  7  8  2  0
  8  9  1  0
  9 10  2  0
 10 11  1  0
 11 12  2  0
 12 13  1  0
 13 14  2  0
 14 15  1  0
 15 16  2  0
 16 17  1  0
 17 18  2  0
 10 19  1  0
 19 20  1  0
 20 21  1  0
 21 22  1  0
 22 23  1  0
 23 24  1  0
 24 25  1  0
 25 26  1  0
 19  2  1  0
 26 21  1  0
  8  3  1  0
 18 13  1  0
  4 27  1  0
  5 28  1  0
  6 29  1  0
  7 30  1  0
 11 31  1  0
 12 32  1  0
 14 33  1  0
 15 34  1  0
 16 35  1  0
 18 36  1  0
 20 37  1  0
 20 38  1  0
 21 39  1  0
 22 40  1  0
 22 41  1  0
 23 42  1  0
 23 43  1  0
 24 44  1  0
 24 45  1  0
 25 46  1  0
 25 47  1  0
 26 48  1  0
 26 49  1  0
M  END
>  <smiles>  (3) 
O=c1c2ccccc2nc(/C=C/c2cccnc2)n1CC1CCCCC1

>  <score_type>  (3) 
oracle

>  <origin>  (3) 
autodockgpu

>  <m_score__min__energy>  (3) 
-7.3099999999999996

>  <m_primary>  (3) 
energy

>  <rmsd>  (3) 
3.9891834101368864

>  <m_score__min__rmsd>  (3) 
3.9891834101368864

>  <meeko>  (3) 
{"free_energy": -6.45, "intermolecular_energy": -7.95, "internal_energy": -1.85, "cluster_size": 16, "cluster_id": 5, "rank_in_cluster": 10}

>  <energy>  (3) 
-7.27

>  <cluster_rmsd>  (3) 
0.12

>  <cluster>  (3) 
1

$$$$

     RDKit          3D

 49 52  0  0  0  0  0  0  0  0999 V2000
  140.6030   71.8570  225.2870 O   0  0  0  0  0  0  0  0  0  0  0  0
  139.9510   70.7880  225.2780 C   0  0  0  0  0  0  0  0  0  0  0  0
  140.1700   69.9210  226.3230 C   0  0  0  0  0  0  0  0  0  0  0  0
  141.0710   70.2210  227.3200 C   0  0  0  0  0  0  0  0  0  0  0  0
  141.2450   69.3210  228.3250 C   0  0  0  0  0  0  0  0  0  0  0  0
  140.5250   68.1480  228.3180 C   0  0  0  0  0  0  0  0  0  0  0  0
  139.6120   67.8290  227.3200 C   0  0  0  0  0  0  0  0  0  0  0  0
  139.4590   68.7560  226.3200 C   0  0  0  0  0  0  0  0  0  0  0  0
  138.6140   68.5180  225.3430 N   0  0  0  0  0  0  0  0  0  0  0  0
  138.3630   69.3550  224.2820 C   0  0  0  0  0  0  0  0  0  0  0  0
  137.3810   68.8870  223.3620 C   0  0  0  0  0  0  0  0  0  0  0  0
  136.0860   68.8900  223.3750 C   0  0  0  0  0  0  0  0  0  0  0  0
  135.2690   69.4530  224.4710 C   0  0  0  0  0  0  0  0  0  0  0  0
  135.1140   70.7970  224.6810 C   0  0  0  0  0  0  0  0  0  0  0  0
  134.3250   71.2520  225.7410 C   0  0  0  0  0  0  0  0  0  0  0  0
  133.6850   70.3800  226.6000 C   0  0  0  0  0  0  0  0  0  0  0  0
  133.8590   69.0530  226.3680 N   0  0  0  0  0  0  0  0  0  0  0  0
  134.6150   68.6060  225.3510 C   0  0  0  0  0  0  0  0  0  0  0  0
  139.0520   70.4920  224.2740 N   0  0  0  0  0  0  0  0  0  0  0  0
  138.9300   71.5160  223.2690 C   0  0  0  0  0  0  0  0  0  0  0  0
  140.1470   71.7970  222.4570 C   0  0  0  0  0  0  0  0  0  0  0  0
  140.2440   70.7880  221.3220 C   0  0  0  0  0  0  0  0  0  0  0  0
  141.2420   71.2060  220.2870 C   0  0  0  0  0  0  0  0  0  0  0  0
  142.1980   72.2590  220.8020 C   0  0  0  0  0  0  0  0  0  0  0  0
  141.4700   73.5160  221.2180 C   0  0  0  0  0  0  0  0  0  0  0  0
  140.1660   73.2080  221.9350 C   0  0  0  0  0  0  0  0  0  0  0  0
  141.6359   71.1647  227.3042 H   0  0  0  0  0  0  0  0  0  0  0  0
  141.9563   69.5292  229.1378 H   0  0  0  0  0  0  0  0  0  0  0  0
  140.6790   67.4316  229.1384 H   0  0  0  0  0  0  0  0  0  0  0  0
  139.0443   66.8869  227.3311 H   0  0  0  0  0  0  0  0  0  0  0  0
  137.8095   68.4307  222.4575 H   0  0  0  0  0  0  0  0  0  0  0  0
  135.5609   68.4457  222.5166 H   0  0  0  0  0  0  0  0  0  0  0  0
  135.6104   71.5186  224.0155 H   0  0  0  0  0  0  0  0  0  0  0  0
  134.2104   72.3350  225.8956 H   0  0  0  0  0  0  0  0  0  0  0  0
  133.0640   70.7429  227.4323 H   0  0  0  0  0  0  0  0  0  0  0  0
  134.7192   67.5199  225.2110 H   0  0  0  0  0  0  0  0  0  0  0  0
  138.1296   71.2128  222.5780 H   0  0  0  0  0  0  0  0  0  0  0  0
  138.7275   72.4450  223.8222 H   0  0  0  0  0  0  0  0  0  0  0  0
  141.0275   71.6946  223.1083 H   0  0  0  0  0  0  0  0  0  0  0  0
  140.5474   69.8151  221.7361 H   0  0  0  0  0  0  0  0  0  0  0  0
  139.2582   70.7232  220.8384 H   0  0  0  0  0  0  0  0  0  0  0  0
  141.8213   70.3235  219.9777 H   0  0  0  0  0  0  0  0  0  0  0  0
  140.6878   71.6399  219.4417 H   0  0  0  0  0  0  0  0  0  0  0  0
  142.7389   71.8557  221.6708 H   0  0  0  0  0  0  0  0  0  0  0  0
  142.8945   72.5175  219.9907 H   0  0  0  0  0  0  0  0  0  0  0  0
  142.1180   74.0949  221.8925 H   0  0  0  0  0  0  0  0  0  0  0  0
  141.2310   74.0869  220.3086 H   0  0  0  0  0  0  0  0  0  0  0  0
  140.0486   73.9036  222.7791 H   0  0  0  0  0  0  0  0  0  0  0  0
  139.3405   73.3229  221.2171 H   0  0  0  0  0  0  0  0  0  0  0  0
  1  2  2  0
  2  3  1  0
  3  4  2  0
  4  5  1  0
  5  6  2  0
  6  7  1  0
  7  8  2  0
  8  9  1  0
  9 10  2  0
 10 11  1  0
 11 12  2  0
 12 13  1  0
 13 14  2  0
 14 15  1  0
 15 16  2  0
 16 17  1  0
 17 18  2  0
 10 19  1  0
 19 20  1  0
 20 21  1  0
 21 22  1  0
 22 23  1  0
 23 24  1  0
 24 25  1  0
 25 26  1  0
 19  2  1  0
 26 21  1  0
  8  3  1  0
 18 13  1  0
  4 27  1  0
  5 28  1  0
  6 29  1  0
  7 30  1  0
 11 31  1  0
 12 32  1  0
 14 33  1  0
 15 34  1  0
 16 35  1  0
 18 36  1  0
 20 37  1  0
 20 38  1  0
 21 39  1  0
 22 40  1  0
 22 41  1  0
 23 42  1  0
 23 43  1  0
 24 44  1  0
 24 45  1  0
 25 46  1  0
 25 47  1  0
 26 48  1  0
 26 49  1  0
M  END
>  <smiles>  (4) 
O=c1c2ccccc2nc(/C=C/c2cccnc2)n1CC1CCCCC1

>  <score_type>  (4) 
oracle

>  <origin>  (4) 
autodockgpu

>  <m_score__min__energy>  (4) 
-7.3099999999999996

>  <m_primary>  (4) 
energy

>  <rmsd>  (4) 
10.331834590705578

>  <m_score__min__rmsd>  (4) 
10.331834590705578

>  <meeko>  (4) 
{"free_energy": -7.24, "intermolecular_energy": -8.73, "internal_energy": -1.38, "cluster_size": 17, "cluster_id": 2, "rank_in_cluster": 1}

>  <energy>  (4) 
-7.26

>  <cluster_rmsd>  (4) 
0.28

>  <cluster>  (4) 
1

$$$$

     RDKit          3D

 49 52  0  0  0  0  0  0  0  0999 V2000
  142.8890   76.4180  219.8660 O   0  0  0  0  0  0  0  0  0  0  0  0
  141.9840   75.8770  220.5410 C   0  0  0  0  0  0  0  0  0  0  0  0
  142.0910   74.5210  220.7440 C   0  0  0  0  0  0  0  0  0  0  0  0
  143.1420   73.8030  220.2180 C   0  0  0  0  0  0  0  0  0  0  0  0
  143.1900   72.4640  220.4520 C   0  0  0  0  0  0  0  0  0  0  0  0
  142.1980   71.8690  221.1980 C   0  0  0  0  0  0  0  0  0  0  0  0
  141.1300   72.5780  221.7360 C   0  0  0  0  0  0  0  0  0  0  0  0
  141.1090   73.9260  221.4830 C   0  0  0  0  0  0  0  0  0  0  0  0
  140.1280   74.6570  221.9600 N   0  0  0  0  0  0  0  0  0  0  0  0
  139.9820   76.0130  221.7820 C   0  0  0  0  0  0  0  0  0  0  0  0
  138.8450   76.5870  222.4220 C   0  0  0  0  0  0  0  0  0  0  0  0
  137.9680   77.4620  222.0450 C   0  0  0  0  0  0  0  0  0  0  0  0
  138.1060   78.9180  222.2540 C   0  0  0  0  0  0  0  0  0  0  0  0
  138.0780   79.8310  221.2340 C   0  0  0  0  0  0  0  0  0  0  0  0
  138.2160   81.1940  221.5110 C   0  0  0  0  0  0  0  0  0  0  0  0
  138.3840   81.6620  222.8000 C   0  0  0  0  0  0  0  0  0  0  0  0
  138.4080   80.7330  223.7910 N   0  0  0  0  0  0  0  0  0  0  0  0
  138.2750   79.4210  223.5340 C   0  0  0  0  0  0  0  0  0  0  0  0
  140.9320   76.6020  221.0620 N   0  0  0  0  0  0  0  0  0  0  0  0
  140.9840   78.0110  220.7720 C   0  0  0  0  0  0  0  0  0  0  0  0
  141.7340   78.8600  221.7400 C   0  0  0  0  0  0  0  0  0  0  0  0
  141.5370   80.3270  221.3880 C   0  0  0  0  0  0  0  0  0  0  0  0
  141.9810   81.2320  222.4950 C   0  0  0  0  0  0  0  0  0  0  0  0
  142.8910   80.5310  223.4800 C   0  0  0  0  0  0  0  0  0  0  0  0
  142.1990   79.3630  224.1420 C   0  0  0  0  0  0  0  0  0  0  0  0
  141.3360   78.5820  223.1640 C   0  0  0  0  0  0  0  0  0  0  0  0
  143.9229   74.2999  219.6236 H   0  0  0  0  0  0  0  0  0  0  0  0
  144.0161   71.8606  220.0477 H   0  0  0  0  0  0  0  0  0  0  0  0
  142.2527   70.7849  221.3763 H   0  0  0  0  0  0  0  0  0  0  0  0
  140.3463   72.0859  222.3308 H   0  0  0  0  0  0  0  0  0  0  0  0
  138.6790   76.2107  223.4422 H   0  0  0  0  0  0  0  0  0  0  0  0
  137.0628   77.0981  221.5369 H   0  0  0  0  0  0  0  0  0  0  0  0
  137.9468   79.4916  220.1959 H   0  0  0  0  0  0  0  0  0  0  0  0
  138.1901   81.9140  220.6798 H   0  0  0  0  0  0  0  0  0  0  0  0
  138.4931   82.7355  223.0137 H   0  0  0  0  0  0  0  0  0  0  0  0
  138.3014   78.7149  224.3770 H   0  0  0  0  0  0  0  0  0  0  0  0
  141.4552   78.1324  219.7855 H   0  0  0  0  0  0  0  0  0  0  0  0
  139.9417   78.3587  220.8252 H   0  0  0  0  0  0  0  0  0  0  0  0
  142.8024   78.6104  221.6620 H   0  0  0  0  0  0  0  0  0  0  0  0
  142.1209   80.5573  220.4847 H   0  0  0  0  0  0  0  0  0  0  0  0
  140.4631   80.4957  221.2202 H   0  0  0  0  0  0  0  0  0  0  0  0
  142.5217   82.0850  222.0591 H   0  0  0  0  0  0  0  0  0  0  0  0
  141.0844   81.5610  223.0407 H   0  0  0  0  0  0  0  0  0  0  0  0
  143.7796   80.1635  222.9459 H   0  0  0  0  0  0  0  0  0  0  0  0
  143.1727   81.2520  224.2615 H   0  0  0  0  0  0  0  0  0  0  0  0
  142.9615   78.6888  224.5593 H   0  0  0  0  0  0  0  0  0  0  0  0
  141.5433   79.7600  224.9310 H   0  0  0  0  0  0  0  0  0  0  0  0
  141.4509   77.5066  223.3646 H   0  0  0  0  0  0  0  0  0  0  0  0
  140.2898   78.8938  223.2990 H   0  0  0  0  0  0  0  0  0  0  0  0
  1  2  2  0
  2  3  1  0
  3  4  2  0
  4  5  1  0
  5  6  2  0
  6  7  1  0
  7  8  2  0
  8  9  1  0
  9 10  2  0
 10 11  1  0
 11 12  2  0
 12 13  1  0
 13 14  2  0
 14 15  1  0
 15 16  2  0
 16 17  1  0
 17 18  2  0
 10 19  1  0
 19 20  1  0
 20 21  1  0
 21 22  1  0
 22 23  1  0
 23 24  1  0
 24 25  1  0
 25 26  1  0
 19  2  1  0
 26 21  1  0
  8  3  1  0
 18 13  1  0
  4 27  1  0
  5 28  1  0
  6 29  1  0
  7 30  1  0
 11 31  1  0
 12 32  1  0
 14 33  1  0
 15 34  1  0
 16 35  1  0
 18 36  1  0
 20 37  1  0
 20 38  1  0
 21 39  1  0
 22 40  1  0
 22 41  1  0
 23 42  1  0
 23 43  1  0
 24 44  1  0
 24 45  1  0
 25 46  1  0
 25 47  1  0
 26 48  1  0
 26 49  1  0
M  END
>  <smiles>  (5) 
O=c1c2ccccc2nc(/C=C/c2cccnc2)n1CC1CCCCC1

>  <score_type>  (5) 
oracle

>  <origin>  (5) 
autodockgpu

>  <m_score__min__energy>  (5) 
-7.3099999999999996

>  <m_primary>  (5) 
energy

>  <rmsd>  (5) 
4.482735022756132

>  <m_score__min__rmsd>  (5) 
4.482735022756132

>  <meeko>  (5) 
{"free_energy": -6.44, "intermolecular_energy": -7.93, "internal_energy": -1.95, "cluster_size": 16, "cluster_id": 5, "rank_in_cluster": 15}

>  <energy>  (5) 
-7.23

>  <cluster_rmsd>  (5) 
0.36

>  <cluster>  (5) 
1

$$$$

     RDKit          3D

 49 52  0  0  0  0  0  0  0  0999 V2000
  140.5930   71.8490  225.3120 O   0  0  0  0  0  0  0  0  0  0  0  0
  139.9480   70.7760  225.3020 C   0  0  0  0  0  0  0  0  0  0  0  0
  140.1700   69.9120  226.3480 C   0  0  0  0  0  0  0  0  0  0  0  0
  141.0660   70.2190  227.3480 C   0  0  0  0  0  0  0  0  0  0  0  0
  141.2420   69.3220  228.3550 C   0  0  0  0  0  0  0  0  0  0  0  0
  140.5300   68.1440  228.3480 C   0  0  0  0  0  0  0  0  0  0  0  0
  139.6220   67.8180  227.3470 C   0  0  0  0  0  0  0  0  0  0  0  0
  139.4660   68.7420  226.3450 C   0  0  0  0  0  0  0  0  0  0  0  0
  138.6250   68.4970  225.3660 N   0  0  0  0  0  0  0  0  0  0  0  0
  138.3730   69.3310  224.3030 C   0  0  0  0  0  0  0  0  0  0  0  0
  137.3960   68.8550  223.3810 C   0  0  0  0  0  0  0  0  0  0  0  0
  136.1050   68.9400  223.3410 C   0  0  0  0  0  0  0  0  0  0  0  0
  135.2750   69.4960  224.4300 C   0  0  0  0  0  0  0  0  0  0  0  0
  135.0970   70.8380  224.6310 C   0  0  0  0  0  0  0  0  0  0  0  0
  134.2970   71.2870  225.6860 C   0  0  0  0  0  0  0  0  0  0  0  0
  133.6700   70.4110  226.5490 C   0  0  0  0  0  0  0  0  0  0  0  0
  133.8650   69.0850  226.3250 N   0  0  0  0  0  0  0  0  0  0  0  0
  134.6320   68.6440  225.3130 C   0  0  0  0  0  0  0  0  0  0  0  0
  139.0540   70.4730  224.2960 N   0  0  0  0  0  0  0  0  0  0  0  0
  138.9280   71.4940  223.2890 C   0  0  0  0  0  0  0  0  0  0  0  0
  140.1360   71.7590  222.4580 C   0  0  0  0  0  0  0  0  0  0  0  0
  140.1970   70.7570  221.3150 C   0  0  0  0  0  0  0  0  0  0  0  0
  141.1840   71.1640  220.2660 C   0  0  0  0  0  0  0  0  0  0  0  0
  142.1680   72.1960  220.7720 C   0  0  0  0  0  0  0  0  0  0  0  0
  141.4690   73.4630  221.2080 C   0  0  0  0  0  0  0  0  0  0  0  0
  140.1720   73.1730  221.9460 C   0  0  0  0  0  0  0  0  0  0  0  0
  141.6253   71.1661  227.3326 H   0  0  0  0  0  0  0  0  0  0  0  0
  141.9490   69.5365  229.1700 H   0  0  0  0  0  0  0  0  0  0  0  0
  140.6862   67.4298  229.1699 H   0  0  0  0  0  0  0  0  0  0  0  0
  139.0602   66.8723  227.3578 H   0  0  0  0  0  0  0  0  0  0  0  0
  137.8260   68.3040  222.5316 H   0  0  0  0  0  0  0  0  0  0  0  0
  135.5928   68.5750  222.4385 H   0  0  0  0  0  0  0  0  0  0  0  0
  135.5835   71.5635  223.9624 H   0  0  0  0  0  0  0  0  0  0  0  0
  134.1635   72.3690  225.8325 H   0  0  0  0  0  0  0  0  0  0  0  0
  133.0425   70.7692  227.3784 H   0  0  0  0  0  0  0  0  0  0  0  0
  134.7545   67.5589  225.1802 H   0  0  0  0  0  0  0  0  0  0  0  0
  138.1144   71.1966  222.6111 H   0  0  0  0  0  0  0  0  0  0  0  0
  138.7434   72.4272  223.8413 H   0  0  0  0  0  0  0  0  0  0  0  0
  141.0251   71.6358  223.0938 H   0  0  0  0  0  0  0  0  0  0  0  0
  140.4904   69.7762  221.7175 H   0  0  0  0  0  0  0  0  0  0  0  0
  139.2023   70.7132  220.8475 H   0  0  0  0  0  0  0  0  0  0  0  0
  141.7416   70.2734  219.9406 H   0  0  0  0  0  0  0  0  0  0  0  0
  140.6234   71.6139  219.4333 H   0  0  0  0  0  0  0  0  0  0  0  0
  142.7157   71.7772  221.6291 H   0  0  0  0  0  0  0  0  0  0  0  0
  142.8562   72.4472  219.9515 H   0  0  0  0  0  0  0  0  0  0  0  0
  142.1384   74.0265  221.8745 H   0  0  0  0  0  0  0  0  0  0  0  0
  141.2242   74.0434  220.3062 H   0  0  0  0  0  0  0  0  0  0  0  0
  140.0823   73.8641  222.7970 H   0  0  0  0  0  0  0  0  0  0  0  0
  139.3364   73.3081  221.2435 H   0  0  0  0  0  0  0  0  0  0  0  0
  1  2  2  0
  2  3  1  0
  3  4  2  0
  4  5  1  0
  5  6  2  0
  6  7  1  0
  7  8  2  0
  8  9  1  0
  9 10  2  0
 10 11  1  0
 11 12  2  0
 12 13  1  0
 13 14  2  0
 14 15  1  0
 15 16  2  0
 16 17  1  0
 17 18  2  0
 10 19  1  0
 19 20  1  0
 20 21  1  0
 21 22  1  0
 22 23  1  0
 23 24  1  0
 24 25  1  0
 25 26  1  0
 19  2  1  0
 26 21  1  0
  8  3  1  0
 18 13  1  0
  4 27  1  0
  5 28  1  0
  6 29  1  0
  7 30  1  0
 11 31  1  0
 12 32  1  0
 14 33  1  0
 15 34  1  0
 16 35  1  0
 18 36  1  0
 20 37  1  0
 20 38  1  0
 21 39  1  0
 22 40  1  0
 22 41  1  0
 23 42  1  0
 23 43  1  0
 24 44  1  0
 24 45  1  0
 25 46  1  0
 25 47  1  0
 26 48  1  0
 26 49  1  0
M  END
>  <smiles>  (6) 
O=c1c2ccccc2nc(/C=C/c2cccnc2)n1CC1CCCCC1

>  <score_type>  (6) 
oracle

>  <origin>  (6) 
autodockgpu

>  <m_score__min__energy>  (6) 
-7.3099999999999996

>  <m_primary>  (6) 
energy

>  <rmsd>  (6) 
10.361321578215797

>  <m_score__min__rmsd>  (6) 
10.361321578215797

>  <meeko>  (6) 
{"free_energy": -7.21, "intermolecular_energy": -8.7, "internal_energy": -1.39, "cluster_size": 17, "cluster_id": 2, "rank_in_cluster": 13}

>  <energy>  (6) 
-7.13

>  <cluster_rmsd>  (6) 
0.72

>  <cluster>  (6) 
1

$$$$

     RDKit          3D

 49 52  0  0  0  0  0  0  0  0999 V2000
  139.2290   67.4170  225.4940 O   0  0  0  0  0  0  0  0  0  0  0  0
  139.5200   68.5890  225.1640 C   0  0  0  0  0  0  0  0  0  0  0  0
  140.0410   69.3960  226.1470 C   0  0  0  0  0  0  0  0  0  0  0  0
  140.2210   68.9300  227.4310 C   0  0  0  0  0  0  0  0  0  0  0  0
  140.7390   69.7790  228.3590 C   0  0  0  0  0  0  0  0  0  0  0  0
  141.0640   71.0660  227.9960 C   0  0  0  0  0  0  0  0  0  0  0  0
  140.8890   71.5530  226.7060 C   0  0  0  0  0  0  0  0  0  0  0  0
  140.3640   70.6740  225.7920 C   0  0  0  0  0  0  0  0  0  0  0  0
  140.1700   71.0690  224.5550 N   0  0  0  0  0  0  0  0  0  0  0  0
  139.6540   70.2960  223.5410 C   0  0  0  0  0  0  0  0  0  0  0  0
  139.5640   70.9430  222.2750 C   0  0  0  0  0  0  0  0  0  0  0  0
  140.4460   71.4780  221.4920 C   0  0  0  0  0  0  0  0  0  0  0  0
  140.7130   72.9290  221.4130 C   0  0  0  0  0  0  0  0  0  0  0  0
  141.7930   73.4610  220.7610 C   0  0  0  0  0  0  0  0  0  0  0  0
  141.9780   74.8470  220.7300 C   0  0  0  0  0  0  0  0  0  0  0  0
  141.0960   75.7140  221.3450 C   0  0  0  0  0  0  0  0  0  0  0  0
  140.0340   75.1570  221.9840 N   0  0  0  0  0  0  0  0  0  0  0  0
  139.8480   73.8260  222.0180 C   0  0  0  0  0  0  0  0  0  0  0  0
  139.3340   69.0500  223.8770 N   0  0  0  0  0  0  0  0  0  0  0  0
  138.7980   68.0700  222.9690 C   0  0  0  0  0  0  0  0  0  0  0  0
  137.4280   68.3310  222.4460 C   0  0  0  0  0  0  0  0  0  0  0  0
  136.8350   67.0370  221.9070 C   0  0  0  0  0  0  0  0  0  0  0  0
  135.3610   67.1510  221.6750 C   0  0  0  0  0  0  0  0  0  0  0  0
  134.8980   68.5910  221.6110 C   0  0  0  0  0  0  0  0  0  0  0  0
  135.1810   69.3230  222.9010 C   0  0  0  0  0  0  0  0  0  0  0  0
  136.5330   68.9490  223.4860 C   0  0  0  0  0  0  0  0  0  0  0  0
  139.9526   67.8974  227.6989 H   0  0  0  0  0  0  0  0  0  0  0  0
  140.8971   69.4389  229.3931 H   0  0  0  0  0  0  0  0  0  0  0  0
  141.4805   71.7387  228.7602 H   0  0  0  0  0  0  0  0  0  0  0  0
  141.1562   72.5846  226.4331 H   0  0  0  0  0  0  0  0  0  0  0  0
  138.5377   70.9996  221.8832 H   0  0  0  0  0  0  0  0  0  0  0  0
  141.0334   70.8100  220.8450 H   0  0  0  0  0  0  0  0  0  0  0  0
  142.5152   72.7984  220.2616 H   0  0  0  0  0  0  0  0  0  0  0  0
  142.8504   75.2581  220.2010 H   0  0  0  0  0  0  0  0  0  0  0  0
  141.2461   76.8034  221.3188 H   0  0  0  0  0  0  0  0  0  0  0  0
  138.9697   73.4316  222.5500 H   0  0  0  0  0  0  0  0  0  0  0  0
  139.4784   68.0048  222.1072 H   0  0  0  0  0  0  0  0  0  0  0  0
  138.7152   67.1429  223.5552 H   0  0  0  0  0  0  0  0  0  0  0  0
  137.5048   69.0621  221.6277 H   0  0  0  0  0  0  0  0  0  0  0  0
  137.3266   66.7906  220.9543 H   0  0  0  0  0  0  0  0  0  0  0  0
  137.0016   66.2486  222.6557 H   0  0  0  0  0  0  0  0  0  0  0  0
  135.1136   66.6575  220.7236 H   0  0  0  0  0  0  0  0  0  0  0  0
  134.8494   66.6709  222.5222 H   0  0  0  0  0  0  0  0  0  0  0  0
  135.4240   69.0991  220.7893 H   0  0  0  0  0  0  0  0  0  0  0  0
  133.8108   68.5961  221.4436 H   0  0  0  0  0  0  0  0  0  0  0  0
  135.1664   70.4053  222.7052 H   0  0  0  0  0  0  0  0  0  0  0  0
  134.4067   69.0385  223.6287 H   0  0  0  0  0  0  0  0  0  0  0  0
  137.0155   69.8553  223.8808 H   0  0  0  0  0  0  0  0  0  0  0  0
  136.3724   68.2125  224.2871 H   0  0  0  0  0  0  0  0  0  0  0  0
  1  2  2  0
  2  3  1  0
  3  4  2  0
  4  5  1  0
  5  6  2  0
  6  7  1  0
  7  8  2  0
  8  9  1  0
  9 10  2  0
 10 11  1  0
 11 12  2  0
 12 13  1  0
 13 14  2  0
 14 15  1  0
 15 16  2  0
 16 17  1  0
 17 18  2  0
 10 19  1  0
 19 20  1  0
 20 21  1  0
 21 22  1  0
 22 23  1  0
 23 24  1  0
 24 25  1  0
 25 26  1  0
 19  2  1  0
 26 21  1  0
  8  3  1  0
 18 13  1  0
  4 27  1  0
  5 28  1  0
  6 29  1  0
  7 30  1  0
 11 31  1  0
 12 32  1  0
 14 33  1  0
 15 34  1  0
 16 35  1  0
 18 36  1  0
 20 37  1  0
 20 38  1  0
 21 39  1  0
 22 40  1  0
 22 41  1  0
 23 42  1  0
 23 43  1  0
 24 44  1  0
 24 45  1  0
 25 46  1  0
 25 47  1  0
 26 48  1  0
 26 49  1  0
M  END
>  <smiles>  (7) 
O=c1c2ccccc2nc(/C=C/c2cccnc2)n1CC1CCCCC1

>  <score_type>  (7) 
oracle

>  <origin>  (7) 
autodockgpu

>  <m_score__min__energy>  (7) 
-7.3099999999999996

>  <m_primary>  (7) 
energy

>  <rmsd>  (7) 
12.748050776478072

>  <m_score__min__rmsd>  (7) 
12.748050776478072

>  <meeko>  (7) 
{"free_energy": -7.28, "intermolecular_energy": -8.77, "internal_energy": -1.23, "cluster_size": 9, "cluster_id": 1, "rank_in_cluster": 2}

>  <energy>  (7) 
-7.08

>  <cluster_rmsd>  (7) 
0.71

>  <cluster>  (7) 
1

$$$$

     RDKit          3D

 49 52  0  0  0  0  0  0  0  0999 V2000
  140.4520   71.8770  225.3480 O   0  0  0  0  0  0  0  0  0  0  0  0
  139.8740   70.7670  225.3450 C   0  0  0  0  0  0  0  0  0  0  0  0
  140.1770   69.9090  226.3750 C   0  0  0  0  0  0  0  0  0  0  0  0
  141.0810   70.2610  227.3530 C   0  0  0  0  0  0  0  0  0  0  0  0
  141.3400   69.3670  228.3440 C   0  0  0  0  0  0  0  0  0  0  0  0
  140.7010   68.1470  228.3440 C   0  0  0  0  0  0  0  0  0  0  0  0
  139.7870   67.7760  227.3650 C   0  0  0  0  0  0  0  0  0  0  0  0
  139.5470   68.6980  226.3780 C   0  0  0  0  0  0  0  0  0  0  0  0
  138.6950   68.4110  225.4200 N   0  0  0  0  0  0  0  0  0  0  0  0
  138.3620   69.2380  224.3730 C   0  0  0  0  0  0  0  0  0  0  0  0
  137.3910   68.7110  223.4730 C   0  0  0  0  0  0  0  0  0  0  0  0
  136.1220   68.9180  223.3240 C   0  0  0  0  0  0  0  0  0  0  0  0
  135.2330   69.4280  224.3890 C   0  0  0  0  0  0  0  0  0  0  0  0
  135.1470   70.7520  224.7280 C   0  0  0  0  0  0  0  0  0  0  0  0
  134.2830   71.1570  225.7500 C   0  0  0  0  0  0  0  0  0  0  0  0
  133.4990   70.2540  226.4420 C   0  0  0  0  0  0  0  0  0  0  0  0
  133.6070   68.9480  226.0850 N   0  0  0  0  0  0  0  0  0  0  0  0
  134.4340   68.5500  225.1030 C   0  0  0  0  0  0  0  0  0  0  0  0
  138.9720   70.4190  224.3600 N   0  0  0  0  0  0  0  0  0  0  0  0
  138.7560   71.4400  223.3680 C   0  0  0  0  0  0  0  0  0  0  0  0
  139.9340   71.8200  222.5400 C   0  0  0  0  0  0  0  0  0  0  0  0
  140.1360   70.7890  221.4390 C   0  0  0  0  0  0  0  0  0  0  0  0
  141.0810   71.2750  220.3850 C   0  0  0  0  0  0  0  0  0  0  0  0
  141.9210   72.4410  220.8580 C   0  0  0  0  0  0  0  0  0  0  0  0
  141.0650   73.6260  221.2350 C   0  0  0  0  0  0  0  0  0  0  0  0
  139.8020   73.2070  221.9700 C   0  0  0  0  0  0  0  0  0  0  0  0
  141.5807   71.2407  227.3327 H   0  0  0  0  0  0  0  0  0  0  0  0
  142.0557   69.6166  229.1411 H   0  0  0  0  0  0  0  0  0  0  0  0
  140.9235   67.4360  229.1533 H   0  0  0  0  0  0  0  0  0  0  0  0
  139.2842   66.7978  227.3807 H   0  0  0  0  0  0  0  0  0  0  0  0
  137.8031   67.9807  222.7611 H   0  0  0  0  0  0  0  0  0  0  0  0
  135.6767   68.7004  222.3420 H   0  0  0  0  0  0  0  0  0  0  0  0
  135.7575   71.4967  224.1964 H   0  0  0  0  0  0  0  0  0  0  0  0
  134.2259   72.2242  226.0103 H   0  0  0  0  0  0  0  0  0  0  0  0
  132.8194   70.5775  227.2442 H   0  0  0  0  0  0  0  0  0  0  0  0
  134.4783   67.4792  224.8552 H   0  0  0  0  0  0  0  0  0  0  0  0
  137.9694   71.0834  222.6868 H   0  0  0  0  0  0  0  0  0  0  0  0
  138.4930   72.3457  223.9341 H   0  0  0  0  0  0  0  0  0  0  0  0
  140.8215   71.8334  223.1897 H   0  0  0  0  0  0  0  0  0  0  0  0
  140.5425   69.8688  221.8839 H   0  0  0  0  0  0  0  0  0  0  0  0
  139.1617   70.6031  220.9634 H   0  0  0  0  0  0  0  0  0  0  0  0
  141.7502   70.4490  220.1023 H   0  0  0  0  0  0  0  0  0  0  0  0
  140.4815   71.6185  219.5291 H   0  0  0  0  0  0  0  0  0  0  0  0
  142.5039   72.1278  221.7367 H   0  0  0  0  0  0  0  0  0  0  0  0
  142.5841   72.7438  220.0342 H   0  0  0  0  0  0  0  0  0  0  0  0
  141.6494   74.2933  221.8856 H   0  0  0  0  0  0  0  0  0  0  0  0
  140.7645   74.1360  220.3079 H   0  0  0  0  0  0  0  0  0  0  0  0
  139.6137   73.9149  222.7906 H   0  0  0  0  0  0  0  0  0  0  0  0
  138.9671   73.2094  221.2538 H   0  0  0  0  0  0  0  0  0  0  0  0
  1  2  2  0
  2  3  1  0
  3  4  2  0
  4  5  1  0
  5  6  2  0
  6  7  1  0
  7  8  2  0
  8  9  1  0
  9 10  2  0
 10 11  1  0
 11 12  2  0
 12 13  1  0
 13 14  2  0
 14 15  1  0
 15 16  2  0
 16 17  1  0
 17 18  2  0
 10 19  1  0
 19 20  1  0
 20 21  1  0
 21 22  1  0
 22 23  1  0
 23 24  1  0
 24 25  1  0
 25 26  1  0
 19  2  1  0
 26 21  1  0
  8  3  1  0
 18 13  1  0
  4 27  1  0
  5 28  1  0
  6 29  1  0
  7 30  1  0
 11 31  1  0
 12 32  1  0
 14 33  1  0
 15 34  1  0
 16 35  1  0
 18 36  1  0
 20 37  1  0
 20 38  1  0
 21 39  1  0
 22 40  1  0
 22 41  1  0
 23 42  1  0
 23 43  1  0
 24 44  1  0
 24 45  1  0
 25 46  1  0
 25 47  1  0
 26 48  1  0
 26 49  1  0
M  END
>  <smiles>  (8) 
O=c1c2ccccc2nc(/C=C/c2cccnc2)n1CC1CCCCC1

>  <score_type>  (8) 
oracle

>  <origin>  (8) 
autodockgpu

>  <m_score__min__energy>  (8) 
-7.3099999999999996

>  <m_primary>  (8) 
energy

>  <rmsd>  (8) 
10.311672401696441

>  <m_score__min__rmsd>  (8) 
10.311672401696441

>  <meeko>  (8) 
{"free_energy": -7.21, "intermolecular_energy": -8.7, "internal_energy": -1.38, "cluster_size": 17, "cluster_id": 2, "rank_in_cluster": 15}

>  <energy>  (8) 
-7.05

>  <cluster_rmsd>  (8) 
1.63

>  <cluster>  (8) 
1

$$$$

     RDKit          3D

 49 52  0  0  0  0  0  0  0  0999 V2000
  140.4050   71.8970  225.1480 O   0  0  0  0  0  0  0  0  0  0  0  0
  139.7770   70.8150  225.1650 C   0  0  0  0  0  0  0  0  0  0  0  0
  140.0770   69.9420  226.1840 C   0  0  0  0  0  0  0  0  0  0  0  0
  141.0300   70.2510  227.1300 C   0  0  0  0  0  0  0  0  0  0  0  0
  141.2820   69.3440  228.1110 C   0  0  0  0  0  0  0  0  0  0  0  0
  140.5890   68.1550  228.1330 C   0  0  0  0  0  0  0  0  0  0  0  0
  139.6240   67.8270  227.1870 C   0  0  0  0  0  0  0  0  0  0  0  0
  139.3920   68.7610  226.2100 C   0  0  0  0  0  0  0  0  0  0  0  0
  138.4950   68.5150  225.2820 N   0  0  0  0  0  0  0  0  0  0  0  0
  138.1640   69.3580  224.2480 C   0  0  0  0  0  0  0  0  0  0  0  0
  137.1380   68.8780  223.3830 C   0  0  0  0  0  0  0  0  0  0  0  0
  135.8470   68.8590  223.4700 C   0  0  0  0  0  0  0  0  0  0  0  0
  135.0820   69.4580  224.5840 C   0  0  0  0  0  0  0  0  0  0  0  0
  135.0650   70.8010  224.8490 C   0  0  0  0  0  0  0  0  0  0  0  0
  134.3170   71.2920  225.9220 C   0  0  0  0  0  0  0  0  0  0  0  0
  133.5810   70.4570  226.7400 C   0  0  0  0  0  0  0  0  0  0  0  0
  133.6170   69.1300  226.4530 N   0  0  0  0  0  0  0  0  0  0  0  0
  134.3330   68.6490  225.4230 C   0  0  0  0  0  0  0  0  0  0  0  0
  138.8270   70.5100  224.2130 N   0  0  0  0  0  0  0  0  0  0  0  0
  138.6220   71.5410  223.2290 C   0  0  0  0  0  0  0  0  0  0  0  0
  139.4970   71.4920  222.0250 C   0  0  0  0  0  0  0  0  0  0  0  0
  140.7120   72.3830  222.2420 C   0  0  0  0  0  0  0  0  0  0  0  0
  141.7820   72.1270  221.2280 C   0  0  0  0  0  0  0  0  0  0  0  0
  141.2590   71.3930  220.0130 C   0  0  0  0  0  0  0  0  0  0  0  0
  140.6930   70.0410  220.3800 C   0  0  0  0  0  0  0  0  0  0  0  0
  139.9080   70.0860  221.6810 C   0  0  0  0  0  0  0  0  0  0  0  0
  141.5730   71.2069  227.0925 H   0  0  0  0  0  0  0  0  0  0  0  0
  142.0356   69.5592  228.8829 H   0  0  0  0  0  0  0  0  0  0  0  0
  140.8080   67.4330  228.9335 H   0  0  0  0  0  0  0  0  0  0  0  0
  139.0778   66.8727  227.2204 H   0  0  0  0  0  0  0  0  0  0  0  0
  137.5213   68.4335  222.4527 H   0  0  0  0  0  0  0  0  0  0  0  0
  135.2834   68.3660  222.6642 H   0  0  0  0  0  0  0  0  0  0  0  0
  135.6403   71.4936  224.2171 H   0  0  0  0  0  0  0  0  0  0  0  0
  134.3141   72.3738  226.1210 H   0  0  0  0  0  0  0  0  0  0  0  0
  132.9936   70.8482  227.5838 H   0  0  0  0  0  0  0  0  0  0  0  0
  134.3241   67.5648  225.2376 H   0  0  0  0  0  0  0  0  0  0  0  0
  137.5786   71.4743  222.8871 H   0  0  0  0  0  0  0  0  0  0  0  0
  138.8764   72.4833  223.7364 H   0  0  0  0  0  0  0  0  0  0  0  0
  138.9218   71.8679  221.1660 H   0  0  0  0  0  0  0  0  0  0  0  0
  140.3986   73.4349  222.1700 H   0  0  0  0  0  0  0  0  0  0  0  0
  141.1251   72.1586  223.2365 H   0  0  0  0  0  0  0  0  0  0  0  0
  142.2012   73.0914  220.9052 H   0  0  0  0  0  0  0  0  0  0  0  0
  142.5475   71.4934  221.6998 H   0  0  0  0  0  0  0  0  0  0  0  0
  140.4671   71.9963  219.5451 H   0  0  0  0  0  0  0  0  0  0  0  0
  142.0974   71.2375  219.3181 H   0  0  0  0  0  0  0  0  0  0  0  0
  140.0247   69.7051  219.5735 H   0  0  0  0  0  0  0  0  0  0  0  0
  141.5347   69.3458  220.5151 H   0  0  0  0  0  0  0  0  0  0  0  0
  139.0062   69.4647  221.5767 H   0  0  0  0  0  0  0  0  0  0  0  0
  140.5522   69.7061  222.4877 H   0  0  0  0  0  0  0  0  0  0  0  0
  1  2  2  0
  2  3  1  0
  3  4  2  0
  4  5  1  0
  5  6  2  0
  6  7  1  0
  7  8  2  0
  8  9  1  0
  9 10  2  0
 10 11  1  0
 11 12  2  0
 12 13  1  0
 13 14  2  0
 14 15  1  0
 15 16  2  0
 16 17  1  0
 17 18  2  0
 10 19  1  0
 19 20  1  0
 20 21  1  0
 21 22  1  0
 22 23  1  0
 23 24  1  0
 24 25  1  0
 25 26  1  0
 19  2  1  0
 26 21  1  0
  8  3  1  0
 18 13  1  0
  4 27  1  0
  5 28  1  0
  6 29  1  0
  7 30  1  0
 11 31  1  0
 12 32  1  0
 14 33  1  0
 15 34  1  0
 16 35  1  0
 18 36  1  0
 20 37  1  0
 20 38  1  0
 21 39  1  0
 22 40  1  0
 22 41  1  0
 23 42  1  0
 23 43  1  0
 24 44  1  0
 24 45  1  0
 25 46  1  0
 25 47  1  0
 26 48  1  0
 26 49  1  0
M  END
>  <smiles>  (9) 
O=c1c2ccccc2nc(/C=C/c2cccnc2)n1CC1CCCCC1

>  <score_type>  (9) 
oracle

>  <origin>  (9) 
autodockgpu

>  <m_score__min__energy>  (9) 
-7.3099999999999996

>  <m_primary>  (9) 
energy

>  <rmsd>  (9) 
10.730970137802244

>  <m_score__min__rmsd>  (9) 
10.730970137802244

>  <meeko>  (9) 
{"free_energy": -6.84, "intermolecular_energy": -8.34, "internal_energy": -1.53, "cluster_size": 17, "cluster_id": 2, "rank_in_cluster": 17}

>  <energy>  (9) 
-7.01

>  <cluster_rmsd>  (9) 
1.71

>  <cluster>  (9) 
1

$$$$

     RDKit          3D

 49 52  0  0  0  0  0  0  0  0999 V2000
  140.4960   71.8800  225.3510 O   0  0  0  0  0  0  0  0  0  0  0  0
  139.9100   70.7740  225.3370 C   0  0  0  0  0  0  0  0  0  0  0  0
  140.1930   69.9110  226.3690 C   0  0  0  0  0  0  0  0  0  0  0  0
  141.0870   70.2530  227.3590 C   0  0  0  0  0  0  0  0  0  0  0  0
  141.3270   69.3540  228.3510 C   0  0  0  0  0  0  0  0  0  0  0  0
  140.6790   68.1400  228.3390 C   0  0  0  0  0  0  0  0  0  0  0  0
  139.7740   67.7780  227.3480 C   0  0  0  0  0  0  0  0  0  0  0  0
  139.5530   68.7050  226.3610 C   0  0  0  0  0  0  0  0  0  0  0  0
  138.7120   68.4270  225.3910 N   0  0  0  0  0  0  0  0  0  0  0  0
  138.3980   69.2590  224.3430 C   0  0  0  0  0  0  0  0  0  0  0  0
  137.4340   68.7430  223.4290 C   0  0  0  0  0  0  0  0  0  0  0  0
  136.1540   68.8960  223.3170 C   0  0  0  0  0  0  0  0  0  0  0  0
  135.2790   69.3940  224.3990 C   0  0  0  0  0  0  0  0  0  0  0  0
  135.1650   70.7190  224.7250 C   0  0  0  0  0  0  0  0  0  0  0  0
  134.3170   71.1130  225.7640 C   0  0  0  0  0  0  0  0  0  0  0  0
  133.5770   70.1980  226.4870 C   0  0  0  0  0  0  0  0  0  0  0  0
  133.7110   68.8910  226.1410 N   0  0  0  0  0  0  0  0  0  0  0  0
  134.5240   68.5030  225.1430 C   0  0  0  0  0  0  0  0  0  0  0  0
  139.0180   70.4360  224.3400 N   0  0  0  0  0  0  0  0  0  0  0  0
  138.8220   71.4610  223.3490 C   0  0  0  0  0  0  0  0  0  0  0  0
  140.0180   71.8490  222.5510 C   0  0  0  0  0  0  0  0  0  0  0  0
  140.2620   70.8120  221.4630 C   0  0  0  0  0  0  0  0  0  0  0  0
  141.2300   71.3010  220.4320 C   0  0  0  0  0  0  0  0  0  0  0  0
  142.0440   72.4800  220.9200 C   0  0  0  0  0  0  0  0  0  0  0  0
  141.1640   73.6580  221.2640 C   0  0  0  0  0  0  0  0  0  0  0  0
  139.8860   73.2300  221.9670 C   0  0  0  0  0  0  0  0  0  0  0  0
  141.5944   71.2289  227.3478 H   0  0  0  0  0  0  0  0  0  0  0  0
  142.0346   69.5958  229.1578 H   0  0  0  0  0  0  0  0  0  0  0  0
  140.8862   67.4250  229.1489 H   0  0  0  0  0  0  0  0  0  0  0  0
  139.2639   66.8035  227.3547 H   0  0  0  0  0  0  0  0  0  0  0  0
  137.8653   68.0807  222.6640 H   0  0  0  0  0  0  0  0  0  0  0  0
  135.6872   68.6389  222.3547 H   0  0  0  0  0  0  0  0  0  0  0  0
  135.7409   71.4736  224.1691 H   0  0  0  0  0  0  0  0  0  0  0  0
  134.2368   72.1815  226.0127 H   0  0  0  0  0  0  0  0  0  0  0  0
  132.9109   70.5124  227.3040 H   0  0  0  0  0  0  0  0  0  0  0  0
  134.5924   67.4308  224.9071 H   0  0  0  0  0  0  0  0  0  0  0  0
  138.0529   71.1054  222.6476 H   0  0  0  0  0  0  0  0  0  0  0  0
  138.5426   72.3629  223.9133 H   0  0  0  0  0  0  0  0  0  0  0  0
  140.8869   71.8776  223.2249 H   0  0  0  0  0  0  0  0  0  0  0  0
  140.6663   69.8996  221.9258 H   0  0  0  0  0  0  0  0  0  0  0  0
  139.3033   70.6118  220.9622 H   0  0  0  0  0  0  0  0  0  0  0  0
  141.9158   70.4806  220.1737 H   0  0  0  0  0  0  0  0  0  0  0  0
  140.6507   71.6317  219.5573 H   0  0  0  0  0  0  0  0  0  0  0  0
  142.6053   72.1796  221.8170 H   0  0  0  0  0  0  0  0  0  0  0  0
  142.7270   72.7844  220.1132 H   0  0  0  0  0  0  0  0  0  0  0  0
  141.7224   74.3369  221.9252 H   0  0  0  0  0  0  0  0  0  0  0  0
  140.8835   74.1574  220.3249 H   0  0  0  0  0  0  0  0  0  0  0  0
  139.6670   73.9418  222.7766 H   0  0  0  0  0  0  0  0  0  0  0  0
  139.0713   73.2176  221.2280 H   0  0  0  0  0  0  0  0  0  0  0  0
  1  2  2  0
  2  3  1  0
  3  4  2  0
  4  5  1  0
  5  6  2  0
  6  7  1  0
  7  8  2  0
  8  9  1  0
  9 10  2  0
 10 11  1  0
 11 12  2  0
 12 13  1  0
 13 14  2  0
 14 15  1  0
 15 16  2  0
 16 17  1  0
 17 18  2  0
 10 19  1  0
 19 20  1  0
 20 21  1  0
 21 22  1  0
 22 23  1  0
 23 24  1  0
 24 25  1  0
 25 26  1  0
 19  2  1  0
 26 21  1  0
  8  3  1  0
 18 13  1  0
  4 27  1  0
  5 28  1  0
  6 29  1  0
  7 30  1  0
 11 31  1  0
 12 32  1  0
 14 33  1  0
 15 34  1  0
 16 35  1  0
 18 36  1  0
 20 37  1  0
 20 38  1  0
 21 39  1  0
 22 40  1  0
 22 41  1  0
 23 42  1  0
 23 43  1  0
 24 44  1  0
 24 45  1  0
 25 46  1  0
 25 47  1  0
 26 48  1  0
 26 49  1  0
M  END
>  <smiles>  (10) 
O=c1c2ccccc2nc(/C=C/c2cccnc2)n1CC1CCCCC1

>  <score_type>  (10) 
oracle

>  <origin>  (10) 
autodockgpu

>  <m_score__min__energy>  (10) 
-7.3099999999999996

>  <m_primary>  (10) 
energy

>  <rmsd>  (10) 
10.304518765296477

>  <m_score__min__rmsd>  (10) 
10.304518765296477

>  <meeko>  (10) 
{"free_energy": -7.23, "intermolecular_energy": -8.72, "internal_energy": -1.37, "cluster_size": 17, "cluster_id": 2, "rank_in_cluster": 5}

>  <energy>  (10) 
-7.24

>  <cluster_rmsd>  (10) 
0.0

>  <cluster>  (10) 
2

$$$$

     RDKit          3D

 49 52  0  0  0  0  0  0  0  0999 V2000
  139.2260   67.3940  225.4670 O   0  0  0  0  0  0  0  0  0  0  0  0
  139.5000   68.5750  225.1560 C   0  0  0  0  0  0  0  0  0  0  0  0
  140.0390   69.3660  226.1430 C   0  0  0  0  0  0  0  0  0  0  0  0
  140.2550   68.8740  227.4110 C   0  0  0  0  0  0  0  0  0  0  0  0
  140.7890   69.7070  228.3440 C   0  0  0  0  0  0  0  0  0  0  0  0
  141.0950   71.0050  228.0020 C   0  0  0  0  0  0  0  0  0  0  0  0
  140.8840   71.5170  226.7270 C   0  0  0  0  0  0  0  0  0  0  0  0
  140.3440   70.6530  225.8080 C   0  0  0  0  0  0  0  0  0  0  0  0
  140.1160   71.0730  224.5840 N   0  0  0  0  0  0  0  0  0  0  0  0
  139.5800   70.3180  223.5670 C   0  0  0  0  0  0  0  0  0  0  0  0
  139.4540   70.9910  222.3170 C   0  0  0  0  0  0  0  0  0  0  0  0
  140.3170   71.5110  221.5040 C   0  0  0  0  0  0  0  0  0  0  0  0
  140.6270   72.9540  221.4350 C   0  0  0  0  0  0  0  0  0  0  0  0
  141.7580   73.4540  220.8460 C   0  0  0  0  0  0  0  0  0  0  0  0
  141.9820   74.8330  220.8220 C   0  0  0  0  0  0  0  0  0  0  0  0
  141.0890   75.7270  221.3800 C   0  0  0  0  0  0  0  0  0  0  0  0
  139.9770   75.2020  221.9580 N   0  0  0  0  0  0  0  0  0  0  0  0
  139.7530   73.8770  221.9850 C   0  0  0  0  0  0  0  0  0  0  0  0
  139.2780   69.0630  223.8840 N   0  0  0  0  0  0  0  0  0  0  0  0
  138.7270   68.0980  222.9680 C   0  0  0  0  0  0  0  0  0  0  0  0
  137.2700   68.2120  222.6830 C   0  0  0  0  0  0  0  0  0  0  0  0
  136.6080   69.0690  223.7530 C   0  0  0  0  0  0  0  0  0  0  0  0
  135.2300   69.4940  223.3540 C   0  0  0  0  0  0  0  0  0  0  0  0
  134.6690   68.6500  222.2310 C   0  0  0  0  0  0  0  0  0  0  0  0
  135.5170   68.7480  220.9850 C   0  0  0  0  0  0  0  0  0  0  0  0
  137.0030   68.7580  221.3060 C   0  0  0  0  0  0  0  0  0  0  0  0
  140.0020   67.8335  227.6628 H   0  0  0  0  0  0  0  0  0  0  0  0
  140.9754   69.3457  229.3661 H   0  0  0  0  0  0  0  0  0  0  0  0
  141.5246   71.6648  228.7702 H   0  0  0  0  0  0  0  0  0  0  0  0
  141.1358   72.5563  226.4693 H   0  0  0  0  0  0  0  0  0  0  0  0
  138.4135   71.0882  221.9737 H   0  0  0  0  0  0  0  0  0  0  0  0
  140.8535   70.8357  220.8213 H   0  0  0  0  0  0  0  0  0  0  0  0
  142.4900   72.7699  220.3918 H   0  0  0  0  0  0  0  0  0  0  0  0
  142.8956   75.2177  220.3451 H   0  0  0  0  0  0  0  0  0  0  0  0
  141.2694   76.8119  221.3575 H   0  0  0  0  0  0  0  0  0  0  0  0
  138.8344   73.5092  222.4655 H   0  0  0  0  0  0  0  0  0  0  0  0
  139.2636   68.1987  222.0131 H   0  0  0  0  0  0  0  0  0  0  0  0
  138.8528   67.1226  223.4608 H   0  0  0  0  0  0  0  0  0  0  0  0
  136.8344   67.2022  222.7075 H   0  0  0  0  0  0  0  0  0  0  0  0
  136.5451   68.4883  224.6851 H   0  0  0  0  0  0  0  0  0  0  0  0
  137.2176   69.9743  223.8901 H   0  0  0  0  0  0  0  0  0  0  0  0
  134.5666   69.4065  224.2271 H   0  0  0  0  0  0  0  0  0  0  0  0
  135.2897   70.5323  222.9957 H   0  0  0  0  0  0  0  0  0  0  0  0
  134.6335   67.6000  222.5570 H   0  0  0  0  0  0  0  0  0  0  0  0
  133.6616   69.0213  221.9917 H   0  0  0  0  0  0  0  0  0  0  0  0
  135.2992   67.8850  220.3386 H   0  0  0  0  0  0  0  0  0  0  0  0
  135.2721   69.6947  220.4813 H   0  0  0  0  0  0  0  0  0  0  0  0
  137.5332   68.1398  220.5666 H   0  0  0  0  0  0  0  0  0  0  0  0
  137.3583   69.7985  221.2707 H   0  0  0  0  0  0  0  0  0  0  0  0
  1  2  2  0
  2  3  1  0
  3  4  2  0
  4  5  1  0
  5  6  2  0
  6  7  1  0
  7  8  2  0
  8  9  1  0
  9 10  2  0
 10 11  1  0
 11 12  2  0
 12 13  1  0
 13 14  2  0
 14 15  1  0
 15 16  2  0
 16 17  1  0
 17 18  2  0
 10 19  1  0
 19 20  1  0
 20 21  1  0
 21 22  1  0
 22 23  1  0
 23 24  1  0
 24 25  1  0
 25 26  1  0
 19  2  1  0
 26 21  1  0
  8  3  1  0
 18 13  1  0
  4 27  1  0
  5 28  1  0
  6 29  1  0
  7 30  1  0
 11 31  1  0
 12 32  1  0
 14 33  1  0
 15 34  1  0
 16 35  1  0
 18 36  1  0
 20 37  1  0
 20 38  1  0
 21 39  1  0
 22 40  1  0
 22 41  1  0
 23 42  1  0
 23 43  1  0
 24 44  1  0
 24 45  1  0
 25 46  1  0
 25 47  1  0
 26 48  1  0
 26 49  1  0
M  END
>  <smiles>  (11) 
O=c1c2ccccc2nc(/C=C/c2cccnc2)n1CC1CCCCC1

>  <score_type>  (11) 
oracle

>  <origin>  (11) 
autodockgpu

>  <m_score__min__energy>  (11) 
-7.3099999999999996

>  <m_primary>  (11) 
energy

>  <rmsd>  (11) 
12.55093195017849

>  <m_score__min__rmsd>  (11) 
12.55093195017849

>  <meeko>  (11) 
{"free_energy": -7.23, "intermolecular_energy": -8.72, "internal_energy": -1.3, "cluster_size": 9, "cluster_id": 1, "rank_in_cluster": 5}

>  <energy>  (11) 
-7.23

>  <cluster_rmsd>  (11) 
0.06

>  <cluster>  (11) 
2

$$$$

     RDKit          3D

 49 52  0  0  0  0  0  0  0  0999 V2000
  142.7870   76.5250  219.8220 O   0  0  0  0  0  0  0  0  0  0  0  0
  141.8850   75.9900  220.5070 C   0  0  0  0  0  0  0  0  0  0  0  0
  141.9990   74.6390  220.7310 C   0  0  0  0  0  0  0  0  0  0  0  0
  143.0530   73.9170  220.2160 C   0  0  0  0  0  0  0  0  0  0  0  0
  143.1070   72.5830  220.4720 C   0  0  0  0  0  0  0  0  0  0  0  0
  142.1190   71.9950  221.2290 C   0  0  0  0  0  0  0  0  0  0  0  0
  141.0480   72.7080  221.7570 C   0  0  0  0  0  0  0  0  0  0  0  0
  141.0210   74.0520  221.4810 C   0  0  0  0  0  0  0  0  0  0  0  0
  140.0360   74.7860  221.9470 N   0  0  0  0  0  0  0  0  0  0  0  0
  139.8840   76.1380  221.7470 C   0  0  0  0  0  0  0  0  0  0  0  0
  138.7450   76.7170  222.3790 C   0  0  0  0  0  0  0  0  0  0  0  0
  137.8950   77.6210  222.0090 C   0  0  0  0  0  0  0  0  0  0  0  0
  137.9720   79.0430  222.4050 C   0  0  0  0  0  0  0  0  0  0  0  0
  138.3860   79.4580  223.6420 C   0  0  0  0  0  0  0  0  0  0  0  0
  138.4300   80.8230  223.9420 C   0  0  0  0  0  0  0  0  0  0  0  0
  138.0640   81.7840  223.0190 C   0  0  0  0  0  0  0  0  0  0  0  0
  137.6580   81.3420  221.8010 N   0  0  0  0  0  0  0  0  0  0  0  0
  137.6130   80.0320  221.5040 C   0  0  0  0  0  0  0  0  0  0  0  0
  140.8310   76.7190  221.0170 N   0  0  0  0  0  0  0  0  0  0  0  0
  140.8750   78.1240  220.7040 C   0  0  0  0  0  0  0  0  0  0  0  0
  141.5980   78.9960  221.6720 C   0  0  0  0  0  0  0  0  0  0  0  0
  141.1940   80.4460  221.4490 C   0  0  0  0  0  0  0  0  0  0  0  0
  141.6200   81.3250  222.5830 C   0  0  0  0  0  0  0  0  0  0  0  0
  142.6900   80.6830  223.4390 C   0  0  0  0  0  0  0  0  0  0  0  0
  142.2050   79.3950  224.0620 C   0  0  0  0  0  0  0  0  0  0  0  0
  141.3610   78.5770  223.0980 C   0  0  0  0  0  0  0  0  0  0  0  0
  143.8313   74.4074  219.6129 H   0  0  0  0  0  0  0  0  0  0  0  0
  143.9354   71.9769  220.0765 H   0  0  0  0  0  0  0  0  0  0  0  0
  142.1792   70.9142  221.4248 H   0  0  0  0  0  0  0  0  0  0  0  0
  140.2674   72.2225  222.3611 H   0  0  0  0  0  0  0  0  0  0  0  0
  138.5485   76.3146  223.3837 H   0  0  0  0  0  0  0  0  0  0  0  0
  137.0633   77.3113  221.3591 H   0  0  0  0  0  0  0  0  0  0  0  0
  138.6839   78.7181  224.3995 H   0  0  0  0  0  0  0  0  0  0  0  0
  138.7652   81.1406  224.9404 H   0  0  0  0  0  0  0  0  0  0  0  0
  138.0999   82.8567  223.2597 H   0  0  0  0  0  0  0  0  0  0  0  0
  137.2761   79.7318  220.5008 H   0  0  0  0  0  0  0  0  0  0  0  0
  141.3641   78.2336  219.7248 H   0  0  0  0  0  0  0  0  0  0  0  0
  139.8287   78.4623  220.7309 H   0  0  0  0  0  0  0  0  0  0  0  0
  142.6780   78.8898  221.4921 H   0  0  0  0  0  0  0  0  0  0  0  0
  141.6642   80.8077  220.5227 H   0  0  0  0  0  0  0  0  0  0  0  0
  140.0970   80.4873  221.3793 H   0  0  0  0  0  0  0  0  0  0  0  0
  142.0138   82.2662  222.1719 H   0  0  0  0  0  0  0  0  0  0  0  0
  140.7408   81.5006  223.2203 H   0  0  0  0  0  0  0  0  0  0  0  0
  143.5676   80.4679  222.8117 H   0  0  0  0  0  0  0  0  0  0  0  0
  142.9478   81.3813  224.2489 H   0  0  0  0  0  0  0  0  0  0  0  0
  143.0771   78.7971  224.3654 H   0  0  0  0  0  0  0  0  0  0  0  0
  141.5774   79.6524  224.9279 H   0  0  0  0  0  0  0  0  0  0  0  0
  141.6216   77.5139  223.2071 H   0  0  0  0  0  0  0  0  0  0  0  0
  140.3005   78.7445  223.3372 H   0  0  0  0  0  0  0  0  0  0  0  0
  1  2  2  0
  2  3  1  0
  3  4  2  0
  4  5  1  0
  5  6  2  0
  6  7  1  0
  7  8  2  0
  8  9  1  0
  9 10  2  0
 10 11  1  0
 11 12  2  0
 12 13  1  0
 13 14  2  0
 14 15  1  0
 15 16  2  0
 16 17  1  0
 17 18  2  0
 10 19  1  0
 19 20  1  0
 20 21  1  0
 21 22  1  0
 22 23  1  0
 23 24  1  0
 24 25  1  0
 25 26  1  0
 19  2  1  0
 26 21  1  0
  8  3  1  0
 18 13  1  0
  4 27  1  0
  5 28  1  0
  6 29  1  0
  7 30  1  0
 11 31  1  0
 12 32  1  0
 14 33  1  0
 15 34  1  0
 16 35  1  0
 18 36  1  0
 20 37  1  0
 20 38  1  0
 21 39  1  0
 22 40  1  0
 22 41  1  0
 23 42  1  0
 23 43  1  0
 24 44  1  0
 24 45  1  0
 25 46  1  0
 25 47  1  0
 26 48  1  0
 26 49  1  0
M  END
>  <smiles>  (12) 
O=c1c2ccccc2nc(/C=C/c2cccnc2)n1CC1CCCCC1

>  <score_type>  (12) 
oracle

>  <origin>  (12) 
autodockgpu

>  <m_score__min__energy>  (12) 
-7.3099999999999996

>  <m_primary>  (12) 
energy

>  <rmsd>  (12) 
4.3386127873311136

>  <m_score__min__rmsd>  (12) 
4.3386127873311136

>  <meeko>  (12) 
{"free_energy": -6.49, "intermolecular_energy": -7.98, "internal_energy": -1.92, "cluster_size": 16, "cluster_id": 5, "rank_in_cluster": 9}

>  <energy>  (12) 
-7.23

>  <cluster_rmsd>  (12) 
0.18

>  <cluster>  (12) 
2

$$$$

     RDKit          3D

 49 52  0  0  0  0  0  0  0  0999 V2000
  139.2450   67.4430  225.4710 O   0  0  0  0  0  0  0  0  0  0  0  0
  139.5000   68.6280  225.1610 C   0  0  0  0  0  0  0  0  0  0  0  0
  140.0320   69.4240  226.1480 C   0  0  0  0  0  0  0  0  0  0  0  0
  140.2620   68.9320  227.4130 C   0  0  0  0  0  0  0  0  0  0  0  0
  140.7890   69.7700  228.3460 C   0  0  0  0  0  0  0  0  0  0  0  0
  141.0740   71.0730  228.0050 C   0  0  0  0  0  0  0  0  0  0  0  0
  140.8480   71.5860  226.7330 C   0  0  0  0  0  0  0  0  0  0  0  0
  140.3160   70.7170  225.8140 C   0  0  0  0  0  0  0  0  0  0  0  0
  140.0750   71.1370  224.5930 N   0  0  0  0  0  0  0  0  0  0  0  0
  139.5450   70.3770  223.5770 C   0  0  0  0  0  0  0  0  0  0  0  0
  139.4020   71.0510  222.3300 C   0  0  0  0  0  0  0  0  0  0  0  0
  140.2540   71.5650  221.5020 C   0  0  0  0  0  0  0  0  0  0  0  0
  140.5880   73.0030  221.4410 C   0  0  0  0  0  0  0  0  0  0  0  0
  141.7290   73.4860  220.8570 C   0  0  0  0  0  0  0  0  0  0  0  0
  141.9760   74.8620  220.8410 C   0  0  0  0  0  0  0  0  0  0  0  0
  141.0980   75.7670  221.4030 C   0  0  0  0  0  0  0  0  0  0  0  0
  139.9760   75.2590  221.9750 N   0  0  0  0  0  0  0  0  0  0  0  0
  139.7290   73.9380  221.9950 C   0  0  0  0  0  0  0  0  0  0  0  0
  139.2640   69.1160  223.8920 N   0  0  0  0  0  0  0  0  0  0  0  0
  138.7220   68.1460  222.9770 C   0  0  0  0  0  0  0  0  0  0  0  0
  137.3340   68.3910  222.4960 C   0  0  0  0  0  0  0  0  0  0  0  0
  136.7500   67.0970  221.9460 C   0  0  0  0  0  0  0  0  0  0  0  0
  135.2690   67.1880  221.7560 C   0  0  0  0  0  0  0  0  0  0  0  0
  134.7780   68.6190  221.7350 C   0  0  0  0  0  0  0  0  0  0  0  0
  135.0820   69.3300  223.0320 C   0  0  0  0  0  0  0  0  0  0  0  0
  136.4560   68.9690  223.5730 C   0  0  0  0  0  0  0  0  0  0  0  0
  140.0255   67.8872  227.6631 H   0  0  0  0  0  0  0  0  0  0  0  0
  140.9861   69.4089  229.3662 H   0  0  0  0  0  0  0  0  0  0  0  0
  141.4989   71.7368  228.7723 H   0  0  0  0  0  0  0  0  0  0  0  0
  141.0825   72.6299  226.4775 H   0  0  0  0  0  0  0  0  0  0  0  0
  138.3563   71.1558  222.0052 H   0  0  0  0  0  0  0  0  0  0  0  0
  140.7617   70.8881  220.7991 H   0  0  0  0  0  0  0  0  0  0  0  0
  142.4503   72.7919  220.4010 H   0  0  0  0  0  0  0  0  0  0  0  0
  142.8963   75.2341  220.3671 H   0  0  0  0  0  0  0  0  0  0  0  0
  141.2978   76.8486  221.3882 H   0  0  0  0  0  0  0  0  0  0  0  0
  138.8036   73.5835  222.4725 H   0  0  0  0  0  0  0  0  0  0  0  0
  139.3802   68.1128  222.0963 H   0  0  0  0  0  0  0  0  0  0  0  0
  138.6721   67.2053  223.5450 H   0  0  0  0  0  0  0  0  0  0  0  0
  137.3756   69.1398  221.6913 H   0  0  0  0  0  0  0  0  0  0  0  0
  137.2200   66.8793  220.9756 H   0  0  0  0  0  0  0  0  0  0  0  0
  136.9511   66.2968  222.6734 H   0  0  0  0  0  0  0  0  0  0  0  0
  135.0051   66.7098  220.8012 H   0  0  0  0  0  0  0  0  0  0  0  0
  134.7896   66.6809  222.6063 H   0  0  0  0  0  0  0  0  0  0  0  0
  135.2720   69.1538  220.9104 H   0  0  0  0  0  0  0  0  0  0  0  0
  133.6867   68.6064  221.5971 H   0  0  0  0  0  0  0  0  0  0  0  0
  135.0428   70.4156  222.8591 H   0  0  0  0  0  0  0  0  0  0  0  0
  134.3326   69.0169  223.7739 H   0  0  0  0  0  0  0  0  0  0  0  0
  136.9321   69.8754  223.9752 H   0  0  0  0  0  0  0  0  0  0  0  0
  136.3305   68.2123  224.3615 H   0  0  0  0  0  0  0  0  0  0  0  0
  1  2  2  0
  2  3  1  0
  3  4  2  0
  4  5  1  0
  5  6  2  0
  6  7  1  0
  7  8  2  0
  8  9  1  0
  9 10  2  0
 10 11  1  0
 11 12  2  0
 12 13  1  0
 13 14  2  0
 14 15  1  0
 15 16  2  0
 16 17  1  0
 17 18  2  0
 10 19  1  0
 19 20  1  0
 20 21  1  0
 21 22  1  0
 22 23  1  0
 23 24  1  0
 24 25  1  0
 25 26  1  0
 19  2  1  0
 26 21  1  0
  8  3  1  0
 18 13  1  0
  4 27  1  0
  5 28  1  0
  6 29  1  0
  7 30  1  0
 11 31  1  0
 12 32  1  0
 14 33  1  0
 15 34  1  0
 16 35  1  0
 18 36  1  0
 20 37  1  0
 20 38  1  0
 21 39  1  0
 22 40  1  0
 22 41  1  0
 23 42  1  0
 23 43  1  0
 24 44  1  0
 24 45  1  0
 25 46  1  0
 25 47  1  0
 26 48  1  0
 26 49  1  0
M  END
>  <smiles>  (13) 
O=c1c2ccccc2nc(/C=C/c2cccnc2)n1CC1CCCCC1

>  <score_type>  (13) 
oracle

>  <origin>  (13) 
autodockgpu

>  <m_score__min__energy>  (13) 
-7.3099999999999996

>  <m_primary>  (13) 
energy

>  <rmsd>  (13) 
12.739457584389

>  <m_score__min__rmsd>  (13) 
12.739457584389

>  <meeko>  (13) 
{"free_energy": -7.31, "intermolecular_energy": -8.8, "internal_energy": -1.23, "cluster_size": 9, "cluster_id": 1, "rank_in_cluster": 1}

>  <energy>  (13) 
-7.23

>  <cluster_rmsd>  (13) 
0.13

>  <cluster>  (13) 
2

$$$$

     RDKit          3D

 49 52  0  0  0  0  0  0  0  0999 V2000
  140.5690   71.8810  225.3200 O   0  0  0  0  0  0  0  0  0  0  0  0
  139.9310   70.8040  225.3120 C   0  0  0  0  0  0  0  0  0  0  0  0
  140.1650   69.9390  226.3540 C   0  0  0  0  0  0  0  0  0  0  0  0
  141.0670   70.2480  227.3480 C   0  0  0  0  0  0  0  0  0  0  0  0
  141.2570   69.3490  228.3510 C   0  0  0  0  0  0  0  0  0  0  0  0
  140.5520   68.1670  228.3460 C   0  0  0  0  0  0  0  0  0  0  0  0
  139.6370   67.8380  227.3510 C   0  0  0  0  0  0  0  0  0  0  0  0
  139.4680   68.7650  226.3540 C   0  0  0  0  0  0  0  0  0  0  0  0
  138.6220   68.5180  225.3800 N   0  0  0  0  0  0  0  0  0  0  0  0
  138.3560   69.3530  224.3210 C   0  0  0  0  0  0  0  0  0  0  0  0
  137.3750   68.8740  223.4060 C   0  0  0  0  0  0  0  0  0  0  0  0
  136.0810   68.9100  223.3990 C   0  0  0  0  0  0  0  0  0  0  0  0
  135.2610   69.4680  224.4950 C   0  0  0  0  0  0  0  0  0  0  0  0
  135.0850   70.8110  224.6950 C   0  0  0  0  0  0  0  0  0  0  0  0
  134.2950   71.2630  225.7560 C   0  0  0  0  0  0  0  0  0  0  0  0
  133.6740   70.3880  226.6260 C   0  0  0  0  0  0  0  0  0  0  0  0
  133.8670   69.0620  226.4030 N   0  0  0  0  0  0  0  0  0  0  0  0
  134.6240   68.6190  225.3850 C   0  0  0  0  0  0  0  0  0  0  0  0
  139.0310   70.4990  224.3120 N   0  0  0  0  0  0  0  0  0  0  0  0
  138.8910   71.5220  223.3090 C   0  0  0  0  0  0  0  0  0  0  0  0
  140.1060   71.8330  222.5060 C   0  0  0  0  0  0  0  0  0  0  0  0
  140.2700   70.7920  221.4080 C   0  0  0  0  0  0  0  0  0  0  0  0
  141.2630   71.2220  220.3740 C   0  0  0  0  0  0  0  0  0  0  0  0
  142.1600   72.3370  220.8660 C   0  0  0  0  0  0  0  0  0  0  0  0
  141.3650   73.5710  221.2260 C   0  0  0  0  0  0  0  0  0  0  0  0
  140.0660   73.2250  221.9350 C   0  0  0  0  0  0  0  0  0  0  0  0
  141.6202   71.1986  227.3312 H   0  0  0  0  0  0  0  0  0  0  0  0
  141.9694   69.5653  229.1607 H   0  0  0  0  0  0  0  0  0  0  0  0
  140.7193   67.4512  229.1644 H   0  0  0  0  0  0  0  0  0  0  0  0
  139.0809   66.8890  227.3630 H   0  0  0  0  0  0  0  0  0  0  0  0
  137.8042   68.3714  222.5267 H   0  0  0  0  0  0  0  0  0  0  0  0
  135.5588   68.4995  222.5222 H   0  0  0  0  0  0  0  0  0  0  0  0
  135.5656   71.5348  224.0203 H   0  0  0  0  0  0  0  0  0  0  0  0
  134.1642   72.3454  225.9021 H   0  0  0  0  0  0  0  0  0  0  0  0
  133.0529   70.7478  227.4595 H   0  0  0  0  0  0  0  0  0  0  0  0
  134.7431   67.5335  225.2525 H   0  0  0  0  0  0  0  0  0  0  0  0
  138.1023   71.2018  222.6123 H   0  0  0  0  0  0  0  0  0  0  0  0
  138.6628   72.4447  223.8627 H   0  0  0  0  0  0  0  0  0  0  0  0
  140.9794   71.7949  223.1736 H   0  0  0  0  0  0  0  0  0  0  0  0
  140.6129   69.8496  221.8600 H   0  0  0  0  0  0  0  0  0  0  0  0
  139.2964   70.6634  220.9125 H   0  0  0  0  0  0  0  0  0  0  0  0
  141.8884   70.3584  220.1037 H   0  0  0  0  0  0  0  0  0  0  0  0
  140.7023   71.6000  219.5064 H   0  0  0  0  0  0  0  0  0  0  0  0
  142.7047   71.9906  221.7566 H   0  0  0  0  0  0  0  0  0  0  0  0
  142.8577   72.6003  220.0573 H   0  0  0  0  0  0  0  0  0  0  0  0
  141.9732   74.2045  221.8884 H   0  0  0  0  0  0  0  0  0  0  0  0
  141.1132   74.0969  220.2932 H   0  0  0  0  0  0  0  0  0  0  0  0
  139.9023   73.9426  222.7525 H   0  0  0  0  0  0  0  0  0  0  0  0
  139.2474   73.2751  221.2019 H   0  0  0  0  0  0  0  0  0  0  0  0
  1  2  2  0
  2  3  1  0
  3  4  2  0
  4  5  1  0
  5  6  2  0
  6  7  1  0
  7  8  2  0
  8  9  1  0
  9 10  2  0
 10 11  1  0
 11 12  2  0
 12 13  1  0
 13 14  2  0
 14 15  1  0
 15 16  2  0
 16 17  1  0
 17 18  2  0
 10 19  1  0
 19 20  1  0
 20 21  1  0
 21 22  1  0
 22 23  1  0
 23 24  1  0
 24 25  1  0
 25 26  1  0
 19  2  1  0
 26 21  1  0
  8  3  1  0
 18 13  1  0
  4 27  1  0
  5 28  1  0
  6 29  1  0
  7 30  1  0
 11 31  1  0
 12 32  1  0
 14 33  1  0
 15 34  1  0
 16 35  1  0
 18 36  1  0
 20 37  1  0
 20 38  1  0
 21 39  1  0
 22 40  1  0
 22 41  1  0
 23 42  1  0
 23 43  1  0
 24 44  1  0
 24 45  1  0
 25 46  1  0
 25 47  1  0
 26 48  1  0
 26 49  1  0
M  END
>  <smiles>  (14) 
O=c1c2ccccc2nc(/C=C/c2cccnc2)n1CC1CCCCC1

>  <score_type>  (14) 
oracle

>  <origin>  (14) 
autodockgpu

>  <m_score__min__energy>  (14) 
-7.3099999999999996

>  <m_primary>  (14) 
energy

>  <rmsd>  (14) 
10.31877361677732

>  <m_score__min__rmsd>  (14) 
10.31877361677732

>  <meeko>  (14) 
{"free_energy": -7.23, "intermolecular_energy": -8.72, "internal_energy": -1.38, "cluster_size": 17, "cluster_id": 2, "rank_in_cluster": 2}

>  <energy>  (14) 
-7.23

>  <cluster_rmsd>  (14) 
0.18

>  <cluster>  (14) 
2

$$$$

     RDKit          3D

 49 52  0  0  0  0  0  0  0  0999 V2000
  139.0580   76.6850  222.5150 O   0  0  0  0  0  0  0  0  0  0  0  0
  140.0770   77.1300  221.9410 C   0  0  0  0  0  0  0  0  0  0  0  0
  140.5730   78.3270  222.4020 C   0  0  0  0  0  0  0  0  0  0  0  0
  139.9650   78.9980  223.4390 C   0  0  0  0  0  0  0  0  0  0  0  0
  140.5030   80.1790  223.8470 C   0  0  0  0  0  0  0  0  0  0  0  0
  141.6270   80.6670  223.2200 C   0  0  0  0  0  0  0  0  0  0  0  0
  142.2540   80.0020  222.1720 C   0  0  0  0  0  0  0  0  0  0  0  0
  141.6880   78.8140  221.7820 C   0  0  0  0  0  0  0  0  0  0  0  0
  142.2280   78.1350  220.7960 N   0  0  0  0  0  0  0  0  0  0  0  0
  141.7660   76.9370  220.3050 C   0  0  0  0  0  0  0  0  0  0  0  0
  142.5410   76.3800  219.2460 C   0  0  0  0  0  0  0  0  0  0  0  0
  142.8540   75.1650  218.9260 C   0  0  0  0  0  0  0  0  0  0  0  0
  144.0360   74.4480  219.4480 C   0  0  0  0  0  0  0  0  0  0  0  0
  144.4100   74.4720  220.7640 C   0  0  0  0  0  0  0  0  0  0  0  0
  145.5430   73.7680  221.1820 C   0  0  0  0  0  0  0  0  0  0  0  0
  146.3130   73.0360  220.2990 C   0  0  0  0  0  0  0  0  0  0  0  0
  145.9180   73.0320  218.9990 N   0  0  0  0  0  0  0  0  0  0  0  0
  144.8290   73.7050  218.5890 C   0  0  0  0  0  0  0  0  0  0  0  0
  140.6800   76.4540  220.9010 N   0  0  0  0  0  0  0  0  0  0  0  0
  140.0450   75.2080  220.5570 C   0  0  0  0  0  0  0  0  0  0  0  0
  140.3450   74.0460  221.4380 C   0  0  0  0  0  0  0  0  0  0  0  0
  139.0440   73.4630  221.9730 C   0  0  0  0  0  0  0  0  0  0  0  0
  139.2470   72.1130  222.5860 C   0  0  0  0  0  0  0  0  0  0  0  0
  140.6980   71.8430  222.9170 C   0  0  0  0  0  0  0  0  0  0  0  0
  141.5660   71.8800  221.6820 C   0  0  0  0  0  0  0  0  0  0  0  0
  141.1620   72.9970  220.7340 C   0  0  0  0  0  0  0  0  0  0  0  0
  139.0669   78.5895  223.9254 H   0  0  0  0  0  0  0  0  0  0  0  0
  140.0425   80.7407  224.6731 H   0  0  0  0  0  0  0  0  0  0  0  0
  142.0473   81.6241  223.5626 H   0  0  0  0  0  0  0  0  0  0  0  0
  143.1530   80.4054  221.6831 H   0  0  0  0  0  0  0  0  0  0  0  0
  142.9572   77.1349  218.5627 H   0  0  0  0  0  0  0  0  0  0  0  0
  142.1985   74.6328  218.2209 H   0  0  0  0  0  0  0  0  0  0  0  0
  143.8189   75.0455  221.4932 H   0  0  0  0  0  0  0  0  0  0  0  0
  145.8294   73.7977  222.2436 H   0  0  0  0  0  0  0  0  0  0  0  0
  147.2034   72.4828  220.6324 H   0  0  0  0  0  0  0  0  0  0  0  0
  144.5555   73.6639  217.5243 H   0  0  0  0  0  0  0  0  0  0  0  0
  138.9572   75.3704  220.5763 H   0  0  0  0  0  0  0  0  0  0  0  0
  140.4482   74.9377  219.5699 H   0  0  0  0  0  0  0  0  0  0  0  0
  140.9553   74.4025  222.2809 H   0  0  0  0  0  0  0  0  0  0  0  0
  138.6374   74.1426  222.7365 H   0  0  0  0  0  0  0  0  0  0  0  0
  138.3477   73.3524  221.1286 H   0  0  0  0  0  0  0  0  0  0  0  0
  138.6562   72.0529  223.5119 H   0  0  0  0  0  0  0  0  0  0  0  0
  138.9242   71.3594  221.8526 H   0  0  0  0  0  0  0  0  0  0  0  0
  141.0510   72.6077  223.6245 H   0  0  0  0  0  0  0  0  0  0  0  0
  140.7691   70.8376  223.3575 H   0  0  0  0  0  0  0  0  0  0  0  0
  142.6114   72.0344  221.9874 H   0  0  0  0  0  0  0  0  0  0  0  0
  141.4428   70.9240  221.1520 H   0  0  0  0  0  0  0  0  0  0  0  0
  142.0696   73.4651  220.3250 H   0  0  0  0  0  0  0  0  0  0  0  0
  140.5497   72.5637  219.9294 H   0  0  0  0  0  0  0  0  0  0  0  0
  1  2  2  0
  2  3  1  0
  3  4  2  0
  4  5  1  0
  5  6  2  0
  6  7  1  0
  7  8  2  0
  8  9  1  0
  9 10  2  0
 10 11  1  0
 11 12  2  0
 12 13  1  0
 13 14  2  0
 14 15  1  0
 15 16  2  0
 16 17  1  0
 17 18  2  0
 10 19  1  0
 19 20  1  0
 20 21  1  0
 21 22  1  0
 22 23  1  0
 23 24  1  0
 24 25  1  0
 25 26  1  0
 19  2  1  0
 26 21  1  0
  8  3  1  0
 18 13  1  0
  4 27  1  0
  5 28  1  0
  6 29  1  0
  7 30  1  0
 11 31  1  0
 12 32  1  0
 14 33  1  0
 15 34  1  0
 16 35  1  0
 18 36  1  0
 20 37  1  0
 20 38  1  0
 21 39  1  0
 22 40  1  0
 22 41  1  0
 23 42  1  0
 23 43  1  0
 24 44  1  0
 24 45  1  0
 25 46  1  0
 25 47  1  0
 26 48  1  0
 26 49  1  0
M  END
>  <smiles>  (15) 
O=c1c2ccccc2nc(/C=C/c2cccnc2)n1CC1CCCCC1

>  <score_type>  (15) 
oracle

>  <origin>  (15) 
autodockgpu

>  <m_score__min__energy>  (15) 
-7.3099999999999996

>  <m_primary>  (15) 
energy

>  <rmsd>  (15) 
7.667196836687695

>  <m_score__min__rmsd>  (15) 
7.667196836687695

>  <meeko>  (15) 
{"free_energy": -7.02, "intermolecular_energy": -8.51, "internal_energy": -1.57, "cluster_size": 4, "cluster_id": 4, "rank_in_cluster": 3}

>  <energy>  (15) 
-7.23

>  <cluster_rmsd>  (15) 
0.03

>  <cluster>  (15) 
2

$$$$

     RDKit          3D

 49 52  0  0  0  0  0  0  0  0999 V2000
  140.5590   71.8740  225.3210 O   0  0  0  0  0  0  0  0  0  0  0  0
  139.9340   70.7900  225.3110 C   0  0  0  0  0  0  0  0  0  0  0  0
  140.1800   69.9260  226.3520 C   0  0  0  0  0  0  0  0  0  0  0  0
  141.0780   70.2450  227.3460 C   0  0  0  0  0  0  0  0  0  0  0  0
  141.2780   69.3470  228.3470 C   0  0  0  0  0  0  0  0  0  0  0  0
  140.5870   68.1560  228.3400 C   0  0  0  0  0  0  0  0  0  0  0  0
  139.6780   67.8180  227.3450 C   0  0  0  0  0  0  0  0  0  0  0  0
  139.4970   68.7430  226.3490 C   0  0  0  0  0  0  0  0  0  0  0  0
  138.6540   68.4870  225.3750 N   0  0  0  0  0  0  0  0  0  0  0  0
  138.3780   69.3210  224.3170 C   0  0  0  0  0  0  0  0  0  0  0  0
  137.4030   68.8320  223.4010 C   0  0  0  0  0  0  0  0  0  0  0  0
  136.1160   68.9540  223.3310 C   0  0  0  0  0  0  0  0  0  0  0  0
  135.2750   69.5020  224.4160 C   0  0  0  0  0  0  0  0  0  0  0  0
  135.0950   70.8430  224.6250 C   0  0  0  0  0  0  0  0  0  0  0  0
  134.2840   71.2840  225.6750 C   0  0  0  0  0  0  0  0  0  0  0  0
  133.6470   70.4000  226.5250 C   0  0  0  0  0  0  0  0  0  0  0  0
  133.8450   69.0770  226.2930 N   0  0  0  0  0  0  0  0  0  0  0  0
  134.6220   68.6430  225.2860 C   0  0  0  0  0  0  0  0  0  0  0  0
  139.0380   70.4750  224.3100 N   0  0  0  0  0  0  0  0  0  0  0  0
  138.8860   71.4980  223.3090 C   0  0  0  0  0  0  0  0  0  0  0  0
  140.0900   71.8070  222.4870 C   0  0  0  0  0  0  0  0  0  0  0  0
  140.2250   70.7750  221.3770 C   0  0  0  0  0  0  0  0  0  0  0  0
  141.2040   71.2060  220.3300 C   0  0  0  0  0  0  0  0  0  0  0  0
  142.1190   72.3080  220.8170 C   0  0  0  0  0  0  0  0  0  0  0  0
  141.3430   73.5450  221.2030 C   0  0  0  0  0  0  0  0  0  0  0  0
  140.0530   73.2040  221.9310 C   0  0  0  0  0  0  0  0  0  0  0  0
  141.6198   71.2022  227.3305 H   0  0  0  0  0  0  0  0  0  0  0  0
  141.9874   69.5705  229.1574 H   0  0  0  0  0  0  0  0  0  0  0  0
  140.7622   67.4412  229.1575 H   0  0  0  0  0  0  0  0  0  0  0  0
  139.1340   66.8620  227.3556 H   0  0  0  0  0  0  0  0  0  0  0  0
  137.8306   68.2276  222.5874 H   0  0  0  0  0  0  0  0  0  0  0  0
  135.6170   68.6295  222.4060 H   0  0  0  0  0  0  0  0  0  0  0  0
  135.5884   71.5734  223.9669 H   0  0  0  0  0  0  0  0  0  0  0  0
  134.1492   72.3648  225.8288 H   0  0  0  0  0  0  0  0  0  0  0  0
  133.0100   70.7514  227.3501 H   0  0  0  0  0  0  0  0  0  0  0  0
  134.7451   67.5589  225.1461 H   0  0  0  0  0  0  0  0  0  0  0  0
  138.0863   71.1795  222.6241 H   0  0  0  0  0  0  0  0  0  0  0  0
  138.6688   72.4212  223.8663 H   0  0  0  0  0  0  0  0  0  0  0  0
  140.9749   71.7555  223.1384 H   0  0  0  0  0  0  0  0  0  0  0  0
  140.5670   69.8253  221.8141 H   0  0  0  0  0  0  0  0  0  0  0  0
  139.2418   70.6597  220.8974 H   0  0  0  0  0  0  0  0  0  0  0  0
  141.8169   70.3395  220.0409 H   0  0  0  0  0  0  0  0  0  0  0  0
  140.6320   71.5971  219.4757 H   0  0  0  0  0  0  0  0  0  0  0  0
  142.6761   71.9478  221.6944 H   0  0  0  0  0  0  0  0  0  0  0  0
  142.8042   72.5732  219.9984 H   0  0  0  0  0  0  0  0  0  0  0  0
  141.9687   74.1658  221.8611 H   0  0  0  0  0  0  0  0  0  0  0  0
  141.0803   74.0829  220.2802 H   0  0  0  0  0  0  0  0  0  0  0  0
  139.9101   73.9149  222.7582 H   0  0  0  0  0  0  0  0  0  0  0  0
  139.2223   73.2691  221.2128 H   0  0  0  0  0  0  0  0  0  0  0  0
  1  2  2  0
  2  3  1  0
  3  4  2  0
  4  5  1  0
  5  6  2  0
  6  7  1  0
  7  8  2  0
  8  9  1  0
  9 10  2  0
 10 11  1  0
 11 12  2  0
 12 13  1  0
 13 14  2  0
 14 15  1  0
 15 16  2  0
 16 17  1  0
 17 18  2  0
 10 19  1  0
 19 20  1  0
 20 21  1  0
 21 22  1  0
 22 23  1  0
 23 24  1  0
 24 25  1  0
 25 26  1  0
 19  2  1  0
 26 21  1  0
  8  3  1  0
 18 13  1  0
  4 27  1  0
  5 28  1  0
  6 29  1  0
  7 30  1  0
 11 31  1  0
 12 32  1  0
 14 33  1  0
 15 34  1  0
 16 35  1  0
 18 36  1  0
 20 37  1  0
 20 38  1  0
 21 39  1  0
 22 40  1  0
 22 41  1  0
 23 42  1  0
 23 43  1  0
 24 44  1  0
 24 45  1  0
 25 46  1  0
 25 47  1  0
 26 48  1  0
 26 49  1  0
M  END
>  <smiles>  (16) 
O=c1c2ccccc2nc(/C=C/c2cccnc2)n1CC1CCCCC1

>  <score_type>  (16) 
oracle

>  <origin>  (16) 
autodockgpu

>  <m_score__min__energy>  (16) 
-7.3099999999999996

>  <m_primary>  (16) 
energy

>  <rmsd>  (16) 
10.32916349852479

>  <m_score__min__rmsd>  (16) 
10.32916349852479

>  <meeko>  (16) 
{"free_energy": -7.21, "intermolecular_energy": -8.7, "internal_energy": -1.39, "cluster_size": 17, "cluster_id": 2, "rank_in_cluster": 12}

>  <energy>  (16) 
-7.22

>  <cluster_rmsd>  (16) 
0.05

>  <cluster>  (16) 
2

$$$$

     RDKit          3D

 49 52  0  0  0  0  0  0  0  0999 V2000
  143.0290   76.5150  219.7720 O   0  0  0  0  0  0  0  0  0  0  0  0
  142.1440   75.9420  220.4450 C   0  0  0  0  0  0  0  0  0  0  0  0
  142.2880   74.5870  220.6290 C   0  0  0  0  0  0  0  0  0  0  0  0
  143.3540   73.9040  220.0870 C   0  0  0  0  0  0  0  0  0  0  0  0
  143.4380   72.5640  220.3030 C   0  0  0  0  0  0  0  0  0  0  0  0
  142.4670   71.9320  221.0470 C   0  0  0  0  0  0  0  0  0  0  0  0
  141.3860   72.6060  221.6020 C   0  0  0  0  0  0  0  0  0  0  0  0
  141.3270   73.9570  221.3670 C   0  0  0  0  0  0  0  0  0  0  0  0
  140.3300   74.6550  221.8600 N   0  0  0  0  0  0  0  0  0  0  0  0
  140.1480   76.0090  221.7020 C   0  0  0  0  0  0  0  0  0  0  0  0
  139.0010   76.5440  222.3560 C   0  0  0  0  0  0  0  0  0  0  0  0
  138.0860   77.3830  221.9890 C   0  0  0  0  0  0  0  0  0  0  0  0
  138.1700   78.8440  222.1920 C   0  0  0  0  0  0  0  0  0  0  0  0
  138.0930   79.7520  221.1700 C   0  0  0  0  0  0  0  0  0  0  0  0
  138.1820   81.1200  221.4430 C   0  0  0  0  0  0  0  0  0  0  0  0
  138.3490   81.5980  222.7280 C   0  0  0  0  0  0  0  0  0  0  0  0
  138.4230   80.6740  223.7210 N   0  0  0  0  0  0  0  0  0  0  0  0
  138.3370   79.3570  223.4690 C   0  0  0  0  0  0  0  0  0  0  0  0
  141.0770   76.6320  220.9830 N   0  0  0  0  0  0  0  0  0  0  0  0
  141.0890   78.0460  220.7120 C   0  0  0  0  0  0  0  0  0  0  0  0
  141.7880   78.9050  221.7070 C   0  0  0  0  0  0  0  0  0  0  0  0
  141.5290   80.3700  221.3850 C   0  0  0  0  0  0  0  0  0  0  0  0
  141.9170   81.2690  222.5170 C   0  0  0  0  0  0  0  0  0  0  0  0
  142.8450   80.5880  223.4990 C   0  0  0  0  0  0  0  0  0  0  0  0
  142.1990   79.3760  224.1260 C   0  0  0  0  0  0  0  0  0  0  0  0
  141.3850   78.5790  223.1200 C   0  0  0  0  0  0  0  0  0  0  0  0
  144.1179   74.4289  219.4946 H   0  0  0  0  0  0  0  0  0  0  0  0
  144.2771   71.9881  219.8856 H   0  0  0  0  0  0  0  0  0  0  0  0
  142.5506   70.8472  221.2089 H   0  0  0  0  0  0  0  0  0  0  0  0
  140.6204   72.0859  222.1964 H   0  0  0  0  0  0  0  0  0  0  0  0
  138.8653   76.1679  223.3808 H   0  0  0  0  0  0  0  0  0  0  0  0
  137.1887   76.9826  221.4945 H   0  0  0  0  0  0  0  0  0  0  0  0
  137.9612   79.4050  220.1345 H   0  0  0  0  0  0  0  0  0  0  0  0
  138.1172   81.8363  220.6107 H   0  0  0  0  0  0  0  0  0  0  0  0
  138.4188   82.6756  222.9374 H   0  0  0  0  0  0  0  0  0  0  0  0
  138.4020   78.6549  224.3133 H   0  0  0  0  0  0  0  0  0  0  0  0
  141.5782   78.1959  219.7382 H   0  0  0  0  0  0  0  0  0  0  0  0
  140.0349   78.3588  220.7454 H   0  0  0  0  0  0  0  0  0  0  0  0
  142.8672   78.7042  221.6369 H   0  0  0  0  0  0  0  0  0  0  0  0
  142.1133   80.6469  220.4951 H   0  0  0  0  0  0  0  0  0  0  0  0
  140.4506   80.4936  221.2067 H   0  0  0  0  0  0  0  0  0  0  0  0
  142.4240   82.1550  222.1073 H   0  0  0  0  0  0  0  0  0  0  0  0
  140.9994   81.5451  223.0571 H   0  0  0  0  0  0  0  0  0  0  0  0
  143.7561   80.2729  222.9693 H   0  0  0  0  0  0  0  0  0  0  0  0
  143.0834   81.3035  224.2997 H   0  0  0  0  0  0  0  0  0  0  0  0
  142.9861   78.7279  224.5388 H   0  0  0  0  0  0  0  0  0  0  0  0
  141.5162   79.7252  224.9146 H   0  0  0  0  0  0  0  0  0  0  0  0
  141.5456   77.5057  223.2995 H   0  0  0  0  0  0  0  0  0  0  0  0
  140.3243   78.8413  223.2470 H   0  0  0  0  0  0  0  0  0  0  0  0
  1  2  2  0
  2  3  1  0
  3  4  2  0
  4  5  1  0
  5  6  2  0
  6  7  1  0
  7  8  2  0
  8  9  1  0
  9 10  2  0
 10 11  1  0
 11 12  2  0
 12 13  1  0
 13 14  2  0
 14 15  1  0
 15 16  2  0
 16 17  1  0
 17 18  2  0
 10 19  1  0
 19 20  1  0
 20 21  1  0
 21 22  1  0
 22 23  1  0
 23 24  1  0
 24 25  1  0
 25 26  1  0
 19  2  1  0
 26 21  1  0
  8  3  1  0
 18 13  1  0
  4 27  1  0
  5 28  1  0
  6 29  1  0
  7 30  1  0
 11 31  1  0
 12 32  1  0
 14 33  1  0
 15 34  1  0
 16 35  1  0
 18 36  1  0
 20 37  1  0
 20 38  1  0
 21 39  1  0
 22 40  1  0
 22 41  1  0
 23 42  1  0
 23 43  1  0
 24 44  1  0
 24 45  1  0
 25 46  1  0
 25 47  1  0
 26 48  1  0
 26 49  1  0
M  END
>  <smiles>  (17) 
O=c1c2ccccc2nc(/C=C/c2cccnc2)n1CC1CCCCC1

>  <score_type>  (17) 
oracle

>  <origin>  (17) 
autodockgpu

>  <m_score__min__energy>  (17) 
-7.3099999999999996

>  <m_primary>  (17) 
energy

>  <rmsd>  (17) 
4.481222601667543

>  <m_score__min__rmsd>  (17) 
4.481222601667543

>  <meeko>  (17) 
{"free_energy": -6.45, "intermolecular_energy": -7.94, "internal_energy": -1.93, "cluster_size": 16, "cluster_id": 5, "rank_in_cluster": 11}

>  <energy>  (17) 
-7.22

>  <cluster_rmsd>  (17) 
0.12

>  <cluster>  (17) 
2

$$$$

     RDKit          3D

 49 52  0  0  0  0  0  0  0  0999 V2000
  140.5660   71.8660  225.2890 O   0  0  0  0  0  0  0  0  0  0  0  0
  139.9490   70.7770  225.2800 C   0  0  0  0  0  0  0  0  0  0  0  0
  140.1940   69.9190  226.3260 C   0  0  0  0  0  0  0  0  0  0  0  0
  141.0820   70.2490  227.3250 C   0  0  0  0  0  0  0  0  0  0  0  0
  141.2820   69.3570  228.3310 C   0  0  0  0  0  0  0  0  0  0  0  0
  140.6010   68.1600  228.3250 C   0  0  0  0  0  0  0  0  0  0  0  0
  139.7010   67.8110  227.3250 C   0  0  0  0  0  0  0  0  0  0  0  0
  139.5200   68.7310  226.3230 C   0  0  0  0  0  0  0  0  0  0  0  0
  138.6850   68.4650  225.3450 N   0  0  0  0  0  0  0  0  0  0  0  0
  138.4100   69.2920  224.2820 C   0  0  0  0  0  0  0  0  0  0  0  0
  137.4450   68.7910  223.3610 C   0  0  0  0  0  0  0  0  0  0  0  0
  136.1620   68.9300  223.2640 C   0  0  0  0  0  0  0  0  0  0  0  0
  135.2950   69.4180  224.3570 C   0  0  0  0  0  0  0  0  0  0  0  0
  135.1620   70.7430  224.6770 C   0  0  0  0  0  0  0  0  0  0  0  0
  134.3220   71.1270  225.7270 C   0  0  0  0  0  0  0  0  0  0  0  0
  133.6110   70.2020  226.4670 C   0  0  0  0  0  0  0  0  0  0  0  0
  133.7640   68.8960  226.1260 N   0  0  0  0  0  0  0  0  0  0  0  0
  134.5680   68.5180  225.1180 C   0  0  0  0  0  0  0  0  0  0  0  0
  139.0620   70.4510  224.2740 N   0  0  0  0  0  0  0  0  0  0  0  0
  138.9090   71.4690  223.2670 C   0  0  0  0  0  0  0  0  0  0  0  0
  140.1180   71.7890  222.4590 C   0  0  0  0  0  0  0  0  0  0  0  0
  140.2650   70.7710  221.3380 C   0  0  0  0  0  0  0  0  0  0  0  0
  141.2510   71.2160  220.3040 C   0  0  0  0  0  0  0  0  0  0  0  0
  142.1600   72.3140  220.8100 C   0  0  0  0  0  0  0  0  0  0  0  0
  141.3780   73.5450  221.2050 C   0  0  0  0  0  0  0  0  0  0  0  0
  140.0830   73.1930  221.9190 C   0  0  0  0  0  0  0  0  0  0  0  0
  141.6163   71.2104  227.3095 H   0  0  0  0  0  0  0  0  0  0  0  0
  141.9839   69.5899  229.1453 H   0  0  0  0  0  0  0  0  0  0  0  0
  140.7768   67.4500  229.1465 H   0  0  0  0  0  0  0  0  0  0  0  0
  139.1639   66.8511  227.3361 H   0  0  0  0  0  0  0  0  0  0  0  0
  137.8784   68.1578  222.5728 H   0  0  0  0  0  0  0  0  0  0  0  0
  135.6865   68.6683  222.3072 H   0  0  0  0  0  0  0  0  0  0  0  0
  135.7156   71.5047  224.1084 H   0  0  0  0  0  0  0  0  0  0  0  0
  134.2247   72.1953  225.9705 H   0  0  0  0  0  0  0  0  0  0  0  0
  132.9523   70.5085  227.2930 H   0  0  0  0  0  0  0  0  0  0  0  0
  134.6525   67.4459  224.8870 H   0  0  0  0  0  0  0  0  0  0  0  0
  138.1214   71.1383  222.5740 H   0  0  0  0  0  0  0  0  0  0  0  0
  138.6736   72.3915  223.8180 H   0  0  0  0  0  0  0  0  0  0  0  0
  140.9973   71.7306  223.1174 H   0  0  0  0  0  0  0  0  0  0  0  0
  140.6058   69.8170  221.7667 H   0  0  0  0  0  0  0  0  0  0  0  0
  139.2860   70.6596  220.8490 H   0  0  0  0  0  0  0  0  0  0  0  0
  141.8679   70.3541  220.0098 H   0  0  0  0  0  0  0  0  0  0  0  0
  140.6846   71.6160  219.4501 H   0  0  0  0  0  0  0  0  0  0  0  0
  142.7118   71.9449  221.6871 H   0  0  0  0  0  0  0  0  0  0  0  0
  142.8504   72.5902  219.9994 H   0  0  0  0  0  0  0  0  0  0  0  0
  141.9974   74.1591  221.8753 H   0  0  0  0  0  0  0  0  0  0  0  0
  141.1211   74.0932  220.2866 H   0  0  0  0  0  0  0  0  0  0  0  0
  139.9325   73.8938  222.7534 H   0  0  0  0  0  0  0  0  0  0  0  0
  139.2579   73.2651  221.1951 H   0  0  0  0  0  0  0  0  0  0  0  0
  1  2  2  0
  2  3  1  0
  3  4  2  0
  4  5  1  0
  5  6  2  0
  6  7  1  0
  7  8  2  0
  8  9  1  0
  9 10  2  0
 10 11  1  0
 11 12  2  0
 12 13  1  0
 13 14  2  0
 14 15  1  0
 15 16  2  0
 16 17  1  0
 17 18  2  0
 10 19  1  0
 19 20  1  0
 20 21  1  0
 21 22  1  0
 22 23  1  0
 23 24  1  0
 24 25  1  0
 25 26  1  0
 19  2  1  0
 26 21  1  0
  8  3  1  0
 18 13  1  0
  4 27  1  0
  5 28  1  0
  6 29  1  0
  7 30  1  0
 11 31  1  0
 12 32  1  0
 14 33  1  0
 15 34  1  0
 16 35  1  0
 18 36  1  0
 20 37  1  0
 20 38  1  0
 21 39  1  0
 22 40  1  0
 22 41  1  0
 23 42  1  0
 23 43  1  0
 24 44  1  0
 24 45  1  0
 25 46  1  0
 25 47  1  0
 26 48  1  0
 26 49  1  0
M  END
>  <smiles>  (18) 
O=c1c2ccccc2nc(/C=C/c2cccnc2)n1CC1CCCCC1

>  <score_type>  (18) 
oracle

>  <origin>  (18) 
autodockgpu

>  <m_score__min__energy>  (18) 
-7.3099999999999996

>  <m_primary>  (18) 
energy

>  <rmsd>  (18) 
10.327617301991367

>  <m_score__min__rmsd>  (18) 
10.327617301991367

>  <meeko>  (18) 
{"free_energy": -7.22, "intermolecular_energy": -8.71, "internal_energy": -1.38, "cluster_size": 17, "cluster_id": 2, "rank_in_cluster": 8}

>  <energy>  (18) 
-7.22

>  <cluster_rmsd>  (18) 
0.07

>  <cluster>  (18) 
2

$$$$

     RDKit          3D

 49 52  0  0  0  0  0  0  0  0999 V2000
  142.7910   76.4460  219.9040 O   0  0  0  0  0  0  0  0  0  0  0  0
  141.8870   75.8920  220.5700 C   0  0  0  0  0  0  0  0  0  0  0  0
  142.0090   74.5370  220.7690 C   0  0  0  0  0  0  0  0  0  0  0  0
  143.0740   73.8330  220.2510 C   0  0  0  0  0  0  0  0  0  0  0  0
  143.1360   72.4940  220.4820 C   0  0  0  0  0  0  0  0  0  0  0  0
  142.1450   71.8850  221.2180 C   0  0  0  0  0  0  0  0  0  0  0  0
  141.0640   72.5800  221.7480 C   0  0  0  0  0  0  0  0  0  0  0  0
  141.0290   73.9280  221.4980 C   0  0  0  0  0  0  0  0  0  0  0  0
  140.0340   74.6450  221.9680 N   0  0  0  0  0  0  0  0  0  0  0  0
  139.8730   76.0000  221.7930 C   0  0  0  0  0  0  0  0  0  0  0  0
  138.7230   76.5580  222.4240 C   0  0  0  0  0  0  0  0  0  0  0  0
  137.8760   77.4700  222.0680 C   0  0  0  0  0  0  0  0  0  0  0  0
  138.0510   78.9130  222.3330 C   0  0  0  0  0  0  0  0  0  0  0  0
  138.2700   79.4270  223.5830 C   0  0  0  0  0  0  0  0  0  0  0  0
  138.4240   80.8060  223.7540 C   0  0  0  0  0  0  0  0  0  0  0  0
  138.3600   81.6840  222.6900 C   0  0  0  0  0  0  0  0  0  0  0  0
  138.1410   81.1450  221.4630 N   0  0  0  0  0  0  0  0  0  0  0  0
  137.9930   79.8210  221.2890 C   0  0  0  0  0  0  0  0  0  0  0  0
  140.8220   76.6020  221.0830 N   0  0  0  0  0  0  0  0  0  0  0  0
  140.8590   78.0130  220.7980 C   0  0  0  0  0  0  0  0  0  0  0  0
  141.6390   78.8600  221.7430 C   0  0  0  0  0  0  0  0  0  0  0  0
  141.4390   80.3280  221.3930 C   0  0  0  0  0  0  0  0  0  0  0  0
  141.9170   81.2330  222.4850 C   0  0  0  0  0  0  0  0  0  0  0  0
  142.8490   80.5310  223.4470 C   0  0  0  0  0  0  0  0  0  0  0  0
  142.1700   79.3670  224.1310 C   0  0  0  0  0  0  0  0  0  0  0  0
  141.2780   78.5880  223.1780 C   0  0  0  0  0  0  0  0  0  0  0  0
  143.8545   74.3409  219.6654 H   0  0  0  0  0  0  0  0  0  0  0  0
  143.9727   71.9016  220.0832 H   0  0  0  0  0  0  0  0  0  0  0  0
  142.2113   70.8013  221.3945 H   0  0  0  0  0  0  0  0  0  0  0  0
  140.2810   72.0772  222.3347 H   0  0  0  0  0  0  0  0  0  0  0  0
  138.5128   76.1263  223.4137 H   0  0  0  0  0  0  0  0  0  0  0  0
  136.9687   77.1504  221.5345 H   0  0  0  0  0  0  0  0  0  0  0  0
  138.3248   78.7552  224.4523 H   0  0  0  0  0  0  0  0  0  0  0  0
  138.6011   81.2028  224.7645 H   0  0  0  0  0  0  0  0  0  0  0  0
  138.4807   82.7684  222.8298 H   0  0  0  0  0  0  0  0  0  0  0  0
  137.8179   79.4412  220.2716 H   0  0  0  0  0  0  0  0  0  0  0  0
  141.2952   78.1406  219.7963 H   0  0  0  0  0  0  0  0  0  0  0  0
  139.8180   78.3566  220.8892 H   0  0  0  0  0  0  0  0  0  0  0  0
  142.7036   78.6044  221.6365 H   0  0  0  0  0  0  0  0  0  0  0  0
  141.9990   80.5537  220.4736 H   0  0  0  0  0  0  0  0  0  0  0  0
  140.3616   80.5013  221.2542 H   0  0  0  0  0  0  0  0  0  0  0  0
  142.4501   82.0821  222.0325 H   0  0  0  0  0  0  0  0  0  0  0  0
  141.0368   81.5675  223.0536 H   0  0  0  0  0  0  0  0  0  0  0  0
  143.7216   80.1583  222.8906 H   0  0  0  0  0  0  0  0  0  0  0  0
  143.1539   81.2530  224.2189 H   0  0  0  0  0  0  0  0  0  0  0  0
  142.9405   78.6905  224.5293 H   0  0  0  0  0  0  0  0  0  0  0  0
  141.5377   79.7682  224.9368 H   0  0  0  0  0  0  0  0  0  0  0  0
  141.3930   77.5125  223.3784 H   0  0  0  0  0  0  0  0  0  0  0  0
  140.2374   78.9058  223.3396 H   0  0  0  0  0  0  0  0  0  0  0  0
  1  2  2  0
  2  3  1  0
  3  4  2  0
  4  5  1  0
  5  6  2  0
  6  7  1  0
  7  8  2  0
  8  9  1  0
  9 10  2  0
 10 11  1  0
 11 12  2  0
 12 13  1  0
 13 14  2  0
 14 15  1  0
 15 16  2  0
 16 17  1  0
 17 18  2  0
 10 19  1  0
 19 20  1  0
 20 21  1  0
 21 22  1  0
 22 23  1  0
 23 24  1  0
 24 25  1  0
 25 26  1  0
 19  2  1  0
 26 21  1  0
  8  3  1  0
 18 13  1  0
  4 27  1  0
  5 28  1  0
  6 29  1  0
  7 30  1  0
 11 31  1  0
 12 32  1  0
 14 33  1  0
 15 34  1  0
 16 35  1  0
 18 36  1  0
 20 37  1  0
 20 38  1  0
 21 39  1  0
 22 40  1  0
 22 41  1  0
 23 42  1  0
 23 43  1  0
 24 44  1  0
 24 45  1  0
 25 46  1  0
 25 47  1  0
 26 48  1  0
 26 49  1  0
M  END
>  <smiles>  (19) 
O=c1c2ccccc2nc(/C=C/c2cccnc2)n1CC1CCCCC1

>  <score_type>  (19) 
oracle

>  <origin>  (19) 
autodockgpu

>  <m_score__min__energy>  (19) 
-7.3099999999999996

>  <m_primary>  (19) 
energy

>  <rmsd>  (19) 
4.4446841785953275

>  <m_score__min__rmsd>  (19) 
4.4446841785953275

>  <meeko>  (19) 
{"free_energy": -6.53, "intermolecular_energy": -8.02, "internal_energy": -1.95, "cluster_size": 16, "cluster_id": 5, "rank_in_cluster": 8}

>  <energy>  (19) 
-7.22

>  <cluster_rmsd>  (19) 
0.08

>  <cluster>  (19) 
2

$$$$

     RDKit          3D

 49 52  0  0  0  0  0  0  0  0999 V2000
  138.8340   67.7750  225.2800 O   0  0  0  0  0  0  0  0  0  0  0  0
  139.2410   68.9550  225.1830 C   0  0  0  0  0  0  0  0  0  0  0  0
  139.9230   69.4640  226.2630 C   0  0  0  0  0  0  0  0  0  0  0  0
  140.1340   68.7070  227.3940 C   0  0  0  0  0  0  0  0  0  0  0  0
  140.8140   69.2700  228.4280 C   0  0  0  0  0  0  0  0  0  0  0  0
  141.2660   70.5660  228.3210 C   0  0  0  0  0  0  0  0  0  0  0  0
  141.0620   71.3440  227.1870 C   0  0  0  0  0  0  0  0  0  0  0  0
  140.3730   70.7490  226.1600 C   0  0  0  0  0  0  0  0  0  0  0  0
  140.1420   71.4280  225.0600 N   0  0  0  0  0  0  0  0  0  0  0  0
  139.4660   70.9590  223.9580 C   0  0  0  0  0  0  0  0  0  0  0  0
  139.3670   71.8780  222.8740 C   0  0  0  0  0  0  0  0  0  0  0  0
  139.8500   71.8810  221.6730 C   0  0  0  0  0  0  0  0  0  0  0  0
  141.0780   72.6000  221.2740 C   0  0  0  0  0  0  0  0  0  0  0  0
  141.1650   73.9650  221.2130 C   0  0  0  0  0  0  0  0  0  0  0  0
  142.3620   74.5730  220.8250 C   0  0  0  0  0  0  0  0  0  0  0  0
  143.4810   73.8340  220.4940 C   0  0  0  0  0  0  0  0  0  0  0  0
  143.3640   72.4820  220.5630 N   0  0  0  0  0  0  0  0  0  0  0  0
  142.2170   71.8890  220.9360 C   0  0  0  0  0  0  0  0  0  0  0  0
  139.0220   69.7090  224.0480 N   0  0  0  0  0  0  0  0  0  0  0  0
  138.3100   69.0170  223.0060 C   0  0  0  0  0  0  0  0  0  0  0  0
  139.1320   68.2010  222.0700 C   0  0  0  0  0  0  0  0  0  0  0  0
  138.7830   66.7290  222.2360 C   0  0  0  0  0  0  0  0  0  0  0  0
  139.3200   65.8970  221.1140 C   0  0  0  0  0  0  0  0  0  0  0  0
  140.4100   66.6070  220.3420 C   0  0  0  0  0  0  0  0  0  0  0  0
  139.9060   67.8860  219.7150 C   0  0  0  0  0  0  0  0  0  0  0  0
  138.9660   68.6420  220.6400 C   0  0  0  0  0  0  0  0  0  0  0  0
  139.7621   67.6738  227.4591 H   0  0  0  0  0  0  0  0  0  0  0  0
  141.0020   68.6929  229.3454 H   0  0  0  0  0  0  0  0  0  0  0  0
  141.8120   71.0048  229.1691 H   0  0  0  0  0  0  0  0  0  0  0  0
  141.4318   72.3776  227.1169 H   0  0  0  0  0  0  0  0  0  0  0  0
  138.7569   72.7640  223.1040 H   0  0  0  0  0  0  0  0  0  0  0  0
  139.3122   71.3122  220.9002 H   0  0  0  0  0  0  0  0  0  0  0  0
  140.2922   74.5834  221.4695 H   0  0  0  0  0  0  0  0  0  0  0  0
  142.4145   75.6709  220.7820 H   0  0  0  0  0  0  0  0  0  0  0  0
  144.4213   74.3166  220.1893 H   0  0  0  0  0  0  0  0  0  0  0  0
  142.1816   70.7902  220.9745 H   0  0  0  0  0  0  0  0  0  0  0  0
  137.5840   68.3447  223.4866 H   0  0  0  0  0  0  0  0  0  0  0  0
  137.8599   69.8066  222.3863 H   0  0  0  0  0  0  0  0  0  0  0  0
  140.1921   68.3512  222.3223 H   0  0  0  0  0  0  0  0  0  0  0  0
  139.2102   66.3670  223.1828 H   0  0  0  0  0  0  0  0  0  0  0  0
  137.6869   66.6367  222.2338 H   0  0  0  0  0  0  0  0  0  0  0  0
  139.7309   64.9653  221.5300 H   0  0  0  0  0  0  0  0  0  0  0  0
  138.4919   65.6961  220.4184 H   0  0  0  0  0  0  0  0  0  0  0  0
  141.2350   66.8473  221.0287 H   0  0  0  0  0  0  0  0  0  0  0  0
  140.7505   65.9402  219.5361 H   0  0  0  0  0  0  0  0  0  0  0  0
  140.7667   68.5295  219.4801 H   0  0  0  0  0  0  0  0  0  0  0  0
  139.3471   67.6211  218.8053 H   0  0  0  0  0  0  0  0  0  0  0  0
  139.1831   69.7181  220.5696 H   0  0  0  0  0  0  0  0  0  0  0  0
  137.9316   68.4320  220.3303 H   0  0  0  0  0  0  0  0  0  0  0  0
  1  2  2  0
  2  3  1  0
  3  4  2  0
  4  5  1  0
  5  6  2  0
  6  7  1  0
  7  8  2  0
  8  9  1  0
  9 10  2  0
 10 11  1  0
 11 12  2  0
 12 13  1  0
 13 14  2  0
 14 15  1  0
 15 16  2  0
 16 17  1  0
 17 18  2  0
 10 19  1  0
 19 20  1  0
 20 21  1  0
 21 22  1  0
 22 23  1  0
 23 24  1  0
 24 25  1  0
 25 26  1  0
 19  2  1  0
 26 21  1  0
  8  3  1  0
 18 13  1  0
  4 27  1  0
  5 28  1  0
  6 29  1  0
  7 30  1  0
 11 31  1  0
 12 32  1  0
 14 33  1  0
 15 34  1  0
 16 35  1  0
 18 36  1  0
 20 37  1  0
 20 38  1  0
 21 39  1  0
 22 40  1  0
 22 41  1  0
 23 42  1  0
 23 43  1  0
 24 44  1  0
 24 45  1  0
 25 46  1  0
 25 47  1  0
 26 48  1  0
 26 49  1  0
M  END
>  <smiles>  (20) 
O=c1c2ccccc2nc(/C=C/c2cccnc2)n1CC1CCCCC1

>  <score_type>  (20) 
oracle

>  <origin>  (20) 
autodockgpu

>  <m_score__min__energy>  (20) 
-7.3099999999999996

>  <m_primary>  (20) 
energy

>  <rmsd>  (20) 
12.934568485109686

>  <m_score__min__rmsd>  (20) 
12.934568485109686

>  <meeko>  (20) 
{"free_energy": -7.01, "intermolecular_energy": -8.51, "internal_energy": -1.34, "cluster_size": 9, "cluster_id": 1, "rank_in_cluster": 9}

>  <energy>  (20) 
-7.21

>  <cluster_rmsd>  (20) 
0.1

>  <cluster>  (20) 
2

$$$$

     RDKit          3D

 49 52  0  0  0  0  0  0  0  0999 V2000
  140.5250   74.4480  221.9940 O   0  0  0  0  0  0  0  0  0  0  0  0
  141.3690   74.9940  221.2480 C   0  0  0  0  0  0  0  0  0  0  0  0
  142.4160   74.2110  220.8210 C   0  0  0  0  0  0  0  0  0  0  0  0
  142.5240   72.8940  221.2080 C   0  0  0  0  0  0  0  0  0  0  0  0
  143.5840   72.1730  220.7540 C   0  0  0  0  0  0  0  0  0  0  0  0
  144.5100   72.7720  219.9300 C   0  0  0  0  0  0  0  0  0  0  0  0
  144.4160   74.0990  219.5290 C   0  0  0  0  0  0  0  0  0  0  0  0
  143.3370   74.8010  220.0040 C   0  0  0  0  0  0  0  0  0  0  0  0
  143.1870   76.0610  219.6660 N   0  0  0  0  0  0  0  0  0  0  0  0
  142.1580   76.8790  220.0690 C   0  0  0  0  0  0  0  0  0  0  0  0
  142.2000   78.2050  219.5460 C   0  0  0  0  0  0  0  0  0  0  0  0
  141.2810   79.0400  219.1830 C   0  0  0  0  0  0  0  0  0  0  0  0
  141.0340   80.3400  219.8410 C   0  0  0  0  0  0  0  0  0  0  0  0
  139.8930   81.0740  219.6530 C   0  0  0  0  0  0  0  0  0  0  0  0
  139.7330   82.2970  220.3110 C   0  0  0  0  0  0  0  0  0  0  0  0
  140.7000   82.8010  221.1580 C   0  0  0  0  0  0  0  0  0  0  0  0
  141.8200   82.0510  221.3250 N   0  0  0  0  0  0  0  0  0  0  0  0
  141.9830   80.8740  220.6970 C   0  0  0  0  0  0  0  0  0  0  0  0
  141.2560   76.3150  220.8660 N   0  0  0  0  0  0  0  0  0  0  0  0
  140.0920   76.9840  221.3860 C   0  0  0  0  0  0  0  0  0  0  0  0
  140.3340   78.2400  222.1490 C   0  0  0  0  0  0  0  0  0  0  0  0
  139.0410   78.6890  222.8140 C   0  0  0  0  0  0  0  0  0  0  0  0
  139.2820   79.7420  223.8500 C   0  0  0  0  0  0  0  0  0  0  0  0
  140.6330   80.4040  223.6950 C   0  0  0  0  0  0  0  0  0  0  0  0
  141.7600   79.4080  223.8360 C   0  0  0  0  0  0  0  0  0  0  0  0
  141.4410   78.0860  223.1570 C   0  0  0  0  0  0  0  0  0  0  0  0
  141.7719   72.4366  221.8677 H   0  0  0  0  0  0  0  0  0  0  0  0
  143.7007   71.1182  221.0433 H   0  0  0  0  0  0  0  0  0  0  0  0
  145.3615   72.1739  219.5735 H   0  0  0  0  0  0  0  0  0  0  0  0
  145.1643   74.5607  218.8681 H   0  0  0  0  0  0  0  0  0  0  0  0
  143.2207   78.5974  219.4272 H   0  0  0  0  0  0  0  0  0  0  0  0
  140.6429   78.7649  218.3303 H   0  0  0  0  0  0  0  0  0  0  0  0
  139.1029   80.7013  218.9845 H   0  0  0  0  0  0  0  0  0  0  0  0
  138.8106   82.8741  220.1494 H   0  0  0  0  0  0  0  0  0  0  0  0
  140.5695   83.7642  221.6731 H   0  0  0  0  0  0  0  0  0  0  0  0
  142.9112   80.3098  220.8705 H   0  0  0  0  0  0  0  0  0  0  0  0
  139.4397   77.2300  220.5351 H   0  0  0  0  0  0  0  0  0  0  0  0
  139.6520   76.2829  222.1105 H   0  0  0  0  0  0  0  0  0  0  0  0
  140.6635   79.0148  221.4411 H   0  0  0  0  0  0  0  0  0  0  0  0
  138.3678   79.0948  222.0445 H   0  0  0  0  0  0  0  0  0  0  0  0
  138.5936   77.8166  223.3127 H   0  0  0  0  0  0  0  0  0  0  0  0
  138.4998   80.5103  223.7616 H   0  0  0  0  0  0  0  0  0  0  0  0
  139.2582   79.2546  224.8358 H   0  0  0  0  0  0  0  0  0  0  0  0
  140.6904   80.8694  222.7000 H   0  0  0  0  0  0  0  0  0  0  0  0
  140.7394   81.1584  224.4884 H   0  0  0  0  0  0  0  0  0  0  0  0
  142.6671   79.8314  223.3801 H   0  0  0  0  0  0  0  0  0  0  0  0
  141.9075   79.2119  224.9083 H   0  0  0  0  0  0  0  0  0  0  0  0
  142.3430   77.7197  222.6449 H   0  0  0  0  0  0  0  0  0  0  0  0
  141.1121   77.3719  223.9264 H   0  0  0  0  0  0  0  0  0  0  0  0
  1  2  2  0
  2  3  1  0
  3  4  2  0
  4  5  1  0
  5  6  2  0
  6  7  1  0
  7  8  2  0
  8  9  1  0
  9 10  2  0
 10 11  1  0
 11 12  2  0
 12 13  1  0
 13 14  2  0
 14 15  1  0
 15 16  2  0
 16 17  1  0
 17 18  2  0
 10 19  1  0
 19 20  1  0
 20 21  1  0
 21 22  1  0
 22 23  1  0
 23 24  1  0
 24 25  1  0
 25 26  1  0
 19  2  1  0
 26 21  1  0
  8  3  1  0
 18 13  1  0
  4 27  1  0
  5 28  1  0
  6 29  1  0
  7 30  1  0
 11 31  1  0
 12 32  1  0
 14 33  1  0
 15 34  1  0
 16 35  1  0
 18 36  1  0
 20 37  1  0
 20 38  1  0
 21 39  1  0
 22 40  1  0
 22 41  1  0
 23 42  1  0
 23 43  1  0
 24 44  1  0
 24 45  1  0
 25 46  1  0
 25 47  1  0
 26 48  1  0
 26 49  1  0
M  END
>  <smiles>  (21) 
O=c1c2ccccc2nc(/C=C/c2cccnc2)n1CC1CCCCC1

>  <score_type>  (21) 
oracle

>  <origin>  (21) 
autodockgpu

>  <m_score__min__energy>  (21) 
-7.3099999999999996

>  <m_primary>  (21) 
energy

>  <rmsd>  (21) 
4.537352023742419

>  <m_score__min__rmsd>  (21) 
4.537352023742419

>  <meeko>  (21) 
{"free_energy": -6.44, "intermolecular_energy": -7.93, "internal_energy": -1.85, "cluster_size": 3, "cluster_id": 6, "rank_in_cluster": 2}

>  <energy>  (21) 
-7.21

>  <cluster_rmsd>  (21) 
0.07

>  <cluster>  (21) 
2

$$$$

     RDKit          3D

 49 52  0  0  0  0  0  0  0  0999 V2000
  138.9030   76.7120  222.5220 O   0  0  0  0  0  0  0  0  0  0  0  0
  139.9700   77.0620  221.9680 C   0  0  0  0  0  0  0  0  0  0  0  0
  140.5540   78.2180  222.4290 C   0  0  0  0  0  0  0  0  0  0  0  0
  139.9800   78.9520  223.4430 C   0  0  0  0  0  0  0  0  0  0  0  0
  140.6060   80.0880  223.8520 C   0  0  0  0  0  0  0  0  0  0  0  0
  141.7820   80.4710  223.2470 C   0  0  0  0  0  0  0  0  0  0  0  0
  142.3750   79.7430  222.2220 C   0  0  0  0  0  0  0  0  0  0  0  0
  141.7200   78.6030  221.8320 C   0  0  0  0  0  0  0  0  0  0  0  0
  142.2240   77.8680  220.8670 N   0  0  0  0  0  0  0  0  0  0  0  0
  141.6750   76.7060  220.3770 C   0  0  0  0  0  0  0  0  0  0  0  0
  142.4240   76.0730  219.3440 C   0  0  0  0  0  0  0  0  0  0  0  0
  142.7020   74.8350  219.0860 C   0  0  0  0  0  0  0  0  0  0  0  0
  143.9280   74.1470  219.5410 C   0  0  0  0  0  0  0  0  0  0  0  0
  144.3650   74.1670  220.8380 C   0  0  0  0  0  0  0  0  0  0  0  0
  145.5370   73.4920  221.1910 C   0  0  0  0  0  0  0  0  0  0  0  0
  146.2850   72.7950  220.2630 C   0  0  0  0  0  0  0  0  0  0  0  0
  145.8270   72.7940  218.9840 N   0  0  0  0  0  0  0  0  0  0  0  0
  144.7010   73.4390  218.6350 C   0  0  0  0  0  0  0  0  0  0  0  0
  140.5380   76.3240  220.9500 N   0  0  0  0  0  0  0  0  0  0  0  0
  139.8080   75.1320  220.6040 C   0  0  0  0  0  0  0  0  0  0  0  0
  139.8790   74.0060  221.5760 C   0  0  0  0  0  0  0  0  0  0  0  0
  138.5070   73.3590  221.7070 C   0  0  0  0  0  0  0  0  0  0  0  0
  138.5770   72.0350  222.4010 C   0  0  0  0  0  0  0  0  0  0  0  0
  139.8680   71.8560  223.1700 C   0  0  0  0  0  0  0  0  0  0  0  0
  141.0710   71.9190  222.2590 C   0  0  0  0  0  0  0  0  0  0  0  0
  140.9240   72.9930  221.1930 C   0  0  0  0  0  0  0  0  0  0  0  0
  139.0386   78.6276  223.9105 H   0  0  0  0  0  0  0  0  0  0  0  0
  140.1756   80.6968  224.6608 H   0  0  0  0  0  0  0  0  0  0  0  0
  142.2737   81.3934  223.5897 H   0  0  0  0  0  0  0  0  0  0  0  0
  143.3159   80.0630  221.7506 H   0  0  0  0  0  0  0  0  0  0  0  0
  142.8534   76.7792  218.6181 H   0  0  0  0  0  0  0  0  0  0  0  0
  141.9792   74.2585  218.4899 H   0  0  0  0  0  0  0  0  0  0  0  0
  143.7939   74.7142  221.6025 H   0  0  0  0  0  0  0  0  0  0  0  0
  145.8730   73.5168  222.2381 H   0  0  0  0  0  0  0  0  0  0  0  0
  147.2072   72.2661  220.5456 H   0  0  0  0  0  0  0  0  0  0  0  0
  144.3788   73.4033  217.5838 H   0  0  0  0  0  0  0  0  0  0  0  0
  138.7496   75.4091  220.4898 H   0  0  0  0  0  0  0  0  0  0  0  0
  140.2822   74.7554  219.6857 H   0  0  0  0  0  0  0  0  0  0  0  0
  140.1815   74.4125  222.5523 H   0  0  0  0  0  0  0  0  0  0  0  0
  137.8520   74.0285  222.2839 H   0  0  0  0  0  0  0  0  0  0  0  0
  138.1114   73.1920  220.6943 H   0  0  0  0  0  0  0  0  0  0  0  0
  137.7337   71.9589  223.1032 H   0  0  0  0  0  0  0  0  0  0  0  0
  138.5322   71.2497  221.6320 H   0  0  0  0  0  0  0  0  0  0  0  0
  139.9484   72.6536  223.9232 H   0  0  0  0  0  0  0  0  0  0  0  0
  139.8495   70.8652  223.6475 H   0  0  0  0  0  0  0  0  0  0  0  0
  141.9631   72.1390  222.8638 H   0  0  0  0  0  0  0  0  0  0  0  0
  141.1634   70.9475  221.7514 H   0  0  0  0  0  0  0  0  0  0  0  0
  141.8891   73.5050  221.0651 H   0  0  0  0  0  0  0  0  0  0  0  0
  140.6115   72.5102  220.2553 H   0  0  0  0  0  0  0  0  0  0  0  0
  1  2  2  0
  2  3  1  0
  3  4  2  0
  4  5  1  0
  5  6  2  0
  6  7  1  0
  7  8  2  0
  8  9  1  0
  9 10  2  0
 10 11  1  0
 11 12  2  0
 12 13  1  0
 13 14  2  0
 14 15  1  0
 15 16  2  0
 16 17  1  0
 17 18  2  0
 10 19  1  0
 19 20  1  0
 20 21  1  0
 21 22  1  0
 22 23  1  0
 23 24  1  0
 24 25  1  0
 25 26  1  0
 19  2  1  0
 26 21  1  0
  8  3  1  0
 18 13  1  0
  4 27  1  0
  5 28  1  0
  6 29  1  0
  7 30  1  0
 11 31  1  0
 12 32  1  0
 14 33  1  0
 15 34  1  0
 16 35  1  0
 18 36  1  0
 20 37  1  0
 20 38  1  0
 21 39  1  0
 22 40  1  0
 22 41  1  0
 23 42  1  0
 23 43  1  0
 24 44  1  0
 24 45  1  0
 25 46  1  0
 25 47  1  0
 26 48  1  0
 26 49  1  0
M  END
>  <smiles>  (22) 
O=c1c2ccccc2nc(/C=C/c2cccnc2)n1CC1CCCCC1

>  <score_type>  (22) 
oracle

>  <origin>  (22) 
autodockgpu

>  <m_score__min__energy>  (22) 
-7.3099999999999996

>  <m_primary>  (22) 
energy

>  <rmsd>  (22) 
7.676584739109035

>  <m_score__min__rmsd>  (22) 
7.676584739109035

>  <meeko>  (22) 
{"free_energy": -7.06, "intermolecular_energy": -8.55, "internal_energy": -1.48, "cluster_size": 4, "cluster_id": 4, "rank_in_cluster": 1}

>  <energy>  (22) 
-7.21

>  <cluster_rmsd>  (22) 
0.05

>  <cluster>  (22) 
2

$$$$

     RDKit          3D

 49 52  0  0  0  0  0  0  0  0999 V2000
  140.4830   71.8700  225.3250 O   0  0  0  0  0  0  0  0  0  0  0  0
  139.8970   70.7640  225.3140 C   0  0  0  0  0  0  0  0  0  0  0  0
  140.1850   69.9010  226.3450 C   0  0  0  0  0  0  0  0  0  0  0  0
  141.0820   70.2450  227.3320 C   0  0  0  0  0  0  0  0  0  0  0  0
  141.3260   69.3470  228.3240 C   0  0  0  0  0  0  0  0  0  0  0  0
  140.6780   68.1320  228.3150 C   0  0  0  0  0  0  0  0  0  0  0  0
  139.7700   67.7690  227.3270 C   0  0  0  0  0  0  0  0  0  0  0  0
  139.5450   68.6960  226.3400 C   0  0  0  0  0  0  0  0  0  0  0  0
  138.7000   68.4170  225.3740 N   0  0  0  0  0  0  0  0  0  0  0  0
  138.3830   69.2480  224.3260 C   0  0  0  0  0  0  0  0  0  0  0  0
  137.4160   68.7310  223.4160 C   0  0  0  0  0  0  0  0  0  0  0  0
  136.1360   68.8880  223.3050 C   0  0  0  0  0  0  0  0  0  0  0  0
  135.2660   69.3990  224.3850 C   0  0  0  0  0  0  0  0  0  0  0  0
  135.1750   70.7240  224.7150 C   0  0  0  0  0  0  0  0  0  0  0  0
  134.3300   71.1310  225.7510 C   0  0  0  0  0  0  0  0  0  0  0  0
  133.5690   70.2280  226.4670 C   0  0  0  0  0  0  0  0  0  0  0  0
  133.6790   68.9200  226.1180 N   0  0  0  0  0  0  0  0  0  0  0  0
  134.4890   68.5200  225.1220 C   0  0  0  0  0  0  0  0  0  0  0  0
  139.0020   70.4250  224.3200 N   0  0  0  0  0  0  0  0  0  0  0  0
  138.8020   71.4500  223.3290 C   0  0  0  0  0  0  0  0  0  0  0  0
  139.9970   71.8430  222.5320 C   0  0  0  0  0  0  0  0  0  0  0  0
  140.2380   70.8170  221.4350 C   0  0  0  0  0  0  0  0  0  0  0  0
  141.2050   71.3130  220.4070 C   0  0  0  0  0  0  0  0  0  0  0  0
  142.0210   72.4870  220.9030 C   0  0  0  0  0  0  0  0  0  0  0  0
  141.1430   73.6630  221.2600 C   0  0  0  0  0  0  0  0  0  0  0  0
  139.8660   73.2300  221.9620 C   0  0  0  0  0  0  0  0  0  0  0  0
  141.5883   71.2215  227.3183 H   0  0  0  0  0  0  0  0  0  0  0  0
  142.0363   69.5897  229.1281 H   0  0  0  0  0  0  0  0  0  0  0  0
  140.8880   67.4177  229.1248 H   0  0  0  0  0  0  0  0  0  0  0  0
  139.2607   66.7941  227.3356 H   0  0  0  0  0  0  0  0  0  0  0  0
  137.8439   68.0634  222.6536 H   0  0  0  0  0  0  0  0  0  0  0  0
  135.6659   68.6244  222.3461 H   0  0  0  0  0  0  0  0  0  0  0  0
  135.7675   71.4694  224.1643 H   0  0  0  0  0  0  0  0  0  0  0  0
  134.2694   72.2000  226.0031 H   0  0  0  0  0  0  0  0  0  0  0  0
  132.9050   70.5528  227.2816 H   0  0  0  0  0  0  0  0  0  0  0  0
  134.5368   67.4476  224.8818 H   0  0  0  0  0  0  0  0  0  0  0  0
  138.0347   71.0916  222.6270 H   0  0  0  0  0  0  0  0  0  0  0  0
  138.5183   72.3505  223.8934 H   0  0  0  0  0  0  0  0  0  0  0  0
  140.8674   71.8632  223.2043 H   0  0  0  0  0  0  0  0  0  0  0  0
  140.6414   69.8998  221.8889 H   0  0  0  0  0  0  0  0  0  0  0  0
  139.2782   70.6236  220.9336 H   0  0  0  0  0  0  0  0  0  0  0  0
  141.8895   70.4939  220.1413 H   0  0  0  0  0  0  0  0  0  0  0  0
  140.6249   71.6514  219.5358 H   0  0  0  0  0  0  0  0  0  0  0  0
  142.5846   72.1783  221.7958 H   0  0  0  0  0  0  0  0  0  0  0  0
  142.7017   72.7980  220.0968 H   0  0  0  0  0  0  0  0  0  0  0  0
  141.7037   74.3351  221.9262 H   0  0  0  0  0  0  0  0  0  0  0  0
  140.8609   74.1713  220.3262 H   0  0  0  0  0  0  0  0  0  0  0  0
  139.6502   73.9340  222.7792 H   0  0  0  0  0  0  0  0  0  0  0  0
  139.0495   73.2262  221.2249 H   0  0  0  0  0  0  0  0  0  0  0  0
  1  2  2  0
  2  3  1  0
  3  4  2  0
  4  5  1  0
  5  6  2  0
  6  7  1  0
  7  8  2  0
  8  9  1  0
  9 10  2  0
 10 11  1  0
 11 12  2  0
 12 13  1  0
 13 14  2  0
 14 15  1  0
 15 16  2  0
 16 17  1  0
 17 18  2  0
 10 19  1  0
 19 20  1  0
 20 21  1  0
 21 22  1  0
 22 23  1  0
 23 24  1  0
 24 25  1  0
 25 26  1  0
 19  2  1  0
 26 21  1  0
  8  3  1  0
 18 13  1  0
  4 27  1  0
  5 28  1  0
  6 29  1  0
  7 30  1  0
 11 31  1  0
 12 32  1  0
 14 33  1  0
 15 34  1  0
 16 35  1  0
 18 36  1  0
 20 37  1  0
 20 38  1  0
 21 39  1  0
 22 40  1  0
 22 41  1  0
 23 42  1  0
 23 43  1  0
 24 44  1  0
 24 45  1  0
 25 46  1  0
 25 47  1  0
 26 48  1  0
 26 49  1  0
M  END
>  <smiles>  (23) 
O=c1c2ccccc2nc(/C=C/c2cccnc2)n1CC1CCCCC1

>  <score_type>  (23) 
oracle

>  <origin>  (23) 
autodockgpu

>  <m_score__min__energy>  (23) 
-7.3099999999999996

>  <m_primary>  (23) 
energy

>  <rmsd>  (23) 
10.296642617726688

>  <m_score__min__rmsd>  (23) 
10.296642617726688

>  <meeko>  (23) 
{"free_energy": -7.23, "intermolecular_energy": -8.72, "internal_energy": -1.38, "cluster_size": 17, "cluster_id": 2, "rank_in_cluster": 3}

>  <energy>  (23) 
-7.21

>  <cluster_rmsd>  (23) 
0.06

>  <cluster>  (23) 
2

$$$$

     RDKit          3D

 49 52  0  0  0  0  0  0  0  0999 V2000
  140.5840   71.8890  225.3000 O   0  0  0  0  0  0  0  0  0  0  0  0
  139.9540   70.8080  225.2830 C   0  0  0  0  0  0  0  0  0  0  0  0
  140.1820   69.9440  226.3280 C   0  0  0  0  0  0  0  0  0  0  0  0
  141.0680   70.2600  227.3330 C   0  0  0  0  0  0  0  0  0  0  0  0
  141.2510   69.3610  228.3380 C   0  0  0  0  0  0  0  0  0  0  0  0
  140.5550   68.1730  228.3230 C   0  0  0  0  0  0  0  0  0  0  0  0
  139.6560   67.8390  227.3160 C   0  0  0  0  0  0  0  0  0  0  0  0
  139.4940   68.7650  226.3170 C   0  0  0  0  0  0  0  0  0  0  0  0
  138.6610   68.5120  225.3330 N   0  0  0  0  0  0  0  0  0  0  0  0
  138.4030   69.3460  224.2700 C   0  0  0  0  0  0  0  0  0  0  0  0
  137.4380   68.8600  223.3420 C   0  0  0  0  0  0  0  0  0  0  0  0
  136.1460   68.9240  223.2970 C   0  0  0  0  0  0  0  0  0  0  0  0
  135.3020   69.4520  224.3900 C   0  0  0  0  0  0  0  0  0  0  0  0
  135.1700   70.7870  224.6600 C   0  0  0  0  0  0  0  0  0  0  0  0
  134.3540   71.2100  225.7140 C   0  0  0  0  0  0  0  0  0  0  0  0
  133.6640   70.3130  226.5060 C   0  0  0  0  0  0  0  0  0  0  0  0
  133.8150   68.9950  226.2140 N   0  0  0  0  0  0  0  0  0  0  0  0
  134.5970   68.5790  225.2030 C   0  0  0  0  0  0  0  0  0  0  0  0
  139.0690   70.4970  224.2710 N   0  0  0  0  0  0  0  0  0  0  0  0
  138.9350   71.5190  223.2670 C   0  0  0  0  0  0  0  0  0  0  0  0
  140.1510   71.8220  222.4620 C   0  0  0  0  0  0  0  0  0  0  0  0
  140.2860   70.8020  221.3410 C   0  0  0  0  0  0  0  0  0  0  0  0
  141.2820   71.2330  220.3100 C   0  0  0  0  0  0  0  0  0  0  0  0
  142.2040   72.3180  220.8190 C   0  0  0  0  0  0  0  0  0  0  0  0
  141.4390   73.5600  221.2110 C   0  0  0  0  0  0  0  0  0  0  0  0
  140.1370   73.2270  221.9210 C   0  0  0  0  0  0  0  0  0  0  0  0
  141.6141   71.2148  227.3239 H   0  0  0  0  0  0  0  0  0  0  0  0
  141.9508   69.5820  229.1575 H   0  0  0  0  0  0  0  0  0  0  0  0
  140.7170   67.4575  229.1427 H   0  0  0  0  0  0  0  0  0  0  0  0
  139.1060   66.8864  227.3203 H   0  0  0  0  0  0  0  0  0  0  0  0
  137.8803   68.3211  222.4912 H   0  0  0  0  0  0  0  0  0  0  0  0
  135.6439   68.5625  222.3875 H   0  0  0  0  0  0  0  0  0  0  0  0
  135.7058   71.5275  224.0479 H   0  0  0  0  0  0  0  0  0  0  0  0
  134.2590   72.2867  225.9180 H   0  0  0  0  0  0  0  0  0  0  0  0
  133.0227   70.6500  227.3338 H   0  0  0  0  0  0  0  0  0  0  0  0
  134.6809   67.4988  225.0128 H   0  0  0  0  0  0  0  0  0  0  0  0
  138.1437   71.2027  222.5714 H   0  0  0  0  0  0  0  0  0  0  0  0
  138.7136   72.4437  223.8200 H   0  0  0  0  0  0  0  0  0  0  0  0
  141.0276   71.7514  223.1228 H   0  0  0  0  0  0  0  0  0  0  0  0
  140.6112   69.8429  221.7704 H   0  0  0  0  0  0  0  0  0  0  0  0
  139.3069   70.7051  220.8491 H   0  0  0  0  0  0  0  0  0  0  0  0
  141.8878   70.3625  220.0182 H   0  0  0  0  0  0  0  0  0  0  0  0
  140.7243   71.6405  219.4539 H   0  0  0  0  0  0  0  0  0  0  0  0
  142.7473   71.9412  221.6981 H   0  0  0  0  0  0  0  0  0  0  0  0
  142.9007   72.5843  220.0105 H   0  0  0  0  0  0  0  0  0  0  0  0
  142.0651   74.1653  221.8830 H   0  0  0  0  0  0  0  0  0  0  0  0
  141.1930   74.1116  220.2916 H   0  0  0  0  0  0  0  0  0  0  0  0
  139.9937   73.9302  222.7546 H   0  0  0  0  0  0  0  0  0  0  0  0
  139.3150   73.3105  221.1948 H   0  0  0  0  0  0  0  0  0  0  0  0
  1  2  2  0
  2  3  1  0
  3  4  2  0
  4  5  1  0
  5  6  2  0
  6  7  1  0
  7  8  2  0
  8  9  1  0
  9 10  2  0
 10 11  1  0
 11 12  2  0
 12 13  1  0
 13 14  2  0
 14 15  1  0
 15 16  2  0
 16 17  1  0
 17 18  2  0
 10 19  1  0
 19 20  1  0
 20 21  1  0
 21 22  1  0
 22 23  1  0
 23 24  1  0
 24 25  1  0
 25 26  1  0
 19  2  1  0
 26 21  1  0
  8  3  1  0
 18 13  1  0
  4 27  1  0
  5 28  1  0
  6 29  1  0
  7 30  1  0
 11 31  1  0
 12 32  1  0
 14 33  1  0
 15 34  1  0
 16 35  1  0
 18 36  1  0
 20 37  1  0
 20 38  1  0
 21 39  1  0
 22 40  1  0
 22 41  1  0
 23 42  1  0
 23 43  1  0
 24 44  1  0
 24 45  1  0
 25 46  1  0
 25 47  1  0
 26 48  1  0
 26 49  1  0
M  END
>  <smiles>  (24) 
O=c1c2ccccc2nc(/C=C/c2cccnc2)n1CC1CCCCC1

>  <score_type>  (24) 
oracle

>  <origin>  (24) 
autodockgpu

>  <m_score__min__energy>  (24) 
-7.3099999999999996

>  <m_primary>  (24) 
energy

>  <rmsd>  (24) 
10.312871516574813

>  <m_score__min__rmsd>  (24) 
10.312871516574813

>  <meeko>  (24) 
{"free_energy": -7.22, "intermolecular_energy": -8.71, "internal_energy": -1.39, "cluster_size": 17, "cluster_id": 2, "rank_in_cluster": 9}

>  <energy>  (24) 
-7.21

>  <cluster_rmsd>  (24) 
0.21

>  <cluster>  (24) 
2

$$$$

     RDKit          3D

 49 52  0  0  0  0  0  0  0  0999 V2000
  140.5670   71.8750  225.2970 O   0  0  0  0  0  0  0  0  0  0  0  0
  139.9490   70.7870  225.2820 C   0  0  0  0  0  0  0  0  0  0  0  0
  140.1860   69.9270  226.3280 C   0  0  0  0  0  0  0  0  0  0  0  0
  141.0690   70.2540  227.3330 C   0  0  0  0  0  0  0  0  0  0  0  0
  141.2620   69.3590  228.3390 C   0  0  0  0  0  0  0  0  0  0  0  0
  140.5790   68.1640  228.3260 C   0  0  0  0  0  0  0  0  0  0  0  0
  139.6840   67.8180  227.3200 C   0  0  0  0  0  0  0  0  0  0  0  0
  139.5110   68.7400  226.3190 C   0  0  0  0  0  0  0  0  0  0  0  0
  138.6820   68.4770  225.3350 N   0  0  0  0  0  0  0  0  0  0  0  0
  138.4140   69.3070  224.2720 C   0  0  0  0  0  0  0  0  0  0  0  0
  137.4540   68.8090  223.3440 C   0  0  0  0  0  0  0  0  0  0  0  0
  136.1660   68.9070  223.2680 C   0  0  0  0  0  0  0  0  0  0  0  0
  135.3060   69.4080  224.3610 C   0  0  0  0  0  0  0  0  0  0  0  0
  135.1760   70.7360  224.6680 C   0  0  0  0  0  0  0  0  0  0  0  0
  134.3430   71.1320  225.7190 C   0  0  0  0  0  0  0  0  0  0  0  0
  133.6360   70.2160  226.4730 C   0  0  0  0  0  0  0  0  0  0  0  0
  133.7860   68.9070  226.1460 N   0  0  0  0  0  0  0  0  0  0  0  0
  134.5830   68.5170  225.1370 C   0  0  0  0  0  0  0  0  0  0  0  0
  139.0680   70.4640  224.2700 N   0  0  0  0  0  0  0  0  0  0  0  0
  138.9220   71.4840  223.2650 C   0  0  0  0  0  0  0  0  0  0  0  0
  140.1280   71.7810  222.4420 C   0  0  0  0  0  0  0  0  0  0  0  0
  140.2290   70.7740  221.3060 C   0  0  0  0  0  0  0  0  0  0  0  0
  141.2120   71.2050  220.2630 C   0  0  0  0  0  0  0  0  0  0  0  0
  142.1580   72.2710  220.7690 C   0  0  0  0  0  0  0  0  0  0  0  0
  141.4170   73.5180  221.1910 C   0  0  0  0  0  0  0  0  0  0  0  0
  140.1230   73.1930  221.9200 C   0  0  0  0  0  0  0  0  0  0  0  0
  141.6047   71.2147  227.3225 H   0  0  0  0  0  0  0  0  0  0  0  0
  141.9596   69.5888  229.1579 H   0  0  0  0  0  0  0  0  0  0  0  0
  140.7487   67.4520  229.1471 H   0  0  0  0  0  0  0  0  0  0  0  0
  139.1450   66.8591  227.3263 H   0  0  0  0  0  0  0  0  0  0  0  0
  137.8980   68.2222  222.5264 H   0  0  0  0  0  0  0  0  0  0  0  0
  135.6802   68.5979  222.3307 H   0  0  0  0  0  0  0  0  0  0  0  0
  135.7267   71.4912  224.0880 H   0  0  0  0  0  0  0  0  0  0  0  0
  134.2482   72.2029  225.9517 H   0  0  0  0  0  0  0  0  0  0  0  0
  132.9824   70.5321  227.2993 H   0  0  0  0  0  0  0  0  0  0  0  0
  134.6650   67.4423  224.9174 H   0  0  0  0  0  0  0  0  0  0  0  0
  138.1201   71.1680  222.5816 H   0  0  0  0  0  0  0  0  0  0  0  0
  138.7104   72.4109  223.8182 H   0  0  0  0  0  0  0  0  0  0  0  0
  141.0155   71.6897  223.0854 H   0  0  0  0  0  0  0  0  0  0  0  0
  140.5488   69.8051  221.7172 H   0  0  0  0  0  0  0  0  0  0  0  0
  139.2401   70.6965  220.8306 H   0  0  0  0  0  0  0  0  0  0  0  0
  141.8005   70.3303  219.9491 H   0  0  0  0  0  0  0  0  0  0  0  0
  140.6446   71.6312  219.4225 H   0  0  0  0  0  0  0  0  0  0  0  0
  142.7121   71.8755  221.6331 H   0  0  0  0  0  0  0  0  0  0  0  0
  142.8435   72.5385  219.9514 H   0  0  0  0  0  0  0  0  0  0  0  0
  142.0632   74.1058  221.8595 H   0  0  0  0  0  0  0  0  0  0  0  0
  141.1623   74.0850  220.2835 H   0  0  0  0  0  0  0  0  0  0  0  0
  140.0041   73.8869  222.7652 H   0  0  0  0  0  0  0  0  0  0  0  0
  139.2893   73.2973  221.2100 H   0  0  0  0  0  0  0  0  0  0  0  0
  1  2  2  0
  2  3  1  0
  3  4  2  0
  4  5  1  0
  5  6  2  0
  6  7  1  0
  7  8  2  0
  8  9  1  0
  9 10  2  0
 10 11  1  0
 11 12  2  0
 12 13  1  0
 13 14  2  0
 14 15  1  0
 15 16  2  0
 16 17  1  0
 17 18  2  0
 10 19  1  0
 19 20  1  0
 20 21  1  0
 21 22  1  0
 22 23  1  0
 23 24  1  0
 24 25  1  0
 25 26  1  0
 19  2  1  0
 26 21  1  0
  8  3  1  0
 18 13  1  0
  4 27  1  0
  5 28  1  0
  6 29  1  0
  7 30  1  0
 11 31  1  0
 12 32  1  0
 14 33  1  0
 15 34  1  0
 16 35  1  0
 18 36  1  0
 20 37  1  0
 20 38  1  0
 21 39  1  0
 22 40  1  0
 22 41  1  0
 23 42  1  0
 23 43  1  0
 24 44  1  0
 24 45  1  0
 25 46  1  0
 25 47  1  0
 26 48  1  0
 26 49  1  0
M  END
>  <smiles>  (25) 
O=c1c2ccccc2nc(/C=C/c2cccnc2)n1CC1CCCCC1

>  <score_type>  (25) 
oracle

>  <origin>  (25) 
autodockgpu

>  <m_score__min__energy>  (25) 
-7.3099999999999996

>  <m_primary>  (25) 
energy

>  <rmsd>  (25) 
10.331883640010428

>  <m_score__min__rmsd>  (25) 
10.331883640010428

>  <meeko>  (25) 
{"free_energy": -7.21, "intermolecular_energy": -8.7, "internal_energy": -1.39, "cluster_size": 17, "cluster_id": 2, "rank_in_cluster": 11}

>  <energy>  (25) 
-7.18

>  <cluster_rmsd>  (25) 
0.06

>  <cluster>  (25) 
2

$$$$

     RDKit          3D

 49 52  0  0  0  0  0  0  0  0999 V2000
  142.8350   76.4250  219.8060 O   0  0  0  0  0  0  0  0  0  0  0  0
  141.9300   75.9000  220.4940 C   0  0  0  0  0  0  0  0  0  0  0  0
  142.0300   74.5470  220.7180 C   0  0  0  0  0  0  0  0  0  0  0  0
  143.0740   73.8140  220.1980 C   0  0  0  0  0  0  0  0  0  0  0  0
  143.1150   72.4790  220.4530 C   0  0  0  0  0  0  0  0  0  0  0  0
  142.1230   71.9020  221.2140 C   0  0  0  0  0  0  0  0  0  0  0  0
  141.0630   72.6270  221.7470 C   0  0  0  0  0  0  0  0  0  0  0  0
  141.0490   73.9700  221.4720 C   0  0  0  0  0  0  0  0  0  0  0  0
  140.0740   74.7150  221.9420 N   0  0  0  0  0  0  0  0  0  0  0  0
  139.9360   76.0690  221.7440 C   0  0  0  0  0  0  0  0  0  0  0  0
  138.8060   76.6600  222.3800 C   0  0  0  0  0  0  0  0  0  0  0  0
  137.9540   77.5600  222.0070 C   0  0  0  0  0  0  0  0  0  0  0  0
  138.0870   79.0020  222.3030 C   0  0  0  0  0  0  0  0  0  0  0  0
  138.3280   79.4940  223.5580 C   0  0  0  0  0  0  0  0  0  0  0  0
  138.4400   80.8730  223.7580 C   0  0  0  0  0  0  0  0  0  0  0  0
  138.3140   81.7730  222.7180 C   0  0  0  0  0  0  0  0  0  0  0  0
  138.0750   81.2560  221.4850 N   0  0  0  0  0  0  0  0  0  0  0  0
  137.9670   79.9310  221.2830 C   0  0  0  0  0  0  0  0  0  0  0  0
  140.8860   76.6400  221.0090 N   0  0  0  0  0  0  0  0  0  0  0  0
  140.9440   78.0440  220.6970 C   0  0  0  0  0  0  0  0  0  0  0  0
  141.6800   78.9080  221.6620 C   0  0  0  0  0  0  0  0  0  0  0  0
  141.4010   80.3710  221.3500 C   0  0  0  0  0  0  0  0  0  0  0  0
  141.8320   81.2720  222.4640 C   0  0  0  0  0  0  0  0  0  0  0  0
  142.8030   80.5970  223.4070 C   0  0  0  0  0  0  0  0  0  0  0  0
  142.1890   79.3820  224.0610 C   0  0  0  0  0  0  0  0  0  0  0  0
  141.3380   78.5800  223.0900 C   0  0  0  0  0  0  0  0  0  0  0  0
  143.8548   74.2965  219.5918 H   0  0  0  0  0  0  0  0  0  0  0  0
  143.9352   71.8640  220.0540 H   0  0  0  0  0  0  0  0  0  0  0  0
  142.1712   70.8204  221.4087 H   0  0  0  0  0  0  0  0  0  0  0  0
  140.2800   72.1500  222.3548 H   0  0  0  0  0  0  0  0  0  0  0  0
  138.6203   76.2730  223.3928 H   0  0  0  0  0  0  0  0  0  0  0  0
  137.0751   77.2309  221.4333 H   0  0  0  0  0  0  0  0  0  0  0  0
  138.4334   78.8044  224.4085 H   0  0  0  0  0  0  0  0  0  0  0  0
  138.6340   81.2520  224.7723 H   0  0  0  0  0  0  0  0  0  0  0  0
  138.4030   82.8573  222.8806 H   0  0  0  0  0  0  0  0  0  0  0  0
  137.7748   79.5689  220.2622 H   0  0  0  0  0  0  0  0  0  0  0  0
  141.4303   78.1488  219.7159 H   0  0  0  0  0  0  0  0  0  0  0  0
  139.9014   78.3933  220.7289 H   0  0  0  0  0  0  0  0  0  0  0  0
  142.7566   78.7135  221.5474 H   0  0  0  0  0  0  0  0  0  0  0  0
  141.9462   80.6498  220.4362 H   0  0  0  0  0  0  0  0  0  0  0  0
  140.3156   80.4897  221.2166 H   0  0  0  0  0  0  0  0  0  0  0  0
  142.3174   82.1599  222.0328 H   0  0  0  0  0  0  0  0  0  0  0  0
  140.9364   81.5437  223.0419 H   0  0  0  0  0  0  0  0  0  0  0  0
  143.6931   80.2860  222.8404 H   0  0  0  0  0  0  0  0  0  0  0  0
  143.0709   81.3144  224.1966 H   0  0  0  0  0  0  0  0  0  0  0  0
  142.9956   78.7381  224.4415 H   0  0  0  0  0  0  0  0  0  0  0  0
  141.5374   79.7287  224.8767 H   0  0  0  0  0  0  0  0  0  0  0  0
  141.5119   77.5077  223.2627 H   0  0  0  0  0  0  0  0  0  0  0  0
  140.2820   78.8360  223.2612 H   0  0  0  0  0  0  0  0  0  0  0  0
  1  2  2  0
  2  3  1  0
  3  4  2  0
  4  5  1  0
  5  6  2  0
  6  7  1  0
  7  8  2  0
  8  9  1  0
  9 10  2  0
 10 11  1  0
 11 12  2  0
 12 13  1  0
 13 14  2  0
 14 15  1  0
 15 16  2  0
 16 17  1  0
 17 18  2  0
 10 19  1  0
 19 20  1  0
 20 21  1  0
 21 22  1  0
 22 23  1  0
 23 24  1  0
 24 25  1  0
 25 26  1  0
 19  2  1  0
 26 21  1  0
  8  3  1  0
 18 13  1  0
  4 27  1  0
  5 28  1  0
  6 29  1  0
  7 30  1  0
 11 31  1  0
 12 32  1  0
 14 33  1  0
 15 34  1  0
 16 35  1  0
 18 36  1  0
 20 37  1  0
 20 38  1  0
 21 39  1  0
 22 40  1  0
 22 41  1  0
 23 42  1  0
 23 43  1  0
 24 44  1  0
 24 45  1  0
 25 46  1  0
 25 47  1  0
 26 48  1  0
 26 49  1  0
M  END
>  <smiles>  (26) 
O=c1c2ccccc2nc(/C=C/c2cccnc2)n1CC1CCCCC1

>  <score_type>  (26) 
oracle

>  <origin>  (26) 
autodockgpu

>  <m_score__min__energy>  (26) 
-7.3099999999999996

>  <m_primary>  (26) 
energy

>  <rmsd>  (26) 
4.416312782692528

>  <m_score__min__rmsd>  (26) 
4.416312782692528

>  <meeko>  (26) 
{"free_energy": -6.54, "intermolecular_energy": -8.03, "internal_energy": -1.94, "cluster_size": 16, "cluster_id": 5, "rank_in_cluster": 6}

>  <energy>  (26) 
-6.84

>  <cluster_rmsd>  (26) 
0.45

>  <cluster>  (26) 
2

$$$$

     RDKit          3D

 49 52  0  0  0  0  0  0  0  0999 V2000
  138.7570   75.2810  222.5930 O   0  0  0  0  0  0  0  0  0  0  0  0
  139.7400   74.8930  221.9230 C   0  0  0  0  0  0  0  0  0  0  0  0
  139.9670   73.5370  221.8850 C   0  0  0  0  0  0  0  0  0  0  0  0
  139.1500   72.6600  222.5630 C   0  0  0  0  0  0  0  0  0  0  0  0
  139.4290   71.3310  222.4890 C   0  0  0  0  0  0  0  0  0  0  0  0
  140.5070   70.9020  221.7470 C   0  0  0  0  0  0  0  0  0  0  0  0
  141.3410   71.7750  221.0570 C   0  0  0  0  0  0  0  0  0  0  0  0
  141.0350   73.1080  221.1520 C   0  0  0  0  0  0  0  0  0  0  0  0
  141.7830   73.9880  220.5260 N   0  0  0  0  0  0  0  0  0  0  0  0
  141.5930   75.3500  220.5350 C   0  0  0  0  0  0  0  0  0  0  0  0
  142.5240   76.0950  219.7550 C   0  0  0  0  0  0  0  0  0  0  0  0
  143.6680   75.8000  219.2270 C   0  0  0  0  0  0  0  0  0  0  0  0
  144.4530   74.5950  219.5650 C   0  0  0  0  0  0  0  0  0  0  0  0
  144.8150   74.2670  220.8440 C   0  0  0  0  0  0  0  0  0  0  0  0
  145.5590   73.1080  221.0850 C   0  0  0  0  0  0  0  0  0  0  0  0
  145.9510   72.2680  220.0610 C   0  0  0  0  0  0  0  0  0  0  0  0
  145.5780   72.6190  218.8030 N   0  0  0  0  0  0  0  0  0  0  0  0
  144.8610   73.7310  218.5620 C   0  0  0  0  0  0  0  0  0  0  0  0
  140.5550   75.7780  221.2480 N   0  0  0  0  0  0  0  0  0  0  0  0
  140.1660   77.1580  221.3770 C   0  0  0  0  0  0  0  0  0  0  0  0
  141.1920   78.0890  221.9230 C   0  0  0  0  0  0  0  0  0  0  0  0
  141.4450   79.2090  220.9250 C   0  0  0  0  0  0  0  0  0  0  0  0
  142.2060   80.3430  221.5380 C   0  0  0  0  0  0  0  0  0  0  0  0
  142.9010   79.9420  222.8210 C   0  0  0  0  0  0  0  0  0  0  0  0
  141.9140   79.4820  223.8680 C   0  0  0  0  0  0  0  0  0  0  0  0
  140.8010   78.6360  223.2690 C   0  0  0  0  0  0  0  0  0  0  0  0
  138.2938   73.0250  223.1493 H   0  0  0  0  0  0  0  0  0  0  0  0
  138.7972   70.6028  223.0188 H   0  0  0  0  0  0  0  0  0  0  0  0
  140.7172   69.8234  221.6981 H   0  0  0  0  0  0  0  0  0  0  0  0
  142.1980   71.4162  220.4681 H   0  0  0  0  0  0  0  0  0  0  0  0
  142.2060   77.1303  219.5628 H   0  0  0  0  0  0  0  0  0  0  0  0
  144.0827   76.4910  218.4783 H   0  0  0  0  0  0  0  0  0  0  0  0
  144.5204   74.9155  221.6822 H   0  0  0  0  0  0  0  0  0  0  0  0
  145.8400   72.8582  222.1188 H   0  0  0  0  0  0  0  0  0  0  0  0
  146.5375   71.3579  220.2551 H   0  0  0  0  0  0  0  0  0  0  0  0
  144.5865   73.9647  217.5228 H   0  0  0  0  0  0  0  0  0  0  0  0
  139.8838   77.5205  220.3775 H   0  0  0  0  0  0  0  0  0  0  0  0
  139.3479   77.1625  222.1123 H   0  0  0  0  0  0  0  0  0  0  0  0
  142.1235   77.5241  222.0755 H   0  0  0  0  0  0  0  0  0  0  0  0
  142.0240   78.8080  220.0800 H   0  0  0  0  0  0  0  0  0  0  0  0
  140.4702   79.5942  220.5912 H   0  0  0  0  0  0  0  0  0  0  0  0
  142.9630   80.6903  220.8194 H   0  0  0  0  0  0  0  0  0  0  0  0
  141.4864   81.1390  221.7800 H   0  0  0  0  0  0  0  0  0  0  0  0
  143.6016   79.1217  222.6061 H   0  0  0  0  0  0  0  0  0  0  0  0
  143.4335   80.8211  223.2130 H   0  0  0  0  0  0  0  0  0  0  0  0
  142.4481   78.8844  224.6214 H   0  0  0  0  0  0  0  0  0  0  0  0
  141.4568   80.3748  224.3195 H   0  0  0  0  0  0  0  0  0  0  0  0
  140.5842   77.7974  223.9471 H   0  0  0  0  0  0  0  0  0  0  0  0
  139.9132   79.2725  223.1398 H   0  0  0  0  0  0  0  0  0  0  0  0
  1  2  2  0
  2  3  1  0
  3  4  2  0
  4  5  1  0
  5  6  2  0
  6  7  1  0
  7  8  2  0
  8  9  1  0
  9 10  2  0
 10 11  1  0
 11 12  2  0
 12 13  1  0
 13 14  2  0
 14 15  1  0
 15 16  2  0
 16 17  1  0
 17 18  2  0
 10 19  1  0
 19 20  1  0
 20 21  1  0
 21 22  1  0
 22 23  1  0
 23 24  1  0
 24 25  1  0
 25 26  1  0
 19  2  1  0
 26 21  1  0
  8  3  1  0
 18 13  1  0
  4 27  1  0
  5 28  1  0
  6 29  1  0
  7 30  1  0
 11 31  1  0
 12 32  1  0
 14 33  1  0
 15 34  1  0
 16 35  1  0
 18 36  1  0
 20 37  1  0
 20 38  1  0
 21 39  1  0
 22 40  1  0
 22 41  1  0
 23 42  1  0
 23 43  1  0
 24 44  1  0
 24 45  1  0
 25 46  1  0
 25 47  1  0
 26 48  1  0
 26 49  1  0
M  END
>  <smiles>  (27) 
O=c1c2ccccc2nc(/C=C/c2cccnc2)n1CC1CCCCC1

>  <score_type>  (27) 
oracle

>  <origin>  (27) 
autodockgpu

>  <m_score__min__energy>  (27) 
-7.3099999999999996

>  <m_primary>  (27) 
energy

>  <rmsd>  (27) 
5.0259649603509935

>  <m_score__min__rmsd>  (27) 
5.0259649603509935

>  <meeko>  (27) 
{"free_energy": -7.08, "intermolecular_energy": -8.58, "internal_energy": -1.42, "cluster_size": 1, "cluster_id": 3, "rank_in_cluster": 1}

>  <energy>  (27) 
-7.08

>  <cluster_rmsd>  (27) 
0.0

>  <cluster>  (27) 
3

$$$$

     RDKit          3D

 49 52  0  0  0  0  0  0  0  0999 V2000
  139.0320   76.7720  222.6400 O   0  0  0  0  0  0  0  0  0  0  0  0
  140.0630   77.1030  222.0110 C   0  0  0  0  0  0  0  0  0  0  0  0
  140.7020   78.2460  222.4290 C   0  0  0  0  0  0  0  0  0  0  0  0
  140.2190   78.9870  223.4850 C   0  0  0  0  0  0  0  0  0  0  0  0
  140.8960   80.1090  223.8490 C   0  0  0  0  0  0  0  0  0  0  0  0
  142.0320   80.4710  223.1610 C   0  0  0  0  0  0  0  0  0  0  0  0
  142.5330   79.7350  222.0930 C   0  0  0  0  0  0  0  0  0  0  0  0
  141.8290   78.6090  221.7490 C   0  0  0  0  0  0  0  0  0  0  0  0
  142.2460   77.8680  220.7480 N   0  0  0  0  0  0  0  0  0  0  0  0
  141.6380   76.7200  220.2970 C   0  0  0  0  0  0  0  0  0  0  0  0
  142.2970   76.0750  219.2100 C   0  0  0  0  0  0  0  0  0  0  0  0
  142.6490   74.8490  218.9930 C   0  0  0  0  0  0  0  0  0  0  0  0
  143.8970   74.2410  219.4990 C   0  0  0  0  0  0  0  0  0  0  0  0
  144.2770   74.2850  220.8140 C   0  0  0  0  0  0  0  0  0  0  0  0
  145.4750   73.6880  221.2150 C   0  0  0  0  0  0  0  0  0  0  0  0
  146.3050   73.0440  220.3180 C   0  0  0  0  0  0  0  0  0  0  0  0
  145.9030   73.0170  219.0210 N   0  0  0  0  0  0  0  0  0  0  0  0
  144.7520   73.5880  218.6260 C   0  0  0  0  0  0  0  0  0  0  0  0
  140.5390   76.3580  220.9520 N   0  0  0  0  0  0  0  0  0  0  0  0
  139.7620   75.1820  220.6580 C   0  0  0  0  0  0  0  0  0  0  0  0
  139.9240   74.0310  221.5890 C   0  0  0  0  0  0  0  0  0  0  0  0
  138.5670   73.3960  221.8540 C   0  0  0  0  0  0  0  0  0  0  0  0
  138.6940   72.0540  222.5040 C   0  0  0  0  0  0  0  0  0  0  0  0
  140.0590   71.8410  223.1210 C   0  0  0  0  0  0  0  0  0  0  0  0
  141.1560   71.9140  222.0850 C   0  0  0  0  0  0  0  0  0  0  0  0
  140.9070   73.0170  221.0680 C   0  0  0  0  0  0  0  0  0  0  0  0
  139.3087   78.6790  224.0203 H   0  0  0  0  0  0  0  0  0  0  0  0
  140.5379   80.7235  224.6881 H   0  0  0  0  0  0  0  0  0  0  0  0
  142.5664   81.3817  223.4694 H   0  0  0  0  0  0  0  0  0  0  0  0
  143.4427   80.0386  221.5542 H   0  0  0  0  0  0  0  0  0  0  0  0
  142.5596   76.7583  218.3890 H   0  0  0  0  0  0  0  0  0  0  0  0
  141.9759   74.2188  218.3932 H   0  0  0  0  0  0  0  0  0  0  0  0
  143.6393   74.7902  221.5543 H   0  0  0  0  0  0  0  0  0  0  0  0
  145.7654   73.7321  222.2750 H   0  0  0  0  0  0  0  0  0  0  0  0
  147.2469   72.5752  220.6390 H   0  0  0  0  0  0  0  0  0  0  0  0
  144.4767   73.5344  217.5624 H   0  0  0  0  0  0  0  0  0  0  0  0
  138.7008   75.4716  220.6655 H   0  0  0  0  0  0  0  0  0  0  0  0
  140.1300   74.8246  219.6850 H   0  0  0  0  0  0  0  0  0  0  0  0
  140.3370   74.4089  222.5359 H   0  0  0  0  0  0  0  0  0  0  0  0
  137.9882   74.0576  222.5152 H   0  0  0  0  0  0  0  0  0  0  0  0
  138.0611   73.2589  220.8869 H   0  0  0  0  0  0  0  0  0  0  0  0
  137.9322   71.9697  223.2930 H   0  0  0  0  0  0  0  0  0  0  0  0
  138.5535   71.2890  221.7262 H   0  0  0  0  0  0  0  0  0  0  0  0
  140.2327   72.6180  223.8800 H   0  0  0  0  0  0  0  0  0  0  0  0
  140.0792   70.8383  223.5729 H   0  0  0  0  0  0  0  0  0  0  0  0
  142.1119   72.1088  222.5932 H   0  0  0  0  0  0  0  0  0  0  0  0
  141.1795   70.9549  221.5470 H   0  0  0  0  0  0  0  0  0  0  0  0
  141.8590   73.5218  220.8469 H   0  0  0  0  0  0  0  0  0  0  0  0
  140.4868   72.5620  220.1589 H   0  0  0  0  0  0  0  0  0  0  0  0
  1  2  2  0
  2  3  1  0
  3  4  2  0
  4  5  1  0
  5  6  2  0
  6  7  1  0
  7  8  2  0
  8  9  1  0
  9 10  2  0
 10 11  1  0
 11 12  2  0
 12 13  1  0
 13 14  2  0
 14 15  1  0
 15 16  2  0
 16 17  1  0
 17 18  2  0
 10 19  1  0
 19 20  1  0
 20 21  1  0
 21 22  1  0
 22 23  1  0
 23 24  1  0
 24 25  1  0
 25 26  1  0
 19  2  1  0
 26 21  1  0
  8  3  1  0
 18 13  1  0
  4 27  1  0
  5 28  1  0
  6 29  1  0
  7 30  1  0
 11 31  1  0
 12 32  1  0
 14 33  1  0
 15 34  1  0
 16 35  1  0
 18 36  1  0
 20 37  1  0
 20 38  1  0
 21 39  1  0
 22 40  1  0
 22 41  1  0
 23 42  1  0
 23 43  1  0
 24 44  1  0
 24 45  1  0
 25 46  1  0
 25 47  1  0
 26 48  1  0
 26 49  1  0
M  END
>  <smiles>  (28) 
O=c1c2ccccc2nc(/C=C/c2cccnc2)n1CC1CCCCC1

>  <score_type>  (28) 
oracle

>  <origin>  (28) 
autodockgpu

>  <m_score__min__energy>  (28) 
-7.3099999999999996

>  <m_primary>  (28) 
energy

>  <rmsd>  (28) 
7.671850788400888

>  <m_score__min__rmsd>  (28) 
7.671850788400888

>  <meeko>  (28) 
{"free_energy": -7.03, "intermolecular_energy": -8.53, "internal_energy": -1.54, "cluster_size": 4, "cluster_id": 4, "rank_in_cluster": 2}

>  <energy>  (28) 
-7.06

>  <cluster_rmsd>  (28) 
0.0

>  <cluster>  (28) 
4

$$$$

     RDKit          3D

 49 52  0  0  0  0  0  0  0  0999 V2000
  139.2770   67.3730  225.5320 O   0  0  0  0  0  0  0  0  0  0  0  0
  139.5050   68.5600  225.2050 C   0  0  0  0  0  0  0  0  0  0  0  0
  140.0400   69.3760  226.1740 C   0  0  0  0  0  0  0  0  0  0  0  0
  140.2990   68.9030  227.4410 C   0  0  0  0  0  0  0  0  0  0  0  0
  140.8260   69.7610  228.3550 C   0  0  0  0  0  0  0  0  0  0  0  0
  141.0820   71.0650  227.9940 C   0  0  0  0  0  0  0  0  0  0  0  0
  140.8260   71.5590  226.7200 C   0  0  0  0  0  0  0  0  0  0  0  0
  140.2950   70.6700  225.8210 C   0  0  0  0  0  0  0  0  0  0  0  0
  140.0260   71.0710  224.5990 N   0  0  0  0  0  0  0  0  0  0  0  0
  139.4940   70.2900  223.6010 C   0  0  0  0  0  0  0  0  0  0  0  0
  139.3180   70.9470  222.3490 C   0  0  0  0  0  0  0  0  0  0  0  0
  138.5520   71.9150  221.9590 C   0  0  0  0  0  0  0  0  0  0  0  0
  138.9490   73.3380  221.9550 C   0  0  0  0  0  0  0  0  0  0  0  0
  138.0500   74.3710  221.9470 C   0  0  0  0  0  0  0  0  0  0  0  0
  138.5050   75.6930  221.9420 C   0  0  0  0  0  0  0  0  0  0  0  0
  139.8510   76.0010  221.9430 C   0  0  0  0  0  0  0  0  0  0  0  0
  140.7190   74.9560  221.9490 N   0  0  0  0  0  0  0  0  0  0  0  0
  140.2910   73.6820  221.9550 C   0  0  0  0  0  0  0  0  0  0  0  0
  139.2400   69.0280  223.9350 N   0  0  0  0  0  0  0  0  0  0  0  0
  138.7010   68.0380  223.0390 C   0  0  0  0  0  0  0  0  0  0  0  0
  137.3530   68.3210  222.4720 C   0  0  0  0  0  0  0  0  0  0  0  0
  136.7840   67.0520  221.8550 C   0  0  0  0  0  0  0  0  0  0  0  0
  135.3210   67.1770  221.5660 C   0  0  0  0  0  0  0  0  0  0  0  0
  134.8610   68.6180  221.5440 C   0  0  0  0  0  0  0  0  0  0  0  0
  135.0890   69.2960  222.8750 C   0  0  0  0  0  0  0  0  0  0  0  0
  136.4150   68.8960  223.4990 C   0  0  0  0  0  0  0  0  0  0  0  0
  140.0850   67.8574  227.7071 H   0  0  0  0  0  0  0  0  0  0  0  0
  141.0463   69.4157  229.3759 H   0  0  0  0  0  0  0  0  0  0  0  0
  141.5075   71.7453  228.7464 H   0  0  0  0  0  0  0  0  0  0  0  0
  141.0374   72.6038  226.4485 H   0  0  0  0  0  0  0  0  0  0  0  0
  139.9644   70.5513  221.5518 H   0  0  0  0  0  0  0  0  0  0  0  0
  137.5407   71.6618  221.6081 H   0  0  0  0  0  0  0  0  0  0  0  0
  136.9703   74.1607  221.9445 H   0  0  0  0  0  0  0  0  0  0  0  0
  137.7697   76.5111  221.9371 H   0  0  0  0  0  0  0  0  0  0  0  0
  140.2037   77.0429  221.9391 H   0  0  0  0  0  0  0  0  0  0  0  0
  141.0398   72.8763  221.9601 H   0  0  0  0  0  0  0  0  0  0  0  0
  139.4019   67.9309  222.1980 H   0  0  0  0  0  0  0  0  0  0  0  0
  138.5770   67.1301  223.6476 H   0  0  0  0  0  0  0  0  0  0  0  0
  137.4628   69.0857  221.6889 H   0  0  0  0  0  0  0  0  0  0  0  0
  137.3155   66.8451  220.9144 H   0  0  0  0  0  0  0  0  0  0  0  0
  136.9192   66.2329  222.5766 H   0  0  0  0  0  0  0  0  0  0  0  0
  135.1144   66.7247  220.5848 H   0  0  0  0  0  0  0  0  0  0  0  0
  134.7741   66.6615  222.3692 H   0  0  0  0  0  0  0  0  0  0  0  0
  135.4208   69.1594  220.7672 H   0  0  0  0  0  0  0  0  0  0  0  0
  133.7817   68.6310  221.3321 H   0  0  0  0  0  0  0  0  0  0  0  0
  135.0821   70.3856  222.7241 H   0  0  0  0  0  0  0  0  0  0  0  0
  134.2849   68.9831  223.5573 H   0  0  0  0  0  0  0  0  0  0  0  0
  136.8802   69.7842  223.9513 H   0  0  0  0  0  0  0  0  0  0  0  0
  136.2214   68.1265  224.2608 H   0  0  0  0  0  0  0  0  0  0  0  0
  1  2  2  0
  2  3  1  0
  3  4  2  0
  4  5  1  0
  5  6  2  0
  6  7  1  0
  7  8  2  0
  8  9  1  0
  9 10  2  0
 10 11  1  0
 11 12  2  0
 12 13  1  0
 13 14  2  0
 14 15  1  0
 15 16  2  0
 16 17  1  0
 17 18  2  0
 10 19  1  0
 19 20  1  0
 20 21  1  0
 21 22  1  0
 22 23  1  0
 23 24  1  0
 24 25  1  0
 25 26  1  0
 19  2  1  0
 26 21  1  0
  8  3  1  0
 18 13  1  0
  4 27  1  0
  5 28  1  0
  6 29  1  0
  7 30  1  0
 11 31  1  0
 12 32  1  0
 14 33  1  0
 15 34  1  0
 16 35  1  0
 18 36  1  0
 20 37  1  0
 20 38  1  0
 21 39  1  0
 22 40  1  0
 22 41  1  0
 23 42  1  0
 23 43  1  0
 24 44  1  0
 24 45  1  0
 25 46  1  0
 25 47  1  0
 26 48  1  0
 26 49  1  0
M  END
>  <smiles>  (29) 
O=c1c2ccccc2nc(/C=C/c2cccnc2)n1CC1CCCCC1

>  <score_type>  (29) 
oracle

>  <origin>  (29) 
autodockgpu

>  <m_score__min__energy>  (29) 
-7.3099999999999996

>  <m_primary>  (29) 
energy

>  <rmsd>  (29) 
12.77643524867096

>  <m_score__min__rmsd>  (29) 
12.77643524867096

>  <meeko>  (29) 
{"free_energy": -7.13, "intermolecular_energy": -8.62, "internal_energy": -1.33, "cluster_size": 9, "cluster_id": 1, "rank_in_cluster": 6}

>  <energy>  (29) 
-7.03

>  <cluster_rmsd>  (29) 
0.17

>  <cluster>  (29) 
4

$$$$

     RDKit          3D

 49 52  0  0  0  0  0  0  0  0999 V2000
  143.0630   76.5140  219.7680 O   0  0  0  0  0  0  0  0  0  0  0  0
  142.1790   75.9370  220.4400 C   0  0  0  0  0  0  0  0  0  0  0  0
  142.3240   74.5810  220.6180 C   0  0  0  0  0  0  0  0  0  0  0  0
  143.3900   73.9010  220.0730 C   0  0  0  0  0  0  0  0  0  0  0  0
  143.4760   72.5600  220.2830 C   0  0  0  0  0  0  0  0  0  0  0  0
  142.5060   71.9250  221.0260 C   0  0  0  0  0  0  0  0  0  0  0  0
  141.4240   72.5960  221.5840 C   0  0  0  0  0  0  0  0  0  0  0  0
  141.3650   73.9470  221.3540 C   0  0  0  0  0  0  0  0  0  0  0  0
  140.3670   74.6430  221.8510 N   0  0  0  0  0  0  0  0  0  0  0  0
  140.1840   75.9970  221.6980 C   0  0  0  0  0  0  0  0  0  0  0  0
  139.0360   76.5280  222.3560 C   0  0  0  0  0  0  0  0  0  0  0  0
  138.1350   77.3870  222.0020 C   0  0  0  0  0  0  0  0  0  0  0  0
  138.2240   78.8390  222.2630 C   0  0  0  0  0  0  0  0  0  0  0  0
  138.3610   79.3710  223.5170 C   0  0  0  0  0  0  0  0  0  0  0  0
  138.4370   80.7570  223.6830 C   0  0  0  0  0  0  0  0  0  0  0  0
  138.3770   81.6250  222.6100 C   0  0  0  0  0  0  0  0  0  0  0  0
  138.2400   81.0680  221.3780 N   0  0  0  0  0  0  0  0  0  0  0  0
  138.1670   79.7360  221.2090 C   0  0  0  0  0  0  0  0  0  0  0  0
  141.1120   76.6240  220.9820 N   0  0  0  0  0  0  0  0  0  0  0  0
  141.1230   78.0390  220.7160 C   0  0  0  0  0  0  0  0  0  0  0  0
  141.8130   78.8960  221.7190 C   0  0  0  0  0  0  0  0  0  0  0  0
  141.5630   80.3620  221.3940 C   0  0  0  0  0  0  0  0  0  0  0  0
  141.9430   81.2590  222.5300 C   0  0  0  0  0  0  0  0  0  0  0  0
  142.8560   80.5750  223.5240 C   0  0  0  0  0  0  0  0  0  0  0  0
  142.1980   79.3650  224.1430 C   0  0  0  0  0  0  0  0  0  0  0  0
  141.3930   78.5710  223.1270 C   0  0  0  0  0  0  0  0  0  0  0  0
  144.1531   74.4292  219.4824 H   0  0  0  0  0  0  0  0  0  0  0  0
  144.3149   71.9864  219.8621 H   0  0  0  0  0  0  0  0  0  0  0  0
  142.5910   70.8399  221.1848 H   0  0  0  0  0  0  0  0  0  0  0  0
  140.6586   72.0733  222.1763 H   0  0  0  0  0  0  0  0  0  0  0  0
  138.8858   76.1265  223.3690 H   0  0  0  0  0  0  0  0  0  0  0  0
  137.2462   77.0125  221.4731 H   0  0  0  0  0  0  0  0  0  0  0  0
  138.4112   78.7082  224.3935 H   0  0  0  0  0  0  0  0  0  0  0  0
  138.5478   81.1682  224.6972 H   0  0  0  0  0  0  0  0  0  0  0  0
  138.4372   82.7149  222.7463 H   0  0  0  0  0  0  0  0  0  0  0  0
  138.0571   79.3411  220.1882 H   0  0  0  0  0  0  0  0  0  0  0  0
  141.6189   78.1934  219.7463 H   0  0  0  0  0  0  0  0  0  0  0  0
  140.0681   78.3495  220.7429 H   0  0  0  0  0  0  0  0  0  0  0  0
  142.8924   78.6919  221.6613 H   0  0  0  0  0  0  0  0  0  0  0  0
  142.1575   80.6365  220.5101 H   0  0  0  0  0  0  0  0  0  0  0  0
  140.4871   80.4900  221.2042 H   0  0  0  0  0  0  0  0  0  0  0  0
  142.4594   82.1420  222.1255 H   0  0  0  0  0  0  0  0  0  0  0  0
  141.0204   81.5392  223.0594 H   0  0  0  0  0  0  0  0  0  0  0  0
  143.7728   80.2568  223.0061 H   0  0  0  0  0  0  0  0  0  0  0  0
  143.0863   81.2899  224.3277 H   0  0  0  0  0  0  0  0  0  0  0  0
  142.9777   78.7139  224.5650 H   0  0  0  0  0  0  0  0  0  0  0  0
  141.5070   79.7165  224.9234 H   0  0  0  0  0  0  0  0  0  0  0  0
  141.5480   77.4971  223.3079 H   0  0  0  0  0  0  0  0  0  0  0  0
  140.3318   78.8369  223.2419 H   0  0  0  0  0  0  0  0  0  0  0  0
  1  2  2  0
  2  3  1  0
  3  4  2  0
  4  5  1  0
  5  6  2  0
  6  7  1  0
  7  8  2  0
  8  9  1  0
  9 10  2  0
 10 11  1  0
 11 12  2  0
 12 13  1  0
 13 14  2  0
 14 15  1  0
 15 16  2  0
 16 17  1  0
 17 18  2  0
 10 19  1  0
 19 20  1  0
 20 21  1  0
 21 22  1  0
 22 23  1  0
 23 24  1  0
 24 25  1  0
 25 26  1  0
 19  2  1  0
 26 21  1  0
  8  3  1  0
 18 13  1  0
  4 27  1  0
  5 28  1  0
  6 29  1  0
  7 30  1  0
 11 31  1  0
 12 32  1  0
 14 33  1  0
 15 34  1  0
 16 35  1  0
 18 36  1  0
 20 37  1  0
 20 38  1  0
 21 39  1  0
 22 40  1  0
 22 41  1  0
 23 42  1  0
 23 43  1  0
 24 44  1  0
 24 45  1  0
 25 46  1  0
 25 47  1  0
 26 48  1  0
 26 49  1  0
M  END
>  <smiles>  (30) 
O=c1c2ccccc2nc(/C=C/c2cccnc2)n1CC1CCCCC1

>  <score_type>  (30) 
oracle

>  <origin>  (30) 
autodockgpu

>  <m_score__min__energy>  (30) 
-7.3099999999999996

>  <m_primary>  (30) 
energy

>  <rmsd>  (30) 
4.500210559253033

>  <m_score__min__rmsd>  (30) 
4.500210559253033

>  <meeko>  (30) 
{"free_energy": -6.55, "intermolecular_energy": -8.04, "internal_energy": -1.91, "cluster_size": 16, "cluster_id": 5, "rank_in_cluster": 2}

>  <energy>  (30) 
-7.02

>  <cluster_rmsd>  (30) 
0.38

>  <cluster>  (30) 
4

$$$$

     RDKit          3D

 49 52  0  0  0  0  0  0  0  0999 V2000
  139.1920   67.5480  225.7370 O   0  0  0  0  0  0  0  0  0  0  0  0
  139.4650   68.6820  225.2820 C   0  0  0  0  0  0  0  0  0  0  0  0
  140.0090   69.5870  226.1620 C   0  0  0  0  0  0  0  0  0  0  0  0
  140.2300   69.2550  227.4800 C   0  0  0  0  0  0  0  0  0  0  0  0
  140.7680   70.1960  228.3010 C   0  0  0  0  0  0  0  0  0  0  0  0
  141.0730   71.4410  227.8000 C   0  0  0  0  0  0  0  0  0  0  0  0
  140.8570   71.7930  226.4730 C   0  0  0  0  0  0  0  0  0  0  0  0
  140.3130   70.8240  225.6700 C   0  0  0  0  0  0  0  0  0  0  0  0
  140.0800   71.0900  224.4050 N   0  0  0  0  0  0  0  0  0  0  0  0
  139.5400   70.2160  223.4910 C   0  0  0  0  0  0  0  0  0  0  0  0
  139.4090   70.7300  222.1680 C   0  0  0  0  0  0  0  0  0  0  0  0
  140.2430   71.2890  221.3520 C   0  0  0  0  0  0  0  0  0  0  0  0
  140.5870   72.7260  221.3720 C   0  0  0  0  0  0  0  0  0  0  0  0
  141.7370   73.2330  220.8290 C   0  0  0  0  0  0  0  0  0  0  0  0
  141.9920   74.6060  220.8880 C   0  0  0  0  0  0  0  0  0  0  0  0
  141.1110   75.4860  221.4860 C   0  0  0  0  0  0  0  0  0  0  0  0
  139.9790   74.9540  222.0160 N   0  0  0  0  0  0  0  0  0  0  0  0
  139.7250   73.6360  221.9630 C   0  0  0  0  0  0  0  0  0  0  0  0
  139.2390   69.0090  223.9610 N   0  0  0  0  0  0  0  0  0  0  0  0
  138.6840   67.9400  223.1730 C   0  0  0  0  0  0  0  0  0  0  0  0
  137.3850   68.2180  222.4980 C   0  0  0  0  0  0  0  0  0  0  0  0
  136.8020   66.9190  221.9620 C   0  0  0  0  0  0  0  0  0  0  0  0
  135.3650   67.0710  221.5720 C   0  0  0  0  0  0  0  0  0  0  0  0
  134.9670   68.5200  221.3910 C   0  0  0  0  0  0  0  0  0  0  0  0
  135.1430   69.3070  222.6680 C   0  0  0  0  0  0  0  0  0  0  0  0
  136.4130   68.9180  223.4080 C   0  0  0  0  0  0  0  0  0  0  0  0
  139.9776   68.2537  227.8592 H   0  0  0  0  0  0  0  0  0  0  0  0
  140.9583   69.9635  229.3592 H   0  0  0  0  0  0  0  0  0  0  0  0
  141.5065   72.1898  228.4792 H   0  0  0  0  0  0  0  0  0  0  0  0
  141.1083   72.7926  226.0887 H   0  0  0  0  0  0  0  0  0  0  0  0
  138.3931   70.6314  221.7577 H   0  0  0  0  0  0  0  0  0  0  0  0
  140.7268   70.6541  220.5951 H   0  0  0  0  0  0  0  0  0  0  0  0
  142.4605   72.5596  220.3461 H   0  0  0  0  0  0  0  0  0  0  0  0
  142.9203   74.9968  220.4458 H   0  0  0  0  0  0  0  0  0  0  0  0
  141.3162   76.5658  221.5308 H   0  0  0  0  0  0  0  0  0  0  0  0
  138.7912   73.2624  222.4085 H   0  0  0  0  0  0  0  0  0  0  0  0
  139.4172   67.6831  222.3943 H   0  0  0  0  0  0  0  0  0  0  0  0
  138.4740   67.1301  223.8871 H   0  0  0  0  0  0  0  0  0  0  0  0
  137.5726   68.9027  221.6578 H   0  0  0  0  0  0  0  0  0  0  0  0
  137.3792   66.6079  221.0788 H   0  0  0  0  0  0  0  0  0  0  0  0
  136.8606   66.1642  222.7601 H   0  0  0  0  0  0  0  0  0  0  0  0
  135.1977   66.5376  220.6247 H   0  0  0  0  0  0  0  0  0  0  0  0
  134.7510   66.6531  222.3834 H   0  0  0  0  0  0  0  0  0  0  0  0
  135.5945   68.9675  220.6062 H   0  0  0  0  0  0  0  0  0  0  0  0
  133.9041   68.5530  221.1095 H   0  0  0  0  0  0  0  0  0  0  0  0
  135.1900   70.3779  222.4212 H   0  0  0  0  0  0  0  0  0  0  0  0
  134.2875   69.0860  223.3232 H   0  0  0  0  0  0  0  0  0  0  0  0
  136.8872   69.8266  223.8075 H   0  0  0  0  0  0  0  0  0  0  0  0
  136.1426   68.2292  224.2219 H   0  0  0  0  0  0  0  0  0  0  0  0
  1  2  2  0
  2  3  1  0
  3  4  2  0
  4  5  1  0
  5  6  2  0
  6  7  1  0
  7  8  2  0
  8  9  1  0
  9 10  2  0
 10 11  1  0
 11 12  2  0
 12 13  1  0
 13 14  2  0
 14 15  1  0
 15 16  2  0
 16 17  1  0
 17 18  2  0
 10 19  1  0
 19 20  1  0
 20 21  1  0
 21 22  1  0
 22 23  1  0
 23 24  1  0
 24 25  1  0
 25 26  1  0
 19  2  1  0
 26 21  1  0
  8  3  1  0
 18 13  1  0
  4 27  1  0
  5 28  1  0
  6 29  1  0
  7 30  1  0
 11 31  1  0
 12 32  1  0
 14 33  1  0
 15 34  1  0
 16 35  1  0
 18 36  1  0
 20 37  1  0
 20 38  1  0
 21 39  1  0
 22 40  1  0
 22 41  1  0
 23 42  1  0
 23 43  1  0
 24 44  1  0
 24 45  1  0
 25 46  1  0
 25 47  1  0
 26 48  1  0
 26 49  1  0
M  END
>  <smiles>  (31) 
O=c1c2ccccc2nc(/C=C/c2cccnc2)n1CC1CCCCC1

>  <score_type>  (31) 
oracle

>  <origin>  (31) 
autodockgpu

>  <m_score__min__energy>  (31) 
-7.3099999999999996

>  <m_primary>  (31) 
energy

>  <rmsd>  (31) 
12.724771975472574

>  <m_score__min__rmsd>  (31) 
12.724771975472574

>  <meeko>  (31) 
{"free_energy": -7.26, "intermolecular_energy": -8.75, "internal_energy": -1.28, "cluster_size": 9, "cluster_id": 1, "rank_in_cluster": 4}

>  <energy>  (31) 
-6.94

>  <cluster_rmsd>  (31) 
0.32

>  <cluster>  (31) 
4

$$$$

     RDKit          3D

 49 52  0  0  0  0  0  0  0  0999 V2000
  142.9090   76.4330  219.8230 O   0  0  0  0  0  0  0  0  0  0  0  0
  142.0070   75.9020  220.5090 C   0  0  0  0  0  0  0  0  0  0  0  0
  142.1080   74.5480  220.7230 C   0  0  0  0  0  0  0  0  0  0  0  0
  143.1510   73.8190  220.1950 C   0  0  0  0  0  0  0  0  0  0  0  0
  143.1940   72.4820  220.4400 C   0  0  0  0  0  0  0  0  0  0  0  0
  142.2050   71.8980  221.1990 C   0  0  0  0  0  0  0  0  0  0  0  0
  141.1460   72.6180  221.7390 C   0  0  0  0  0  0  0  0  0  0  0  0
  141.1300   73.9640  221.4750 C   0  0  0  0  0  0  0  0  0  0  0  0
  140.1550   74.7040  221.9530 N   0  0  0  0  0  0  0  0  0  0  0  0
  140.0150   76.0590  221.7650 C   0  0  0  0  0  0  0  0  0  0  0  0
  138.8870   76.6440  222.4090 C   0  0  0  0  0  0  0  0  0  0  0  0
  138.0030   77.5100  222.0260 C   0  0  0  0  0  0  0  0  0  0  0  0
  138.1160   78.9660  222.2510 C   0  0  0  0  0  0  0  0  0  0  0  0
  138.0350   79.8910  221.2460 C   0  0  0  0  0  0  0  0  0  0  0  0
  138.1530   81.2530  221.5380 C   0  0  0  0  0  0  0  0  0  0  0  0
  138.3520   81.7070  222.8270 C   0  0  0  0  0  0  0  0  0  0  0  0
  138.4290   80.7660  223.8030 N   0  0  0  0  0  0  0  0  0  0  0  0
  138.3160   79.4550  223.5320 C   0  0  0  0  0  0  0  0  0  0  0  0
  140.9630   76.6370  221.0330 N   0  0  0  0  0  0  0  0  0  0  0  0
  141.0190   78.0430  220.7310 C   0  0  0  0  0  0  0  0  0  0  0  0
  141.7400   78.9030  221.7100 C   0  0  0  0  0  0  0  0  0  0  0  0
  141.4850   80.3680  221.3850 C   0  0  0  0  0  0  0  0  0  0  0  0
  141.8980   81.2690  222.5060 C   0  0  0  0  0  0  0  0  0  0  0  0
  142.8380   80.5880  223.4760 C   0  0  0  0  0  0  0  0  0  0  0  0
  142.1950   79.3820  224.1190 C   0  0  0  0  0  0  0  0  0  0  0  0
  141.3590   78.5860  223.1310 C   0  0  0  0  0  0  0  0  0  0  0  0
  143.9298   74.3064  219.5901 H   0  0  0  0  0  0  0  0  0  0  0  0
  144.0138   71.8710  220.0343 H   0  0  0  0  0  0  0  0  0  0  0  0
  142.2551   70.8152  221.3861 H   0  0  0  0  0  0  0  0  0  0  0  0
  140.3644   72.1355  222.3442 H   0  0  0  0  0  0  0  0  0  0  0  0
  138.7362   76.2888  223.4391 H   0  0  0  0  0  0  0  0  0  0  0  0
  137.1116   77.1378  221.4998 H   0  0  0  0  0  0  0  0  0  0  0  0
  137.8770   79.5628  220.2081 H   0  0  0  0  0  0  0  0  0  0  0  0
  138.0855   81.9834  220.7183 H   0  0  0  0  0  0  0  0  0  0  0  0
  138.4438   82.7798  223.0523 H   0  0  0  0  0  0  0  0  0  0  0  0
  138.3853   78.7383  224.3636 H   0  0  0  0  0  0  0  0  0  0  0  0
  141.5163   78.1563  219.7564 H   0  0  0  0  0  0  0  0  0  0  0  0
  139.9748   78.3881  220.7529 H   0  0  0  0  0  0  0  0  0  0  0  0
  142.8167   78.6955  221.6228 H   0  0  0  0  0  0  0  0  0  0  0  0
  142.0559   80.6369  220.4840 H   0  0  0  0  0  0  0  0  0  0  0  0
  140.4047   80.4981  221.2238 H   0  0  0  0  0  0  0  0  0  0  0  0
  142.4035   82.1498  222.0835 H   0  0  0  0  0  0  0  0  0  0  0  0
  140.9911   81.5524  223.0603 H   0  0  0  0  0  0  0  0  0  0  0  0
  143.7389   80.2655  222.9334 H   0  0  0  0  0  0  0  0  0  0  0  0
  143.0933   81.3059  224.2693 H   0  0  0  0  0  0  0  0  0  0  0  0
  142.9851   78.7307  224.5209 H   0  0  0  0  0  0  0  0  0  0  0  0
  141.5278   79.7388  224.9175 H   0  0  0  0  0  0  0  0  0  0  0  0
  141.5156   77.5125  223.3127 H   0  0  0  0  0  0  0  0  0  0  0  0
  140.3023   78.8557  223.2749 H   0  0  0  0  0  0  0  0  0  0  0  0
  1  2  2  0
  2  3  1  0
  3  4  2  0
  4  5  1  0
  5  6  2  0
  6  7  1  0
  7  8  2  0
  8  9  1  0
  9 10  2  0
 10 11  1  0
 11 12  2  0
 12 13  1  0
 13 14  2  0
 14 15  1  0
 15 16  2  0
 16 17  1  0
 17 18  2  0
 10 19  1  0
 19 20  1  0
 20 21  1  0
 21 22  1  0
 22 23  1  0
 23 24  1  0
 24 25  1  0
 25 26  1  0
 19  2  1  0
 26 21  1  0
  8  3  1  0
 18 13  1  0
  4 27  1  0
  5 28  1  0
  6 29  1  0
  7 30  1  0
 11 31  1  0
 12 32  1  0
 14 33  1  0
 15 34  1  0
 16 35  1  0
 18 36  1  0
 20 37  1  0
 20 38  1  0
 21 39  1  0
 22 40  1  0
 22 41  1  0
 23 42  1  0
 23 43  1  0
 24 44  1  0
 24 45  1  0
 25 46  1  0
 25 47  1  0
 26 48  1  0
 26 49  1  0
M  END
>  <smiles>  (32) 
O=c1c2ccccc2nc(/C=C/c2cccnc2)n1CC1CCCCC1

>  <score_type>  (32) 
oracle

>  <origin>  (32) 
autodockgpu

>  <m_score__min__energy>  (32) 
-7.3099999999999996

>  <m_primary>  (32) 
energy

>  <rmsd>  (32) 
4.4557140537590225

>  <m_score__min__rmsd>  (32) 
4.4557140537590225

>  <meeko>  (32) 
{"free_energy": -6.45, "intermolecular_energy": -7.94, "internal_energy": -1.94, "cluster_size": 16, "cluster_id": 5, "rank_in_cluster": 12}

>  <energy>  (32) 
-6.55

>  <cluster_rmsd>  (32) 
0.0

>  <cluster>  (32) 
5

$$$$

     RDKit          3D

 49 52  0  0  0  0  0  0  0  0999 V2000
  140.5850   71.8720  225.3290 O   0  0  0  0  0  0  0  0  0  0  0  0
  139.9360   70.8020  225.3160 C   0  0  0  0  0  0  0  0  0  0  0  0
  140.1590   69.9320  226.3570 C   0  0  0  0  0  0  0  0  0  0  0  0
  141.0600   70.2300  227.3550 C   0  0  0  0  0  0  0  0  0  0  0  0
  141.2370   69.3270  228.3560 C   0  0  0  0  0  0  0  0  0  0  0  0
  140.5210   68.1510  228.3450 C   0  0  0  0  0  0  0  0  0  0  0  0
  139.6070   67.8340  227.3460 C   0  0  0  0  0  0  0  0  0  0  0  0
  139.4510   68.7650  226.3500 C   0  0  0  0  0  0  0  0  0  0  0  0
  138.6050   68.5280  225.3740 N   0  0  0  0  0  0  0  0  0  0  0  0
  138.3510   69.3690  224.3160 C   0  0  0  0  0  0  0  0  0  0  0  0
  137.3690   68.9010  223.3950 C   0  0  0  0  0  0  0  0  0  0  0  0
  136.0750   68.8820  223.4200 C   0  0  0  0  0  0  0  0  0  0  0  0
  135.2560   69.4590  224.5060 C   0  0  0  0  0  0  0  0  0  0  0  0
  135.1070   70.8060  224.7010 C   0  0  0  0  0  0  0  0  0  0  0  0
  134.3160   71.2760  225.7540 C   0  0  0  0  0  0  0  0  0  0  0  0
  133.6690   70.4160  226.6200 C   0  0  0  0  0  0  0  0  0  0  0  0
  133.8370   69.0860  226.4020 N   0  0  0  0  0  0  0  0  0  0  0  0
  134.5940   68.6250  225.3920 C   0  0  0  0  0  0  0  0  0  0  0  0
  139.0370   70.5080  224.3120 N   0  0  0  0  0  0  0  0  0  0  0  0
  138.9110   71.5350  223.3110 C   0  0  0  0  0  0  0  0  0  0  0  0
  140.1270   71.8250  222.5010 C   0  0  0  0  0  0  0  0  0  0  0  0
  140.2720   70.7760  221.4080 C   0  0  0  0  0  0  0  0  0  0  0  0
  141.2680   71.1860  220.3690 C   0  0  0  0  0  0  0  0  0  0  0  0
  142.1810   72.2910  220.8510 C   0  0  0  0  0  0  0  0  0  0  0  0
  141.4060   73.5380  221.2080 C   0  0  0  0  0  0  0  0  0  0  0  0
  140.1040   73.2140  221.9230 C   0  0  0  0  0  0  0  0  0  0  0  0
  141.6226   71.1752  227.3426 H   0  0  0  0  0  0  0  0  0  0  0  0
  141.9477   69.5347  229.1695 H   0  0  0  0  0  0  0  0  0  0  0  0
  140.6788   67.4312  229.1617 H   0  0  0  0  0  0  0  0  0  0  0  0
  139.0413   66.8907  227.3537 H   0  0  0  0  0  0  0  0  0  0  0  0
  137.7970   68.4690  222.4784 H   0  0  0  0  0  0  0  0  0  0  0  0
  135.5512   68.4055  222.5783 H   0  0  0  0  0  0  0  0  0  0  0  0
  135.6093   71.5181  224.0297 H   0  0  0  0  0  0  0  0  0  0  0  0
  134.2059   72.3611  225.8967 H   0  0  0  0  0  0  0  0  0  0  0  0
  133.0474   70.7905  227.4467 H   0  0  0  0  0  0  0  0  0  0  0  0
  134.6923   67.5370  225.2631 H   0  0  0  0  0  0  0  0  0  0  0  0
  138.1125   71.2306  222.6183 H   0  0  0  0  0  0  0  0  0  0  0  0
  138.7038   72.4609  223.8676 H   0  0  0  0  0  0  0  0  0  0  0  0
  141.0026   71.7784  223.1652 H   0  0  0  0  0  0  0  0  0  0  0  0
  140.6023   69.8309  221.8638 H   0  0  0  0  0  0  0  0  0  0  0  0
  139.2951   70.6592  220.9161 H   0  0  0  0  0  0  0  0  0  0  0  0
  141.8808   70.3122  220.1026 H   0  0  0  0  0  0  0  0  0  0  0  0
  140.7100   71.5663  219.5007 H   0  0  0  0  0  0  0  0  0  0  0  0
  142.7248   71.9418  221.7411 H   0  0  0  0  0  0  0  0  0  0  0  0
  142.8778   72.5406  220.0372 H   0  0  0  0  0  0  0  0  0  0  0  0
  142.0258   74.1653  221.8656 H   0  0  0  0  0  0  0  0  0  0  0  0
  141.1590   74.0637  220.2739 H   0  0  0  0  0  0  0  0  0  0  0  0
  139.9528   73.9381  222.7371 H   0  0  0  0  0  0  0  0  0  0  0  0
  139.2837   73.2718  221.1924 H   0  0  0  0  0  0  0  0  0  0  0  0
  1  2  2  0
  2  3  1  0
  3  4  2  0
  4  5  1  0
  5  6  2  0
  6  7  1  0
  7  8  2  0
  8  9  1  0
  9 10  2  0
 10 11  1  0
 11 12  2  0
 12 13  1  0
 13 14  2  0
 14 15  1  0
 15 16  2  0
 16 17  1  0
 17 18  2  0
 10 19  1  0
 19 20  1  0
 20 21  1  0
 21 22  1  0
 22 23  1  0
 23 24  1  0
 24 25  1  0
 25 26  1  0
 19  2  1  0
 26 21  1  0
  8  3  1  0
 18 13  1  0
  4 27  1  0
  5 28  1  0
  6 29  1  0
  7 30  1  0
 11 31  1  0
 12 32  1  0
 14 33  1  0
 15 34  1  0
 16 35  1  0
 18 36  1  0
 20 37  1  0
 20 38  1  0
 21 39  1  0
 22 40  1  0
 22 41  1  0
 23 42  1  0
 23 43  1  0
 24 44  1  0
 24 45  1  0
 25 46  1  0
 25 47  1  0
 26 48  1  0
 26 49  1  0
M  END
>  <smiles>  (33) 
O=c1c2ccccc2nc(/C=C/c2cccnc2)n1CC1CCCCC1

>  <score_type>  (33) 
oracle

>  <origin>  (33) 
autodockgpu

>  <m_score__min__energy>  (33) 
-7.3099999999999996

>  <m_primary>  (33) 
energy

>  <rmsd>  (33) 
10.33290370637279

>  <m_score__min__rmsd>  (33) 
10.33290370637279

>  <meeko>  (33) 
{"free_energy": -7.22, "intermolecular_energy": -8.72, "internal_energy": -1.38, "cluster_size": 17, "cluster_id": 2, "rank_in_cluster": 7}

>  <energy>  (33) 
-6.55

>  <cluster_rmsd>  (33) 
0.23

>  <cluster>  (33) 
5

$$$$

     RDKit          3D

 49 52  0  0  0  0  0  0  0  0999 V2000
  139.2070   67.5710  225.6050 O   0  0  0  0  0  0  0  0  0  0  0  0
  139.5120   68.7200  225.2150 C   0  0  0  0  0  0  0  0  0  0  0  0
  140.0510   69.5690  226.1520 C   0  0  0  0  0  0  0  0  0  0  0  0
  140.2330   69.1660  227.4570 C   0  0  0  0  0  0  0  0  0  0  0  0
  140.7690   70.0540  228.3370 C   0  0  0  0  0  0  0  0  0  0  0  0
  141.1100   71.3170  227.9070 C   0  0  0  0  0  0  0  0  0  0  0  0
  140.9330   71.7390  226.5940 C   0  0  0  0  0  0  0  0  0  0  0  0
  140.3900   70.8220  225.7300 C   0  0  0  0  0  0  0  0  0  0  0  0
  140.1940   71.1560  224.4750 N   0  0  0  0  0  0  0  0  0  0  0  0
  139.6600   70.3400  223.5060 C   0  0  0  0  0  0  0  0  0  0  0  0
  139.5710   70.9230  222.2080 C   0  0  0  0  0  0  0  0  0  0  0  0
  138.8210   71.8520  221.7070 C   0  0  0  0  0  0  0  0  0  0  0  0
  139.1010   73.2980  221.8260 C   0  0  0  0  0  0  0  0  0  0  0  0
  138.1200   74.2500  221.9050 C   0  0  0  0  0  0  0  0  0  0  0  0
  138.4630   75.6000  222.0150 C   0  0  0  0  0  0  0  0  0  0  0  0
  139.7800   76.0170  222.0450 C   0  0  0  0  0  0  0  0  0  0  0  0
  140.7310   75.0500  221.9640 N   0  0  0  0  0  0  0  0  0  0  0  0
  140.4100   73.7490  221.8600 C   0  0  0  0  0  0  0  0  0  0  0  0
  139.3250   69.1180  223.9070 N   0  0  0  0  0  0  0  0  0  0  0  0
  138.7690   68.1010  223.0530 C   0  0  0  0  0  0  0  0  0  0  0  0
  137.4020   68.3580  222.5190 C   0  0  0  0  0  0  0  0  0  0  0  0
  136.8300   67.0700  221.9440 C   0  0  0  0  0  0  0  0  0  0  0  0
  135.3580   67.1740  221.6960 C   0  0  0  0  0  0  0  0  0  0  0  0
  134.8810   68.6090  221.6580 C   0  0  0  0  0  0  0  0  0  0  0  0
  135.1390   69.3160  222.9670 C   0  0  0  0  0  0  0  0  0  0  0  0
  136.4880   68.9430  223.5610 C   0  0  0  0  0  0  0  0  0  0  0  0
  139.9521   68.1523  227.7789 H   0  0  0  0  0  0  0  0  0  0  0  0
  140.9291   69.7649  229.3862 H   0  0  0  0  0  0  0  0  0  0  0  0
  141.5408   72.0221  228.6332 H   0  0  0  0  0  0  0  0  0  0  0  0
  141.2126   72.7512  226.2664 H   0  0  0  0  0  0  0  0  0  0  0  0
  140.2836   70.4975  221.4861 H   0  0  0  0  0  0  0  0  0  0  0  0
  137.9184   71.5454  221.1581 H   0  0  0  0  0  0  0  0  0  0  0  0
  137.0614   73.9518  221.8818 H   0  0  0  0  0  0  0  0  0  0  0  0
  137.6625   76.3516  222.0795 H   0  0  0  0  0  0  0  0  0  0  0  0
  140.0458   77.0810  222.1304 H   0  0  0  0  0  0  0  0  0  0  0  0
  141.2226   73.0101  221.7992 H   0  0  0  0  0  0  0  0  0  0  0  0
  139.4458   67.9782  222.1946 H   0  0  0  0  0  0  0  0  0  0  0  0
  138.6712   67.2081  223.6879 H   0  0  0  0  0  0  0  0  0  0  0  0
  137.4803   69.1076  221.7178 H   0  0  0  0  0  0  0  0  0  0  0  0
  137.3361   66.8500  220.9925 H   0  0  0  0  0  0  0  0  0  0  0  0
  136.9959   66.2667  222.6769 H   0  0  0  0  0  0  0  0  0  0  0  0
  135.1277   66.6992  220.7308 H   0  0  0  0  0  0  0  0  0  0  0  0
  134.8410   66.6699  222.5259 H   0  0  0  0  0  0  0  0  0  0  0  0
  135.4122   69.1405  220.8546 H   0  0  0  0  0  0  0  0  0  0  0  0
  133.7960   68.6059  221.4770 H   0  0  0  0  0  0  0  0  0  0  0  0
  135.1153   70.4021  222.7944 H   0  0  0  0  0  0  0  0  0  0  0  0
  134.3584   69.0084  223.6783 H   0  0  0  0  0  0  0  0  0  0  0  0
  136.9558   69.8452  223.9820 H   0  0  0  0  0  0  0  0  0  0  0  0
  136.3254   68.1872  224.3435 H   0  0  0  0  0  0  0  0  0  0  0  0
  1  2  2  0
  2  3  1  0
  3  4  2  0
  4  5  1  0
  5  6  2  0
  6  7  1  0
  7  8  2  0
  8  9  1  0
  9 10  2  0
 10 11  1  0
 11 12  2  0
 12 13  1  0
 13 14  2  0
 14 15  1  0
 15 16  2  0
 16 17  1  0
 17 18  2  0
 10 19  1  0
 19 20  1  0
 20 21  1  0
 21 22  1  0
 22 23  1  0
 23 24  1  0
 24 25  1  0
 25 26  1  0
 19  2  1  0
 26 21  1  0
  8  3  1  0
 18 13  1  0
  4 27  1  0
  5 28  1  0
  6 29  1  0
  7 30  1  0
 11 31  1  0
 12 32  1  0
 14 33  1  0
 15 34  1  0
 16 35  1  0
 18 36  1  0
 20 37  1  0
 20 38  1  0
 21 39  1  0
 22 40  1  0
 22 41  1  0
 23 42  1  0
 23 43  1  0
 24 44  1  0
 24 45  1  0
 25 46  1  0
 25 47  1  0
 26 48  1  0
 26 49  1  0
M  END
>  <smiles>  (34) 
O=c1c2ccccc2nc(/C=C/c2cccnc2)n1CC1CCCCC1

>  <score_type>  (34) 
oracle

>  <origin>  (34) 
autodockgpu

>  <m_score__min__energy>  (34) 
-7.3099999999999996

>  <m_primary>  (34) 
energy

>  <rmsd>  (34) 
12.695311076807263

>  <m_score__min__rmsd>  (34) 
12.695311076807263

>  <meeko>  (34) 
{"free_energy": -7.08, "intermolecular_energy": -8.57, "internal_energy": -1.38, "cluster_size": 9, "cluster_id": 1, "rank_in_cluster": 7}

>  <energy>  (34) 
-6.55

>  <cluster_rmsd>  (34) 
0.18

>  <cluster>  (34) 
5

$$$$

     RDKit          3D

 49 52  0  0  0  0  0  0  0  0999 V2000
  140.6140   71.8560  225.2950 O   0  0  0  0  0  0  0  0  0  0  0  0
  139.9600   70.7890  225.2810 C   0  0  0  0  0  0  0  0  0  0  0  0
  140.1770   69.9180  226.3220 C   0  0  0  0  0  0  0  0  0  0  0  0
  141.0780   70.2120  227.3220 C   0  0  0  0  0  0  0  0  0  0  0  0
  141.2480   69.3080  228.3230 C   0  0  0  0  0  0  0  0  0  0  0  0
  140.5260   68.1360  228.3110 C   0  0  0  0  0  0  0  0  0  0  0  0
  139.6130   67.8230  227.3110 C   0  0  0  0  0  0  0  0  0  0  0  0
  139.4630   68.7540  226.3150 C   0  0  0  0  0  0  0  0  0  0  0  0
  138.6180   68.5220  225.3370 N   0  0  0  0  0  0  0  0  0  0  0  0
  138.3700   69.3640  224.2780 C   0  0  0  0  0  0  0  0  0  0  0  0
  137.3870   68.9010  223.3560 C   0  0  0  0  0  0  0  0  0  0  0  0
  136.0930   68.8710  223.3860 C   0  0  0  0  0  0  0  0  0  0  0  0
  135.2750   69.4510  224.4710 C   0  0  0  0  0  0  0  0  0  0  0  0
  135.1340   70.7980  224.6710 C   0  0  0  0  0  0  0  0  0  0  0  0
  134.3420   71.2700  225.7220 C   0  0  0  0  0  0  0  0  0  0  0  0
  133.6860   70.4110  226.5820 C   0  0  0  0  0  0  0  0  0  0  0  0
  133.8450   69.0810  226.3600 N   0  0  0  0  0  0  0  0  0  0  0  0
  134.6030   68.6180  225.3510 C   0  0  0  0  0  0  0  0  0  0  0  0
  139.0610   70.4990  224.2750 N   0  0  0  0  0  0  0  0  0  0  0  0
  138.9420   71.5270  223.2740 C   0  0  0  0  0  0  0  0  0  0  0  0
  140.1630   71.8170  222.4720 C   0  0  0  0  0  0  0  0  0  0  0  0
  140.3020   70.7820  221.3650 C   0  0  0  0  0  0  0  0  0  0  0  0
  141.3050   71.1970  220.3340 C   0  0  0  0  0  0  0  0  0  0  0  0
  142.2270   72.2870  220.8350 C   0  0  0  0  0  0  0  0  0  0  0  0
  141.4630   73.5350  221.2070 C   0  0  0  0  0  0  0  0  0  0  0  0
  140.1560   73.2140  221.9140 C   0  0  0  0  0  0  0  0  0  0  0  0
  141.6454   71.1543  227.3107 H   0  0  0  0  0  0  0  0  0  0  0  0
  141.9583   69.5118  229.1378 H   0  0  0  0  0  0  0  0  0  0  0  0
  140.6783   67.4159  229.1285 H   0  0  0  0  0  0  0  0  0  0  0  0
  139.0431   66.8822  227.3179 H   0  0  0  0  0  0  0  0  0  0  0  0
  137.8141   68.4848  222.4317 H   0  0  0  0  0  0  0  0  0  0  0  0
  135.5695   68.3828  222.5508 H   0  0  0  0  0  0  0  0  0  0  0  0
  135.6440   71.5092  224.0046 H   0  0  0  0  0  0  0  0  0  0  0  0
  134.2384   72.3553  225.8680 H   0  0  0  0  0  0  0  0  0  0  0  0
  133.0641   70.7867  227.4078 H   0  0  0  0  0  0  0  0  0  0  0  0
  134.6938   67.5298  225.2181 H   0  0  0  0  0  0  0  0  0  0  0  0
  138.1477   71.2237  222.5760 H   0  0  0  0  0  0  0  0  0  0  0  0
  138.7320   72.4525  223.8302 H   0  0  0  0  0  0  0  0  0  0  0  0
  141.0358   71.7529  223.1385 H   0  0  0  0  0  0  0  0  0  0  0  0
  140.6224   69.8278  221.8087 H   0  0  0  0  0  0  0  0  0  0  0  0
  139.3255   70.6811  220.8687 H   0  0  0  0  0  0  0  0  0  0  0  0
  141.9104   70.3213  220.0570 H   0  0  0  0  0  0  0  0  0  0  0  0
  140.7535   71.5943  219.4692 H   0  0  0  0  0  0  0  0  0  0  0  0
  142.7645   71.9200  221.7218 H   0  0  0  0  0  0  0  0  0  0  0  0
  142.9288   72.5417  220.0272 H   0  0  0  0  0  0  0  0  0  0  0  0
  142.0868   74.1473  221.8748 H   0  0  0  0  0  0  0  0  0  0  0  0
  141.2233   74.0754  220.2794 H   0  0  0  0  0  0  0  0  0  0  0  0
  140.0101   73.9279  222.7381 H   0  0  0  0  0  0  0  0  0  0  0  0
  139.3384   73.2905  221.1821 H   0  0  0  0  0  0  0  0  0  0  0  0
  1  2  2  0
  2  3  1  0
  3  4  2  0
  4  5  1  0
  5  6  2  0
  6  7  1  0
  7  8  2  0
  8  9  1  0
  9 10  2  0
 10 11  1  0
 11 12  2  0
 12 13  1  0
 13 14  2  0
 14 15  1  0
 15 16  2  0
 16 17  1  0
 17 18  2  0
 10 19  1  0
 19 20  1  0
 20 21  1  0
 21 22  1  0
 22 23  1  0
 23 24  1  0
 24 25  1  0
 25 26  1  0
 19  2  1  0
 26 21  1  0
  8  3  1  0
 18 13  1  0
  4 27  1  0
  5 28  1  0
  6 29  1  0
  7 30  1  0
 11 31  1  0
 12 32  1  0
 14 33  1  0
 15 34  1  0
 16 35  1  0
 18 36  1  0
 20 37  1  0
 20 38  1  0
 21 39  1  0
 22 40  1  0
 22 41  1  0
 23 42  1  0
 23 43  1  0
 24 44  1  0
 24 45  1  0
 25 46  1  0
 25 47  1  0
 26 48  1  0
 26 49  1  0
M  END
>  <smiles>  (35) 
O=c1c2ccccc2nc(/C=C/c2cccnc2)n1CC1CCCCC1

>  <score_type>  (35) 
oracle

>  <origin>  (35) 
autodockgpu

>  <m_score__min__energy>  (35) 
-7.3099999999999996

>  <m_primary>  (35) 
energy

>  <rmsd>  (35) 
10.328698774590896

>  <m_score__min__rmsd>  (35) 
10.328698774590896

>  <meeko>  (35) 
{"free_energy": -7.23, "intermolecular_energy": -8.72, "internal_energy": -1.38, "cluster_size": 17, "cluster_id": 2, "rank_in_cluster": 6}

>  <energy>  (35) 
-6.54

>  <cluster_rmsd>  (35) 
0.05

>  <cluster>  (35) 
5

$$$$

     RDKit          3D

 49 52  0  0  0  0  0  0  0  0999 V2000
  140.5470   71.8900  225.3350 O   0  0  0  0  0  0  0  0  0  0  0  0
  139.9140   70.8110  225.3270 C   0  0  0  0  0  0  0  0  0  0  0  0
  140.1460   69.9490  226.3720 C   0  0  0  0  0  0  0  0  0  0  0  0
  141.0410   70.2650  227.3700 C   0  0  0  0  0  0  0  0  0  0  0  0
  141.2290   69.3690  228.3760 C   0  0  0  0  0  0  0  0  0  0  0  0
  140.5290   68.1840  228.3700 C   0  0  0  0  0  0  0  0  0  0  0  0
  139.6210   67.8490  227.3720 C   0  0  0  0  0  0  0  0  0  0  0  0
  139.4540   68.7720  226.3710 C   0  0  0  0  0  0  0  0  0  0  0  0
  138.6130   68.5190  225.3940 N   0  0  0  0  0  0  0  0  0  0  0  0
  138.3500   69.3510  224.3310 C   0  0  0  0  0  0  0  0  0  0  0  0
  137.3760   68.8650  223.4110 C   0  0  0  0  0  0  0  0  0  0  0  0
  136.0830   68.9160  223.3860 C   0  0  0  0  0  0  0  0  0  0  0  0
  135.2530   69.4640  224.4800 C   0  0  0  0  0  0  0  0  0  0  0  0
  135.0790   70.8050  224.6940 C   0  0  0  0  0  0  0  0  0  0  0  0
  134.2780   71.2460  225.7510 C   0  0  0  0  0  0  0  0  0  0  0  0
  133.6450   70.3620  226.6040 C   0  0  0  0  0  0  0  0  0  0  0  0
  133.8370   69.0390  226.3670 N   0  0  0  0  0  0  0  0  0  0  0  0
  134.6040   68.6050  225.3520 C   0  0  0  0  0  0  0  0  0  0  0  0
  139.0200   70.4990  224.3220 N   0  0  0  0  0  0  0  0  0  0  0  0
  138.8820   71.5190  223.3160 C   0  0  0  0  0  0  0  0  0  0  0  0
  140.0920   71.8140  222.5000 C   0  0  0  0  0  0  0  0  0  0  0  0
  140.2260   70.7750  221.3950 C   0  0  0  0  0  0  0  0  0  0  0  0
  141.2130   71.1930  220.3510 C   0  0  0  0  0  0  0  0  0  0  0  0
  142.1340   72.2900  220.8370 C   0  0  0  0  0  0  0  0  0  0  0  0
  141.3660   73.5350  221.2130 C   0  0  0  0  0  0  0  0  0  0  0  0
  140.0690   73.2090  221.9350 C   0  0  0  0  0  0  0  0  0  0  0  0
  141.5900   71.2181  227.3539 H   0  0  0  0  0  0  0  0  0  0  0  0
  141.9360   69.5901  229.1892 H   0  0  0  0  0  0  0  0  0  0  0  0
  140.6953   67.4708  229.1908 H   0  0  0  0  0  0  0  0  0  0  0  0
  139.0681   66.8981  227.3843 H   0  0  0  0  0  0  0  0  0  0  0  0
  137.8112   68.3405  222.5476 H   0  0  0  0  0  0  0  0  0  0  0  0
  135.5691   68.5271  222.4946 H   0  0  0  0  0  0  0  0  0  0  0  0
  135.5697   71.5354  224.0339 H   0  0  0  0  0  0  0  0  0  0  0  0
  134.1478   72.3269  225.9083 H   0  0  0  0  0  0  0  0  0  0  0  0
  133.0158   70.7134  227.4351 H   0  0  0  0  0  0  0  0  0  0  0  0
  134.7215   67.5209  225.2075 H   0  0  0  0  0  0  0  0  0  0  0  0
  138.0834   71.2043  222.6281 H   0  0  0  0  0  0  0  0  0  0  0  0
  138.6696   72.4463  223.8682 H   0  0  0  0  0  0  0  0  0  0  0  0
  140.9720   71.7590  223.1577 H   0  0  0  0  0  0  0  0  0  0  0  0
  140.5589   69.8252  221.8388 H   0  0  0  0  0  0  0  0  0  0  0  0
  139.2445   70.6647  220.9107 H   0  0  0  0  0  0  0  0  0  0  0  0
  141.8205   70.3203  220.0691 H   0  0  0  0  0  0  0  0  0  0  0  0
  140.6482   71.5843  219.4920 H   0  0  0  0  0  0  0  0  0  0  0  0
  142.6838   71.9298  221.7190 H   0  0  0  0  0  0  0  0  0  0  0  0
  142.8253   72.5457  220.0205 H   0  0  0  0  0  0  0  0  0  0  0  0
  141.9932   74.1535  221.8719 H   0  0  0  0  0  0  0  0  0  0  0  0
  141.1129   74.0704  220.2860 H   0  0  0  0  0  0  0  0  0  0  0  0
  139.9267   73.9260  222.7570 H   0  0  0  0  0  0  0  0  0  0  0  0
  139.2431   73.2765  221.2116 H   0  0  0  0  0  0  0  0  0  0  0  0
  1  2  2  0
  2  3  1  0
  3  4  2  0
  4  5  1  0
  5  6  2  0
  6  7  1  0
  7  8  2  0
  8  9  1  0
  9 10  2  0
 10 11  1  0
 11 12  2  0
 12 13  1  0
 13 14  2  0
 14 15  1  0
 15 16  2  0
 16 17  1  0
 17 18  2  0
 10 19  1  0
 19 20  1  0
 20 21  1  0
 21 22  1  0
 22 23  1  0
 23 24  1  0
 24 25  1  0
 25 26  1  0
 19  2  1  0
 26 21  1  0
  8  3  1  0
 18 13  1  0
  4 27  1  0
  5 28  1  0
  6 29  1  0
  7 30  1  0
 11 31  1  0
 12 32  1  0
 14 33  1  0
 15 34  1  0
 16 35  1  0
 18 36  1  0
 20 37  1  0
 20 38  1  0
 21 39  1  0
 22 40  1  0
 22 41  1  0
 23 42  1  0
 23 43  1  0
 24 44  1  0
 24 45  1  0
 25 46  1  0
 25 47  1  0
 26 48  1  0
 26 49  1  0
M  END
>  <smiles>  (36) 
O=c1c2ccccc2nc(/C=C/c2cccnc2)n1CC1CCCCC1

>  <score_type>  (36) 
oracle

>  <origin>  (36) 
autodockgpu

>  <m_score__min__energy>  (36) 
-7.3099999999999996

>  <m_primary>  (36) 
energy

>  <rmsd>  (36) 
10.331957718414126

>  <m_score__min__rmsd>  (36) 
10.331957718414126

>  <meeko>  (36) 
{"free_energy": -7.21, "intermolecular_energy": -8.7, "internal_energy": -1.39, "cluster_size": 17, "cluster_id": 2, "rank_in_cluster": 14}

>  <energy>  (36) 
-6.54

>  <cluster_rmsd>  (36) 
0.07

>  <cluster>  (36) 
5

$$$$

     RDKit          3D

 49 52  0  0  0  0  0  0  0  0999 V2000
  142.8950   76.3880  219.8260 O   0  0  0  0  0  0  0  0  0  0  0  0
  141.9880   75.8710  220.5160 C   0  0  0  0  0  0  0  0  0  0  0  0
  142.0820   74.5190  220.7470 C   0  0  0  0  0  0  0  0  0  0  0  0
  143.1230   73.7790  220.2320 C   0  0  0  0  0  0  0  0  0  0  0  0
  143.1580   72.4450  220.4940 C   0  0  0  0  0  0  0  0  0  0  0  0
  142.1630   71.8760  221.2570 C   0  0  0  0  0  0  0  0  0  0  0  0
  141.1060   72.6080  221.7850 C   0  0  0  0  0  0  0  0  0  0  0  0
  141.0980   73.9500  221.5030 C   0  0  0  0  0  0  0  0  0  0  0  0
  140.1260   74.7010  221.9690 N   0  0  0  0  0  0  0  0  0  0  0  0
  139.9930   76.0540  221.7630 C   0  0  0  0  0  0  0  0  0  0  0  0
  138.8650   76.6530  222.3960 C   0  0  0  0  0  0  0  0  0  0  0  0
  137.9980   77.5310  222.0060 C   0  0  0  0  0  0  0  0  0  0  0  0
  138.0870   78.9760  222.3050 C   0  0  0  0  0  0  0  0  0  0  0  0
  137.9310   79.9520  221.3580 C   0  0  0  0  0  0  0  0  0  0  0  0
  138.0310   81.2990  221.7180 C   0  0  0  0  0  0  0  0  0  0  0  0
  138.2870   81.6880  223.0190 C   0  0  0  0  0  0  0  0  0  0  0  0
  138.4380   80.6980  223.9360 N   0  0  0  0  0  0  0  0  0  0  0  0
  138.3420   79.4000  223.5990 C   0  0  0  0  0  0  0  0  0  0  0  0
  140.9460   76.6180  221.0270 N   0  0  0  0  0  0  0  0  0  0  0  0
  141.0100   78.0200  220.7070 C   0  0  0  0  0  0  0  0  0  0  0  0
  141.7210   78.8910  221.6850 C   0  0  0  0  0  0  0  0  0  0  0  0
  141.4140   80.3510  221.3820 C   0  0  0  0  0  0  0  0  0  0  0  0
  141.8180   81.2510  222.5070 C   0  0  0  0  0  0  0  0  0  0  0  0
  142.7960   80.5880  223.4520 C   0  0  0  0  0  0  0  0  0  0  0  0
  142.2010   79.3560  224.0920 C   0  0  0  0  0  0  0  0  0  0  0  0
  141.3740   78.5450  223.1080 C   0  0  0  0  0  0  0  0  0  0  0  0
  143.9065   74.2550  219.6240 H   0  0  0  0  0  0  0  0  0  0  0  0
  143.9759   71.8245  220.0989 H   0  0  0  0  0  0  0  0  0  0  0  0
  142.2065   70.7953  221.4574 H   0  0  0  0  0  0  0  0  0  0  0  0
  140.3204   72.1375  222.3945 H   0  0  0  0  0  0  0  0  0  0  0  0
  138.6978   76.2971  223.4233 H   0  0  0  0  0  0  0  0  0  0  0  0
  137.1399   77.1796  221.4142 H   0  0  0  0  0  0  0  0  0  0  0  0
  137.7268   79.6761  220.3129 H   0  0  0  0  0  0  0  0  0  0  0  0
  137.9024   82.0704  220.9445 H   0  0  0  0  0  0  0  0  0  0  0  0
  138.3648   82.7491  223.2985 H   0  0  0  0  0  0  0  0  0  0  0  0
  138.4716   78.6415  224.3851 H   0  0  0  0  0  0  0  0  0  0  0  0
  141.5205   78.1191  219.7377 H   0  0  0  0  0  0  0  0  0  0  0  0
  139.9666   78.3683  220.7100 H   0  0  0  0  0  0  0  0  0  0  0  0
  142.8022   78.7190  221.5778 H   0  0  0  0  0  0  0  0  0  0  0  0
  141.9604   80.6485  220.4748 H   0  0  0  0  0  0  0  0  0  0  0  0
  140.3275   80.4487  221.2404 H   0  0  0  0  0  0  0  0  0  0  0  0
  142.2881   82.1525  222.0871 H   0  0  0  0  0  0  0  0  0  0  0  0
  140.9126   81.4990  223.0804 H   0  0  0  0  0  0  0  0  0  0  0  0
  143.6961   80.2990  222.8896 H   0  0  0  0  0  0  0  0  0  0  0  0
  143.0445   81.3043  224.2489 H   0  0  0  0  0  0  0  0  0  0  0  0
  143.0171   78.7252  224.4742 H   0  0  0  0  0  0  0  0  0  0  0  0
  141.5363   79.6834  224.9050 H   0  0  0  0  0  0  0  0  0  0  0  0
  141.5678   77.4750  223.2739 H   0  0  0  0  0  0  0  0  0  0  0  0
  140.3118   78.7787  223.2725 H   0  0  0  0  0  0  0  0  0  0  0  0
  1  2  2  0
  2  3  1  0
  3  4  2  0
  4  5  1  0
  5  6  2  0
  6  7  1  0
  7  8  2  0
  8  9  1  0
  9 10  2  0
 10 11  1  0
 11 12  2  0
 12 13  1  0
 13 14  2  0
 14 15  1  0
 15 16  2  0
 16 17  1  0
 17 18  2  0
 10 19  1  0
 19 20  1  0
 20 21  1  0
 21 22  1  0
 22 23  1  0
 23 24  1  0
 24 25  1  0
 25 26  1  0
 19  2  1  0
 26 21  1  0
  8  3  1  0
 18 13  1  0
  4 27  1  0
  5 28  1  0
  6 29  1  0
  7 30  1  0
 11 31  1  0
 12 32  1  0
 14 33  1  0
 15 34  1  0
 16 35  1  0
 18 36  1  0
 20 37  1  0
 20 38  1  0
 21 39  1  0
 22 40  1  0
 22 41  1  0
 23 42  1  0
 23 43  1  0
 24 44  1  0
 24 45  1  0
 25 46  1  0
 25 47  1  0
 26 48  1  0
 26 49  1  0
M  END
>  <smiles>  (37) 
O=c1c2ccccc2nc(/C=C/c2cccnc2)n1CC1CCCCC1

>  <score_type>  (37) 
oracle

>  <origin>  (37) 
autodockgpu

>  <m_score__min__energy>  (37) 
-7.3099999999999996

>  <m_primary>  (37) 
energy

>  <rmsd>  (37) 
4.454979856285761

>  <m_score__min__rmsd>  (37) 
4.454979856285761

>  <meeko>  (37) 
{"free_energy": -6.44, "intermolecular_energy": -7.93, "internal_energy": -1.93, "cluster_size": 16, "cluster_id": 5, "rank_in_cluster": 14}

>  <energy>  (37) 
-6.54

>  <cluster_rmsd>  (37) 
0.06

>  <cluster>  (37) 
5

$$$$

     RDKit          3D

 49 52  0  0  0  0  0  0  0  0999 V2000
  143.0610   76.4770  219.7950 O   0  0  0  0  0  0  0  0  0  0  0  0
  142.1700   75.9200  220.4750 C   0  0  0  0  0  0  0  0  0  0  0  0
  142.2980   74.5660  220.6720 C   0  0  0  0  0  0  0  0  0  0  0  0
  143.3560   73.8640  220.1360 C   0  0  0  0  0  0  0  0  0  0  0  0
  143.4240   72.5260  220.3660 C   0  0  0  0  0  0  0  0  0  0  0  0
  142.4470   71.9130  221.1170 C   0  0  0  0  0  0  0  0  0  0  0  0
  141.3730   72.6060  221.6650 C   0  0  0  0  0  0  0  0  0  0  0  0
  141.3310   73.9540  221.4170 C   0  0  0  0  0  0  0  0  0  0  0  0
  140.3420   74.6690  221.9030 N   0  0  0  0  0  0  0  0  0  0  0  0
  140.1750   76.0230  221.7310 C   0  0  0  0  0  0  0  0  0  0  0  0
  139.0350   76.5780  222.3800 C   0  0  0  0  0  0  0  0  0  0  0  0
  138.1470   77.4470  222.0160 C   0  0  0  0  0  0  0  0  0  0  0  0
  138.2280   78.8920  222.3160 C   0  0  0  0  0  0  0  0  0  0  0  0
  138.3880   79.3900  223.5810 C   0  0  0  0  0  0  0  0  0  0  0  0
  138.4540   80.7720  223.7840 C   0  0  0  0  0  0  0  0  0  0  0  0
  138.3610   81.6680  222.7380 C   0  0  0  0  0  0  0  0  0  0  0  0
  138.2020   81.1440  221.4940 N   0  0  0  0  0  0  0  0  0  0  0  0
  138.1380   79.8180  221.2890 C   0  0  0  0  0  0  0  0  0  0  0  0
  141.1110   76.6280  221.0060 N   0  0  0  0  0  0  0  0  0  0  0  0
  141.1400   78.0390  220.7200 C   0  0  0  0  0  0  0  0  0  0  0  0
  141.8150   78.9050  221.7270 C   0  0  0  0  0  0  0  0  0  0  0  0
  141.5220   80.3660  221.4170 C   0  0  0  0  0  0  0  0  0  0  0  0
  141.8860   81.2630  222.5590 C   0  0  0  0  0  0  0  0  0  0  0  0
  142.8260   80.5950  223.5390 C   0  0  0  0  0  0  0  0  0  0  0  0
  142.2050   79.3620  224.1520 C   0  0  0  0  0  0  0  0  0  0  0  0
  141.4140   78.5550  223.1340 C   0  0  0  0  0  0  0  0  0  0  0  0
  144.1256   74.3734  219.5375 H   0  0  0  0  0  0  0  0  0  0  0  0
  144.2559   71.9360  219.9539 H   0  0  0  0  0  0  0  0  0  0  0  0
  142.5187   70.8292  221.2911 H   0  0  0  0  0  0  0  0  0  0  0  0
  140.6006   72.1012  222.2637 H   0  0  0  0  0  0  0  0  0  0  0  0
  138.8770   76.1894  223.3969 H   0  0  0  0  0  0  0  0  0  0  0  0
  137.2769   77.0870  221.4473 H   0  0  0  0  0  0  0  0  0  0  0  0
  138.4646   78.7036  224.4372 H   0  0  0  0  0  0  0  0  0  0  0  0
  138.5837   81.1562  224.8065 H   0  0  0  0  0  0  0  0  0  0  0  0
  138.4131   82.7542  222.9034 H   0  0  0  0  0  0  0  0  0  0  0  0
  138.0084   79.4509  220.2602 H   0  0  0  0  0  0  0  0  0  0  0  0
  141.6589   78.1753  219.7597 H   0  0  0  0  0  0  0  0  0  0  0  0
  140.0875   78.3586  220.7182 H   0  0  0  0  0  0  0  0  0  0  0  0
  142.8992   78.7315  221.6608 H   0  0  0  0  0  0  0  0  0  0  0  0
  142.1019   80.6648  220.5313 H   0  0  0  0  0  0  0  0  0  0  0  0
  140.4416   80.4660  221.2360 H   0  0  0  0  0  0  0  0  0  0  0  0
  142.3742   82.1640  222.1591 H   0  0  0  0  0  0  0  0  0  0  0  0
  140.9603   81.5125  223.0983 H   0  0  0  0  0  0  0  0  0  0  0  0
  143.7465   80.3061  223.0106 H   0  0  0  0  0  0  0  0  0  0  0  0
  143.0447   81.3084  224.3472 H   0  0  0  0  0  0  0  0  0  0  0  0
  143.0049   78.7285  224.5629 H   0  0  0  0  0  0  0  0  0  0  0  0
  141.5104   79.6880  224.9402 H   0  0  0  0  0  0  0  0  0  0  0  0
  141.5998   77.4841  223.3035 H   0  0  0  0  0  0  0  0  0  0  0  0
  140.3467   78.7899  223.2590 H   0  0  0  0  0  0  0  0  0  0  0  0
  1  2  2  0
  2  3  1  0
  3  4  2  0
  4  5  1  0
  5  6  2  0
  6  7  1  0
  7  8  2  0
  8  9  1  0
  9 10  2  0
 10 11  1  0
 11 12  2  0
 12 13  1  0
 13 14  2  0
 14 15  1  0
 15 16  2  0
 16 17  1  0
 17 18  2  0
 10 19  1  0
 19 20  1  0
 20 21  1  0
 21 22  1  0
 22 23  1  0
 23 24  1  0
 24 25  1  0
 25 26  1  0
 19  2  1  0
 26 21  1  0
  8  3  1  0
 18 13  1  0
  4 27  1  0
  5 28  1  0
  6 29  1  0
  7 30  1  0
 11 31  1  0
 12 32  1  0
 14 33  1  0
 15 34  1  0
 16 35  1  0
 18 36  1  0
 20 37  1  0
 20 38  1  0
 21 39  1  0
 22 40  1  0
 22 41  1  0
 23 42  1  0
 23 43  1  0
 24 44  1  0
 24 45  1  0
 25 46  1  0
 25 47  1  0
 26 48  1  0
 26 49  1  0
M  END
>  <smiles>  (38) 
O=c1c2ccccc2nc(/C=C/c2cccnc2)n1CC1CCCCC1

>  <score_type>  (38) 
oracle

>  <origin>  (38) 
autodockgpu

>  <m_score__min__energy>  (38) 
-7.3099999999999996

>  <m_primary>  (38) 
energy

>  <rmsd>  (38) 
4.502515030685427

>  <m_score__min__rmsd>  (38) 
4.502515030685427

>  <meeko>  (38) 
{"free_energy": -6.55, "intermolecular_energy": -8.04, "internal_energy": -1.9, "cluster_size": 16, "cluster_id": 5, "rank_in_cluster": 3}

>  <energy>  (38) 
-6.53

>  <cluster_rmsd>  (38) 
0.05

>  <cluster>  (38) 
5

$$$$

     RDKit          3D

 49 52  0  0  0  0  0  0  0  0999 V2000
  140.4890   74.4240  221.9720 O   0  0  0  0  0  0  0  0  0  0  0  0
  141.3350   74.9820  221.2380 C   0  0  0  0  0  0  0  0  0  0  0  0
  142.3770   74.2040  220.7930 C   0  0  0  0  0  0  0  0  0  0  0  0
  142.4790   72.8770  221.1500 C   0  0  0  0  0  0  0  0  0  0  0  0
  143.5340   72.1620  220.6790 C   0  0  0  0  0  0  0  0  0  0  0  0
  144.4630   72.7740  219.8680 C   0  0  0  0  0  0  0  0  0  0  0  0
  144.3760   74.1110  219.4970 C   0  0  0  0  0  0  0  0  0  0  0  0
  143.3010   74.8070  219.9880 C   0  0  0  0  0  0  0  0  0  0  0  0
  143.1580   76.0750  219.6800 N   0  0  0  0  0  0  0  0  0  0  0  0
  142.1330   76.8900  220.1010 C   0  0  0  0  0  0  0  0  0  0  0  0
  142.1820   78.2260  219.6090 C   0  0  0  0  0  0  0  0  0  0  0  0
  141.2770   79.0370  219.1630 C   0  0  0  0  0  0  0  0  0  0  0  0
  140.9370   80.3290  219.7930 C   0  0  0  0  0  0  0  0  0  0  0  0
  141.8320   81.0720  220.5160 C   0  0  0  0  0  0  0  0  0  0  0  0
  141.4350   82.2870  221.0830 C   0  0  0  0  0  0  0  0  0  0  0  0
  140.1500   82.7720  220.9400 C   0  0  0  0  0  0  0  0  0  0  0  0
  139.2840   82.0140  220.2190 N   0  0  0  0  0  0  0  0  0  0  0  0
  139.6580   80.8450  219.6690 C   0  0  0  0  0  0  0  0  0  0  0  0
  141.2290   76.3120  220.8860 N   0  0  0  0  0  0  0  0  0  0  0  0
  140.0680   76.9750  221.4220 C   0  0  0  0  0  0  0  0  0  0  0  0
  140.3130   78.2430  222.1650 C   0  0  0  0  0  0  0  0  0  0  0  0
  139.0240   78.6980  222.8330 C   0  0  0  0  0  0  0  0  0  0  0  0
  139.2690   79.7660  223.8520 C   0  0  0  0  0  0  0  0  0  0  0  0
  140.6170   80.4290  223.6780 C   0  0  0  0  0  0  0  0  0  0  0  0
  141.7480   79.4380  223.8250 C   0  0  0  0  0  0  0  0  0  0  0  0
  141.4270   78.1050  223.1680 C   0  0  0  0  0  0  0  0  0  0  0  0
  141.7253   72.4084  221.7999 H   0  0  0  0  0  0  0  0  0  0  0  0
  143.6452   71.1002  220.9442 H   0  0  0  0  0  0  0  0  0  0  0  0
  145.3109   72.1793  219.4974 H   0  0  0  0  0  0  0  0  0  0  0  0
  145.1267   74.5838  218.8466 H   0  0  0  0  0  0  0  0  0  0  0  0
  143.1946   78.6558  219.6078 H   0  0  0  0  0  0  0  0  0  0  0  0
  140.7259   78.7453  218.2568 H   0  0  0  0  0  0  0  0  0  0  0  0
  142.8630   80.7130  220.6507 H   0  0  0  0  0  0  0  0  0  0  0  0
  142.1666   82.8727  221.6589 H   0  0  0  0  0  0  0  0  0  0  0  0
  139.8422   83.7278  221.3892 H   0  0  0  0  0  0  0  0  0  0  0  0
  138.9143   80.2730  219.0948 H   0  0  0  0  0  0  0  0  0  0  0  0
  139.3957   77.2039  220.5820 H   0  0  0  0  0  0  0  0  0  0  0  0
  139.6499   76.2781  222.1633 H   0  0  0  0  0  0  0  0  0  0  0  0
  140.6359   79.0082  221.4438 H   0  0  0  0  0  0  0  0  0  0  0  0
  138.3441   79.0910  222.0627 H   0  0  0  0  0  0  0  0  0  0  0  0
  138.5830   77.8315  223.3474 H   0  0  0  0  0  0  0  0  0  0  0  0
  138.4841   80.5309  223.7580 H   0  0  0  0  0  0  0  0  0  0  0  0
  139.2531   79.2928  224.8449 H   0  0  0  0  0  0  0  0  0  0  0  0
  140.6660   80.8804  222.6761 H   0  0  0  0  0  0  0  0  0  0  0  0
  140.7270   81.1947  224.4600 H   0  0  0  0  0  0  0  0  0  0  0  0
  142.6504   79.8569  223.3557 H   0  0  0  0  0  0  0  0  0  0  0  0
  141.9045   79.2583  224.8989 H   0  0  0  0  0  0  0  0  0  0  0  0
  142.3262   77.7325  222.6556 H   0  0  0  0  0  0  0  0  0  0  0  0
  141.1047   77.4016  223.9499 H   0  0  0  0  0  0  0  0  0  0  0  0
  1  2  2  0
  2  3  1  0
  3  4  2  0
  4  5  1  0
  5  6  2  0
  6  7  1  0
  7  8  2  0
  8  9  1  0
  9 10  2  0
 10 11  1  0
 11 12  2  0
 12 13  1  0
 13 14  2  0
 14 15  1  0
 15 16  2  0
 16 17  1  0
 17 18  2  0
 10 19  1  0
 19 20  1  0
 20 21  1  0
 21 22  1  0
 22 23  1  0
 23 24  1  0
 24 25  1  0
 25 26  1  0
 19  2  1  0
 26 21  1  0
  8  3  1  0
 18 13  1  0
  4 27  1  0
  5 28  1  0
  6 29  1  0
  7 30  1  0
 11 31  1  0
 12 32  1  0
 14 33  1  0
 15 34  1  0
 16 35  1  0
 18 36  1  0
 20 37  1  0
 20 38  1  0
 21 39  1  0
 22 40  1  0
 22 41  1  0
 23 42  1  0
 23 43  1  0
 24 44  1  0
 24 45  1  0
 25 46  1  0
 25 47  1  0
 26 48  1  0
 26 49  1  0
M  END
>  <smiles>  (39) 
O=c1c2ccccc2nc(/C=C/c2cccnc2)n1CC1CCCCC1

>  <score_type>  (39) 
oracle

>  <origin>  (39) 
autodockgpu

>  <m_score__min__energy>  (39) 
-7.3099999999999996

>  <m_primary>  (39) 
energy

>  <rmsd>  (39) 
4.508628322093956

>  <m_score__min__rmsd>  (39) 
4.508628322093956

>  <meeko>  (39) 
{"free_energy": -6.44, "intermolecular_energy": -7.93, "internal_energy": -1.88, "cluster_size": 3, "cluster_id": 6, "rank_in_cluster": 1}

>  <energy>  (39) 
-6.53

>  <cluster_rmsd>  (39) 
0.11

>  <cluster>  (39) 
5

$$$$

     RDKit          3D

 49 52  0  0  0  0  0  0  0  0999 V2000
  139.2390   67.4710  225.4310 O   0  0  0  0  0  0  0  0  0  0  0  0
  139.5360   68.6440  225.1090 C   0  0  0  0  0  0  0  0  0  0  0  0
  140.0550   69.4440  226.1000 C   0  0  0  0  0  0  0  0  0  0  0  0
  140.2270   68.9690  227.3810 C   0  0  0  0  0  0  0  0  0  0  0  0
  140.7440   69.8110  228.3170 C   0  0  0  0  0  0  0  0  0  0  0  0
  141.0750   71.0990  227.9630 C   0  0  0  0  0  0  0  0  0  0  0  0
  140.9080   71.5940  226.6750 C   0  0  0  0  0  0  0  0  0  0  0  0
  140.3850   70.7220  225.7540 C   0  0  0  0  0  0  0  0  0  0  0  0
  140.1980   71.1250  224.5170 N   0  0  0  0  0  0  0  0  0  0  0  0
  139.6840   70.3600  223.4970 C   0  0  0  0  0  0  0  0  0  0  0  0
  139.6030   71.0150  222.2340 C   0  0  0  0  0  0  0  0  0  0  0  0
  140.4850   71.5840  221.4760 C   0  0  0  0  0  0  0  0  0  0  0  0
  140.7120   73.0430  221.4180 C   0  0  0  0  0  0  0  0  0  0  0  0
  141.7920   73.6120  220.7990 C   0  0  0  0  0  0  0  0  0  0  0  0
  141.9380   75.0030  220.7870 C   0  0  0  0  0  0  0  0  0  0  0  0
  141.0160   75.8370  221.3880 C   0  0  0  0  0  0  0  0  0  0  0  0
  139.9550   75.2440  221.9940 N   0  0  0  0  0  0  0  0  0  0  0  0
  139.8060   73.9080  222.0100 C   0  0  0  0  0  0  0  0  0  0  0  0
  139.3580   69.1130  223.8240 N   0  0  0  0  0  0  0  0  0  0  0  0
  138.8230   68.1410  222.9070 C   0  0  0  0  0  0  0  0  0  0  0  0
  137.4320   68.3770  222.4280 C   0  0  0  0  0  0  0  0  0  0  0  0
  136.8430   67.0710  221.9150 C   0  0  0  0  0  0  0  0  0  0  0  0
  135.3610   67.1620  221.7290 C   0  0  0  0  0  0  0  0  0  0  0  0
  134.8740   68.5930  221.6730 C   0  0  0  0  0  0  0  0  0  0  0  0
  135.1860   69.3370  222.9500 C   0  0  0  0  0  0  0  0  0  0  0  0
  136.5620   68.9870  223.4930 C   0  0  0  0  0  0  0  0  0  0  0  0
  139.9536   67.9357  227.6411 H   0  0  0  0  0  0  0  0  0  0  0  0
  140.8963   69.4642  229.3497 H   0  0  0  0  0  0  0  0  0  0  0  0
  141.4899   71.7660  228.7331 H   0  0  0  0  0  0  0  0  0  0  0  0
  141.1797   72.6262  226.4092 H   0  0  0  0  0  0  0  0  0  0  0  0
  138.5847   71.0428  221.8190 H   0  0  0  0  0  0  0  0  0  0  0  0
  141.1048   70.9404  220.8344 H   0  0  0  0  0  0  0  0  0  0  0  0
  142.5449   72.9755  220.3111 H   0  0  0  0  0  0  0  0  0  0  0  0
  142.8114   75.4448  220.2850 H   0  0  0  0  0  0  0  0  0  0  0  0
  141.1353   76.9305  221.3765 H   0  0  0  0  0  0  0  0  0  0  0  0
  138.9262   73.4830  222.5152 H   0  0  0  0  0  0  0  0  0  0  0  0
  139.4806   68.1151  222.0256 H   0  0  0  0  0  0  0  0  0  0  0  0
  138.7812   67.1982  223.4722 H   0  0  0  0  0  0  0  0  0  0  0  0
  137.4699   69.1045  221.6038 H   0  0  0  0  0  0  0  0  0  0  0  0
  137.3083   66.8264  220.9487 H   0  0  0  0  0  0  0  0  0  0  0  0
  137.0454   66.2892  222.6619 H   0  0  0  0  0  0  0  0  0  0  0  0
  135.0915   66.6600  220.7881 H   0  0  0  0  0  0  0  0  0  0  0  0
  134.8839   66.6788  222.5944 H   0  0  0  0  0  0  0  0  0  0  0  0
  135.3656   69.1047  220.8325 H   0  0  0  0  0  0  0  0  0  0  0  0
  133.7821   68.5799  221.5405 H   0  0  0  0  0  0  0  0  0  0  0  0
  135.1481   70.4179  222.7493 H   0  0  0  0  0  0  0  0  0  0  0  0
  134.4397   69.0451  223.7036 H   0  0  0  0  0  0  0  0  0  0  0  0
  137.0429   69.9028  223.8672 H   0  0  0  0  0  0  0  0  0  0  0  0
  136.4388   68.2528  224.3028 H   0  0  0  0  0  0  0  0  0  0  0  0
  1  2  2  0
  2  3  1  0
  3  4  2  0
  4  5  1  0
  5  6  2  0
  6  7  1  0
  7  8  2  0
  8  9  1  0
  9 10  2  0
 10 11  1  0
 11 12  2  0
 12 13  1  0
 13 14  2  0
 14 15  1  0
 15 16  2  0
 16 17  1  0
 17 18  2  0
 10 19  1  0
 19 20  1  0
 20 21  1  0
 21 22  1  0
 22 23  1  0
 23 24  1  0
 24 25  1  0
 25 26  1  0
 19  2  1  0
 26 21  1  0
  8  3  1  0
 18 13  1  0
  4 27  1  0
  5 28  1  0
  6 29  1  0
  7 30  1  0
 11 31  1  0
 12 32  1  0
 14 33  1  0
 15 34  1  0
 16 35  1  0
 18 36  1  0
 20 37  1  0
 20 38  1  0
 21 39  1  0
 22 40  1  0
 22 41  1  0
 23 42  1  0
 23 43  1  0
 24 44  1  0
 24 45  1  0
 25 46  1  0
 25 47  1  0
 26 48  1  0
 26 49  1  0
M  END
>  <smiles>  (40) 
O=c1c2ccccc2nc(/C=C/c2cccnc2)n1CC1CCCCC1

>  <score_type>  (40) 
oracle

>  <origin>  (40) 
autodockgpu

>  <m_score__min__energy>  (40) 
-7.3099999999999996

>  <m_primary>  (40) 
energy

>  <rmsd>  (40) 
12.70602698713909

>  <m_score__min__rmsd>  (40) 
12.70602698713909

>  <meeko>  (40) 
{"free_energy": -7.27, "intermolecular_energy": -8.76, "internal_energy": -1.23, "cluster_size": 9, "cluster_id": 1, "rank_in_cluster": 3}

>  <energy>  (40) 
-6.49

>  <cluster_rmsd>  (40) 
0.22

>  <cluster>  (40) 
5

$$$$

     RDKit          3D

 49 52  0  0  0  0  0  0  0  0999 V2000
  142.9030   77.4860  219.2700 O   0  0  0  0  0  0  0  0  0  0  0  0
  142.2260   76.7730  220.0450 C   0  0  0  0  0  0  0  0  0  0  0  0
  142.6170   75.4610  220.1770 C   0  0  0  0  0  0  0  0  0  0  0  0
  143.6960   74.9660  219.4790 C   0  0  0  0  0  0  0  0  0  0  0  0
  144.0310   73.6590  219.6520 C   0  0  0  0  0  0  0  0  0  0  0  0
  143.2900   72.8740  220.5070 C   0  0  0  0  0  0  0  0  0  0  0  0
  142.1980   73.3580  221.2190 C   0  0  0  0  0  0  0  0  0  0  0  0
  141.8850   74.6800  221.0240 C   0  0  0  0  0  0  0  0  0  0  0  0
  140.8630   75.2020  221.6630 N   0  0  0  0  0  0  0  0  0  0  0  0
  140.4390   76.5060  221.5620 C   0  0  0  0  0  0  0  0  0  0  0  0
  139.3200   76.8420  222.3780 C   0  0  0  0  0  0  0  0  0  0  0  0
  138.2770   77.5820  222.1840 C   0  0  0  0  0  0  0  0  0  0  0  0
  138.1410   78.9700  222.6730 C   0  0  0  0  0  0  0  0  0  0  0  0
  138.7390   79.4270  223.8170 C   0  0  0  0  0  0  0  0  0  0  0  0
  138.5620   80.7540  224.2160 C   0  0  0  0  0  0  0  0  0  0  0  0
  137.7920   81.6380  223.4860 C   0  0  0  0  0  0  0  0  0  0  0  0
  137.2100   81.1570  222.3570 N   0  0  0  0  0  0  0  0  0  0  0  0
  137.3750   79.8820  221.9650 C   0  0  0  0  0  0  0  0  0  0  0  0
  141.1440   77.2750  220.7380 N   0  0  0  0  0  0  0  0  0  0  0  0
  140.8840   78.6710  220.5000 C   0  0  0  0  0  0  0  0  0  0  0  0
  141.1350   79.5960  221.6400 C   0  0  0  0  0  0  0  0  0  0  0  0
  142.3320   79.1030  222.4410 C   0  0  0  0  0  0  0  0  0  0  0  0
  142.8370   80.1460  223.3880 C   0  0  0  0  0  0  0  0  0  0  0  0
  141.8200   81.2380  223.6390 C   0  0  0  0  0  0  0  0  0  0  0  0
  141.4590   81.9650  222.3650 C   0  0  0  0  0  0  0  0  0  0  0  0
  141.3320   81.0160  221.1840 C   0  0  0  0  0  0  0  0  0  0  0  0
  144.2721   75.6109  218.7991 H   0  0  0  0  0  0  0  0  0  0  0  0
  144.8888   73.2316  219.1121 H   0  0  0  0  0  0  0  0  0  0  0  0
  143.5741   71.8187  220.6321 H   0  0  0  0  0  0  0  0  0  0  0  0
  141.6180   72.7177  221.8998 H   0  0  0  0  0  0  0  0  0  0  0  0
  139.3492   76.3780  223.3749 H   0  0  0  0  0  0  0  0  0  0  0  0
  137.4376   77.1506  221.6189 H   0  0  0  0  0  0  0  0  0  0  0  0
  139.3589   78.7490  224.4220 H   0  0  0  0  0  0  0  0  0  0  0  0
  139.0496   81.1047  225.1376 H   0  0  0  0  0  0  0  0  0  0  0  0
  137.6565   82.6823  223.8039 H   0  0  0  0  0  0  0  0  0  0  0  0
  136.8800   79.5478  221.0413 H   0  0  0  0  0  0  0  0  0  0  0  0
  141.5209   78.9918  219.6625 H   0  0  0  0  0  0  0  0  0  0  0  0
  139.8038   78.7372  220.3029 H   0  0  0  0  0  0  0  0  0  0  0  0
  140.2442   79.5972  222.2853 H   0  0  0  0  0  0  0  0  0  0  0  0
  142.0332   78.2146  223.0167 H   0  0  0  0  0  0  0  0  0  0  0  0
  143.1403   78.8639  221.7342 H   0  0  0  0  0  0  0  0  0  0  0  0
  143.0820   79.6644  224.3461 H   0  0  0  0  0  0  0  0  0  0  0  0
  143.7236   80.6115  222.9327 H   0  0  0  0  0  0  0  0  0  0  0  0
  140.9103   80.7880  224.0633 H   0  0  0  0  0  0  0  0  0  0  0  0
  142.2609   81.9650  224.3370 H   0  0  0  0  0  0  0  0  0  0  0  0
  140.4986   82.4812  222.5106 H   0  0  0  0  0  0  0  0  0  0  0  0
  142.2650   82.6795  222.1415 H   0  0  0  0  0  0  0  0  0  0  0  0
  140.4690   81.3187  220.5728 H   0  0  0  0  0  0  0  0  0  0  0  0
  142.2617   81.0658  220.5982 H   0  0  0  0  0  0  0  0  0  0  0  0
  1  2  2  0
  2  3  1  0
  3  4  2  0
  4  5  1  0
  5  6  2  0
  6  7  1  0
  7  8  2  0
  8  9  1  0
  9 10  2  0
 10 11  1  0
 11 12  2  0
 12 13  1  0
 13 14  2  0
 14 15  1  0
 15 16  2  0
 16 17  1  0
 17 18  2  0
 10 19  1  0
 19 20  1  0
 20 21  1  0
 21 22  1  0
 22 23  1  0
 23 24  1  0
 24 25  1  0
 25 26  1  0
 19  2  1  0
 26 21  1  0
  8  3  1  0
 18 13  1  0
  4 27  1  0
  5 28  1  0
  6 29  1  0
  7 30  1  0
 11 31  1  0
 12 32  1  0
 14 33  1  0
 15 34  1  0
 16 35  1  0
 18 36  1  0
 20 37  1  0
 20 38  1  0
 21 39  1  0
 22 40  1  0
 22 41  1  0
 23 42  1  0
 23 43  1  0
 24 44  1  0
 24 45  1  0
 25 46  1  0
 25 47  1  0
 26 48  1  0
 26 49  1  0
M  END
>  <smiles>  (41) 
O=c1c2ccccc2nc(/C=C/c2cccnc2)n1CC1CCCCC1

>  <score_type>  (41) 
oracle

>  <origin>  (41) 
autodockgpu

>  <m_score__min__energy>  (41) 
-7.3099999999999996

>  <m_primary>  (41) 
energy

>  <rmsd>  (41) 
3.914461202251895

>  <m_score__min__rmsd>  (41) 
3.914461202251895

>  <meeko>  (41) 
{"free_energy": -6.4, "intermolecular_energy": -7.89, "internal_energy": -1.92, "cluster_size": 16, "cluster_id": 5, "rank_in_cluster": 16}

>  <energy>  (41) 
-6.45

>  <cluster_rmsd>  (41) 
0.92

>  <cluster>  (41) 
5

$$$$

     RDKit          3D

 49 52  0  0  0  0  0  0  0  0999 V2000
  142.8880   76.3990  219.8240 O   0  0  0  0  0  0  0  0  0  0  0  0
  141.9810   75.8800  220.5140 C   0  0  0  0  0  0  0  0  0  0  0  0
  142.0710   74.5260  220.7360 C   0  0  0  0  0  0  0  0  0  0  0  0
  143.1070   73.7860  220.2120 C   0  0  0  0  0  0  0  0  0  0  0  0
  143.1380   72.4500  220.4660 C   0  0  0  0  0  0  0  0  0  0  0  0
  142.1440   71.8800  221.2280 C   0  0  0  0  0  0  0  0  0  0  0  0
  141.0920   72.6120  221.7650 C   0  0  0  0  0  0  0  0  0  0  0  0
  141.0870   73.9560  221.4920 C   0  0  0  0  0  0  0  0  0  0  0  0
  140.1200   74.7080  221.9650 N   0  0  0  0  0  0  0  0  0  0  0  0
  139.9920   76.0630  221.7690 C   0  0  0  0  0  0  0  0  0  0  0  0
  138.8680   76.6620  222.4100 C   0  0  0  0  0  0  0  0  0  0  0  0
  138.0140   77.5600  222.0360 C   0  0  0  0  0  0  0  0  0  0  0  0
  138.1420   79.0020  222.3340 C   0  0  0  0  0  0  0  0  0  0  0  0
  138.3400   79.4940  223.5960 C   0  0  0  0  0  0  0  0  0  0  0  0
  138.4500   80.8730  223.7990 C   0  0  0  0  0  0  0  0  0  0  0  0
  138.3620   81.7720  222.7540 C   0  0  0  0  0  0  0  0  0  0  0  0
  138.1640   81.2540  221.5140 N   0  0  0  0  0  0  0  0  0  0  0  0
  138.0590   79.9300  221.3090 C   0  0  0  0  0  0  0  0  0  0  0  0
  140.9440   76.6280  221.0330 N   0  0  0  0  0  0  0  0  0  0  0  0
  141.0130   78.0320  220.7230 C   0  0  0  0  0  0  0  0  0  0  0  0
  141.7330   78.8930  221.7010 C   0  0  0  0  0  0  0  0  0  0  0  0
  141.4600   80.3570  221.3880 C   0  0  0  0  0  0  0  0  0  0  0  0
  141.8740   81.2550  222.5110 C   0  0  0  0  0  0  0  0  0  0  0  0
  142.8290   80.5770  223.4690 C   0  0  0  0  0  0  0  0  0  0  0  0
  142.2030   79.3610  224.1100 C   0  0  0  0  0  0  0  0  0  0  0  0
  141.3670   78.5620  223.1230 C   0  0  0  0  0  0  0  0  0  0  0  0
  143.8896   74.2629  219.6036 H   0  0  0  0  0  0  0  0  0  0  0  0
  143.9526   71.8291  220.0648 H   0  0  0  0  0  0  0  0  0  0  0  0
  142.1839   70.7977  221.4204 H   0  0  0  0  0  0  0  0  0  0  0  0
  140.3074   72.1401  222.3747 H   0  0  0  0  0  0  0  0  0  0  0  0
  138.6908   76.2848  223.4280 H   0  0  0  0  0  0  0  0  0  0  0  0
  137.1374   77.2289  221.4598 H   0  0  0  0  0  0  0  0  0  0  0  0
  138.4125   78.8047  224.4501 H   0  0  0  0  0  0  0  0  0  0  0  0
  138.6110   81.2524  224.8189 H   0  0  0  0  0  0  0  0  0  0  0  0
  138.4482   82.8563  222.9182 H   0  0  0  0  0  0  0  0  0  0  0  0
  137.9003   79.5675  220.2827 H   0  0  0  0  0  0  0  0  0  0  0  0
  141.5181   78.1354  219.7513 H   0  0  0  0  0  0  0  0  0  0  0  0
  139.9712   78.3848  220.7359 H   0  0  0  0  0  0  0  0  0  0  0  0
  142.8112   78.6981  221.6033 H   0  0  0  0  0  0  0  0  0  0  0  0
  142.0198   80.6376  220.4836 H   0  0  0  0  0  0  0  0  0  0  0  0
  140.3770   80.4769  221.2376 H   0  0  0  0  0  0  0  0  0  0  0  0
  142.3674   82.1432  222.0896 H   0  0  0  0  0  0  0  0  0  0  0  0
  140.9692   81.5262  223.0748 H   0  0  0  0  0  0  0  0  0  0  0  0
  143.7282   80.2665  222.9168 H   0  0  0  0  0  0  0  0  0  0  0  0
  143.0843   81.2925  224.2645 H   0  0  0  0  0  0  0  0  0  0  0  0
  143.0026   78.7153  224.5022 H   0  0  0  0  0  0  0  0  0  0  0  0
  141.5385   79.7065  224.9157 H   0  0  0  0  0  0  0  0  0  0  0  0
  141.5369   77.4891  223.2960 H   0  0  0  0  0  0  0  0  0  0  0  0
  140.3086   78.8189  223.2774 H   0  0  0  0  0  0  0  0  0  0  0  0
  1  2  2  0
  2  3  1  0
  3  4  2  0
  4  5  1  0
  5  6  2  0
  6  7  1  0
  7  8  2  0
  8  9  1  0
  9 10  2  0
 10 11  1  0
 11 12  2  0
 12 13  1  0
 13 14  2  0
 14 15  1  0
 15 16  2  0
 16 17  1  0
 17 18  2  0
 10 19  1  0
 19 20  1  0
 20 21  1  0
 21 22  1  0
 22 23  1  0
 23 24  1  0
 24 25  1  0
 25 26  1  0
 19  2  1  0
 26 21  1  0
  8  3  1  0
 18 13  1  0
  4 27  1  0
  5 28  1  0
  6 29  1  0
  7 30  1  0
 11 31  1  0
 12 32  1  0
 14 33  1  0
 15 34  1  0
 16 35  1  0
 18 36  1  0
 20 37  1  0
 20 38  1  0
 21 39  1  0
 22 40  1  0
 22 41  1  0
 23 42  1  0
 23 43  1  0
 24 44  1  0
 24 45  1  0
 25 46  1  0
 25 47  1  0
 26 48  1  0
 26 49  1  0
M  END
>  <smiles>  (42) 
O=c1c2ccccc2nc(/C=C/c2cccnc2)n1CC1CCCCC1

>  <score_type>  (42) 
oracle

>  <origin>  (42) 
autodockgpu

>  <m_score__min__energy>  (42) 
-7.3099999999999996

>  <m_primary>  (42) 
energy

>  <rmsd>  (42) 
4.454496846867553

>  <m_score__min__rmsd>  (42) 
4.454496846867553

>  <meeko>  (42) 
{"free_energy": -6.55, "intermolecular_energy": -8.04, "internal_energy": -1.93, "cluster_size": 16, "cluster_id": 5, "rank_in_cluster": 1}

>  <energy>  (42) 
-6.45

>  <cluster_rmsd>  (42) 
0.55

>  <cluster>  (42) 
5

$$$$

     RDKit          3D

 49 52  0  0  0  0  0  0  0  0999 V2000
  142.9270   76.4060  219.7990 O   0  0  0  0  0  0  0  0  0  0  0  0
  142.0080   75.9040  220.4850 C   0  0  0  0  0  0  0  0  0  0  0  0
  142.0790   74.5510  220.7170 C   0  0  0  0  0  0  0  0  0  0  0  0
  143.1110   73.7940  220.2080 C   0  0  0  0  0  0  0  0  0  0  0  0
  143.1230   72.4590  220.4710 C   0  0  0  0  0  0  0  0  0  0  0  0
  142.1150   71.9070  221.2300 C   0  0  0  0  0  0  0  0  0  0  0  0
  141.0670   72.6560  221.7520 C   0  0  0  0  0  0  0  0  0  0  0  0
  141.0820   73.9990  221.4690 C   0  0  0  0  0  0  0  0  0  0  0  0
  140.1200   74.7660  221.9280 N   0  0  0  0  0  0  0  0  0  0  0  0
  140.0100   76.1210  221.7210 C   0  0  0  0  0  0  0  0  0  0  0  0
  138.8890   76.7380  222.3470 C   0  0  0  0  0  0  0  0  0  0  0  0
  138.0400   77.6330  221.9530 C   0  0  0  0  0  0  0  0  0  0  0  0
  138.1510   79.0740  222.2590 C   0  0  0  0  0  0  0  0  0  0  0  0
  138.3460   79.5630  223.5230 C   0  0  0  0  0  0  0  0  0  0  0  0
  138.4400   80.9420  223.7320 C   0  0  0  0  0  0  0  0  0  0  0  0
  138.3410   81.8450  222.6920 C   0  0  0  0  0  0  0  0  0  0  0  0
  138.1480   81.3310  221.4500 N   0  0  0  0  0  0  0  0  0  0  0  0
  138.0570   80.0070  221.2390 C   0  0  0  0  0  0  0  0  0  0  0  0
  140.9760   76.6680  220.9890 N   0  0  0  0  0  0  0  0  0  0  0  0
  141.0650   78.0690  220.6690 C   0  0  0  0  0  0  0  0  0  0  0  0
  141.7590   78.9340  221.6630 C   0  0  0  0  0  0  0  0  0  0  0  0
  141.4600   80.3950  221.3620 C   0  0  0  0  0  0  0  0  0  0  0  0
  141.8460   81.2900  222.4980 C   0  0  0  0  0  0  0  0  0  0  0  0
  142.8050   80.6210  223.4580 C   0  0  0  0  0  0  0  0  0  0  0  0
  142.1970   79.3860  224.0810 C   0  0  0  0  0  0  0  0  0  0  0  0
  141.3860   78.5810  223.0780 C   0  0  0  0  0  0  0  0  0  0  0  0
  143.9054   74.2569  219.6041 H   0  0  0  0  0  0  0  0  0  0  0  0
  143.9324   71.8249  220.0800 H   0  0  0  0  0  0  0  0  0  0  0  0
  142.1405   70.8260  221.4319 H   0  0  0  0  0  0  0  0  0  0  0  0
  140.2708   72.1985  222.3575 H   0  0  0  0  0  0  0  0  0  0  0  0
  138.7080   76.3824  223.3721 H   0  0  0  0  0  0  0  0  0  0  0  0
  137.1813   77.2989  221.3521 H   0  0  0  0  0  0  0  0  0  0  0  0
  138.4287   78.8708  224.3739 H   0  0  0  0  0  0  0  0  0  0  0  0
  138.5973   81.3183  224.7536 H   0  0  0  0  0  0  0  0  0  0  0  0
  138.4150   82.9293  222.8616 H   0  0  0  0  0  0  0  0  0  0  0  0
  137.9010   79.6480  220.2110 H   0  0  0  0  0  0  0  0  0  0  0  0
  141.6023   78.1603  219.7135 H   0  0  0  0  0  0  0  0  0  0  0  0
  140.0259   78.4290  220.6445 H   0  0  0  0  0  0  0  0  0  0  0  0
  142.8418   78.7615  221.5741 H   0  0  0  0  0  0  0  0  0  0  0  0
  142.0224   80.6956  220.4657 H   0  0  0  0  0  0  0  0  0  0  0  0
  140.3762   80.4950  221.2027 H   0  0  0  0  0  0  0  0  0  0  0  0
  142.3259   82.1918  222.0901 H   0  0  0  0  0  0  0  0  0  0  0  0
  140.9310   81.5381  223.0558 H   0  0  0  0  0  0  0  0  0  0  0  0
  143.7152   80.3338  222.9112 H   0  0  0  0  0  0  0  0  0  0  0  0
  143.0387   81.3331  224.2631 H   0  0  0  0  0  0  0  0  0  0  0  0
  143.0055   78.7521  224.4741 H   0  0  0  0  0  0  0  0  0  0  0  0
  141.5185   79.7100  224.8839 H   0  0  0  0  0  0  0  0  0  0  0  0
  141.5752   77.5098  223.2417 H   0  0  0  0  0  0  0  0  0  0  0  0
  140.3213   78.8154  223.2249 H   0  0  0  0  0  0  0  0  0  0  0  0
  1  2  2  0
  2  3  1  0
  3  4  2  0
  4  5  1  0
  5  6  2  0
  6  7  1  0
  7  8  2  0
  8  9  1  0
  9 10  2  0
 10 11  1  0
 11 12  2  0
 12 13  1  0
 13 14  2  0
 14 15  1  0
 15 16  2  0
 16 17  1  0
 17 18  2  0
 10 19  1  0
 19 20  1  0
 20 21  1  0
 21 22  1  0
 22 23  1  0
 23 24  1  0
 24 25  1  0
 25 26  1  0
 19  2  1  0
 26 21  1  0
  8  3  1  0
 18 13  1  0
  4 27  1  0
  5 28  1  0
  6 29  1  0
  7 30  1  0
 11 31  1  0
 12 32  1  0
 14 33  1  0
 15 34  1  0
 16 35  1  0
 18 36  1  0
 20 37  1  0
 20 38  1  0
 21 39  1  0
 22 40  1  0
 22 41  1  0
 23 42  1  0
 23 43  1  0
 24 44  1  0
 24 45  1  0
 25 46  1  0
 25 47  1  0
 26 48  1  0
 26 49  1  0
M  END
>  <smiles>  (43) 
O=c1c2ccccc2nc(/C=C/c2cccnc2)n1CC1CCCCC1

>  <score_type>  (43) 
oracle

>  <origin>  (43) 
autodockgpu

>  <m_score__min__energy>  (43) 
-7.3099999999999996

>  <m_primary>  (43) 
energy

>  <rmsd>  (43) 
4.437586764868737

>  <m_score__min__rmsd>  (43) 
4.437586764868737

>  <meeko>  (43) 
{"free_energy": -6.54, "intermolecular_energy": -8.03, "internal_energy": -1.92, "cluster_size": 16, "cluster_id": 5, "rank_in_cluster": 5}

>  <energy>  (43) 
-6.45

>  <cluster_rmsd>  (43) 
0.53

>  <cluster>  (43) 
5

$$$$

     RDKit          3D

 49 52  0  0  0  0  0  0  0  0999 V2000
  140.5630   71.8690  225.3630 O   0  0  0  0  0  0  0  0  0  0  0  0
  139.9340   70.7870  225.3510 C   0  0  0  0  0  0  0  0  0  0  0  0
  140.1760   69.9200  226.3900 C   0  0  0  0  0  0  0  0  0  0  0  0
  141.0740   70.2340  227.3850 C   0  0  0  0  0  0  0  0  0  0  0  0
  141.2710   69.3320  228.3850 C   0  0  0  0  0  0  0  0  0  0  0  0
  140.5760   68.1440  228.3750 C   0  0  0  0  0  0  0  0  0  0  0  0
  139.6650   67.8120  227.3790 C   0  0  0  0  0  0  0  0  0  0  0  0
  139.4890   68.7400  226.3840 C   0  0  0  0  0  0  0  0  0  0  0  0
  138.6450   68.4890  225.4100 N   0  0  0  0  0  0  0  0  0  0  0  0
  138.3720   69.3270  224.3540 C   0  0  0  0  0  0  0  0  0  0  0  0
  137.3960   68.8420  223.4360 C   0  0  0  0  0  0  0  0  0  0  0  0
  136.1030   68.9100  223.4040 C   0  0  0  0  0  0  0  0  0  0  0  0
  135.2740   69.4590  224.4970 C   0  0  0  0  0  0  0  0  0  0  0  0
  135.0890   70.8010  224.7000 C   0  0  0  0  0  0  0  0  0  0  0  0
  134.2900   71.2440  225.7580 C   0  0  0  0  0  0  0  0  0  0  0  0
  133.6710   70.3620  226.6230 C   0  0  0  0  0  0  0  0  0  0  0  0
  133.8740   69.0380  226.3970 N   0  0  0  0  0  0  0  0  0  0  0  0
  134.6390   68.6030  225.3810 C   0  0  0  0  0  0  0  0  0  0  0  0
  139.0370   70.4780  224.3490 N   0  0  0  0  0  0  0  0  0  0  0  0
  138.8890   71.5040  223.3500 C   0  0  0  0  0  0  0  0  0  0  0  0
  140.0900   71.8010  222.5210 C   0  0  0  0  0  0  0  0  0  0  0  0
  140.2140   70.7620  221.4150 C   0  0  0  0  0  0  0  0  0  0  0  0
  141.1910   71.1820  220.3620 C   0  0  0  0  0  0  0  0  0  0  0  0
  142.1150   72.2810  220.8380 C   0  0  0  0  0  0  0  0  0  0  0  0
  141.3480   73.5250  221.2220 C   0  0  0  0  0  0  0  0  0  0  0  0
  140.0590   73.1960  221.9580 C   0  0  0  0  0  0  0  0  0  0  0  0
  141.6186   71.1897  227.3722 H   0  0  0  0  0  0  0  0  0  0  0  0
  141.9811   69.5510  229.1960 H   0  0  0  0  0  0  0  0  0  0  0  0
  140.7490   67.4263  229.1904 H   0  0  0  0  0  0  0  0  0  0  0  0
  139.1160   66.8588  227.3881 H   0  0  0  0  0  0  0  0  0  0  0  0
  137.8281   68.3003  222.5817 H   0  0  0  0  0  0  0  0  0  0  0  0
  135.5895   68.5353  222.5063 H   0  0  0  0  0  0  0  0  0  0  0  0
  135.5691   71.5299  224.0306 H   0  0  0  0  0  0  0  0  0  0  0  0
  134.1501   72.3250  225.9061 H   0  0  0  0  0  0  0  0  0  0  0  0
  133.0438   70.7151  227.4549 H   0  0  0  0  0  0  0  0  0  0  0  0
  134.7663   67.5188  225.2458 H   0  0  0  0  0  0  0  0  0  0  0  0
  138.0815   71.1947  222.6701 H   0  0  0  0  0  0  0  0  0  0  0  0
  138.6851   72.4287  223.9097 H   0  0  0  0  0  0  0  0  0  0  0  0
  140.9776   71.7471  223.1685 H   0  0  0  0  0  0  0  0  0  0  0  0
  140.5521   69.8124  221.8554 H   0  0  0  0  0  0  0  0  0  0  0  0
  139.2281   70.6501  220.9402 H   0  0  0  0  0  0  0  0  0  0  0  0
  141.7974   70.3103  220.0749 H   0  0  0  0  0  0  0  0  0  0  0  0
  140.6171   71.5725  219.5087 H   0  0  0  0  0  0  0  0  0  0  0  0
  142.6749   71.9221  221.7142 H   0  0  0  0  0  0  0  0  0  0  0  0
  142.7972   72.5379  220.0142 H   0  0  0  0  0  0  0  0  0  0  0  0
  141.9808   74.1450  221.8741 H   0  0  0  0  0  0  0  0  0  0  0  0
  141.0840   74.0598  220.2977 H   0  0  0  0  0  0  0  0  0  0  0  0
  139.9246   73.9119  222.7823 H   0  0  0  0  0  0  0  0  0  0  0  0
  139.2252   73.2630  221.2436 H   0  0  0  0  0  0  0  0  0  0  0  0
  1  2  2  0
  2  3  1  0
  3  4  2  0
  4  5  1  0
  5  6  2  0
  6  7  1  0
  7  8  2  0
  8  9  1  0
  9 10  2  0
 10 11  1  0
 11 12  2  0
 12 13  1  0
 13 14  2  0
 14 15  1  0
 15 16  2  0
 16 17  1  0
 17 18  2  0
 10 19  1  0
 19 20  1  0
 20 21  1  0
 21 22  1  0
 22 23  1  0
 23 24  1  0
 24 25  1  0
 25 26  1  0
 19  2  1  0
 26 21  1  0
  8  3  1  0
 18 13  1  0
  4 27  1  0
  5 28  1  0
  6 29  1  0
  7 30  1  0
 11 31  1  0
 12 32  1  0
 14 33  1  0
 15 34  1  0
 16 35  1  0
 18 36  1  0
 20 37  1  0
 20 38  1  0
 21 39  1  0
 22 40  1  0
 22 41  1  0
 23 42  1  0
 23 43  1  0
 24 44  1  0
 24 45  1  0
 25 46  1  0
 25 47  1  0
 26 48  1  0
 26 49  1  0
M  END
>  <smiles>  (44) 
O=c1c2ccccc2nc(/C=C/c2cccnc2)n1CC1CCCCC1

>  <score_type>  (44) 
oracle

>  <origin>  (44) 
autodockgpu

>  <m_score__min__energy>  (44) 
-7.3099999999999996

>  <m_primary>  (44) 
energy

>  <rmsd>  (44) 
10.35175339221865

>  <m_score__min__rmsd>  (44) 
10.35175339221865

>  <meeko>  (44) 
{"free_energy": -7.22, "intermolecular_energy": -8.71, "internal_energy": -1.39, "cluster_size": 17, "cluster_id": 2, "rank_in_cluster": 10}

>  <energy>  (44) 
-6.44

>  <cluster_rmsd>  (44) 
0.53

>  <cluster>  (44) 
5

$$$$

     RDKit          3D

 49 52  0  0  0  0  0  0  0  0999 V2000
  140.6180   71.8920  225.3000 O   0  0  0  0  0  0  0  0  0  0  0  0
  139.9600   70.8270  225.2840 C   0  0  0  0  0  0  0  0  0  0  0  0
  140.1750   69.9520  226.3220 C   0  0  0  0  0  0  0  0  0  0  0  0
  141.0780   70.2400  227.3210 C   0  0  0  0  0  0  0  0  0  0  0  0
  141.2470   69.3320  228.3190 C   0  0  0  0  0  0  0  0  0  0  0  0
  140.5200   68.1630  228.3050 C   0  0  0  0  0  0  0  0  0  0  0  0
  139.6040   67.8570  227.3050 C   0  0  0  0  0  0  0  0  0  0  0  0
  139.4560   68.7920  226.3120 C   0  0  0  0  0  0  0  0  0  0  0  0
  138.6090   68.5660  225.3340 N   0  0  0  0  0  0  0  0  0  0  0  0
  138.3630   69.4120  224.2790 C   0  0  0  0  0  0  0  0  0  0  0  0
  137.3760   68.9560  223.3570 C   0  0  0  0  0  0  0  0  0  0  0  0
  136.0890   68.8350  223.4280 C   0  0  0  0  0  0  0  0  0  0  0  0
  135.2580   69.4300  224.4960 C   0  0  0  0  0  0  0  0  0  0  0  0
  135.1560   70.7790  224.7070 C   0  0  0  0  0  0  0  0  0  0  0  0
  134.3490   71.2660  225.7400 C   0  0  0  0  0  0  0  0  0  0  0  0
  133.6400   70.4200  226.5710 C   0  0  0  0  0  0  0  0  0  0  0  0
  133.7620   69.0880  226.3380 N   0  0  0  0  0  0  0  0  0  0  0  0
  134.5350   68.6110  225.3470 C   0  0  0  0  0  0  0  0  0  0  0  0
  139.0590   70.5440  224.2780 N   0  0  0  0  0  0  0  0  0  0  0  0
  138.9420   71.5750  223.2810 C   0  0  0  0  0  0  0  0  0  0  0  0
  140.1600   71.8560  222.4710 C   0  0  0  0  0  0  0  0  0  0  0  0
  140.2960   70.8080  221.3760 C   0  0  0  0  0  0  0  0  0  0  0  0
  141.2950   71.2110  220.3370 C   0  0  0  0  0  0  0  0  0  0  0  0
  142.2180   72.3070  220.8210 C   0  0  0  0  0  0  0  0  0  0  0  0
  141.4550   73.5590  221.1810 C   0  0  0  0  0  0  0  0  0  0  0  0
  140.1500   73.2460  221.8960 C   0  0  0  0  0  0  0  0  0  0  0  0
  141.6481   71.1807  227.3119 H   0  0  0  0  0  0  0  0  0  0  0  0
  141.9603   69.5303  229.1326 H   0  0  0  0  0  0  0  0  0  0  0  0
  140.6704   67.4399  229.1202 H   0  0  0  0  0  0  0  0  0  0  0  0
  139.0304   66.9184  227.3097 H   0  0  0  0  0  0  0  0  0  0  0  0
  137.7927   68.6434  222.3882 H   0  0  0  0  0  0  0  0  0  0  0  0
  135.5820   68.2529  222.6444 H   0  0  0  0  0  0  0  0  0  0  0  0
  135.7088   71.4796  224.0640 H   0  0  0  0  0  0  0  0  0  0  0  0
  134.2767   72.3526  225.8953 H   0  0  0  0  0  0  0  0  0  0  0  0
  133.0068   70.8072  227.3828 H   0  0  0  0  0  0  0  0  0  0  0  0
  134.5959   67.5218  225.2058 H   0  0  0  0  0  0  0  0  0  0  0  0
  138.1401   71.2806  222.5880 H   0  0  0  0  0  0  0  0  0  0  0  0
  138.7441   72.5009  223.8409 H   0  0  0  0  0  0  0  0  0  0  0  0
  141.0350   71.8004  223.1353 H   0  0  0  0  0  0  0  0  0  0  0  0
  140.6185   69.8594  221.8301 H   0  0  0  0  0  0  0  0  0  0  0  0
  139.3179   70.7007  220.8842 H   0  0  0  0  0  0  0  0  0  0  0  0
  141.8999   70.3323  220.0686 H   0  0  0  0  0  0  0  0  0  0  0  0
  140.7401   71.5978  219.4695 H   0  0  0  0  0  0  0  0  0  0  0  0
  142.7592   71.9510  221.7100 H   0  0  0  0  0  0  0  0  0  0  0  0
  142.9164   72.5523  220.0073 H   0  0  0  0  0  0  0  0  0  0  0  0
  142.0808   74.1790  221.8397 H   0  0  0  0  0  0  0  0  0  0  0  0
  141.2122   74.0886  220.2480 H   0  0  0  0  0  0  0  0  0  0  0  0
  140.0060   73.9699  222.7116 H   0  0  0  0  0  0  0  0  0  0  0  0
  139.3300   73.3132  221.1659 H   0  0  0  0  0  0  0  0  0  0  0  0
  1  2  2  0
  2  3  1  0
  3  4  2  0
  4  5  1  0
  5  6  2  0
  6  7  1  0
  7  8  2  0
  8  9  1  0
  9 10  2  0
 10 11  1  0
 11 12  2  0
 12 13  1  0
 13 14  2  0
 14 15  1  0
 15 16  2  0
 16 17  1  0
 17 18  2  0
 10 19  1  0
 19 20  1  0
 20 21  1  0
 21 22  1  0
 22 23  1  0
 23 24  1  0
 24 25  1  0
 25 26  1  0
 19  2  1  0
 26 21  1  0
  8  3  1  0
 18 13  1  0
  4 27  1  0
  5 28  1  0
  6 29  1  0
  7 30  1  0
 11 31  1  0
 12 32  1  0
 14 33  1  0
 15 34  1  0
 16 35  1  0
 18 36  1  0
 20 37  1  0
 20 38  1  0
 21 39  1  0
 22 40  1  0
 22 41  1  0
 23 42  1  0
 23 43  1  0
 24 44  1  0
 24 45  1  0
 25 46  1  0
 25 47  1  0
 26 48  1  0
 26 49  1  0
M  END
>  <smiles>  (45) 
O=c1c2ccccc2nc(/C=C/c2cccnc2)n1CC1CCCCC1

>  <score_type>  (45) 
oracle

>  <origin>  (45) 
autodockgpu

>  <m_score__min__energy>  (45) 
-7.3099999999999996

>  <m_primary>  (45) 
energy

>  <rmsd>  (45) 
10.30299854189964

>  <m_score__min__rmsd>  (45) 
10.30299854189964

>  <meeko>  (45) 
{"free_energy": -7.18, "intermolecular_energy": -8.67, "internal_energy": -1.38, "cluster_size": 17, "cluster_id": 2, "rank_in_cluster": 16}

>  <energy>  (45) 
-6.44

>  <cluster_rmsd>  (45) 
0.55

>  <cluster>  (45) 
5

$$$$

     RDKit          3D

 49 52  0  0  0  0  0  0  0  0999 V2000
  140.5430   71.8820  225.3010 O   0  0  0  0  0  0  0  0  0  0  0  0
  139.9360   70.7870  225.2800 C   0  0  0  0  0  0  0  0  0  0  0  0
  140.1920   69.9180  226.3140 C   0  0  0  0  0  0  0  0  0  0  0  0
  141.0820   70.2430  227.3140 C   0  0  0  0  0  0  0  0  0  0  0  0
  141.2940   69.3390  228.3080 C   0  0  0  0  0  0  0  0  0  0  0  0
  140.6230   68.1370  228.2880 C   0  0  0  0  0  0  0  0  0  0  0  0
  139.7220   67.7930  227.2870 C   0  0  0  0  0  0  0  0  0  0  0  0
  139.5300   68.7250  226.2980 C   0  0  0  0  0  0  0  0  0  0  0  0
  138.6930   68.4640  225.3190 N   0  0  0  0  0  0  0  0  0  0  0  0
  138.4070   69.3020  224.2680 C   0  0  0  0  0  0  0  0  0  0  0  0
  137.4430   68.8050  223.3440 C   0  0  0  0  0  0  0  0  0  0  0  0
  136.1550   68.9130  223.2680 C   0  0  0  0  0  0  0  0  0  0  0  0
  135.2980   69.4130  224.3630 C   0  0  0  0  0  0  0  0  0  0  0  0
  135.1790   70.7400  224.6800 C   0  0  0  0  0  0  0  0  0  0  0  0
  134.3480   71.1350  225.7320 C   0  0  0  0  0  0  0  0  0  0  0  0
  133.6300   70.2200  226.4770 C   0  0  0  0  0  0  0  0  0  0  0  0
  133.7690   68.9110  226.1400 N   0  0  0  0  0  0  0  0  0  0  0  0
  134.5650   68.5220  225.1300 C   0  0  0  0  0  0  0  0  0  0  0  0
  139.0480   70.4670  224.2730 N   0  0  0  0  0  0  0  0  0  0  0  0
  138.8820   71.4960  223.2810 C   0  0  0  0  0  0  0  0  0  0  0  0
  140.0890   71.8460  222.4800 C   0  0  0  0  0  0  0  0  0  0  0  0
  140.2810   70.8180  221.3740 C   0  0  0  0  0  0  0  0  0  0  0  0
  141.2620   71.2820  220.3440 C   0  0  0  0  0  0  0  0  0  0  0  0
  142.1280   72.4170  220.8440 C   0  0  0  0  0  0  0  0  0  0  0  0
  141.3020   73.6260  221.2150 C   0  0  0  0  0  0  0  0  0  0  0  0
  140.0120   73.2410  221.9200 C   0  0  0  0  0  0  0  0  0  0  0  0
  141.6079   71.2091  227.3088 H   0  0  0  0  0  0  0  0  0  0  0  0
  141.9971   69.5669  229.1227 H   0  0  0  0  0  0  0  0  0  0  0  0
  140.8079   67.4176  229.0994 H   0  0  0  0  0  0  0  0  0  0  0  0
  139.1929   66.8286  227.2875 H   0  0  0  0  0  0  0  0  0  0  0  0
  137.8819   68.2088  222.5304 H   0  0  0  0  0  0  0  0  0  0  0  0
  135.6677   68.6135  222.3284 H   0  0  0  0  0  0  0  0  0  0  0  0
  135.7373   71.4948  224.1068 H   0  0  0  0  0  0  0  0  0  0  0  0
  134.2634   72.2048  225.9735 H   0  0  0  0  0  0  0  0  0  0  0  0
  132.9768   70.5359  227.3038 H   0  0  0  0  0  0  0  0  0  0  0  0
  134.6380   67.4484  224.9019 H   0  0  0  0  0  0  0  0  0  0  0  0
  138.1011   71.1633  222.5813 H   0  0  0  0  0  0  0  0  0  0  0  0
  138.6314   72.4069  223.8444 H   0  0  0  0  0  0  0  0  0  0  0  0
  140.9631   71.8263  223.1475 H   0  0  0  0  0  0  0  0  0  0  0  0
  140.6489   69.8817  221.8189 H   0  0  0  0  0  0  0  0  0  0  0  0
  139.3113   70.6673  220.8771 H   0  0  0  0  0  0  0  0  0  0  0  0
  141.9107   70.4376  220.0680 H   0  0  0  0  0  0  0  0  0  0  0  0
  140.6914   71.6508  219.4789 H   0  0  0  0  0  0  0  0  0  0  0  0
  142.6831   72.0782  221.7312 H   0  0  0  0  0  0  0  0  0  0  0  0
  142.8163   72.7058  220.0360 H   0  0  0  0  0  0  0  0  0  0  0  0
  141.8937   74.2685  221.8836 H   0  0  0  0  0  0  0  0  0  0  0  0
  141.0370   74.1536  220.2869 H   0  0  0  0  0  0  0  0  0  0  0  0
  139.8289   73.9476  222.7429 H   0  0  0  0  0  0  0  0  0  0  0  0
  139.1925   73.2757  221.1870 H   0  0  0  0  0  0  0  0  0  0  0  0
  1  2  2  0
  2  3  1  0
  3  4  2  0
  4  5  1  0
  5  6  2  0
  6  7  1  0
  7  8  2  0
  8  9  1  0
  9 10  2  0
 10 11  1  0
 11 12  2  0
 12 13  1  0
 13 14  2  0
 14 15  1  0
 15 16  2  0
 16 17  1  0
 17 18  2  0
 10 19  1  0
 19 20  1  0
 20 21  1  0
 21 22  1  0
 22 23  1  0
 23 24  1  0
 24 25  1  0
 25 26  1  0
 19  2  1  0
 26 21  1  0
  8  3  1  0
 18 13  1  0
  4 27  1  0
  5 28  1  0
  6 29  1  0
  7 30  1  0
 11 31  1  0
 12 32  1  0
 14 33  1  0
 15 34  1  0
 16 35  1  0
 18 36  1  0
 20 37  1  0
 20 38  1  0
 21 39  1  0
 22 40  1  0
 22 41  1  0
 23 42  1  0
 23 43  1  0
 24 44  1  0
 24 45  1  0
 25 46  1  0
 25 47  1  0
 26 48  1  0
 26 49  1  0
M  END
>  <smiles>  (46) 
O=c1c2ccccc2nc(/C=C/c2cccnc2)n1CC1CCCCC1

>  <score_type>  (46) 
oracle

>  <origin>  (46) 
autodockgpu

>  <m_score__min__energy>  (46) 
-7.3099999999999996

>  <m_primary>  (46) 
energy

>  <rmsd>  (46) 
10.292760150633052

>  <m_score__min__rmsd>  (46) 
10.292760150633052

>  <meeko>  (46) 
{"free_energy": -7.23, "intermolecular_energy": -8.72, "internal_energy": -1.38, "cluster_size": 17, "cluster_id": 2, "rank_in_cluster": 4}

>  <energy>  (46) 
-6.44

>  <cluster_rmsd>  (46) 
0.53

>  <cluster>  (46) 
5

$$$$

     RDKit          3D

 49 52  0  0  0  0  0  0  0  0999 V2000
  140.4180   74.4550  222.0140 O   0  0  0  0  0  0  0  0  0  0  0  0
  141.2760   74.9850  221.2730 C   0  0  0  0  0  0  0  0  0  0  0  0
  142.3000   74.1770  220.8380 C   0  0  0  0  0  0  0  0  0  0  0  0
  142.3730   72.8540  221.2130 C   0  0  0  0  0  0  0  0  0  0  0  0
  143.4120   72.1090  220.7510 C   0  0  0  0  0  0  0  0  0  0  0  0
  144.3540   72.6890  219.9320 C   0  0  0  0  0  0  0  0  0  0  0  0
  144.2960   74.0220  219.5430 C   0  0  0  0  0  0  0  0  0  0  0  0
  143.2360   74.7490  220.0250 C   0  0  0  0  0  0  0  0  0  0  0  0
  143.1210   76.0160  219.6990 N   0  0  0  0  0  0  0  0  0  0  0  0
  142.1150   76.8580  220.1100 C   0  0  0  0  0  0  0  0  0  0  0  0
  142.1930   78.1860  219.5990 C   0  0  0  0  0  0  0  0  0  0  0  0
  141.3080   79.0040  219.1270 C   0  0  0  0  0  0  0  0  0  0  0  0
  140.9330   80.2820  219.7680 C   0  0  0  0  0  0  0  0  0  0  0  0
  141.8230   81.0790  220.4370 C   0  0  0  0  0  0  0  0  0  0  0  0
  141.3910   82.2740  221.0190 C   0  0  0  0  0  0  0  0  0  0  0  0
  140.0750   82.6870  220.9430 C   0  0  0  0  0  0  0  0  0  0  0  0
  139.2150   81.8760  220.2740 N   0  0  0  0  0  0  0  0  0  0  0  0
  139.6220   80.7260  219.7110 C   0  0  0  0  0  0  0  0  0  0  0  0
  141.1990   76.3120  220.9030 N   0  0  0  0  0  0  0  0  0  0  0  0
  140.0540   77.0070  221.4300 C   0  0  0  0  0  0  0  0  0  0  0  0
  140.3290   78.2690  222.1740 C   0  0  0  0  0  0  0  0  0  0  0  0
  139.0510   78.7510  222.8460 C   0  0  0  0  0  0  0  0  0  0  0  0
  139.3230   79.8120  223.8660 C   0  0  0  0  0  0  0  0  0  0  0  0
  140.6860   80.4460  223.6880 C   0  0  0  0  0  0  0  0  0  0  0  0
  141.7940   79.4300  223.8300 C   0  0  0  0  0  0  0  0  0  0  0  0
  141.4420   78.1060  223.1720 C   0  0  0  0  0  0  0  0  0  0  0  0
  141.6098   72.4112  221.8698 H   0  0  0  0  0  0  0  0  0  0  0  0
  143.4994   71.0486  221.0301 H   0  0  0  0  0  0  0  0  0  0  0  0
  145.1887   72.0709  219.5698 H   0  0  0  0  0  0  0  0  0  0  0  0
  145.0565   74.4692  218.8860 H   0  0  0  0  0  0  0  0  0  0  0  0
  143.2121   78.5998  219.6074 H   0  0  0  0  0  0  0  0  0  0  0  0
  140.8027   78.7307  218.1889 H   0  0  0  0  0  0  0  0  0  0  0  0
  142.8782   80.7787  220.5164 H   0  0  0  0  0  0  0  0  0  0  0  0
  142.1190   82.9030  221.5523 H   0  0  0  0  0  0  0  0  0  0  0  0
  139.7393   83.6283  221.4026 H   0  0  0  0  0  0  0  0  0  0  0  0
  138.8811   80.1094  219.1811 H   0  0  0  0  0  0  0  0  0  0  0  0
  139.3942   77.2537  220.5851 H   0  0  0  0  0  0  0  0  0  0  0  0
  139.6116   76.3228  222.1690 H   0  0  0  0  0  0  0  0  0  0  0  0
  140.6667   79.0283  221.4533 H   0  0  0  0  0  0  0  0  0  0  0  0
  138.3779   79.1600  222.0781 H   0  0  0  0  0  0  0  0  0  0  0  0
  138.5917   77.8937  223.3599 H   0  0  0  0  0  0  0  0  0  0  0  0
  138.5548   80.5942  223.7759 H   0  0  0  0  0  0  0  0  0  0  0  0
  139.3001   79.3378  224.8583 H   0  0  0  0  0  0  0  0  0  0  0  0
  140.7418   80.8975  222.6865 H   0  0  0  0  0  0  0  0  0  0  0  0
  140.8158   81.2085  224.4702 H   0  0  0  0  0  0  0  0  0  0  0  0
  142.7043   79.8294  223.3590 H   0  0  0  0  0  0  0  0  0  0  0  0
  141.9489   79.2448  224.9032 H   0  0  0  0  0  0  0  0  0  0  0  0
  142.3313   77.7151  222.6559 H   0  0  0  0  0  0  0  0  0  0  0  0
  141.1069   77.4087  223.9540 H   0  0  0  0  0  0  0  0  0  0  0  0
  1  2  2  0
  2  3  1  0
  3  4  2  0
  4  5  1  0
  5  6  2  0
  6  7  1  0
  7  8  2  0
  8  9  1  0
  9 10  2  0
 10 11  1  0
 11 12  2  0
 12 13  1  0
 13 14  2  0
 14 15  1  0
 15 16  2  0
 16 17  1  0
 17 18  2  0
 10 19  1  0
 19 20  1  0
 20 21  1  0
 21 22  1  0
 22 23  1  0
 23 24  1  0
 24 25  1  0
 25 26  1  0
 19  2  1  0
 26 21  1  0
  8  3  1  0
 18 13  1  0
  4 27  1  0
  5 28  1  0
  6 29  1  0
  7 30  1  0
 11 31  1  0
 12 32  1  0
 14 33  1  0
 15 34  1  0
 16 35  1  0
 18 36  1  0
 20 37  1  0
 20 38  1  0
 21 39  1  0
 22 40  1  0
 22 41  1  0
 23 42  1  0
 23 43  1  0
 24 44  1  0
 24 45  1  0
 25 46  1  0
 25 47  1  0
 26 48  1  0
 26 49  1  0
M  END
>  <smiles>  (47) 
O=c1c2ccccc2nc(/C=C/c2cccnc2)n1CC1CCCCC1

>  <score_type>  (47) 
oracle

>  <origin>  (47) 
autodockgpu

>  <m_score__min__energy>  (47) 
-7.3099999999999996

>  <m_primary>  (47) 
energy

>  <rmsd>  (47) 
4.502236214049715

>  <m_score__min__rmsd>  (47) 
4.502236214049715

>  <meeko>  (47) 
{"free_energy": -6.42, "intermolecular_energy": -7.91, "internal_energy": -1.91, "cluster_size": 3, "cluster_id": 6, "rank_in_cluster": 3}

>  <energy>  (47) 
-6.4

>  <cluster_rmsd>  (47) 
0.87

>  <cluster>  (47) 
5

$$$$

     RDKit          3D

 49 52  0  0  0  0  0  0  0  0999 V2000
  142.8470   76.4060  219.7970 O   0  0  0  0  0  0  0  0  0  0  0  0
  141.9480   75.8830  220.4920 C   0  0  0  0  0  0  0  0  0  0  0  0
  142.0410   74.5280  220.7060 C   0  0  0  0  0  0  0  0  0  0  0  0
  143.0750   73.7920  220.1700 C   0  0  0  0  0  0  0  0  0  0  0  0
  143.1100   72.4550  220.4160 C   0  0  0  0  0  0  0  0  0  0  0  0
  142.1230   71.8790  221.1850 C   0  0  0  0  0  0  0  0  0  0  0  0
  141.0740   72.6070  221.7330 C   0  0  0  0  0  0  0  0  0  0  0  0
  141.0650   73.9520  221.4670 C   0  0  0  0  0  0  0  0  0  0  0  0
  140.1000   74.7000  221.9530 N   0  0  0  0  0  0  0  0  0  0  0  0
  139.9680   76.0560  221.7650 C   0  0  0  0  0  0  0  0  0  0  0  0
  138.8490   76.6500  222.4170 C   0  0  0  0  0  0  0  0  0  0  0  0
  137.9840   77.5390  222.0510 C   0  0  0  0  0  0  0  0  0  0  0  0
  138.1200   78.9870  222.3120 C   0  0  0  0  0  0  0  0  0  0  0  0
  138.2930   79.5130  223.5640 C   0  0  0  0  0  0  0  0  0  0  0  0
  138.4130   80.8960  223.7300 C   0  0  0  0  0  0  0  0  0  0  0  0
  138.3630   81.7660  222.6590 C   0  0  0  0  0  0  0  0  0  0  0  0
  138.1900   81.2160  221.4290 N   0  0  0  0  0  0  0  0  0  0  0  0
  138.0740   79.8870  221.2600 C   0  0  0  0  0  0  0  0  0  0  0  0
  140.9140   76.6260  221.0240 N   0  0  0  0  0  0  0  0  0  0  0  0
  140.9770   78.0310  220.7190 C   0  0  0  0  0  0  0  0  0  0  0  0
  141.7080   78.8880  221.6940 C   0  0  0  0  0  0  0  0  0  0  0  0
  141.4810   80.3540  221.3530 C   0  0  0  0  0  0  0  0  0  0  0  0
  141.9050   81.2590  222.4670 C   0  0  0  0  0  0  0  0  0  0  0  0
  142.8270   80.5700  223.4500 C   0  0  0  0  0  0  0  0  0  0  0  0
  142.1580   79.3830  224.1020 C   0  0  0  0  0  0  0  0  0  0  0  0
  141.3130   78.5920  223.1160 C   0  0  0  0  0  0  0  0  0  0  0  0
  143.8524   74.2736  219.5587 H   0  0  0  0  0  0  0  0  0  0  0  0
  143.9214   71.8374  220.0035 H   0  0  0  0  0  0  0  0  0  0  0  0
  142.1671   70.7961  221.3734 H   0  0  0  0  0  0  0  0  0  0  0  0
  140.2945   72.1309  222.3459 H   0  0  0  0  0  0  0  0  0  0  0  0
  138.6882   76.2767  223.4391 H   0  0  0  0  0  0  0  0  0  0  0  0
  137.0896   77.1951  221.5107 H   0  0  0  0  0  0  0  0  0  0  0  0
  138.3376   78.8478  224.4390 H   0  0  0  0  0  0  0  0  0  0  0  0
  138.5512   81.3026  224.7427 H   0  0  0  0  0  0  0  0  0  0  0  0
  138.4588   82.8533  222.7953 H   0  0  0  0  0  0  0  0  0  0  0  0
  137.9364   79.4971  220.2407 H   0  0  0  0  0  0  0  0  0  0  0  0
  141.4706   78.1396  219.7420 H   0  0  0  0  0  0  0  0  0  0  0  0
  139.9350   78.3827  220.7443 H   0  0  0  0  0  0  0  0  0  0  0  0
  142.7813   78.6605  221.6152 H   0  0  0  0  0  0  0  0  0  0  0  0
  142.0609   80.6033  220.4521 H   0  0  0  0  0  0  0  0  0  0  0  0
  140.4040   80.5018  221.1853 H   0  0  0  0  0  0  0  0  0  0  0  0
  142.4296   82.1255  222.0381 H   0  0  0  0  0  0  0  0  0  0  0  0
  141.0007   81.5656  223.0131 H   0  0  0  0  0  0  0  0  0  0  0  0
  143.7246   80.2249  222.9159 H   0  0  0  0  0  0  0  0  0  0  0  0
  143.0912   81.2913  224.2374 H   0  0  0  0  0  0  0  0  0  0  0  0
  142.9334   78.7215  224.5157 H   0  0  0  0  0  0  0  0  0  0  0  0
  141.4930   79.7602  224.8929 H   0  0  0  0  0  0  0  0  0  0  0  0
  141.4491   77.5177  223.3091 H   0  0  0  0  0  0  0  0  0  0  0  0
  140.2606   78.8823  223.2508 H   0  0  0  0  0  0  0  0  0  0  0  0
  1  2  2  0
  2  3  1  0
  3  4  2  0
  4  5  1  0
  5  6  2  0
  6  7  1  0
  7  8  2  0
  8  9  1  0
  9 10  2  0
 10 11  1  0
 11 12  2  0
 12 13  1  0
 13 14  2  0
 14 15  1  0
 15 16  2  0
 16 17  1  0
 17 18  2  0
 10 19  1  0
 19 20  1  0
 20 21  1  0
 21 22  1  0
 22 23  1  0
 23 24  1  0
 24 25  1  0
 25 26  1  0
 19  2  1  0
 26 21  1  0
  8  3  1  0
 18 13  1  0
  4 27  1  0
  5 28  1  0
  6 29  1  0
  7 30  1  0
 11 31  1  0
 12 32  1  0
 14 33  1  0
 15 34  1  0
 16 35  1  0
 18 36  1  0
 20 37  1  0
 20 38  1  0
 21 39  1  0
 22 40  1  0
 22 41  1  0
 23 42  1  0
 23 43  1  0
 24 44  1  0
 24 45  1  0
 25 46  1  0
 25 47  1  0
 26 48  1  0
 26 49  1  0
M  END
>  <smiles>  (48) 
O=c1c2ccccc2nc(/C=C/c2cccnc2)n1CC1CCCCC1

>  <score_type>  (48) 
oracle

>  <origin>  (48) 
autodockgpu

>  <m_score__min__energy>  (48) 
-7.3099999999999996

>  <m_primary>  (48) 
energy

>  <rmsd>  (48) 
4.43678788500849

>  <m_score__min__rmsd>  (48) 
4.43678788500849

>  <meeko>  (48) 
{"free_energy": -6.54, "intermolecular_energy": -8.03, "internal_energy": -1.92, "cluster_size": 16, "cluster_id": 5, "rank_in_cluster": 4}

>  <energy>  (48) 
-6.44

>  <cluster_rmsd>  (48) 
0.0

>  <cluster>  (48) 
6

$$$$

     RDKit          3D

 49 52  0  0  0  0  0  0  0  0999 V2000
  142.8700   76.4000  219.8160 O   0  0  0  0  0  0  0  0  0  0  0  0
  141.9610   75.8750  220.4980 C   0  0  0  0  0  0  0  0  0  0  0  0
  142.0550   74.5210  220.7150 C   0  0  0  0  0  0  0  0  0  0  0  0
  143.0980   73.7860  220.1960 C   0  0  0  0  0  0  0  0  0  0  0  0
  143.1330   72.4500  220.4450 C   0  0  0  0  0  0  0  0  0  0  0  0
  142.1360   71.8720  221.1990 C   0  0  0  0  0  0  0  0  0  0  0  0
  141.0770   72.5980  221.7310 C   0  0  0  0  0  0  0  0  0  0  0  0
  141.0690   73.9440  221.4630 C   0  0  0  0  0  0  0  0  0  0  0  0
  140.0950   74.6900  221.9330 N   0  0  0  0  0  0  0  0  0  0  0  0
  139.9630   76.0450  221.7410 C   0  0  0  0  0  0  0  0  0  0  0  0
  138.8320   76.6370  222.3750 C   0  0  0  0  0  0  0  0  0  0  0  0
  137.9790   77.5340  222.0000 C   0  0  0  0  0  0  0  0  0  0  0  0
  138.1180   78.9790  222.2760 C   0  0  0  0  0  0  0  0  0  0  0  0
  138.3280   79.4890  223.5290 C   0  0  0  0  0  0  0  0  0  0  0  0
  138.4490   80.8700  223.7100 C   0  0  0  0  0  0  0  0  0  0  0  0
  138.3620   81.7550  222.6530 C   0  0  0  0  0  0  0  0  0  0  0  0
  138.1530   81.2200  221.4220 N   0  0  0  0  0  0  0  0  0  0  0  0
  138.0370   79.8930  221.2380 C   0  0  0  0  0  0  0  0  0  0  0  0
  140.9170   76.6160  221.0130 N   0  0  0  0  0  0  0  0  0  0  0  0
  140.9820   78.0220  220.7080 C   0  0  0  0  0  0  0  0  0  0  0  0
  141.7130   78.8780  221.6820 C   0  0  0  0  0  0  0  0  0  0  0  0
  141.4680   80.3440  221.3550 C   0  0  0  0  0  0  0  0  0  0  0  0
  141.8920   81.2450  222.4720 C   0  0  0  0  0  0  0  0  0  0  0  0
  142.8300   80.5590  223.4410 C   0  0  0  0  0  0  0  0  0  0  0  0
  142.1800   79.3600  224.0890 C   0  0  0  0  0  0  0  0  0  0  0  0
  141.3340   78.5670  223.1050 C   0  0  0  0  0  0  0  0  0  0  0  0
  143.8831   74.2681  219.5950 H   0  0  0  0  0  0  0  0  0  0  0  0
  143.9528   71.8343  220.0466 H   0  0  0  0  0  0  0  0  0  0  0  0
  142.1797   70.7893  221.3883 H   0  0  0  0  0  0  0  0  0  0  0  0
  140.2896   72.1207  222.3329 H   0  0  0  0  0  0  0  0  0  0  0  0
  138.6471   76.2531  223.3891 H   0  0  0  0  0  0  0  0  0  0  0  0
  137.0933   77.1998  221.4397 H   0  0  0  0  0  0  0  0  0  0  0  0
  138.4015   78.8124  224.3932 H   0  0  0  0  0  0  0  0  0  0  0  0
  138.6184   81.2631  224.7233 H   0  0  0  0  0  0  0  0  0  0  0  0
  138.4574   82.8408  222.8010 H   0  0  0  0  0  0  0  0  0  0  0  0
  137.8704   79.5164  220.2180 H   0  0  0  0  0  0  0  0  0  0  0  0
  141.4760   78.1299  219.7311 H   0  0  0  0  0  0  0  0  0  0  0  0
  139.9404   78.3747  220.7336 H   0  0  0  0  0  0  0  0  0  0  0  0
  142.7878   78.6621  221.5913 H   0  0  0  0  0  0  0  0  0  0  0  0
  142.0374   80.6064  220.4512 H   0  0  0  0  0  0  0  0  0  0  0  0
  140.3880   80.4817  221.1982 H   0  0  0  0  0  0  0  0  0  0  0  0
  142.4032   82.1205  222.0452 H   0  0  0  0  0  0  0  0  0  0  0  0
  140.9894   81.5374  223.0285 H   0  0  0  0  0  0  0  0  0  0  0  0
  143.7266   80.2282  222.8963 H   0  0  0  0  0  0  0  0  0  0  0  0
  143.0934   81.2769  224.2317 H   0  0  0  0  0  0  0  0  0  0  0  0
  142.9663   78.7037  224.4902 H   0  0  0  0  0  0  0  0  0  0  0  0
  141.5180   79.7241  224.8885 H   0  0  0  0  0  0  0  0  0  0  0  0
  141.4833   77.4928  223.2888 H   0  0  0  0  0  0  0  0  0  0  0  0
  140.2798   78.8446  223.2517 H   0  0  0  0  0  0  0  0  0  0  0  0
  1  2  2  0
  2  3  1  0
  3  4  2  0
  4  5  1  0
  5  6  2  0
  6  7  1  0
  7  8  2  0
  8  9  1  0
  9 10  2  0
 10 11  1  0
 11 12  2  0
 12 13  1  0
 13 14  2  0
 14 15  1  0
 15 16  2  0
 16 17  1  0
 17 18  2  0
 10 19  1  0
 19 20  1  0
 20 21  1  0
 21 22  1  0
 22 23  1  0
 23 24  1  0
 24 25  1  0
 25 26  1  0
 19  2  1  0
 26 21  1  0
  8  3  1  0
 18 13  1  0
  4 27  1  0
  5 28  1  0
  6 29  1  0
  7 30  1  0
 11 31  1  0
 12 32  1  0
 14 33  1  0
 15 34  1  0
 16 35  1  0
 18 36  1  0
 20 37  1  0
 20 38  1  0
 21 39  1  0
 22 40  1  0
 22 41  1  0
 23 42  1  0
 23 43  1  0
 24 44  1  0
 24 45  1  0
 25 46  1  0
 25 47  1  0
 26 48  1  0
 26 49  1  0
M  END
>  <smiles>  (49) 
O=c1c2ccccc2nc(/C=C/c2cccnc2)n1CC1CCCCC1

>  <score_type>  (49) 
oracle

>  <origin>  (49) 
autodockgpu

>  <m_score__min__energy>  (49) 
-7.3099999999999996

>  <m_primary>  (49) 
energy

>  <rmsd>  (49) 
4.4493457436095625

>  <m_score__min__rmsd>  (49) 
4.4493457436095625

>  <meeko>  (49) 
{"free_energy": -6.53, "intermolecular_energy": -8.02, "internal_energy": -1.93, "cluster_size": 16, "cluster_id": 5, "rank_in_cluster": 7}

>  <energy>  (49) 
-6.44

>  <cluster_rmsd>  (49) 
0.59

>  <cluster>  (49) 
6

$$$$

     RDKit          3D

 49 52  0  0  0  0  0  0  0  0999 V2000
  139.1470   76.5610  222.4970 O   0  0  0  0  0  0  0  0  0  0  0  0
  140.1350   77.0320  221.8910 C   0  0  0  0  0  0  0  0  0  0  0  0
  140.6320   78.2270  222.3540 C   0  0  0  0  0  0  0  0  0  0  0  0
  140.0560   78.8700  223.4270 C   0  0  0  0  0  0  0  0  0  0  0  0
  140.5930   80.0510  223.8360 C   0  0  0  0  0  0  0  0  0  0  0  0
  141.6830   80.5680  223.1730 C   0  0  0  0  0  0  0  0  0  0  0  0
  142.2770   79.9320  222.0880 C   0  0  0  0  0  0  0  0  0  0  0  0
  141.7130   78.7440  221.6990 C   0  0  0  0  0  0  0  0  0  0  0  0
  142.2220   78.0910  220.6800 N   0  0  0  0  0  0  0  0  0  0  0  0
  141.7590   76.8950  220.1840 C   0  0  0  0  0  0  0  0  0  0  0  0
  142.4980   76.3700  219.0850 C   0  0  0  0  0  0  0  0  0  0  0  0
  142.7970   75.1660  218.7170 C   0  0  0  0  0  0  0  0  0  0  0  0
  143.9290   74.3880  219.2630 C   0  0  0  0  0  0  0  0  0  0  0  0
  144.3840   74.5230  220.5470 C   0  0  0  0  0  0  0  0  0  0  0  0
  145.4620   73.7510  220.9910 C   0  0  0  0  0  0  0  0  0  0  0  0
  146.0960   72.8430  220.1670 C   0  0  0  0  0  0  0  0  0  0  0  0
  145.6230   72.7320  218.8980 N   0  0  0  0  0  0  0  0  0  0  0  0
  144.5870   73.4680  218.4630 C   0  0  0  0  0  0  0  0  0  0  0  0
  140.7050   76.3840  220.8140 N   0  0  0  0  0  0  0  0  0  0  0  0
  140.0750   75.1360  220.4720 C   0  0  0  0  0  0  0  0  0  0  0  0
  140.2440   74.0200  221.4450 C   0  0  0  0  0  0  0  0  0  0  0  0
  138.8790   73.4640  221.8220 C   0  0  0  0  0  0  0  0  0  0  0  0
  138.9870   72.1480  222.5260 C   0  0  0  0  0  0  0  0  0  0  0  0
  140.3770   71.8970  223.0680 C   0  0  0  0  0  0  0  0  0  0  0  0
  141.4080   71.8720  221.9650 C   0  0  0  0  0  0  0  0  0  0  0  0
  141.1450   72.9380  220.9140 C   0  0  0  0  0  0  0  0  0  0  0  0
  139.1836   78.4394  223.9404 H   0  0  0  0  0  0  0  0  0  0  0  0
  140.1589   80.5896  224.6913 H   0  0  0  0  0  0  0  0  0  0  0  0
  142.1023   81.5253  223.5161 H   0  0  0  0  0  0  0  0  0  0  0  0
  143.1497   80.3578  221.5712 H   0  0  0  0  0  0  0  0  0  0  0  0
  142.8949   77.1452  218.4131 H   0  0  0  0  0  0  0  0  0  0  0  0
  142.1687   74.6913  217.9489 H   0  0  0  0  0  0  0  0  0  0  0  0
  143.9018   75.2385  221.2292 H   0  0  0  0  0  0  0  0  0  0  0  0
  145.8147   73.8706  222.0260 H   0  0  0  0  0  0  0  0  0  0  0  0
  146.9438   72.2380  220.5208 H   0  0  0  0  0  0  0  0  0  0  0  0
  144.2460   73.3344  217.4258 H   0  0  0  0  0  0  0  0  0  0  0  0
  138.9968   75.3243  220.3627 H   0  0  0  0  0  0  0  0  0  0  0  0
  140.5742   74.7992  219.5515 H   0  0  0  0  0  0  0  0  0  0  0  0
  140.7335   74.4188  222.3458 H   0  0  0  0  0  0  0  0  0  0  0  0
  138.3736   74.1815  222.4852 H   0  0  0  0  0  0  0  0  0  0  0  0
  138.3067   73.3088  220.8955 H   0  0  0  0  0  0  0  0  0  0  0  0
  138.2737   72.1355  223.3633 H   0  0  0  0  0  0  0  0  0  0  0  0
  138.7638   71.3569  221.7950 H   0  0  0  0  0  0  0  0  0  0  0  0
  140.6332   72.6973  223.7779 H   0  0  0  0  0  0  0  0  0  0  0  0
  140.3805   70.9153  223.5643 H   0  0  0  0  0  0  0  0  0  0  0  0
  142.4018   72.0440  222.4041 H   0  0  0  0  0  0  0  0  0  0  0  0
  141.3545   70.8897  221.4728 H   0  0  0  0  0  0  0  0  0  0  0  0
  142.1028   73.3862  220.6109 H   0  0  0  0  0  0  0  0  0  0  0  0
  140.6480   72.4632  220.0552 H   0  0  0  0  0  0  0  0  0  0  0  0
  1  2  2  0
  2  3  1  0
  3  4  2  0
  4  5  1  0
  5  6  2  0
  6  7  1  0
  7  8  2  0
  8  9  1  0
  9 10  2  0
 10 11  1  0
 11 12  2  0
 12 13  1  0
 13 14  2  0
 14 15  1  0
 15 16  2  0
 16 17  1  0
 17 18  2  0
 10 19  1  0
 19 20  1  0
 20 21  1  0
 21 22  1  0
 22 23  1  0
 23 24  1  0
 24 25  1  0
 25 26  1  0
 19  2  1  0
 26 21  1  0
  8  3  1  0
 18 13  1  0
  4 27  1  0
  5 28  1  0
  6 29  1  0
  7 30  1  0
 11 31  1  0
 12 32  1  0
 14 33  1  0
 15 34  1  0
 16 35  1  0
 18 36  1  0
 20 37  1  0
 20 38  1  0
 21 39  1  0
 22 40  1  0
 22 41  1  0
 23 42  1  0
 23 43  1  0
 24 44  1  0
 24 45  1  0
 25 46  1  0
 25 47  1  0
 26 48  1  0
 26 49  1  0
M  END
>  <smiles>  (50) 
O=c1c2ccccc2nc(/C=C/c2cccnc2)n1CC1CCCCC1

>  <score_type>  (50) 
oracle

>  <origin>  (50) 
autodockgpu

>  <m_score__min__energy>  (50) 
-7.3099999999999996

>  <m_primary>  (50) 
energy

>  <rmsd>  (50) 
7.65489555416845

>  <m_score__min__rmsd>  (50) 
7.65489555416845

>  <meeko>  (50) 
{"free_energy": -6.94, "intermolecular_energy": -8.43, "internal_energy": -1.58, "cluster_size": 4, "cluster_id": 4, "rank_in_cluster": 4}

>  <energy>  (50) 
-6.42

>  <cluster_rmsd>  (50) 
0.09

>  <cluster>  (50) 
6

$$$$
