
     RDKit          3D

 68 73  0  0  1  0  0  0  0  0999 V2000
  141.5080   79.0310  223.5830 C   0  0  0  0  0  0  0  0  0  0  0  0
  141.7820   79.1510  222.0860 C   0  0  0  0  0  0  0  0  0  0  0  0
  140.6050   78.7040  221.3680 N   0  0  0  0  0  0  0  0  0  0  0  0
  140.8730   77.6320  220.4350 C   0  0  1  0  0  0  0  0  0  0  0  0
  141.4560   76.4960  221.2150 C   0  0  0  0  0  0  0  0  0  0  0  0
  140.4870   75.4580  221.4220 N   0  0  0  0  0  0  0  0  0  0  0  0
  140.9020   74.0920  221.6300 C   0  0  0  0  0  0  0  0  0  0  0  0
  141.8530   73.5210  220.8550 N   0  0  0  0  0  0  0  0  0  0  0  0
  142.2180   72.2550  221.0700 C   0  0  0  0  0  0  0  0  0  0  0  0
  143.2090   71.5730  220.3050 N   0  0  0  0  0  0  0  0  0  0  0  0
  144.3850   72.2500  219.8070 C   0  0  0  0  0  0  0  0  0  0  0  0
  144.5510   71.8130  218.3490 C   0  0  0  0  0  0  0  0  0  0  0  0
  144.9310   70.3590  218.4420 C   0  0  0  0  0  0  0  0  0  0  0  0
  145.9920   69.8470  217.7280 C   0  0  0  0  0  0  0  0  0  0  0  0
  146.3230   68.5160  217.8270 C   0  0  0  0  0  0  0  0  0  0  0  0
  145.5550   67.7160  218.6620 C   0  0  0  0  0  0  0  0  0  0  0  0
  144.4850   68.2440  219.3790 C   0  0  0  0  0  0  0  0  0  0  0  0
  144.1440   69.5940  219.2830 C   0  0  0  0  0  0  0  0  0  0  0  0
  143.0190   70.1720  220.0300 C   0  0  0  0  0  0  0  0  0  0  0  0
  141.6120   71.5670  222.0780 N   0  0  0  0  0  0  0  0  0  0  0  0
  140.6750   72.1090  222.8510 C   0  0  0  0  0  0  0  0  0  0  0  0
  140.0250   71.4050  223.9150 N   0  0  0  0  0  0  0  0  0  0  0  0
  138.9090   70.5230  223.6520 C   0  0  0  0  0  0  0  0  0  0  0  0
  139.2420   69.0900  224.0750 C   0  0  0  0  0  0  0  0  0  0  0  0
  139.6780   69.1910  225.4910 C   0  0  0  0  0  0  0  0  0  0  0  0
  139.4960   68.0810  226.2840 C   0  0  0  0  0  0  0  0  0  0  0  0
  139.8670   68.0750  227.6100 C   0  0  0  0  0  0  0  0  0  0  0  0
  140.4440   69.2110  228.1800 C   0  0  0  0  0  0  0  0  0  0  0  0
  140.6240   70.3220  227.3790 C   0  0  0  0  0  0  0  0  0  0  0  0
  140.2450   70.3220  226.0360 C   0  0  0  0  0  0  0  0  0  0  0  0
  140.4890   71.5730  225.2780 C   0  0  0  0  0  0  0  0  0  0  0  0
  140.3270   73.3870  222.6110 N   0  0  0  0  0  0  0  0  0  0  0  0
  139.0890   75.8140  221.4160 C   0  0  0  0  0  0  0  0  0  0  0  0
  138.7330   76.7340  220.2720 C   0  0  0  0  0  0  0  0  0  0  0  0
  139.8090   77.3000  219.6520 O   0  0  0  0  0  0  0  0  0  0  0  0
  142.3737   79.4102  224.1458 H   0  0  0  0  0  0  0  0  0  0  0  0
  140.6161   79.6209  223.8409 H   0  0  0  0  0  0  0  0  0  0  0  0
  141.3367   77.9755  223.8409 H   0  0  0  0  0  0  0  0  0  0  0  0
  141.9972   80.1991  221.8306 H   0  0  0  0  0  0  0  0  0  0  0  0
  142.6499   78.5341  221.8101 H   0  0  0  0  0  0  0  0  0  0  0  0
  139.7970   78.5360  221.9700 H   0  0  0  0  0  0  0  0  0  0  0  0
  141.6051   77.9642  219.6842 H   0  0  0  0  0  0  0  0  0  0  0  0
  142.3121   76.0826  220.6616 H   0  0  0  0  0  0  0  0  0  0  0  0
  141.7757   76.8752  222.1968 H   0  0  0  0  0  0  0  0  0  0  0  0
  144.2492   73.3401  219.8643 H   0  0  0  0  0  0  0  0  0  0  0  0
  145.2738   71.9956  220.4031 H   0  0  0  0  0  0  0  0  0  0  0  0
  143.6086   71.9356  217.7950 H   0  0  0  0  0  0  0  0  0  0  0  0
  145.3012   72.4118  217.8118 H   0  0  0  0  0  0  0  0  0  0  0  0
  146.5791   70.5081  217.0735 H   0  0  0  0  0  0  0  0  0  0  0  0
  147.1696   68.0984  217.2623 H   0  0  0  0  0  0  0  0  0  0  0  0
  145.7960   66.6471  218.7587 H   0  0  0  0  0  0  0  0  0  0  0  0
  143.8968   67.5844  220.0340 H   0  0  0  0  0  0  0  0  0  0  0  0
  142.1003   70.0490  219.4376 H   0  0  0  0  0  0  0  0  0  0  0  0
  142.9485   69.6460  220.9935 H   0  0  0  0  0  0  0  0  0  0  0  0
  138.0319   70.8718  224.2168 H   0  0  0  0  0  0  0  0  0  0  0  0
  138.6961   70.5333  222.5728 H   0  0  0  0  0  0  0  0  0  0  0  0
  138.3536   68.4469  223.9903 H   0  0  0  0  0  0  0  0  0  0  0  0
  140.0195   68.6442  223.4372 H   0  0  0  0  0  0  0  0  0  0  0  0
  139.0437   67.1778  225.8485 H   0  0  0  0  0  0  0  0  0  0  0  0
  139.7085   67.1740  228.2208 H   0  0  0  0  0  0  0  0  0  0  0  0
  140.7469   69.2213  229.2374 H   0  0  0  0  0  0  0  0  0  0  0  0
  141.0764   71.2274  227.8097 H   0  0  0  0  0  0  0  0  0  0  0  0
  139.9438   72.4024  225.7523 H   0  0  0  0  0  0  0  0  0  0  0  0
  141.5656   71.7987  225.2758 H   0  0  0  0  0  0  0  0  0  0  0  0
  138.4910   74.8949  221.3292 H   0  0  0  0  0  0  0  0  0  0  0  0
  138.8752   76.3475  222.3539 H   0  0  0  0  0  0  0  0  0  0  0  0
  138.1707   76.1540  219.5254 H   0  0  0  0  0  0  0  0  0  0  0  0
  138.1463   77.5593  220.7017 H   0  0  0  0  0  0  0  0  0  0  0  0
  1  2  1  0
  2  3  1  0
  3  4  1  0
  4  5  1  0
  5  6  1  0
  6  7  1  0
  7  8  2  0
  8  9  1  0
  9 10  1  0
 10 11  1  0
 11 12  1  0
 12 13  1  0
 13 14  2  0
 14 15  1  0
 15 16  2  0
 16 17  1  0
 17 18  2  0
 18 19  1  0
  9 20  2  0
 20 21  1  0
 21 22  1  0
 22 23  1  0
 23 24  1  0
 24 25  1  0
 25 26  2  0
 26 27  1  0
 27 28  2  0
 28 29  1  0
 29 30  2  0
 30 31  1  0
 21 32  2  0
  6 33  1  0
 33 34  1  0
 34 35  1  0
 35  4  1  0
 32  7  1  0
 19 10  1  0
 31 22  1  0
 18 13  1  0
 30 25  1  0
  1 36  1  0
  1 37  1  0
  1 38  1  0
  2 39  1  0
  2 40  1  0
  3 41  1  0
  4 42  1  6
  5 43  1  0
  5 44  1  0
 11 45  1  0
 11 46  1  0
 12 47  1  0
 12 48  1  0
 14 49  1  0
 15 50  1  0
 16 51  1  0
 17 52  1  0
 19 53  1  0
 19 54  1  0
 23 55  1  0
 23 56  1  0
 24 57  1  0
 24 58  1  0
 26 59  1  0
 27 60  1  0
 28 61  1  0
 29 62  1  0
 31 63  1  0
 31 64  1  0
 33 65  1  0
 33 66  1  0
 34 67  1  0
 34 68  1  0
M  END
