@<TRIPOS>MOLECULE
*****
 76 82 0 0 0
SMALL
GASTEIGER

@<TRIPOS>ATOM
      1 O         138.2240   70.8540  224.4550 O.2     1  UNL1       -0.2751
      2 C         139.3550   71.1390  223.9430 C.2     1  UNL1        0.2218
      3 N         140.4880   70.7370  224.7090 N.am    1  UNL1       -0.2852
      4 C         140.3810   70.0640  225.9580 C.ar    1  UNL1        0.0334
      5 C         140.2930   68.6880  226.0170 C.ar    1  UNL1       -0.0405
      6 C         140.1920   68.0930  227.2540 C.ar    1  UNL1       -0.0600
      7 C         140.1770   68.8230  228.4320 C.ar    1  UNL1       -0.0616
      8 C         140.2670   70.1860  228.3400 C.ar    1  UNL1       -0.0600
      9 C         140.3680   70.7900  227.1240 C.ar    1  UNL1       -0.0405
     10 C         139.4790   71.8390  222.6420 C.3     1  UNL1        0.0516
     11 C         139.3000   70.8670  221.5050 C.3     1  UNL1       -0.0390
     12 C         140.5580   70.5810  220.7530 C.3     1  UNL1       -0.0364
     13 C         141.1920   71.8420  220.2530 C.3     1  UNL1        0.0149
     14 N         141.1010   72.9360  221.1720 N.pl3   1  UNL1       -0.2988
     15 C         141.3430   74.2610  220.7130 C.ar    1  UNL1        0.2237
     16 N         142.0760   74.4260  219.5970 N.ar    1  UNL1       -0.1807
     17 C         142.3550   75.6410  219.0890 C.ar    1  UNL1        0.2240
     18 N         143.1390   75.8080  217.8970 N.pl3   1  UNL1       -0.2948
     19 C         143.0900   77.1150  217.2690 C.3     1  UNL1        0.0192
     20 C         143.0760   76.8470  215.7660 C.3     1  UNL1       -0.0115
     21 C         144.3970   76.2050  215.4600 C.ar    1  UNL1       -0.0412
     22 C         145.1940   76.6300  214.4190 C.ar    1  UNL1       -0.0582
     23 C         146.4020   76.0180  214.1670 C.ar    1  UNL1       -0.0615
     24 C         146.7820   74.9730  214.9850 C.ar    1  UNL1       -0.0614
     25 C         145.9810   74.5530  216.0240 C.ar    1  UNL1       -0.0568
     26 C         144.7600   75.1580  216.2930 C.ar    1  UNL1       -0.0269
     27 C         143.8990   74.7020  217.4140 C.3     1  UNL1        0.0402
     28 N         141.8600   76.7180  219.7530 N.ar    1  UNL1       -0.1807
     29 C         141.1220   76.6040  220.8720 C.ar    1  UNL1        0.2240
     30 N         140.6410   77.7780  221.5090 N.pl3   1  UNL1       -0.2948
     31 C         141.3780   78.2460  222.6690 C.3     1  UNL1        0.0192
     32 C         141.1170   79.7430  222.8810 C.3     1  UNL1       -0.0115
     33 C         139.6410   79.8290  223.1340 C.ar    1  UNL1       -0.0412
     34 C         139.1340   80.5020  224.2290 C.ar    1  UNL1       -0.0582
     35 C         137.7550   80.5360  224.3920 C.ar    1  UNL1       -0.0615
     36 C         136.9220   79.9020  223.4650 C.ar    1  UNL1       -0.0614
     37 C         137.4620   79.2320  222.3700 C.ar    1  UNL1       -0.0568
     38 C         138.8340   79.1970  222.2060 C.ar    1  UNL1       -0.0269
     39 C         139.4740   78.4880  221.0440 C.3     1  UNL1        0.0402
     40 N         140.8760   75.3580  221.3360 N.ar    1  UNL1       -0.1807
     41 C         140.7610   72.6380  222.5520 C.3     1  UNL1        0.0260
     42 H         141.4530   70.9290  224.3680 H       1  UNL1        0.1548
     43 H         140.3033   68.0823  225.0989 H       1  UNL1        0.0636
     44 H         140.1205   66.9967  227.3097 H       1  UNL1        0.0618
     45 H         140.0955   68.3237  229.4088 H       1  UNL1        0.0618
     46 H         140.2576   70.7972  229.2545 H       1  UNL1        0.0618
     47 H         140.4410   71.8864  227.0741 H       1  UNL1        0.0636
     48 H         138.6692   72.5792  222.5624 H       1  UNL1        0.0410
     49 H         138.9181   69.9203  221.9149 H       1  UNL1        0.0273
     50 H         138.6002   71.3307  220.7942 H       1  UNL1        0.0273
     51 H         141.2644   70.0648  221.4197 H       1  UNL1        0.0281
     52 H         140.3088   69.9507  219.8866 H       1  UNL1        0.0281
     53 H         142.2555   71.6415  220.0561 H       1  UNL1        0.0464
     54 H         140.6455   72.1384  219.3455 H       1  UNL1        0.0464
     55 H         142.1794   77.6528  217.5718 H       1  UNL1        0.0468
     56 H         143.9455   77.7407  217.5633 H       1  UNL1        0.0468
     57 H         142.2498   76.1697  215.5041 H       1  UNL1        0.0328
     58 H         142.9285   77.7715  215.1884 H       1  UNL1        0.0328
     59 H         144.8626   77.4649  213.7841 H       1  UNL1        0.0620
     60 H         147.0445   76.3519  213.3389 H       1  UNL1        0.0618
     61 H         147.7416   74.4666  214.8039 H       1  UNL1        0.0618
     62 H         146.3167   73.7178  216.6563 H       1  UNL1        0.0621
     63 H         143.2184   73.9141  217.0591 H       1  UNL1        0.0514
     64 H         144.5259   74.3006  218.2239 H       1  UNL1        0.0514
     65 H         141.0506   77.6886  223.5590 H       1  UNL1        0.0468
     66 H         142.4537   78.0843  222.5055 H       1  UNL1        0.0468
     67 H         141.6833   80.1187  223.7460 H       1  UNL1        0.0328
     68 H         141.4322   80.3509  222.0201 H       1  UNL1        0.0328
     69 H         139.8022   80.9959  224.9498 H       1  UNL1        0.0620
     70 H         137.3171   81.0630  225.2525 H       1  UNL1        0.0618
     71 H         135.8310   79.9327  223.6018 H       1  UNL1        0.0618
     72 H         136.8030   78.7354  221.6426 H       1  UNL1        0.0621
     73 H         138.7586   77.7752  220.6080 H       1  UNL1        0.0514
     74 H         139.7669   79.2212  220.2781 H       1  UNL1        0.0514
     75 H         141.5779   72.0570  223.0049 H       1  UNL1        0.0472
     76 H         140.6163   73.5882  223.0870 H       1  UNL1        0.0472
@<TRIPOS>BOND
     1     1     2    2
     2     2     3   am
     3     3     4    1
     4     4     5   ar
     5     5     6   ar
     6     6     7   ar
     7     7     8   ar
     8     8     9   ar
     9     2    10    1
    10    10    11    1
    11    11    12    1
    12    12    13    1
    13    13    14    1
    14    14    15    1
    15    15    16   ar
    16    16    17   ar
    17    17    18    1
    18    18    19    1
    19    19    20    1
    20    20    21    1
    21    21    22   ar
    22    22    23   ar
    23    23    24   ar
    24    24    25   ar
    25    25    26   ar
    26    26    27    1
    27    17    28   ar
    28    28    29   ar
    29    29    30    1
    30    30    31    1
    31    31    32    1
    32    32    33    1
    33    33    34   ar
    34    34    35   ar
    35    35    36   ar
    36    36    37   ar
    37    37    38   ar
    38    38    39    1
    39    29    40   ar
    40    14    41    1
    41     9     4   ar
    42    41    10    1
    43    40    15   ar
    44    27    18    1
    45    39    30    1
    46    26    21   ar
    47    38    33   ar
    48     3    42    1
    49     5    43    1
    50     6    44    1
    51     7    45    1
    52     8    46    1
    53     9    47    1
    54    10    48    1
    55    11    49    1
    56    11    50    1
    57    12    51    1
    58    12    52    1
    59    13    53    1
    60    13    54    1
    61    19    55    1
    62    19    56    1
    63    20    57    1
    64    20    58    1
    65    22    59    1
    66    23    60    1
    67    24    61    1
    68    25    62    1
    69    27    63    1
    70    27    64    1
    71    31    65    1
    72    31    66    1
    73    32    67    1
    74    32    68    1
    75    34    69    1
    76    35    70    1
    77    36    71    1
    78    37    72    1
    79    39    73    1
    80    39    74    1
    81    41    75    1
    82    41    76    1
