@<TRIPOS>MOLECULE
*****
 68 73 0 0 0
SMALL
GASTEIGER

@<TRIPOS>ATOM
      1 C         140.8320   68.7340  228.4800 C.3     1  UNL1       -0.0624
      2 C         139.9730   69.4360  227.4590 C.3     1  UNL1       -0.0438
      3 C         140.3790   70.8460  227.1820 C.3     1  UNL1       -0.0488
      4 C         141.0820   71.0350  225.8550 C.3     1  UNL1       -0.0343
      5 C         140.2560   70.5510  224.7030 C.3     1  UNL1        0.0233
      6 N         139.5730   71.6130  224.0000 N.pl3   1  UNL1       -0.3105
      7 C         140.1800   72.1630  222.8180 C.ar    1  UNL1        0.2213
      8 N         140.8480   71.3950  221.9650 N.ar    1  UNL1       -0.1809
      9 C         141.4100   71.9080  220.8690 C.ar    1  UNL1        0.2240
     10 N         142.1290   71.0700  219.9530 N.pl3   1  UNL1       -0.2948
     11 C         141.6110   69.7400  219.7400 C.3     1  UNL1        0.0192
     12 C         142.2740   69.0630  218.5590 C.3     1  UNL1       -0.0115
     13 C         143.7410   69.2080  218.7710 C.ar    1  UNL1       -0.0412
     14 C         144.6310   68.1700  218.6240 C.ar    1  UNL1       -0.0582
     15 C         145.9970   68.3420  218.8320 C.ar    1  UNL1       -0.0615
     16 C         146.4740   69.5990  219.1960 C.ar    1  UNL1       -0.0614
     17 C         145.5980   70.6520  219.3470 C.ar    1  UNL1       -0.0568
     18 C         144.2500   70.4390  219.1320 C.ar    1  UNL1       -0.0269
     19 C         143.3170   71.5860  219.2990 C.3     1  UNL1        0.0402
     20 N         141.3010   73.2440  220.6170 N.ar    1  UNL1       -0.1807
     21 C         140.6320   74.0420  221.4630 C.ar    1  UNL1        0.2240
     22 N         140.4980   75.4370  221.2320 N.pl3   1  UNL1       -0.2948
     23 C         139.7460   76.2740  222.1460 C.3     1  UNL1        0.0192
     24 C         140.7200   77.2980  222.7090 C.3     1  UNL1       -0.0115
     25 C         141.2220   78.0780  221.5440 C.ar    1  UNL1       -0.0412
     26 C         141.5090   79.4200  221.6910 C.ar    1  UNL1       -0.0582
     27 C         141.9760   80.1630  220.6230 C.ar    1  UNL1       -0.0615
     28 C         142.1570   79.5450  219.3870 C.ar    1  UNL1       -0.0614
     29 C         141.8750   78.2020  219.2200 C.ar    1  UNL1       -0.0568
     30 C         141.4100   77.4910  220.3090 C.ar    1  UNL1       -0.0269
     31 C         141.1210   76.0380  220.0700 C.3     1  UNL1        0.0402
     32 N         140.0810   73.4800  222.5540 N.ar    1  UNL1       -0.1809
     33 C         139.1940   69.5510  225.1480 C.3     1  UNL1       -0.0343
     34 C         139.8740   68.6580  226.1690 C.3     1  UNL1       -0.0488
     35 H         140.4971   69.0077  229.4914 H       1  UNL1        0.0232
     36 H         140.7445   67.6456  228.3468 H       1  UNL1        0.0232
     37 H         141.8812   69.0365  228.3468 H       1  UNL1        0.0232
     38 H         138.9774   69.4830  227.9244 H       1  UNL1        0.0298
     39 H         141.0579   71.1741  227.9829 H       1  UNL1        0.0268
     40 H         139.4547   71.4408  227.1400 H       1  UNL1        0.0268
     41 H         142.0284   70.4745  225.8725 H       1  UNL1        0.0283
     42 H         141.2570   72.1121  225.7160 H       1  UNL1        0.0283
     43 H         140.9829   70.0774  224.0268 H       1  UNL1        0.0498
     44 H         138.6500   72.0020  224.3140 H       1  UNL1        0.1492
     45 H         141.7913   69.1384  220.6431 H       1  UNL1        0.0468
     46 H         140.5345   69.8211  219.5287 H       1  UNL1        0.0468
     47 H         141.9966   67.9992  218.5235 H       1  UNL1        0.0328
     48 H         141.9586   69.5151  217.6071 H       1  UNL1        0.0328
     49 H         144.2539   67.1780  218.3345 H       1  UNL1        0.0620
     50 H         146.6901   67.4965  218.7105 H       1  UNL1        0.0618
     51 H         147.5505   69.7512  219.3630 H       1  UNL1        0.0618
     52 H         145.9667   71.6477  219.6345 H       1  UNL1        0.0621
     53 H         143.7827   72.3653  219.9202 H       1  UNL1        0.0514
     54 H         143.0677   72.0360  218.3267 H       1  UNL1        0.0514
     55 H         138.9306   76.7820  221.6102 H       1  UNL1        0.0468
     56 H         139.2963   75.6738  222.9507 H       1  UNL1        0.0468
     57 H         140.2065   77.9621  223.4198 H       1  UNL1        0.0328
     58 H         141.5444   76.8115  223.2510 H       1  UNL1        0.0328
     59 H         141.3646   79.9034  222.6684 H       1  UNL1        0.0620
     60 H         142.2027   81.2322  220.7475 H       1  UNL1        0.0618
     61 H         142.5285   80.1326  218.5345 H       1  UNL1        0.0618
     62 H         142.0172   77.7124  218.2453 H       1  UNL1        0.0621
     63 H         140.4439   75.9424  219.2084 H       1  UNL1        0.0514
     64 H         142.0703   75.5187  219.8720 H       1  UNL1        0.0514
     65 H         138.8438   68.9566  224.2912 H       1  UNL1        0.0283
     66 H         138.3133   70.0555  225.5720 H       1  UNL1        0.0283
     67 H         140.8797   68.3841  225.8176 H       1  UNL1        0.0268
     68 H         139.2984   67.7326  226.3183 H       1  UNL1        0.0268
@<TRIPOS>BOND
     1     1     2    1
     2     2     3    1
     3     3     4    1
     4     4     5    1
     5     5     6    1
     6     6     7    1
     7     7     8   ar
     8     8     9   ar
     9     9    10    1
    10    10    11    1
    11    11    12    1
    12    12    13    1
    13    13    14   ar
    14    14    15   ar
    15    15    16   ar
    16    16    17   ar
    17    17    18   ar
    18    18    19    1
    19     9    20   ar
    20    20    21   ar
    21    21    22    1
    22    22    23    1
    23    23    24    1
    24    24    25    1
    25    25    26   ar
    26    26    27   ar
    27    27    28   ar
    28    28    29   ar
    29    29    30   ar
    30    30    31    1
    31    21    32   ar
    32     5    33    1
    33    33    34    1
    34    34     2    1
    35    32     7   ar
    36    19    10    1
    37    31    22    1
    38    18    13   ar
    39    30    25   ar
    40     1    35    1
    41     1    36    1
    42     1    37    1
    43     2    38    1
    44     3    39    1
    45     3    40    1
    46     4    41    1
    47     4    42    1
    48     5    43    1
    49     6    44    1
    50    11    45    1
    51    11    46    1
    52    12    47    1
    53    12    48    1
    54    14    49    1
    55    15    50    1
    56    16    51    1
    57    17    52    1
    58    19    53    1
    59    19    54    1
    60    23    55    1
    61    23    56    1
    62    24    57    1
    63    24    58    1
    64    26    59    1
    65    27    60    1
    66    28    61    1
    67    29    62    1
    68    31    63    1
    69    31    64    1
    70    33    65    1
    71    33    66    1
    72    34    67    1
    73    34    68    1
