
 63 67  0  0  0  0  0  0  0  0999 V2000
  139.6180   70.9010  220.9410 O   0  0  0  0  0  0  0  0  0  0  0  0
  140.1290   71.4310  221.9600 C   0  0  0  0  0  0  0  0  0  0  0  0
  140.8390   72.6700  221.9240 N   0  0  0  0  0  0  0  0  0  0  0  0
  141.0010   73.3950  220.6360 C   0  0  0  0  0  0  0  0  0  0  0  0
  141.5230   74.7300  220.8660 C   0  0  0  0  0  0  0  0  0  0  0  0
  141.4470   75.1440  222.1000 O   0  0  0  0  0  0  0  0  0  0  0  0
  142.0980   75.6560  219.9910 N   0  0  0  0  0  0  0  0  0  0  0  0
  143.1560   75.1570  219.0320 C   0  0  0  0  0  0  0  0  0  0  0  0
  142.8010   75.9210  217.7600 C   0  0  2  0  0  0  0  0  0  0  0  0
  143.9610   76.5200  217.2820 O   0  0  0  0  0  0  0  0  0  0  0  0
  141.7660   76.9600  218.1570 C   0  0  0  0  0  0  0  0  0  0  0  0
  142.0250   77.0290  219.6640 C   0  0  1  0  0  0  0  0  0  0  0  0
  141.1110   77.9200  220.3410 C   0  0  0  0  0  0  0  0  0  0  0  0
  140.2960   78.7300  219.8740 O   0  0  0  0  0  0  0  0  0  0  0  0
  141.1350   77.8740  221.7980 N   0  0  0  0  0  0  0  0  0  0  0  0
  140.2290   78.7560  222.4710 C   0  0  0  0  0  0  0  0  0  0  0  0
  138.9020   78.4200  222.6460 C   0  0  0  0  0  0  0  0  0  0  0  0
  138.0480   79.3050  223.3080 C   0  0  0  0  0  0  0  0  0  0  0  0
  138.5390   80.5230  223.7890 C   0  0  0  0  0  0  0  0  0  0  0  0
  137.6820   81.4760  224.4850 C   0  0  0  0  0  0  0  0  0  0  0  0
  137.1870   82.6090  223.8300 C   0  0  0  0  0  0  0  0  0  0  0  0
  136.3900   83.4820  224.5010 C   0  0  0  0  0  0  0  0  0  0  0  0
  136.0260   83.3100  225.8400 C   0  0  0  0  0  0  0  0  0  0  0  0
  136.5120   82.1920  226.4850 C   0  0  0  0  0  0  0  0  0  0  0  0
  137.3290   81.2850  225.8250 C   0  0  0  0  0  0  0  0  0  0  0  0
  139.8670   80.8500  223.6090 C   0  0  0  0  0  0  0  0  0  0  0  0
  140.6940   79.9590  222.9520 C   0  0  0  0  0  0  0  0  0  0  0  0
  139.9970   70.7550  223.2540 C   0  0  0  0  0  0  0  0  0  0  0  0
  139.3070   69.5590  223.3520 C   0  0  0  0  0  0  0  0  0  0  0  0
  139.1470   68.8730  224.5330 C   0  0  0  0  0  0  0  0  0  0  0  0
  139.7140   69.4300  225.6680 C   0  0  0  0  0  0  0  0  0  0  0  0
  139.5460   68.7330  226.8450 C   0  0  0  0  0  0  0  0  0  0  0  0
  140.0920   69.2500  227.9890 C   0  0  0  0  0  0  0  0  0  0  0  0
  139.9480   68.5880  229.1820 F   0  0  0  0  0  0  0  0  0  0  0  0
  140.7800   70.4330  227.9190 C   0  0  0  0  0  0  0  0  0  0  0  0
  140.9550   71.1430  226.7370 C   0  0  0  0  0  0  0  0  0  0  0  0
  140.4040   70.6200  225.5860 C   0  0  0  0  0  0  0  0  0  0  0  0
  140.5240   71.2440  224.3880 N   0  0  0  0  0  0  0  0  0  0  0  0
  141.2310   73.0400  222.8120 H   0  0  0  0  0  0  0  0  0  0  0  0
  141.6993   72.8391  219.9931 H   0  0  0  0  0  0  0  0  0  0  0  0
  140.0187   73.4764  220.1477 H   0  0  0  0  0  0  0  0  0  0  0  0
  144.1674   75.4096  219.3830 H   0  0  0  0  0  0  0  0  0  0  0  0
  143.1691   74.0640  218.9089 H   0  0  0  0  0  0  0  0  0  0  0  0
  142.3945   75.2742  216.9686 H   0  0  0  0  0  0  0  0  0  0  0  0
  144.7730   75.9990  217.4990 H   0  0  0  0  0  0  0  0  0  0  0  0
  141.9493   77.9273  217.6664 H   0  0  0  0  0  0  0  0  0  0  0  0
  140.7313   76.7152  217.8750 H   0  0  0  0  0  0  0  0  0  0  0  0
  142.9454   77.5197  220.0132 H   0  0  0  0  0  0  0  0  0  0  0  0
  141.7820   77.2290  222.3010 H   0  0  0  0  0  0  0  0  0  0  0  0
  138.5192   77.4611  222.2665 H   0  0  0  0  0  0  0  0  0  0  0  0
  136.9890   79.0440  223.4511 H   0  0  0  0  0  0  0  0  0  0  0  0
  137.4419   82.7926  222.7758 H   0  0  0  0  0  0  0  0  0  0  0  0
  136.0135   84.3658  223.9652 H   0  0  0  0  0  0  0  0  0  0  0  0
  135.3799   84.0350  226.3566 H   0  0  0  0  0  0  0  0  0  0  0  0
  136.2480   82.0166  227.5384 H   0  0  0  0  0  0  0  0  0  0  0  0
  137.7047   80.4026  226.3637 H   0  0  0  0  0  0  0  0  0  0  0  0
  140.2619   81.8061  223.9830 H   0  0  0  0  0  0  0  0  0  0  0  0
  141.7534   80.2183  222.8094 H   0  0  0  0  0  0  0  0  0  0  0  0
  138.8640   69.1357  222.4385 H   0  0  0  0  0  0  0  0  0  0  0  0
  138.5931   67.9236  224.5749 H   0  0  0  0  0  0  0  0  0  0  0  0
  138.9875   67.7855  226.8647 H   0  0  0  0  0  0  0  0  0  0  0  0
  141.2150   70.8406  228.8434 H   0  0  0  0  0  0  0  0  0  0  0  0
  141.5141   72.0901  226.7202 H   0  0  0  0  0  0  0  0  0  0  0  0
  1  2  2  0
  2  3  1  0
  3  4  1  0
  4  5  1  0
  5  6  2  0
  5  7  1  0
  7  8  1  0
  8  9  1  0
  9 10  1  0
  9 11  1  0
 11 12  1  0
 12 13  1  0
 13 14  2  0
 13 15  1  0
 15 16  1  0
 16 17  2  0
 17 18  1  0
 18 19  2  0
 19 20  1  0
 20 21  2  0
 21 22  1  0
 22 23  2  0
 23 24  1  0
 24 25  2  0
 19 26  1  0
 26 27  2  0
  2 28  1  0
 28 29  2  0
 29 30  1  0
 30 31  2  0
 31 32  1  0
 32 33  2  0
 33 34  1  0
 33 35  1  0
 35 36  2  0
 36 37  1  0
 37 38  2  0
 12  7  1  0
 27 16  1  0
 38 28  1  0
 25 20  1  0
 37 31  1  0
  3 39  1  0
  4 40  1  0
  4 41  1  0
  8 42  1  0
  8 43  1  0
  9 44  1  6
 10 45  1  0
 11 46  1  0
 11 47  1  0
 12 48  1  6
 15 49  1  0
 17 50  1  0
 18 51  1  0
 21 52  1  0
 22 53  1  0
 23 54  1  0
 24 55  1  0
 25 56  1  0
 26 57  1  0
 27 58  1  0
 29 59  1  0
 30 60  1  0
 32 61  1  0
 35 62  1  0
 36 63  1  0
M  END
