
     RDKit          3D

 61 64  0  0  0  0  0  0  0  0999 V2000
  138.5290   79.8190  220.7120 C   0  0  0  0  0  0  0  0  0  0  0  0
  139.2150   78.8210  221.6150 C   0  0  0  0  0  0  0  0  0  0  0  0
  138.1470   78.4210  222.6490 C   0  0  0  0  0  0  0  0  0  0  0  0
  140.3930   79.3880  222.3170 C   0  0  0  0  0  0  0  0  0  0  0  0
  140.1630   80.4900  223.1190 C   0  0  0  0  0  0  0  0  0  0  0  0
  141.1750   81.1000  223.8350 C   0  0  0  0  0  0  0  0  0  0  0  0
  142.4240   80.5760  223.7260 C   0  0  0  0  0  0  0  0  0  0  0  0
  142.6540   79.4670  222.9180 C   0  0  0  0  0  0  0  0  0  0  0  0
  141.6720   78.8400  222.1970 C   0  0  0  0  0  0  0  0  0  0  0  0
  141.8210   77.7340  221.3630 N   0  0  0  0  0  0  0  0  0  0  0  0
  141.8290   77.7170  219.9300 C   0  0  0  0  0  0  0  0  0  0  0  0
  141.6880   78.8140  219.3600 O   0  0  0  0  0  0  0  0  0  0  0  0
  142.0010   76.4090  219.2990 C   0  0  2  0  0  0  0  0  0  0  0  0
  141.7130   76.5400  217.7840 C   0  0  0  0  0  0  0  0  0  0  0  0
  141.5600   75.1150  217.3510 C   0  0  2  0  0  0  0  0  0  0  0  0
  140.4510   74.9280  216.5420 F   0  0  0  0  0  0  0  0  0  0  0  0
  141.5290   74.3300  218.6010 C   0  0  0  0  0  0  0  0  0  0  0  0
  141.1470   75.3260  219.6580 N   0  0  0  0  0  0  0  0  0  0  0  0
  140.1710   75.1370  220.6510 C   0  0  0  0  0  0  0  0  0  0  0  0
  139.8810   76.2030  221.3430 O   0  0  0  0  0  0  0  0  0  0  0  0
  139.4180   73.9660  221.0580 C   0  0  0  0  0  0  0  0  0  0  0  0
  139.5710   73.4000  222.3450 N   0  0  0  0  0  0  0  0  0  0  0  0
  139.6780   71.9480  222.4120 C   0  0  0  0  0  0  0  0  0  0  0  0
  139.6160   71.3620  221.3070 O   0  0  0  0  0  0  0  0  0  0  0  0
  139.8410   71.2740  223.6910 C   0  0  0  0  0  0  0  0  0  0  0  0
  139.5020   69.9610  223.7760 C   0  0  0  0  0  0  0  0  0  0  0  0
  139.6340   69.2630  224.9500 C   0  0  0  0  0  0  0  0  0  0  0  0
  140.1240   69.9420  226.0410 C   0  0  0  0  0  0  0  0  0  0  0  0
  140.2810   69.2970  227.2480 C   0  0  0  0  0  0  0  0  0  0  0  0
  140.7720   70.0120  228.3020 C   0  0  0  0  0  0  0  0  0  0  0  0
  141.1160   71.3480  228.2120 C   0  0  0  0  0  0  0  0  0  0  0  0
  140.9610   72.0010  227.0020 C   0  0  0  0  0  0  0  0  0  0  0  0
  140.4720   71.2940  225.9470 C   0  0  0  0  0  0  0  0  0  0  0  0
  140.3150   71.9030  224.7760 N   0  0  0  0  0  0  0  0  0  0  0  0
  138.0113   80.5721  221.3242 H   0  0  0  0  0  0  0  0  0  0  0  0
  139.2782   80.3146  220.0771 H   0  0  0  0  0  0  0  0  0  0  0  0
  137.7979   79.2970  220.0771 H   0  0  0  0  0  0  0  0  0  0  0  0
  139.5973   77.9755  221.0243 H   0  0  0  0  0  0  0  0  0  0  0  0
  138.5450   78.5701  223.6636 H   0  0  0  0  0  0  0  0  0  0  0  0
  137.2514   79.0446  222.5111 H   0  0  0  0  0  0  0  0  0  0  0  0
  137.8815   77.3625  222.5111 H   0  0  0  0  0  0  0  0  0  0  0  0
  139.1423   80.8940  223.1894 H   0  0  0  0  0  0  0  0  0  0  0  0
  140.9771   81.9767  224.4693 H   0  0  0  0  0  0  0  0  0  0  0  0
  143.2582   81.0313  224.2799 H   0  0  0  0  0  0  0  0  0  0  0  0
  143.6789   79.0725  222.8546 H   0  0  0  0  0  0  0  0  0  0  0  0
  141.9390   76.7850  221.8100 H   0  0  0  0  0  0  0  0  0  0  0  0
  143.0197   76.1617  219.6324 H   0  0  0  0  0  0  0  0  0  0  0  0
  140.7896   77.1101  217.6041 H   0  0  0  0  0  0  0  0  0  0  0  0
  142.4997   77.0795  217.2362 H   0  0  0  0  0  0  0  0  0  0  0  0
  142.3925   74.7850  216.7122 H   0  0  0  0  0  0  0  0  0  0  0  0
  140.7822   73.5249  218.5367 H   0  0  0  0  0  0  0  0  0  0  0  0
  142.4914   73.8415  218.8134 H   0  0  0  0  0  0  0  0  0  0  0  0
  138.3549   74.2310  220.9599 H   0  0  0  0  0  0  0  0  0  0  0  0
  139.8282   73.1820  220.4045 H   0  0  0  0  0  0  0  0  0  0  0  0
  139.6200   73.8810  223.2570 H   0  0  0  0  0  0  0  0  0  0  0  0
  139.1134   69.4466  222.8847 H   0  0  0  0  0  0  0  0  0  0  0  0
  139.3582   68.2002  225.0160 H   0  0  0  0  0  0  0  0  0  0  0  0
  140.0179   68.2348  227.3594 H   0  0  0  0  0  0  0  0  0  0  0  0
  140.8999   69.5015  229.2679 H   0  0  0  0  0  0  0  0  0  0  0  0
  141.5071   71.8839  229.0894 H   0  0  0  0  0  0  0  0  0  0  0  0
  141.2260   73.0633  226.8956 H   0  0  0  0  0  0  0  0  0  0  0  0
  1  2  1  0
  2  3  1  0
  2  4  1  0
  4  5  2  0
  5  6  1  0
  6  7  2  0
  7  8  1  0
  8  9  2  0
  9 10  1  0
 10 11  1  0
 11 12  2  0
 11 13  1  0
 13 14  1  0
 14 15  1  0
 15 16  1  0
 15 17  1  0
 17 18  1  0
 18 19  1  0
 19 20  2  0
 19 21  1  0
 21 22  1  0
 22 23  1  0
 23 24  2  0
 23 25  1  0
 25 26  2  0
 26 27  1  0
 27 28  2  0
 28 29  1  0
 29 30  2  0
 30 31  1  0
 31 32  2  0
 32 33  1  0
 33 34  2  0
  9  4  1  0
 18 13  1  0
 34 25  1  0
 33 28  1  0
  1 35  1  0
  1 36  1  0
  1 37  1  0
  2 38  1  0
  3 39  1  0
  3 40  1  0
  3 41  1  0
  5 42  1  0
  6 43  1  0
  7 44  1  0
  8 45  1  0
 10 46  1  0
 13 47  1  6
 14 48  1  0
 14 49  1  0
 15 50  1  6
 17 51  1  0
 17 52  1  0
 21 53  1  0
 21 54  1  0
 22 55  1  0
 26 56  1  0
 27 57  1  0
 29 58  1  0
 30 59  1  0
 31 60  1  0
 32 61  1  0
M  END
