@<TRIPOS>MOLECULE
*****
 67 71 0 0 0
SMALL
GASTEIGER

@<TRIPOS>ATOM
      1 O         138.2870   72.0890  222.3000 O.2     1  UNL1       -0.2685
      2 C         139.4530   71.7600  222.7030 C.2     1  UNL1        0.2628
      3 N         140.6040   72.2310  221.9780 N.am    1  UNL1       -0.3015
      4 C         140.3540   73.0600  220.8280 C.3     1  UNL1        0.0887
      5 C         141.4900   73.9970  220.6110 C.2     1  UNL1        0.2334
      6 O         142.6890   73.6900  220.8380 O.2     1  UNL1       -0.2739
      7 N         141.2410   75.3100  220.1230 N.am    1  UNL1       -0.2886
      8 C         139.9650   75.7600  219.5950 C.3     1  UNL1        0.0156
      9 C         140.3240   76.9150  218.6550 C.3     1  UNL1       -0.0350
     10 C         141.8570   76.8730  218.5910 C.3     1  UNL1       -0.0243
     11 C         142.1390   76.4470  220.0390 C.3     1  UNL1        0.1022
     12 C         141.6750   77.5630  220.9020 C.2     1  UNL1        0.2338
     13 O         141.4730   78.7230  220.4810 O.2     1  UNL1       -0.2738
     14 N         141.4480   77.3030  222.2710 N.am    1  UNL1       -0.3109
     15 C         140.9920   78.3650  223.1570 C.3     1  UNL1        0.0234
     16 C         141.9640   79.5050  223.0130 C.3     1  UNL1       -0.0312
     17 C         141.4400   80.8330  223.4590 C.3     1  UNL1       -0.0140
     18 C         140.0370   81.1450  223.0830 C.3     1  UNL1        0.1035
     19 O         139.1660   81.2750  224.2000 O.3     1  UNL1       -0.4592
     20 C         137.7900   81.3150  223.9140 C.ar    1  UNL1        0.3181
     21 N         137.0200   80.2960  224.3450 N.ar    1  UNL1       -0.2033
     22 C         135.6900   80.3380  224.0660 C.ar    1  UNL1        0.0344
     23 C         135.1820   81.4210  223.3580 C.ar    1  UNL1       -0.0252
     24 C         136.0060   82.4590  222.9280 C.ar    1  UNL1        0.0344
     25 N         137.3090   82.3610  223.2310 N.ar    1  UNL1       -0.2033
     26 C         139.5380   80.1080  222.1070 C.3     1  UNL1       -0.0140
     27 C         139.5750   78.7770  222.8260 C.3     1  UNL1       -0.0312
     28 C         139.6390   70.9160  223.8780 C.ar    1  UNL1        0.1260
     29 C         139.2030   69.6070  223.8180 C.ar    1  UNL1       -0.0306
     30 C         139.3330   68.7260  224.8770 C.ar    1  UNL1       -0.0503
     31 C         139.9310   69.2150  226.0320 C.ar    1  UNL1        0.0031
     32 C         140.0580   68.3280  227.0890 C.ar    1  UNL1       -0.0173
     33 C         140.6560   68.8000  228.2580 C.ar    1  UNL1        0.1241
     34 F         140.8000   67.9710  229.3120 F       1  UNL1       -0.2055
     35 C         141.0940   70.1190  228.3160 C.ar    1  UNL1       -0.0244
     36 C         140.9470   70.9690  227.2340 C.ar    1  UNL1       -0.0330
     37 C         140.3640   70.5190  226.0880 C.ar    1  UNL1        0.0720
     38 N         140.2140   71.3500  225.0150 N.ar    1  UNL1       -0.2421
     39 H         141.5710   71.9660  222.3000 H       1  UNL1        0.1496
     40 H         140.2347   72.4222  219.9397 H       1  UNL1        0.0558
     41 H         139.4368   73.6426  220.9990 H       1  UNL1        0.0558
     42 H         139.4655   74.9503  219.0428 H       1  UNL1        0.0465
     43 H         139.2692   76.0683  220.3893 H       1  UNL1        0.0465
     44 H         139.8859   76.7594  217.6581 H       1  UNL1        0.0281
     45 H         139.9396   77.8840  219.0061 H       1  UNL1        0.0281
     46 H         142.2205   76.1321  217.8637 H       1  UNL1        0.0288
     47 H         142.3452   77.8033  218.2652 H       1  UNL1        0.0288
     48 H         143.1771   76.2184  220.3221 H       1  UNL1        0.0597
     49 H         141.5980   76.3460  222.6910 H       1  UNL1        0.1490
     50 H         140.9671   78.0244  224.2026 H       1  UNL1        0.0498
     51 H         142.2430   79.5855  221.9520 H       1  UNL1        0.0284
     52 H         142.8163   79.2713  223.6680 H       1  UNL1        0.0284
     53 H         142.0847   81.6112  223.0246 H       1  UNL1        0.0301
     54 H         141.4492   80.7987  224.5584 H       1  UNL1        0.0301
     55 H         140.0354   82.1344  222.6022 H       1  UNL1        0.0734
     56 H         135.0251   79.5262  224.3960 H       1  UNL1        0.0832
     57 H         134.1061   81.4594  223.1323 H       1  UNL1        0.0648
     58 H         135.6073   83.3172  222.3672 H       1  UNL1        0.0832
     59 H         140.1889   80.0779  221.2208 H       1  UNL1        0.0301
     60 H         138.5191   80.3445  221.7666 H       1  UNL1        0.0301
     61 H         139.1210   78.0099  222.1815 H       1  UNL1        0.0284
     62 H         139.0160   78.8780  223.7680 H       1  UNL1        0.0284
     63 H         138.7329   69.2499  222.8898 H       1  UNL1        0.0641
     64 H         138.9793   67.6867  224.8078 H       1  UNL1        0.0625
     65 H         139.7008   67.2907  227.0095 H       1  UNL1        0.0653
     66 H         141.5650   70.4925  229.2372 H       1  UNL1        0.0647
     67 H         141.3011   72.0084  227.2993 H       1  UNL1        0.0640
@<TRIPOS>BOND
     1     1     2    2
     2     2     3   am
     3     3     4    1
     4     4     5    1
     5     5     6    2
     6     5     7   am
     7     7     8    1
     8     8     9    1
     9     9    10    1
    10    10    11    1
    11    11    12    1
    12    12    13    2
    13    12    14   am
    14    14    15    1
    15    15    16    1
    16    16    17    1
    17    17    18    1
    18    18    19    1
    19    19    20    1
    20    20    21   ar
    21    21    22   ar
    22    22    23   ar
    23    23    24   ar
    24    24    25   ar
    25    18    26    1
    26    26    27    1
    27     2    28    1
    28    28    29   ar
    29    29    30   ar
    30    30    31   ar
    31    31    32   ar
    32    32    33   ar
    33    33    34    1
    34    33    35   ar
    35    35    36   ar
    36    36    37   ar
    37    37    38   ar
    38    11     7    1
    39    27    15    1
    40    38    28   ar
    41    25    20   ar
    42    37    31   ar
    43     3    39    1
    44     4    40    1
    45     4    41    1
    46     8    42    1
    47     8    43    1
    48     9    44    1
    49     9    45    1
    50    10    46    1
    51    10    47    1
    52    11    48    1
    53    14    49    1
    54    15    50    1
    55    16    51    1
    56    16    52    1
    57    17    53    1
    58    17    54    1
    59    18    55    1
    60    22    56    1
    61    23    57    1
    62    24    58    1
    63    26    59    1
    64    26    60    1
    65    27    61    1
    66    27    62    1
    67    29    63    1
    68    30    64    1
    69    32    65    1
    70    35    66    1
    71    36    67    1
